data_functionalizedCrystal
_audit_creation_method	'MofGen! by Chris Wilmer'
_symmetry_space_group_name_H-M	'P1'
_symmetry_Int_Tables_number	1
_symmetry_cell_setting	triclinic
loop_
_symmetry_equiv_pos_as_xyz
  x,y,z
_cell_length_a	19.805407
_cell_length_b	15.296598
_cell_length_c	19.805399
_cell_angle_alpha	99.708991
_cell_angle_beta	89.982197
_cell_angle_gamma	80.299152
loop_
_atom_site_label
_atom_site_type_symbol
_atom_site_fract_x
_atom_site_fract_y
_atom_site_fract_z
Zn1	Zn	0.988068	0.359337	-0.335999
Zn2	Zn	1.321401	0.692670	-0.002665
Zn3	Zn	1.654734	1.026003	0.330668
Zn4	Zn	0.968384	0.510241	-0.203203
Zn5	Zn	1.301717	0.843574	0.130130
Zn6	Zn	1.635051	1.176907	0.463463
Zn7	Zn	0.874880	0.359355	-0.222825
Zn8	Zn	1.208213	0.692688	0.110509
Zn9	Zn	1.541547	1.026021	0.443842
Zn10	Zn	0.855255	0.510186	-0.316361
Zn11	Zn	1.188588	0.843519	0.016972
Zn12	Zn	1.521921	1.176852	0.350306
O13	O	0.921646	0.434779	-0.269597
O14	O	1.254980	0.768113	0.063736
O15	O	1.588313	1.101446	0.397070
O16	O	1.080171	0.379370	-0.318390
O17	O	1.413504	0.712703	0.014943
O18	O	1.746838	1.046037	0.348276
O19	O	0.955956	0.490256	-0.111086
O20	O	1.289290	0.823589	0.222248
O21	O	1.622623	1.156923	0.555581
O22	O	0.906345	0.233075	-0.254267
O23	O	1.239679	0.566408	0.079066
O24	O	1.573012	0.899742	0.412399
O25	O	1.065710	0.490239	-0.220826
O26	O	1.399043	0.823572	0.112507
O27	O	1.732376	1.156905	0.445841
O28	O	0.989504	0.233062	-0.337416
O29	O	1.322837	0.566395	-0.004083
O30	O	1.656171	0.899729	0.329251
O31	O	0.887259	0.379400	-0.125501
O32	O	1.220592	0.712734	0.207832
O33	O	1.553926	1.046067	0.541165
O34	O	0.777562	0.379347	-0.235225
O35	O	1.110895	0.712680	0.098108
O36	O	1.444229	1.046014	0.431441
O37	O	0.872897	0.490145	-0.413686
O38	O	1.206230	0.823478	-0.080353
O39	O	1.539563	1.156811	0.252980
O40	O	0.763143	0.490162	-0.303946
O41	O	1.096477	0.823495	0.029387
O42	O	1.429810	1.156829	0.362721
O43	O	0.970474	0.379317	-0.428114
O44	O	1.303807	0.712650	-0.094781
O45	O	1.637141	1.045983	0.238552
O46	O	0.936926	0.636511	-0.201784
O47	O	1.270260	0.969844	0.131549
O48	O	1.603593	1.303177	0.464883
O49	O	0.853810	0.636470	-0.284920
O50	O	1.187144	0.969804	0.048413
O51	O	1.520477	1.303137	0.381746
C52	C	0.745794	0.434751	-0.269584
C53	C	1.079127	0.768085	0.063749
C54	C	1.412461	1.101418	0.397083
C55	C	0.670561	0.434761	-0.269592
C56	C	1.003894	0.768094	0.063741
C57	C	1.337228	1.101428	0.397075
C58	C	0.642734	0.377134	-0.320446
C59	C	0.976068	0.710467	0.012887
C60	C	1.309401	1.043800	0.346221
C61	C	0.572045	0.377138	-0.320448
C62	C	0.905378	0.710472	0.012885
C63	C	1.238712	1.043805	0.346219
C64	C	0.529183	0.434776	-0.269598
C65	C	0.862517	0.768109	0.063735
C66	C	1.195850	1.101442	0.397068
C67	C	0.557015	0.492405	-0.218739
C68	C	0.890348	0.825739	0.114594
C69	C	1.223681	1.159072	0.447928
C70	C	0.627703	0.492395	-0.218735
C71	C	0.961037	0.825729	0.114599
C72	C	1.294370	1.159062	0.447932
C73	C	0.271936	0.492446	-0.218754
C74	C	0.605270	0.825779	0.114579
C75	C	0.938603	1.159112	0.447912
C76	C	0.201243	0.492453	-0.218764
C77	C	0.534576	0.825787	0.114570
C78	C	0.867910	1.159120	0.447903
C79	C	0.216278	0.377189	-0.320468
C80	C	0.549611	0.710522	0.012865
C81	C	0.882945	1.043856	0.346199
C82	C	0.286967	0.377179	-0.320464
C83	C	0.620300	0.710512	0.012870
C84	C	0.953633	1.043846	0.346203
C85	C	0.314792	0.434805	-0.269603
C86	C	0.648126	0.768138	0.063731
C87	C	0.981459	1.101472	0.397064
C88	C	0.391442	0.434798	-0.269600
C89	C	0.724775	0.768131	0.063733
C90	C	1.058108	1.101465	0.397066
C91	C	0.452535	0.434788	-0.269603
C92	C	0.785868	0.768121	0.063731
C93	C	1.119201	1.101454	0.397064
C94	C	0.891121	0.669233	-0.239107
C95	C	1.224455	1.002566	0.094227
C96	C	1.557788	1.335899	0.427560
C97	C	0.878124	0.769533	-0.226086
C98	C	1.211458	1.102866	0.107248
C99	C	1.544791	1.436199	0.440581
C100	C	0.828745	0.816741	-0.176635
C101	C	1.162078	1.150074	0.156698
C102	C	1.495411	1.483408	0.490031
C103	C	0.816536	0.910978	-0.164405
C104	C	1.149869	1.244311	0.168929
C105	C	1.483203	1.577645	0.502262
C106	C	0.853702	0.958016	-0.201627
C107	C	1.187035	1.291349	0.131707
C108	C	1.520369	1.624682	0.465040
C109	C	0.903079	0.910807	-0.251081
C110	C	1.236413	1.244141	0.082252
C111	C	1.569746	1.577474	0.415585
C112	C	0.915293	0.816561	-0.263310
C113	C	1.248626	1.149895	0.070024
C114	C	1.581960	1.483228	0.403357
C115	C	0.940250	0.957836	-0.288301
C116	C	1.273584	1.291169	0.045032
C117	C	1.606917	1.624503	0.378366
C118	C	0.989628	0.910628	-0.337756
C119	C	1.322961	1.243961	-0.004422
C120	C	1.656294	1.577294	0.328911
C121	C	1.001839	0.816391	-0.349982
C122	C	1.335172	1.149724	-0.016649
C123	C	1.668505	1.483058	0.316685
C124	C	0.964673	0.769353	-0.312760
C125	C	1.298006	1.102686	0.020573
C126	C	1.631339	1.436020	0.353907
C127	C	0.928037	1.052082	-0.276073
C128	C	1.261370	1.385416	0.057261
C129	C	1.594704	1.718749	0.390594
C130	C	1.014585	1.051903	-0.362747
C131	C	1.347919	1.385236	-0.029414
C132	C	1.681252	1.718569	0.303920
C133	C	1.026794	0.957666	-0.374978
C134	C	1.360127	1.290999	-0.041644
C135	C	1.693460	1.624332	0.291689
C136	C	1.098185	0.434808	-0.269610
C137	C	1.431519	0.768142	0.063723
C138	C	1.764852	1.101475	0.397057
C139	C	1.173416	0.434821	-0.269616
C140	C	1.506749	0.768154	0.063718
C141	C	1.840082	1.101488	0.397051
C142	C	0.921692	0.434723	-0.446147
C143	C	1.255025	0.768056	-0.112814
C144	C	1.588358	1.101389	0.220520
C145	C	0.921711	0.434698	-0.521382
C146	C	1.255044	0.768032	-0.188049
C147	C	1.588378	1.101365	0.145284
C148	C	0.952267	1.199411	-0.300227
C149	C	1.285600	1.532744	0.033106
C150	C	1.618933	1.866077	0.366439
C151	C	0.965206	1.099111	-0.313297
C152	C	1.298539	1.432444	0.020037
C153	C	1.631872	1.765777	0.353370
C154	C	0.972521	0.376987	-0.564240
C155	C	1.305854	0.710321	-0.230907
C156	C	1.639188	1.043654	0.102426
C157	C	0.972531	0.376961	-0.634932
C158	C	1.305865	0.710295	-0.301599
C159	C	1.639198	1.043628	0.031734
C160	C	0.921734	0.434651	-0.662764
C161	C	1.255067	0.767985	-0.329431
C162	C	1.588401	1.101318	0.003903
C163	C	0.870919	0.492365	-0.619901
C164	C	1.204253	0.825698	-0.286567
C165	C	1.537586	1.159032	0.046766
C166	C	0.870907	0.492386	-0.549211
C167	C	1.204240	0.825719	-0.215877
C168	C	1.537573	1.159053	0.117456
C169	C	0.870968	0.492281	-0.904985
C170	C	1.204302	0.825614	-0.571652
C171	C	1.537635	1.158947	-0.238318
C172	C	0.870986	0.492257	-0.975680
C173	C	1.204319	0.825591	-0.642347
C174	C	1.537653	1.158924	-0.309013
C175	C	0.972593	0.376856	-0.990707
C176	C	1.305926	0.710189	-0.657373
C177	C	1.639260	1.043523	-0.324040
C178	C	0.972580	0.376877	-0.920017
C179	C	1.305914	0.710210	-0.586683
C180	C	1.639247	1.043544	-0.253350
C181	C	0.921764	0.434587	-0.877160
C182	C	1.255097	0.767920	-0.543827
C183	C	1.588430	1.101254	-0.210493
C184	C	0.921752	0.434613	-0.800508
C185	C	1.255086	0.767947	-0.467175
C186	C	1.588419	1.101280	-0.133841
C187	C	0.921748	0.434630	-0.739414
C188	C	1.255081	0.767963	-0.406081
C189	C	1.588414	1.101297	-0.072747
C190	C	0.921649	0.434771	-0.093742
C191	C	1.254982	0.768104	0.239591
C192	C	1.588315	1.101438	0.572925
C193	C	0.921794	0.434541	-0.018540
C194	C	1.255127	0.767874	0.314793
C195	C	1.588460	1.101208	0.648126
H196	H	0.166346	0.539391	-0.177353
H197	H	0.499679	0.872724	0.155981
H198	H	0.833013	1.206057	0.489314
Cl199	Cl	0.306910	0.564871	-0.154803
Cl200	Cl	0.640244	0.898204	0.178531
Cl201	Cl	0.973577	1.231537	0.511864
H202	H	1.013907	0.329969	-0.669825
H203	H	1.347240	0.663303	-0.336492
H204	H	1.680574	0.996636	-0.003158
Cl205	Cl	0.340846	0.304722	-0.384394
Cl206	Cl	0.674179	0.638055	-0.051061
Cl207	Cl	1.007513	0.971389	0.282272
Cl208	Cl	0.503132	0.564859	-0.154810
Cl209	Cl	0.836465	0.898192	0.178524
Cl210	Cl	1.169799	1.231526	0.511857
H211	H	1.066998	0.919217	-0.415244
H212	H	1.400331	1.252550	-0.081911
H213	H	1.733664	1.585884	0.251422
H214	H	1.044850	1.090200	-0.393055
H215	H	1.378183	1.423534	-0.059722
H216	H	1.711517	1.756867	0.273611
H217	H	1.013947	0.329903	-0.897360
H218	H	1.347280	0.663236	-0.564027
H219	H	1.680613	0.996570	-0.230693
H220	H	0.974606	0.692618	-0.322720
H221	H	1.307939	1.025951	0.010614
H222	H	1.641273	1.359284	0.343947
H223	H	0.549392	0.330214	-0.361860
H224	H	0.882726	0.663548	-0.028527
H225	H	1.216059	0.996881	0.304807
Cl226	Cl	1.036476	0.304302	-1.044589
Cl227	Cl	1.369809	0.637635	-0.711255
Cl228	Cl	1.703142	0.970968	-0.377922
H229	H	0.650358	0.539321	-0.177323
H230	H	0.983691	0.872654	0.156010
H231	H	1.317025	1.205987	0.489343
Cl232	Cl	0.807057	0.564887	-0.654889
Cl233	Cl	1.140391	0.898220	-0.321556
Cl234	Cl	1.473724	1.231554	0.011777
Cl235	Cl	0.181293	0.304741	-0.384407
Cl236	Cl	0.514627	0.638074	-0.051074
Cl237	Cl	0.847960	0.971407	0.282260
Cl238	Cl	1.063920	0.757045	-0.412147
Cl239	Cl	1.397254	1.090379	-0.078813
Cl240	Cl	1.730587	1.423712	0.254520
H241	H	0.829526	0.539371	-0.514317
H242	H	1.162860	0.872704	-0.180983
H243	H	1.496193	1.206038	0.152350
Cl244	Cl	0.807121	0.564787	-1.010667
Cl245	Cl	1.140454	0.898120	-0.677334
Cl246	Cl	1.473788	1.231453	-0.344000
Cl247	Cl	0.696611	0.304675	-0.384378
Cl248	Cl	1.029944	0.638009	-0.051045
Cl249	Cl	1.363277	0.971342	0.282288
Cl250	Cl	0.807085	0.564831	-0.851117
Cl251	Cl	1.140418	0.898164	-0.517784
Cl252	Cl	1.473751	1.231498	-0.184450
H253	H	0.798492	0.778437	-0.146330
H254	H	1.131825	1.111770	0.187004
H255	H	1.465159	1.445103	0.520337
Cl256	Cl	1.036387	0.304463	-0.529259
Cl257	Cl	1.369720	0.637796	-0.195926
Cl258	Cl	1.703054	0.971129	0.137408
H259	H	0.887833	1.090510	-0.235807
H260	H	1.221166	1.423843	0.097527
H261	H	1.554500	1.757177	0.430860
H262	H	0.843759	1.034748	-0.191666
H263	H	1.177092	1.368081	0.141668
H264	H	1.510425	1.701414	0.475001
H265	H	0.776334	0.949408	-0.124137
H266	H	1.109668	1.282742	0.209196
H267	H	1.443001	1.616075	0.542530
