data_functionalizedCrystal
_audit_creation_method	'MofGen! by Chris Wilmer'
_symmetry_space_group_name_H-M	'P1'
_symmetry_Int_Tables_number	1
_symmetry_cell_setting	triclinic
loop_
_symmetry_equiv_pos_as_xyz
  x,y,z
_cell_length_a	12.759401
_cell_length_b	18.101395
_cell_length_c	12.759393
_cell_angle_alpha	89.966505
_cell_angle_beta	89.980163
_cell_angle_gamma	90.032629
loop_
_atom_site_label
_atom_site_type_symbol
_atom_site_fract_x
_atom_site_fract_y
_atom_site_fract_z
Zn1	Zn	1.606135	-0.294755	-0.594006
Zn2	Zn	1.605979	-0.418617	-0.418321
Zn3	Zn	1.430437	-0.294797	-0.418342
Zn4	Zn	1.430376	-0.418563	-0.593958
O5	O	1.518232	-0.356683	-0.506157
O6	O	1.753136	-0.311191	-0.570713
O7	O	1.582654	-0.402232	-0.271302
O8	O	1.453835	-0.191159	-0.441673
O9	O	1.753021	-0.402192	-0.441637
O10	O	1.582920	-0.191128	-0.570733
O11	O	1.453684	-0.311262	-0.271318
O12	O	1.283408	-0.311210	-0.441626
O13	O	1.453730	-0.402099	-0.740986
O14	O	1.283363	-0.402140	-0.570651
O15	O	1.582860	-0.311139	-0.741021
O16	O	1.582594	-0.522243	-0.441590
O17	O	1.453579	-0.522203	-0.570630
C18	C	1.245265	-0.356674	-0.506136
C19	C	1.128488	-0.356688	-0.506152
C20	C	1.073630	-0.404107	-0.573229
C21	C	0.963906	-0.404110	-0.573250
C22	C	0.963908	-0.309272	-0.439107
C23	C	1.073630	-0.309266	-0.439092
C24	C	1.518091	-0.549094	-0.506126
C25	C	1.518127	-0.631408	-0.506148
C26	C	1.518358	-0.930499	-0.506204
C27	C	1.437373	-0.899179	-0.587594
C28	C	1.436988	-0.813561	-0.587340
C29	C	1.518243	-0.782116	-0.506177
C30	C	1.488263	-0.813277	-0.395451
C31	C	1.487741	-0.898922	-0.395938
C32	C	1.629500	-0.898838	-0.534565
C33	C	1.628847	-0.813187	-0.536994
C34	C	1.518181	-0.698257	-0.506155
C35	C	1.518418	-1.014358	-0.506219
C36	C	1.792265	-0.356693	-0.506178
C37	C	1.909042	-0.356697	-0.506187
C38	C	1.518305	-0.356608	-0.780190
C39	C	1.518337	-0.356576	-0.896967
C40	C	1.518402	-0.163521	-0.506211
C41	C	1.518474	-0.081207	-0.506234
C42	C	1.451206	-0.309200	-0.951836
C43	C	1.451230	-0.309177	-1.061561
C44	C	1.585525	-0.403910	-1.061536
C45	C	1.585495	-0.403936	-0.951814
C46	C	1.518219	-0.356704	-0.233189
C47	C	1.518392	-0.356528	-0.116413
H48	H	1.455746	-0.792491	-0.669442
H49	H	1.396521	-0.270637	-0.907183
H50	H	1.455945	-0.919720	-0.669962
C51	C	1.659397	-0.455997	-1.121879
C52	C	1.613831	-0.514112	-1.197292
C53	C	1.687704	-0.566199	-1.257636
C54	C	1.807143	-0.560170	-1.242568
C55	C	1.852715	-0.502053	-1.167152
C56	C	1.778842	-0.449966	-1.106807
H57	H	1.525410	-0.518576	-1.208450
H58	H	1.653968	-0.609221	-1.313465
H59	H	1.861828	-0.598728	-1.287239
H60	H	1.941136	-0.497588	-1.155994
H61	H	1.812578	-0.406944	-1.050979
C62	C	1.659344	-0.456053	-0.891449
C63	C	1.733225	-0.508140	-0.951773
C64	C	1.807066	-0.560257	-0.891408
C65	C	1.807028	-0.560287	-0.770718
C66	C	1.733144	-0.508198	-0.710386
C67	C	1.659302	-0.456081	-0.770752
H68	H	1.733256	-0.508119	-1.041121
H69	H	1.861760	-0.598816	-0.936070
H70	H	1.861690	-0.598867	-0.726032
H71	H	1.733113	-0.508219	-0.621038
H72	H	1.604609	-0.417522	-0.726090
C73	C	1.326754	-0.928343	-0.562545
C74	C	1.309713	-0.980422	-0.468590
C75	C	1.199096	-1.009590	-0.443540
C76	C	1.105521	-0.986678	-0.512446
C77	C	1.122560	-0.934596	-0.606408
C78	C	1.233177	-0.905429	-0.631457
H79	H	1.378985	-0.997385	-0.417576
H80	H	1.186483	-1.048144	-0.373984
H81	H	1.023637	-1.008269	-0.493903
H82	H	1.053288	-0.917633	-0.657422
H83	H	1.245790	-0.866874	-0.701014
H84	H	1.118292	-0.442720	-0.627836
H85	H	1.651455	-0.792817	-0.618482
H86	H	1.354607	-0.793141	-0.568554
C87	C	0.903561	-0.257117	-0.365336
C88	C	0.782871	-0.257124	-0.365343
C89	C	0.722527	-0.204969	-0.291566
C90	C	0.782872	-0.152807	-0.217783
C91	C	0.903569	-0.152798	-0.217774
C92	C	0.963913	-0.204953	-0.291550
H93	H	0.738193	-0.295739	-0.419964
H94	H	0.633179	-0.204976	-0.291574
H95	H	0.738202	-0.114198	-0.163170
H96	H	0.948247	-0.114182	-0.163152
H97	H	1.053261	-0.204946	-0.291542
C98	C	1.377389	-0.257058	-1.121916
C99	C	1.257944	-0.263092	-1.106811
C100	C	1.184098	-0.210971	-1.167165
C101	C	1.229698	-0.152817	-1.242624
C102	C	1.349149	-0.146780	-1.257732
C103	C	1.422995	-0.198901	-1.197378
H104	H	1.224183	-0.306144	-1.050949
H105	H	1.095672	-0.215440	-1.155981
H106	H	1.175033	-0.114234	-1.287302
H107	H	1.382911	-0.103728	-1.313594
H108	H	1.511421	-0.194432	-1.208562
C109	C	1.377985	-0.926009	-0.363490
C110	C	1.364727	-0.974821	-0.265485
C111	C	1.254968	-1.001904	-0.233039
C112	C	1.158466	-0.980174	-0.298596
C113	C	1.171721	-0.931359	-0.396607
C114	C	1.281480	-0.904277	-0.429054
H115	H	1.436166	-0.990909	-0.216950
H116	H	1.245156	-1.038040	-0.160485
H117	H	1.077216	-1.000222	-0.274578
H118	H	1.100282	-0.915271	-0.445142
H119	H	1.291292	-0.868141	-0.501608
H120	H	1.545393	-0.792910	-0.333156
C121	C	1.563942	-0.926921	-0.311204
C122	C	1.625072	-0.871348	-0.243308
C123	C	1.701258	-0.899344	-0.158563
C124	C	1.716315	-0.982913	-0.141715
C125	C	1.655184	-1.038491	-0.209613
C126	C	1.578997	-1.010495	-0.294358
H127	H	1.613927	-0.809481	-0.255778
H128	H	1.746512	-0.858201	-0.108301
H129	H	1.772713	-1.003637	-0.078983
H130	H	1.666328	-1.100358	-0.197143
H131	H	1.533744	-1.051638	-0.344620
H132	H	1.689837	-0.919091	-0.475286
H133	H	1.407879	-0.791895	-0.370996
C134	C	1.666429	-0.927933	-0.641784
C135	C	1.596127	-0.980823	-0.704958
C136	C	1.633042	-1.009920	-0.812180
C137	C	1.740260	-0.986126	-0.856228
C138	C	1.810569	-0.933234	-0.793053
C139	C	1.773653	-0.904137	-0.685831
H140	H	1.516752	-0.998439	-0.672352
H141	H	1.580994	-1.049075	-0.858947
H142	H	1.767587	-1.007665	-0.935600
H143	H	1.889944	-0.915618	-0.825659
H144	H	1.825701	-0.864982	-0.639064
H145	H	1.118296	-0.270647	-0.384470
H146	H	0.919245	-0.442723	-0.627873
C147	C	1.714664	-0.784325	-0.462688
C148	C	1.685684	-0.731800	-0.372327
C149	C	1.771492	-0.702966	-0.297983
C150	C	1.886280	-0.726656	-0.313999
C151	C	1.915265	-0.779184	-0.404364
C152	C	1.829457	-0.808019	-0.478709
H153	H	1.600707	-0.714260	-0.360468
H154	H	1.750034	-0.664081	-0.231089
H155	H	1.949799	-0.705311	-0.258965
H156	H	2.000242	-0.796724	-0.416224
H157	H	1.850915	-0.846903	-0.545603
