data_functionalizedCrystal
_audit_creation_method	'MofGen! by Chris Wilmer'
_symmetry_space_group_name_H-M	'P1'
_symmetry_Int_Tables_number	1
_symmetry_cell_setting	triclinic
loop_
_symmetry_equiv_pos_as_xyz
  x,y,z
_cell_length_a	11.804365
_cell_length_b	12.837943
_cell_length_c	12.811415
_cell_angle_alpha	90.588083
_cell_angle_beta	96.606777
_cell_angle_gamma	103.120467
loop_
_atom_site_label
_atom_site_type_symbol
_atom_site_fract_x
_atom_site_fract_y
_atom_site_fract_z
O1	O	-0.125858	-1.403144	0.248695
O2	O	0.374142	-0.903144	0.748695
O3	O	-0.124438	-1.100981	0.235484
O4	O	0.375562	-0.600981	0.735484
O5	O	-0.109060	-1.256267	0.093160
O6	O	0.390940	-0.756267	0.593160
O7	O	-0.141236	-1.247858	0.391018
O8	O	0.358764	-0.747858	0.891018
O9	O	0.084952	-1.215385	0.130587
O10	O	0.584952	-0.715385	0.630587
O11	O	0.069573	-1.060099	0.272910
O12	O	0.569573	-0.560099	0.772910
O13	O	0.068154	-1.362262	0.286121
O14	O	0.568154	-0.862262	0.786121
Cu15	Cu	0.086579	-1.207448	0.282933
Cu16	Cu	0.586579	-0.707448	0.782933
Cu17	Cu	-0.142863	-1.255795	0.238672
Cu18	Cu	0.357137	-0.755795	0.738672
O19	O	0.052775	-1.206976	0.428445
O20	O	0.552775	-0.706976	0.928445
C21	C	-0.026951	-1.041799	0.249735
C22	C	0.473049	-0.541799	0.749735
C23	C	-0.025517	-0.926361	0.236425
C24	C	0.474483	-0.426361	0.736425
N25	N	0.247955	-1.173450	0.314064
N26	N	0.747955	-0.673450	0.814064
N27	N	-0.304239	-1.289801	0.207534
N28	N	0.195761	-0.789801	0.707534
C29	C	0.641495	-1.371441	0.132757
C30	C	1.141495	-0.871441	0.632757
C31	C	0.519379	-1.397159	0.109202
C32	C	1.019379	-0.897159	0.609202
C33	C	0.451517	-1.341234	0.160415
C34	C	0.951517	-0.841234	0.660415
C35	C	0.505783	-1.259587	0.235188
C36	C	1.005783	-0.759587	0.735188
C37	C	0.627911	-1.233872	0.258751
C38	C	1.127911	-0.733872	0.758751
C39	C	0.437933	-1.203664	0.286410
C40	C	0.937933	-0.703664	0.786410
C41	C	0.492200	-1.122017	0.361183
C42	C	0.992200	-0.622017	0.861183
C43	C	0.614316	-1.096306	0.384742
C44	C	1.114316	-0.596306	0.884742
C45	C	0.682177	-1.152232	0.333528
C46	C	1.182177	-0.652232	0.833528
C47	C	0.315805	-1.229379	0.262846
C48	C	0.815805	-0.729379	0.762846
C49	C	0.302221	-1.091810	0.388841
C50	C	0.802221	-0.591810	0.888841
C51	C	0.424338	-1.066092	0.412396
C52	C	0.924338	-0.566092	0.912396
C53	C	-0.007909	-1.234102	0.073484
C54	C	0.492091	-0.734102	0.573484
C55	C	0.004440	-1.228952	-0.040907
C56	C	0.504440	-0.728952	0.459093
C57	C	-0.029335	-1.421445	0.271870
C58	C	0.470665	-0.921445	0.771870
C59	C	-0.030778	-1.536885	0.285178
C60	C	0.469222	-1.036885	0.785178
C61	C	-0.042784	-0.689745	0.396424
C62	C	0.457216	-0.189745	0.896424
C63	C	-0.041436	-0.581280	0.383924
C64	C	0.458564	-0.081280	0.883924
C65	C	-0.021464	-0.600962	0.198927
C66	C	0.478536	-0.100962	0.698927
C67	C	-0.022812	-0.709427	0.211427
C68	C	0.477188	-0.209427	0.711427
C69	C	-0.033474	-0.753814	0.310179
C70	C	0.466526	-0.253814	0.810179
C71	C	-0.034831	-0.862283	0.322676
C72	C	0.465169	-0.362283	0.822676
C73	C	-0.014851	-0.881962	0.137682
C74	C	0.485149	-0.381962	0.637682
C75	C	-0.013502	-0.773497	0.125181
C76	C	0.486498	-0.273497	0.625181
C77	C	-0.183890	-1.263829	-0.296656
C78	C	0.316110	-0.763829	0.203344
C79	C	-0.172292	-1.258991	-0.404137
C80	C	0.327708	-0.758991	0.095863
C81	C	0.039232	-1.214430	-0.363352
C82	C	0.539232	-0.714430	0.136648
C83	C	0.027635	-1.219268	-0.255871
C84	C	0.527635	-0.719268	0.244129
C85	C	-0.083930	-1.243970	-0.222528
C86	C	0.416070	-0.743970	0.277472
C87	C	-0.095527	-1.248815	-0.115045
C88	C	0.404473	-0.748815	0.384955
C89	C	0.115996	-1.204247	-0.074261
C90	C	0.615996	-0.704247	0.425739
C91	C	0.127594	-1.199409	-0.181743
C92	C	0.627594	-0.699409	0.318257
C93	C	-0.048378	-1.229142	0.448121
C94	C	0.451622	-0.729142	0.948121
C95	C	-0.060735	-1.234294	0.562510
C96	C	0.439265	-0.734294	1.062510
H97	H	0.271632	-1.295856	0.201966
H98	H	0.771632	-0.795856	0.701966
H99	H	-0.051467	-0.725886	0.476831
H100	H	0.448533	-0.225886	0.976831
H101	H	0.781615	-1.131290	0.352703
H102	H	1.281615	-0.631290	0.852703
Cl103	Cl	0.492571	-0.963453	0.506395
Cl104	Cl	0.992571	-0.463453	1.006395
H105	H	-0.253690	-1.275159	-0.464491
H106	H	0.246310	-0.775159	0.035509
H107	H	0.246969	-1.046272	0.430546
H108	H	0.746969	-0.546272	0.930546
Cl109	Cl	-0.000096	-0.717684	0.001044
Cl110	Cl	0.499904	-0.217684	0.501044
H111	H	0.197391	-1.188080	-0.013893
H112	H	0.697391	-0.688080	0.486107
H113	H	-0.007278	-0.934141	0.067453
H114	H	0.492722	-0.434141	0.567453
Cl115	Cl	-0.048238	-0.918084	0.446819
Cl116	Cl	0.451762	-0.418084	0.946819
H117	H	-0.186369	-1.268932	-0.087899
H118	H	0.313631	-0.768932	0.412101
H119	H	0.352084	-1.362177	0.141233
H120	H	0.852084	-0.862177	0.641233
Cl121	Cl	0.267839	-1.168348	-0.223671
Cl122	Cl	0.767839	-0.668348	0.276329
Cl123	Cl	-0.053136	-0.500737	0.492353
Cl124	Cl	0.446864	-0.000737	0.992353
H125	H	-0.012687	-0.564782	0.118546
H126	H	0.487313	-0.064782	0.618546
Cl127	Cl	-0.324138	-1.294898	-0.254735
Cl128	Cl	0.175862	-0.794898	0.245265
H129	H	0.130063	-1.194310	-0.390520
H130	H	0.630063	-0.694310	0.109480
H131	H	0.475199	-1.463636	0.048324
H132	H	0.975199	-0.963636	0.548324
Cl133	Cl	0.726806	-1.441748	0.068391
Cl134	Cl	1.226806	-0.941748	0.568391
H135	H	0.658498	-1.029833	0.445634
H136	H	1.158498	-0.529833	0.945634
