data_functionalizedCrystal
_audit_creation_method	'MofGen! by Chris Wilmer'
_symmetry_space_group_name_H-M	'P1'
_symmetry_Int_Tables_number	1
_symmetry_cell_setting	triclinic
loop_
_symmetry_equiv_pos_as_xyz
  x,y,z
_cell_length_a	12.827893
_cell_length_b	16.625545
_cell_length_c	12.827885
_cell_angle_alpha	89.967039
_cell_angle_beta	90.019272
_cell_angle_gamma	89.975993
loop_
_atom_site_label
_atom_site_type_symbol
_atom_site_fract_x
_atom_site_fract_y
_atom_site_fract_z
Zn1	Zn	1.597607	0.320963	0.590826
Zn2	Zn	1.597475	0.455817	0.416076
Zn3	Zn	1.422848	0.321002	0.416099
Zn4	Zn	1.422807	0.455757	0.590776
O5	O	1.510184	0.388385	0.503444
O6	O	1.743825	0.338861	0.567656
O7	O	1.574272	0.437976	0.269843
O8	O	1.446103	0.208165	0.439307
O9	O	1.743728	0.437937	0.439268
O10	O	1.574497	0.208136	0.567678
O11	O	1.445975	0.338928	0.269860
O12	O	1.276607	0.338869	0.439259
O13	O	1.446033	0.437835	0.737019
O14	O	1.276577	0.437873	0.567594
O15	O	1.574457	0.338802	0.737055
O16	O	1.574232	0.568642	0.439220
O17	O	1.445905	0.568598	0.567572
C18	C	1.238674	0.388370	0.503424
C19	C	1.122521	0.388382	0.503441
C20	C	1.510078	0.597876	0.503411
C21	C	1.510128	0.687497	0.503431
C22	C	1.070749	0.437449	0.566847
C23	C	0.950699	0.437464	0.566865
C24	C	1.510299	1.015673	0.503556
C25	C	1.510248	0.924364	0.503524
C26	C	1.510212	0.851588	0.503493
C27	C	1.510163	0.760274	0.503463
C28	C	1.782754	0.388401	0.503465
C29	C	1.898907	0.388408	0.503474
C30	C	1.510310	1.178076	0.503513
C31	C	1.510342	1.088455	0.503574
C32	C	1.510255	0.388308	0.776015
C33	C	1.510286	0.388275	0.892168
C34	C	1.510173	0.388404	0.231934
C35	C	1.510346	0.388210	0.115782
C36	C	1.573841	0.339261	0.943971
C37	C	1.573874	0.339225	1.064021
H38	H	1.115302	0.479444	0.621121
Br39	Br	1.419655	0.458164	1.041545
Br40	Br	1.664466	0.269335	0.869768
Br41	Br	1.664579	0.269287	1.138265
Br42	Br	0.876499	0.507491	0.657339
H43	H	1.455891	0.430206	0.936694
H44	H	1.077968	0.346382	0.449174
Br45	Br	0.973101	0.318392	0.412979
