data_functionalizedCrystal
_audit_creation_method	'MofGen! by Chris Wilmer'
_symmetry_space_group_name_H-M	'P1'
_symmetry_Int_Tables_number	1
_symmetry_cell_setting	triclinic
loop_
_symmetry_equiv_pos_as_xyz
  x,y,z
_cell_length_a	14.519709
_cell_length_b	9.198806
_cell_length_c	10.723023
_cell_angle_alpha	89.997827
_cell_angle_beta	95.926154
_cell_angle_gamma	89.997805
loop_
_atom_site_label
_atom_site_type_symbol
_atom_site_fract_x
_atom_site_fract_y
_atom_site_fract_z
O1	O	-1.224702	-0.120682	0.163572
O2	O	-0.724702	0.379318	0.663572
O3	O	-0.956324	-0.120730	0.182835
O4	O	-0.456324	0.379270	0.682835
O5	O	-1.096704	-0.120699	-0.008431
O6	O	-0.596704	0.379301	0.491569
O7	O	-1.084322	-0.120713	0.354837
O8	O	-0.584322	0.379287	0.854837
O9	O	-1.096693	0.121086	-0.008431
O10	O	-0.596693	0.621086	0.491569
O11	O	-0.956312	0.121055	0.182834
O12	O	-0.456312	0.621055	0.682834
O13	O	-1.224691	0.121103	0.163571
O14	O	-0.724691	0.621103	0.663571
Cu15	Cu	-1.090501	0.143156	0.173203
Cu16	Cu	-0.590501	0.643156	0.673203
Cu17	Cu	-1.090514	-0.142783	0.173203
Cu18	Cu	-0.590514	0.357217	0.673203
O19	O	-1.084311	0.121072	0.354837
O20	O	-0.584311	0.621072	0.854837
C21	C	-0.921954	0.000156	0.181937
C22	C	-0.421954	0.500156	0.681937
C23	C	-0.819559	0.000138	0.179247
C24	C	-0.319559	0.500138	0.679247
C25	C	-1.095797	0.000192	-0.054922
C26	C	-0.595797	0.500192	0.445078
C27	C	-1.093102	0.000187	-0.193452
C28	C	-0.593102	0.500187	0.306548
N29	N	-1.090498	0.344270	0.173202
N30	N	-0.590498	0.844270	0.673202
C31	C	-0.444612	0.000199	0.169343
C32	C	0.055388	0.500199	0.669343
C33	C	-0.548934	0.000182	0.172093
C34	C	-0.048934	0.500182	0.672093
C35	C	-0.632082	0.000167	0.174294
C36	C	-0.132082	0.500167	0.674294
C37	C	-0.736411	0.000153	0.177045
C38	C	-0.236411	0.500153	0.677045
C39	C	-0.259061	0.000210	0.164469
C40	C	0.240939	0.500210	0.664469
C41	C	-0.361456	0.000208	0.167159
C42	C	0.138544	0.500208	0.667159
N43	N	-1.090524	-0.343897	0.173194
N44	N	-0.590524	0.156103	0.673194
C45	C	-1.149440	0.416480	0.092543
C46	C	-0.649440	0.916480	0.592543
C47	C	-1.149454	0.583892	0.092538
C48	C	-0.649454	1.083892	0.592538
C49	C	-1.091906	-0.125067	-0.255206
C50	C	-0.591906	0.374933	0.244794
C51	C	-1.089120	-0.125076	-0.398383
C52	C	-0.589120	0.374924	0.101617
C53	C	-1.085217	0.000178	0.401328
C54	C	-0.585217	0.500178	0.901328
C55	C	-1.087913	0.000174	0.539857
C56	C	-0.587913	0.500174	1.039857
H57	H	-1.199889	0.354365	0.023486
H58	H	-0.699889	0.854365	0.523486
F59	F	-1.215419	0.665055	0.002281
F60	F	-0.715419	1.165055	0.502281
F61	F	-1.024565	0.574950	0.263467
F62	F	-0.524565	1.074950	0.763467
H63	H	-1.092941	-0.232296	-0.202077
H64	H	-0.592941	0.267704	0.297923
H65	H	-1.040043	0.406387	0.242249
H66	H	-0.540043	0.906387	0.742249
H67	H	-1.092057	0.107415	-0.246578
H68	H	-0.592057	0.607415	0.253422
F69	F	-1.087783	-0.265244	-0.467794
F70	F	-0.587783	0.234756	0.032206
H71	H	-1.088946	0.107414	-0.407044
H72	H	-0.588946	0.607414	0.092956
