data_functionalizedCrystal
_audit_creation_method	'MofGen! by Chris Wilmer'
_symmetry_space_group_name_H-M	'P1'
_symmetry_Int_Tables_number	1
_symmetry_cell_setting	triclinic
loop_
_symmetry_equiv_pos_as_xyz
  x,y,z
_cell_length_a	18.215407
_cell_length_b	13.897448
_cell_length_c	13.897449
_cell_angle_alpha	90.009266
_cell_angle_beta	90.005175
_cell_angle_gamma	90.018140
loop_
_atom_site_label
_atom_site_type_symbol
_atom_site_fract_x
_atom_site_fract_y
_atom_site_fract_z
Zn1	Zn	1.125002	-0.384176	0.545414
Zn2	Zn	1.458336	-0.050842	0.878748
Zn3	Zn	1.791669	0.282491	1.212081
Zn4	Zn	1.124958	-0.545437	0.384116
Zn5	Zn	1.458291	-0.212104	0.717449
Zn6	Zn	1.791624	0.121229	1.050782
Zn7	Zn	1.001966	-0.384159	0.384129
Zn8	Zn	1.335300	-0.050826	0.717462
Zn9	Zn	1.668633	0.282507	1.050796
Zn10	Zn	1.001916	-0.545432	0.545365
Zn11	Zn	1.335249	-0.212098	0.878698
Zn12	Zn	1.668583	0.121235	1.212031
O13	O	1.063461	-0.464801	0.464756
O14	O	1.396794	-0.131468	0.798089
O15	O	1.730127	0.201866	1.131423
O16	O	1.227981	-0.405577	0.524033
O17	O	1.561314	-0.072243	0.857366
O18	O	1.894647	0.261090	1.190700
O19	O	1.108645	-0.524039	0.249136
O20	O	1.441978	-0.190706	0.582469
O21	O	1.775312	0.142628	0.915803
O22	O	1.018327	-0.249180	0.405550
O23	O	1.351660	0.084154	0.738884
O24	O	1.684994	0.417487	1.072217
O25	O	1.227948	-0.524055	0.405528
O26	O	1.561281	-0.190722	0.738861
O27	O	1.894614	0.142612	1.072194
O28	O	1.108721	-0.249192	0.524046
O29	O	1.442054	0.084141	0.857379
O30	O	1.775388	0.417475	1.190712
O31	O	1.018284	-0.405549	0.249146
O32	O	1.351617	-0.072215	0.582479
O33	O	1.684950	0.261118	0.915812
O34	O	0.898975	-0.405543	0.405502
O35	O	1.232309	-0.072210	0.738835
O36	O	1.565642	0.261124	1.072169
O37	O	1.018241	-0.524045	0.680353
O38	O	1.351575	-0.190712	1.013686
O39	O	1.684908	0.142621	1.347019
O40	O	0.898939	-0.524029	0.523961
O41	O	1.232272	-0.190696	0.857294
O42	O	1.565605	0.142637	1.190628
O43	O	1.108672	-0.405571	0.680389
O44	O	1.442006	-0.072238	1.013723
O45	O	1.775339	0.261095	1.347056
O46	O	1.108596	-0.680418	0.405479
O47	O	1.441930	-0.347085	0.738813
O48	O	1.775263	-0.013752	1.072146
O49	O	1.018198	-0.680414	0.523948
O50	O	1.351532	-0.347081	0.857282
O51	O	1.684865	-0.013747	1.190615
C52	C	0.872254	-0.464784	0.464728
C53	C	1.205588	-0.131451	0.798062
C54	C	1.538921	0.201882	1.131395
C55	C	0.790455	-0.464801	0.464739
C56	C	1.123789	-0.131467	0.798073
C57	C	1.457122	0.201866	1.131406
C58	C	0.602262	-0.526593	0.526343
C59	C	0.935595	-0.193260	0.859677
C60	C	1.268928	0.140073	1.193010
C61	C	0.525403	-0.526596	0.526355
C62	C	0.858736	-0.193263	0.859689
C63	C	1.192069	0.140070	1.193022
C64	C	0.525412	-0.403026	0.403189
C65	C	0.858745	-0.069693	0.736523
C66	C	1.192078	0.263641	1.069856
C67	C	0.602269	-0.403019	0.403183
C68	C	0.935602	-0.069686	0.736516
C69	C	1.268936	0.263648	1.069850
C70	C	0.640692	-0.464808	0.464759
C71	C	0.974025	-0.131475	0.798092
C72	C	1.307359	0.201859	1.131425
C73	C	0.486976	-0.464818	0.464777
C74	C	0.820309	-0.131485	0.798110
C75	C	1.153643	0.201848	1.131444
C76	C	0.403642	-0.464821	0.464790
C77	C	0.736976	-0.131488	0.798123
C78	C	1.070309	0.201846	1.131456
C79	C	0.724031	-0.464804	0.464748
C80	C	1.057364	-0.131471	0.798081
C81	C	1.390698	0.201862	1.131414
C82	C	1.063407	-0.715415	0.464728
C83	C	1.396740	-0.382082	0.798061
C84	C	1.730074	-0.048749	1.131395
C85	C	1.063451	-0.822629	0.464748
C86	C	1.396785	-0.489296	0.798082
C87	C	1.730118	-0.155963	1.131415
C88	C	1.063528	-1.018924	0.464809
C89	C	1.396862	-0.685591	0.798142
C90	C	1.730195	-0.352258	1.131475
C91	C	1.063483	-0.909692	0.464778
C92	C	1.396817	-0.576359	0.798111
C93	C	1.730150	-0.243025	1.131445
C94	C	1.255413	-0.464818	0.464784
C95	C	1.588747	-0.131485	0.798118
C96	C	1.922080	0.201848	1.131451
C97	C	1.337212	-0.464826	0.464796
C98	C	1.670546	-0.131492	0.798130
C99	C	2.003879	0.201841	1.131463
C100	C	1.063456	-0.464809	0.716349
C101	C	1.396790	-0.131476	1.049682
C102	C	1.730123	0.201857	1.383015
C103	C	1.063454	-0.464813	0.823563
C104	C	1.396788	-0.131480	1.156896
C105	C	1.730121	0.201854	1.490229
C106	C	1.063535	-0.213208	0.464805
C107	C	1.396868	0.120125	0.798138
C108	C	1.730201	0.453459	1.131472
C109	C	1.063566	-0.105994	0.464826
C110	C	1.396899	0.227339	0.798159
C111	C	1.730233	0.560673	1.131493
C112	C	1.063452	-0.464817	0.910633
C113	C	1.396786	-0.131483	1.243966
C114	C	1.730119	0.201850	1.577299
C115	C	1.063452	-0.464812	1.019865
C116	C	1.396785	-0.131479	1.353198
C117	C	1.730119	0.201855	1.686532
C118	C	1.063458	-0.464812	1.214142
C119	C	1.396791	-0.131479	1.547475
C120	C	1.730125	0.201854	1.880808
C121	C	1.063455	-0.464803	1.106928
C122	C	1.396789	-0.131470	1.440261
C123	C	1.730122	0.201864	1.773594
H124	H	0.633560	-0.352700	0.353033
H125	H	0.966893	-0.019367	0.686366
H126	H	1.300226	0.313967	1.019700
N127	N	0.643703	-0.593226	0.592764
N128	N	0.977036	-0.259893	0.926097
N129	N	1.310369	0.073441	1.259431
H130	H	0.698223	-0.583851	0.583415
H131	H	1.031557	-0.250517	0.916749
H132	H	1.364890	0.082816	1.250082
H133	H	0.630251	-0.662093	0.577634
H134	H	0.963585	-0.328760	0.910968
H135	H	1.296918	0.004574	1.244301
N136	N	0.483951	-0.593242	0.592771
N137	N	0.817284	-0.259909	0.926105
N138	N	1.150617	0.073425	1.259438
H139	H	0.497339	-0.578375	0.661716
H140	H	0.830673	-0.245042	0.995050
H141	H	1.164006	0.088292	1.328383
H142	H	0.497329	-0.662108	0.577580
H143	H	0.830662	-0.328775	0.910913
H144	H	1.163995	0.004559	1.244246
N145	N	0.483970	-0.336410	0.336753
N146	N	0.817303	-0.003077	0.670086
N147	N	1.150636	0.330256	1.003420
H148	H	0.429449	-0.345799	0.346091
H149	H	0.762782	-0.012465	0.679424
H150	H	1.096116	0.320868	1.012757
H151	H	0.497405	-0.351340	0.267846
H152	H	0.830738	-0.018007	0.601179
H153	H	1.164071	0.315326	0.934512
