data_functionalizedCrystal
_audit_creation_method	'MofGen! by Chris Wilmer'
_symmetry_space_group_name_H-M	'P1'
_symmetry_Int_Tables_number	1
_symmetry_cell_setting	triclinic
loop_
_symmetry_equiv_pos_as_xyz
  x,y,z
_cell_length_a	18.215407
_cell_length_b	21.295417
_cell_length_c	18.215399
_cell_angle_alpha	89.967848
_cell_angle_beta	89.980167
_cell_angle_gamma	90.030955
loop_
_atom_site_label
_atom_site_type_symbol
_atom_site_fract_x
_atom_site_fract_y
_atom_site_fract_z
Zn1	Zn	1.125043	-0.250608	-0.416094
Zn2	Zn	1.124940	-0.355879	-0.293019
Zn3	Zn	1.001976	-0.250629	-0.293042
Zn4	Zn	1.001930	-0.355844	-0.416044
O5	O	1.063472	-0.303240	-0.354550
O6	O	1.228014	-0.264579	-0.399780
O7	O	1.108604	-0.341941	-0.190038
O8	O	1.018364	-0.162537	-0.309396
O9	O	1.227938	-0.341921	-0.309357
O10	O	1.108781	-0.162521	-0.399802
O11	O	1.018263	-0.264614	-0.190054
O12	O	0.898985	-0.264580	-0.309347
O13	O	1.018285	-0.341861	-0.519035
O14	O	0.898951	-0.341881	-0.399716
O15	O	1.108736	-0.264545	-0.519072
O16	O	1.108559	-0.443964	-0.309308
O17	O	1.018184	-0.443938	-0.399694
C18	C	0.872266	-0.303229	-0.354529
C19	C	0.790467	-0.303240	-0.354537
C20	C	1.063376	-0.466792	-0.354509
C21	C	1.063402	-0.536760	-0.354516
C22	C	0.602275	-0.343554	-0.401533
C23	C	0.525416	-0.343556	-0.401542
C24	C	0.525422	-0.262938	-0.307582
C25	C	0.602279	-0.262933	-0.307577
C26	C	0.640703	-0.303245	-0.354552
C27	C	0.486987	-0.303251	-0.354566
C28	C	0.403654	-0.303253	-0.354575
C29	C	0.724042	-0.303242	-0.354543
C30	C	1.110502	-0.569619	-0.307500
C31	C	1.110536	-0.635361	-0.307517
C32	C	1.063457	-0.668242	-0.354542
C33	C	1.016354	-0.635375	-0.401566
C34	C	1.016326	-0.569634	-0.401554
N35	N	0.999079	-0.771508	-0.360145
N36	N	0.999107	-0.833960	-0.360153
C37	C	1.063540	-0.866317	-0.354584
N38	N	1.127944	-0.833863	-0.348993
N39	N	1.127915	-0.771406	-0.348981
C40	C	1.063483	-0.739528	-0.354561
C41	C	1.110681	-0.970462	-0.307584
C42	C	1.110717	-1.036205	-0.307605
C43	C	1.016528	-1.036218	-0.401651
C44	C	1.016499	-0.970475	-0.401633
C45	C	1.063575	-0.937601	-0.354595
C46	C	1.255425	-0.303251	-0.354571
C47	C	1.337224	-0.303256	-0.354581
C48	C	1.063517	-0.303197	-0.546503
C49	C	1.063536	-0.303178	-0.628302
C50	C	1.063589	-0.139050	-0.354607
C51	C	1.063639	-0.069082	-0.354631
C52	C	1.110651	-0.262882	-0.816516
C53	C	1.110660	-0.262863	-0.893375
C54	C	1.016473	-0.343377	-0.893325
C55	C	1.016461	-0.343392	-0.816468
C56	C	1.063554	-0.303145	-0.778065
C57	C	1.063575	-0.303112	-0.931781
C58	C	1.063584	-0.303093	-1.015115
C59	C	1.063544	-0.303164	-0.694726
C60	C	1.063470	-0.303238	-0.163344
C61	C	1.063593	-0.303079	-0.081545
H62	H	0.633557	-0.376377	-0.439785
O63	O	0.639647	-0.223708	-0.262041
C64	C	0.684157	-0.183104	-0.304024
H65	H	0.661018	-0.179279	-0.361995
H66	H	0.685048	-0.134632	-0.277510
H67	H	0.742395	-0.202569	-0.306518
H68	H	1.148995	-0.230109	-0.785251
O69	O	0.970774	-0.938622	-0.447400
C70	C	0.986831	-0.954616	-0.520768
H71	H	1.015143	-1.002324	-0.522331
H72	H	0.933699	-0.956886	-0.553716
H73	H	1.024635	-0.917570	-0.545584
H74	H	1.149009	-0.230076	-0.924678
H75	H	1.148893	-0.662121	-0.269231
O76	O	0.970822	-1.068248	-0.447265
C77	C	0.980962	-1.133320	-0.437212
H78	H	1.005098	-1.142317	-0.380441
H79	H	0.925847	-1.158346	-0.442163
H80	H	1.020139	-1.151915	-0.480903
O81	O	0.488200	-0.382773	-0.447202
C82	C	0.538599	-0.418337	-0.488673
H83	H	0.593370	-0.420481	-0.458518
H84	H	0.516368	-0.467944	-0.496419
H85	H	0.546812	-0.395346	-0.544614
O86	O	0.970771	-0.382562	-0.930551
C87	C	0.986823	-0.445306	-0.911761
H88	H	1.015101	-0.446621	-0.855961
H89	H	0.933691	-0.473532	-0.909112
H90	H	1.024653	-0.466500	-0.955015
H91	H	0.978104	-0.376179	-0.785160
O92	O	0.487981	-0.223841	-0.261976
C93	C	0.411903	-0.232476	-0.272067
H94	H	0.401389	-0.281084	-0.296063
H95	H	0.382673	-0.228146	-0.216954
H96	H	0.390131	-0.195183	-0.311341
H97	H	0.978024	-0.662151	-0.439855
O98	O	1.156306	-0.537784	-0.261794
C99	C	1.197874	-0.580889	-0.220288
H100	H	1.200419	-0.627732	-0.250442
H101	H	1.255856	-0.561858	-0.212491
H102	H	1.170961	-0.587933	-0.164370
H103	H	1.149015	-0.943694	-0.269285
O104	O	0.970499	-0.537809	-0.447248
C105	C	0.928968	-0.580924	-0.488775
H106	H	0.926457	-0.627809	-0.458642
H107	H	0.870972	-0.561969	-0.496569
H108	H	0.955891	-0.587857	-0.544694
O109	O	1.156497	-1.068030	-0.261863
C110	C	1.198050	-1.024913	-0.220359
H111	H	1.167885	-0.978076	-0.217775
H112	H	1.205937	-1.043940	-0.162387
H113	H	1.253926	-1.017858	-0.247354
