data_functionalizedCrystal
_audit_creation_method	'MofGen! by Chris Wilmer'
_symmetry_space_group_name_H-M	'P1'
_symmetry_Int_Tables_number	1
_symmetry_cell_setting	triclinic
loop_
_symmetry_equiv_pos_as_xyz
  x,y,z
_cell_length_a	31.640172
_cell_length_b	31.640172
_cell_length_c	18.760492
_cell_angle_alpha	59.990823
_cell_angle_beta	90.001589
_cell_angle_gamma	59.998920
loop_
_atom_site_label
_atom_site_type_symbol
_atom_site_fract_x
_atom_site_fract_y
_atom_site_fract_z
Zr1	Zr	0.407165	0.462618	-0.093584
O2	O	0.339675	0.550810	-0.207441
O3	O	0.427857	0.374433	-0.058663
O4	O	0.427857	0.462616	-0.207396
O5	O	0.339671	0.462627	0.058594
O6	O	0.497414	0.462607	-0.207380
O7	O	0.339674	0.462627	-0.058709
O8	O	0.497414	0.304864	0.058675
O9	O	0.339672	0.620370	-0.207461
O10	O	0.488588	0.410696	-0.043780
O11	O	0.436677	0.410703	0.043750
O12	O	0.436677	0.514527	-0.131363
O13	O	0.384765	0.514533	-0.043833
Zr14	Zr	0.518096	0.462605	0.093525
Zr15	Zr	0.518101	0.462604	-0.093559
Zr16	Zr	0.407160	0.462619	0.093500
Zr17	Zr	0.407160	0.573559	-0.093616
Zr18	Zr	0.518100	0.351664	0.093557
O19	O	0.497404	0.550790	0.058604
O20	O	0.497411	0.550790	-0.207406
O21	O	0.339668	0.550810	0.058568
O22	O	0.585586	0.374413	0.207382
O23	O	0.585593	0.374413	-0.058628
O24	O	0.427850	0.374433	0.207346
O25	O	0.585589	0.462596	-0.058653
O26	O	0.497404	0.462607	0.207336
O27	O	0.427847	0.462616	0.207321
O28	O	0.585586	0.462596	0.058649
O29	O	0.427851	0.620359	-0.207442
O30	O	0.497410	0.304865	0.207382
O31	O	0.585589	0.304853	0.207402
O32	O	0.585593	0.304853	0.058695
O33	O	0.339668	0.620370	-0.058754
O34	O	0.427847	0.620359	-0.058735
O35	O	0.488584	0.410696	0.131304
O36	O	0.540496	0.410690	0.043774
O37	O	0.488584	0.514520	-0.043810
O38	O	0.436672	0.514527	0.043720
C39	C	0.462636	0.323842	0.000010
C40	C	0.462638	0.276745	0.000024
C41	C	0.424312	0.023076	-0.064688
C42	C	0.424308	-0.153906	-0.064712
O43	O	0.391731	-0.144195	-0.119713
N44	N	0.462627	-0.214362	-0.000069
C45	C	0.500952	-0.230574	0.064581
O46	O	0.533547	-0.286057	0.119559
C47	C	0.500957	-0.053593	0.064601
C48	C	0.462633	0.006864	-0.000041
C49	C	0.385991	0.083530	-0.129326
C50	C	0.385991	0.127772	-0.129316
C51	C	0.424311	0.111560	-0.064669
C52	C	0.462633	0.051106	-0.000032
C53	C	0.539284	-0.069805	0.129247
C54	C	0.539282	-0.025554	0.129245
C55	C	0.500958	0.034903	0.064603
C56	C	0.500953	0.079137	0.064625
N57	N	0.462634	0.139593	-0.000018
C58	C	0.424313	0.155805	-0.064666
C59	C	0.500945	-0.323489	0.064567
C60	C	0.500943	-0.367734	0.064564
C61	C	0.424300	-0.291062	-0.064731
C62	C	0.424300	-0.246817	-0.064723
C63	C	0.462626	-0.263032	-0.000076
C64	C	0.424315	0.248714	-0.064640
C65	C	0.424317	0.292957	-0.064623
C66	C	0.500962	0.216282	0.064669
C67	C	0.500959	0.172042	0.064655
C68	C	0.462633	0.188263	-0.000007
O69	O	0.533516	0.069470	0.119591
O70	O	0.391729	0.211291	-0.119646
C71	C	0.424312	-0.021167	-0.064698
C72	C	0.462633	-0.081621	-0.000060
C73	C	0.500954	-0.097832	0.064587
C74	C	0.462631	-0.125866	-0.000064
C75	C	0.424311	-0.109654	-0.064711
C76	C	0.385992	-0.049197	-0.129354
C77	C	0.385991	-0.004955	-0.129345
C78	C	0.539273	-0.158289	0.129230
C79	C	0.539270	-0.202528	0.129216
C80	C	0.500949	-0.186317	0.064569
C81	C	0.323867	0.462629	-0.000061
C82	C	0.276772	0.462635	-0.000072
C83	C	0.011863	0.408408	0.045706
C84	C	-0.165122	0.408397	0.045723
O85	O	-0.164962	0.362303	0.084636
N86	N	-0.214349	0.462595	0.000004
C87	C	-0.219329	0.516800	-0.045718
O88	O	-0.265260	0.562898	-0.084597
C89	C	-0.042344	0.516809	-0.045729
C90	C	0.006882	0.462608	-0.000015
C91	C	0.061088	0.354211	0.091417
C92	C	0.105331	0.354214	0.091408
C93	C	0.100350	0.408414	0.045688
C94	C	0.051126	0.462611	-0.000023
C95	C	-0.047325	0.571013	-0.091445
C96	C	-0.003073	0.571011	-0.091442
C97	C	0.046153	0.516809	-0.045728
C98	C	0.090388	0.516814	-0.045752
N99	N	0.139615	0.462616	-0.000034
C100	C	0.144596	0.408416	0.045687
C101	C	-0.312246	0.516791	-0.045710
C102	C	-0.356492	0.516788	-0.045708
C103	C	-0.302282	0.408386	0.045734
C104	C	-0.258036	0.408389	0.045727
C105	C	-0.263019	0.462593	0.000009
C106	C	0.237508	0.408427	0.045664
C107	C	0.281753	0.408435	0.045649
C108	C	0.227539	0.516837	-0.045789
C109	C	0.183298	0.516829	-0.045778
C110	C	0.188286	0.462619	-0.000044
O111	O	0.090268	0.562884	-0.084637
O112	O	0.190532	0.362325	0.084576
C113	C	-0.032380	0.408404	0.045714
C114	C	-0.081604	0.462601	0.000003
C115	C	-0.086585	0.516802	-0.045718
C116	C	-0.125850	0.462599	0.000004
C117	C	-0.120869	0.408399	0.045724
C118	C	-0.071642	0.354201	0.091443
C119	C	-0.027399	0.354204	0.091434
C120	C	-0.135812	0.571000	-0.091436
C121	C	-0.180054	0.570992	-0.091425
C122	C	-0.175073	0.516792	-0.045705
C123	C	0.601394	0.462594	0.000001
C124	C	0.648489	0.462588	0.000012
C125	C	0.462636	0.462611	-0.234044
C126	C	0.462638	0.462611	-0.313466
C127	C	0.462625	0.601381	-0.000070
C128	C	0.462623	0.648478	-0.000083
C129	C	0.489722	0.408411	-0.603562
C130	C	0.435525	0.516812	-0.694996
C131	C	0.435529	0.516813	-0.620376
C132	C	0.462629	0.462612	-0.537344
C133	C	0.489725	0.408410	-0.528933
C134	C	0.408429	0.571013	-0.628780
C135	C	0.408431	0.571016	-0.554157
C136	C	0.435534	0.516815	-0.471123
C137	C	0.462632	0.462611	-0.462715
C138	C	0.489732	0.408410	-0.379684
C139	C	0.516833	0.354206	-0.371274
C140	C	0.516829	0.354209	-0.445900
C141	C	0.435538	0.516812	-0.396497
C142	C	0.489735	0.408410	-0.305055
C143	C	0.462624	0.462612	0.233984
C144	C	0.462622	0.462612	0.313406
C145	C	0.601400	0.323825	0.000042
C146	C	0.648496	0.276722	0.000066
C147	C	0.462630	0.323842	0.234024
C148	C	0.462630	0.276745	0.313460
C149	C	0.601394	0.323825	0.234055
C150	C	0.648488	0.276722	0.313502
C151	C	0.323867	0.601398	-0.234115
C152	C	0.276772	0.648501	-0.313561
C153	C	0.323861	0.601398	-0.000101
C154	C	0.276764	0.648501	-0.000125
C155	C	0.462631	0.601381	-0.234084
C156	C	0.462631	0.648478	-0.313520
C157	C	0.643519	0.254605	-0.045633
C158	C	0.687767	0.210353	-0.045627
C159	C	0.736993	0.188215	0.000082
C160	C	0.741970	0.210336	0.045782
C161	C	0.697722	0.254591	0.045771
C162	C	0.489725	0.254625	0.396474
C163	C	0.489723	0.210378	0.471119
C164	C	0.462629	0.188250	0.462749
C165	C	0.435530	0.210375	0.379727
C166	C	0.435530	0.254624	0.305083
C167	C	0.697707	0.254598	0.305121
C168	C	0.741962	0.210346	0.379762
C169	C	0.736997	0.188216	0.462783
C170	C	0.687774	0.210343	0.471162
C171	C	0.643520	0.254598	0.396522
C172	C	0.227554	0.670630	-0.305180
C173	C	0.183299	0.714896	-0.379822
C174	C	0.188264	0.737029	-0.462843
C175	C	0.237487	0.714898	-0.471222
C176	C	0.281741	0.670636	-0.396582
C177	C	0.281742	0.670623	0.045565
C178	C	0.237494	0.714887	0.045540
C179	C	0.188268	0.737026	-0.000172
C180	C	0.183291	0.714903	-0.045869
C181	C	0.227539	0.670643	-0.045847
C182	C	0.489730	0.670592	-0.305121
C183	C	0.489741	0.714838	-0.379753
C184	C	0.462648	0.736973	-0.462781
C185	C	0.435547	0.714855	-0.471177
C186	C	0.435540	0.670606	-0.396547
H187	H	0.354783	0.044269	-0.181982
H188	H	0.152225	0.773070	-0.523613
O189	O	0.795064	0.186456	0.095086
H190	H	0.816514	0.137639	0.145607
H191	H	0.321820	0.652600	0.082795
O192	O	0.066469	0.295745	0.140723
H193	H	0.087967	0.269749	0.210965
H194	H	0.773036	0.152181	0.523553
H195	H	0.683705	0.192347	-0.082841
H196	H	0.511789	0.364279	-0.596719
O197	O	0.130195	0.738783	-0.095165
H198	H	0.125686	0.758951	-0.165409
H199	H	0.603446	0.272605	0.403358
H200	H	0.511793	0.652576	-0.237522
O201	O	0.682421	0.186464	0.560709
H202	H	0.721466	0.151968	0.611195
H203	H	0.532146	-0.416958	0.117210
H204	H	0.511805	0.364272	-0.237450
H205	H	0.532157	-0.336702	0.117214
H206	H	0.152243	0.773066	-0.000183
H207	H	0.511808	0.732843	-0.372899
O208	O	0.580607	-0.267737	0.198943
H209	H	0.602698	-0.289723	0.167861
O210	O	0.580628	-0.135007	0.198954
H211	H	0.607278	-0.138835	0.243890
O212	O	0.406301	0.575265	-0.784551
H213	H	0.364653	0.601260	-0.792162
O214	O	0.580618	-0.043043	0.198977
H215	H	0.607261	-0.092515	0.243925
H216	H	0.386364	0.615140	-0.696388
O217	O	0.222193	0.646766	-0.215640
H218	H	0.180530	0.669601	-0.222367
O219	O	0.379204	0.629475	-0.563225
H220	H	0.360361	0.667164	-0.633499
O221	O	-0.204942	0.349930	0.095033
H222	H	-0.200437	0.323942	0.165278
O223	O	0.222165	0.646784	-0.095129
H224	H	0.241028	0.597967	-0.048978
O225	O	0.242868	0.738734	0.094844
H226	H	0.264367	0.758877	0.068453
H227	H	0.511789	0.272636	0.403306
H228	H	0.462657	0.773004	-0.523543
O229	O	0.406320	0.738737	-0.560732
H230	H	0.410875	0.773227	-0.611208
H231	H	0.413470	0.652606	-0.403397
H232	H	0.393090	-0.197592	-0.117356
H233	H	0.701759	0.272611	0.237527
H234	H	0.570480	-0.171499	0.181874
O235	O	0.784716	0.140479	0.000098
H236	H	0.772980	0.128818	-0.039353
O237	O	0.130211	0.738750	-0.370775
H238	H	0.134199	0.715910	-0.300504
O239	O	0.242839	0.738768	-0.560768
H240	H	0.203795	0.773257	-0.611254
H241	H	0.393106	0.342185	-0.117262
H242	H	0.603440	0.272629	-0.082865
H243	H	0.321816	0.652619	-0.403416
H244	H	0.701782	0.272592	0.082989
H245	H	0.413469	0.560944	-0.403347
O246	O	0.546064	0.295758	-0.281703
H247	H	0.530412	0.269760	-0.274073
H248	H	0.354787	0.176996	-0.181962
O249	O	0.382977	0.266210	-0.134375
H250	H	0.356330	0.315683	-0.179309
H251	H	0.354785	0.096740	-0.181974
H252	H	0.532161	0.122814	0.117300
O253	O	0.382974	-0.273582	-0.134468
H254	H	0.360879	-0.291910	-0.103407
O255	O	0.542297	0.198807	0.134379
H256	H	0.523874	0.217135	0.171635
O257	O	0.344663	-0.031713	-0.199091
H258	H	0.351110	-0.072640	-0.188235
H259	H	-0.396572	0.560925	-0.082945
O260	O	0.334850	0.349973	0.094958
H261	H	0.330876	0.312285	0.126758
H262	H	0.241577	0.364284	0.082906
H263	H	0.145410	0.310077	0.128630
H264	H	0.538893	0.310079	-0.439061
H265	H	-0.298233	0.364254	0.082956
O266	O	-0.317625	0.575257	-0.095033
H267	H	-0.359291	0.612938	-0.126828
H268	H	0.511792	0.192369	0.538712
O269	O	0.462641	0.140514	0.543261
H270	H	0.486042	0.128847	0.602389
H271	H	-0.087400	0.615150	-0.128670
O272	O	0.406325	0.186485	0.370719
H273	H	0.376381	0.194968	0.402535
O274	O	-0.008448	0.629474	-0.140760
H275	H	-0.050113	0.667159	-0.172550
H276	H	0.223492	0.560965	-0.083017
O277	O	0.130200	0.575287	-0.095084
H278	H	0.134172	0.612976	-0.126874
H279	H	0.782038	0.192334	0.372924
O280	O	0.025694	0.295744	0.140745
H281	H	0.021715	0.258060	0.172539
H282	H	-0.067593	0.310069	0.128665
H283	H	-0.139876	0.615137	-0.128670
O284	O	-0.233149	0.629456	-0.140734
H285	H	-0.229173	0.667142	-0.172518
O286	O	0.406388	0.278398	0.215546
H287	H	0.387583	0.255541	0.222276
