data_functionalizedCrystal
_audit_creation_method	'MofGen! by Chris Wilmer'
_symmetry_space_group_name_H-M	'P1'
_symmetry_Int_Tables_number	1
_symmetry_cell_setting	triclinic
loop_
_symmetry_equiv_pos_as_xyz
  x,y,z
_cell_length_a	14.519709
_cell_length_b	10.654541
_cell_length_c	9.130307
_cell_angle_alpha	89.996917
_cell_angle_beta	90.004095
_cell_angle_gamma	84.082037
loop_
_atom_site_label
_atom_site_type_symbol
_atom_site_fract_x
_atom_site_fract_y
_atom_site_fract_z
O1	O	1.224716	0.164621	-0.121608
O2	O	1.724716	0.664621	0.378392
O3	O	0.956340	0.184008	-0.121653
O4	O	1.456340	0.684008	0.378347
O5	O	1.096700	-0.008484	-0.121620
O6	O	1.596700	0.491516	0.378380
O7	O	1.084356	0.357113	-0.121640
O8	O	1.584356	0.857113	0.378360
O9	O	1.096695	-0.008486	0.121979
O10	O	1.596695	0.491514	0.621979
O11	O	0.956335	0.184006	0.121946
O12	O	1.456335	0.684006	0.621946
O13	O	1.224712	0.164619	0.121991
O14	O	1.724712	0.664619	0.621991
Cu15	Cu	1.090523	0.174313	0.144211
Cu16	Cu	1.590523	0.674313	0.644211
Cu17	Cu	1.090528	0.174315	-0.143873
Cu18	Cu	1.590528	0.674315	0.356127
O19	O	1.084352	0.357112	0.121959
O20	O	1.584352	0.857112	0.621959
C21	C	0.921973	0.183103	0.000141
C22	C	1.421973	0.683103	0.500141
C23	C	0.819578	0.180396	0.000124
C24	C	1.319578	0.680396	0.500124
C25	C	1.095791	-0.055275	0.000178
C26	C	1.595791	0.444725	0.500178
C27	C	1.093081	-0.194692	0.000175
C28	C	1.593081	0.305308	0.500175
C29	C	1.260920	-0.224277	0.000222
C30	C	1.760920	0.275723	0.500222
C31	C	1.343562	-0.304566	0.000248
C32	C	1.843562	0.195434	0.500248
C33	C	1.341010	-0.435559	0.000243
C34	C	1.841010	0.064441	0.500243
C35	C	1.255806	-0.486265	0.000207
C36	C	1.755806	0.013735	0.500207
C37	C	1.173164	-0.405976	0.000181
C38	C	1.673164	0.094024	0.500181
C39	C	1.175725	-0.274981	0.000191
C40	C	1.675725	0.225019	0.500191
C41	C	1.005328	-0.376392	0.000124
C42	C	1.505328	0.123608	0.500124
C43	C	1.007878	-0.245398	0.000140
C44	C	1.507878	0.254602	0.500140
C45	C	0.920124	-0.427098	0.000089
C46	C	1.420124	0.072902	0.500089
C47	C	0.837480	-0.346809	0.000073
C48	C	1.337480	0.153191	0.500073
C49	C	0.840036	-0.215808	0.000080
C50	C	1.340036	0.284192	0.500080
C51	C	0.925236	-0.165109	0.000114
C52	C	1.425236	0.334891	0.500114
C53	C	0.444630	0.170429	0.000192
C54	C	0.944630	0.670429	0.500192
C55	C	0.548952	0.173197	0.000172
C56	C	1.048952	0.673197	0.500172
C57	C	0.632101	0.175412	0.000157
C58	C	1.132101	0.675412	0.500157
C59	C	0.736429	0.178181	0.000140
C60	C	1.236429	0.678181	0.500140
C61	C	1.259078	0.165524	0.000194
C62	C	1.759078	0.665524	0.500194
C63	C	1.361474	0.168231	0.000201
C64	C	1.861474	0.668231	0.500201
C65	C	1.085260	0.403902	0.000157
C66	C	1.585260	0.903902	0.500157
C67	C	1.087970	0.543319	0.000150
C68	C	1.587970	1.043319	0.500150
N69	N	1.090526	0.174310	0.346834
N70	N	1.590526	0.674310	0.846834
N71	N	1.090533	0.174307	-0.346496
N72	N	1.590533	0.674307	0.153504
C73	C	1.214866	0.003908	0.346853
C74	C	1.714866	0.503908	0.846853
C75	C	1.277042	-0.081290	0.423529
C76	C	1.777042	0.418710	0.923529
C77	C	1.277051	-0.081291	0.576862
C78	C	1.777051	0.418709	1.076862
C79	C	1.214876	0.003913	0.653523
C80	C	1.714876	0.503913	1.153523
C81	C	1.152699	0.089110	0.576847
C82	C	1.652699	0.589110	1.076847
C83	C	1.152699	0.089104	0.423510
C84	C	1.652699	0.589104	0.923510
C85	C	1.028357	0.259505	0.576828
C86	C	1.528357	0.759505	1.076828
C87	C	1.028350	0.259514	0.423495
C88	C	1.528350	0.759514	0.923495
C89	C	0.966181	0.344708	0.653489
C90	C	1.466181	0.844708	1.153489
C91	C	0.904008	0.429914	0.576813
C92	C	1.404008	0.929914	1.076813
C93	C	0.904002	0.429912	0.423471
C94	C	1.404002	0.929912	0.923471
C95	C	0.966174	0.344711	0.346819
C96	C	1.466174	0.844711	0.846819
H97	H	1.263006	-0.117616	0.000246
H98	H	1.763006	0.382384	0.500246
H99	H	1.412933	-0.263266	0.000290
H100	H	1.912933	0.236734	0.500290
H101	H	1.327677	-0.150671	0.639292
H102	H	1.827677	0.349329	1.139292
H103	H	0.918052	-0.533761	0.000076
H104	H	1.418052	-0.033761	0.500076
F105	F	1.343208	-0.171970	0.341934
F106	F	1.843208	0.328030	0.841934
H107	H	1.214872	0.003910	0.222001
H108	H	1.714872	0.503910	0.722001
H109	H	0.768114	-0.388105	0.000035
H110	H	1.268114	0.111895	0.500035
F111	F	0.837839	0.520577	0.658407
F112	F	1.337839	1.020577	1.158407
H113	H	0.853367	0.499286	0.361049
H114	H	1.353367	0.999286	0.861049
H115	H	0.966187	0.344699	0.778342
H116	H	1.466187	0.844699	1.278342
H117	H	1.253736	-0.592928	0.000185
H118	H	1.753736	-0.092928	0.500185
H119	H	1.408304	-0.500931	0.000252
H120	H	1.908304	-0.000931	0.500252
F121	F	0.752075	-0.130367	0.000042
F122	F	1.252075	0.369633	0.500042
H123	H	0.927325	-0.058449	0.000128
H124	H	1.427325	0.441551	0.500128
H125	H	1.214879	0.003896	0.778375
H126	H	1.714879	0.503896	1.278375
H127	H	0.966178	0.344707	0.221967
H128	H	1.466178	0.844707	0.721967
