data_functionalizedCrystal
_audit_creation_method	'MofGen! by Chris Wilmer'
_symmetry_space_group_name_H-M	'P1'
_symmetry_Int_Tables_number	1
_symmetry_cell_setting	triclinic
loop_
_symmetry_equiv_pos_as_xyz
  x,y,z
_cell_length_a	25.993469
_cell_length_b	25.993450
_cell_length_c	25.993511
_cell_angle_alpha	90.001312
_cell_angle_beta	120.002295
_cell_angle_gamma	59.999913
loop_
_atom_site_label
_atom_site_type_symbol
_atom_site_fract_x
_atom_site_fract_y
_atom_site_fract_z
O1	O	0.368221	0.438485	0.015301
O2	O	0.262873	0.363674	-0.015235
O3	O	0.368220	0.363670	0.090112
O4	O	0.262874	0.438488	-0.090047
O5	O	0.453785	0.278105	0.090112
O6	O	0.348438	0.278108	-0.015235
O7	O	0.453786	0.352919	0.015301
Zn8	Zn	0.414697	0.301929	0.000033
Zn9	Zn	0.301962	0.414664	0.000033
O10	O	0.348439	0.352923	-0.090047
C11	C	0.565873	0.528792	0.037079
C12	C	0.535205	0.590706	0.037516
C13	C	0.659036	0.528790	0.037083
C14	C	0.628226	0.590704	0.037520
C15	C	0.565875	0.621951	0.037084
C16	C	0.628223	0.497687	0.037516
C17	C	0.558552	0.435424	0.029515
C18	C	0.524453	0.405898	0.024740
C19	C	0.460709	0.437732	0.022345
C20	C	0.423733	0.405723	0.017165
C21	C	0.431059	0.499091	0.024730
C22	C	0.465158	0.528614	0.029507
C23	C	0.528901	0.496780	0.031897
C24	C	0.464946	0.722638	0.029524
C25	C	0.430649	0.786261	0.024754
C26	C	0.460090	0.818170	0.022363
C27	C	0.422904	0.887154	0.017187
C28	C	0.523834	0.786461	0.024747
C29	C	0.558131	0.722841	0.029520
C30	C	0.528684	0.690932	0.031906
C31	C	0.752163	0.435421	0.029523
C32	C	0.811010	0.405896	0.024745
C33	C	0.840527	0.437729	0.022354
C34	C	0.904336	0.405718	0.017178
C35	C	0.811203	0.499085	0.024736
C36	C	0.752356	0.528612	0.029511
C37	C	0.722839	0.496777	0.031905
C38	C	0.161984	0.277316	-0.022171
C39	C	0.098493	0.309061	-0.017800
C40	C	0.192796	0.215400	-0.022604
C41	C	0.255140	0.277317	-0.022177
C42	C	0.291252	0.309065	-0.017813
C43	C	0.285810	0.215402	-0.022610
C44	C	0.255144	0.184155	-0.022170
C45	C	0.291261	0.116293	-0.017799
C46	C	0.192791	0.308421	-0.022610
C47	C	0.150797	0.528800	-0.471164
C48	C	0.088446	0.590715	-0.502270
C49	C	0.150796	0.528800	-0.378004
C50	C	0.088445	0.590716	-0.409251
C51	C	0.057635	0.621961	-0.471166
C52	C	0.181465	0.497696	-0.409249
C53	C	0.251728	0.435429	-0.470919
C54	C	0.286026	0.405901	-0.500243
C55	C	0.256587	0.437734	-0.561592
C56	C	0.293775	0.405724	-0.593389
C57	C	0.192844	0.499095	-0.593628
C58	C	0.158545	0.528619	-0.564307
C59	C	0.187990	0.496786	-0.502952
C60	C	-0.035493	0.722649	-0.564538
C61	C	-0.094345	0.786273	-0.594065
C62	C	-0.123861	0.818183	-0.562233
C63	C	-0.187670	0.887168	-0.594244
C64	C	-0.094536	0.786475	-0.500873
C65	C	-0.035690	0.722854	-0.471348
C66	C	-0.006168	0.690944	-0.503180
C67	C	0.251726	0.435430	-0.277315
C68	C	0.286030	0.405906	-0.213688
C69	C	0.256590	0.437740	-0.181780
C70	C	0.293777	0.405730	-0.112794
C71	C	0.192852	0.499098	-0.213487
C72	C	0.158548	0.528624	-0.277110
C73	C	0.187988	0.496788	-0.309022
O74	O	1.074841	0.278105	-0.015223
O75	O	0.925227	0.352912	0.015321
O76	O	0.925209	0.352922	-0.090029
O77	O	1.074859	0.278094	0.090128
O78	O	0.925212	0.438486	-0.090025
O79	O	0.925230	0.438475	0.015326
O80	O	1.074845	0.363668	-0.015218
Zn81	Zn	1.000038	0.414657	0.000055
Zn82	Zn	1.000034	0.301923	0.000049
O83	O	1.074863	0.363658	0.090133
O84	O	0.348446	1.090064	-0.015224
O85	O	0.453799	0.909905	0.015320
O86	O	0.348445	1.015241	-0.090031
O87	O	0.453800	0.984728	0.090127
O88	O	0.262885	1.015239	-0.090021
O89	O	0.368240	0.909903	0.015329
O90	O	0.262887	1.090062	-0.015214
Zn91	Zn	0.301979	0.999982	0.000059
Zn92	Zn	0.414707	0.999985	0.000046
O93	O	0.368241	0.984726	0.090137
O94	O	-0.358187	1.090076	-0.636303
O95	O	-0.208557	0.909919	-0.561484
O96	O	-0.208554	1.015260	-0.561482
O97	O	-0.358190	0.984736	-0.636305
O98	O	-0.208552	1.015258	-0.647046
O99	O	-0.208555	0.909917	-0.647048
O100	O	-0.358185	1.090074	-0.721867
Zn101	Zn	-0.283370	0.999995	-0.698043
Zn102	Zn	-0.283372	0.999998	-0.585308
O103	O	-0.358188	0.984734	-0.721869
O104	O	0.368220	0.363670	-0.721849
O105	O	0.262877	0.438485	-0.647036
O106	O	0.368223	0.438483	-0.647031
O107	O	0.262875	0.363672	-0.721854
O108	O	0.453789	0.352917	-0.561465
O109	O	0.348444	0.352919	-0.561470
O110	O	0.453786	0.278104	-0.636283
Zn111	Zn	0.414701	0.301926	-0.585291
Zn112	Zn	0.301963	0.414663	-0.698028
O113	O	0.348441	0.278106	-0.636288
C114	C	0.554684	0.184154	0.277365
C115	C	0.618177	0.116292	0.309112
C116	C	0.523873	0.215400	0.308469
C117	C	0.461523	0.277315	0.184204
C118	C	0.425407	0.309062	0.116342
C119	C	0.430854	0.308420	0.215449
C120	C	0.461523	0.277315	0.277364
C121	C	0.425407	0.309061	0.309109
C122	C	0.523873	0.215400	0.215450
C123	C	1.255200	0.277284	0.277377
C124	C	1.291320	0.309028	0.309124
C125	C	1.285875	0.215366	0.308477
C126	C	1.162022	0.277294	0.184218
C127	C	1.098517	0.309048	0.116359
C128	C	1.192838	0.215376	0.215459
C129	C	1.255200	0.184124	0.277371
C130	C	1.291320	0.116260	0.309111
C131	C	1.192839	0.308395	0.215465
C132	C	0.461554	0.977795	0.277386
C133	C	0.425443	0.982165	0.309137
C134	C	0.523902	0.977363	0.308486
C135	C	0.461546	0.977788	0.184222
C136	C	0.425426	0.982151	0.116361
C137	C	0.523894	0.977356	0.215463
C138	C	0.554708	0.977797	0.277377
C139	C	0.618199	0.982169	0.309118
C140	C	0.430881	0.977354	0.215472
C141	C	0.565791	0.622000	-0.471127
C142	C	0.535113	0.590760	-0.502231
C143	C	0.658965	0.528831	-0.377973
C144	C	0.628145	0.497732	-0.409219
C145	C	0.565784	0.528843	-0.471131
C146	C	0.628152	0.590748	-0.409215
C147	C	0.558481	0.722684	-0.470879
C148	C	0.524383	0.786308	-0.500199
C149	C	0.460629	0.818225	-0.561545
C150	C	0.423653	0.887211	-0.593338
C151	C	0.430968	0.786522	-0.593580
C152	C	0.465066	0.722900	-0.564262
C153	C	0.528820	0.690984	-0.502912
C154	C	0.464835	0.529097	-0.564497
C155	C	0.430529	0.499777	-0.594023
C156	C	0.459971	0.438426	-0.562193
C157	C	0.422775	0.406633	-0.594202
C158	C	0.523725	0.406385	-0.500836
C159	C	0.558031	0.435703	-0.471313
C160	C	0.528583	0.497059	-0.503143
C161	C	0.752116	0.529060	-0.277286
C162	C	0.810974	0.499731	-0.213663
C163	C	0.840493	0.438380	-0.181756
C164	C	0.904314	0.406574	-0.112774
C165	C	0.811158	0.406353	-0.213463
C166	C	0.752299	0.435680	-0.277084
C167	C	0.722781	0.497034	-0.308993
O168	O	1.368298	-0.090130	0.352941
O169	O	1.262935	0.090034	0.278152
O170	O	1.368263	-0.015289	0.278119
O171	O	1.262970	0.015193	0.352974
O172	O	1.453844	-0.015298	0.363683
O173	O	1.348516	0.090025	0.363716
O174	O	1.453879	-0.090139	0.438505
Zn175	Zn	1.414785	-0.000058	0.414696
Zn176	Zn	1.302029	-0.000047	0.301961
O177	O	1.348551	0.015184	0.438538
C178	C	0.057627	1.036971	-0.471136
C179	C	0.088434	1.037405	-0.502244
C180	C	0.150790	1.036981	-0.377980
C181	C	0.181455	1.037414	-0.409230
C182	C	0.150783	1.036973	-0.471144
C183	C	0.088441	1.037412	-0.409222
C184	C	-0.035494	1.029409	-0.470884
C185	C	-0.094345	1.024634	-0.500205
C186	C	-0.123863	1.022235	-0.561553
C187	C	-0.187670	1.017054	-0.593345
C188	C	-0.094542	1.024616	-0.593591
C189	C	-0.035697	1.029394	-0.564274
C190	C	-0.006174	1.031788	-0.502920
C191	C	0.158093	1.029406	-0.564517
C192	C	0.192186	1.024633	-0.594046
C193	C	0.255928	1.022243	-0.562217
C194	C	0.292899	1.017064	-0.594231
C195	C	0.285583	1.024631	-0.500858
C196	C	0.251490	1.029407	-0.471331
C197	C	0.187748	1.031792	-0.503160
C198	C	0.158115	1.029428	-0.277289
C199	C	0.192221	1.024654	-0.213663
C200	C	0.255962	1.022264	-0.181758
C201	C	0.292941	1.017093	-0.112773
C202	C	0.285610	1.024643	-0.213467
C203	C	0.251510	1.029414	-0.277090
C204	C	0.187763	1.031807	-0.308998
H205	H	0.379150	0.525009	0.022777
Br206	Br	0.424982	0.679335	0.032764
Br207	Br	0.149817	0.393209	-0.023776
H208	H	0.441013	0.578573	0.031446
H209	H	1.167053	0.359268	0.190385
Br210	Br	0.566865	0.976192	0.173647
H211	H	0.653932	0.615837	-0.384126
Br212	Br	0.347260	0.976185	0.173665
Br213	Br	0.347193	0.393190	0.173620
H214	H	1.167049	0.190294	0.190368
Br215	Br	0.372530	0.322637	-0.170661
H216	H	0.835194	0.356396	-0.187478
Br217	Br	0.566891	0.976197	0.393275
Br218	Br	-0.134603	0.829786	-0.457672
H219	H	0.062662	0.615800	-0.384164
H220	H	0.548595	0.355944	0.022792
H221	H	0.275633	1.031355	-0.421374
H222	H	0.378750	0.812070	0.022814
H223	H	0.167006	0.190317	-0.023306
H224	H	0.106207	1.031380	-0.303267
H225	H	0.231636	0.446823	-0.384165
H226	H	0.610031	0.697025	0.031462
H227	H	-0.011462	0.696669	-0.590463
H228	H	0.062655	0.615794	-0.553146
H229	H	0.549663	0.190312	0.359342
Br230	Br	0.372125	1.021396	-0.170165
H231	H	-0.118217	0.812081	-0.644026
Br232	Br	0.850781	0.543198	-0.170636
Br233	Br	0.424823	0.679872	-0.607737
H234	H	0.062689	1.038064	-0.384118
Br235	Br	0.004107	0.679820	-0.388080
Br236	Br	0.072050	0.611897	-0.320141
H237	H	1.336051	0.190280	0.359348
H238	H	0.275700	0.409502	-0.303295
H239	H	0.275654	1.031349	-0.302907
Br240	Br	0.291689	0.392223	-0.387653
Br241	Br	0.712553	0.611884	0.032737
Br242	Br	0.671136	0.412936	-0.367422
Br243	Br	0.451484	0.632573	-0.587020
H244	H	0.728087	0.579016	-0.303265
H245	H	0.654013	0.615789	0.038218
H246	H	-0.118585	1.022662	-0.643548
Br247	Br	0.645009	0.679369	-0.387619
H248	H	0.548538	0.812115	-0.474112
H249	H	0.379052	0.812518	-0.643535
H250	H	0.335982	0.190319	-0.023311
Br251	Br	0.451554	0.632534	0.038639
Br252	Br	0.566853	0.173594	0.173640
H253	H	0.440859	0.579053	-0.590422
H254	H	0.337923	0.355943	-0.474156
Br255	Br	0.152896	0.542308	-0.170179
H256	H	0.168876	0.525011	-0.643587
Br257	Br	0.344014	0.543260	-0.677289
Br258	Br	0.563793	0.829770	0.021507
Br259	Br	0.671199	0.412901	0.038677
H260	H	0.547696	0.356424	-0.474924
Br261	Br	0.072021	0.611877	-0.607791
Br262	Br	0.644553	0.392221	-0.388051
Br263	Br	0.712485	0.392217	-0.320114
H264	H	0.231625	1.038117	-0.384145
H265	H	0.062642	1.038102	-0.553116
Br266	Br	0.151936	1.021398	-0.677317
Br267	Br	0.151983	1.021426	-0.170633
Br268	Br	0.004570	1.032660	-0.387619
H269	H	0.834882	0.355938	0.022807
Br270	Br	-0.134135	1.021407	-0.456727
Br271	Br	0.004092	1.032631	-0.607751
H272	H	0.106190	1.031351	-0.590439
H273	H	0.337488	1.022686	-0.474946
H274	H	0.728135	0.409493	0.031476
H275	H	0.835238	0.525008	0.022783
Br276	Br	0.645063	0.392218	0.032760
