data_functionalizedCrystal
_audit_creation_method	'MofGen! by Chris Wilmer'
_symmetry_space_group_name_H-M	'P1'
_symmetry_Int_Tables_number	1
_symmetry_cell_setting	triclinic
loop_
_symmetry_equiv_pos_as_xyz
  x,y,z
_cell_length_a	14.971486
_cell_length_b	15.021413
_cell_length_c	14.971496
_cell_angle_alpha	90.003983
_cell_angle_beta	83.616127
_cell_angle_gamma	89.996862
loop_
_atom_site_label
_atom_site_type_symbol
_atom_site_fract_x
_atom_site_fract_y
_atom_site_fract_z
O1	O	1.186955	-0.073932	0.116549
O2	O	0.926555	-0.073956	0.130508
O3	O	1.063730	-0.073935	-0.006671
O4	O	1.049780	-0.073952	0.253728
O5	O	1.063706	0.074129	-0.006649
O6	O	0.926531	0.074108	0.130530
O7	O	1.186931	0.074133	0.116571
Zn8	Zn	1.056727	0.097629	0.123554
Zn9	Zn	1.056759	-0.097452	0.123525
O10	O	1.049756	0.074112	0.253750
C11	C	0.893218	0.000073	0.129895
C12	C	0.793921	0.000064	0.128024
C13	C	0.736699	0.000060	0.208613
C14	C	0.643399	0.000073	0.206850
C15	C	0.607324	0.000084	0.124497
C16	C	0.664554	0.000091	0.043902
C17	C	0.757852	0.000084	0.045666
C18	C	0.470091	0.000104	0.040231
C19	C	0.376787	0.000109	0.038466
C20	C	0.355639	0.000093	0.201415
C21	C	0.448937	0.000086	0.203179
C22	C	0.506160	0.000091	0.122583
N23	N	1.056712	0.230766	0.123573
C24	C	0.993269	0.470440	0.186979
C25	C	1.074111	0.529781	0.204427
C26	C	1.056732	0.412373	0.123554
C27	C	0.975910	0.529774	0.106129
C28	C	1.056744	0.587797	0.123537
C29	C	1.137615	0.470408	0.141042
C30	C	1.039360	0.470396	0.042709
C31	C	1.120260	0.529710	0.060123
C32	C	1.056724	0.311316	0.123566
C33	C	1.056762	0.688853	0.123525
C34	C	1.220268	0.000102	0.117184
C35	C	1.319565	0.000105	0.119055
N36	N	1.056766	0.769410	0.123515
C37	C	1.063092	0.000097	-0.039985
C38	C	1.061218	0.000097	-0.139281
C39	C	1.053163	-0.080637	-0.566997
C40	C	1.054929	-0.080632	-0.473698
C41	C	1.055793	0.000081	-0.427043
C42	C	1.054900	0.080795	-0.473692
C43	C	1.053141	0.080790	-0.566990
C44	C	1.058565	0.080800	-0.279229
C45	C	1.060323	0.080805	-0.185924
C46	C	1.060354	-0.080623	-0.185937
C47	C	1.058594	-0.080628	-0.279235
C48	C	1.057700	0.000087	-0.325878
C49	C	1.050394	0.000078	0.287063
C50	C	1.052268	0.000072	0.386360
H51	H	0.309043	0.000093	0.267038
H52	H	1.061075	-0.146344	-0.147955
H53	H	1.057886	-0.146352	-0.317219
O54	O	0.341890	0.000161	-0.041608
C55	C	0.372706	0.000128	-0.203044
C56	C	0.412346	0.000093	-0.112424
H57	H	0.429651	0.000054	-0.260323
H58	H	0.329583	0.062108	-0.207989
H59	H	0.329528	-0.061821	-0.207904
H60	H	0.455565	0.062000	-0.107503
H61	H	0.455418	-0.061928	-0.107519
H62	H	0.907555	0.555854	0.091399
H63	H	0.516681	0.000109	-0.025399
H64	H	0.596812	0.000069	0.272473
O65	O	0.629618	-0.000018	-0.036151
C66	C	0.619108	-0.076745	-0.175948
C67	C	0.658747	-0.076717	-0.085327
H68	H	0.642628	-0.138759	-0.215724
H69	H	0.642690	-0.014821	-0.215832
H70	H	0.542598	-0.076701	-0.163344
H71	H	0.735259	-0.076792	-0.097850
H72	H	0.635095	-0.138636	-0.045472
O73	O	1.091679	0.561060	0.285912
C74	C	1.112057	0.690216	0.376940
C75	C	1.092186	0.654915	0.284608
H76	H	1.112454	0.766101	0.375923
H77	H	1.180463	0.664848	0.392340
H78	H	1.057897	0.665822	0.430939
H79	H	1.146289	0.679295	0.230550
H80	H	1.023753	0.680276	0.269286
O81	O	1.052160	-0.159016	-0.612340
C82	C	0.972781	-0.252679	-0.707683
C83	C	0.973794	-0.163893	-0.656355
H84	H	0.909439	-0.256643	-0.743298
H85	H	0.973667	-0.310405	-0.658357
H86	H	1.034534	-0.256693	-0.759447
H87	H	0.912052	-0.159792	-0.604591
H88	H	0.972955	-0.106210	-0.705736
O89	O	0.929202	0.439490	0.250962
C90	C	0.771714	0.435799	0.305830
C91	C	0.844173	0.470931	0.233324
H92	H	0.702949	0.461189	0.291585
H93	H	0.786627	0.460224	0.374729
H94	H	0.771923	0.359913	0.304819
H95	H	0.844005	0.546815	0.234252
H96	H	0.829233	0.446437	0.164458
O97	O	1.061171	0.159288	-0.140741
C98	C	1.060836	0.319403	-0.150553
C99	C	1.059917	0.230586	-0.201839
H100	H	1.059804	0.377070	-0.199926
H101	H	1.124206	0.323532	-0.114993
H102	H	0.999110	0.323354	-0.098751
H103	H	1.121600	0.226574	-0.253684
H104	H	0.996507	0.226494	-0.237337
O105	O	1.055753	-0.159112	-0.428522
C106	C	1.055644	-0.319227	-0.438387
C107	C	1.054686	-0.230409	-0.489655
H108	H	1.054801	-0.376893	-0.487793
H109	H	0.993906	-0.323327	-0.386610
H110	H	1.119004	-0.323207	-0.402800
H111	H	0.991368	-0.226369	-0.525295
H112	H	1.116466	-0.226346	-0.541381
H113	H	1.057838	0.146527	-0.317203
H114	H	1.052411	0.146511	-0.604966
O115	O	1.055605	0.159254	-0.428448
C116	C	0.978625	0.297173	-0.389792
C117	C	0.977737	0.208361	-0.441092
H118	H	0.915667	0.336893	-0.399981
H119	H	1.040772	0.337059	-0.416249
H120	H	0.980072	0.283283	-0.315108
H121	H	0.976259	0.222170	-0.515784
H122	H	0.915598	0.168502	-0.414561
H123	H	0.766063	0.000050	0.275674
H124	H	0.478306	0.000068	0.270237
O125	O	1.184426	0.560420	-0.003890
C126	C	1.302316	0.522745	-0.120686
C127	C	1.229695	0.487844	-0.048216
H128	H	1.338923	0.464086	-0.156557
H129	H	1.352437	0.565442	-0.087761
H130	H	1.269300	0.564556	-0.171437
H131	H	1.262632	0.445996	0.002556
H132	H	1.179582	0.445195	-0.081205
O133	O	0.813477	0.000242	-0.032595
C134	C	0.931125	0.076924	-0.125135
C135	C	0.868169	0.076862	-0.036479
H136	H	0.975373	0.138855	-0.128297
H137	H	0.889360	0.076988	-0.184333
H138	H	0.975293	0.014929	-0.128382
H139	H	0.823988	0.138846	-0.033145
H140	H	0.909987	0.076751	0.022677
O141	O	1.219097	0.439287	0.158803
C142	C	1.310500	0.310302	0.178751
C143	C	1.218190	0.345427	0.158607
H144	H	1.309803	0.234413	0.178581
H145	H	1.325397	0.335250	0.247472
H146	H	1.364665	0.335251	0.125046
H147	H	1.163965	0.320493	0.212256
H148	H	1.203370	0.320487	0.089860
H149	H	1.024630	0.444291	-0.025630
