data_functionalizedCrystal
_audit_creation_method	'MofGen! by Chris Wilmer'
_symmetry_space_group_name_H-M	'P1'
_symmetry_Int_Tables_number	1
_symmetry_cell_setting	triclinic
loop_
_symmetry_equiv_pos_as_xyz
  x,y,z
_cell_length_a	27.731993
_cell_length_b	27.732048
_cell_length_c	17.666332
_cell_angle_alpha	89.988553
_cell_angle_beta	90.002180
_cell_angle_gamma	82.631525
loop_
_atom_site_label
_atom_site_type_symbol
_atom_site_fract_x
_atom_site_fract_y
_atom_site_fract_z
O1	O	0.640948	0.057392	-0.062753
O2	O	1.140948	0.557392	0.437247
O3	O	0.500151	0.066165	-0.062800
O4	O	1.000151	0.566165	0.437200
O5	O	0.574922	-0.008619	-0.062761
O6	O	1.074922	0.491381	0.437239
O7	O	0.566176	0.132176	-0.062792
O8	O	1.066176	0.632176	0.437208
O9	O	0.574909	-0.008623	0.063136
O10	O	1.074909	0.491377	0.563136
O11	O	0.500138	0.066161	0.063097
O12	O	1.000138	0.566161	0.563097
O13	O	0.640935	0.057388	0.063144
O14	O	1.140935	0.557388	0.563144
Cu15	Cu	0.570535	0.061775	0.074616
Cu16	Cu	1.070535	0.561775	0.574616
Cu17	Cu	0.570550	0.061779	-0.074272
Cu18	Cu	1.070550	0.561779	0.425728
O19	O	0.566163	0.132172	0.063104
O20	O	1.066163	0.632172	0.563104
C21	C	0.482137	0.065983	0.000142
C22	C	0.982137	0.565983	0.500142
C23	C	0.428480	0.065441	0.000125
C24	C	0.928480	0.565441	0.500125
C25	C	0.045327	0.061512	-0.068464
C26	C	0.545327	0.561512	0.431536
C27	C	0.246985	0.063580	-0.068485
C28	C	0.746985	0.563580	0.431515
O29	O	0.273064	0.063829	-0.126850
O30	O	0.773064	0.563829	0.373150
N31	N	0.272198	0.063836	0.000140
N32	N	0.772198	0.563836	0.500140
C33	C	0.246994	0.063573	0.068775
C34	C	0.746994	0.563573	0.568775
O35	O	0.273067	0.063833	0.127144
O36	O	0.773067	0.563833	0.627144
C37	C	0.045338	0.061502	0.068795
C38	C	0.545338	0.561502	0.568795
C39	C	0.020127	0.061251	0.000166
C40	C	0.520127	0.561251	0.500166
C41	C	0.020116	0.061260	-0.137087
C42	C	0.520116	0.561260	0.362913
C43	C	-0.030296	0.060746	-0.137081
C44	C	0.469704	0.560746	0.362919
C45	C	-0.055496	0.060484	-0.068452
C46	C	0.444504	0.560484	0.431548
C47	C	-0.030285	0.060736	0.000172
C48	C	0.469715	0.560736	0.500172
C49	C	0.020136	0.061235	0.137429
C50	C	0.520136	0.561235	0.637429
C51	C	-0.030281	0.060716	0.137428
C52	C	0.469719	0.560716	0.637428
C53	C	-0.055493	0.060465	0.068799
C54	C	0.444507	0.560465	0.568799
C55	C	-0.105897	0.059960	0.068807
C56	C	0.394103	0.559960	0.568807
N57	N	-0.131110	0.059704	0.000183
N58	N	0.368890	0.559704	0.500183
C59	C	-0.105910	0.059966	-0.068447
C60	C	0.394090	0.559966	0.431553
C61	C	0.352866	0.064661	0.068759
C62	C	0.852866	0.564661	0.568759
C63	C	0.403280	0.065179	0.068755
C64	C	0.903280	0.565179	0.568755
C65	C	0.403267	0.065185	-0.068505
C66	C	0.903267	0.565185	0.431495
C67	C	0.352852	0.064670	-0.068500
C68	C	0.852852	0.564670	0.431500
C69	C	0.327653	0.064404	0.000135
C70	C	0.827653	0.564404	0.500135
C71	C	-0.211778	0.058887	-0.068429
C72	C	0.288222	0.558887	0.431571
C73	C	-0.262195	0.058375	-0.068417
C74	C	0.237805	0.558375	0.431583
C75	C	-0.262177	0.058366	0.068842
C76	C	0.237823	0.558366	0.568842
C77	C	-0.211765	0.058881	0.068831
C78	C	0.288235	0.558881	0.568831
C79	C	-0.186567	0.059139	0.000189
C80	C	0.313433	0.559139	0.500189
O81	O	-0.132007	0.059705	0.127142
O82	O	0.367993	0.559705	0.627142
O83	O	-0.131990	0.059694	-0.126807
O84	O	0.368010	0.559694	0.373193
C85	C	0.095739	0.062027	-0.068470
C86	C	0.595739	0.562027	0.431530
C87	C	0.120950	0.062279	0.000154
C88	C	0.620950	0.562279	0.500154
C89	C	0.095750	0.062017	0.068784
C90	C	0.595750	0.562017	0.568784
C91	C	0.171364	0.062797	0.000149
C92	C	0.671364	0.562797	0.500149
C93	C	0.196564	0.063059	-0.068480
C94	C	0.696564	0.563059	0.431520
C95	C	0.171351	0.062803	-0.137105
C96	C	0.671351	0.562803	0.362895
C97	C	0.120939	0.062289	-0.137099
C98	C	0.620939	0.562289	0.362901
C99	C	0.120963	0.062273	0.137408
C100	C	0.620963	0.562273	0.637408
C101	C	0.171375	0.062788	0.137397
C102	C	0.671375	0.562788	0.637397
C103	C	0.196575	0.063050	0.068767
C104	C	0.696575	0.563050	0.568767
C105	C	0.574732	-0.026628	0.000190
C106	C	1.074732	0.473372	0.500190
C107	C	0.574179	-0.080282	0.000196
C108	C	1.074179	0.419718	0.500196
C109	C	0.614884	-0.419105	0.000171
C110	C	1.114884	0.080895	0.500171
C111	C	0.612833	-0.620765	0.000159
C112	C	1.112833	-0.120765	0.500159
O113	O	0.650055	-0.652028	0.000139
O114	O	1.150055	-0.152028	0.500139
N115	N	0.568497	-0.639880	0.000145
N116	N	1.068497	-0.139880	0.500145
C117	C	0.524670	-0.608576	0.000129
C118	C	1.024670	-0.108576	0.500129
O119	O	0.486912	-0.629462	0.000109
O120	O	0.986912	-0.129462	0.500109
C121	C	0.526721	-0.406918	0.000135
C122	C	1.026721	0.093082	0.500135
C123	C	0.571061	-0.387806	0.000157
C124	C	1.071061	0.112194	0.500157
C125	C	0.659220	-0.399993	0.000192
C126	C	1.159220	0.100007	0.500192
C127	C	0.659732	-0.349581	0.000199
C128	C	1.159732	0.150419	0.500199
C129	C	0.615909	-0.318282	0.000185
C130	C	1.115909	0.181718	0.500185
C131	C	0.571573	-0.337394	0.000164
C132	C	1.071573	0.162606	0.500164
C133	C	0.482895	-0.375616	0.000113
C134	C	0.982895	0.124384	0.500113
C135	C	0.483412	-0.325199	0.000113
C136	C	0.983412	0.174801	0.500113
C137	C	0.527751	-0.306087	0.000134
C138	C	1.027751	0.193913	0.500134
C139	C	0.528262	-0.255683	0.000156
C140	C	1.028262	0.244317	0.500156
N141	N	0.572598	-0.236568	0.000171
N142	N	1.072598	0.263432	0.500171
C143	C	0.616422	-0.267867	0.000185
C144	C	1.116422	0.232133	0.500185
C145	C	0.523596	-0.714450	0.000127
C146	C	1.023596	-0.214450	0.500127
C147	C	0.523083	-0.764865	0.000127
C148	C	1.023083	-0.264865	0.500127
C149	C	0.611246	-0.777049	0.000156
C150	C	1.111246	-0.277049	0.500156
C151	C	0.611759	-0.726634	0.000162
C152	C	1.111759	-0.226634	0.500162
C153	C	0.567932	-0.695335	0.000142
C154	C	1.067932	-0.195335	0.500142
C155	C	0.617494	-0.161998	0.000200
C156	C	1.117494	0.338002	0.500200
C157	C	0.618003	-0.111582	0.000210
C158	C	1.118003	0.388418	0.500210
C159	C	0.529839	-0.099401	0.000177
C160	C	1.029839	0.400599	0.500177
C161	C	0.529331	-0.149814	0.000171
C162	C	1.029331	0.350186	0.500171
C163	C	0.573162	-0.181112	0.000180
C164	C	1.073162	0.318888	0.500180
O165	O	0.491060	-0.224392	0.000169
O166	O	0.991060	0.275608	0.500169
O167	O	0.654174	-0.246972	0.000188
O168	O	1.154174	0.253028	0.500188
C169	C	0.614372	-0.469517	0.000164
C170	C	1.114372	0.030483	0.500164
C171	C	0.570036	-0.488630	0.000143
C172	C	1.070036	0.011370	0.500143
C173	C	0.526213	-0.457331	0.000129
C174	C	1.026213	0.042669	0.500129
C175	C	0.569523	-0.539044	0.000143
C176	C	1.069523	-0.039044	0.500143
C177	C	0.613346	-0.570343	0.000157
C178	C	1.113346	-0.070343	0.500157
C179	C	0.657683	-0.551228	0.000171
C180	C	1.157683	-0.051228	0.500171
C181	C	0.658195	-0.500817	0.000178
C182	C	1.158195	-0.000817	0.500178
C183	C	0.481876	-0.476446	0.000114
C184	C	0.981876	0.023554	0.500114
C185	C	0.481368	-0.526858	0.000108
C186	C	0.981368	-0.026858	0.500108
C187	C	0.525191	-0.558157	0.000122
C188	C	1.025191	-0.058157	0.500122
C189	C	0.658949	0.057570	0.000200
C190	C	1.158949	0.557570	0.500200
C191	C	0.712605	0.058113	0.000212
C192	C	1.212605	0.558113	0.500212
C193	C	0.566353	0.150181	0.000152
C194	C	1.066353	0.650181	0.500152
C195	C	0.566906	0.203836	0.000141
C196	C	1.066906	0.703836	0.500141
N197	N	0.570528	0.061771	0.179335
N198	N	1.070528	0.561771	0.679335
N199	N	0.570561	0.061779	-0.178991
N200	N	1.070561	0.561779	0.321009
C201	C	0.603647	0.028673	0.218962
C202	C	1.103647	0.528673	0.718962
C203	C	0.603650	0.028670	0.298210
C204	C	1.103650	0.528670	0.798210
C205	C	0.570538	0.061775	0.337827
C206	C	1.070538	0.561775	0.837827
C207	C	0.537412	0.094876	0.298190
C208	C	1.037412	0.594876	0.798190
C209	C	0.537407	0.094874	0.218944
C210	C	1.037407	0.594874	0.718944
N211	N	0.564065	0.104594	0.462235
N212	N	1.064065	0.604594	0.962235
N213	N	0.564073	0.104595	0.537515
N214	N	1.064073	0.604595	1.037515
C215	C	0.570551	0.061781	0.576591
C216	C	1.070551	0.561781	1.076591
N217	N	0.577030	0.018966	0.537543
N218	N	1.077030	0.518966	1.037543
N219	N	0.577025	0.018967	0.462255
N220	N	1.077025	0.518967	0.962255
C221	C	0.570540	0.061780	0.423756
C222	C	1.070540	0.561780	0.923756
C223	C	0.603675	0.028678	0.702148
C224	C	1.103675	0.528678	1.202148
C225	C	0.603674	0.028675	0.781397
C226	C	1.103674	0.528675	1.281397
C227	C	0.537439	0.094884	0.781376
C228	C	1.037439	0.594884	1.281376
C229	C	0.537437	0.094883	0.702128
C230	C	1.037437	0.594883	1.202128
C231	C	0.570558	0.061780	0.662519
C232	C	1.070558	0.561780	1.162519
H233	H	0.423802	0.065392	0.124639
H234	H	0.923802	0.565392	0.624639
F235	F	0.430096	0.065465	-0.141546
F236	F	0.930096	0.565465	0.358454
H237	H	0.510451	0.121829	0.330451
H238	H	1.010451	0.621829	0.830451
F239	F	0.326053	0.064383	0.141814
F240	F	0.826053	0.564383	0.641814
H241	H	0.510477	0.121836	0.813632
H242	H	1.010477	0.621836	1.313632
F243	F	0.482140	-0.170155	0.000161
F244	F	0.982140	0.329845	0.500161
H245	H	0.040654	0.061439	0.193314
H246	H	0.540654	0.561439	0.693314
H247	H	0.510437	0.121827	0.186679
H248	H	1.010437	0.621827	0.686679
H249	H	0.630620	0.001717	0.330480
H250	H	1.130620	0.501717	0.830480
F251	F	0.483202	-0.066082	0.000162
F252	F	0.983202	0.433918	0.500162
H253	H	0.695838	-0.334025	0.000213
H254	H	1.195838	0.165975	0.500213
F255	F	0.658950	-0.706298	0.000185
F256	F	1.158950	-0.206298	0.500185
H257	H	-0.050796	0.060504	0.193320
H258	H	0.449204	0.560504	0.693320
H259	H	0.510470	0.121837	0.669862
H260	H	1.010470	0.621837	1.169862
H261	H	0.694301	-0.485261	0.000195
H262	H	1.194301	0.014739	0.500195
H263	H	0.630642	0.001722	0.669897
H264	H	1.130642	0.501722	1.169897
F265	F	0.638923	-0.006557	0.823573
F266	F	1.138923	0.493443	1.323573
F267	F	0.704323	-0.584548	0.000190
F268	F	1.204323	-0.084548	0.500190
H269	H	-0.282719	0.058171	-0.124306
H270	H	0.217281	0.558171	0.375694
H271	H	-0.191239	0.059095	0.124714
H272	H	0.308761	0.559095	0.624714
F273	F	-0.184967	0.059162	-0.141486
F274	F	0.315033	0.559162	0.358514
F275	F	0.435702	-0.395945	0.000086
F276	F	0.935702	0.104055	0.500086
F277	F	0.434172	-0.547192	0.000090
F278	F	0.934172	-0.047192	0.500090
H279	H	-0.050818	0.060539	-0.192966
H280	H	0.449182	0.560539	0.307034
H281	H	0.630614	0.001717	0.186715
H282	H	1.130614	0.501717	0.686715
F283	F	0.435231	-0.443141	0.000097
F284	F	0.935231	0.056859	0.500097
H285	H	0.332328	0.064465	-0.124384
H286	H	0.832328	0.564465	0.375616
F287	F	-0.289006	0.058089	0.141879
F288	F	0.210994	0.558089	0.641879
F289	F	0.705867	-0.433297	0.000206
F290	F	1.205867	0.066703	0.500206
F291	F	0.198180	0.063083	-0.210146
F292	F	0.698180	0.563083	0.289854
F293	F	0.046929	0.061538	-0.210139
F294	F	0.546929	0.561538	0.289861
H295	H	0.100450	0.062057	0.193296
H296	H	0.600450	0.562057	0.693296
H297	H	0.646929	-0.802542	0.000168
H298	H	1.146929	-0.302542	0.500168
H299	H	0.191897	0.062997	0.193287
H300	H	0.691897	0.562997	0.693287
F301	F	0.665196	-0.091245	0.000233
F302	F	1.165196	0.408755	0.500233
F303	F	0.094114	0.062020	-0.210144
F304	F	0.594114	0.562020	0.289856
H305	H	0.653186	-0.187476	0.000204
H306	H	1.153186	0.312524	0.500204
H307	H	0.486977	-0.780421	0.000123
H308	H	0.986977	-0.280421	0.500123
H309	H	0.487905	-0.688970	0.000111
H310	H	0.987905	-0.188970	0.500111
H311	H	0.447722	-0.299717	0.000095
H312	H	0.947722	0.200283	0.500095
