data_functionalizedCrystal
_audit_creation_method	'MofGen! by Chris Wilmer'
_symmetry_space_group_name_H-M	'P1'
_symmetry_Int_Tables_number	1
_symmetry_cell_setting	triclinic
loop_
_symmetry_equiv_pos_as_xyz
  x,y,z
_cell_length_a	21.395362
_cell_length_b	14.908520
_cell_length_c	21.395356
_cell_angle_alpha	86.728885
_cell_angle_beta	90.042977
_cell_angle_gamma	93.337688
loop_
_atom_site_label
_atom_site_type_symbol
_atom_site_fract_x
_atom_site_fract_y
_atom_site_fract_z
Zn1	Zn	0.943511	-0.358806	0.368962
Zn2	Zn	0.937384	-0.509674	0.270229
Zn3	Zn	0.838725	-0.358873	0.264166
Zn4	Zn	0.832664	-0.509669	0.374933
O5	O	0.888071	-0.434255	0.319572
O6	O	1.030377	-0.378794	0.355903
O7	O	0.924269	-0.489700	0.181748
O8	O	0.857725	-0.232617	0.273030
O9	O	1.025876	-0.489636	0.283364
O10	O	0.934711	-0.232568	0.350023
O11	O	0.851784	-0.378907	0.177293
O12	O	0.750242	-0.378901	0.278821
O13	O	0.847396	-0.489626	0.461818
O14	O	0.745789	-0.489690	0.360201
O15	O	0.928834	-0.378789	0.457430
O16	O	0.918392	-0.635921	0.289155
O17	O	0.841455	-0.635917	0.366081
C18	C	0.725281	-0.434303	0.319502
C19	C	0.655638	-0.434345	0.319487
C20	C	0.878618	-0.668653	0.328937
C21	C	0.874632	-0.768929	0.332965
C22	C	0.620620	-0.492110	0.361805
C23	C	0.555186	-0.492088	0.361832
C24	C	0.524771	-0.434311	0.319530
C25	C	0.559798	-0.376535	0.277209
C26	C	0.625231	-0.376552	0.277187
C27	C	0.421338	-0.427056	0.262834
C28	C	0.355905	-0.427045	0.262855
C29	C	0.322953	-0.434252	0.319597
C30	C	0.355441	-0.441489	0.376321
C31	C	0.420874	-0.441506	0.376299
C32	C	0.453820	-0.434285	0.319549
C33	C	0.216983	-0.491995	0.361948
C34	C	0.151548	-0.491967	0.361976
C35	C	0.156161	-0.376419	0.277347
C36	C	0.221596	-0.376443	0.277325
C37	C	0.252002	-0.434235	0.319624
C38	C	0.947338	-0.957302	0.260494
C39	C	0.943594	-1.051521	0.264276
C40	C	0.863405	-1.051586	0.344314
C41	C	0.867148	-0.957368	0.340532
C42	C	0.909116	-0.910229	0.298620
C43	C	0.912856	-0.816009	0.294835
C44	C	0.832670	-0.816076	0.374875
C45	C	0.828926	-0.910295	0.378657
C46	C	1.051496	-0.434208	0.319644
C47	C	1.121138	-0.434188	0.319674
C48	C	0.888122	-0.434199	0.482993
C49	C	0.888144	-0.434176	0.552634
C50	C	0.897577	-0.198942	0.310184
C51	C	0.901629	-0.098666	0.306184
C52	C	0.888058	-0.434246	0.156784
C53	C	0.888168	-0.434016	0.087134
C54	C	0.850413	-0.376479	0.583017
C55	C	0.850411	-0.376462	0.648452
C56	C	0.888153	-0.434133	0.683500
C57	C	0.925887	-0.491840	0.653110
C58	C	0.925883	-0.491862	0.587676
C59	C	0.944322	-0.441203	0.787489
C60	C	0.944328	-0.441175	0.852921
C61	C	0.888166	-0.434072	0.885319
C62	C	0.831997	-0.426977	0.852276
C63	C	0.831993	-0.426999	0.786843
C64	C	0.888162	-0.434116	0.754452
C65	C	0.850429	-0.376354	0.986654
C66	C	0.850426	-0.376344	1.052090
C67	C	0.925908	-0.491717	1.056746
C68	C	0.925905	-0.491732	0.991312
C69	C	0.888167	-0.434046	0.956269
H70	H	0.645373	-0.539168	0.396249
H71	H	0.241742	-0.539049	0.396394
O72	O	0.319908	-0.449239	0.437526
H73	H	0.353490	-0.454272	0.476962
H74	H	0.786265	-0.421187	0.878653
O75	O	0.984828	-1.102282	0.223155
H76	H	1.014991	-1.145118	0.252964
O77	O	0.526995	-0.314218	0.231585
H78	H	0.562342	-0.274046	0.202157
H79	H	0.794759	-0.948688	0.412782
H80	H	0.123037	-0.539004	0.396440
H81	H	0.819680	-0.329510	0.554490
O82	O	1.004909	-0.448822	0.888554
H83	H	0.995480	-0.447600	0.939496
H84	H	0.250108	-0.329409	0.242862
O85	O	0.809725	-0.314145	0.948850
H86	H	0.759925	-0.329635	0.961985
H87	H	0.801544	-0.777739	0.405918
O88	O	1.004901	-0.448858	0.752546
H89	H	1.043960	-0.453771	0.786513
H90	H	0.829241	-1.089983	0.378440
O91	O	0.966608	-0.553959	0.958539
H92	H	0.960261	-0.544291	0.907152
O93	O	0.966592	-0.554042	0.690914
H94	H	0.952976	-0.624854	0.681178
H95	H	0.956611	-0.538844	0.562939
H96	H	0.819696	-0.329363	1.076827
O97	O	0.123368	-0.314107	0.231714
H98	H	0.071984	-0.323804	0.238834
H99	H	0.329458	-0.421157	0.216668
O100	O	0.958122	-0.765160	0.249637
H101	H	0.984076	-0.813726	0.223767
H102	H	0.819687	-0.329474	0.673195
O103	O	0.771418	-0.419341	0.751200
H104	H	0.732362	-0.414397	0.784716
H105	H	0.447323	-0.447396	0.422485
O106	O	0.992599	-0.906450	0.215293
H107	H	1.018551	-0.955013	0.189418
H108	H	0.448162	-0.421183	0.216625
H109	H	0.653743	-0.329511	0.242727
O110	O	0.966619	-0.553920	1.094538
H111	H	0.960286	-0.544210	1.145143
H112	H	0.526668	-0.539126	0.396295
