data_functionalizedCrystal
_audit_creation_method	'MofGen! by Chris Wilmer'
_symmetry_space_group_name_H-M	'P1'
_symmetry_Int_Tables_number	1
_symmetry_cell_setting	triclinic
loop_
_symmetry_equiv_pos_as_xyz
  x,y,z
_cell_length_a	21.295419
_cell_length_b	21.295418
_cell_length_c	16.120297
_cell_angle_alpha	87.131155
_cell_angle_beta	87.122483
_cell_angle_gamma	90.042201
loop_
_atom_site_label
_atom_site_type_symbol
_atom_site_fract_x
_atom_site_fract_y
_atom_site_fract_z
Zn1	Zn	0.944291	-0.268428	0.471366
Zn2	Zn	0.949546	-0.368357	0.331948
Zn3	Zn	0.844360	-0.263134	0.331970
Zn4	Zn	0.838991	-0.373689	0.471313
O5	O	0.894297	-0.318402	0.401649
O6	O	1.033077	-0.281669	0.452885
O7	O	0.940039	-0.349952	0.215288
O8	O	0.857664	-0.175748	0.350492
O9	O	1.036938	-0.355086	0.350455
O10	O	0.931083	-0.179638	0.452906
O11	O	0.862760	-0.272645	0.215305
O12	O	0.755559	-0.277815	0.350441
O13	O	0.848513	-0.364172	0.587983
O14	O	0.751615	-0.359039	0.452816
O15	O	0.925876	-0.286838	0.588022
O16	O	0.934833	-0.457153	0.350404
O17	O	0.853609	-0.461070	0.452795
C18	C	0.730746	-0.318431	0.401626
C19	C	0.660778	-0.318460	0.401636
C20	C	0.625920	-0.280300	0.455053
C21	C	0.560177	-0.280284	0.455057
C22	C	0.529295	-0.318438	0.401651
C23	C	0.564161	-0.356600	0.348223
C24	C	0.629902	-0.356611	0.348215
N25	N	0.426272	-0.373266	0.395138
N26	N	0.363820	-0.373254	0.395150
C27	C	0.331219	-0.318406	0.401669
N28	N	0.363429	-0.263569	0.408193
N29	N	0.425887	-0.263582	0.408185
C30	C	0.458009	-0.318430	0.401653
C31	C	0.225076	-0.280225	0.455093
C32	C	0.159332	-0.280207	0.455091
C33	C	0.163317	-0.356529	0.348261
C34	C	0.229059	-0.356541	0.348260
C35	C	0.259935	-0.318390	0.401680
C36	C	0.894225	-0.481952	0.401610
C37	C	0.894251	-0.551921	0.401620
C38	C	0.936736	-1.049324	0.348469
C39	C	0.936713	-0.983581	0.348449
C40	C	0.894383	-0.952763	0.401708
C41	C	0.852063	-0.987694	0.454975
C42	C	0.852083	-1.053436	0.454987
N43	N	0.886697	-0.852307	0.474658
N44	N	0.886681	-0.789855	0.474644
C45	C	0.894319	-0.754687	0.401673
N46	N	0.901986	-0.784331	0.328715
N47	N	0.902004	-0.846789	0.328730
C48	C	0.894357	-0.881478	0.401700
C49	C	0.936609	-0.648478	0.348383
C50	C	0.936582	-0.582734	0.348362
C51	C	0.851934	-0.586848	0.454896
C52	C	0.851959	-0.652591	0.454909
C53	C	0.894299	-0.683402	0.401654
C54	C	1.058486	-0.318373	0.401673
C55	C	1.128454	-0.318361	0.401684
C56	C	0.886010	-0.326691	0.619097
C57	C	0.882478	-0.330223	0.711761
C58	C	0.894386	-0.154214	0.401708
C59	C	0.894424	-0.084247	0.401732
C60	C	0.902589	-0.310100	0.185047
C61	C	0.906242	-0.306391	0.092385
C62	C	0.876007	-0.336657	0.881418
C63	C	0.912711	-0.299958	0.922733
C64	C	0.909111	-0.303539	1.017136
C65	C	0.879607	-0.333078	0.787006
H66	H	0.531791	-0.249206	0.498554
O67	O	0.835387	-0.377418	0.923832
C68	C	0.869327	-0.419925	0.974220
H69	H	0.919885	-0.422823	0.947925
H70	H	0.846498	-0.468417	0.975303
H71	H	0.869043	-0.402911	1.040176
O72	O	0.977638	-0.678471	0.296586
C73	C	0.943885	-0.714478	0.242693
H74	H	0.895055	-0.725496	0.272058
H75	H	0.969973	-0.760254	0.231531
H76	H	0.939335	-0.686800	0.180911
O77	O	0.655836	-0.243270	0.507053
C78	C	0.636619	-0.260298	0.590113
H79	H	0.588803	-0.284559	0.591788
H80	H	0.632982	-0.216338	0.627602
H81	H	0.672529	-0.293764	0.618112
O82	O	0.254975	-0.243107	0.507007
C83	C	0.210107	-0.209429	0.554167
H84	H	0.164544	-0.205895	0.520027
H85	H	0.228807	-0.160191	0.563183
H86	H	0.200687	-0.234967	0.617427
O87	O	0.953341	-0.259226	0.880272
C88	C	0.919403	-0.216690	0.829920
H89	H	0.872174	-0.238422	0.816951
H90	H	0.947340	-0.205961	0.768659
H91	H	0.911253	-0.171293	0.863432
H92	H	0.971170	-0.955142	0.305074
O93	O	0.810920	-1.087387	0.506616
C94	C	0.772128	-1.123677	0.459111
H95	H	0.770776	-1.101389	0.393441
H96	H	0.722519	-1.125616	0.489203
H97	H	0.791722	-1.173372	0.456275
H98	H	0.138173	-0.387595	0.304777
H99	H	0.539012	-0.387665	0.304739
O100	O	0.663831	-0.393720	0.296443
C101	C	0.700007	-0.436257	0.343810
H102	H	0.707473	-0.416541	0.407042
H103	H	0.747521	-0.443367	0.309831
H104	H	0.674283	-0.483257	0.352858
O105	O	0.125445	-0.243066	0.506865
C106	C	0.089242	-0.200546	0.459509
H107	H	0.111552	-0.194075	0.393858
H108	H	0.087390	-0.153295	0.489787
H109	H	0.039511	-0.219886	0.456590
O110	O	0.262827	-0.393673	0.296349
C111	C	0.221475	-0.427335	0.249196
H112	H	0.173314	-0.430848	0.283342
H113	H	0.240767	-0.476581	0.240181
H114	H	0.216907	-0.401796	0.185936
H115	H	0.971212	-1.074406	0.305102
H116	H	0.971036	-0.554299	0.304984
H117	H	0.817596	-0.962599	0.498338
H118	H	0.817466	-0.561757	0.498256
H119	H	0.817505	-0.681026	0.498285
