data_functionalizedCrystal
_audit_creation_method	'MofGen! by Chris Wilmer'
_symmetry_space_group_name_H-M	'P1'
_symmetry_Int_Tables_number	1
_symmetry_cell_setting	triclinic
loop_
_symmetry_equiv_pos_as_xyz
  x,y,z
_cell_length_a	17.038272
_cell_length_b	15.455313
_cell_length_c	16.992695
_cell_angle_alpha	92.847427
_cell_angle_beta	90.889890
_cell_angle_gamma	87.131318
loop_
_atom_site_label
_atom_site_type_symbol
_atom_site_fract_x
_atom_site_fract_y
_atom_site_fract_z
O1	O	1.051316	-0.072023	0.167773
O2	O	0.823516	-0.072048	0.165057
O3	O	0.936503	-0.072029	0.052212
O4	O	0.938330	-0.072042	0.280618
O5	O	0.930040	0.072232	0.058636
O6	O	0.817053	0.072213	0.171481
O7	O	1.044853	0.072238	0.174197
Cu8	Cu	0.930363	0.085398	0.173426
Cu9	Cu	0.938006	-0.085208	0.165828
O10	O	0.931867	0.072219	0.287043
C11	C	0.791002	0.000079	0.165800
C12	C	0.703747	0.000069	0.158432
C13	C	0.930922	0.000101	0.026055
C14	C	0.923911	0.000100	-0.061457
N15	N	0.924993	0.205392	0.178770
C16	C	0.657877	0.000066	0.226072
C17	C	0.575891	0.000078	0.219145
C18	C	0.539777	0.000088	0.144578
C19	C	0.585653	0.000094	0.076933
C20	C	0.667637	0.000088	0.083861
C21	C	0.292483	0.000113	0.120105
C22	C	0.210493	0.000116	0.113182
C23	C	0.200736	0.000102	0.255395
C24	C	0.282722	0.000091	0.262316
C25	C	0.328591	0.000102	0.194671
C26	C	0.455975	0.000098	0.137496
C27	C	0.412391	0.000098	0.201754
C28	C	1.077368	0.000109	0.173455
C29	C	1.164623	0.000113	0.180822
N30	N	0.943382	-0.205202	0.160479
C31	C	0.973013	0.250795	0.130849
C32	C	0.968959	0.341602	0.134898
C33	C	0.916890	0.387005	0.186872
C34	C	0.868865	0.341596	0.234795
C35	C	0.872915	0.250791	0.230741
C36	C	0.899407	0.658583	0.204348
C37	C	0.895362	0.749395	0.208399
C38	C	0.995456	0.749395	0.108501
C39	C	0.999505	0.658587	0.104456
C40	C	0.951477	0.613187	0.152375
N41	N	0.912747	0.479824	0.191014
N42	N	0.955617	0.520369	0.148229
C43	C	0.991551	0.000109	-0.107185
C44	C	0.984960	0.000100	-0.189412
C45	C	0.910728	0.000089	-0.225909
C46	C	0.843083	0.000078	-0.180175
C47	C	0.849675	0.000080	-0.097950
C48	C	0.883406	0.000074	-0.471330
C49	C	0.876819	0.000073	-0.553561
C50	C	1.018696	0.000094	-0.562792
C51	C	1.025281	0.000102	-0.480565
C52	C	0.957637	0.000086	-0.434839
N53	N	0.903989	0.000082	-0.309958
N54	N	0.964377	0.000087	-0.350792
C55	C	0.937448	0.000087	0.313200
C56	C	0.944458	0.000082	0.400711
H57	H	0.687274	0.000058	0.286792
H58	H	0.852959	0.786358	0.250726
Br59	Br	1.110494	0.000115	-0.624854
H60	H	1.041904	0.621622	0.062134
H61	H	0.441799	0.000095	0.262467
Br62	Br	1.034126	0.403222	0.069859
Br63	Br	0.406957	0.000110	0.036300
H64	H	0.312120	0.000073	0.323036
Br65	Br	1.076761	0.000111	-0.251469
Br66	Br	1.043688	0.189186	0.060315
Br67	Br	0.729891	0.000100	-0.007940
Br68	Br	1.060632	0.811013	0.043469
H69	H	1.085729	0.000111	-0.450856
H70	H	0.782642	0.000063	-0.209897
Br71	Br	0.834230	0.596973	0.269381
H72	H	0.329819	0.000122	0.065023
H73	H	0.556243	0.000114	0.016219
Br74	Br	1.092299	0.000137	-0.057662
Br75	Br	0.798191	0.403211	0.305327
H76	H	0.816366	0.000078	-0.583273
H77	H	0.833811	0.213825	0.269762
H78	H	0.163381	0.000096	0.310467
H79	H	0.828325	0.000061	-0.434109
H80	H	0.538547	0.000075	0.274225
H81	H	0.794596	0.000073	-0.060719
H82	H	0.181092	0.000123	0.052458
