data_functionalizedCrystal
_audit_creation_method	'MofGen! by Chris Wilmer'
_symmetry_space_group_name_H-M	'P1'
_symmetry_Int_Tables_number	1
_symmetry_cell_setting	triclinic
loop_
_symmetry_equiv_pos_as_xyz
  x,y,z
_cell_length_a	12.837943
_cell_length_b	15.995292
_cell_length_c	11.295483
_cell_angle_alpha	85.902653
_cell_angle_beta	94.538773
_cell_angle_gamma	89.148778
loop_
_atom_site_label
_atom_site_type_symbol
_atom_site_fract_x
_atom_site_fract_y
_atom_site_fract_z
O1	O	1.382379	0.212591	0.098987
O2	O	1.882379	0.712591	0.598987
O3	O	1.080576	0.201838	0.098995
O4	O	1.580576	0.701838	0.598995
O5	O	1.239759	0.085984	0.098993
O6	O	1.739759	0.585984	0.598993
O7	O	1.223196	0.328445	0.098989
O8	O	1.723196	0.828445	0.598989
O9	O	1.225778	0.096142	-0.099058
O10	O	1.725778	0.596142	0.400942
O11	O	1.066595	0.211996	-0.099056
O12	O	1.566595	0.711996	0.400944
O13	O	1.368397	0.222749	-0.099063
O14	O	1.868397	0.722749	0.400937
Cu15	Cu	1.216220	0.218300	-0.117143
Cu16	Cu	1.716220	0.718300	0.382857
Cu17	Cu	1.232754	0.206287	0.117075
Cu18	Cu	1.732754	0.706287	0.617075
O19	O	1.209215	0.338603	-0.099061
O20	O	1.709215	0.838603	0.400939
C21	C	1.034966	0.203285	-0.000029
C22	C	1.534966	0.703285	0.499971
C23	C	0.919892	0.192451	-0.000026
C24	C	1.419892	0.692451	0.499974
C25	C	0.678899	0.322690	-0.000045
C26	C	1.178899	0.822690	0.499955
C27	C	0.570776	0.312515	-0.000042
C28	C	1.070776	0.812515	0.499958
C29	C	0.595520	0.161926	-0.000028
C30	C	1.095520	0.661926	0.499972
C31	C	0.703643	0.172102	-0.000030
C32	C	1.203643	0.672102	0.499970
C33	C	0.745329	0.252486	-0.000037
C34	C	1.245329	0.752486	0.499963
C35	C	0.853454	0.262660	-0.000030
C36	C	1.353454	0.762660	0.499970
C37	C	0.878196	0.112073	-0.000024
C38	C	1.378196	0.612073	0.499976
C39	C	0.770073	0.101897	-0.000022
C40	C	1.270073	0.601897	0.499978
C41	C	1.232095	0.059814	-0.000030
C42	C	1.732095	0.559814	0.499970
C43	C	1.230074	-0.033301	-0.000021
C44	C	1.730074	0.466699	0.499979
C45	C	1.222644	-0.371632	-0.000031
C46	C	1.722644	0.128368	0.499969
C47	C	1.337506	-0.339129	-0.000477
C48	C	1.837506	0.160871	0.499523
C49	C	1.339722	-0.242302	-0.000026
C50	C	1.839722	0.257698	0.499974
C51	C	1.226331	-0.203782	-0.000027
C52	C	1.726331	0.296218	0.499973
C53	C	1.176873	-0.243267	0.113068
C54	C	1.676873	0.256733	0.613068
C55	C	1.175496	-0.340172	0.113158
C56	C	1.675496	0.159828	0.613158
C57	C	1.157251	-0.328665	-0.112062
C58	C	1.657251	0.171335	0.387938
C59	C	1.161403	-0.231756	-0.113553
C60	C	1.661403	0.268244	0.386447
C61	C	1.228409	-0.108920	-0.000020
C62	C	1.728409	0.391080	0.499980
C63	C	1.220563	-0.466493	-0.000030
C64	C	1.720563	0.033507	0.499970
C65	C	1.414008	0.221302	-0.000037
C66	C	1.914008	0.721302	0.499963
C67	C	1.529082	0.232136	-0.000032
C68	C	2.029082	0.732136	0.499968
C69	C	1.216880	0.364773	-0.000036
C70	C	1.716880	0.864773	0.499964
C71	C	1.218900	0.457888	-0.000037
C72	C	1.718900	0.957888	0.499963
N73	N	1.204598	0.226750	-0.281879
N74	N	1.704598	0.726750	0.218121
C75	C	1.328046	0.136959	-0.531171
C76	C	1.828046	0.636959	-0.031171
C77	C	1.319270	0.143351	-0.655834
C78	C	1.819270	0.643351	-0.155834
C79	C	1.178267	0.245921	-0.655872
C80	C	1.678267	0.745921	-0.155872
C81	C	1.187043	0.239529	-0.531209
C82	C	1.687043	0.739529	-0.031209
C83	C	1.261935	0.185047	-0.468862
C84	C	1.761935	0.685047	0.031138
C85	C	1.270715	0.178660	-0.344196
C86	C	1.770715	0.678660	0.155804
C87	C	1.129708	0.281225	-0.344237
C88	C	1.629708	0.781225	0.155763
C89	C	1.120932	0.287617	-0.468900
C90	C	1.620932	0.787617	0.031100
N91	N	1.244384	0.197831	0.281811
N92	N	1.744384	0.697831	0.781811
H93	H	0.736117	0.036451	-0.000030
H94	H	1.236117	0.536451	0.499970
N95	N	0.550561	0.075229	-0.000022
N96	N	1.050561	0.575229	0.499978
H97	H	0.569610	0.047848	-0.073437
H98	H	1.069610	0.547848	0.426563
H99	H	0.471996	0.079500	0.000019
H100	H	0.971996	0.579500	0.500019
N101	N	1.066740	-0.210161	0.118639
N102	N	1.566740	0.289839	0.618639
H103	H	1.067604	-0.147262	0.122246
H104	H	1.567604	0.352738	0.622246
H105	H	1.036544	-0.236440	0.192026
H106	H	1.536544	0.263560	0.692026
N107	N	1.045162	-0.356093	-0.113078
N108	N	1.545162	0.143907	0.386922
H109	H	1.025970	-0.385057	-0.188109
H110	H	1.525970	0.114943	0.311891
H111	H	0.997759	-0.305419	-0.110390
H112	H	1.497759	0.194581	0.389610
N113	N	0.499146	0.388247	-0.000053
N114	N	0.999146	0.888247	0.499947
H115	H	0.458911	0.383632	0.073362
H116	H	0.958911	0.883632	0.573362
H117	H	0.448619	0.391110	-0.073521
H118	H	0.948619	0.891110	0.426479
N119	N	0.723862	0.409386	-0.000035
N120	N	1.223862	0.909386	0.499965
H121	H	0.694457	0.444301	-0.073451
H122	H	1.194457	0.944301	0.426549
H123	H	0.802434	0.405108	0.000011
H124	H	1.302434	0.905108	0.500011
H125	H	1.075879	0.320384	-0.293491
H126	H	1.575879	0.820384	0.206509
N127	N	0.949846	0.036344	-0.000003
N128	N	1.449846	0.536344	0.499997
H129	H	1.024668	0.054985	-0.000001
H130	H	1.524668	0.554985	0.499999
H131	H	0.931173	0.005446	-0.073418
H132	H	1.431173	0.505446	0.426582
N133	N	1.390582	0.091493	-0.723041
N134	N	1.890582	0.591493	-0.223041
H135	H	1.439358	0.056014	-0.664624
H136	H	1.939358	0.556014	-0.164624
H137	H	1.432755	0.129885	-0.774748
H138	H	1.932755	0.629885	-0.274748
H139	H	1.378985	-0.215530	-0.081095
H140	H	1.878985	0.284470	0.418905
H141	H	1.376066	-0.359433	-0.081582
H142	H	1.876066	0.140567	0.418418
H143	H	1.091617	-0.361707	0.118282
H144	H	1.591617	0.138293	0.618282
N145	N	1.403394	-0.378388	0.106342
N146	N	1.903394	0.121612	0.606342
H147	H	1.359161	-0.417136	0.155021
H148	H	1.859161	0.082864	0.655021
H149	H	1.431687	-0.332899	0.156761
H150	H	1.931687	0.167101	0.656761
N151	N	1.407252	-0.218664	0.107554
N152	N	1.907252	0.281336	0.607554
H153	H	1.377440	-0.242941	0.182367
H154	H	1.877440	0.257059	0.682367
H155	H	1.408962	-0.155592	0.108198
H156	H	1.908962	0.344408	0.608198
N157	N	0.898415	0.349358	-0.000050
N158	N	1.398415	0.849358	0.499950
H159	H	0.976991	0.345154	-0.000048
H160	H	1.476991	0.845154	0.499952
H161	H	0.879293	0.376699	0.073364
H162	H	1.379293	0.876699	0.573364
H163	H	1.221246	-0.368151	0.197699
H164	H	1.721246	0.131849	0.697699
H165	H	1.222704	-0.224340	0.197232
H166	H	1.722704	0.275660	0.697232
H167	H	1.187382	-0.349469	-0.197787
H168	H	1.687382	0.150531	0.302213
H169	H	1.117284	0.290273	-0.706651
H170	H	1.617284	0.790273	-0.206651
N171	N	1.208969	-0.197057	-0.224386
N172	N	1.708969	0.302943	0.275614
H173	H	1.272310	-0.163356	-0.201169
H174	H	1.772310	0.336644	0.298831
H175	H	1.155836	-0.159805	-0.274560
H176	H	1.655836	0.340195	0.225440
H177	H	1.078157	-0.205040	-0.120383
H178	H	1.578157	0.294960	0.379617
H179	H	1.331699	0.134301	-0.293435
H180	H	1.831699	0.634301	0.206565
H181	H	1.389033	0.092604	-0.480407
H182	H	1.889033	0.592604	0.019593
H183	H	1.059953	0.331973	-0.519677
H184	H	1.559953	0.831973	-0.019677
