data_functionalizedCrystal
_audit_creation_method	'MofGen! by Chris Wilmer'
_symmetry_space_group_name_H-M	'P1'
_symmetry_Int_Tables_number	1
_symmetry_cell_setting	triclinic
loop_
_symmetry_equiv_pos_as_xyz
  x,y,z
_cell_length_a	8.559649
_cell_length_b	18.366186
_cell_length_c	19.288865
_cell_angle_alpha	90.011479
_cell_angle_beta	103.542544
_cell_angle_gamma	89.991101
loop_
_atom_site_label
_atom_site_type_symbol
_atom_site_fract_x
_atom_site_fract_y
_atom_site_fract_z
O1	O	2.120308	-0.060535	0.023572
O2	O	1.654846	-0.060543	-0.012313
O3	O	1.901026	-0.060524	0.107459
O4	O	1.874127	-0.060554	-0.096200
O5	O	1.900985	0.060575	0.107462
O6	O	1.654804	0.060557	-0.012310
O7	O	2.120266	0.060564	0.023575
Zn8	Zn	1.887529	0.079788	0.005633
Zn9	Zn	1.887583	-0.079766	0.005629
O10	O	1.874085	0.060546	-0.096197
C11	C	1.595275	0.000006	-0.015031
C12	C	1.417837	0.000004	-0.023126
N13	N	1.887503	0.188679	0.005637
N14	N	1.887622	-0.188657	0.005631
C15	C	2.179837	0.000014	0.026293
C16	C	2.357275	0.000011	0.034388
C17	C	1.900140	0.000028	0.133292
C18	C	1.897542	0.000034	0.210261
C19	C	1.996547	0.226787	0.058651
C20	C	1.996557	0.303015	0.058654
C21	C	1.887538	0.341132	0.005633
C22	C	1.778473	0.303014	-0.047385
C23	C	1.778456	0.226787	-0.047383
C24	C	1.866140	0.461882	-0.058767
C25	C	1.866169	0.538107	-0.058769
C26	C	1.887584	0.576239	0.005627
C27	C	1.909003	0.538136	0.070030
C28	C	1.908985	0.461910	0.070032
C29	C	1.887545	0.423786	0.005625
C30	C	1.996645	0.697003	0.058649
C31	C	1.996644	0.773232	0.058653
C32	C	1.778568	0.773229	-0.047393
C33	C	1.778561	0.697001	-0.047391
C34	C	1.887608	0.658893	0.005629
C35	C	1.874972	-0.000008	-0.122030
C36	C	1.877570	-0.000019	-0.198998
C37	C	2.041990	0.000040	0.262466
C38	C	2.039549	0.000028	0.334786
C39	C	1.892652	0.000025	0.354897
C40	C	1.748185	0.000015	0.302681
C41	C	1.750630	0.000020	0.230363
C42	C	1.777159	0.042442	0.457183
C43	C	1.774720	0.042442	0.529500
C44	C	1.885104	0.000009	0.577950
C45	C	1.997955	-0.042415	0.554077
C46	C	2.000400	-0.042411	0.481759
C47	C	1.889984	0.000020	0.433313
C48	C	2.026915	0.000001	0.708575
C49	C	2.024468	-0.000015	0.780895
C50	C	1.733101	-0.000020	0.748789
C51	C	1.735552	-0.000011	0.676470
C52	C	1.882463	0.000003	0.656368
H53	H	1.441171	0.000016	0.089821
Br54	Br	1.630571	0.645276	-0.119343
Br55	Br	1.278003	-0.000020	-0.115526
H56	H	1.689706	0.334052	-0.090555
H57	H	2.085436	0.804260	0.101826
H58	H	1.926422	0.430890	0.122470
H59	H	1.633000	0.000015	0.187855
H60	H	1.682824	0.076982	0.548931
Br61	Br	2.144529	0.175068	0.130606
H62	H	2.085357	0.334049	0.101826
H63	H	2.142100	-0.000014	0.823402
Br64	Br	1.938087	0.589876	0.157432
Br65	Br	2.144630	0.645282	0.130606
Br66	Br	1.630595	0.824952	-0.119344
H67	H	1.848738	0.569125	-0.111209
H68	H	1.848674	0.430842	-0.111211
Br69	Br	1.630454	0.175064	-0.119335
H70	H	1.617926	-0.000012	0.633962
Br71	Br	2.241368	0.000039	0.235187
Br72	Br	2.147775	-0.100007	0.619822
H73	H	2.157179	0.000030	0.377299
Br74	Br	1.627338	0.100036	0.391435
H75	H	2.092284	-0.076955	0.462324
Br76	Br	1.533736	-0.000031	0.776074
Br77	Br	2.226290	0.000028	0.681288
Br78	Br	1.548823	0.000002	0.329973
