data_functionalizedCrystal
_audit_creation_method	'MofGen! by Chris Wilmer'
_symmetry_space_group_name_H-M	'P1'
_symmetry_Int_Tables_number	1
_symmetry_cell_setting	triclinic
loop_
_symmetry_equiv_pos_as_xyz
  x,y,z
_cell_length_a	6.817900
_cell_length_b	9.108949
_cell_length_c	9.514088
_cell_angle_alpha	93.165769
_cell_angle_beta	118.843545
_cell_angle_gamma	111.764586
loop_
_atom_site_label
_atom_site_type_symbol
_atom_site_fract_x
_atom_site_fract_y
_atom_site_fract_z
V1	V	-4.285763	-0.228437	-0.532236
O2	O	-4.198970	0.008003	-0.490108
O3	O	-4.302232	-0.450092	-0.559370
O4	O	-4.319881	-0.226228	-0.750323
O5	O	-4.181199	-0.217410	-0.297833
V6	V	-4.750293	-0.200002	-0.500461
O7	O	-4.588684	-0.290812	-0.601937
O8	O	-4.897569	-0.137627	-0.430760
O9	O	-4.510617	0.021653	-0.473328
O10	O	-4.954483	-0.436442	-0.542590
O11	O	-4.972254	-0.211028	-0.734865
O12	O	-4.492969	-0.202211	-0.282375
C13	C	-4.160344	-0.504086	-0.558915
C14	C	-4.255647	-0.685300	-0.582553
C15	C	-4.182854	-0.218523	-0.802492
C16	C	-4.292461	-0.218184	-0.980981
C17	C	-4.315848	0.075639	-0.473780
C18	C	-4.199789	0.256851	-0.450152
C19	C	-4.293336	-0.209921	-0.230198
C20	C	-4.162964	-0.210252	-0.051706
H21	H	-3.968253	-0.203736	-0.975712
H22	H	-4.079062	-0.654034	-0.318710
O23	O	-4.550396	-0.226812	-1.081646
H24	H	-4.628012	-0.232682	-1.001767
O25	O	-4.415571	-0.803314	-0.756664
H26	H	-4.467827	-0.931899	-0.748528
