data_functionalizedCrystal
_audit_creation_method	'MofGen! by Chris Wilmer'
_symmetry_space_group_name_H-M	'P1'
_symmetry_Int_Tables_number	1
_symmetry_cell_setting	triclinic
loop_
_symmetry_equiv_pos_as_xyz
  x,y,z
_cell_length_a	14.044220
_cell_length_b	10.489741
_cell_length_c	12.503572
_cell_angle_alpha	93.559494
_cell_angle_beta	86.164750
_cell_angle_gamma	88.864026
loop_
_atom_site_label
_atom_site_type_symbol
_atom_site_fract_x
_atom_site_fract_y
_atom_site_fract_z
O1	O	1.265220	0.300990	-0.089205
O2	O	0.989177	0.289883	-0.089232
O3	O	1.133479	0.110477	-0.089211
O4	O	1.120918	0.480397	-0.089225
O5	O	1.122627	0.123993	0.089429
O6	O	0.978325	0.303400	0.089408
O7	O	1.254368	0.314507	0.089436
Cu8	Cu	1.115355	0.310188	0.105733
Cu9	Cu	1.128189	0.294203	-0.105530
O10	O	1.110065	0.493914	0.089415
C11	C	0.948403	0.291780	0.000085
C12	C	0.843079	0.277280	0.000074
C13	C	0.650235	0.250773	0.000097
C14	C	0.593304	0.353611	0.000097
C15	C	0.485999	0.338862	0.000110
C16	C	0.757550	0.265520	0.000084
C17	C	1.127104	0.069607	0.000108
C18	C	1.124266	-0.072311	0.000106
C19	C	1.032451	-0.149764	0.000089
C20	C	1.070473	-0.230823	0.088172
C21	C	1.081194	-0.244122	-0.087953
C22	C	1.162321	-0.151494	0.088262
C23	C	1.173035	-0.164791	-0.087943
C24	C	1.211122	-0.245814	0.000162
C25	C	1.295142	0.312610	0.000116
C26	C	1.400466	0.327110	0.000120
C27	C	1.116440	0.534783	0.000093
C28	C	1.119279	0.676700	0.000088
N29	N	1.106335	0.321431	0.254324
N30	N	1.137217	0.282950	-0.254121
C31	C	1.093067	0.337981	0.473438
C32	C	1.150482	0.266404	0.526773
C33	C	1.143099	0.275613	0.648695
C34	C	1.100449	0.328774	0.351504
H35	H	0.956955	-0.107764	0.000170
C36	C	0.607218	0.116880	0.000095
H37	H	0.539695	0.124408	0.000091
H38	H	0.623925	0.076518	0.062385
H39	H	0.631479	0.067116	-0.062214
H40	H	1.027100	-0.260141	0.162633
C41	C	1.224383	0.174284	0.464772
H42	H	1.259434	0.130582	0.514272
H43	H	1.266860	0.221376	0.420899
H44	H	1.192441	0.114047	0.420903
C45	C	0.636323	0.487511	0.000068
H46	H	0.703848	0.479989	0.000049
H47	H	0.612066	0.537303	0.062356
H48	H	0.619608	0.527837	-0.062243
H49	H	1.196608	-0.111084	0.162813
H50	H	1.286677	-0.287570	0.000218
H51	H	1.038372	0.406172	0.519337
C52	C	1.231580	-0.125130	-0.188534
H53	H	1.202667	-0.156879	-0.251063
H54	H	1.294733	-0.159450	-0.189163
H55	H	1.233438	-0.034580	-0.187448
C56	C	1.034809	-0.298904	-0.188554
H57	H	0.971330	-0.265846	-0.188445
H58	H	1.033859	-0.389400	-0.188188
H59	H	1.070614	-0.275232	-0.251097
