data_functionalizedCrystal
_audit_creation_method	'MofGen! by Chris Wilmer'
_symmetry_space_group_name_H-M	'P1'
_symmetry_Int_Tables_number	1
_symmetry_cell_setting	triclinic
loop_
_symmetry_equiv_pos_as_xyz
  x,y,z
_cell_length_a	6.817900
_cell_length_b	17.982783
_cell_length_c	17.110486
_cell_angle_alpha	96.531275
_cell_angle_beta	99.060439
_cell_angle_gamma	102.448572
loop_
_atom_site_label
_atom_site_type_symbol
_atom_site_fract_x
_atom_site_fract_y
_atom_site_fract_z
V1	V	-3.971738	-0.105185	-0.247048
O2	O	-3.965633	0.005288	-0.242007
O3	O	-3.918501	-0.208788	-0.245683
O4	O	-3.901680	-0.103464	-0.354646
O5	O	-3.982570	-0.100765	-0.132290
V6	V	-4.458799	-0.091983	-0.233283
O7	O	-4.225235	-0.134144	-0.277243
O8	O	-4.655499	-0.063024	-0.203087
O9	O	-4.288829	0.011620	-0.234647
O10	O	-4.582300	-0.202456	-0.238323
O11	O	-4.565363	-0.096403	-0.348040
O12	O	-4.305650	-0.093703	-0.125685
C13	C	-3.763025	-0.234048	-0.241870
C14	C	-3.800640	-0.318744	-0.241471
C15	C	-3.793238	-0.347721	-0.168786
C16	C	-3.828600	-0.427303	-0.168415
C17	C	-3.871350	-0.477907	-0.240729
C18	C	-3.878758	-0.448925	-0.313420
C19	C	-3.843411	-0.369345	-0.313791
C20	C	-4.021315	-0.769865	-0.311925
C21	C	-4.056657	-0.849450	-0.311548
C22	C	-4.006504	-0.827823	-0.166548
C23	C	-3.971156	-0.748243	-0.166919
C24	C	-3.978578	-0.719268	-0.239610
C25	C	-3.940238	-0.632976	-0.240012
C26	C	-3.909676	-0.564197	-0.240327
C27	C	-3.741568	-0.099696	-0.380861
C28	C	-3.765540	-0.098975	-0.468825
C29	C	-3.957911	-0.102438	-0.514194
C30	C	-3.980423	-0.101760	-0.596845
C31	C	-3.810564	-0.097624	-0.634127
C32	C	-3.618176	-0.094158	-0.588752
C33	C	-3.595664	-0.094830	-0.506101
C34	C	-3.869472	-0.095398	-0.883475
C35	C	-3.892001	-0.094728	-0.966132
C36	C	-4.254246	-0.102329	-0.974219
C37	C	-4.231719	-0.103006	-0.891567
C38	C	-4.039333	-0.099536	-0.846199
C39	C	-3.833571	-0.096933	-0.718610
C40	C	-4.016325	-0.100221	-0.761716
C41	C	-4.107647	0.036876	-0.238458
C42	C	-4.049269	0.121572	-0.238862
C43	C	-4.129105	-0.097475	-0.099465
C44	C	-4.084372	-0.098192	-0.011500
H45	H	-4.027334	-0.746284	-0.371113
F46	F	-3.998618	-0.858666	-0.089184
H47	H	-3.849461	-0.345755	-0.372979
H48	H	-3.822575	-0.450892	-0.109227
H49	H	-3.479873	-0.090785	-0.619112
F50	F	-4.185173	-0.105455	-0.645128
F51	F	-3.925649	-0.694390	-0.089953
H52	H	-4.091469	-0.890651	-0.370438
H53	H	-4.370040	-0.106373	-0.861218
H54	H	-3.439007	-0.091991	-0.469160
H55	H	-3.913582	-0.490134	-0.372299
F56	F	-3.664728	-0.091721	-0.835203
F57	F	-4.138707	-0.106846	-0.474524
F58	F	-4.458986	-0.106020	-1.022509
F59	F	-3.711202	-0.090326	-1.005808
F60	F	-3.652807	-0.092541	-0.758297
F61	F	-3.747726	-0.293871	-0.091818
F62	F	-4.197093	-0.104621	-0.722036
