data_functionalizedCrystal
_audit_creation_method	'MofGen! by Chris Wilmer'
_symmetry_space_group_name_H-M	'P1'
_symmetry_Int_Tables_number	1
_symmetry_cell_setting	triclinic
loop_
_symmetry_equiv_pos_as_xyz
  x,y,z
_cell_length_a	15.995350
_cell_length_b	15.995350
_cell_length_c	14.472310
_cell_angle_alpha	89.998838
_cell_angle_beta	89.990621
_cell_angle_gamma	96.507625
loop_
_atom_site_label
_atom_site_type_symbol
_atom_site_fract_x
_atom_site_fract_y
_atom_site_fract_z
O1	O	1.110997	-0.107921	-0.076758
O2	O	1.444330	0.225412	0.256575
O3	O	1.777663	0.558746	0.589909
O4	O	0.867221	-0.121248	-0.076776
O5	O	1.200555	0.212085	0.256557
O6	O	1.533888	0.545418	0.589890
O7	O	0.995773	0.007303	-0.076766
O8	O	1.329106	0.340636	0.256567
O9	O	1.662439	0.673970	0.589901
O10	O	0.982445	-0.236472	-0.076769
O11	O	1.315778	0.096861	0.256565
O12	O	1.649112	0.430194	0.589898
O13	O	0.995740	0.007296	0.076916
O14	O	1.329073	0.340629	0.410249
O15	O	1.662406	0.673962	0.743583
O16	O	0.867188	-0.121256	0.076906
O17	O	1.200522	0.212077	0.410239
O18	O	1.533855	0.545411	0.743572
O19	O	1.110963	-0.107928	0.076924
O20	O	1.444297	0.225405	0.410257
O21	O	1.777630	0.558738	0.743591
Cu22	Cu	0.989073	-0.114593	0.090947
Cu23	Cu	1.322406	0.218741	0.424280
Cu24	Cu	1.655739	0.552074	0.757614
Cu25	Cu	0.989112	-0.114584	-0.090800
Cu26	Cu	1.322445	0.218749	0.242534
Cu27	Cu	1.655779	0.552083	0.575867
O28	O	0.982412	-0.236480	0.076913
O29	O	1.315745	0.096854	0.410247
O30	O	1.649079	0.430187	0.743580
C31	C	0.836010	-0.120701	0.000062
C32	C	1.169343	0.212632	0.333395
C33	C	1.502677	0.545966	0.666729
C34	C	0.743060	-0.119049	0.000055
C35	C	1.076393	0.214284	0.333388
C36	C	1.409726	0.547617	0.666722
C37	C	0.405312	-0.113117	0.000074
C38	C	0.738645	0.220216	0.333408
C39	C	1.071979	0.553550	0.666741
C40	C	0.452746	-0.021565	0.000418
C41	C	0.786079	0.311768	0.333751
C42	C	1.119413	0.645101	0.667085
C43	C	0.549436	-0.023217	0.000065
C44	C	0.882770	0.310116	0.333399
C45	C	1.216103	0.643449	0.666732
C46	C	0.572873	-0.116060	0.000065
C47	C	0.906206	0.217274	0.333399
C48	C	1.239539	0.550607	0.666732
C49	C	0.531804	-0.161212	-0.087692
C50	C	0.865138	0.172121	0.245642
C51	C	1.198471	0.505455	0.578975
C52	C	0.435169	-0.158912	-0.087759
C53	C	0.768502	0.174421	0.245575
C54	C	1.101835	0.507755	0.578908
C55	C	0.434792	-0.160812	0.087007
C56	C	0.768125	0.172521	0.420340
C57	C	1.101459	0.505855	0.753673
C58	C	0.531737	-0.160790	0.088160
C59	C	0.865071	0.172543	0.421493
C60	C	1.198404	0.505876	0.754827
C61	C	0.667570	-0.117727	0.000057
C62	C	1.000903	0.215606	0.333390
C63	C	1.334237	0.548939	0.666724
C64	C	0.310614	-0.111452	0.000076
C65	C	0.643948	0.221881	0.333410
C66	C	0.977281	0.555215	0.666743
C67	C	0.995205	0.038494	0.000073
C68	C	1.328538	0.371827	0.333407
C69	C	1.661872	0.705161	0.666740
C70	C	0.993553	0.131444	0.000068
C71	C	1.326887	0.464778	0.333401
C72	C	1.660220	0.798111	0.666735
C73	C	1.142175	-0.108476	0.000083
C74	C	1.475508	0.224858	0.333417
C75	C	1.808841	0.558191	0.666750
C76	C	1.235125	-0.110127	0.000084
C77	C	1.568458	0.223206	0.333418
C78	C	1.901792	0.556539	0.666751
C79	C	0.982980	-0.267671	0.000072
C80	C	1.316313	0.065663	0.333405
C81	C	1.649646	0.398996	0.666739
C82	C	0.984631	-0.360621	0.000071
C83	C	1.317965	-0.027288	0.333405
C84	C	1.651298	0.306046	0.666738
N85	N	0.989051	-0.114598	0.218778
N86	N	1.322385	0.218735	0.552111
N87	N	1.655718	0.552068	0.885445
C88	C	0.987621	0.469192	0.000071
C89	C	1.320954	0.802525	0.333404
C90	C	1.654288	1.135859	0.666737
C91	C	0.896069	0.421758	-0.000281
C92	C	1.229403	0.755091	0.333052
C93	C	1.562736	1.088425	0.666386
C94	C	0.897721	0.325068	0.000066
C95	C	1.231055	0.658401	0.333399
C96	C	1.564388	0.991734	0.666732
C97	C	0.990564	0.301631	0.000069
C98	C	1.323897	0.634965	0.333402
C99	C	1.657230	0.968298	0.666735
C100	C	1.035701	0.342705	0.087831
C101	C	1.369035	0.676038	0.421164
C102	C	1.702368	1.009371	0.754497
C103	C	1.033401	0.439340	0.087904
C104	C	1.366735	0.772674	0.421237
C105	C	1.700068	1.106007	0.754571
C106	C	1.035330	0.439707	-0.086861
C107	C	1.368664	0.773040	0.246472
C108	C	1.701997	1.106374	0.579805
C109	C	1.035309	0.342762	-0.088021
C110	C	1.368642	0.676095	0.245312
C111	C	1.701976	1.009428	0.578646
C112	C	0.992231	0.206934	0.000071
C113	C	1.325565	0.540267	0.333404
C114	C	1.658898	0.873601	0.666737
C115	C	0.985956	0.563890	0.000075
C116	C	1.319289	0.897223	0.333408
C117	C	1.652623	1.230556	0.666741
N118	N	0.989140	-0.114572	-0.218631
N119	N	1.322473	0.218762	0.114703
N120	N	1.655807	0.552095	0.448036
C121	C	0.989111	-0.114581	0.592869
C122	C	1.322444	0.218753	0.926203
C123	C	1.655777	0.552086	1.259536
C124	C	0.920095	-0.183135	0.553698
C125	C	1.253428	0.150198	0.887031
C126	C	1.586761	0.483532	1.220364
C127	C	0.920254	-0.183385	0.446610
C128	C	1.253587	0.149948	0.779943
C129	C	1.586921	0.483281	1.113276
C130	C	0.989081	-0.114590	0.407278
C131	C	1.322414	0.218744	0.740612
C132	C	1.655747	0.552077	1.073945
C133	C	1.076445	-0.133671	0.446122
C134	C	1.409778	0.199662	0.779455
C135	C	1.743112	0.532995	1.112788
C136	C	1.076057	-0.134159	0.553243
C137	C	1.409391	0.199175	0.886577
C138	C	1.742724	0.532508	1.219910
C139	C	0.971542	-0.026741	0.553398
C140	C	1.304875	0.306592	0.886731
C141	C	1.638208	0.639926	1.220065
C142	C	0.969538	-0.027327	0.446270
C143	C	1.302871	0.306007	0.779604
C144	C	1.636205	0.639340	1.112937
C145	C	0.989069	-0.114593	0.302390
C146	C	1.322402	0.218741	0.635723
C147	C	1.655736	0.552074	0.969057
C148	C	0.989128	-0.114579	0.697757
C149	C	1.322461	0.218754	1.031091
C150	C	1.655795	0.552088	1.364424
H151	H	0.560193	-0.129845	-0.153002
H152	H	0.893526	0.203488	0.180331
H153	H	1.226859	0.536822	0.513665
H154	H	0.414242	-0.130885	0.153524
H155	H	0.747576	0.202449	0.486858
H156	H	1.080909	0.535782	0.820191
H157	H	1.129018	-0.086196	0.579154
H158	H	1.462352	0.247138	0.912487
H159	H	1.795685	0.580471	1.245820
F160	F	0.393016	-0.246766	-0.092965
F161	F	0.726349	0.086568	0.240368
F162	F	1.059683	0.419901	0.573702
H163	H	0.861973	0.297200	0.063079
H164	H	1.195306	0.630533	0.396412
H165	H	1.528640	0.963867	0.729745
H166	H	1.129029	-0.085068	0.420643
H167	H	1.462363	0.248266	0.753976
H168	H	1.795696	0.581599	1.087309
F169	F	0.585845	0.023306	-0.082433
F170	F	0.919178	0.356639	0.250901
F171	F	1.252512	0.689972	0.584234
H172	H	0.434210	0.015027	0.063352
H173	H	0.767544	0.348361	0.396685
H174	H	1.100877	0.681694	0.730019
H175	H	0.433166	0.014865	-0.062168
H176	H	0.766499	0.348198	0.271165
H177	H	1.099832	0.681532	0.604499
H178	H	1.092297	-0.197002	0.419285
H179	H	1.425631	0.136332	0.752619
H180	H	1.758964	0.469665	1.085952
F181	F	0.994690	0.305607	0.173193
F182	F	1.328023	0.638940	0.506527
F183	F	1.661356	0.972273	0.839860
F184	F	0.835361	-0.168568	0.412282
F185	F	1.168695	0.164765	0.745615
F186	F	1.502028	0.498099	1.078949
F187	F	0.848312	0.447646	0.081291
F188	F	1.181645	0.780979	0.414624
F189	F	1.514978	1.114313	0.747957
H190	H	1.016541	0.026079	0.419500
H191	H	1.349874	0.359412	0.752834
H192	H	1.683208	0.692745	1.086167
H193	H	0.577852	0.012275	0.062973
H194	H	0.911185	0.345608	0.396307
H195	H	1.244518	0.678942	0.729640
F196	F	0.411254	-0.115865	-0.173502
F197	F	0.744588	0.217468	0.159831
F198	F	1.077921	0.550801	0.493165
F199	F	0.890067	-0.002771	0.588744
F200	F	1.223400	0.330562	0.922078
F201	F	1.556733	0.663896	1.255411
H202	H	0.931473	-0.248569	0.420976
H203	H	1.264807	0.084764	0.754309
H204	H	1.598140	0.418097	1.087642
H205	H	0.545930	-0.229421	-0.090955
H206	H	0.879263	0.103913	0.242378
H207	H	1.212597	0.437246	0.575712
F208	F	1.096293	-0.217890	0.585892
F209	F	1.429626	0.115443	0.919225
F210	F	1.762960	0.448776	1.252559
H211	H	1.005412	0.460250	-0.153379
H212	H	1.338745	0.793583	0.179954
H213	H	1.672079	1.126917	0.513288
F214	F	0.885537	-0.008397	0.413090
F215	F	1.218870	0.324937	0.746423
F216	F	1.552203	0.658270	1.079756
F217	F	1.037325	0.039941	0.586506
F218	F	1.370659	0.373275	0.919840
F219	F	1.703992	0.706608	1.253173
H220	H	0.559040	-0.127830	0.153082
H221	H	0.892373	0.205504	0.486415
H222	H	1.225707	0.538837	0.819749
H223	H	0.547101	-0.228494	0.093461
H224	H	0.880435	0.104839	0.426794
H225	H	1.213768	0.438173	0.760127
H226	H	0.403031	-0.228313	0.087600
H227	H	0.736364	0.105021	0.420933
H228	H	1.069697	0.438354	0.754267
F229	F	0.992506	0.306761	-0.172894
F230	F	1.325839	0.640094	0.160439
F231	F	1.659172	0.973428	0.493773
H232	H	1.103014	0.327400	-0.093317
H233	H	1.436348	0.660733	0.240016
H234	H	1.769681	0.994067	0.573349
F235	F	1.123558	0.481221	-0.087631
F236	F	1.456891	0.814554	0.245702
F237	F	1.790225	1.147888	0.579035
H238	H	0.862239	0.296649	-0.062846
H239	H	1.195572	0.629982	0.270488
H240	H	1.528905	0.963315	0.603821
H241	H	0.859490	0.440293	-0.063217
H242	H	1.192824	0.773626	0.270117
H243	H	1.526157	1.106959	0.603450
F244	F	0.834934	-0.168511	0.587380
F245	F	1.168267	0.164823	0.920713
F246	F	1.501601	0.498156	1.254046
H247	H	1.100617	0.471588	0.091888
H248	H	1.433950	0.804922	0.425221
H249	H	1.767283	1.138255	0.758555
F250	F	0.990340	0.463260	0.173646
F251	F	1.323674	0.796593	0.506980
F252	F	1.657007	1.129926	0.840313
F253	F	1.124855	0.324243	0.092103
F254	F	1.458188	0.657576	0.425436
F255	F	1.791522	0.990909	0.758770
F256	F	0.934564	-0.267860	0.588855
F257	F	1.267897	0.065474	0.922188
F258	F	1.601230	0.398807	1.255521
