data_functionalizedCrystal
_audit_creation_method	'MofGen! by Chris Wilmer'
_symmetry_space_group_name_H-M	'P1'
_symmetry_Int_Tables_number	1
_symmetry_cell_setting	triclinic
loop_
_symmetry_equiv_pos_as_xyz
  x,y,z
_cell_length_a	14.519709
_cell_length_b	17.038272
_cell_length_c	13.596369
_cell_angle_alpha	89.993837
_cell_angle_beta	90.000291
_cell_angle_gamma	87.395851
loop_
_atom_site_label
_atom_site_type_symbol
_atom_site_fract_x
_atom_site_fract_y
_atom_site_fract_z
O1	O	1.231711	0.102502	-0.081664
O2	O	1.731711	0.602502	0.418336
O3	O	0.964158	0.114573	-0.081694
O4	O	1.464158	0.614573	0.418306
O5	O	1.096344	-0.005280	-0.081671
O6	O	1.596344	0.494720	0.418329
O7	O	1.099525	0.222356	-0.081686
O8	O	1.599525	0.722356	0.418314
O9	O	1.096330	-0.005286	0.081912
O10	O	1.596330	0.494714	0.581912
O11	O	0.964143	0.114567	0.081889
O12	O	1.464143	0.614567	0.581889
O13	O	1.231696	0.102496	0.081919
O14	O	1.731696	0.602496	0.581919
Zn15	Zn	1.097918	0.108530	0.107877
Zn16	Zn	1.597918	0.608530	0.607877
Zn17	Zn	1.097937	0.108539	-0.107651
Zn18	Zn	1.597937	0.608539	0.392349
O19	O	1.099510	0.222349	0.081897
O20	O	1.599510	0.722349	0.581897
C21	C	0.929748	0.114008	0.000094
C22	C	1.429748	0.614008	0.500094
C23	C	0.827237	0.112322	0.000083
C24	C	1.327237	0.612322	0.500083
C25	C	0.451867	0.106116	0.000128
C26	C	0.951867	0.606116	0.500128
C27	C	0.556307	0.107839	0.000115
C28	C	1.056307	0.607839	0.500115
C29	C	0.639549	0.109219	0.000104
C30	C	1.139549	0.609219	0.500104
C31	C	0.743995	0.110942	0.000093
C32	C	1.243995	0.610942	0.500093
C33	C	1.093444	-0.034416	0.000120
C34	C	1.593444	0.465584	0.500120
C35	C	1.084814	-0.121223	0.000119
C36	C	1.584814	0.378777	0.500119
C37	C	1.164047	-0.171209	0.000129
C38	C	1.664047	0.328791	0.500129
C39	C	1.155933	-0.252773	0.000118
C40	C	1.655933	0.247227	0.500118
C41	C	1.068585	-0.284349	0.000105
C42	C	1.568585	0.215651	0.500105
C43	C	0.989347	-0.234357	0.000092
C44	C	1.489347	0.265643	0.500092
C45	C	0.997462	-0.152795	0.000096
C46	C	1.497462	0.347205	0.500096
C47	C	1.039916	-0.530153	0.000089
C48	C	1.539916	-0.030153	0.500089
C49	C	1.031807	-0.611722	0.000088
C50	C	1.531807	-0.111722	0.500088
C51	C	1.198394	-0.630132	0.000112
C52	C	1.698394	-0.130132	0.500112
C53	C	1.206502	-0.548568	0.000122
C54	C	1.706502	-0.048568	0.500122
C55	C	1.127263	-0.498583	0.000104
C56	C	1.627263	0.001417	0.500104
C57	C	1.060289	-0.367720	0.000098
C58	C	1.560289	0.132280	0.500098
C59	C	1.135560	-0.415213	0.000104
C60	C	1.635560	0.084787	0.500104
C61	C	1.266107	0.103062	0.000129
C62	C	1.766107	0.603062	0.500129
C63	C	1.368617	0.104748	0.000134
C64	C	1.868617	0.604748	0.500134
C65	C	1.102410	0.251486	0.000103
C66	C	1.602410	0.751486	0.500103
C67	C	1.111040	0.338292	0.000098
C68	C	1.611040	0.838292	0.500098
N69	N	1.097911	0.108524	0.254968
N70	N	1.597911	0.608524	0.754968
N71	N	1.097950	0.108539	-0.254743
N72	N	1.597950	0.608539	0.245257
C73	C	1.097936	0.108540	0.656259
C74	C	1.597936	0.608540	1.156259
C75	C	1.097926	0.108538	0.544608
C76	C	1.597926	0.608538	1.044608
C77	C	1.097924	0.108533	0.455617
C78	C	1.597924	0.608533	0.955617
C79	C	1.097913	0.108530	0.343959
C80	C	1.597913	0.608530	0.843959
H81	H	1.220453	-0.293468	0.000129
H82	H	1.720453	0.206532	0.500129
C83	C	0.896436	-0.341336	0.000078
C84	C	1.396436	0.158664	0.500078
C85	C	0.964276	-0.402431	0.000084
C86	C	1.464276	0.097569	0.500084
H87	H	0.837163	-0.362769	0.000060
H88	H	1.337163	0.137231	0.500060
H89	H	0.903054	-0.309917	0.057124
H90	H	1.403054	0.190083	0.557124
H91	H	0.903075	-0.309896	-0.056966
H92	H	1.403075	0.190104	0.443034
H93	H	0.957641	-0.433868	0.057133
H94	H	1.457641	0.066132	0.557133
H95	H	0.957655	-0.433863	-0.056968
H96	H	1.457655	0.066137	0.443032
H97	H	1.235175	-0.145506	0.000145
H98	H	1.735175	0.354494	0.500145
C99	C	1.370351	-0.574961	0.000144
C100	C	1.870351	-0.074961	0.500144
C101	C	1.302517	-0.513862	0.000137
C102	C	1.802517	-0.013862	0.500137
H103	H	1.429627	-0.553533	0.000153
H104	H	1.929627	-0.053533	0.500153
H105	H	1.363713	-0.606396	0.057181
H106	H	1.863713	-0.106396	0.557181
H107	H	1.363726	-0.606384	-0.056909
H108	H	1.863726	-0.106384	0.443091
H109	H	1.309138	-0.482442	0.057195
H110	H	1.809138	0.017558	0.557195
H111	H	1.309159	-0.482413	-0.056906
H112	H	1.809159	0.017587	0.443094
H113	H	1.262906	-0.670838	0.000125
H114	H	1.762906	-0.170838	0.500125
C115	C	0.867949	-0.585335	0.000034
C116	C	1.367949	-0.085335	0.500034
C117	C	0.935787	-0.646432	0.000058
C118	C	1.435787	-0.146432	0.500058
H119	H	0.808675	-0.606766	0.000009
H120	H	1.308675	-0.106766	0.500009
H121	H	0.874560	-0.553912	0.057078
H122	H	1.374560	-0.053912	0.557078
H123	H	0.874598	-0.553900	-0.057012
H124	H	1.374598	-0.053900	0.442988
H125	H	0.929142	-0.677864	0.057109
H126	H	1.429142	-0.177864	0.557109
H127	H	0.929173	-0.677868	-0.056992
H128	H	1.429173	-0.177868	0.443008
H129	H	0.975394	-0.489465	0.000074
H130	H	1.475394	0.010535	0.500074
C131	C	0.831984	-0.142784	0.000079
C132	C	1.331984	0.357216	0.500079
C133	C	0.910367	-0.097847	0.000087
C134	C	1.410367	0.402153	0.500087
H135	H	0.778215	-0.108860	0.000076
H136	H	1.278215	0.391140	0.500076
H137	H	0.832291	-0.174973	-0.056962
H138	H	1.332291	0.325027	0.443038
H139	H	0.832283	-0.174986	0.057129
H140	H	1.332283	0.325014	0.557129
H141	H	0.910072	-0.065649	-0.056966
H142	H	1.410072	0.434351	0.443034
H143	H	0.910060	-0.065644	0.057134
H144	H	1.410060	0.434356	0.557134
C145	C	1.241327	-0.334159	-0.083968
C146	C	1.741327	0.165841	0.416032
C147	C	1.231570	-0.380504	0.000119
C148	C	1.731570	0.119496	0.500119
H149	H	1.300598	-0.312723	-0.083951
H150	H	1.800598	0.187277	0.416049
H151	H	1.234719	-0.365592	-0.141004
H152	H	1.734719	0.134408	0.358996
H153	H	1.195288	-0.292723	-0.083967
H154	H	1.695288	0.207277	0.416033
H155	H	1.277605	-0.421943	0.000114
H156	H	1.777605	0.078057	0.500114
H157	H	1.238187	-0.349069	0.057170
H158	H	1.738187	0.150931	0.557170
H159	H	0.918226	-0.260072	0.000075
H160	H	1.418226	0.239928	0.500075
