data_functionalizedCrystal
_audit_creation_method	'MofGen! by Chris Wilmer'
_symmetry_space_group_name_H-M	'P1'
_symmetry_Int_Tables_number	1
_symmetry_cell_setting	triclinic
loop_
_symmetry_equiv_pos_as_xyz
  x,y,z
_cell_length_a	23.532355
_cell_length_b	23.532409
_cell_length_c	22.610064
_cell_angle_alpha	90.007112
_cell_angle_beta	89.997644
_cell_angle_gamma	82.838529
loop_
_atom_site_label
_atom_site_type_symbol
_atom_site_fract_x
_atom_site_fract_y
_atom_site_fract_z
O1	O	0.755283	0.068986	-0.049100
O2	O	0.589416	0.079020	-0.049119
O3	O	0.677351	-0.008929	-0.049110
O4	O	0.667348	0.156936	-0.049109
O5	O	0.677335	-0.008916	0.049259
O6	O	0.589400	0.079033	0.049251
O7	O	0.755268	0.068999	0.049269
Zn8	Zn	0.672331	0.074018	0.064878
Zn9	Zn	0.672352	0.074001	-0.064728
O10	O	0.667333	0.156949	0.049260
C11	C	0.568191	0.078776	0.000064
C12	C	0.504973	0.078022	0.000056
C13	C	0.112950	0.073291	0.053702
C14	C	0.053551	0.072573	0.053704
O15	O	0.022825	0.072189	0.099307
N16	N	0.023851	0.072211	0.000084
C17	C	0.053554	0.072560	-0.053543
O18	O	0.022838	0.072185	-0.099152
C19	C	0.112953	0.073273	-0.053545
C20	C	0.142649	0.073641	0.000080
C21	C	0.142647	0.073659	0.107322
C22	C	0.202042	0.074377	0.107320
C23	C	0.231741	0.074728	0.053697
C24	C	0.202044	0.074360	0.000077
C25	C	0.142656	0.073618	-0.107171
C26	C	0.202059	0.074331	-0.107168
C27	C	0.231755	0.074699	-0.053543
C28	C	0.291139	0.075429	-0.053548
N29	N	0.320839	0.075792	0.000073
C30	C	0.291140	0.075441	0.053696
C31	C	-0.071187	0.071060	-0.053535
C32	C	-0.130586	0.070351	-0.053534
C33	C	-0.130585	0.070364	0.053713
C34	C	-0.071186	0.071077	0.053712
C35	C	-0.041487	0.071423	0.000085
C36	C	0.415874	0.076950	0.053686
C37	C	0.475274	0.077671	0.053679
C38	C	0.475268	0.077655	-0.053568
C39	C	0.415873	0.076938	-0.053562
C40	C	0.386177	0.076583	0.000071
O41	O	0.321902	0.075811	-0.099127
O42	O	0.321864	0.075809	0.099296
C43	C	0.677088	-0.030139	0.000073
C44	C	0.676322	-0.093356	0.000069
C45	C	0.673071	-0.366607	-0.053555
C46	C	0.673783	-0.307207	-0.053555
O47	O	0.674178	-0.276488	-0.099156
N48	N	0.674126	-0.277498	0.000067
C49	C	0.673764	-0.307193	0.053692
O50	O	0.674123	-0.276469	0.099302
C51	C	0.673057	-0.366592	0.053692
C52	C	0.672707	-0.396297	0.000066
C53	C	0.672722	-0.396312	-0.107176
C54	C	0.672009	-0.455708	-0.107176
C55	C	0.671646	-0.485399	-0.053554
C56	C	0.671994	-0.455693	0.000067
C57	C	0.672699	-0.396287	0.107317
C58	C	0.671992	-0.455690	0.107312
C59	C	0.671642	-0.485395	0.053686
C60	C	0.670918	-0.544780	0.053688
N61	N	0.670574	-0.574489	0.000066
C62	C	0.670938	-0.544798	-0.053555
C63	C	0.675251	-0.182450	0.053690
C64	C	0.675955	-0.123051	0.053691
C65	C	0.675974	-0.123069	-0.053557
C66	C	0.675266	-0.182469	-0.053558
C67	C	0.674907	-0.212159	0.000068
C68	C	0.669441	-0.669534	-0.053550
C69	C	0.668726	-0.728934	-0.053545
C70	C	0.668709	-0.728911	0.053702
C71	C	0.669421	-0.669515	0.053697
C72	C	0.669789	-0.639828	0.000066
O73	O	0.670525	-0.575536	0.099266
O74	O	0.670587	-0.575531	-0.099157
C75	C	0.776492	0.069243	0.000085
C76	C	0.839711	0.069998	0.000089
C77	C	0.667595	0.178158	0.000075
C78	C	0.668362	0.241375	0.000076
N79	N	0.672322	0.074029	0.153330
N80	N	0.672366	0.073986	-0.153180
C81	C	0.711291	0.035063	0.561976
C82	C	0.711294	0.035059	0.623896
O83	O	0.744403	0.001937	0.655918
N84	N	0.672352	0.073989	0.654867
C85	C	0.633400	0.112923	0.623916
O86	O	0.600276	0.146035	0.655946
C87	C	0.633394	0.112924	0.561997
C88	C	0.672343	0.073995	0.531029
C89	C	0.750237	-0.003863	0.531007
C90	C	0.750234	-0.003858	0.469091
C91	C	0.711286	0.035073	0.438144
C92	C	0.672341	0.074000	0.469113
C93	C	0.594440	0.151854	0.531047
C94	C	0.594438	0.151851	0.469124
C95	C	0.633387	0.112922	0.438156
C96	C	0.633391	0.112936	0.376251
N97	N	0.672334	0.074006	0.345279
C98	C	0.711281	0.035074	0.376226
C99	C	0.633413	0.112917	0.753950
C100	C	0.633420	0.112919	0.815868
C101	C	0.711314	0.035055	0.815843
C102	C	0.711309	0.035056	0.753924
C103	C	0.672355	0.073987	0.722978
C104	C	0.711274	0.035088	0.246198
C105	C	0.711269	0.035098	0.184277
C106	C	0.633374	0.112960	0.184308
C107	C	0.633380	0.112953	0.246223
C108	C	0.672332	0.074012	0.277167
O109	O	0.600297	0.146040	0.344189
O110	O	0.744395	0.001962	0.344188
H111	H	0.118488	0.073317	-0.150837
H112	H	0.562724	0.183553	0.556253
Cl113	Cl	0.239366	0.074836	0.174737
Cl114	Cl	-0.167912	0.069899	-0.120951
Cl115	Cl	0.674793	-0.219768	0.121111
Cl116	Cl	0.671577	-0.493044	-0.174595
Cl117	Cl	0.669860	-0.632170	0.121113
Cl118	Cl	0.584461	0.161868	0.854793
H119	H	0.669741	-0.645370	-0.097222
Cl120	Cl	0.760276	-0.013889	0.854760
H121	H	0.668411	-0.753096	0.097359
H122	H	0.601669	0.144658	0.271438
H123	H	0.601693	0.144624	0.728757
H124	H	-0.154776	0.070078	0.097376
H125	H	0.226236	0.074613	-0.150838
H126	H	0.562716	0.183553	0.443931
H127	H	0.672989	-0.372112	0.150984
H128	H	0.118472	0.073372	0.150991
H129	H	0.668439	-0.753117	-0.097216
Cl130	Cl	0.584413	0.161901	0.145393
H131	H	0.781953	-0.035569	0.556198
Cl132	Cl	0.671542	-0.493012	0.174731
Cl133	Cl	0.760244	-0.013866	0.285089
H134	H	-0.047011	0.071378	0.097377
H135	H	0.391692	0.076647	-0.097227
H136	H	-0.047011	0.071347	-0.097207
H137	H	0.743024	0.003356	0.728713
H138	H	0.499459	0.077943	-0.097226
H139	H	0.781948	-0.035559	0.443880
H140	H	0.673020	-0.372145	-0.150844
H141	H	0.499450	0.077973	0.097348
Cl142	Cl	0.674829	-0.219806	-0.120975
Cl143	Cl	0.676420	-0.085731	-0.120967
H144	H	0.742988	0.003397	0.159064
Cl145	Cl	0.378552	0.076505	0.121110
Cl146	Cl	0.676380	-0.085713	0.121109
