data_functionalizedCrystal
_audit_creation_method	'MofGen! by Chris Wilmer'
_symmetry_space_group_name_H-M	'P1'
_symmetry_Int_Tables_number	1
_symmetry_cell_setting	triclinic
loop_
_symmetry_equiv_pos_as_xyz
  x,y,z
_cell_length_a	13.339070
_cell_length_b	14.044220
_cell_length_c	11.804365
_cell_angle_alpha	102.927057
_cell_angle_beta	74.875130
_cell_angle_gamma	104.409086
loop_
_atom_site_label
_atom_site_type_symbol
_atom_site_fract_x
_atom_site_fract_y
_atom_site_fract_z
O1	O	1.405383	0.472644	-0.099085
O2	O	1.105089	0.408756	-0.099076
O3	O	1.250726	0.301532	-0.099069
O4	O	1.259745	0.579868	-0.099093
O5	O	1.212382	0.329720	0.098985
O6	O	1.066744	0.436945	0.098978
O7	O	1.367038	0.500832	0.098969
Cu8	Cu	1.213390	0.471462	0.117057
Cu9	Cu	1.258737	0.438126	-0.117165
O10	O	1.221401	0.608057	0.098961
C11	C	1.047253	0.412058	-0.000048
C12	C	0.932048	0.379890	-0.000044
C13	C	0.589834	0.630011	-0.000084
C14	C	0.698075	0.660237	-0.000092
C15	C	0.756574	0.590153	-0.000079
C16	C	0.706820	0.489838	-0.000060
C17	C	0.598569	0.459607	-0.000062
C18	C	0.765309	0.419749	-0.000057
C19	C	0.715555	0.319434	-0.000038
C20	C	0.607315	0.289209	-0.000040
C21	C	0.548817	0.359293	-0.000052
C22	C	0.873560	0.449980	-0.000055
C23	C	0.882295	0.279576	-0.000034
C24	C	0.774054	0.249350	-0.000026
C25	C	1.227608	0.279274	-0.000041
C26	C	1.215837	0.170953	-0.000039
C27	C	1.194321	-0.027371	-0.000056
C28	C	1.277803	-0.063049	-0.000062
C29	C	1.265832	-0.173403	-0.000071
C30	C	1.206291	0.082993	-0.000047
C31	C	1.424874	0.497530	-0.000062
C32	C	1.540081	0.529697	-0.000074
C33	C	1.244520	0.630314	-0.000069
C34	C	1.256292	0.738634	-0.000078
N35	N	1.181503	0.494911	0.281796
N36	N	1.290631	0.414672	-0.281904
C37	C	1.367201	0.358346	0.655754
C38	C	1.391322	0.340602	0.531094
C39	C	1.338869	0.379178	0.468763
C40	C	1.262292	0.435500	0.531106
C41	C	1.238175	0.453251	0.655778
C42	C	1.209842	0.474083	0.468787
C43	C	1.133265	0.530405	0.531129
C44	C	1.109151	0.548153	0.655790
C45	C	1.161604	0.509578	0.718120
C46	C	1.233960	0.456332	0.344115
C47	C	1.104933	0.551237	0.344138
C48	C	1.080812	0.568980	0.468799
H49	H	0.844709	0.614769	-0.000088
C50	C	1.135053	0.529068	0.855255
N51	N	1.115048	0.543739	0.958547
C52	C	0.552589	0.178859	-0.000018
N53	N	0.511369	0.095744	0.000005
H54	H	1.409908	0.326949	0.706512
H55	H	1.358282	-0.010728	-0.000144
C56	C	1.365398	0.359649	0.331633
N57	N	1.385377	0.344932	0.228341
C58	C	0.928274	0.560325	-0.000065
N59	N	0.969483	0.643445	-0.000067
C60	C	0.752794	0.770582	-0.000096
N61	N	0.794007	0.853701	-0.000093
H62	H	1.113865	-0.079700	-0.000056
C63	C	0.996576	0.630932	0.537391
N64	N	0.933128	0.677592	0.589057
C65	C	1.475549	0.278644	0.462527
N66	N	1.538990	0.231971	0.410881
C67	C	0.525480	0.707091	-0.000100
N68	N	0.477006	0.765153	-0.000111
C69	C	1.024919	0.610114	0.724363
N70	N	0.961473	0.656781	0.776010
C71	C	1.047228	0.593671	0.275580
N72	N	1.003770	0.625630	0.223934
C73	C	0.719311	0.139003	-0.000013
N74	N	0.678079	0.055890	-0.000005
C75	C	0.429743	0.326049	-0.000043
N76	N	0.340055	0.301012	-0.000037
C77	C	0.946638	0.202478	-0.000016
N78	N	0.995108	0.144414	-0.000004
H79	H	1.296309	0.410475	0.293367
