data_functionalizedCrystal
_audit_creation_method	'MofGen! by Chris Wilmer'
_symmetry_space_group_name_H-M	'P1'
_symmetry_Int_Tables_number	1
_symmetry_cell_setting	triclinic
loop_
_symmetry_equiv_pos_as_xyz
  x,y,z
_cell_length_a	10.967926
_cell_length_b	14.519731
_cell_length_c	10.065875
_cell_angle_alpha	98.805316
_cell_angle_beta	93.120479
_cell_angle_gamma	84.211611
loop_
_atom_site_label
_atom_site_type_symbol
_atom_site_fract_x
_atom_site_fract_y
_atom_site_fract_z
O1	O	1.613252	0.160830	0.265929
O2	O	1.863252	0.410830	0.515929
O3	O	2.113252	0.660830	0.765929
O4	O	2.363252	0.910830	1.015929
O5	O	1.263214	0.163463	0.183600
O6	O	1.513214	0.413463	0.433600
O7	O	1.763214	0.663463	0.683600
O8	O	2.013214	0.913463	0.933600
O9	O	1.447499	0.028218	0.226956
O10	O	1.697499	0.278218	0.476956
O11	O	1.947499	0.528218	0.726956
O12	O	2.197499	0.778218	0.976956
O13	O	1.428968	0.296075	0.222573
O14	O	1.678968	0.546075	0.472573
O15	O	1.928968	0.796075	0.722573
O16	O	2.178968	1.046075	0.972573
O17	O	1.412359	0.054116	0.445678
O18	O	1.662359	0.304116	0.695678
O19	O	1.912359	0.554116	0.945678
O20	O	2.162359	0.804116	1.195678
O21	O	1.228074	0.189361	0.402321
O22	O	1.478074	0.439361	0.652321
O23	O	1.728074	0.689361	0.902321
O24	O	1.978074	0.939361	1.152321
O25	O	1.578112	0.186728	0.484651
O26	O	1.828112	0.436728	0.734651
O27	O	2.078112	0.686728	0.984651
O28	O	2.328112	0.936728	1.234651
Zn29	Zn	1.397514	0.192156	0.478213
Zn30	Zn	1.647514	0.442156	0.728213
Zn31	Zn	1.897514	0.692156	0.978213
Zn32	Zn	2.147514	0.942156	1.228213
Zn33	Zn	1.443813	0.158035	0.190038
Zn34	Zn	1.693813	0.408035	0.440038
Zn35	Zn	1.943813	0.658035	0.690038
Zn36	Zn	2.193813	0.908035	0.940038
O37	O	1.393828	0.321973	0.441294
O38	O	1.643828	0.571973	0.691294
O39	O	1.893828	0.821973	0.941294
O40	O	2.143828	1.071973	1.191294
C41	C	1.200846	0.174264	0.282424
C42	C	1.450846	0.424264	0.532424
C43	C	1.700846	0.674264	0.782424
C44	C	1.950846	0.924264	1.032424
C45	C	1.067361	0.167851	0.251028
C46	C	1.317361	0.417851	0.501028
C47	C	1.567361	0.667851	0.751028
C48	C	1.817361	0.917851	1.001028
C49	C	0.989646	0.178408	0.350335
C50	C	1.239646	0.428408	0.600335
C51	C	1.489646	0.678408	0.850335
C52	C	1.739646	0.928408	1.100335
C53	C	0.851682	0.171780	0.317889
C54	C	1.101682	0.421780	0.567889
C55	C	1.351682	0.671780	0.817889
C56	C	1.601682	0.921780	1.067889
C57	C	1.429060	0.006779	0.336113
C58	C	1.679060	0.256779	0.586113
C59	C	1.929060	0.506779	0.836113
C60	C	2.179060	0.756779	1.086113
C61	C	1.426458	-0.095688	0.335502
C62	C	1.676458	0.154312	0.585502
C63	C	1.926458	0.404312	0.835502
C64	C	2.176458	0.654312	1.085502
C65	C	1.424344	-0.178902	0.335001
C66	C	1.674344	0.071098	0.585001
C67	C	1.924344	0.321098	0.835001
C68	C	2.174344	0.571098	1.085001
C69	C	1.421703	-0.283300	0.334370
C70	C	1.671703	-0.033300	0.584370
C71	C	1.921703	0.216700	0.834370
C72	C	2.171703	0.466700	1.084370
C73	C	1.419607	-0.366509	0.333868
C74	C	1.669607	-0.116509	0.583868
C75	C	1.919607	0.133491	0.833868
C76	C	2.169607	0.383491	1.083868
C77	C	1.416966	-0.470913	0.333239
C78	C	1.666966	-0.220913	0.583239
C79	C	1.916966	0.029087	0.833239
C80	C	2.166966	0.279087	1.083239
C81	C	1.640481	0.175927	0.385824
C82	C	1.890481	0.425927	0.635824
C83	C	2.140481	0.675927	0.885824
C84	C	2.390481	0.925927	1.135824
C85	C	1.773967	0.182339	0.417210
C86	C	2.023967	0.432339	0.667210
C87	C	2.273967	0.682339	0.917210
C88	C	2.523967	0.932339	1.167210
C89	C	1.412267	0.343412	0.332135
C90	C	1.662267	0.593412	0.582135
C91	C	1.912267	0.843412	0.832135
C92	C	2.162267	1.093412	1.082135
C93	C	1.414871	0.445877	0.332737
C94	C	1.664871	0.695877	0.582737
C95	C	1.914871	0.945877	0.832737
C96	C	2.164871	1.195877	1.082737
N97	N	1.365925	0.215443	0.674886
N98	N	1.615925	0.465443	0.924886
N99	N	1.865925	0.715443	1.174886
N100	N	2.115925	0.965443	1.424886
N101	N	1.475411	0.134741	-0.006634
N102	N	1.725411	0.384741	0.243366
N103	N	1.975411	0.634741	0.493366
N104	N	2.225411	0.884741	0.743366
C105	C	1.432814	0.166131	0.758402
C106	C	1.682814	0.416131	1.008402
C107	C	1.932814	0.666131	1.258402
C108	C	2.182814	0.916131	1.508402
C109	C	1.408512	0.184060	0.909852
C110	C	1.658512	0.434060	1.159852
C111	C	1.908512	0.684060	1.409852
C112	C	2.158512	0.934060	1.659852
H113	H	1.031758	0.153904	0.141988
H114	H	1.281758	0.403904	0.391988
H115	H	1.531758	0.653904	0.641988
H116	H	1.781758	0.903904	0.891988
H117	H	0.809563	0.196281	0.526260
H118	H	1.059563	0.446281	0.776260
H119	H	1.309563	0.696281	1.026260
H120	H	1.559563	0.946281	1.276260
H121	H	1.508069	0.110635	0.717783
H122	H	1.758069	0.360635	0.967783
H123	H	2.008069	0.610635	1.217783
H124	H	2.258069	0.860635	1.467783
H125	H	1.290662	0.270931	0.715505
H126	H	1.540662	0.520931	0.965505
H127	H	1.790662	0.770931	1.215505
H128	H	2.040662	1.020931	1.465505
H129	H	1.025250	0.192347	0.459377
H130	H	1.275250	0.442347	0.709377
H131	H	1.525250	0.692347	0.959377
H132	H	1.775250	0.942347	1.209377
Cl133	Cl	1.292304	0.269737	0.972548
Cl134	Cl	1.542304	0.519737	1.222548
Cl135	Cl	1.792304	0.769737	1.472548
Cl136	Cl	2.042304	1.019737	1.722548
H137	H	1.550670	0.079242	0.952752
H138	H	1.800670	0.329242	1.202752
H139	H	2.050670	0.579242	1.452752
H140	H	2.300670	0.829242	1.702752
H141	H	0.816085	0.157832	0.208841
H142	H	1.066085	0.407832	0.458841
H143	H	1.316085	0.657832	0.708841
H144	H	1.566085	0.907832	0.958841
