data_functionalizedCrystal
_audit_creation_method	'MofGen! by Chris Wilmer'
_symmetry_space_group_name_H-M	'P1'
_symmetry_Int_Tables_number	1
_symmetry_cell_setting	triclinic
loop_
_symmetry_equiv_pos_as_xyz
  x,y,z
_cell_length_a	19.188930
_cell_length_b	23.532407
_cell_length_c	17.666332
_cell_angle_alpha	89.988854
_cell_angle_beta	89.976766
_cell_angle_gamma	82.996728
loop_
_atom_site_label
_atom_site_type_symbol
_atom_site_fract_x
_atom_site_fract_y
_atom_site_fract_z
O1	O	0.925923	0.071102	-0.063199
O2	O	0.722581	0.080673	-0.063148
O3	O	0.830384	-0.007031	-0.063161
O4	O	0.818120	0.158806	-0.063186
O5	O	0.830365	-0.007036	0.062735
O6	O	0.722562	0.080669	0.062748
O7	O	0.925904	0.071097	0.062697
Cu8	Cu	0.824231	0.075883	0.074218
Cu9	Cu	0.824253	0.075888	-0.074669
O10	O	0.818101	0.158802	0.062711
C11	C	0.696561	0.080361	-0.000193
C12	C	0.619060	0.079431	-0.000173
C13	C	0.573972	0.130893	-0.000193
C14	C	0.501151	0.130019	-0.000201
C15	C	0.473421	0.077680	-0.000205
C16	C	0.518519	0.026211	-0.000181
C17	C	0.591339	0.027086	-0.000165
N18	N	0.365575	0.037674	-0.043078
N19	N	0.296399	0.036846	-0.043094
C20	C	0.254021	0.075038	-0.000251
N21	N	0.283431	0.114099	0.042600
N22	N	0.352613	0.114929	0.042614
C23	C	0.394462	0.076724	-0.000222
C24	C	0.129971	0.125556	-0.000278
C25	C	0.057149	0.124680	-0.000282
C26	C	0.074520	0.020870	-0.000269
C27	C	0.147340	0.021748	-0.000258
C28	C	0.175061	0.074092	-0.000266
C29	C	0.830062	-0.028250	-0.000211
C30	C	0.829123	-0.091469	-0.000205
C31	C	0.887029	-0.490449	-0.000261
C32	C	0.886157	-0.549851	-0.000267
O33	O	0.939837	-0.586482	-0.000308
N34	N	0.822068	-0.572613	-0.000250
C35	C	0.758848	-0.535970	-0.000236
O36	O	0.704255	-0.560786	-0.000223
C37	C	0.759721	-0.476569	-0.000235
C38	C	0.823814	-0.453810	-0.000244
C39	C	0.951117	-0.467690	-0.000271
C40	C	0.951989	-0.408292	-0.000264
C41	C	0.888773	-0.371653	-0.000247
C42	C	0.824685	-0.394412	-0.000237
C43	C	0.696501	-0.439927	-0.000226
C44	C	0.697379	-0.380523	-0.000227
C45	C	0.761472	-0.357764	-0.000236
C46	C	0.762342	-0.298376	-0.000214
N47	N	0.826430	-0.275614	-0.000230
C48	C	0.889646	-0.312252	-0.000247
C49	C	0.757019	-0.660717	-0.000237
C50	C	0.756146	-0.720116	-0.000232
C51	C	0.883455	-0.733993	-0.000264
C52	C	0.884328	-0.674592	-0.000264
C53	C	0.821108	-0.637954	-0.000254
C54	C	0.891472	-0.187512	-0.000232
C55	C	0.892339	-0.128108	-0.000222
C56	C	0.765029	-0.114236	-0.000193
C57	C	0.764163	-0.173634	-0.000199
C58	C	0.827390	-0.210272	-0.000221
O59	O	0.708690	-0.261710	-0.000176
O60	O	0.944230	-0.287428	-0.000270
C61	C	0.951923	0.071410	-0.000259
C62	C	1.029425	0.072340	-0.000284
C63	C	0.818423	0.180021	-0.000241
C64	C	0.819362	0.243240	-0.000252
N65	N	0.824221	0.075878	0.178938
N66	N	0.824270	0.075888	-0.179389
C67	C	0.871971	0.037062	0.218542
C68	C	0.871975	0.037059	0.297789
C69	C	0.824236	0.075883	0.337430
C70	C	0.776476	0.114702	0.297816
C71	C	0.776469	0.114700	0.218570
N72	N	0.814998	0.126298	0.461842
N73	N	0.815010	0.126298	0.537123
C74	C	0.824254	0.075891	0.576194
N75	N	0.833500	0.025481	0.537141
N76	N	0.833493	0.025482	0.461853
C77	C	0.824238	0.075889	0.423359
C78	C	0.872011	0.037068	0.701727
C79	C	0.872010	0.037064	0.780976
C80	C	0.776515	0.114713	0.781002
C81	C	0.776512	0.114711	0.701754
C82	C	0.824264	0.075889	0.662122
H83	H	0.464433	0.171927	-0.000215
C84	C	0.160474	0.183131	-0.000283
C85	C	0.208121	0.198004	0.065093
C86	C	0.238623	0.255579	0.065086
C87	C	0.221479	0.298279	-0.000297
C88	C	0.173831	0.283406	-0.065678
C89	C	0.143328	0.225832	-0.065671
H90	H	0.220814	0.166394	0.113498
H91	H	0.273896	0.266588	0.113486
H92	H	0.244059	0.340899	-0.000302
H93	H	0.161137	0.315017	-0.114083
H94	H	0.108055	0.214823	-0.114071
H95	H	0.942958	-0.217335	-0.000252
C96	C	0.723962	0.157410	0.341417
C97	C	0.724001	0.157443	0.428584
C98	C	0.671483	0.200150	0.472183
C99	C	0.618926	0.242825	0.428614
C100	C	0.618885	0.242794	0.341442
C101	C	0.671404	0.200087	0.297843
H102	H	0.762908	0.125851	0.460841
H103	H	0.671513	0.200173	0.536714
H104	H	0.580048	0.274440	0.460889
H105	H	0.579978	0.274386	0.309186
H106	H	0.671373	0.200064	0.233312
C107	C	0.954830	-0.649560	-0.000281
C108	C	1.007214	-0.663466	0.065081
C109	C	1.077719	-0.638438	0.065063
C110	C	1.095841	-0.599504	-0.000317
C111	C	1.043457	-0.585597	-0.065684
C112	C	0.972951	-0.610625	-0.065666
H113	H	0.993800	-0.692288	0.113484
H114	H	1.116497	-0.648733	0.113452
H115	H	1.148034	-0.580977	-0.000331
H116	H	1.056871	-0.556774	-0.114087
H117	H	0.934173	-0.600330	-0.114055
C118	C	1.022491	-0.383260	-0.000285
C119	C	1.040607	-0.344325	-0.065666
C120	C	1.111113	-0.319297	-0.065691
C121	C	1.163503	-0.333205	-0.000336
C122	C	1.145388	-0.372142	0.065050
C123	C	1.074882	-0.397170	0.065076
H124	H	1.001824	-0.334028	-0.114050
H125	H	1.124523	-0.290474	-0.114094
H126	H	1.215695	-0.314678	-0.000354
H127	H	1.184171	-0.382439	0.113435
H128	H	1.061473	-0.425994	0.113479
H129	H	0.705535	-0.630888	-0.000222
H130	H	0.020438	0.166588	-0.000293
H131	H	0.644310	-0.458446	-0.000224
C132	C	0.196942	-0.034862	-0.000249
C133	C	0.166446	-0.092435	-0.000255
C134	C	0.216048	-0.149048	-0.000244
C135	C	0.296147	-0.148088	-0.000228
C136	C	0.326648	-0.090512	-0.000222
C137	C	0.277045	-0.033899	-0.000233
H138	H	0.107148	-0.093149	-0.000267
H139	H	0.193469	-0.191670	-0.000248
H140	H	0.332866	-0.189996	-0.000220
H141	H	0.385945	-0.089799	-0.000210
H142	H	0.299624	0.008722	-0.000229
H143	H	0.737642	0.146321	0.813277
H144	H	0.645897	-0.350694	-0.000220
C145	C	0.488020	-0.031363	-0.000187
C146	C	0.440306	-0.046241	0.065176
C147	C	0.409808	-0.103817	0.065174
C148	C	0.427023	-0.146515	-0.000190
C149	C	0.474739	-0.131638	-0.065558
C150	C	0.505237	-0.074062	-0.065557
H151	H	0.427560	-0.014632	0.113567
H152	H	0.374485	-0.114829	0.113564
H153	H	0.404446	-0.189136	-0.000192
H154	H	0.487485	-0.163247	-0.113950
H155	H	0.540560	-0.063050	-0.113947
H156	H	0.628050	-0.014822	-0.000150
H157	H	0.944533	-0.109581	-0.000227
H158	H	0.596537	0.173516	-0.000201
H159	H	0.051943	-0.021745	-0.000319
H160	H	1.002598	-0.497516	-0.000287
C161	C	0.693664	-0.198677	-0.000186
C162	C	0.641256	-0.184804	0.065200
C163	C	0.570758	-0.209844	0.065204
C164	C	0.552668	-0.248756	-0.000178
C165	C	0.605078	-0.262631	-0.065568
C166	C	0.675576	-0.237591	-0.065572
H167	H	0.654646	-0.155997	0.113603
H168	H	0.531961	-0.199572	0.113610
H169	H	0.500482	-0.267292	-0.000175
H170	H	0.591689	-0.291438	-0.113972
H171	H	0.714373	-0.247863	-0.113979
C172	C	0.924490	-0.005645	0.174944
C173	C	0.977014	-0.048348	0.218510
C174	C	1.029530	-0.091055	0.174909
C175	C	1.029522	-0.091060	0.087741
C176	C	0.976996	-0.048356	0.044170
C177	C	0.924480	-0.005648	0.087771
H178	H	0.977022	-0.048346	0.283041
H179	H	1.068414	-0.122668	0.207164
H180	H	1.068398	-0.122675	0.055465
H181	H	0.976988	-0.048358	-0.020361
H182	H	0.885596	0.025965	0.055517
C183	C	0.924530	-0.005640	0.658127
C184	C	0.977048	-0.048345	0.701698
C185	C	1.029567	-0.091053	0.658101
C186	C	1.029568	-0.091056	0.570933
C187	C	0.977048	-0.048350	0.527358
C188	C	0.924529	-0.005641	0.570954
H189	H	0.977050	-0.048344	0.766229
H190	H	1.068446	-0.122668	0.690359
H191	H	1.068446	-0.122672	0.538660
H192	H	0.977047	-0.048351	0.462827
H193	H	0.885650	0.025973	0.538696
H194	H	0.934929	-0.763836	-0.000281
H195	H	0.703955	-0.738641	-0.000211
H196	H	0.713561	-0.084394	-0.000177
H197	H	0.910860	0.005449	0.330041
H198	H	0.737584	0.146310	0.186324
H199	H	0.910892	0.005452	0.813222
H200	H	0.737632	0.146322	0.669507
