data_functionalizedCrystal
_audit_creation_method	'MofGen! by Chris Wilmer'
_symmetry_space_group_name_H-M	'P1'
_symmetry_Int_Tables_number	1
_symmetry_cell_setting	triclinic
loop_
_symmetry_equiv_pos_as_xyz
  x,y,z
_cell_length_a	14.519731
_cell_length_b	10.540535
_cell_length_c	12.996460
_cell_angle_alpha	89.992517
_cell_angle_beta	89.994327
_cell_angle_gamma	84.106248
loop_
_atom_site_label
_atom_site_type_symbol
_atom_site_fract_x
_atom_site_fract_y
_atom_site_fract_z
O1	O	1.224752	0.166529	-0.085572
O2	O	1.724752	0.666529	0.414428
O3	O	0.956383	0.186096	-0.085574
O4	O	1.456383	0.686096	0.414426
O5	O	1.096692	-0.008456	-0.085563
O6	O	1.596692	0.491544	0.414437
O7	O	1.084443	0.361082	-0.085584
O8	O	1.584443	0.861082	0.414416
O9	O	1.096677	-0.008467	0.085571
O10	O	1.596677	0.491533	0.585571
O11	O	0.956368	0.186086	0.085560
O12	O	1.456368	0.686086	0.585560
O13	O	1.224737	0.166518	0.085561
O14	O	1.724737	0.666518	0.585561
Cu15	Cu	1.090551	0.176301	0.101186
Cu16	Cu	1.590551	0.676301	0.601186
Cu17	Cu	1.090569	0.176314	-0.101199
Cu18	Cu	1.590569	0.676314	0.398801
O19	O	1.084428	0.361071	0.085550
O20	O	1.584428	0.861071	0.585550
C21	C	0.922011	0.185174	-0.000008
C22	C	1.422011	0.685174	0.499992
C23	C	0.819616	0.182427	-0.000008
C24	C	1.319616	0.682427	0.499992
C25	C	0.736460	0.180194	-0.000012
C26	C	1.236460	0.680194	0.499988
C27	C	0.632136	0.177405	-0.000012
C28	C	1.132136	0.677405	0.499988
C29	C	0.548985	0.175191	-0.000012
C30	C	1.048985	0.675191	0.499988
C31	C	0.444655	0.172402	-0.000014
C32	C	0.944655	0.672402	0.499986
C33	C	1.095767	-0.055755	0.000005
C34	C	1.595767	0.444245	0.500005
C35	C	1.093021	-0.196676	0.000006
C36	C	1.593021	0.303324	0.500006
C37	C	0.990578	-0.232311	-0.000002
C38	C	1.490578	0.267689	0.499998
C39	C	0.987689	-0.378883	-0.000409
C40	C	1.487689	0.121117	0.499591
C41	C	1.139793	-0.406467	-0.097553
C42	C	1.639793	0.093533	0.402447
C43	C	1.141973	-0.259724	-0.097616
C44	C	1.641973	0.240276	0.402384
C45	C	1.143446	-0.259889	0.097002
C46	C	1.643446	0.240111	0.597002
C47	C	1.138709	-0.406188	0.098265
C48	C	1.638709	0.093812	0.598265
C49	C	1.259109	0.167441	-0.000008
C50	C	1.759109	0.667441	0.499992
C51	C	1.361504	0.170188	-0.000014
C52	C	1.861504	0.670188	0.499986
C53	C	1.085353	0.408370	-0.000020
C54	C	1.585353	0.908370	0.499980
C55	C	1.088099	0.549291	-0.000028
C56	C	1.588099	1.049291	0.499972
N57	N	1.090546	0.176291	0.243533
N58	N	1.590546	0.676291	0.743533
N59	N	1.090582	0.176314	-0.243546
N60	N	1.590582	0.676314	0.256454
C61	C	1.090567	0.176315	0.663348
C62	C	1.590567	0.676315	1.163348
C63	C	1.090559	0.176313	0.546543
C64	C	1.590559	0.676313	1.046543
C65	C	1.090557	0.176304	0.453444
C66	C	1.590557	0.676304	0.953444
C67	C	1.090547	0.176300	0.336632
C68	C	1.590547	0.676300	0.836632
H69	H	0.947252	-0.407823	0.069481
H70	H	1.447252	0.092177	0.569481
H71	H	1.211994	-0.455964	0.104448
H72	H	1.711994	0.044036	0.604448
H73	H	0.951233	-0.189956	0.069928
H74	H	1.451233	0.310044	0.569928
H75	H	0.951904	-0.188451	-0.069838
H76	H	1.451904	0.311549	0.430162
H77	H	1.217073	-0.237451	-0.101769
H78	H	1.717073	0.262549	0.398231
H79	H	1.101090	-0.434426	0.170416
H80	H	1.601090	0.065574	0.670416
H81	H	0.947475	-0.406917	-0.070739
H82	H	1.447475	0.093083	0.429261
H83	H	1.218817	-0.238455	0.097953
H84	H	1.718817	0.261545	0.597953
H85	H	1.107074	-0.219187	-0.170798
H86	H	1.607074	0.280813	0.329202
H87	H	1.213724	-0.454570	-0.100906
H88	H	1.713724	0.045430	0.399094
H89	H	1.104338	-0.436996	-0.170416
H90	H	1.604338	0.063004	0.329584
H91	H	1.111473	-0.217120	0.170952
H92	H	1.611473	0.282880	0.670952
