data_functionalizedCrystal
_audit_creation_method	'MofGen! by Chris Wilmer'
_symmetry_space_group_name_H-M	'P1'
_symmetry_Int_Tables_number	1
_symmetry_cell_setting	triclinic
loop_
_symmetry_equiv_pos_as_xyz
  x,y,z
_cell_length_a	6.817900
_cell_length_b	7.190334
_cell_length_c	16.255748
_cell_angle_alpha	89.346586
_cell_angle_beta	103.490428
_cell_angle_gamma	60.611776
loop_
_atom_site_label
_atom_site_type_symbol
_atom_site_fract_x
_atom_site_fract_y
_atom_site_fract_z
V1	V	-4.223205	0.665721	-0.115740
O2	O	-4.206715	0.652299	0.006951
O3	O	-4.173632	0.661890	-0.230828
O4	O	-4.260364	0.955736	-0.113350
O5	O	-4.119382	0.356418	-0.111341
V6	V	-4.695898	0.628639	-0.101136
O7	O	-4.508219	0.747066	-0.147773
O8	O	-4.861081	0.547294	-0.069103
O9	O	-4.522264	0.632470	0.013952
O10	O	-4.829785	0.642062	-0.223827
O11	O	-4.917117	0.937942	-0.105535
O12	O	-4.435532	0.338624	-0.103526
C13	C	-4.015579	0.651574	-0.258903
C14	C	-4.056905	0.650375	-0.352986
C15	C	-3.988081	0.635680	-0.632114
C16	C	-4.148586	0.818700	-0.588619
C17	C	-4.205830	0.646149	-0.691640
C18	C	-3.971583	0.465297	-0.567496
C19	C	-4.132646	0.648221	-0.525247
C20	C	-4.366955	0.829300	-0.649393
C21	C	-4.189846	0.475736	-0.628265
C22	C	-4.350526	0.658808	-0.584801
C23	C	-4.247985	0.644957	-0.787494
C24	C	-4.090515	0.649429	-0.429396
C25	C	-4.126225	1.026401	-0.109044
C26	C	-4.239980	1.267951	-0.107828
C27	C	-4.343657	0.642780	0.042023
C28	C	-4.281574	0.643993	0.136104
H29	H	-3.835403	0.626111	-0.653046
O30	O	-3.771497	0.281836	-0.525186
C31	C	-3.580459	0.270430	-0.549166
H32	H	-3.646101	0.372443	-0.614338
H33	H	-3.451631	0.095514	-0.552923
H34	H	-3.489167	0.334105	-0.499631
H35	H	-4.130781	0.963725	-0.570936
H36	H	-4.503539	0.668652	-0.564042
O37	O	-4.210604	0.302488	-0.649335
C38	C	-4.002277	0.110958	-0.607201
H39	H	-3.851407	0.143988	-0.590111
H40	H	-3.963472	-0.017782	-0.651127
H41	H	-4.023491	0.051794	-0.546296
H42	H	-4.534434	0.983294	-0.684846
