data_functionalizedCrystal
_audit_creation_method	'MofGen! by Chris Wilmer'
_symmetry_space_group_name_H-M	'P1'
_symmetry_Int_Tables_number	1
_symmetry_cell_setting	triclinic
loop_
_symmetry_equiv_pos_as_xyz
  x,y,z
_cell_length_a	17.640112
_cell_length_b	25.639239
_cell_length_c	25.639233
_cell_angle_alpha	89.981253
_cell_angle_beta	101.179825
_cell_angle_gamma	101.263838
loop_
_atom_site_label
_atom_site_type_symbol
_atom_site_fract_x
_atom_site_fract_y
_atom_site_fract_z
Zn1	Zn	1.208290	-0.046428	-0.134303
Zn2	Zn	1.708290	0.453572	0.365697
Zn3	Zn	1.208174	-0.133862	-0.046882
Zn4	Zn	1.708174	0.366138	0.453118
Zn5	Zn	1.076121	-0.064124	-0.064526
Zn6	Zn	1.576121	0.435876	0.435474
Zn7	Zn	1.076038	-0.151542	-0.151927
Zn8	Zn	1.576038	0.348458	0.348073
O9	O	1.142156	-0.098989	-0.099409
O10	O	1.642156	0.401011	0.400591
O11	O	1.318888	-0.043221	-0.107946
O12	O	1.818888	0.456779	0.392054
O13	O	1.190644	-0.124618	0.023941
O14	O	1.690644	0.375382	0.523941
O15	O	1.093736	0.011400	-0.073790
O16	O	1.593736	0.511400	0.426210
O17	O	1.318803	-0.107458	-0.043719
O18	O	1.818803	0.392542	0.456281
O19	O	1.190841	0.024401	-0.125054
O20	O	1.690841	0.524401	0.374946
O21	O	1.093624	-0.073382	0.010978
O22	O	1.593624	0.426618	0.510978
O23	O	0.965497	-0.090525	-0.090880
O24	O	1.465497	0.409475	0.409120
O25	O	1.093595	-0.137592	-0.222752
O26	O	1.593595	0.362408	0.277248
O27	O	0.965436	-0.154751	-0.155093
O28	O	1.465436	0.345249	0.344907
O29	O	1.190760	-0.060365	-0.209804
O30	O	1.690760	0.439635	0.290196
O31	O	1.190563	-0.209384	-0.060809
O32	O	1.690563	0.290616	0.439191
O33	O	1.093483	-0.222373	-0.137985
O34	O	1.593483	0.277627	0.362015
C35	C	0.936785	-0.126478	-0.126814
C36	C	1.436785	0.373522	0.373186
C37	C	0.848927	-0.138250	-0.138550
C38	C	1.348927	0.361750	0.361450
C39	C	0.560021	-0.009547	-0.010257
C40	C	1.060021	0.490453	0.489743
C41	C	0.477465	-0.020619	-0.021291
C42	C	0.977465	0.479381	0.478709
C43	C	0.477455	-0.087590	-0.088041
C44	C	0.977455	0.412410	0.411959
C45	C	0.560013	-0.076521	-0.077014
C46	C	1.060013	0.423479	0.422986
C47	C	0.601290	-0.037500	-0.038121
C48	C	1.101290	0.462500	0.461879
C49	C	0.601282	-0.104474	-0.104878
C50	C	1.101282	0.395526	0.395122
C51	C	0.683833	-0.093408	-0.093849
C52	C	1.183833	0.406592	0.406151
C53	C	0.725115	-0.054389	-0.054957
C54	C	1.225115	0.445611	0.445043
C55	C	0.683840	-0.026434	-0.027092
C56	C	1.183840	0.473566	0.472908
C57	C	0.560004	-0.143498	-0.143769
C58	C	1.060004	0.356502	0.356231
C59	C	0.601273	-0.171450	-0.171633
C60	C	1.101273	0.328550	0.328367
C61	C	0.683825	-0.160382	-0.160607
C62	C	1.183825	0.339618	0.339393
C63	C	0.725107	-0.121363	-0.121714
C64	C	1.225107	0.378637	0.378286
C65	C	0.725100	-0.188337	-0.188472
C66	C	1.225100	0.311663	0.311528
C67	C	0.807651	-0.177271	-0.177443
C68	C	1.307651	0.322729	0.322557
C69	C	0.807658	-0.110297	-0.110685
C70	C	1.307658	0.389703	0.389315
C71	C	1.142023	-0.234849	-0.099403
C72	C	1.642023	0.265151	0.400597
C73	C	1.142038	-0.292961	-0.099408
C74	C	1.642038	0.207039	0.400592
C75	C	1.192837	-0.646515	-0.059263
C76	C	1.692837	-0.146515	0.440737
C77	C	1.192868	-0.701115	-0.059266
C78	C	1.692868	-0.201115	0.440734
O79	O	1.235921	-0.723580	-0.025126
O80	O	1.735921	-0.223580	0.474874
N81	N	1.142295	-0.735209	-0.099426
N82	N	1.642295	-0.235209	0.400574
C83	C	1.091693	-0.714701	-0.139588
C84	C	1.591693	-0.214701	0.360412
O85	O	1.048680	-0.748714	-0.173747
O86	O	1.548680	-0.248714	0.326253
C87	C	1.091667	-0.660101	-0.139586
C88	C	1.591667	-0.160101	0.360414
C89	C	1.142238	-0.626009	-0.099421
C90	C	1.642238	-0.126009	0.400579
C91	C	1.243405	-0.612424	-0.019102
C92	C	1.743405	-0.112424	0.480898
C93	C	1.243373	-0.557828	-0.019099
C94	C	1.743373	-0.057828	0.480901
C95	C	1.192774	-0.537322	-0.059257
C96	C	1.692774	-0.037322	0.440743
C97	C	1.142206	-0.571413	-0.099418
C98	C	1.642206	-0.071413	0.400582
C99	C	1.041070	-0.639592	-0.179750
C100	C	1.541070	-0.139592	0.320250
C101	C	1.041049	-0.584988	-0.179745
C102	C	1.541049	-0.084988	0.320255
C103	C	1.091620	-0.550897	-0.139580
C104	C	1.591620	-0.050897	0.360420
C105	C	1.091575	-0.496312	-0.139573
C106	C	1.591575	0.003688	0.360427
N107	N	1.142148	-0.462217	-0.099413
N108	N	1.642148	0.037783	0.400587
C109	C	1.192748	-0.482722	-0.059255
C110	C	1.692748	0.017278	0.440745
C111	C	1.091753	-0.829363	-0.139588
C112	C	1.591753	-0.329363	0.360412
C113	C	1.091774	-0.883963	-0.139587
C114	C	1.591774	-0.383963	0.360413
C115	C	1.192950	-0.870373	-0.059266
C116	C	1.692950	-0.370373	0.440734
C117	C	1.192924	-0.815773	-0.059265
C118	C	1.692924	-0.315773	0.440735
C119	C	1.142326	-0.795269	-0.099428
C120	C	1.642326	-0.295269	0.400572
C121	C	1.192676	-0.368067	-0.059251
C122	C	1.692676	0.131933	0.440749
C123	C	1.192638	-0.313467	-0.059250
C124	C	1.692638	0.186533	0.440750
C125	C	1.091465	-0.327061	-0.139573
C126	C	1.591465	0.172939	0.360427
C127	C	1.091500	-0.381656	-0.139572
C128	C	1.591500	0.118344	0.360428
C129	C	1.142112	-0.402157	-0.099409
C130	C	1.642112	0.097843	0.400591
O131	O	1.048546	-0.473808	-0.173697
O132	O	1.548546	0.026192	0.326303
O133	O	1.235761	-0.448702	-0.025106
O134	O	1.735761	0.051298	0.474894
C135	C	1.348328	-0.071394	-0.071899
C136	C	1.848328	0.428606	0.428101
C137	C	1.436186	-0.059634	-0.060175
C138	C	1.936186	0.440366	0.439825
C139	C	1.142181	-0.098976	-0.235779
C140	C	1.642181	0.401024	0.264221
C141	C	1.142192	-0.098971	-0.293892
C142	C	1.642192	0.401029	0.206108
C143	C	1.142311	0.037405	-0.099424
C144	C	1.642311	0.537405	0.400576
C145	C	1.142377	0.095528	-0.099430
C146	C	1.642377	0.595528	0.400570
C147	C	1.192850	-0.058651	-0.647510
C148	C	1.692850	0.441349	-0.147510
C149	C	1.192860	-0.058635	-0.702113
C150	C	1.692860	0.441365	-0.202113
O151	O	1.235868	-0.024424	-0.724623
O152	O	1.735868	0.475576	-0.224623
N153	N	1.142279	-0.098837	-0.736163
N154	N	1.642279	0.401163	-0.236163
C155	C	1.091680	-0.139054	-0.715608
C156	C	1.591680	0.360946	-0.215608
O157	O	1.048657	-0.173247	-0.749584
O158	O	1.548657	0.326753	-0.249584
C159	C	1.091667	-0.139067	-0.661007
C160	C	1.591667	0.360933	-0.161007
C161	C	1.142256	-0.098866	-0.626958
C162	C	1.642256	0.401134	-0.126958
C163	C	1.243435	-0.018453	-0.613462
C164	C	1.743435	0.481547	-0.113462
C165	C	1.243426	-0.018469	-0.558862
C166	C	1.743426	0.481531	-0.058862
C167	C	1.192832	-0.058684	-0.538311
C168	C	1.692832	0.441316	-0.038311
C169	C	1.142247	-0.098882	-0.572359
C170	C	1.642247	0.401118	-0.072359
C171	C	1.041064	-0.179281	-0.640453
C172	C	1.541064	0.320719	-0.140453
C173	C	1.041054	-0.179291	-0.585848
C174	C	1.541054	0.320709	-0.085848
C175	C	1.091644	-0.139090	-0.551799
C176	C	1.591644	0.360910	-0.051799
C177	C	1.091645	-0.139113	-0.497208
C178	C	1.591645	0.360887	0.002792
N179	N	1.142225	-0.098912	-0.463158
N180	N	1.642225	0.401088	0.036842
C181	C	1.192819	-0.058697	-0.483709
C182	C	1.692819	0.441303	0.016291
C183	C	1.091710	-0.139023	-0.830275
C184	C	1.591710	0.360977	-0.330275
C185	C	1.091727	-0.139012	-0.884875
C186	C	1.591727	0.360988	-0.384875
C187	C	1.192906	-0.058593	-0.871376
C188	C	1.692906	0.441407	-0.371376
C189	C	1.192893	-0.058606	-0.816774
C190	C	1.692893	0.441394	-0.316774
C191	C	1.142291	-0.098821	-0.796225
C192	C	1.642291	0.401179	-0.296225
C193	C	1.192797	-0.058735	-0.369047
C194	C	1.692797	0.441265	0.130953
C195	C	1.192786	-0.058756	-0.314443
C196	C	1.692786	0.441244	0.185557
C197	C	1.091604	-0.139174	-0.327947
C198	C	1.591604	0.360826	0.172053
C199	C	1.091618	-0.139154	-0.382546
C200	C	1.591618	0.360846	0.117454
C201	C	1.142217	-0.098930	-0.403094
C202	C	1.642217	0.401070	0.096906
O203	O	1.048657	-0.173306	-0.474660
O204	O	1.548657	0.326694	0.025340
O205	O	1.235827	-0.024506	-0.449728
O206	O	1.735827	0.475494	0.050272
C207	C	1.142176	-0.098958	0.036436
C208	C	1.642176	0.401042	0.536436
C209	C	1.142318	-0.098795	0.094569
C210	C	1.642318	0.401205	0.594569
H211	H	0.593630	0.022236	0.021407
H212	H	1.093630	0.522236	0.521407
O213	O	1.242136	-0.890374	-0.020338
O214	O	1.742136	-0.390374	0.479662
C215	C	1.231326	-0.945873	-0.028966
C216	C	1.731326	-0.445873	0.471034
H217	H	1.205323	-0.956794	-0.072753
H218	H	1.705323	-0.456794	0.427247
H219	H	1.290570	-0.958639	-0.017614
H220	H	1.790570	-0.458639	0.482386
H221	H	1.189346	-0.967063	-0.003506
H222	H	1.689346	-0.467063	0.496494
O223	O	0.437498	0.006603	0.005810
O224	O	0.937498	0.506603	0.505810
C225	C	0.491635	0.043405	0.042512
C226	C	0.991635	0.543405	0.542512
H227	H	0.550493	0.053075	0.028956
H228	H	1.050493	0.553075	0.528956
H229	H	0.467808	0.081414	0.044834
H230	H	0.967808	0.581414	0.544834
H231	H	0.500380	0.025488	0.083423
H232	H	1.000380	0.525488	0.583423
O233	O	1.042248	-0.307226	-0.178611
O234	O	1.542248	0.192774	0.321389
C235	C	0.997635	-0.349017	-0.214074
C236	C	1.497635	0.150983	0.285926
H237	H	0.994921	-0.388315	-0.193025
H238	H	1.494921	0.111685	0.306975
H239	H	0.935349	-0.341613	-0.227939
H240	H	1.435349	0.158387	0.272061
H241	H	1.026558	-0.350917	-0.249935
H242	H	1.526558	0.149083	0.250065
H243	H	1.050587	-0.911717	-0.172290
H244	H	1.550587	-0.411717	0.327710
H245	H	0.691480	-0.220112	-0.220135
H246	H	1.191480	0.279888	0.279865
H247	H	1.234101	-0.025846	-0.888119
H248	H	1.734101	0.474154	-0.388119
H249	H	1.233997	-0.025979	-0.385771
H250	H	1.733997	0.474021	0.114229
H251	H	0.841252	-0.200033	-0.200133
H252	H	1.341252	0.299967	0.299867
H253	H	0.841268	-0.078514	-0.079022
H254	H	1.341268	0.421486	0.420978
H255	H	1.284620	0.014268	-0.531144
H256	H	1.784620	0.514268	-0.031144
H257	H	0.492786	-0.152506	-0.152747
H258	H	0.992786	0.347494	0.347253
H259	H	1.284635	0.014298	-0.630188
H260	H	1.784635	0.514298	-0.130188
H261	H	1.050324	-0.409415	-0.172279
H262	H	1.550324	0.090585	0.327721
O263	O	0.437234	-0.125460	-0.125821
O264	O	0.937234	0.374540	0.374179
C265	C	0.355523	-0.129244	-0.129571
C266	C	0.855523	0.370756	0.370429
H267	H	0.344265	-0.090380	-0.114021
H268	H	0.844265	0.409620	0.385979
H269	H	0.324168	-0.137049	-0.172917
H270	H	0.824168	0.362951	0.327083
H271	H	0.332062	-0.163364	-0.104809
H272	H	0.832062	0.336636	0.395191
H273	H	0.717450	0.005349	0.004571
H274	H	1.217450	0.505349	0.504571
H275	H	1.050540	-0.171752	-0.912592
H276	H	1.550540	0.328248	-0.412592
H277	H	1.050431	-0.171893	-0.410269
H278	H	1.550431	0.328107	0.089731
H279	H	1.284613	-0.629112	0.013600
H280	H	1.784613	-0.129112	0.513600
H281	H	0.567655	-0.203223	-0.203298
H282	H	1.067655	0.296777	0.296702
H283	H	0.792333	-0.045381	-0.045977
H284	H	1.292333	0.454619	0.454023
H285	H	1.233818	-0.285710	-0.026541
H286	H	1.733818	0.214290	0.473459
O287	O	1.241862	-0.387893	-0.020183
O288	O	1.741862	0.112107	0.479817
C289	C	1.286495	-0.346085	0.015253
C290	C	1.786495	0.153915	0.515253
H291	H	1.254092	-0.311526	0.012755
H292	H	1.754092	0.188474	0.512755
H293	H	1.294977	-0.360733	0.057576
H294	H	1.794977	0.139267	0.557576
H295	H	1.346506	-0.332191	0.004085
H296	H	1.846506	0.167809	0.504085
H297	H	1.050543	-0.812673	-0.172293
H298	H	1.550543	-0.312673	0.327707
O299	O	0.991954	-0.218402	-0.673454
O300	O	1.491954	0.281598	-0.173454
C301	C	1.009177	-0.268209	-0.657809
C302	C	1.509177	0.231791	-0.157809
H303	H	1.039569	-0.265227	-0.614113
H304	H	1.539569	0.234773	-0.114113
H305	H	0.952099	-0.299289	-0.663540
H306	H	1.452099	0.200711	-0.163540
H307	H	1.049787	-0.280386	-0.683123
H308	H	1.549787	0.219614	-0.183123
H309	H	1.284554	-0.530073	0.013606
H310	H	1.784554	-0.030073	0.513606
O311	O	1.242125	-0.782730	-0.020224
O312	O	1.742125	-0.282730	0.479776
C313	C	1.286770	-0.812546	0.015226
C314	C	1.786770	-0.312546	0.515226
H315	H	1.289499	-0.851092	-0.005833
H316	H	1.789499	-0.351092	0.494167
H317	H	1.349049	-0.788396	0.029084
H318	H	1.849049	-0.288396	0.529084
H319	H	1.257865	-0.822260	0.051092
H320	H	1.757865	-0.322260	0.551092
H321	H	0.999886	-0.667341	-0.212455
H322	H	1.499886	-0.167341	0.287545
O323	O	1.042574	-0.178246	-0.307900
O324	O	1.542574	0.321754	0.192100
C325	C	1.087542	-0.206008	-0.270322
C326	C	1.587542	0.293992	0.229678
H327	H	1.147468	-0.179549	-0.254159
H328	H	1.647468	0.320451	0.245841
H329	H	1.055342	-0.217325	-0.236214
H330	H	1.555342	0.282675	0.263786
H331	H	1.096176	-0.243598	-0.290203
H332	H	1.596176	0.256402	0.209797
H333	H	0.999846	-0.568297	-0.212453
H334	H	1.499846	-0.068297	0.287547
H335	H	1.233985	-0.026019	-0.286722
H336	H	1.733985	0.473981	0.213278
O337	O	1.242056	-0.019500	-0.783780
O338	O	1.742056	0.480500	-0.283780
C339	C	1.286727	0.015986	-0.813633
C340	C	1.786727	0.515986	-0.313633
H341	H	1.254359	0.013468	-0.856875
H342	H	1.754359	0.513468	-0.356875
H343	H	1.295204	0.058313	-0.796735
H344	H	1.795204	0.558313	-0.296735
H345	H	1.346739	0.004872	-0.811428
H346	H	1.846739	0.504872	-0.311428
H347	H	1.050503	-0.171773	-0.813548
H348	H	1.550503	0.328227	-0.313548
H349	H	0.999839	-0.212035	-0.569121
H350	H	1.499839	0.287965	-0.069121
