data_functionalizedCrystal
_audit_creation_method	'MofGen! by Chris Wilmer'
_symmetry_space_group_name_H-M	'P1'
_symmetry_Int_Tables_number	1
_symmetry_cell_setting	triclinic
loop_
_symmetry_equiv_pos_as_xyz
  x,y,z
_cell_length_a	12.827893
_cell_length_b	12.827892
_cell_length_c	10.686551
_cell_angle_alpha	85.597960
_cell_angle_beta	94.395101
_cell_angle_gamma	89.982699
loop_
_atom_site_label
_atom_site_type_symbol
_atom_site_fract_x
_atom_site_fract_y
_atom_site_fract_z
Zn1	Zn	1.643020	0.370626	0.713476
Zn2	Zn	1.629493	0.558816	0.502488
Zn3	Zn	1.454847	0.384089	0.502494
Zn4	Zn	1.468238	0.545328	0.713439
O5	O	1.548899	0.464715	0.607974
O6	O	1.787462	0.395600	0.685502
O7	O	1.595060	0.546918	0.325909
O8	O	1.479865	0.236066	0.530499
O9	O	1.777524	0.533863	0.530490
O10	O	1.618115	0.226175	0.685507
O11	O	1.466748	0.418547	0.325913
O12	O	1.310386	0.405468	0.530463
O13	O	1.502689	0.510874	0.890024
O14	O	1.320225	0.523929	0.685443
O15	O	1.631100	0.382521	0.890052
O16	O	1.608046	0.703264	0.530454
O17	O	1.489572	0.693354	0.685438
C18	C	1.277388	0.464696	0.607950
C19	C	1.161236	0.464711	0.607970
C20	C	0.984521	0.406017	0.531439
C21	C	1.104570	0.406000	0.531417
C22	C	1.548824	0.736225	0.607969
C23	C	1.548891	0.852376	0.608009
C24	C	1.607594	0.909024	0.531406
C25	C	1.607664	1.029072	0.531445
C26	C	1.821471	0.464734	0.607999
C27	C	1.937625	0.464742	0.608010
C28	C	1.569897	0.443691	0.937104
C29	C	1.578845	0.434732	1.077359
C30	C	1.548997	1.192141	0.608023
C31	C	1.549020	1.075984	0.608083
C32	C	1.528043	0.485581	0.280126
C33	C	1.519298	0.494246	0.139871
H34	H	0.986351	0.515001	0.673555
C35	C	1.674358	0.855151	0.443758
C36	C	1.609985	0.797752	0.362846
C37	C	1.671450	0.748125	0.282075
H38	H	1.722891	0.809353	0.491963
H39	H	1.711174	0.906229	0.395626
H40	H	1.573185	0.746681	0.410973
H41	H	1.561452	0.843526	0.314613
H42	H	1.708266	0.799202	0.233943
H43	H	1.719981	0.702332	0.330290
H44	H	1.627781	0.709182	0.227159
H45	H	1.657919	1.077769	0.465859
H46	H	1.120894	0.514994	0.673525
H47	H	0.935795	0.355749	0.465905
H48	H	1.498754	1.027295	0.673665
H49	H	1.498689	0.892751	0.673625
C50	C	1.442350	0.571399	1.068005
C51	C	1.496725	0.643142	0.992315
C52	C	1.425875	0.714223	0.926071
H53	H	1.406156	0.607647	1.125878
H54	H	1.393604	0.534699	1.016516
H55	H	1.545452	0.679838	1.043799
H56	H	1.532915	0.606924	0.934418
H57	H	1.377129	0.677523	0.874583
H58	H	1.389685	0.750462	0.983953
H59	H	1.462757	0.762902	0.874699
C60	C	1.655788	0.357509	1.149129
C61	C	1.601411	0.285732	1.224772
C62	C	1.672251	0.214571	1.290890
H63	H	1.704578	0.394109	1.200645
H64	H	1.691926	0.321310	1.091142
H65	H	1.565290	0.321927	1.282752
H66	H	1.552625	0.249106	1.173288
H67	H	1.708390	0.178372	1.232904
H68	H	1.721038	0.251180	1.342399
H69	H	1.635367	0.165856	1.342213
C70	C	1.158490	0.339133	0.443926
C71	C	1.215984	0.403416	0.363008
C72	C	1.265682	0.341852	0.282404
H73	H	1.107479	0.302283	0.395780
H74	H	1.204232	0.290623	0.492292
H75	H	1.170245	0.451907	0.314648
H76	H	1.267012	0.440265	0.411120
H77	H	1.311424	0.293342	0.330769
H78	H	1.214663	0.305005	0.234266
H79	H	1.304704	0.385457	0.227499
