data_functionalizedCrystal
_audit_creation_method	'MofGen! by Chris Wilmer'
_symmetry_space_group_name_H-M	'P1'
_symmetry_Int_Tables_number	1
_symmetry_cell_setting	triclinic
loop_
_symmetry_equiv_pos_as_xyz
  x,y,z
_cell_length_a	16.109301
_cell_length_b	14.586319
_cell_length_c	16.109301
_cell_angle_alpha	90.005214
_cell_angle_beta	83.461481
_cell_angle_gamma	90.000787
loop_
_atom_site_label
_atom_site_type_symbol
_atom_site_fract_x
_atom_site_fract_y
_atom_site_fract_z
O1	O	-1.103131	-0.076185	-0.106866
O2	O	-0.603131	0.423815	0.393134
O3	O	-0.861069	-0.076200	-0.120165
O4	O	-0.361069	0.423800	0.379835
O5	O	-0.988749	-0.076183	0.007515
O6	O	-0.488749	0.423817	0.507515
O7	O	-0.975450	-0.076203	-0.234547
O8	O	-0.475450	0.423797	0.265453
O9	O	-0.988741	0.076298	0.007517
O10	O	-0.488741	0.576298	0.507517
O11	O	-0.861060	0.076281	-0.120164
O12	O	-0.361060	0.576281	0.379836
O13	O	-1.103122	0.076295	-0.106864
O14	O	-0.603122	0.576295	0.393136
Cu15	Cu	-0.982090	0.090211	-0.113514
Cu16	Cu	-0.482090	0.590211	0.386486
Cu17	Cu	-0.982101	-0.090115	-0.113516
Cu18	Cu	-0.482101	0.409885	0.386484
O19	O	-0.975441	0.076278	-0.234545
O20	O	-0.475441	0.576278	0.265455
C21	C	-0.830090	0.000038	-0.119626
C22	C	-0.330090	0.500038	0.380374
C23	C	-0.737794	0.000033	-0.118011
C24	C	-0.237794	0.500033	0.381989
C25	C	-0.988206	0.000058	0.038491
C26	C	-0.488206	0.500058	0.538491
C27	C	-0.986591	0.000059	0.130786
C28	C	-0.486591	0.500059	0.630786
N29	N	-0.982089	0.217042	-0.113512
N30	N	-0.482089	0.717042	0.386488
C31	C	-1.134101	0.000055	-0.107404
C32	C	-0.634101	0.500055	0.392596
C33	C	-1.226397	0.000054	-0.109019
C34	C	-0.726397	0.500054	0.390981
C35	C	-0.515522	0.000038	-0.190018
C36	C	-0.015522	0.500038	0.309982
C37	C	-0.428801	0.000044	-0.188494
C38	C	0.071199	0.500044	0.311506
C39	C	-0.448676	0.000052	-0.037006
C40	C	0.051324	0.500052	0.462994
C41	C	-0.535394	0.000053	-0.038530
C42	C	-0.035394	0.500053	0.461470
C43	C	-0.568815	0.000041	-0.115039
C44	C	-0.068815	0.500041	0.384961
C45	C	-0.395376	0.000046	-0.111990
C46	C	0.104624	0.500046	0.388010
C47	C	-0.301350	0.000053	-0.110337
C48	C	0.198650	0.500053	0.389663
C49	C	-0.662847	0.000036	-0.116693
C50	C	-0.162847	0.500036	0.383307
N51	N	-0.982109	-0.216947	-0.113511
N52	N	-0.482109	0.283053	0.386489
C53	C	-1.038644	0.452057	-0.056994
C54	C	-0.538644	0.952057	0.443006
C55	C	-1.038647	0.548038	-0.056992
C56	C	-0.538647	1.048038	0.443008
C57	C	-0.925547	0.548032	-0.170032
C58	C	-0.425547	1.048032	0.329968
C59	C	-0.925541	0.452052	-0.170030
C60	C	-0.425541	0.952052	0.329970
C61	C	-0.982095	0.404067	-0.113511
C62	C	-0.482095	0.904067	0.386489
C63	C	-0.982103	0.596028	-0.113512
C64	C	-0.482103	1.096028	0.386488
C65	C	-0.982105	0.700095	-0.113510
C66	C	-0.482105	1.200095	0.386490
C67	C	-0.982092	0.299993	-0.113512
C68	C	-0.482092	0.799993	0.386488
C69	C	-0.975984	0.000035	-0.265521
C70	C	-0.475984	0.500035	0.234479
C71	C	-0.977600	0.000028	-0.357816
C72	C	-0.477600	0.500028	0.142184
C73	C	-1.058599	0.000049	0.353059
C74	C	-0.558599	0.500049	0.853059
C75	C	-1.057075	0.000041	0.439779
C76	C	-0.557075	0.500041	0.939779
C77	C	-0.905586	0.000036	0.419905
C78	C	-0.405586	0.500036	0.919905
C79	C	-0.907111	0.000037	0.333186
C80	C	-0.407111	0.500037	0.833186
C81	C	-0.983620	0.000048	0.299766
C82	C	-0.483620	0.500048	0.799766
C83	C	-0.980571	0.000039	0.473205
C84	C	-0.480571	0.500039	0.973205
C85	C	-0.978918	0.000031	0.567231
C86	C	-0.478918	0.500031	1.067231
C87	C	-0.985273	0.000055	0.205734
C88	C	-0.485273	0.500055	0.705734
H89	H	-0.385413	0.000043	-0.249550
H90	H	0.114587	0.500043	0.250450
O91	O	-1.099626	0.400311	0.003985
O92	O	-0.599626	0.900311	0.503985
H93	H	-1.064626	0.356596	0.044397
H94	H	-0.564626	0.856596	0.544397
O95	O	-0.412631	0.000058	0.045513
O96	O	0.087369	0.500058	0.545513
H97	H	-0.343376	0.000049	0.033979
H98	H	0.156624	0.500049	0.533979
O99	O	-0.592885	0.000058	0.042343
O100	O	-0.092885	0.500058	0.542343
H101	H	-0.555079	0.000054	0.095801
H102	H	-0.055079	0.500054	0.595801
H103	H	-1.084694	0.587108	-0.010969
H104	H	-0.584694	1.087108	0.489031
O105	O	-0.864563	0.599786	-0.231002
O106	O	-0.364563	1.099786	0.268998
H107	H	-0.824171	0.643534	-0.196002
H108	H	-0.324171	1.143534	0.303998
H109	H	-1.118130	0.000040	0.483168
H110	H	-0.618130	0.500040	0.983168
H111	H	-0.542730	0.000035	-0.252317
H112	H	-0.042730	0.500035	0.247683
O113	O	-0.864548	0.400282	-0.230993
O114	O	-0.364548	0.900282	0.269007
H115	H	-0.825233	0.449772	-0.270303
H116	H	-0.325233	0.949772	0.229697
O117	O	-1.141114	0.000042	0.317007
O118	O	-0.641114	0.500042	0.817007
H119	H	-1.192995	0.000030	0.368638
H120	H	-0.692995	0.500030	0.868638
O121	O	-0.823067	0.000043	0.455950
O122	O	-0.323067	0.500043	0.955950
H123	H	-0.834602	0.000056	0.525205
H124	H	-0.334602	0.500056	1.025205
O125	O	-0.826238	0.000046	0.275695
O126	O	-0.326238	0.500046	0.775695
H127	H	-0.772780	0.000055	0.313502
H128	H	-0.272780	0.500055	0.813502
