data_functionalizedCrystal
_audit_creation_method	'MofGen! by Chris Wilmer'
_symmetry_space_group_name_H-M	'P1'
_symmetry_Int_Tables_number	1
_symmetry_cell_setting	triclinic
loop_
_symmetry_equiv_pos_as_xyz
  x,y,z
_cell_length_a	13.897449
_cell_length_b	19.121063
_cell_length_c	13.897449
_cell_angle_alpha	87.574651
_cell_angle_beta	90.005980
_cell_angle_gamma	92.470221
loop_
_atom_site_label
_atom_site_type_symbol
_atom_site_fract_x
_atom_site_fract_y
_atom_site_fract_z
Zn1	Zn	1.458104	-0.279712	0.561734
Zn2	Zn	1.958104	0.220288	1.061734
Zn3	Zn	1.451130	-0.397136	0.407300
Zn4	Zn	1.951130	0.102864	0.907300
Zn5	Zn	1.296835	-0.279704	0.400452
Zn6	Zn	1.796835	0.220296	0.900452
Zn7	Zn	1.289866	-0.397131	0.568552
Zn8	Zn	1.789866	0.102869	1.068552
O9	O	1.373984	-0.338421	0.484510
O10	O	1.873984	0.161579	0.984510
O11	O	1.592160	-0.295294	0.541260
O12	O	2.092160	0.204706	1.041260
O13	O	1.430661	-0.381557	0.271410
O14	O	1.930661	0.118443	0.771410
O15	O	1.324063	-0.181419	0.416126
O16	O	1.824063	0.318581	0.916126
O17	O	1.587037	-0.381565	0.427799
O18	O	2.087037	0.118435	0.927799
O19	O	1.442546	-0.181425	0.534620
O20	O	1.942546	0.318575	1.034620
O21	O	1.317301	-0.295280	0.266379
O22	O	1.817301	0.204720	0.766379
O23	O	1.160929	-0.295276	0.422738
O24	O	1.660929	0.204724	0.922738
O25	O	1.312185	-0.381557	0.702630
O26	O	1.812185	0.118443	1.202630
O27	O	1.155809	-0.381549	0.546241
O28	O	1.655809	0.118451	1.046241
O29	O	1.435789	-0.295290	0.697620
O30	O	1.935789	0.204710	1.197620
O31	O	1.423903	-0.495421	0.434410
O32	O	1.923903	0.004579	0.934410
O33	O	1.305423	-0.495418	0.552882
O34	O	1.805423	0.004582	1.052882
C35	C	1.123370	-0.338411	0.484487
C36	C	1.623370	0.161589	0.984487
C37	C	1.016155	-0.338424	0.484501
C38	C	1.516155	0.161576	0.984501
C39	C	0.819860	-0.338427	0.484527
C40	C	1.319860	0.161573	0.984527
C41	C	0.929093	-0.338423	0.484510
C42	C	1.429093	0.161577	0.984510
C43	C	1.363176	-0.520904	0.495150
C44	C	1.863176	-0.020904	0.995150
C45	C	1.358641	-0.598971	0.499735
C46	C	1.858641	-0.098971	0.999735
C47	C	1.418245	-0.635625	0.440258
C48	C	1.918245	-0.135625	0.940258
C49	C	1.413985	-0.708978	0.444575
C50	C	1.913985	-0.208978	0.944575
C51	C	1.350116	-0.745674	0.508365
C52	C	1.850116	-0.245674	1.008365
C53	C	1.290510	-0.709015	0.567848
C54	C	1.790510	-0.209015	1.067848
C55	C	1.294775	-0.635664	0.563535
C56	C	1.794775	-0.135664	1.063535
C57	C	1.334154	-0.967148	0.524476
C58	C	1.834154	-0.467148	1.024476
C59	C	1.329891	-1.040504	0.528782
C60	C	1.829891	-0.540504	1.028782
C61	C	1.453368	-1.040462	0.405510
C62	C	1.953368	-0.540462	0.905510
C63	C	1.457623	-0.967109	0.401198
C64	C	1.957623	-0.467109	0.901198
C65	C	1.398021	-0.930456	0.460685
C66	C	1.898021	-0.430456	0.960685
C67	C	1.345758	-0.820652	0.512777
C68	C	1.845758	-0.320652	1.012777
C69	C	1.402384	-0.855480	0.456277
C70	C	1.902384	-0.355480	0.956277
C71	C	1.625576	-0.338431	0.484533
C72	C	2.125576	0.161569	0.984533
C73	C	1.732790	-0.338435	0.484543
C74	C	2.232790	0.161565	0.984543
C75	C	1.373987	-0.338424	0.736103
C76	C	1.873987	0.161576	1.236103
C77	C	1.373989	-0.338425	0.843317
C78	C	1.873989	0.161575	1.343317
C79	C	1.384860	-0.155225	0.473848
C80	C	1.884860	0.344775	0.973848
C81	C	1.389495	-0.077158	0.469305
C82	C	1.889495	0.422842	0.969305
C83	C	1.373964	-0.338428	1.039612
C84	C	1.873964	0.161572	1.539612
C85	C	1.373975	-0.338428	0.930379
C86	C	1.873975	0.161572	1.430379
C87	C	1.373970	-0.338432	1.233896
C88	C	1.873970	0.161568	1.733896
C89	C	1.373963	-0.338427	1.126682
C90	C	1.873963	0.161573	1.626682
H91	H	1.462520	-0.738819	0.396142
H92	H	1.962520	-0.238819	0.896142
H93	H	1.509630	-0.937233	0.349255
H94	H	2.009630	-0.437233	0.849255
H95	H	1.501894	-1.070313	0.357080
H96	H	2.001894	-0.570313	0.857080
O97	O	1.269839	-0.927629	0.588614
O98	O	1.769839	-0.427629	1.088614
H99	H	1.285482	-0.941681	0.665162
H100	H	1.785482	-0.441681	1.165162
H101	H	1.238511	-0.738899	0.619792
H102	H	1.738511	-0.238899	1.119792
H103	H	1.277893	-1.070380	0.580744
H104	H	1.777893	-0.570380	1.080744
O105	O	1.230479	-0.596123	0.627673
O106	O	1.730479	-0.096123	1.127673
H107	H	1.185340	-0.633962	0.672746
H108	H	1.685340	-0.133962	1.172746
O109	O	1.471274	-0.815906	0.387478
O110	O	1.971274	-0.315906	0.887478
H111	H	1.546149	-0.829931	0.404919
H112	H	2.046149	-0.329931	0.904919
O113	O	1.276857	-0.860238	0.581558
O114	O	1.776857	-0.360238	1.081558
H115	H	1.318043	-0.893624	0.632630
H116	H	1.818043	-0.393624	1.132630
H117	H	1.470249	-0.605752	0.388309
H118	H	1.970249	-0.105752	0.888309
