data_functionalizedCrystal
_audit_creation_method	'MofGen! by Chris Wilmer'
_symmetry_space_group_name_H-M	'P1'
_symmetry_Int_Tables_number	1
_symmetry_cell_setting	triclinic
loop_
_symmetry_equiv_pos_as_xyz
  x,y,z
_cell_length_a	13.635800
_cell_length_b	7.190339
_cell_length_c	7.076136
_cell_angle_alpha	83.149421
_cell_angle_beta	62.297948
_cell_angle_gamma	60.611724
loop_
_atom_site_label
_atom_site_type_symbol
_atom_site_fract_x
_atom_site_fract_y
_atom_site_fract_z
V1	V	-2.142684	0.291658	0.663504
V2	V	-1.642684	0.791658	1.163504
O3	O	-2.089346	-0.017560	0.652425
O4	O	-1.589346	0.482440	1.152425
O5	O	-2.160485	0.581718	0.657474
O6	O	-1.660485	1.081718	1.157474
O7	O	-2.155293	0.285616	0.953562
O8	O	-1.655293	0.785616	1.453562
O9	O	-2.094574	0.280591	0.354288
O10	O	-1.594574	0.780591	0.854288
V11	V	-2.374286	0.254856	0.626700
V12	V	-1.874286	0.754856	1.126700
O13	O	-2.295599	0.372387	0.744235
O14	O	-1.795599	0.872387	1.244235
O15	O	-2.446470	0.174127	0.545969
O16	O	-1.946470	0.674127	1.045969
O17	O	-2.244882	-0.035204	0.632730
O18	O	-1.744882	0.464796	1.132730
O19	O	-2.486323	0.564074	0.637779
O20	O	-1.986323	1.064074	1.137779
O21	O	-2.481095	0.265922	0.935917
O22	O	-1.981095	0.765922	1.435917
O23	O	-2.250074	0.260897	0.336643
O24	O	-1.750074	0.760897	0.836643
V25	V	-1.874279	0.254856	0.626700
V26	V	-1.374279	0.754856	1.126700
O27	O	-1.922389	0.265922	0.935917
O28	O	-1.422389	0.765922	1.435917
O29	O	-1.861670	0.260897	0.336643
O30	O	-1.361670	0.760897	0.836643
O31	O	-1.856478	-0.035204	0.632730
O32	O	-1.356478	0.464796	1.132730
O33	O	-1.927617	0.564074	0.637779
O34	O	-1.427617	1.064074	1.137779
V35	V	-1.642677	0.291658	0.663504
V36	V	-1.142677	0.791658	1.163504
O37	O	-1.721364	0.174127	0.545969
O38	O	-1.221364	0.674127	1.045969
O39	O	-1.570493	0.372387	0.744235
O40	O	-1.070493	0.872387	1.244235
O41	O	-1.766889	0.285616	0.953562
O42	O	-1.266889	0.785616	1.453562
O43	O	-1.535868	0.280591	0.354288
O44	O	-1.035868	0.780591	0.854288
O45	O	-1.530640	-0.017560	0.652425
O46	O	-1.030640	0.482440	1.152425
O47	O	-1.772081	0.581718	0.657474
O48	O	-1.272081	1.081718	1.157474
C49	C	-2.092022	0.652479	0.646632
C50	C	-1.592022	1.152479	1.146632
C51	C	-2.148509	0.894054	0.643584
C52	C	-1.648509	1.394054	1.143584
C53	C	-1.865314	0.274790	1.024313
C54	C	-1.365314	0.774790	1.524313
C55	C	-1.928097	0.271756	1.265890
C56	C	-1.428097	0.771756	1.765890
C57	C	-2.151642	0.271750	0.265885
C58	C	-1.651642	0.771750	0.765885
C59	C	-2.088875	0.274824	0.024313
C60	C	-1.588875	0.774824	0.524313
C61	C	-1.924947	-0.105951	0.643586
C62	C	-1.424947	0.394049	1.143586
C63	C	-1.868467	-0.347522	0.646660
C64	C	-1.368467	0.152478	1.146660
