data_functionalizedCrystal
_audit_creation_method	'MofGen! by Chris Wilmer'
_symmetry_space_group_name_H-M	'P1'
_symmetry_Int_Tables_number	1
_symmetry_cell_setting	triclinic
loop_
_symmetry_equiv_pos_as_xyz
  x,y,z
_cell_length_a	15.995292
_cell_length_b	9.065215
_cell_length_c	15.072220
_cell_angle_alpha	89.999951
_cell_angle_beta	90.013670
_cell_angle_gamma	95.758343
loop_
_atom_site_label
_atom_site_type_symbol
_atom_site_fract_x
_atom_site_fract_y
_atom_site_fract_z
O1	O	1.112464	-0.189744	0.073805
O2	O	0.868861	-0.213316	0.073801
O3	O	0.995699	0.013233	0.073799
O4	O	0.985626	-0.416293	0.073807
O5	O	0.995667	0.013221	-0.073766
O6	O	0.868829	-0.213328	-0.073764
O7	O	1.112432	-0.189756	-0.073760
Zn8	Zn	0.990626	-0.201544	-0.097191
Zn9	Zn	0.990667	-0.201528	0.097232
O10	O	0.985594	-0.416305	-0.073759
C11	C	0.837642	-0.212363	0.000018
C12	C	0.744667	-0.209486	0.000017
C13	C	0.406849	-0.198913	0.000026
C14	C	0.431400	-0.362430	0.000359
C15	C	0.528099	-0.365538	0.000022
C16	C	0.574444	-0.204159	0.000022
C17	C	0.544705	-0.122416	-0.084243
C18	C	0.447900	-0.120447	-0.084310
C19	C	0.448055	-0.117094	0.083499
C20	C	0.544594	-0.123153	0.084609
C21	C	0.669163	-0.207116	0.000017
C22	C	0.312131	-0.195951	0.000026
C23	C	0.994716	0.068191	0.000017
C24	C	0.991823	0.231965	0.000020
C25	C	1.143651	-0.190709	0.000025
C26	C	1.236626	-0.193586	0.000032
C27	C	0.986578	-0.471263	0.000025
C28	C	0.989471	-0.635037	0.000028
N29	N	0.990603	-0.201555	-0.229880
C30	C	0.990666	-0.201522	-0.589082
C31	C	0.922563	-0.322338	-0.551474
C32	C	0.922725	-0.322778	-0.448648
C33	C	0.990634	-0.201538	-0.410878
C34	C	1.078256	-0.235127	-0.448167
C35	C	1.077875	-0.235986	-0.551025
C36	C	0.971923	-0.046759	-0.551185
C37	C	0.969926	-0.047792	-0.448322
C38	C	0.990622	-0.201545	-0.310164
C39	C	0.990684	-0.201519	-0.689795
N40	N	0.990696	-0.201506	0.229921
H41	H	0.563628	-0.182671	0.146948
Br42	Br	0.942836	-0.514219	-0.407611
Br43	Br	0.403890	-0.214826	-0.189295
H44	H	1.094214	-0.348852	-0.575004
H45	H	0.934493	-0.436539	-0.577310
Br46	Br	0.401519	-0.202282	0.189952
H47	H	0.575673	-0.003663	-0.087377
H48	H	0.403895	-0.425451	0.060790
Br49	Br	0.422126	0.079367	-0.090746
H50	H	0.546978	-0.429953	-0.060483
Br51	Br	0.813715	-0.289518	-0.592720
Br52	Br	0.578829	-0.217040	-0.188768
Br53	Br	0.862485	-0.005298	-0.407706
Br54	Br	0.423220	0.083516	0.084445
Br55	Br	1.164890	-0.094734	-0.592492
Br56	Br	0.598052	0.073181	0.093092
H57	H	0.547624	-0.429548	0.060429
H58	H	1.016217	0.046323	-0.422614
H59	H	0.402844	-0.425112	-0.059730
H60	H	0.857631	-0.302771	-0.423439
H61	H	1.130192	-0.149471	-0.423698
H62	H	1.021573	0.043148	-0.575504
H63	H	1.094954	-0.346707	-0.422395
H64	H	0.909354	-0.014452	-0.577177
