data_functionalizedCrystal
_audit_creation_method	'MofGen! by Chris Wilmer'
_symmetry_space_group_name_H-M	'P1'
_symmetry_Int_Tables_number	1
_symmetry_cell_setting	triclinic
loop_
_symmetry_equiv_pos_as_xyz
  x,y,z
_cell_length_a	13.032951
_cell_length_b	13.034248
_cell_length_c	13.032268
_cell_angle_alpha	74.856868
_cell_angle_beta	89.114265
_cell_angle_gamma	76.690196
loop_
_atom_site_label
_atom_site_type_symbol
_atom_site_fract_x
_atom_site_fract_y
_atom_site_fract_z
Zn1	Zn	-1.577859	0.728811	-0.883601
Zn2	Zn	-1.617113	0.889584	-0.734282
Zn3	Zn	-1.422807	0.683726	-0.683483
Zn4	Zn	-1.422725	0.883739	-0.883578
O5	O	-1.510126	0.796465	-0.796236
O6	O	-1.729308	0.771452	-0.885062
O7	O	-1.607800	0.845854	-0.581312
O8	O	-1.426981	0.538717	-0.688779
O9	O	-1.758147	0.889571	-0.775358
O10	O	-1.540897	0.571841	-0.835805
O11	O	-1.465044	0.694611	-0.543991
O12	O	-1.276554	0.688944	-0.688757
O13	O	-1.426842	0.879610	-1.029812
O14	O	-1.276494	0.835893	-0.835766
O15	O	-1.540818	0.765785	-1.029829
O16	O	-1.607721	1.039798	-0.775336
O17	O	-1.464905	1.035505	-0.885023
C18	C	-1.238605	0.756893	-0.756747
C19	C	-1.122448	0.739993	-0.739882
C20	C	-1.070681	0.805260	-0.805020
C21	C	-0.950626	0.787794	-0.787591
C22	C	-1.540589	1.076808	-0.835717
C23	C	-1.553713	1.196758	-0.852656
C24	C	-0.782706	0.836180	-0.835871
C25	C	-0.898862	0.853071	-0.852738
C26	C	-1.516827	1.357902	-0.804921
C27	C	-1.503262	1.233928	-0.787419
C28	C	-1.479442	0.827075	-1.068796
C29	C	-1.466366	0.840119	-1.184946
C30	C	-1.479528	1.515027	-0.756614
C31	C	-1.466383	1.395077	-0.739693
C32	C	-1.516930	0.789616	-1.236737
C33	C	-1.503417	0.803097	-1.356783
C34	C	-1.540742	0.765905	-0.524733
C35	C	-1.553987	0.752587	-0.408571
H36	H	-1.570062	1.417857	-0.873718
H37	H	-1.115241	0.874065	-0.873694
H38	H	-1.450032	1.173977	-0.718610
O39	O	-1.617067	1.268307	-0.934839
C40	C	-1.557017	1.332441	-1.002754
H41	H	-1.470294	1.287216	-0.992410
H42	H	-1.566365	1.413671	-0.981894
C43	C	-1.702460	1.409408	-1.131795
C44	C	-1.595946	1.353858	-1.119097
H45	H	-1.726475	1.422624	-1.203561
H46	H	-1.742918	1.366203	-1.086038
H47	H	-1.710235	1.477093	-1.114405
H48	H	-1.588174	1.286168	-1.136473
H49	H	-1.555487	1.397052	-1.164859
H50	H	-1.413157	1.335123	-0.670889
H51	H	-0.943416	0.921878	-0.921419
H52	H	-1.570219	0.736395	-1.192202
H53	H	-0.906068	0.718978	-0.718920
H54	H	-1.077886	0.671181	-0.671216
H55	H	-1.450112	0.856310	-1.401310
O56	O	-1.617703	0.689176	-1.355592
C57	C	-1.721460	0.730908	-1.400620
H58	H	-1.719284	0.781538	-1.486048
H59	H	-1.769539	0.784665	-1.352139
C60	C	-1.775462	0.573299	-1.294974
C61	C	-1.772789	0.635476	-1.399901
H62	H	-1.807127	0.514434	-1.294527
H63	H	-1.705560	0.545185	-1.264634
H64	H	-1.815527	0.618108	-1.254585
H65	H	-1.732714	0.590671	-1.440285
H66	H	-1.842685	0.663581	-1.430248
H67	H	-1.413065	0.893328	-1.229477
