data_functionalizedCrystal
_audit_creation_method	'MofGen! by Chris Wilmer'
_symmetry_space_group_name_H-M	'P1'
_symmetry_Int_Tables_number	1
_symmetry_cell_setting	triclinic
loop_
_symmetry_equiv_pos_as_xyz
  x,y,z
_cell_length_a	16.974800
_cell_length_b	10.489741
_cell_length_c	16.053802
_cell_angle_alpha	92.592148
_cell_angle_beta	91.074188
_cell_angle_gamma	83.963381
loop_
_atom_site_label
_atom_site_type_symbol
_atom_site_fract_x
_atom_site_fract_y
_atom_site_fract_z
O1	O	1.050000	0.162593	0.001544
O2	O	1.550000	0.662593	0.501544
O3	O	0.820649	0.182119	-0.013960
O4	O	1.320649	0.682119	0.486040
O5	O	0.940543	-0.013302	-0.005850
O6	O	1.440543	0.486698	0.494150
O7	O	0.930106	0.358013	-0.006566
O8	O	1.430106	0.858013	0.493434
O9	O	0.933944	-0.002590	0.132562
O10	O	1.433944	0.497410	0.632562
O11	O	0.814050	0.192831	0.124452
O12	O	1.314050	0.692831	0.624452
O13	O	1.043401	0.173305	0.139957
O14	O	1.543401	0.673305	0.639957
Zn15	Zn	0.927677	0.184769	0.154181
Zn16	Zn	1.427677	0.684769	0.654181
Zn17	Zn	0.936373	0.170655	-0.028184
Zn18	Zn	1.436373	0.670655	0.471816
O19	O	0.923507	0.368725	0.131847
O20	O	1.423507	0.868725	0.631847
C21	C	0.787981	0.186536	0.053261
C22	C	1.287981	0.686536	0.553261
C23	C	0.700473	0.183723	0.047345
C24	C	1.200473	0.683723	0.547345
C25	C	0.655768	0.188238	0.120017
C26	C	1.155768	0.688238	0.620017
C27	C	0.573546	0.185575	0.114461
C28	C	1.073546	0.685575	0.614461
C29	C	0.536029	0.178406	0.036233
C30	C	1.036029	0.678406	0.536233
C31	C	0.580740	0.173888	-0.036444
C32	C	1.080740	0.673888	0.463556
C33	C	0.662961	0.176541	-0.030887
C34	C	1.162961	0.676541	0.469113
C35	C	0.290510	0.169835	0.011524
C36	C	0.790510	0.669835	0.511524
C37	C	0.208282	0.167185	0.005972
C38	C	0.708282	0.667185	0.505972
C39	C	0.201094	0.178870	0.156878
C40	C	0.701094	0.678870	0.656878
C41	C	0.283317	0.181531	0.162428
C42	C	0.783317	0.681531	0.662428
C43	C	0.328021	0.177006	0.089751
C44	C	0.828021	0.677006	0.589751
N45	N	0.451984	0.175688	0.030552
N46	N	0.951984	0.675688	0.530552
N47	N	0.412065	0.179714	0.095433
N48	N	0.912065	0.679714	0.595433
C49	C	0.936455	-0.055468	0.063302
C50	C	1.436455	0.444532	0.563302
C51	C	0.934097	-0.197071	0.063141
C52	C	1.434097	0.302929	0.563141
C53	C	0.857812	-0.264336	0.057978
C54	C	1.357812	0.235664	0.557978
C55	C	0.890594	-0.351590	0.128659
C56	C	1.390594	0.148410	0.628659
C57	C	0.897119	-0.362126	-0.007804
C58	C	1.397119	0.137874	0.492196
C59	C	0.966908	-0.282456	0.133880
C60	C	1.466908	0.217544	0.633880
C61	C	0.973425	-0.292987	-0.002644
C62	C	1.473425	0.207013	0.497356
C63	C	1.006262	-0.380214	0.068057
C64	C	1.506262	0.119786	0.568057
C65	C	1.076069	0.168888	0.072734
C66	C	1.576069	0.668888	0.572734
C67	C	1.163578	0.171700	0.078644
C68	C	1.663578	0.671700	0.578644
C69	C	0.927595	0.410892	0.062692
C70	C	1.427595	0.910892	0.562692
C71	C	0.929953	0.552494	0.062848
C72	C	1.429953	1.052494	0.562848
N73	N	0.921749	0.194400	0.278640
N74	N	1.421749	0.694400	0.778640
N75	N	0.942307	0.161014	-0.152643
N76	N	1.442307	0.661014	0.347357
C77	C	0.972783	0.111278	0.325786
C78	C	1.472783	0.611278	0.825786
C79	C	0.968643	0.118028	0.412913
C80	C	1.468643	0.618028	0.912913
C81	C	0.913473	0.207906	0.452892
C82	C	1.413473	0.707906	0.952892
C83	C	0.862433	0.291031	0.405739
C84	C	1.362433	0.791031	0.905739
C85	C	0.866570	0.284275	0.318614
C86	C	1.366570	0.784275	0.818614
C87	C	0.895404	0.237383	0.713079
C88	C	1.395404	0.737383	1.213079
C89	C	0.891273	0.244135	0.800211
C90	C	1.391273	0.744135	1.300211
C91	C	0.997482	0.071129	0.807378
C92	C	1.497482	0.571129	1.307378
C93	C	1.001617	0.064386	0.720251
C94	C	1.501617	0.564386	1.220251
C95	C	0.950575	0.147507	0.673106
C96	C	1.450575	0.647507	1.173106
N97	N	0.909242	0.214810	0.541949
N98	N	1.409242	0.714810	1.041949
N99	N	0.954803	0.140596	0.584050
N100	N	1.454803	0.640596	1.084050
H101	H	0.537152	0.189230	0.173638
H102	H	1.037152	0.689230	0.673638
Cl103	Cl	0.702923	0.197258	0.218366
Cl104	Cl	1.202923	0.697258	0.718366
H105	H	0.996404	-0.247524	0.193821
H106	H	1.496404	0.252476	0.693821
H107	H	0.795087	-0.213959	0.053807
H108	H	1.295087	0.286041	0.553807
H109	H	0.313858	0.187363	0.226130
H110	H	0.813858	0.687363	0.726130
Cl111	Cl	0.793071	0.404017	0.455997
Cl112	Cl	1.293071	0.904017	0.955997
Cl113	Cl	0.346698	0.164148	-0.079843
Cl114	Cl	0.846698	0.664148	0.420157
H115	H	0.855565	-0.377766	0.184173
H116	H	1.355565	0.122234	0.684173
H117	H	0.164688	0.182553	0.216047
H118	H	0.664688	0.682553	0.716047
Cl119	Cl	0.831242	0.341880	0.653817
Cl120	Cl	1.331242	0.841880	1.153817
Cl121	Cl	0.533579	0.164828	-0.134789
Cl122	Cl	1.033579	0.664828	0.365211
H123	H	1.008427	-0.266778	-0.058163
H124	H	1.508427	0.233222	0.441837
Cl125	Cl	0.821910	0.357139	0.850465
Cl126	Cl	1.321910	0.857139	1.350465
H127	H	0.825012	0.351960	0.280228
H128	H	1.325012	0.851960	0.780228
H129	H	1.069038	-0.430355	0.072338
H130	H	1.569038	0.069645	0.572338
Cl131	Cl	1.070976	-0.048604	0.669991
Cl132	Cl	1.570976	0.451396	1.169991
H133	H	0.699359	0.172867	-0.090064
H134	H	1.199359	0.672867	0.409936
Cl135	Cl	0.161119	0.158176	-0.092379
Cl136	Cl	0.661119	0.658176	0.407621
H137	H	0.867583	-0.397185	-0.067687
H138	H	1.367583	0.102815	0.432313
H139	H	1.017712	0.038095	0.293241
H140	H	1.517712	0.538095	0.793241
Cl141	Cl	1.061643	-0.033364	0.866649
Cl142	Cl	1.561643	0.466636	1.366649
H143	H	1.010199	0.050342	0.451299
H144	H	1.510199	0.550342	0.951299
