data_functionalizedCrystal
_audit_creation_method	'MofGen! by Chris Wilmer'
_symmetry_space_group_name_H-M	'P1'
_symmetry_Int_Tables_number	1
_symmetry_cell_setting	triclinic
loop_
_symmetry_equiv_pos_as_xyz
  x,y,z
_cell_length_a	12.827893
_cell_length_b	12.594516
_cell_length_c	12.827885
_cell_angle_alpha	90.028054
_cell_angle_beta	90.019272
_cell_angle_gamma	90.016213
loop_
_atom_site_label
_atom_site_type_symbol
_atom_site_fract_x
_atom_site_fract_y
_atom_site_fract_z
Zn1	Zn	1.597665	-0.423686	0.590861
Zn2	Zn	2.097665	0.076314	1.090861
Zn3	Zn	1.597557	-0.601702	0.416127
Zn4	Zn	2.097557	-0.101702	0.916127
Zn5	Zn	1.422906	-0.423738	0.416135
Zn6	Zn	1.922906	0.076262	0.916135
Zn7	Zn	1.422889	-0.601623	0.590827
Zn8	Zn	1.922889	-0.101623	1.090827
O9	O	1.510254	-0.512687	0.503487
O10	O	2.010254	-0.012687	1.003487
O11	O	1.743887	-0.447311	0.567693
O12	O	2.243887	0.052689	1.067693
O13	O	1.574351	-0.578150	0.269892
O14	O	2.074351	-0.078150	0.769892
O15	O	1.446140	-0.274786	0.439330
O16	O	1.946140	0.225214	0.939330
O17	O	1.743807	-0.578099	0.439317
O18	O	2.243807	-0.078099	0.939317
O19	O	1.574535	-0.274747	0.567701
O20	O	2.074535	0.225253	1.067701
O21	O	1.446036	-0.447400	0.269898
O22	O	1.946036	0.052600	0.769898
O23	O	1.276668	-0.447324	0.439297
O24	O	1.776668	0.052676	0.939297
O25	O	1.446112	-0.577965	0.737067
O26	O	1.946112	-0.077965	1.237067
O27	O	1.276656	-0.578016	0.567642
O28	O	1.776656	-0.078016	1.067642
O29	O	1.574519	-0.447235	0.737093
O30	O	2.074519	0.052765	1.237093
O31	O	1.574335	-0.750637	0.439283
O32	O	2.074335	-0.250637	0.939283
O33	O	1.446007	-0.750580	0.567635
O34	O	1.946007	-0.250580	1.067635
C35	C	1.238744	-0.512668	0.503468
C36	C	1.738744	-0.012668	1.003468
C37	C	1.122591	-0.512685	0.503484
C38	C	1.622591	-0.012685	1.003484
C39	C	1.070846	-0.448082	0.567108
C40	C	1.570846	0.051918	1.067108
C41	C	0.950795	-0.448098	0.567126
C42	C	1.450795	0.051902	1.067126
C43	C	1.510186	-0.789228	0.503477
C44	C	2.010186	-0.289228	1.003477
C45	C	1.510252	-0.907534	0.503508
C46	C	2.010252	-0.407534	1.003508
C47	C	1.440448	-0.976794	0.573269
C48	C	1.940448	-0.476794	1.073269
C49	C	1.414986	-1.047663	0.477914
C50	C	1.914986	-0.547663	0.977914
C51	C	1.535809	-1.047464	0.598879
C52	C	2.035809	-0.547464	1.098879
C53	C	1.484740	-0.976844	0.408102
C54	C	1.984740	-0.476844	0.908102
C55	C	1.605607	-0.976639	0.529132
C56	C	2.105607	-0.476639	1.029132
C57	C	1.580182	-1.047476	0.433711
C58	C	2.080182	-0.547476	0.933711
C59	C	1.782824	-0.512708	0.503508
C60	C	2.282824	-0.012708	1.003508
C61	C	1.898978	-0.512717	0.503517
C62	C	2.398978	-0.012717	1.003517
C63	C	1.510325	-0.512585	0.776058
C64	C	2.010325	-0.012585	1.276058
C65	C	1.510356	-0.512542	0.892211
C66	C	2.010356	-0.012542	1.392211
C67	C	1.510352	-0.235067	0.503521
C68	C	2.010352	0.264933	1.003521
C69	C	1.510393	-0.116761	0.503535
C70	C	2.010393	0.383239	1.003535
C71	C	1.510244	-0.512712	0.231978
C72	C	2.010244	-0.012712	0.731978
C73	C	1.510416	-0.512456	0.115825
C74	C	2.010416	-0.012456	0.615825
C75	C	1.573902	-0.447840	0.944008
C76	C	2.073902	0.052160	1.444008
C77	C	1.573935	-0.447793	1.064059
C78	C	2.073935	0.052207	1.564059
H79	H	0.906295	-0.392793	0.621600
H80	H	1.406295	0.107207	1.121600
H81	H	0.943471	-0.568034	0.449049
H82	H	1.443471	-0.068034	0.949049
N83	N	1.642110	-0.378372	0.888154
N84	N	2.142110	0.121628	1.388154
N85	N	1.605289	-0.310622	0.827237
N86	N	2.105289	0.189378	1.327237
H87	H	1.653460	-0.261557	0.787791
H88	H	2.153460	0.238443	1.287791
N89	N	1.654307	-1.086159	0.359626
N90	N	2.154307	-0.586159	0.859626
N91	N	1.644776	-1.063319	0.265288
N92	N	2.144776	-0.563319	0.765288
H93	H	1.697123	-1.090640	0.212962
H94	H	2.197123	-0.590640	0.712962
H95	H	1.463087	-0.945951	0.327436
H96	H	1.963087	-0.445951	0.827436
H97	H	1.456012	-0.567857	1.071287
H98	H	1.956012	-0.067857	1.571287
H99	H	1.078016	-0.568004	0.449025
H100	H	1.578016	-0.068004	0.949025
N101	N	1.706666	-0.937485	0.556358
N102	N	2.206666	-0.437485	1.056358
N103	N	1.745546	-0.960032	0.642921
N104	N	2.245546	-0.460032	1.142921
H105	H	1.816920	-0.932379	0.662161
H106	H	2.316920	-0.432379	1.162161
H107	H	1.557369	-1.078485	0.679523
H108	H	2.057369	-0.578485	1.179523
H109	H	1.455969	-0.567894	0.936742
H110	H	1.955969	-0.067894	1.436742
N111	N	1.126770	-0.378676	0.635413
N112	N	1.626770	0.121324	1.135413
N113	N	1.224212	-0.378758	0.635298
N114	N	1.724212	0.121242	1.135298
H115	H	1.263709	-0.329737	0.683540
H116	H	1.763709	0.170263	1.183540
N117	N	1.366257	-0.937867	0.647167
N118	N	1.866257	-0.437867	1.147167
N119	N	1.271910	-0.960680	0.637481
N120	N	1.771910	-0.460680	1.137481
H121	H	1.219510	-0.933188	0.689666
H122	H	1.719510	-0.433188	1.189666
H123	H	1.628343	-0.392403	1.108603
H124	H	2.128343	0.107597	1.608603
H125	H	1.334412	-1.078883	0.456263
H126	H	1.834412	-0.578883	0.956263
