data_functionalizedCrystal
_audit_creation_method	'MofGen! by Chris Wilmer'
_symmetry_space_group_name_H-M	'P1'
_symmetry_Int_Tables_number	1
_symmetry_cell_setting	triclinic
loop_
_symmetry_equiv_pos_as_xyz
  x,y,z
_cell_length_a	14.044220
_cell_length_b	13.101039
_cell_length_c	14.044220
_cell_angle_alpha	86.332523
_cell_angle_beta	86.811122
_cell_angle_gamma	86.340132
loop_
_atom_site_label
_atom_site_type_symbol
_atom_site_fract_x
_atom_site_fract_y
_atom_site_fract_z
O1	O	1.281968	-0.085109	-0.225348
O2	O	1.005298	-0.085135	-0.217041
O3	O	1.139480	-0.085112	-0.082860
O4	O	1.147787	-0.085132	-0.359530
O5	O	1.129854	0.085316	-0.092504
O6	O	0.995673	0.085293	-0.226686
O7	O	1.272343	0.085319	-0.234993
Zn8	Zn	1.132479	0.112365	-0.232371
Zn9	Zn	1.145162	-0.112181	-0.219663
O10	O	1.138161	0.085296	-0.369175
C11	C	0.964864	0.000076	-0.218228
C12	C	0.858722	0.000066	-0.207383
N13	N	1.123831	0.265612	-0.241043
C14	C	1.131031	0.000102	-0.052060
C15	C	1.120187	0.000102	0.054083
C16	C	0.664383	0.000088	-0.187558
C17	C	0.613253	0.000087	-0.264472
C18	C	0.505116	0.000099	-0.253441
C19	C	0.772529	0.000076	-0.198587
C20	C	1.312777	0.000106	-0.233806
C21	C	1.418920	0.000109	-0.244651
N22	N	1.153817	-0.265428	-0.210984
C23	C	1.112065	0.474653	-0.252851
C24	C	1.165580	0.525538	-0.199179
C25	C	1.159034	0.641855	-0.205749
C26	C	1.118610	0.358325	-0.246282
C27	C	1.146610	0.000080	-0.399974
C28	C	1.157455	0.000073	-0.506116
C29	C	1.100362	0.000086	0.248421
C30	C	1.177276	0.000090	0.299551
C31	C	1.166245	0.000080	0.407688
C32	C	1.111391	0.000095	0.140275
H33	H	0.650693	0.000077	-0.338605
H34	H	1.251413	0.000028	0.262115
C35	C	0.613811	0.000094	-0.087413
C36	C	0.625739	0.088590	-0.022823
C37	C	0.575153	0.088592	0.077320
C38	C	0.512639	0.000097	0.112872
C39	C	0.500709	-0.088407	0.048281
C40	C	0.551295	-0.088408	-0.051862
H41	H	0.672017	0.154106	-0.049140
H42	H	0.583985	0.154108	0.125135
H43	H	0.475192	0.000098	0.187004
H44	H	0.454430	-0.153922	0.074598
H45	H	0.542462	-0.153925	-0.099677
C46	C	1.234126	0.466382	-0.130443
C47	C	1.240613	0.348382	-0.123834
C48	C	1.309159	0.289221	-0.055105
C49	C	1.371218	0.348059	0.007016
C50	C	1.364733	0.466066	0.000409
C51	C	1.296187	0.525227	-0.068320
H52	H	1.194672	0.304821	-0.169822
H53	H	1.313959	0.201864	-0.050215
H54	H	1.421960	0.304265	0.057893
H55	H	1.410675	0.509627	0.046397
H56	H	1.291387	0.612584	-0.073210
H57	H	1.061336	0.518442	-0.303733
C58	C	1.000217	0.000074	0.298992
C59	C	0.989185	0.000067	0.408700
C60	C	0.889042	0.000057	0.459284
C61	C	0.799930	0.000055	0.400159
C62	C	0.810958	0.000062	0.290445
C63	C	0.911102	0.000072	0.239861
H64	H	1.055154	0.000069	0.452473
H65	H	0.880878	0.000052	0.540502
H66	H	0.725797	0.000047	0.437604
H67	H	0.744990	0.000060	0.246672
H68	H	0.919265	0.000077	0.158643
