data_functionalizedCrystal
_audit_creation_method	'MofGen! by Chris Wilmer'
_symmetry_space_group_name_H-M	'P1'
_symmetry_Int_Tables_number	1
_symmetry_cell_setting	triclinic
loop_
_symmetry_equiv_pos_as_xyz
  x,y,z
_cell_length_a	19.188933
_cell_length_b	19.188930
_cell_length_c	15.455313
_cell_angle_alpha	92.650876
_cell_angle_beta	87.329187
_cell_angle_gamma	83.145175
loop_
_atom_site_label
_atom_site_type_symbol
_atom_site_fract_x
_atom_site_fract_y
_atom_site_fract_z
O1	O	0.929213	0.084112	-0.072111
O2	O	1.429213	0.584112	0.427889
O3	O	0.725902	0.095844	-0.072121
O4	O	1.225902	0.595844	0.427879
O5	O	0.833424	-0.011677	-0.072099
O6	O	1.333424	0.488323	0.427901
O7	O	0.821691	0.191633	-0.072133
O8	O	1.321691	0.691633	0.427867
O9	O	0.827275	-0.005554	0.072162
O10	O	1.327275	0.494446	0.572162
O11	O	0.719754	0.101967	0.072140
O12	O	1.219754	0.601967	0.572140
O13	O	0.923064	0.090235	0.072150
O14	O	1.423064	0.590235	0.572150
Cu15	Cu	0.820847	0.096660	0.085317
Cu16	Cu	1.320847	0.596660	0.585317
Cu17	Cu	0.828119	0.089419	-0.085288
Cu18	Cu	1.328119	0.589419	0.414712
O19	O	0.815542	0.197756	0.072128
O20	O	1.315542	0.697756	0.572128
C21	C	0.696817	0.098525	0.000009
C22	C	1.196817	0.598525	0.500009
C23	C	0.619312	0.097384	0.000006
C24	C	1.119312	0.597384	0.500006
C25	C	0.069408	0.085901	-0.078620
C26	C	0.569408	0.585901	0.421380
C27	C	0.142233	0.086969	-0.078623
C28	C	0.642233	0.586969	0.421377
C29	C	0.175298	0.090845	0.000013
C30	C	0.675298	0.590845	0.500013
C31	C	0.135535	0.093634	0.078659
C32	C	0.635535	0.593634	0.578659
C33	C	0.062713	0.092559	0.078660
C34	C	0.562713	0.592559	0.578660
N35	N	0.281824	0.134747	0.058538
N36	N	0.781824	0.634747	0.558538
N37	N	0.351002	0.135770	0.058532
N38	N	0.851002	0.635770	0.558532
C39	C	0.394707	0.094082	0.000014
C40	C	0.894707	0.594082	0.500014
N41	N	0.366620	0.051342	-0.058511
N42	N	0.866620	0.551342	0.441489
N43	N	0.297435	0.050323	-0.058507
N44	N	0.797435	0.550323	0.441493
C45	C	0.254261	0.092010	0.000020
C46	C	0.754261	0.592010	0.500020
C47	C	0.513426	0.092446	-0.078631
C48	C	1.013426	0.592446	0.421369
C49	C	0.586252	0.093510	-0.078631
C50	C	1.086252	0.593510	0.421369
C51	C	0.579552	0.100182	0.078653
C52	C	1.079552	0.600182	0.578653
C53	C	0.506728	0.099111	0.078651
C54	C	1.006728	0.599111	0.578651
C55	C	0.473669	0.095246	0.000007
C56	C	0.973669	0.595246	0.500007
C57	C	0.829969	-0.034626	0.000034
C58	C	1.329969	0.465374	0.500034
C59	C	0.828828	-0.112131	0.000042
C60	C	1.328828	0.387869	0.500042
C61	C	0.891919	-0.157054	0.000049
C62	C	1.391919	0.342946	0.500049
C63	C	0.890848	-0.229878	0.000035
C64	C	1.390848	0.270122	0.500035
C65	C	0.826682	-0.257775	0.000031
C66	C	1.326682	0.242225	0.500031
C67	C	0.763583	-0.212842	0.000019
C68	C	1.263583	0.287158	0.500019
C69	C	0.764657	-0.140020	0.000024
C70	C	1.264657	0.359980	0.500024
N71	N	0.775542	-0.363697	0.049124
N72	N	1.275542	0.136303	0.549124
N73	N	0.774527	-0.432876	0.049121
N74	N	1.274527	0.067124	0.549121
C75	C	0.823445	-0.477185	0.000013
C76	C	1.323445	0.022815	0.500013
N77	N	0.873426	-0.449703	-0.049079
N78	N	1.373426	0.050297	0.450921
N79	N	0.874443	-0.380518	-0.049072
N80	N	1.374443	0.119482	0.450928
C81	C	0.825511	-0.336738	0.000025
C82	C	1.325511	0.163262	0.500025
C83	C	0.885378	-0.601073	0.000004
C84	C	1.385378	-0.101073	0.500004
C85	C	0.884305	-0.673899	-0.000015
C86	C	1.384305	-0.173899	0.499985
C87	C	0.757038	-0.656861	-0.000022
C88	C	1.257038	-0.156861	0.499978
C89	C	0.758114	-0.584037	-0.000011
C90	C	1.258114	-0.084037	0.499989
C91	C	0.822285	-0.556148	0.000006
C92	C	1.322285	-0.056148	0.500006
C93	C	0.952149	0.087553	0.000018
C94	C	1.452149	0.587553	0.500018
C95	C	1.029654	0.088694	0.000015
C96	C	1.529654	0.588694	0.500015
C97	C	0.818997	0.220705	-0.000007
C98	C	1.318997	0.720705	0.499993
C99	C	0.820138	0.298209	-0.000020
C100	C	1.320138	0.798209	0.499980
N101	N	0.815738	0.101753	0.205312
N102	N	1.315738	0.601753	0.705312
N103	N	0.833233	0.084320	-0.205283
N104	N	1.333233	0.584320	0.294717
C105	C	0.861433	0.056091	0.250715
C106	C	1.361433	0.556091	0.750715
C107	C	0.857576	0.059949	0.341522
C108	C	1.357576	0.559949	0.841522
C109	C	0.808026	0.109473	0.386924
C110	C	1.308026	0.609473	0.886924
C111	C	0.762327	0.155137	0.341514
C112	C	1.262327	0.655137	0.841514
C113	C	0.766181	0.151275	0.250709
C114	C	1.266181	0.651275	0.750709
C115	C	0.791388	0.126123	0.658502
C116	C	1.291388	0.626123	1.158502
C117	C	0.787539	0.129982	0.749314
C118	C	1.287539	0.629982	1.249314
C119	C	0.882787	0.034793	0.749316
C120	C	1.382787	0.534793	1.249316
C121	C	0.886640	0.030939	0.658508
C122	C	1.386640	0.530939	1.158508
C123	C	0.840938	0.076600	0.613107
C124	C	1.340938	0.576600	1.113107
N125	N	0.804084	0.113419	0.479744
N126	N	1.304084	0.613419	0.979744
N127	N	0.844878	0.072650	0.520289
N128	N	1.344878	0.572650	1.020289
H129	H	0.174606	0.084699	-0.142660
H130	H	0.674606	0.584699	0.357340
H131	H	0.486508	0.089297	-0.142668
H132	H	0.986508	0.589297	0.357332
H133	H	0.030345	0.094836	0.142696
H134	H	0.530345	0.594836	0.642696
H135	H	0.926987	-0.009388	0.621544
H136	H	1.426987	0.490612	1.121544
O137	O	0.694754	-0.684038	-0.000144
O138	O	1.194754	-0.184038	0.499856
C139	C	0.622852	-0.759492	-0.074927
C140	C	1.122852	-0.259492	0.425073
C141	C	0.693426	-0.728775	-0.074881
C142	C	1.193426	-0.228775	0.425119
H143	H	0.621749	-0.795656	-0.135354
H144	H	1.121749	-0.295656	0.364646
H145	H	0.616582	-0.790656	-0.014600
H146	H	1.116582	-0.290656	0.485400
H147	H	0.577953	-0.714856	-0.074885
H148	H	1.077953	-0.214856	0.425115
H149	H	0.738366	-0.773367	-0.074953
H150	H	1.238366	-0.273367	0.425047
H151	H	0.699634	-0.697592	-0.135202
H152	H	1.199634	-0.197592	0.364798
H153	H	0.942225	-0.266462	0.000037
H154	H	1.442225	0.233538	0.500037
H155	H	0.162462	0.096788	0.142685
H156	H	0.662462	0.596788	0.642685
H157	H	0.901784	0.015766	0.213755
H158	H	1.401784	0.515766	0.713755
H159	H	0.711339	-0.235561	0.000014
H160	H	1.211339	0.264439	0.500014
O161	O	0.747102	0.170512	0.614316
O162	O	1.247102	0.670512	1.114316
C163	C	0.736300	0.261589	0.511827
C164	C	1.236300	0.761589	1.011827
C165	C	0.786534	0.211336	0.561800
C166	C	1.286534	0.711336	1.061800
H167	H	0.768160	0.294619	0.469370
H168	H	1.268160	0.794619	0.969370
H169	H	0.703323	0.229769	0.469272
H170	H	1.203323	0.729769	0.969272
H171	H	0.700218	0.297617	0.559900
H172	H	1.200218	0.797617	1.059900
H173	H	0.822659	0.175297	0.513790
H174	H	1.322659	0.675297	1.013790
H175	H	0.819462	0.243199	0.604369
H176	H	1.319462	0.743199	1.104369
H177	H	0.728971	0.188457	0.213742
H178	H	1.228971	0.688457	0.713742
O179	O	0.714161	0.203152	0.385713
O180	O	1.214161	0.703152	0.885713
C181	C	0.614391	0.222606	0.488219
C182	C	1.114391	0.722606	0.988219
C183	C	0.668905	0.168153	0.438235
C184	C	1.168905	0.668153	0.938235
H185	H	0.577778	0.194330	0.530681
H186	H	1.077778	0.694330	1.030681
H187	H	0.642582	0.259212	0.530770
H188	H	1.142582	0.759212	1.030770
H189	H	0.582423	0.254592	0.440153
H190	H	1.082423	0.754592	0.940153
H191	H	0.700889	0.136118	0.486239
H192	H	1.200889	0.636118	0.986239
H193	H	0.640672	0.131595	0.395671
H194	H	1.140672	0.631595	0.895671
O195	O	0.703301	-0.096475	0.000061
O196	O	1.203301	0.403525	0.500061
C197	C	0.576962	-0.087264	-0.000003
C198	C	1.076962	0.412736	0.499997
C199	C	0.646393	-0.136659	-0.000026
C200	C	1.146393	0.363341	0.499974
H201	H	0.530934	-0.119733	-0.000092
H202	H	1.030934	0.380267	0.499908
H203	H	0.571660	-0.050206	0.060388
H204	H	1.071660	0.449794	0.560388
H205	H	0.576896	-0.055280	-0.060358
H206	H	1.076896	0.444720	0.439642
H207	H	0.646507	-0.168688	0.060287
H208	H	1.146507	0.331312	0.560287
H209	H	0.651668	-0.173670	-0.060458
H210	H	1.151668	0.326330	0.439542
O211	O	0.945543	-0.717607	0.000103
O212	O	1.445543	-0.217607	0.500103
C213	C	1.015016	-0.806528	0.074861
C214	C	1.515016	-0.306528	0.574861
C215	C	0.945627	-0.757074	0.074826
C216	C	1.445627	-0.257074	0.574826
H217	H	1.015113	-0.838439	0.135277
H218	H	1.515113	-0.338439	0.635277
H219	H	1.020278	-0.843644	0.014523
H220	H	1.520278	-0.343644	0.514523
H221	H	1.061054	-0.774071	0.074832
H222	H	1.561054	-0.274071	0.574832
H223	H	0.899549	-0.789474	0.074886
H224	H	1.399549	-0.289474	0.574886
H225	H	0.940427	-0.719956	0.135159
H226	H	1.440427	-0.219956	0.635159
O227	O	0.624919	0.090674	-0.154999
O228	O	1.124919	0.590674	0.345001
C229	C	0.719147	0.027571	-0.246255
C230	C	1.219147	0.527571	0.253745
C231	C	0.675398	0.030687	-0.159747
C232	C	1.175398	0.530687	0.340253
H233	H	0.759979	-0.020917	-0.250115
H234	H	1.259979	0.479083	0.249885
H235	H	0.683046	0.024580	-0.302495
H236	H	1.183046	0.524580	0.197505
H237	H	0.746836	0.076779	-0.250173
H238	H	1.246836	0.576779	0.249827
H239	H	0.647704	-0.018510	-0.155744
H240	H	1.147704	0.481490	0.344256
H241	H	0.711533	0.033713	-0.103548
H242	H	1.211533	0.533713	0.396452
O243	O	0.037365	0.082230	-0.155069
O244	O	0.537365	0.582230	0.344931
C245	C	0.012682	0.136690	-0.289485
C246	C	0.512682	0.636690	0.210515
C247	C	0.049017	0.140929	-0.202947
C248	C	0.549017	0.640929	0.297053
H249	H	0.022077	0.184149	-0.328211
H250	H	0.522077	0.684149	0.171789
H251	H	0.035209	0.086436	-0.328315
H252	H	0.535209	0.586436	0.171685
H253	H	-0.046188	0.136366	-0.275962
H254	H	0.453812	0.636366	0.224038
H255	H	0.107890	0.141281	-0.216391
H256	H	0.607890	0.641281	0.283609
H257	H	0.026434	0.191176	-0.164144
H258	H	0.526434	0.691176	0.335856
O259	O	0.611754	0.103849	0.154987
O260	O	1.111754	0.603849	0.654987
C261	C	0.698145	0.048432	0.246296
C262	C	1.198145	0.548432	0.746296
C263	C	0.661742	0.044204	0.159806
C264	C	1.161742	0.544204	0.659806
H265	H	0.738558	0.000208	0.250228
H266	H	1.238558	0.500208	0.750228
H267	H	0.725585	0.097919	0.250239
H268	H	1.225585	0.597919	0.750239
H269	H	0.657200	0.050279	0.302485
H270	H	1.157200	0.550279	0.802485
H271	H	0.702642	0.042328	0.103567
H272	H	1.202642	0.542328	0.603567
H273	H	0.634288	-0.005276	0.155939
H274	H	1.134288	0.494724	0.655939
H275	H	0.706738	-0.547459	-0.000012
H276	H	1.206738	-0.047459	0.499988
O277	O	0.927271	-0.009501	0.793378
O278	O	1.427271	0.490499	1.293378
C279	C	1.047615	-0.049580	0.821097
C280	C	1.547615	0.450420	1.321097
C281	C	0.997318	0.000639	0.771162
C282	C	1.497318	0.500639	1.271162
H283	H	1.104260	-0.041410	0.803140
H284	H	1.604260	0.458590	1.303140
H285	H	1.036413	-0.038320	0.893808
H286	H	1.536413	0.461680	1.393808
H287	H	1.039404	-0.106229	0.803266
H288	H	1.539404	0.393771	1.303266
H289	H	1.005500	0.057306	0.788920
H290	H	1.505500	0.557306	1.288920
H291	H	1.008533	-0.010681	0.698463
H292	H	1.508533	0.489319	1.198463
H293	H	0.944173	-0.134351	0.000060
H294	H	1.444173	0.365649	0.500060
O295	O	0.468206	0.101869	0.155116
O296	O	0.968206	0.601869	0.655116
C297	C	0.469254	0.108559	0.311117
C298	C	0.969254	0.608559	0.811117
C299	C	0.512961	0.105458	0.224580
C300	C	1.012961	0.605458	0.724580
H301	H	0.505422	0.111447	0.367301
H302	H	1.005422	0.611447	0.867301
H303	H	0.428469	0.157088	0.315102
H304	H	0.928469	0.657088	0.815102
H305	H	0.441513	0.059381	0.315009
H306	H	0.941513	0.559381	0.815009
H307	H	0.540746	0.154601	0.220630
H308	H	1.040746	0.654601	0.720630
H309	H	0.553705	0.056898	0.220631
H310	H	1.053705	0.556898	0.720631
H311	H	0.937631	-0.578365	0.000014
H312	H	1.437631	-0.078365	0.500014
H313	H	0.894783	0.022767	0.378489
H314	H	1.394783	0.522767	0.878489
H315	H	0.747188	0.170313	0.786276
H316	H	1.247188	0.670313	1.286276
