data_functionalizedCrystal
_audit_creation_method	'MofGen! by Chris Wilmer'
_symmetry_space_group_name_H-M	'P1'
_symmetry_Int_Tables_number	1
_symmetry_cell_setting	triclinic
loop_
_symmetry_equiv_pos_as_xyz
  x,y,z
_cell_length_a	21.395362
_cell_length_b	18.215405
_cell_length_c	18.215399
_cell_angle_alpha	89.967040
_cell_angle_beta	89.963930
_cell_angle_gamma	90.040762
loop_
_atom_site_label
_atom_site_type_symbol
_atom_site_fract_x
_atom_site_fract_y
_atom_site_fract_z
Zn1	Zn	0.957836	-0.292662	-0.416481
Zn2	Zn	1.291170	0.040671	-0.083147
Zn3	Zn	1.624503	0.374004	0.250186
Zn4	Zn	0.957764	-0.415739	-0.293409
Zn5	Zn	1.291097	-0.082405	0.039925
Zn6	Zn	1.624430	0.250928	0.373258
Zn7	Zn	0.853065	-0.292725	-0.293387
Zn8	Zn	1.186399	0.040609	0.039947
Zn9	Zn	1.519732	0.373942	0.373280
Zn10	Zn	0.853031	-0.415726	-0.416392
Zn11	Zn	1.186364	-0.082393	-0.083059
Zn12	Zn	1.519698	0.250941	0.250274
O13	O	0.905424	-0.354213	-0.354917
O14	O	1.238757	-0.020880	-0.021584
O15	O	1.572091	0.312454	0.311750
O16	O	1.045504	-0.308968	-0.400201
O17	O	1.378838	0.024365	-0.066868
O18	O	1.712171	0.357699	0.266466
O19	O	0.943859	-0.399452	-0.190421
O20	O	1.277193	-0.066119	0.142912
O21	O	1.610526	0.267214	0.476245
O22	O	0.867008	-0.189732	-0.309743
O23	O	1.200342	0.143601	0.023590
O24	O	1.533675	0.476934	0.356924
O25	O	1.045451	-0.399392	-0.309781
O26	O	1.378785	-0.066058	0.023553
O27	O	1.712118	0.267275	0.356886
O28	O	0.943983	-0.189686	-0.400180
O29	O	1.277316	0.143647	-0.066846
O30	O	1.610650	0.476980	0.266487
O31	O	0.866938	-0.309074	-0.190405
O32	O	1.200271	0.024259	0.142928
O33	O	1.533605	0.357592	0.476261
O34	O	0.765383	-0.309062	-0.309657
O35	O	1.098716	0.024272	0.023676
O36	O	1.432050	0.357605	0.357009
O37	O	0.866949	-0.399370	-0.519388
O38	O	1.200283	-0.066036	-0.186055
O39	O	1.533616	0.267297	0.147278
O40	O	0.765358	-0.399430	-0.400029
O41	O	1.098691	-0.066097	-0.066696
O42	O	1.432024	0.267237	0.266638
O43	O	0.943949	-0.308955	-0.519453
O44	O	1.277283	0.024378	-0.186120
O45	O	1.610616	0.357711	0.147213
O46	O	0.943826	-0.518721	-0.309695
O47	O	1.277159	-0.185388	0.023638
O48	O	1.610493	0.147945	0.356972
O49	O	0.866879	-0.518712	-0.400051
O50	O	1.200213	-0.185379	-0.066717
O51	O	1.533546	0.147955	0.266616
C52	C	0.742636	-0.354252	-0.354832
C53	C	1.075970	-0.020919	-0.021498
C54	C	1.409303	0.312415	0.311835
C55	C	0.672995	-0.354286	-0.354813
C56	C	1.006328	-0.020953	-0.021479
C57	C	1.339662	0.312380	0.311854
C58	C	0.640285	-0.401403	-0.401799
C59	C	0.973619	-0.068070	-0.068465
C60	C	1.306952	0.265263	0.264868
C61	C	0.574850	-0.401385	-0.401832
C62	C	0.908183	-0.068052	-0.068498
C63	C	1.241516	0.265281	0.264835
C64	C	0.542127	-0.354258	-0.354865
C65	C	0.875460	-0.020925	-0.021532
C66	C	1.208794	0.312409	0.311802
C67	C	0.574845	-0.307132	-0.307876
C68	C	0.908178	0.026202	0.025458
C69	C	1.241511	0.359535	0.358791
C70	C	0.640279	-0.307146	-0.307849
C71	C	0.973612	0.026188	0.025484
C72	C	1.306945	0.359521	0.358817
C73	C	0.438409	-0.348344	-0.288613
C74	C	0.771743	-0.015011	0.044720
C75	C	1.105076	0.318322	0.378054
C76	C	0.372976	-0.348335	-0.288638
C77	C	0.706310	-0.015002	0.044695
C78	C	1.039643	0.318331	0.378029
C79	C	0.340306	-0.354210	-0.354946
C80	C	0.673639	-0.020877	-0.021613
C81	C	1.006973	0.312457	0.311720
C82	C	0.373077	-0.360109	-0.421232
C83	C	0.706410	-0.026775	-0.087898
C84	C	1.039744	0.306558	0.245435
C85	C	0.438511	-0.360123	-0.421206
C86	C	0.771844	-0.026790	-0.087872
C87	C	1.105178	0.306544	0.245461
C88	C	0.471175	-0.354237	-0.354889
C89	C	0.804508	-0.020904	-0.021555
C90	C	1.137841	0.312430	0.311778
C91	C	0.236644	-0.401310	-0.401972
C92	C	0.569977	-0.067977	-0.068639
C93	C	0.903310	0.265357	0.264695
C94	C	0.171207	-0.401287	-0.402006
C95	C	0.504540	-0.067953	-0.068673
C96	C	0.837874	0.265380	0.264661
C97	C	0.171203	-0.307037	-0.308044
C98	C	0.504537	0.026296	0.025290
C99	C	0.837870	0.359630	0.358623
C100	C	0.236639	-0.307056	-0.308016
C101	C	0.569972	0.026277	0.025317
C102	C	0.903305	0.359610	0.358651
C103	C	0.269355	-0.354197	-0.354979
C104	C	0.602688	-0.020863	-0.021646
C105	C	0.936022	0.312470	0.311687
C106	C	0.905358	-0.545419	-0.354882
C107	C	1.238691	-0.212086	-0.021548
C108	C	1.572025	0.121247	0.311785
C109	C	0.905387	-0.627218	-0.354891
C110	C	1.238720	-0.293885	-0.021558
C111	C	1.572054	0.039449	0.311776
C112	C	0.945547	-0.815393	-0.307930
C113	C	1.278880	-0.482059	0.025404
C114	C	1.612214	-0.148726	0.358737
C115	C	0.945575	-0.892251	-0.307948
C116	C	1.278908	-0.558918	0.025386
C117	C	1.612242	-0.225585	0.358719
C118	C	0.865381	-0.892281	-0.401957
C119	C	1.198715	-0.558948	-0.068624
C120	C	1.532048	-0.225615	0.264709
C121	C	0.865357	-0.815424	-0.401943
C122	C	1.198690	-0.482091	-0.068609
C123	C	1.532023	-0.148757	0.264724
C124	C	0.905439	-0.776982	-0.354925
C125	C	1.238772	-0.443648	-0.021591
C126	C	1.572105	-0.110315	0.311742
C127	C	0.905491	-0.930698	-0.354957
C128	C	1.238825	-0.597364	-0.021624
C129	C	1.572158	-0.264031	0.311709
C130	C	0.905521	-1.014031	-0.354977
C131	C	1.238855	-0.680698	-0.021644
C132	C	1.572188	-0.347365	0.311690
C133	C	0.905410	-0.693643	-0.354906
C134	C	1.238743	-0.360309	-0.021572
C135	C	1.572076	-0.026976	0.311761
C136	C	1.068847	-0.354174	-0.355003
C137	C	1.402181	-0.020841	-0.021670
C138	C	1.735514	0.312492	0.311663
C139	C	1.138489	-0.354158	-0.355040
C140	C	1.471822	-0.020825	-0.021707
C141	C	1.805155	0.312509	0.311627
C142	C	0.905454	-0.354154	-0.546870
C143	C	1.238787	-0.020821	-0.213537
C144	C	1.572120	0.312513	0.119797
C145	C	0.905466	-0.354129	-0.628669
C146	C	1.238800	-0.020796	-0.295336
C147	C	1.572133	0.312538	0.037998
C148	C	0.905508	-0.162260	-0.354969
C149	C	1.238841	0.171073	-0.021635
C150	C	1.572174	0.504407	0.311698
C151	C	0.905543	-0.080461	-0.354991
C152	C	1.238876	0.252872	-0.021657
C153	C	1.572210	0.586206	0.311676
C154	C	0.865447	-0.307038	-0.816856
C155	C	1.198781	0.026296	-0.483522
C156	C	1.532114	0.359629	-0.150189
C157	C	0.865458	-0.307023	-0.893714
C158	C	1.198791	0.026311	-0.560381
C159	C	1.532125	0.359644	-0.227048
C160	C	0.945560	-0.401133	-0.893721
C161	C	1.278894	-0.067800	-0.560387
C162	C	1.612227	0.265534	-0.227054
C163	C	0.945546	-0.401151	-0.816863
C164	C	1.278879	-0.067818	-0.483530
C165	C	1.612212	0.265516	-0.150196
C166	C	0.905490	-0.354099	-0.778433
C167	C	1.238824	-0.020766	-0.445099
C168	C	1.572157	0.312568	-0.111766
C169	C	0.905516	-0.354066	-0.932149
C170	C	1.238849	-0.020733	-0.598815
C171	C	1.572182	0.312600	-0.265482
C172	C	0.905528	-0.354050	-1.015483
C173	C	1.238861	-0.020717	-0.682149
C174	C	1.572194	0.312616	-0.348816
C175	C	0.905477	-0.354116	-0.695094
C176	C	1.238810	-0.020782	-0.361760
C177	C	1.572144	0.312551	-0.028427
C178	C	0.905431	-0.354218	-0.163711
C179	C	1.238764	-0.020885	0.169622
C180	C	1.572097	0.312448	0.502956
C181	C	0.905539	-0.354036	-0.081912
C182	C	1.238873	-0.020703	0.251421
C183	C	1.572206	0.312631	0.584754
H184	H	0.465190	-0.364924	-0.475177
H185	H	0.798524	-0.031591	-0.141844
H186	H	1.131857	0.301743	0.191489
H187	H	0.465004	-0.343558	-0.234613
H188	H	0.798337	-0.010224	0.098720
H189	H	1.131671	0.323109	0.432054
H190	H	0.346478	-0.364891	-0.475227
H191	H	0.679812	-0.031558	-0.141893
H192	H	1.013145	0.301776	0.191440
C193	C	0.786115	-0.884591	-0.494886
C194	C	1.119449	-0.551257	-0.161552
C195	C	1.452782	-0.217924	0.171781
C196	C	0.821322	-0.934539	-0.453636
C197	C	1.154655	-0.601206	-0.120302
C198	C	1.487989	-0.267872	0.213031
H199	H	0.758917	-0.910679	-0.526792
H200	H	1.092250	-0.577346	-0.193459
H201	H	1.425584	-0.244013	0.139874
H202	H	0.762158	-0.854671	-0.462780
H203	H	1.095491	-0.521337	-0.129447
H204	H	1.428825	-0.188004	0.203887
H205	H	0.813396	-0.854556	-0.523069
H206	H	1.146729	-0.521222	-0.189736
H207	H	1.480063	-0.187889	0.143598
H208	H	0.794041	-0.964571	-0.425448
H209	H	1.127375	-0.631237	-0.092115
H210	H	1.460708	-0.297904	0.241219
H211	H	0.845281	-0.964472	-0.485745
H212	H	1.178614	-0.631138	-0.152412
H213	H	1.511948	-0.297805	0.180921
H214	H	0.978173	-0.439440	-0.925020
H215	H	1.311506	-0.106107	-0.591687
H216	H	1.644839	0.227226	-0.258353
H217	H	0.832696	-0.784148	-0.440215
H218	H	1.166029	-0.450814	-0.106882
H219	H	1.499362	-0.117481	0.226451
C220	C	0.786263	-0.214022	-0.824572
C221	C	1.119597	0.119311	-0.491239
C222	C	1.452930	0.452644	-0.157905
C223	C	0.821411	-0.255328	-0.774612
C224	C	1.154744	0.078005	-0.441279
C225	C	1.488078	0.411338	-0.107945
H226	H	0.759073	-0.182104	-0.798493
H227	H	1.092406	0.151229	-0.465159
H228	H	1.425740	0.484563	-0.131826
H229	H	0.813577	-0.185855	-0.854569
H230	H	1.146911	0.147478	-0.521235
H231	H	1.480244	0.480811	-0.187902
H232	H	0.762295	-0.246097	-0.854530
H233	H	1.095628	0.087236	-0.521196
H234	H	1.428962	0.420570	-0.187863
H235	H	0.845383	-0.223254	-0.744658
H236	H	1.178716	0.110080	-0.411325
H237	H	1.512050	0.443413	-0.077991
H238	H	0.794094	-0.283498	-0.744603
H239	H	1.127427	0.049836	-0.411270
H240	H	1.460760	0.383169	-0.077936
C241	C	0.501193	-0.500376	-0.411896
C242	C	0.834526	-0.167042	-0.078563
C243	C	1.167859	0.166291	0.254771
C244	C	0.538887	-0.453183	-0.453481
C245	C	0.872220	-0.119849	-0.120148
C246	C	1.205553	0.213484	0.213185
H247	H	0.478991	-0.532349	-0.443784
H248	H	0.812324	-0.199016	-0.110451
H249	H	1.145657	0.134317	0.222882
H250	H	0.526673	-0.528486	-0.379776
H251	H	0.860006	-0.195153	-0.046442
H252	H	1.193339	0.138181	0.286891
H253	H	0.472344	-0.472294	-0.383934
H254	H	0.805677	-0.138961	-0.050601
H255	H	1.139010	0.194372	0.282732
H256	H	0.567739	-0.481264	-0.481439
H257	H	0.901072	-0.147931	-0.148106
H258	H	1.234406	0.185403	0.185228
H259	H	0.513404	-0.425069	-0.485614
H260	H	0.846738	-0.091736	-0.152281
H261	H	1.180071	0.241597	0.181052
C262	C	1.051704	-0.915738	-0.272284
C263	C	1.385038	-0.582404	0.061050
C264	C	1.718371	-0.249071	0.394383
C265	C	0.989682	-0.934444	-0.256288
C266	C	1.323015	-0.601111	0.077046
C267	C	1.656349	-0.267777	0.410379
H268	H	1.078940	-0.941775	-0.240387
H269	H	1.412274	-0.608442	0.092947
H270	H	1.745607	-0.275108	0.426280
H271	H	1.060842	-0.928296	-0.321739
H272	H	1.394175	-0.594962	0.011594
H273	H	1.727508	-0.261629	0.344927
H274	H	1.057395	-0.864456	-0.265561
H275	H	1.390728	-0.531122	0.067772
H276	H	1.724062	-0.197789	0.401106
H277	H	0.983990	-0.985726	-0.263016
H278	H	1.317324	-0.652392	0.070318
H279	H	1.650657	-0.319059	0.403651
H280	H	0.980542	-0.921891	-0.206820
H281	H	1.313875	-0.588558	0.126513
H282	H	1.647208	-0.255224	0.459847
H283	H	0.832851	-0.268701	-0.924995
H284	H	1.166184	0.064632	-0.591662
H285	H	1.499517	0.397965	-0.258328
H286	H	0.666911	-0.268775	-0.269588
H287	H	1.000244	0.064558	0.063746
H288	H	1.333578	0.397892	0.397079
H289	H	0.978185	-0.784095	-0.269646
H290	H	1.311519	-0.450761	0.063688
H291	H	1.644852	-0.117428	0.397021
C292	C	0.151104	-0.182377	-0.272421
C293	C	0.484437	0.150956	0.060912
C294	C	0.817771	0.484289	0.394245
C295	C	0.135231	-0.255241	-0.256418
C296	C	0.468564	0.078092	0.076915
C297	C	0.801898	0.411426	0.410249
H298	H	0.128887	-0.150403	-0.240552
H299	H	0.462221	0.182931	0.092781
H300	H	0.795554	0.516264	0.426114
H301	H	0.194749	-0.175639	-0.265669
H302	H	0.528082	0.157695	0.067664
H303	H	0.861415	0.491028	0.400998
H304	H	0.140430	-0.171673	-0.321894
H305	H	0.473764	0.161660	0.011439
H306	H	0.807097	0.494993	0.344772
H307	H	0.145909	-0.265947	-0.206946
H308	H	0.479242	0.067387	0.126387
H309	H	0.812575	0.400720	0.459720
H310	H	0.091577	-0.261983	-0.263164
H311	H	0.424910	0.071350	0.070169
H312	H	0.758243	0.404684	0.403503
H313	H	0.263283	-0.439691	-0.440216
H314	H	0.596616	-0.106357	-0.106883
H315	H	0.929949	0.226976	0.226451
H316	H	0.144576	-0.439654	-0.440272
H317	H	0.477909	-0.106321	-0.106939
H318	H	0.811242	0.227013	0.226394
C319	C	1.024733	-0.494172	-0.824583
C320	C	1.358066	-0.160839	-0.491250
C321	C	1.691399	0.172495	-0.157916
C322	C	0.989566	-0.452883	-0.774623
C323	C	1.322899	-0.119550	-0.441289
C324	C	1.656233	0.213783	-0.107956
H325	H	1.051908	-0.526105	-0.798504
H326	H	1.385242	-0.192772	-0.465171
H327	H	1.718575	0.140561	-0.131837
H328	H	0.997430	-0.522322	-0.854536
H329	H	1.330763	-0.188989	-0.521203
H330	H	1.664097	0.144344	-0.187870
H331	H	1.048718	-0.462087	-0.854584
H332	H	1.382051	-0.128754	-0.521250
H333	H	1.715384	0.204579	-0.187917
H334	H	0.965577	-0.484968	-0.744626
H335	H	1.298910	-0.151635	-0.411292
H336	H	1.632244	0.181699	-0.077959
H337	H	1.016872	-0.424731	-0.744657
H338	H	1.350206	-0.091397	-0.411324
H339	H	1.683539	0.241936	-0.077990
H340	H	0.666919	-0.439788	-0.440041
H341	H	1.000252	-0.106455	-0.106708
H342	H	1.333585	0.226879	0.226626
H343	H	0.346299	-0.343537	-0.234664
H344	H	0.679633	-0.010203	0.098669
H345	H	1.012966	0.323130	0.432002
C346	C	0.256711	-0.271065	-0.183456
C347	C	0.590044	0.062269	0.149878
C348	C	0.923378	0.395602	0.483211
C349	C	0.272598	-0.255271	-0.256359
C350	C	0.605932	0.078063	0.076974
C351	C	0.939265	0.411396	0.410307
H352	H	0.278914	-0.239094	-0.151566
H353	H	0.612248	0.094240	0.181768
H354	H	0.945581	0.427573	0.515101
H355	H	0.213064	-0.264308	-0.176755
H356	H	0.546397	0.069026	0.156578
H357	H	0.879730	0.402359	0.489912
H358	H	0.267391	-0.320502	-0.172601
H359	H	0.600724	0.012831	0.160732
H360	H	0.934058	0.346165	0.494066
H361	H	0.261914	-0.205834	-0.267215
H362	H	0.595247	0.127499	0.066118
H363	H	0.928580	0.460832	0.399451
H364	H	0.316255	-0.262021	-0.263063
H365	H	0.649589	0.071312	0.070270
H366	H	0.982922	0.404645	0.403604
C367	C	0.554632	-0.271124	-0.183330
C368	C	0.887965	0.062209	0.150003
C369	C	1.221298	0.395542	0.483337
C370	C	0.538882	-0.255328	-0.256245
C371	C	0.872215	0.078005	0.077088
C372	C	1.205549	0.411339	0.410421
H373	H	0.532433	-0.239136	-0.151457
H374	H	0.865767	0.094197	0.181876
H375	H	1.199100	0.427531	0.515209
H376	H	0.543859	-0.320549	-0.172478
H377	H	0.877192	0.012785	0.160855
H378	H	1.210525	0.346118	0.494188
H379	H	0.598285	-0.264388	-0.176603
H380	H	0.931619	0.068945	0.156730
H381	H	1.264952	0.402279	0.490064
H382	H	0.495229	-0.262069	-0.262974
H383	H	0.828562	0.071264	0.070359
H384	H	1.161895	0.404597	0.403693
H385	H	0.549651	-0.205892	-0.267101
H386	H	0.882984	0.127442	0.066233
H387	H	1.216318	0.460775	0.399566
