data_functionalizedCrystal
_audit_creation_method	'MofGen! by Chris Wilmer'
_symmetry_space_group_name_H-M	'P1'
_symmetry_Int_Tables_number	1
_symmetry_cell_setting	triclinic
loop_
_symmetry_equiv_pos_as_xyz
  x,y,z
_cell_length_a	10.654558
_cell_length_b	10.654550
_cell_length_c	11.295483
_cell_angle_alpha	94.136004
_cell_angle_beta	85.855403
_cell_angle_gamma	84.486610
loop_
_atom_site_label
_atom_site_type_symbol
_atom_site_fract_x
_atom_site_fract_y
_atom_site_fract_z
O1	O	1.676219	0.168066	-0.099005
O2	O	1.310743	0.184861	-0.099011
O3	O	1.501884	-0.006275	-0.099003
O4	O	1.485078	0.359202	-0.099013
O5	O	1.485095	0.010487	0.099047
O6	O	1.293954	0.201623	0.099039
O7	O	1.659431	0.184828	0.099045
Cu8	Cu	1.475160	0.194756	0.117126
Cu9	Cu	1.495014	0.174933	-0.117092
O10	O	1.468290	0.375964	0.099038
C11	C	1.255551	0.192006	0.000013
C12	C	1.116108	0.188310	0.000011
C13	C	1.492256	-0.044692	0.000020
C14	C	1.488564	-0.184136	0.000016
C15	C	0.928721	0.173978	-0.107946
C16	C	1.059744	0.177439	-0.107947
C17	C	1.041444	0.195707	0.107978
C18	C	0.910425	0.192237	0.107978
C19	C	0.872363	0.163119	-0.215911
C20	C	0.947018	0.155720	-0.323879
C21	C	1.078041	0.159181	-0.323880
C22	C	1.134408	0.170042	-0.215914
C23	C	1.601105	-0.263618	0.000021
C24	C	1.597629	-0.394639	0.000013
C25	C	1.369061	-0.366684	-0.000001
C26	C	1.372539	-0.235666	-0.000001
C27	C	1.717129	-0.212088	0.000039
C28	C	1.829679	-0.291571	0.000045
C29	C	1.826203	-0.422593	0.000037
C30	C	1.710178	-0.474131	0.000022
C31	C	1.714623	0.177682	0.000018
C32	C	1.854066	0.181378	0.000012
C33	C	1.477918	0.414381	0.000011
C34	C	1.481610	0.553824	0.000008
N35	N	1.461204	0.208698	0.281861
N36	N	1.508979	0.160982	-0.281827
C37	C	1.609437	0.060552	0.531157
C38	C	1.598900	0.071097	0.655820
C39	C	1.429587	0.240325	0.655853
C40	C	1.440124	0.229780	0.531190
C41	C	1.530054	0.139892	0.468846
C42	C	1.540596	0.129354	0.344181
C43	C	1.371278	0.298575	0.344217
C44	C	1.360741	0.309120	0.468880
H45	H	0.765678	0.160303	-0.215923
H46	H	1.613824	0.056167	0.293421
H47	H	1.682669	-0.012630	0.480395
H48	H	1.707358	-0.580820	0.000002
O49	O	1.676148	-0.006036	0.716164
C50	C	1.757751	-0.087654	0.634400
H51	H	1.767134	-0.043664	0.545536
H52	H	1.854835	-0.102847	0.670400
H53	H	1.717275	-0.182448	0.621148
H54	H	1.274598	-0.408658	-0.000012
O55	O	1.342058	0.327490	0.716379
C56	C	1.220140	0.303353	0.685915
H57	H	1.221563	0.199900	0.651622
H58	H	1.150309	0.324120	0.767915
H59	H	1.189962	0.366519	0.613577
H60	H	1.287519	0.382302	0.519655
O61	O	1.096029	0.206437	0.212925
C62	C	1.045196	0.319740	0.278588
H63	H	0.948242	0.350820	0.247891
H64	H	1.035330	0.303561	0.377354
H65	H	1.110907	0.396458	0.263618
H66	H	1.138824	0.153144	-0.411792
H67	H	0.849636	0.198286	0.195887
H68	H	1.306642	0.363183	0.293469
H69	H	1.241097	0.172853	-0.215924
O70	O	1.263151	-0.158588	-0.000164
C71	C	1.201492	-0.190755	-0.102755
H72	H	1.234353	-0.292754	-0.136946
H73	H	1.094868	-0.180488	-0.079695
H74	H	1.225393	-0.125037	-0.174581
O75	O	0.892182	0.145391	-0.428719
C76	C	0.803652	0.251405	-0.435167
H77	H	0.828672	0.333522	-0.373903
H78	H	0.805803	0.279732	-0.530652
H79	H	0.704896	0.226688	-0.406160
O80	O	1.720738	-0.084848	-0.000008
C81	C	1.847269	-0.056403	0.000041
H82	H	1.913165	-0.142990	-0.037452
H83	H	1.861417	0.025541	-0.057451
H84	H	1.869543	-0.028757	0.095061
O85	O	1.942493	-0.241725	-0.000001
C86	C	2.041077	-0.339976	0.000026
H87	H	2.008272	-0.432444	-0.037473
H88	H	2.126884	-0.316760	-0.057471
H89	H	2.067793	-0.350173	0.095040
H90	H	1.917848	-0.487306	0.000030
