data_functionalizedCrystal
_audit_creation_method	'MofGen! by Chris Wilmer'
_symmetry_space_group_name_H-M	'P1'
_symmetry_Int_Tables_number	1
_symmetry_cell_setting	triclinic
loop_
_symmetry_equiv_pos_as_xyz
  x,y,z
_cell_length_a	19.288864
_cell_length_b	16.992695
_cell_length_c	17.766277
_cell_angle_alpha	89.993690
_cell_angle_beta	89.976791
_cell_angle_gamma	86.902234
loop_
_atom_site_label
_atom_site_type_symbol
_atom_site_fract_x
_atom_site_fract_y
_atom_site_fract_z
O1	O	0.927053	0.097795	-0.062838
O2	O	1.427053	0.597795	0.437162
O3	O	0.725561	0.110988	-0.062787
O4	O	1.225561	0.610988	0.437213
O5	O	0.825499	-0.009748	-0.062806
O6	O	1.325499	0.490252	0.437194
O7	O	0.827114	0.218531	-0.062819
O8	O	1.327114	0.718531	0.437181
O9	O	0.825480	-0.009754	0.062382
O10	O	1.325480	0.490246	0.562382
O11	O	0.725542	0.110982	0.062402
O12	O	1.225542	0.610982	0.562402
O13	O	0.927034	0.097789	0.062351
O14	O	1.427034	0.597789	0.562351
Cu15	Cu	0.826286	0.104385	0.073807
Cu16	Cu	1.326286	0.604385	0.573807
Cu17	Cu	0.826308	0.104392	-0.074243
Cu18	Cu	1.326308	0.604392	0.425757
O19	O	0.827095	0.218525	0.062370
O20	O	1.327095	0.718525	0.562370
C21	C	0.699650	0.110560	-0.000186
C22	C	1.199650	0.610560	0.499814
C23	C	0.622472	0.109286	-0.000166
C24	C	1.122472	0.609286	0.499834
C25	C	0.581905	0.180128	-0.000182
C26	C	1.081905	0.680128	0.499818
C27	C	0.509388	0.178931	-0.000190
C28	C	1.009388	0.678931	0.499810
C29	C	0.477442	0.106888	-0.000198
C30	C	0.977442	0.606888	0.499802
C31	C	0.518018	0.036036	-0.000178
C32	C	1.018018	0.536036	0.499822
C33	C	0.590534	0.037235	-0.000162
C34	C	1.090534	0.537235	0.499838
C35	C	0.365886	0.050256	-0.044079
C36	C	0.865886	0.550256	0.455921
C37	C	0.293371	0.049059	-0.044099
C38	C	0.793371	0.549059	0.455901
C39	C	0.253780	0.103186	-0.000243
C40	C	0.753780	0.603186	0.499757
C41	C	0.286711	0.158522	0.043624
C42	C	0.786711	0.658522	0.543624
C43	C	0.359227	0.159722	0.043640
C44	C	0.859227	0.659722	0.543640
C45	C	0.398811	0.105579	-0.000214
C46	C	0.898811	0.605579	0.499786
C47	C	0.134581	0.172735	-0.000267
C48	C	0.634581	0.672735	0.499733
C49	C	0.062063	0.171535	-0.000270
C50	C	0.562063	0.671535	0.499730
C51	C	0.070695	0.028638	-0.000266
C52	C	0.570695	0.528638	0.499734
C53	C	0.143212	0.029840	-0.000254
C54	C	0.643212	0.529840	0.499746
C55	C	0.175150	0.101891	-0.000259
C56	C	0.675150	0.601891	0.499741
C57	C	0.823411	-0.038957	-0.000211
C58	C	1.323411	0.461043	0.499789
C59	C	0.817211	-0.125979	-0.000210
C60	C	1.317211	0.374021	0.499790
C61	C	0.877039	-0.176431	-0.000224
C62	C	1.377039	0.323569	0.499776
C63	C	0.871208	-0.258197	-0.000230
C64	C	1.371208	0.241803	0.499770
C65	C	0.805549	-0.289509	-0.000216
C66	C	1.305549	0.210491	0.499784
C67	C	0.745717	-0.239051	-0.000204
C68	C	1.245717	0.260949	0.499796
C69	C	0.751548	-0.157287	-0.000204
C70	C	1.251548	0.342713	0.499796
C71	C	0.781382	-0.533022	-0.000220
C72	C	1.281382	-0.033022	0.499780
C73	C	0.775556	-0.614793	-0.000218
C74	C	1.275556	-0.114793	0.499782
C75	C	0.901048	-0.633933	-0.000246
C76	C	1.401048	-0.133933	0.499754
C77	C	0.906873	-0.552166	-0.000241
C78	C	1.406873	-0.052166	0.499759
C79	C	0.847041	-0.501715	-0.000233
C80	C	1.347041	-0.001715	0.499767
N81	N	0.799588	-0.373087	-0.000219
N82	N	1.299588	0.126913	0.499781
N83	N	0.853002	-0.418138	-0.000235
N84	N	1.353002	0.081862	0.499765
C85	C	0.952944	0.098217	-0.000252
C86	C	1.452944	0.598217	0.499748
C87	C	1.030122	0.099491	-0.000277
C88	C	1.530122	0.599491	0.499723
C89	C	0.829183	0.247733	-0.000226
C90	C	1.329183	0.747733	0.499774
C91	C	0.835384	0.334756	-0.000233
C92	C	1.335384	0.834756	0.499767
N93	N	0.826275	0.104379	0.177937
N94	N	1.326275	0.604379	0.677937
N95	N	0.826324	0.104391	-0.178373
N96	N	1.326324	0.604391	0.321627
C97	C	0.870544	0.050944	0.217316
C98	C	1.370544	0.550944	0.717316
C99	C	0.870548	0.050940	0.296117
C100	C	1.370548	0.550940	0.796117
C101	C	0.826290	0.104385	0.335538
C102	C	1.326290	0.604385	0.835538
C103	C	0.782012	0.157825	0.296150
C104	C	1.282012	0.657825	0.796150
C105	C	0.782005	0.157822	0.217350
C106	C	1.282005	0.657822	0.717350
C107	C	0.821154	0.175815	0.460373
C108	C	1.321154	0.675815	0.960373
C109	C	0.821167	0.175819	0.539172
C110	C	1.321167	0.675819	1.039172
C111	C	0.826309	0.104395	0.578584
C112	C	1.326309	0.604395	1.078584
C113	C	0.831454	0.032964	0.539188
C114	C	1.331454	0.532964	1.039188
C115	C	0.831446	0.032961	0.460387
C116	C	1.331446	0.532961	0.960387
C117	C	0.826293	0.104394	0.420983
C118	C	1.326293	0.604394	0.920983
C119	C	0.870585	0.050951	0.703408
C120	C	1.370585	0.550951	1.203408
C121	C	0.870584	0.050946	0.782212
C122	C	1.370584	0.550946	1.282212
C123	C	0.782051	0.157838	0.782243
C124	C	1.282051	0.657838	1.282243
C125	C	0.782049	0.157836	0.703441
C126	C	1.282049	0.657836	1.203441
C127	C	0.826319	0.104393	0.664029
C128	C	1.326319	0.604393	1.164029
H129	H	0.254478	0.202597	0.079337
H130	H	0.754478	0.702597	0.579337
N131	N	0.408585	-0.008125	-0.091386
N132	N	0.908585	0.491875	0.408614
H133	H	0.440686	-0.041301	-0.057784
H134	H	0.940686	0.458699	0.442216
H135	H	0.376675	-0.043303	-0.119176
H136	H	0.876675	0.456697	0.380824
N137	N	0.734309	0.215478	0.824750
N138	N	1.234309	0.715478	1.324750
H139	H	0.762768	0.250118	0.857426
H140	H	1.262768	0.750118	1.357426
H141	H	0.706273	0.249276	0.787793
H142	H	1.206273	0.749276	1.287793
H143	H	0.816982	0.233982	0.571243
H144	H	1.316982	0.733982	1.071243
N145	N	0.036250	-0.049068	-0.000265
N146	N	0.536250	0.450932	0.499735
H147	H	-0.015845	-0.039080	-0.000275
H148	H	0.484155	0.460920	0.499725
H149	H	0.050834	-0.080058	-0.046670
H150	H	0.550834	0.419942	0.453330
N151	N	0.918286	-0.006702	0.174807
N152	N	1.418286	0.493298	0.674807
H153	H	0.950691	0.023168	0.142091
H154	H	1.450691	0.523168	0.642091
H155	H	0.946284	-0.040540	0.211764
H156	H	1.446284	0.459460	0.711764
H157	H	0.746003	0.201352	0.671377
H158	H	1.246003	0.701352	1.171377
N159	N	0.918305	-0.006716	0.660895
N160	N	1.418305	0.493284	1.160895
H161	H	0.911582	0.001387	0.604999
H162	H	1.411582	0.501387	1.104999
H163	H	0.968079	0.002177	0.674632
H164	H	1.468079	0.502177	1.174632
N165	N	0.918303	-0.006687	0.338607
N166	N	1.418303	0.493313	0.838607
H167	H	0.889848	-0.041323	0.371324
H168	H	1.389848	0.458677	0.871324
H169	H	0.946339	-0.040491	0.301637
H170	H	1.446339	0.459509	0.801637
H171	H	0.835634	-0.025201	0.428314
H172	H	1.335634	0.474799	0.928314
H173	H	0.906631	0.007428	0.814274
H174	H	1.406631	0.507428	1.314274
N175	N	0.169030	0.250446	-0.000261
N176	N	0.669030	0.750446	0.499739
H177	H	0.198902	0.254124	0.046151
H178	H	0.698902	0.754124	0.546151
H179	H	0.198910	0.254086	-0.046695
H180	H	0.698910	0.754086	0.453305
N181	N	0.634294	-0.039176	-0.000142
N182	N	1.134294	0.460824	0.499858
H183	H	0.603056	-0.085000	-0.000144
H184	H	1.103056	0.415000	0.499856
H185	H	0.664594	-0.041791	-0.046544
H186	H	1.164594	0.458209	0.453456
N187	N	0.704733	-0.648565	-0.000211
N188	N	1.204733	-0.148565	0.499789
H189	H	0.710121	-0.708018	-0.000208
H190	H	1.210121	-0.208018	0.499792
H191	H	0.678342	-0.630097	0.046202
H192	H	1.178342	-0.130097	0.546202
H193	H	0.702829	-0.116209	-0.000192
H194	H	1.202829	0.383791	0.499808
N195	N	0.674895	-0.272815	-0.000189
N196	N	1.174895	0.227185	0.499811
H197	H	0.669685	-0.306309	-0.046594
H198	H	1.169685	0.193691	0.453406
H199	H	0.669715	-0.306276	0.046251
H200	H	1.169715	0.193724	0.546251
H201	H	0.732662	-0.491954	-0.000213
H202	H	1.232662	0.008046	0.499787
H203	H	0.176243	-0.027848	-0.000246
H204	H	0.676243	0.472152	0.499754
H205	H	0.492003	-0.022623	-0.000194
H206	H	0.992003	0.477377	0.499806
H207	H	0.930505	-0.150943	-0.000231
H208	H	1.430505	0.349057	0.499769
H209	H	0.386036	0.204776	0.079360
H210	H	0.886036	0.704776	0.579360
N211	N	0.815608	0.252855	0.417868
N212	N	1.315608	0.752855	0.917868
H213	H	0.812358	0.298104	0.454780
H214	H	1.312358	0.798104	0.954780
H215	H	0.858049	0.257306	0.385151
H216	H	1.358049	0.757306	0.885151
H217	H	0.960340	-0.526677	-0.000253
H218	H	1.460340	-0.026677	0.499747
N219	N	0.837005	-0.044079	0.581683
N220	N	1.337005	0.455921	1.081683
H221	H	0.836226	-0.033242	0.637580
H222	H	1.336226	0.466758	1.137580
H223	H	0.796585	-0.076618	0.567932
H224	H	1.296585	0.423382	1.067932
H225	H	0.745954	0.201337	0.185287
H226	H	1.245954	0.701337	0.685287
N227	N	0.616353	0.257837	-0.000192
N228	N	1.116353	0.757837	0.499808
H229	H	0.579645	0.302534	-0.000205
H230	H	1.079645	0.802534	0.499795
H231	H	0.646228	0.261453	0.046222
H232	H	1.146228	0.761453	0.546222
N233	N	0.465625	0.255345	-0.000210
N234	N	0.965625	0.755345	0.499790
H235	H	0.476385	0.286784	-0.046620
H236	H	0.976385	0.786784	0.453380
H237	H	0.414857	0.243587	-0.000192
H238	H	0.914857	0.743587	0.499808
N239	N	0.018304	0.247947	-0.000227
N240	N	0.518304	0.747947	0.499773
H241	H	0.049544	0.293770	-0.000211
H242	H	0.549544	0.793770	0.499789
H243	H	-0.011970	0.250600	-0.046623
H244	H	0.488030	0.750600	0.453377
N245	N	0.257855	-0.010619	-0.091412
N246	N	0.757855	0.489381	0.408588
H247	H	0.293938	-0.044733	-0.119184
H248	H	0.793938	0.455267	0.380816
H249	H	0.229779	-0.044728	-0.057771
H250	H	0.729779	0.455272	0.442229
H251	H	0.745975	0.201340	0.328250
H252	H	1.245975	0.701340	0.828250
N253	N	0.935737	-0.312613	-0.000241
N254	N	1.435737	0.187387	0.499759
H255	H	0.978216	-0.280370	-0.000243
H256	H	1.478216	0.219630	0.499757
H257	H	0.936038	-0.346960	0.046168
H258	H	1.436038	0.153040	0.546168
N259	N	0.965579	-0.688346	-0.000254
N260	N	1.465579	-0.188346	0.499746
H261	H	0.951925	-0.744895	-0.000251
H262	H	1.451925	-0.244895	0.499749
H263	H	0.994006	-0.678228	-0.046669
H264	H	1.494006	-0.178228	0.453331
