data_functionalizedCrystal
_audit_creation_method	'MofGen! by Chris Wilmer'
_symmetry_space_group_name_H-M	'P1'
_symmetry_Int_Tables_number	1
_symmetry_cell_setting	triclinic
loop_
_symmetry_equiv_pos_as_xyz
  x,y,z
_cell_length_a	10.967819
_cell_length_b	10.908878
_cell_length_c	16.776229
_cell_angle_alpha	89.993177
_cell_angle_beta	77.863565
_cell_angle_gamma	72.685094
loop_
_atom_site_label
_atom_site_type_symbol
_atom_site_fract_x
_atom_site_fract_y
_atom_site_fract_z
O1	O	1.618426	0.179824	-0.288609
O2	O	2.118426	0.679824	0.211391
O3	O	1.251551	0.197022	-0.238213
O4	O	1.751551	0.697022	0.261787
O5	O	1.483622	0.001920	-0.270089
O6	O	1.983622	0.501920	0.229911
O7	O	1.386354	0.374925	-0.256733
O8	O	1.886354	0.874925	0.243267
O9	O	1.483599	0.001908	-0.137509
O10	O	1.983599	0.501908	0.362491
O11	O	1.251528	0.197009	-0.105633
O12	O	1.751528	0.697009	0.394367
O13	O	1.618403	0.179811	-0.156030
O14	O	2.118403	0.679811	0.343970
Zn15	Zn	1.434962	0.188408	-0.109782
Zn16	Zn	1.934962	0.688408	0.390218
Zn17	Zn	1.434992	0.188425	-0.284461
Zn18	Zn	1.934992	0.688425	0.215539
O19	O	1.386331	0.374913	-0.124154
O20	O	1.886331	0.874913	0.375846
C21	C	1.205309	0.195762	-0.165573
C22	C	1.705309	0.695762	0.334427
C23	C	1.067560	0.192012	-0.146651
C24	C	1.567560	0.692012	0.353349
C25	C	0.863792	0.186483	-0.187353
C26	C	1.363792	0.686483	0.312647
C27	C	1.006165	0.190350	-0.206905
C28	C	1.506165	0.690350	0.293095
C29	C	1.492701	-0.045847	-0.205049
C30	C	1.992701	0.454153	0.294951
C31	C	1.519772	-0.188160	-0.208770
C32	C	2.019772	0.311840	0.291230
C33	C	1.420995	-0.238042	-0.195203
C34	C	1.920995	0.261958	0.304797
C35	C	1.448972	-0.385130	-0.199049
C36	C	1.948972	0.114870	0.300951
C37	C	1.664645	0.181071	-0.228672
C38	C	2.164645	0.681071	0.271328
C39	C	1.802393	0.184821	-0.247599
C40	C	2.302393	0.684821	0.252401
C41	C	1.377253	0.422680	-0.189196
C42	C	1.877253	0.922680	0.310804
C43	C	1.350182	0.564994	-0.185480
C44	C	1.850182	1.064994	0.314520
N45	N	1.434950	0.188397	0.009431
N46	N	1.934950	0.688397	0.509431
N47	N	1.435015	0.188426	-0.403675
N48	N	1.935015	0.688426	0.096325
C49	C	1.537730	0.102042	0.037031
C50	C	2.037730	0.602042	0.537031
C51	C	1.537737	0.102041	0.120482
C52	C	2.037737	0.602041	0.620482
C53	C	1.434968	0.188402	0.176332
C54	C	1.934968	0.688402	0.676332
C55	C	1.332179	0.274761	0.148727
C56	C	1.832179	0.774761	0.648727
C57	C	1.332168	0.274754	0.065278
C58	C	1.832168	0.774754	0.565278
C59	C	1.332218	0.274786	0.485269
C60	C	1.832218	0.774786	0.985269
C61	C	1.332239	0.274788	0.568723
C62	C	1.832239	0.774788	1.068723
C63	C	1.537788	0.102073	0.540473
C64	C	2.037788	0.602073	1.040473
C65	C	1.537777	0.102066	0.457024
C66	C	2.037777	0.602066	0.957024
C67	C	1.434985	0.188420	0.429427
C68	C	1.934985	0.688420	0.929427
C69	C	1.434977	0.188419	0.338940
C70	C	1.934977	0.688419	0.838940
C71	C	1.434979	0.188411	0.266817
C72	C	1.934979	0.688411	0.766817
H73	H	1.315718	-0.171854	-0.180736
H74	H	1.815718	0.328146	0.319264
F75	F	1.075214	0.192242	-0.293249
F76	F	1.575214	0.692242	0.206751
H77	H	0.810951	0.185049	-0.121299
H78	H	1.310951	0.685049	0.378701
F79	F	1.222772	0.366662	0.035907
F80	F	1.722772	0.866662	0.535907
H81	H	1.554257	-0.451314	-0.213509
H82	H	2.054257	0.048686	0.286491
F83	F	1.657381	-0.274667	-0.227668
F84	F	2.157381	0.225333	0.272332
F85	F	1.647160	0.010155	0.397587
F86	F	2.147160	0.510155	0.897587
F87	F	1.647187	0.010162	0.569850
F88	F	2.147187	0.510162	1.069850
F89	F	1.647118	0.010129	-0.022402
F90	F	2.147118	0.510129	0.477598
F91	F	1.212564	-0.348506	-0.166567
F92	F	1.712564	0.151494	0.333433
F93	F	0.998508	0.190137	-0.060306
F94	F	1.498508	0.690137	0.439694
F95	F	1.647125	0.010131	0.149856
F96	F	2.147125	0.510131	0.649856
F97	F	0.871447	0.186713	-0.333938
F98	F	1.371447	0.686713	0.166062
F99	F	1.222852	0.366709	0.628162
F100	F	1.722852	0.866709	1.128162
F101	F	1.222824	0.366692	0.455904
F102	F	1.722824	0.866692	0.955904
F103	F	1.222798	0.366668	0.208168
F104	F	1.722798	0.866668	0.708168
