data_functionalizedCrystal
_audit_creation_method	'MofGen! by Chris Wilmer'
_symmetry_space_group_name_H-M	'P1'
_symmetry_Int_Tables_number	1
_symmetry_cell_setting	triclinic
loop_
_symmetry_equiv_pos_as_xyz
  x,y,z
_cell_length_a	23.532407
_cell_length_b	23.532407
_cell_length_c	22.610064
_cell_angle_alpha	89.999397
_cell_angle_beta	89.997161
_cell_angle_gamma	82.848678
loop_
_atom_site_label
_atom_site_type_symbol
_atom_site_fract_x
_atom_site_fract_y
_atom_site_fract_z
O1	O	0.755263	0.069127	-0.049117
O2	O	0.589400	0.079130	-0.049135
O3	O	0.677333	-0.008803	-0.049114
O4	O	0.667330	0.157060	-0.049137
O5	O	0.677318	-0.008790	0.049255
O6	O	0.589385	0.079143	0.049234
O7	O	0.755248	0.069140	0.049252
Zn8	Zn	0.672314	0.074144	0.064862
Zn9	Zn	0.672334	0.074127	-0.064744
O10	O	0.667315	0.157073	0.049232
C11	C	0.568176	0.078882	0.000048
C12	C	0.504959	0.078116	0.000041
C13	C	0.105856	0.125350	0.000061
C14	C	0.046456	0.124638	0.000065
O15	O	0.009711	0.168424	0.000081
N16	N	0.023830	0.072362	0.000071
C17	C	0.060607	0.020794	0.000080
O18	O	0.035908	-0.023737	0.000086
C19	C	0.120006	0.021506	0.000080
C20	C	0.142629	0.073785	0.000068
C21	C	0.128479	0.177625	0.000050
C22	C	0.187876	0.178336	0.000045
C23	C	0.224649	0.126772	0.000052
C24	C	0.202025	0.074497	0.000063
C25	C	0.156783	-0.030062	0.000093
C26	C	0.216185	-0.029345	0.000094
C27	C	0.238808	0.022934	0.000082
C28	C	0.298194	0.023643	0.000065
N29	N	0.320820	0.075920	0.000059
C30	C	0.284048	0.127484	0.000052
C31	C	-0.064135	0.019302	0.000080
C32	C	-0.123533	0.018589	0.000075
C33	C	-0.137680	0.122434	0.000061
C34	C	-0.078281	0.123146	0.000062
C35	C	-0.041509	0.071578	0.000074
C36	C	0.408784	0.128974	0.000042
C37	C	0.468186	0.129680	0.000034
C38	C	0.482329	0.025836	0.000051
C39	C	0.422932	0.025129	0.000055
C40	C	0.386160	0.076702	0.000052
O41	O	0.334974	-0.020119	0.000052
O42	O	0.308755	0.172007	0.000054
C43	C	0.677071	-0.030013	0.000072
C44	C	0.676305	-0.093230	0.000076
C45	C	0.723539	-0.492333	0.000049
C46	C	0.722827	-0.551733	0.000044
O47	O	0.766613	-0.588478	0.000027
N48	N	0.670551	-0.574359	0.000039
C49	C	0.618983	-0.537582	0.000032
O50	O	0.574452	-0.562281	0.000027
C51	C	0.619695	-0.478182	0.000033
C52	C	0.671974	-0.455560	0.000044
C53	C	0.775814	-0.469710	0.000060
C54	C	0.776525	-0.410313	0.000065
C55	C	0.724961	-0.373540	0.000060
C56	C	0.672685	-0.396164	0.000050
C57	C	0.568127	-0.441406	0.000022
C58	C	0.568844	-0.382004	0.000021
C59	C	0.621123	-0.359381	0.000033
C60	C	0.621832	-0.299995	0.000050
N61	N	0.674109	-0.277368	0.000056
C62	C	0.725673	-0.314141	0.000061
C63	C	0.617491	-0.662324	0.000031
C64	C	0.616778	-0.721722	0.000034
C65	C	0.720623	-0.735869	0.000045
C66	C	0.721335	-0.676470	0.000046
C67	C	0.669767	-0.639698	0.000036
C68	C	0.727163	-0.189405	0.000073
C69	C	0.727869	-0.130003	0.000081
C70	C	0.624025	-0.115860	0.000067
C71	C	0.623318	-0.175257	0.000062
C72	C	0.674891	-0.212029	0.000063
O73	O	0.578070	-0.263215	0.000065
O74	O	0.770196	-0.289433	0.000058
C75	C	0.776472	0.069388	0.000069
C76	C	0.839689	0.070154	0.000071
C77	C	0.667577	0.178283	0.000045
C78	C	0.668343	0.241500	0.000036
N79	N	0.672304	0.074155	0.153314
N80	N	0.672349	0.074111	-0.153196
C81	C	0.711273	0.035196	0.561965
C82	C	0.711276	0.035192	0.623884
O83	O	0.744384	0.002076	0.655911
N84	N	0.672334	0.074115	0.654851
C85	C	0.633383	0.113041	0.623895
O86	O	0.600259	0.146147	0.655920
C87	C	0.633377	0.113042	0.561976
C88	C	0.672326	0.074120	0.531013
C89	C	0.750218	-0.003724	0.531001
C90	C	0.750215	-0.003719	0.469085
C91	C	0.711268	0.035206	0.438133
C92	C	0.672323	0.074125	0.469097
C93	C	0.594424	0.151965	0.531021
C94	C	0.594422	0.151962	0.469098
C95	C	0.633370	0.113040	0.438134
C96	C	0.633374	0.113054	0.376229
N97	N	0.672316	0.074131	0.345262
C98	C	0.711263	0.035207	0.376214
C99	C	0.633396	0.113035	0.753928
C100	C	0.633403	0.113037	0.815846
C101	C	0.711296	0.035187	0.815831
C102	C	0.711291	0.035188	0.753913
C103	C	0.672338	0.074112	0.722962
C104	C	0.711255	0.035220	0.246187
C105	C	0.711251	0.035230	0.184266
C106	C	0.633357	0.113078	0.184286
C107	C	0.633363	0.113071	0.246202
C108	C	0.672314	0.074137	0.277151
O109	O	0.600281	0.146152	0.344163
O110	O	0.744376	0.002101	0.344182
H111	H	-0.167632	0.164421	0.000059
H112	H	0.138375	-0.072634	0.000103
H113	H	0.743005	0.003494	0.728706
H114	H	0.601694	0.144737	0.841052
O115	O	0.591342	0.155045	0.150888
H116	H	0.615146	0.182602	0.122664
O117	O	0.492588	0.186069	0.000031
H118	H	0.457034	0.221804	0.000036
H119	H	0.781933	-0.035423	0.556197
H120	H	0.769159	-0.219337	0.000071
H121	H	0.246123	-0.071339	0.000104
O122	O	0.561866	-0.622665	0.000037
H123	H	0.536833	-0.630678	-0.040055
O124	O	0.784261	-0.105606	0.000084
H125	H	0.809020	-0.120407	0.040175
O126	O	-0.147930	-0.037798	0.000080
H127	H	-0.174657	-0.040601	0.040174
O128	O	0.753273	-0.006764	0.279564
H129	H	0.780355	-0.033817	0.247623
H130	H	0.525555	-0.459814	0.000009
O131	O	0.776239	-0.775542	0.000046
H132	H	0.801267	-0.767544	0.040146
H133	H	0.378851	0.170970	0.000041
H134	H	0.601677	0.144736	0.728731
H135	H	0.206289	0.220908	0.000035
H136	H	0.562700	0.183658	0.443901
O137	O	0.088821	0.233245	0.000040
H138	H	0.114541	0.269709	0.000028
H139	H	0.601653	0.144770	0.271413
H140	H	-0.034198	-0.022693	0.000084
O141	O	0.560392	-0.746121	0.000030
H142	H	0.524659	-0.710565	0.000024
O143	O	0.753301	-0.006803	0.849220
H144	H	0.746753	-0.000266	0.897477
H145	H	0.526850	-0.352066	0.000013
O146	O	-0.053883	0.179533	0.000053
H147	H	-0.027161	0.182346	0.040145
O148	O	0.568410	-0.076194	0.000061
H149	H	0.577693	-0.031091	0.000060
O150	O	0.398525	-0.031256	0.000066
H151	H	0.434078	-0.066992	0.000073
O152	O	0.521999	-0.029777	0.000067
H153	H	0.549408	-0.031943	-0.040022
H154	H	0.819097	-0.391900	0.000072
H155	H	0.817806	-0.499645	0.000061
H156	H	0.742969	0.003535	0.159057
O157	O	0.552426	0.193968	0.564395
H158	H	0.508069	0.186944	0.552516
O159	O	0.777721	-0.652070	0.000047
H160	H	0.813454	-0.687626	0.000045
O161	O	0.792216	-0.045706	0.435692
H162	H	0.819290	-0.072775	0.467625
H163	H	0.580748	-0.193677	0.000069
