data_functionalizedCrystal
_audit_creation_method	'MofGen! by Chris Wilmer'
_symmetry_space_group_name_H-M	'P1'
_symmetry_Int_Tables_number	1
_symmetry_cell_setting	triclinic
loop_
_symmetry_equiv_pos_as_xyz
  x,y,z
_cell_length_a	13.185408
_cell_length_b	13.262508
_cell_length_c	9.130313
_cell_angle_alpha	105.917062
_cell_angle_beta	90.002624
_cell_angle_gamma	68.866655
loop_
_atom_site_label
_atom_site_type_symbol
_atom_site_fract_x
_atom_site_fract_y
_atom_site_fract_z
O1	O	1.445722	-0.273087	-0.230479
O2	O	1.128707	-0.166833	-0.188177
O3	O	1.295189	-0.375003	-0.271086
O4	O	1.279239	-0.064917	-0.147570
O5	O	1.295187	-0.374998	-0.027485
O6	O	1.128705	-0.166828	0.055424
O7	O	1.445720	-0.273082	0.013122
Cu8	Cu	1.287212	-0.219955	0.056515
Cu9	Cu	1.287214	-0.219961	-0.231571
O10	O	1.279237	-0.064912	0.096030
C11	C	1.088126	-0.156059	-0.062089
C12	C	0.967211	-0.123975	-0.049317
C13	C	1.294294	-0.413852	-0.164764
C14	C	1.291617	-0.529612	-0.210885
C15	C	0.897860	-0.009739	-0.003817
C16	C	0.784254	0.020409	0.008205
C17	C	0.739989	-0.063676	-0.025284
C18	C	0.809340	-0.177914	-0.070795
C19	C	0.922957	-0.208065	-0.082807
C20	C	0.765086	-0.262001	-0.104273
C21	C	0.834437	-0.376239	-0.149785
C22	C	0.948043	-0.406385	-0.161795
C23	C	0.992308	-0.322301	-0.128307
C24	C	0.651469	-0.231850	-0.092261
C25	C	0.676566	-0.430176	-0.171251
C26	C	0.790172	-0.460324	-0.183273
C27	C	1.284061	-0.855921	0.190274
C28	C	1.286568	-0.747156	0.233609
C29	C	1.287831	-0.692764	0.122490
C30	C	1.286586	-0.747150	-0.031973
C31	C	1.284071	-0.855923	-0.075311
C32	C	1.287840	-0.692766	-0.143096
C33	C	1.286595	-0.747151	-0.297558
C34	C	1.284081	-0.855914	-0.340889
C35	C	1.282818	-0.910305	-0.229769
C36	C	1.290355	-0.583993	-0.099757
C37	C	1.290365	-0.583994	-0.365343
C38	C	1.287858	-0.692760	-0.408678
C39	C	1.486300	-0.283856	-0.112970
C40	C	1.607215	-0.315940	-0.125751
C41	C	1.280132	-0.026064	-0.010294
C42	C	1.282809	0.089697	0.035816
N43	N	1.287218	-0.219954	0.259138
N44	N	1.287217	-0.219972	-0.434198
C45	C	1.360955	-0.312112	0.299086
C46	C	1.360953	-0.312124	0.452418
C47	C	1.213471	-0.127808	0.525846
C48	C	1.213470	-0.127801	0.372515
C49	C	1.446106	-0.418524	0.256695
C50	C	1.446103	-0.418535	0.410027
H51	H	0.595013	-0.138837	-0.055203
Cl52	Cl	0.597168	-0.025773	-0.010176
H53	H	1.525067	-0.415927	0.210176
Cl54	Cl	1.291922	-0.515637	0.094416
Cl55	Cl	1.035225	-0.549999	-0.218981
H56	H	1.287593	-0.702888	0.359371
Cl57	Cl	1.120764	-0.011965	0.668383
Cl58	Cl	1.291930	-0.515616	-0.505042
Cl59	Cl	1.135133	-0.360197	-0.143428
Cl60	Cl	1.120755	-0.011952	0.322291
H61	H	1.427873	-0.493897	0.185050
Cl62	Cl	1.405770	-0.524502	0.441236
H63	H	1.529719	-0.424872	0.449125
H64	H	0.727796	0.113421	0.045260
Cl65	Cl	0.877368	-0.603933	-0.240480
H66	H	0.933913	0.058710	0.023455
H67	H	0.640526	-0.498645	-0.198587
Cl68	Cl	1.279666	-1.047045	-0.284242
H69	H	1.289870	-0.604201	0.157783
H70	H	1.283058	-0.900187	-0.466660
Cl71	Cl	1.282453	-0.924294	0.329951
H72	H	1.286844	-0.737055	-0.534443
