data_functionalizedCrystal
_audit_creation_method	'MofGen! by Chris Wilmer'
_symmetry_space_group_name_H-M	'P1'
_symmetry_Int_Tables_number	1
_symmetry_cell_setting	triclinic
loop_
_symmetry_equiv_pos_as_xyz
  x,y,z
_cell_length_a	17.038272
_cell_length_b	16.098538
_cell_length_c	17.038272
_cell_angle_alpha	92.920305
_cell_angle_beta	88.888444
_cell_angle_gamma	92.930266
loop_
_atom_site_label
_atom_site_type_symbol
_atom_site_fract_x
_atom_site_fract_y
_atom_site_fract_z
O1	O	1.052033	0.069152	-0.167266
O2	O	1.302033	0.319152	0.082734
O3	O	1.552033	0.569152	0.332734
O4	O	1.802033	0.819152	0.582734
O5	O	0.824222	0.069177	-0.164557
O6	O	1.074222	0.319177	0.085443
O7	O	1.324222	0.569177	0.335443
O8	O	1.574222	0.819177	0.585443
O9	O	0.936773	0.069158	-0.052006
O10	O	1.186773	0.319158	0.197994
O11	O	1.436773	0.569158	0.447994
O12	O	1.686773	0.819158	0.697994
O13	O	0.939482	0.069171	-0.279817
O14	O	1.189482	0.319171	-0.029817
O15	O	1.439482	0.569171	0.220183
O16	O	1.689482	0.819171	0.470183
O17	O	0.930197	-0.069354	-0.058553
O18	O	1.180197	0.180646	0.191447
O19	O	1.430197	0.430646	0.441447
O20	O	1.680197	0.680646	0.691447
O21	O	0.817646	-0.069335	-0.171104
O22	O	1.067646	0.180665	0.078896
O23	O	1.317646	0.430665	0.328896
O24	O	1.567646	0.680665	0.578896
O25	O	1.045456	-0.069359	-0.173813
O26	O	1.295456	0.180641	0.076187
O27	O	1.545456	0.430641	0.326187
O28	O	1.795456	0.680641	0.576187
Zn29	Zn	0.930507	-0.091339	-0.173498
Zn30	Zn	1.180507	0.158661	0.076502
Zn31	Zn	1.430507	0.408661	0.326502
Zn32	Zn	1.680507	0.658661	0.576502
Zn33	Zn	0.939172	0.091156	-0.164872
Zn34	Zn	1.189172	0.341156	0.085128
Zn35	Zn	1.439172	0.591156	0.335128
Zn36	Zn	1.689172	0.841156	0.585128
O37	O	0.932905	-0.069341	-0.286364
O38	O	1.182905	0.180659	-0.036364
O39	O	1.432905	0.430659	0.213636
O40	O	1.682905	0.680659	0.463636
C41	C	0.791641	-0.000076	-0.165367
C42	C	1.041641	0.249924	0.084633
C43	C	1.291641	0.499924	0.334633
C44	C	1.541641	0.749924	0.584633
C45	C	0.704358	-0.000067	-0.158019
C46	C	0.954358	0.249933	0.091981
C47	C	1.204358	0.499933	0.341981
C48	C	1.454358	0.749933	0.591981
N49	N	0.924599	-0.215887	-0.179385
N50	N	1.174599	0.034113	0.070615
N51	N	1.424599	0.284113	0.320615
N52	N	1.674599	0.534113	0.570615
C53	C	0.658749	-0.000064	-0.225482
C54	C	0.908749	0.249936	0.024518
C55	C	1.158749	0.499936	0.274518
C56	C	1.408749	0.749936	0.524518
C57	C	0.576737	-0.000075	-0.218574
C58	C	0.826737	0.249925	0.031426
C59	C	1.076737	0.499925	0.281426
C60	C	1.326737	0.749925	0.531426
C61	C	0.540335	-0.000085	-0.144201
C62	C	0.790335	0.249915	0.105799
C63	C	1.040335	0.499915	0.355799
C64	C	1.290335	0.749915	0.605799
C65	C	0.585950	-0.000090	-0.076733
C66	C	0.835950	0.249910	0.173267
C67	C	1.085950	0.499910	0.423267
C68	C	1.335950	0.749910	0.673267
C69	C	0.667961	-0.000084	-0.083642
C70	C	0.917961	0.249916	0.166358
C71	C	1.167961	0.499916	0.416358
C72	C	1.417961	0.749916	0.666358
C73	C	0.292946	-0.000108	-0.119792
C74	C	0.542946	0.249892	0.130208
C75	C	0.792946	0.499892	0.380208
C76	C	1.042946	0.749892	0.630208
C77	C	0.210929	-0.000112	-0.112887
C78	C	0.460929	0.249888	0.137113
C79	C	0.710929	0.499888	0.387113
C80	C	0.960929	0.749888	0.637113
C81	C	0.201722	-0.000098	-0.254729
C82	C	0.451722	0.249902	-0.004729
C83	C	0.701722	0.499902	0.245271
C84	C	0.951722	0.749902	0.495271
C85	C	0.283734	-0.000088	-0.261632
C86	C	0.533734	0.249912	-0.011632
C87	C	0.783734	0.499912	0.238368
C88	C	1.033734	0.749912	0.488368
C89	C	0.329342	-0.000098	-0.194164
C90	C	0.579342	0.249902	0.055836
C91	C	0.829342	0.499902	0.305836
C92	C	1.079342	0.749902	0.555836
C93	C	0.456505	-0.000094	-0.137138
C94	C	0.706505	0.249906	0.112862
C95	C	0.956505	0.499906	0.362862
C96	C	1.206505	0.749906	0.612862
C97	C	0.413170	-0.000094	-0.201228
C98	C	0.663170	0.249906	0.048772
C99	C	0.913170	0.499906	0.298772
C100	C	1.163170	0.749906	0.548772
C101	C	0.972390	-0.259480	-0.131633
C102	C	1.222390	-0.009480	0.118367
C103	C	1.472390	0.240520	0.368367
C104	C	1.722390	0.490520	0.618367
C105	C	0.968265	-0.346668	-0.135759
C106	C	1.218265	-0.096668	0.114241
C107	C	1.468265	0.153332	0.364241
C108	C	1.718265	0.403332	0.614241
C109	C	0.916352	-0.390262	-0.187642
C110	C	1.166352	-0.140262	0.062358
C111	C	1.416352	0.109738	0.312358
C112	C	1.666352	0.359738	0.562358
C113	C	0.868556	-0.346663	-0.235395
C114	C	1.118556	-0.096663	0.014605
C115	C	1.368556	0.153337	0.264605
C116	C	1.618556	0.403337	0.514605
C117	C	0.872678	-0.259476	-0.231265
C118	C	1.122678	-0.009476	0.018735
C119	C	1.372678	0.240524	0.268735
C120	C	1.622678	0.490524	0.518735
C121	C	0.901410	-0.653510	-0.202602
C122	C	1.151410	-0.403510	0.047398
C123	C	1.401410	-0.153510	0.297398
C124	C	1.651410	0.096490	0.547398
C125	C	0.897294	-0.740702	-0.206731
C126	C	1.147294	-0.490702	0.043269
C127	C	1.397294	-0.240702	0.293269
C128	C	1.647294	0.009298	0.543269
C129	C	0.997003	-0.740702	-0.107093
C130	C	1.247003	-0.490702	0.142907
C131	C	1.497003	-0.240702	0.392907
C132	C	1.747003	0.009298	0.642907
C133	C	1.001123	-0.653513	-0.102971
C134	C	1.251123	-0.403513	0.147029
C135	C	1.501123	-0.153513	0.397029
C136	C	1.751123	0.096487	0.647029
C137	C	0.953324	-0.609922	-0.150721
C138	C	1.203324	-0.359922	0.099279
C139	C	1.453324	-0.109922	0.349279
C140	C	1.703324	0.140078	0.599279
C141	C	0.912136	-0.479383	-0.191862
C142	C	1.162136	-0.229383	0.058138
C143	C	1.412136	0.020617	0.308138
C144	C	1.662136	0.270617	0.558138
C145	C	0.957536	-0.520803	-0.146496
C146	C	1.207536	-0.270803	0.103504
C147	C	1.457536	-0.020803	0.353504
C148	C	1.707536	0.229197	0.603504
C149	C	1.078037	-0.000105	-0.173002
C150	C	1.328037	0.249895	0.076998
C151	C	1.578037	0.499895	0.326998
C152	C	1.828037	0.749895	0.576998
C153	C	1.165320	-0.000108	-0.180351
C154	C	1.415320	0.249892	0.069649
C155	C	1.665320	0.499892	0.319649
C156	C	1.915320	0.749892	0.569649
C157	C	0.931022	-0.000097	-0.025987
C158	C	1.181022	0.249903	0.224013
C159	C	1.431022	0.499903	0.474013
C160	C	1.681022	0.749903	0.724013
C161	C	0.923674	-0.000096	0.061297
C162	C	1.173674	0.249904	0.311297
C163	C	1.423674	0.499904	0.561297
C164	C	1.673674	0.749904	0.811297
N165	N	0.945085	0.215705	-0.158979
N166	N	1.195085	0.465705	0.091021
N167	N	1.445085	0.715705	0.341021
N168	N	1.695085	0.965705	0.591021
C169	C	0.938656	-0.000083	-0.312383
C170	C	1.188656	0.249917	-0.062383
C171	C	1.438656	0.499917	0.187617
C172	C	1.688656	0.749917	0.437617
C173	C	0.946005	-0.000079	-0.399666
C174	C	1.196005	0.249921	-0.149666
C175	C	1.446005	0.499921	0.100334
C176	C	1.696005	0.749921	0.350334
C177	C	0.991137	-0.000104	0.106906
C178	C	1.241137	0.249896	0.356906
C179	C	1.491137	0.499896	0.606906
C180	C	1.741137	0.749896	0.856906
C181	C	0.984229	-0.000096	0.188918
C182	C	1.234229	0.249904	0.438918
C183	C	1.484229	0.499904	0.688918
C184	C	1.734229	0.749904	0.938918
C185	C	0.909856	-0.000085	0.225320
C186	C	1.159856	0.249915	0.475320
C187	C	1.409856	0.499915	0.725320
C188	C	1.659856	0.749915	0.975320
C189	C	0.842388	-0.000074	0.179705
C190	C	1.092388	0.249926	0.429705
C191	C	1.342388	0.499926	0.679705
C192	C	1.592388	0.749926	0.929705
C193	C	0.849297	-0.000077	0.097694
C194	C	1.099297	0.249923	0.347694
C195	C	1.349297	0.499923	0.597694
C196	C	1.599297	0.749923	0.847694
C197	C	0.885446	-0.000071	0.472708
C198	C	1.135446	0.249929	0.722708
C199	C	1.385446	0.499929	0.972708
C200	C	1.635446	0.749929	1.222708
C201	C	0.878541	-0.000071	0.554725
C202	C	1.128541	0.249929	0.804725
C203	C	1.378541	0.499929	1.054725
C204	C	1.628541	0.749929	1.304725
C205	C	1.020383	-0.000091	0.563932
C206	C	1.270383	0.249909	0.813932
C207	C	1.520383	0.499909	1.063932
C208	C	1.770383	0.749909	1.313932
C209	C	1.027286	-0.000098	0.481920
C210	C	1.277286	0.249902	0.731920
C211	C	1.527286	0.499902	0.981920
C212	C	1.777286	0.749902	1.231920
C213	C	0.959818	-0.000083	0.436312
C214	C	1.209818	0.249917	0.686312
C215	C	1.459818	0.499917	0.936312
C216	C	1.709818	0.749917	1.186312
C217	C	0.902792	-0.000079	0.309149
C218	C	1.152792	0.249921	0.559149
C219	C	1.402792	0.499921	0.809149
C220	C	1.652792	0.749921	1.059149
C221	C	0.966882	-0.000084	0.352485
C222	C	1.216882	0.249916	0.602485
C223	C	1.466882	0.499916	0.852485
C224	C	1.716882	0.749916	1.102485
H225	H	0.688381	-0.000056	-0.286045
H226	H	0.938381	0.249944	-0.036045
H227	H	1.188381	0.499944	0.213955
H228	H	1.438381	0.749944	0.463955
H229	H	0.705095	-0.000086	-0.028706
H230	H	0.955095	0.249914	0.221294
H231	H	1.205095	0.499914	0.471294
H232	H	1.455095	0.749914	0.721294
H233	H	1.087848	-0.000107	0.452287
H234	H	1.337848	0.249893	0.702287
H235	H	1.587848	0.499893	0.952287
H236	H	1.837848	0.749893	1.202287
H237	H	0.826283	-0.382162	-0.277636
H238	H	1.076283	-0.132162	-0.027636
H239	H	1.326283	0.117838	0.222364
H240	H	1.576283	0.367838	0.472364
H241	H	1.007180	-0.382161	-0.096876
H242	H	1.257180	-0.132161	0.153124
H243	H	1.507180	0.117839	0.403124
H244	H	1.757180	0.367839	0.653124
H245	H	1.043394	-0.618021	-0.060724
H246	H	1.293394	-0.368021	0.189276
H247	H	1.543394	-0.118021	0.439276
H248	H	1.793394	0.131979	0.689276
H249	H	0.862492	-0.618024	-0.241484
H250	H	1.112492	-0.368024	0.008516
H251	H	1.362492	-0.118024	0.258516
H252	H	1.612492	0.131976	0.508516
H253	H	0.999800	-0.485307	-0.104250
H254	H	1.249800	-0.235307	0.145750
H255	H	1.499800	0.014693	0.395750
H256	H	1.749800	0.264693	0.645750
H257	H	0.869870	-0.514884	-0.234107
H258	H	1.119870	-0.264884	0.015893
H259	H	1.369870	-0.014884	0.265893
H260	H	1.619870	0.235116	0.515893
H261	H	0.833760	-0.223984	-0.270148
H262	H	1.083760	0.026016	-0.020148
H263	H	1.333760	0.276016	0.229852
H264	H	1.583760	0.526016	0.479852
H265	H	1.075312	-0.000101	0.601075
H266	H	1.325312	0.249899	0.851075
H267	H	1.575312	0.499899	1.101075
H268	H	1.825312	0.749899	1.351075
H269	H	0.330070	-0.000117	-0.064854
H270	H	0.580070	0.249883	0.185146
H271	H	0.830070	0.499883	0.435146
H272	H	1.080070	0.749883	0.685146
H273	H	0.781832	-0.000060	0.209350
H274	H	1.031832	0.249940	0.459350
H275	H	1.281832	0.499940	0.709350
H276	H	1.531832	0.749940	0.959350
H277	H	0.426857	-0.000125	-0.076584
H278	H	0.676857	0.249875	0.173416
H279	H	0.926857	0.499875	0.423416
H280	H	1.176857	0.749875	0.673416
H281	H	0.539605	-0.000072	-0.273510
H282	H	0.789605	0.249928	-0.023510
H283	H	1.039605	0.499928	0.226490
H284	H	1.289605	0.749928	0.476490
H285	H	1.051699	-0.000118	0.077274
H286	H	1.301699	0.249882	0.327274
H287	H	1.551699	0.499882	0.577274
H288	H	1.801699	0.749882	0.827274
H289	H	1.039165	-0.000104	0.226050
H290	H	1.289165	0.249896	0.476050
H291	H	1.539165	0.499896	0.726050
H292	H	1.789165	0.749896	0.976050
H293	H	0.817975	-0.000075	0.584359
H294	H	1.067975	0.249925	0.834359
H295	H	1.317975	0.499925	1.084359
H296	H	1.567975	0.749925	1.334359
H297	H	0.794361	-0.000070	0.060560
H298	H	1.044361	0.249930	0.310560
H299	H	1.294361	0.499930	0.560560
H300	H	1.544361	0.749930	0.810560
H301	H	0.181294	-0.000118	-0.052321
H302	H	0.431294	0.249882	0.197679
H303	H	0.681294	0.499882	0.447679
H304	H	0.931294	0.749882	0.697679
H305	H	0.830508	-0.000059	0.435584
H306	H	1.080508	0.249941	0.685584
H307	H	1.330508	0.499941	0.935584
H308	H	1.580508	0.749941	1.185584
H309	H	1.027437	-0.000074	0.322844
H310	H	1.277437	0.249926	0.572844
H311	H	1.527437	0.499926	0.822844
H312	H	1.777437	0.749926	1.072844
H313	H	0.313367	-0.000070	-0.322194
H314	H	0.563367	0.249930	-0.072194
H315	H	0.813367	0.499930	0.177806
H316	H	1.063367	0.749930	0.427806
H317	H	0.164579	-0.000092	-0.309658
H318	H	0.414579	0.249908	-0.059658
H319	H	0.664579	0.499908	0.190342
H320	H	0.914579	0.749908	0.440342
H321	H	0.842238	-0.000072	0.338796
H322	H	1.092238	0.249928	0.588796
H323	H	1.342238	0.499928	0.838796
H324	H	1.592238	0.749928	1.088796
H325	H	0.556305	-0.000110	-0.016177
H326	H	0.806305	0.249890	0.233823
H327	H	1.056305	0.499890	0.483823
H328	H	1.306305	0.749890	0.733823
H329	H	0.442811	-0.000091	-0.261782
H330	H	0.692811	0.249909	-0.011782
H331	H	0.942811	0.499909	0.238218
H332	H	1.192811	0.749909	0.488218
H333	H	1.014666	-0.223992	-0.089389
H334	H	1.264666	0.026008	0.160611
H335	H	1.514666	0.276008	0.410611
H336	H	1.764666	0.526008	0.660611
H337	H	0.855019	-0.776192	-0.248983
H338	H	1.105019	-0.526192	0.001017
H339	H	1.355019	-0.276192	0.251017
H340	H	1.605019	-0.026192	0.501017
H341	H	1.035918	-0.776202	-0.068216
H342	H	1.285918	-0.526202	0.181784
H343	H	1.535918	-0.276202	0.431784
H344	H	1.785918	-0.026202	0.681784
