data_functionalizedCrystal
_audit_creation_method	'MofGen! by Chris Wilmer'
_symmetry_space_group_name_H-M	'P1'
_symmetry_Int_Tables_number	1
_symmetry_cell_setting	triclinic
loop_
_symmetry_equiv_pos_as_xyz
  x,y,z
_cell_length_a	15.297475
_cell_length_b	16.120444
_cell_length_c	16.120256
_cell_angle_alpha	95.616860
_cell_angle_beta	83.675350
_cell_angle_gamma	83.688625
loop_
_atom_site_label
_atom_site_type_symbol
_atom_site_fract_x
_atom_site_fract_y
_atom_site_fract_z
Zn1	Zn	1.308562	-0.577536	-0.709556
Zn2	Zn	1.808562	-0.077536	-0.209556
Zn3	Zn	1.308448	-0.710203	-0.576848
Zn4	Zn	1.808448	-0.210203	-0.076848
Zn5	Zn	1.168346	-0.546812	-0.546217
Zn6	Zn	1.668346	-0.046812	-0.046217
Zn7	Zn	1.152483	-0.690935	-0.690339
Zn8	Zn	1.652483	-0.190935	-0.190339
O9	O	1.234460	-0.631372	-0.630740
O10	O	1.734460	-0.131372	-0.130740
O11	O	1.432500	-0.616057	-0.712813
O12	O	1.932500	-0.116057	-0.212813
O13	O	1.296454	-0.683734	-0.456931
O14	O	1.796454	-0.183734	0.043069
O15	O	1.193632	-0.435049	-0.563107
O16	O	1.693632	0.064951	-0.063107
O17	O	1.432416	-0.713527	-0.615313
O18	O	1.932416	-0.213527	-0.115313
O19	O	1.296648	-0.457623	-0.683112
O20	O	1.796648	0.042377	-0.183112
O21	O	1.193521	-0.563691	-0.434426
O22	O	1.693521	-0.063691	0.065574
O23	O	1.042288	-0.545008	-0.544474
O24	O	1.542288	-0.045008	-0.044474
O25	O	1.166596	-0.680688	-0.808742
O26	O	1.666596	-0.180688	-0.308742
O27	O	1.030634	-0.650895	-0.650359
O28	O	1.530634	-0.150895	-0.150359
O29	O	1.281267	-0.597374	-0.822860
O30	O	1.781267	-0.097374	-0.322860
O31	O	1.281073	-0.823485	-0.596679
O32	O	1.781073	-0.323485	-0.096679
O33	O	1.166486	-0.809329	-0.680061
O34	O	1.666486	-0.309329	-0.180061
C35	C	1.004321	-0.592527	-0.592008
C36	C	1.504321	-0.092527	-0.092008
C37	C	0.905865	-0.575930	-0.575458
C38	C	1.405865	-0.075930	-0.075458
C39	C	0.604160	-0.750000	-0.749023
C40	C	1.104160	-0.250000	-0.249023
C41	C	0.696664	-0.765600	-0.764569
C42	C	1.196664	-0.265600	-0.264569
C43	C	0.748969	-0.718183	-0.717293
C44	C	1.248969	-0.218183	-0.217293
C45	C	0.708760	-0.655165	-0.654467
C46	C	1.208760	-0.155165	-0.154467
C47	C	0.616246	-0.639568	-0.638914
C48	C	1.116246	-0.139568	-0.138914
C49	C	0.761056	-0.607752	-0.607185
C50	C	1.261056	-0.107752	-0.107185
C51	C	0.720847	-0.544733	-0.544359
C52	C	1.220847	-0.044733	-0.044359
C53	C	0.628342	-0.529139	-0.528809
C54	C	1.128342	-0.029139	-0.028809
C55	C	0.576038	-0.576555	-0.576085
C56	C	1.076038	-0.076555	-0.076085
C57	C	0.853569	-0.623349	-0.622738
C58	C	1.353569	-0.123349	-0.122738
C59	C	0.865656	-0.512917	-0.512629
C60	C	1.365656	-0.012917	-0.012629
C61	C	0.773152	-0.497317	-0.497083
C62	C	1.273152	0.002683	0.002917
C63	C	1.222068	-0.846448	-0.639631
C64	C	1.722068	-0.346448	-0.139631
C65	C	1.216847	-0.938473	-0.643476
C66	C	1.716847	-0.438473	-0.143476
C67	C	1.261753	-1.154958	-0.611009
C68	C	1.761753	-0.654958	-0.111009
C69	C	1.207329	-1.106962	-0.650507
C70	C	1.707329	-0.606962	-0.150507
C71	C	1.212627	-1.013206	-0.646593
C72	C	1.712627	-0.513206	-0.146593
C73	C	1.256458	-1.248723	-0.614921
C74	C	1.756458	-0.748723	-0.114921
C75	C	1.465497	-0.670369	-0.669624
C76	C	1.965497	-0.170369	-0.169624
C77	C	1.563951	-0.686987	-0.686194
C78	C	2.063951	-0.186987	-0.186194
C79	C	1.222175	-0.640309	-0.846681
C80	C	1.722175	-0.140309	-0.346681
C81	C	1.216940	-0.644117	-0.938702
C82	C	1.716940	-0.144117	-0.438702
C83	C	1.246922	-0.415461	-0.621836
C84	C	1.746922	0.084539	-0.121836
C85	C	1.252233	-0.323452	-0.618042
C86	C	1.752233	0.176548	-0.118042
C87	C	1.261760	-0.611490	-1.155166
C88	C	1.761760	-0.111490	-0.655166
C89	C	1.207354	-0.651031	-1.107175
C90	C	1.707354	-0.151031	-0.607175
C91	C	1.212689	-0.647183	-1.013428
C92	C	1.712689	-0.147183	-0.513428
C93	C	1.256426	-0.615337	-1.248921
C94	C	1.756426	-0.115337	-0.748921
C95	C	1.246751	-0.622418	-0.415645
C96	C	1.746751	-0.122418	0.084355
C97	C	1.252171	-0.618406	-0.323644
C98	C	1.752171	-0.118406	0.176356
H99	H	0.824290	-0.730888	-0.729956
H100	H	1.324290	-0.230888	-0.229956
H101	H	0.561565	-0.788604	-0.787503
H102	H	1.061565	-0.288604	-0.287503
Br103	Br	1.346039	-1.106087	-0.549752
Br104	Br	1.846039	-0.606087	-0.049752
H105	H	1.156764	-0.687767	-1.136493
H106	H	1.656764	-0.187767	-0.636493
Br107	Br	1.346054	-0.550239	-1.106297
Br108	Br	1.846054	-0.050239	-0.606297
H109	H	0.729395	-0.816911	-0.815721
H110	H	1.229395	-0.316911	-0.315721
Br111	Br	0.908127	-0.708872	-0.707998
Br112	Br	1.408127	-0.208872	-0.207998
H113	H	0.500712	-0.563855	-0.563432
H114	H	1.000712	-0.063855	-0.063432
H115	H	0.595607	-0.477833	-0.477644
H116	H	1.095607	0.022167	0.022356
H117	H	0.740400	-0.446007	-0.445929
H118	H	1.240400	0.053993	0.054071
Br119	Br	1.123036	-1.155831	-0.711765
Br120	Br	1.623036	-0.655831	-0.211765
Br121	Br	0.936633	-0.448569	-0.448458
Br122	Br	1.436633	0.051431	0.051542
