data_functionalizedCrystal
_audit_creation_method	'MofGen! by Chris Wilmer'
_symmetry_space_group_name_H-M	'P1'
_symmetry_Int_Tables_number	1
_symmetry_cell_setting	triclinic
loop_
_symmetry_equiv_pos_as_xyz
  x,y,z
_cell_length_a	18.426585
_cell_length_b	14.809374
_cell_length_c	14.809436
_cell_angle_alpha	60.797289
_cell_angle_beta	89.999113
_cell_angle_gamma	67.427171
loop_
_atom_site_label
_atom_site_type_symbol
_atom_site_fract_x
_atom_site_fract_y
_atom_site_fract_z
Zr1	Zr	0.801598	0.955240	-0.203700
O2	O	0.712700	1.113158	-0.350856
O3	O	0.816264	0.777473	-0.145624
O4	O	0.845950	0.926624	-0.332165
O5	O	0.673914	0.993501	-0.031917
O6	O	0.965377	0.926630	-0.332169
O7	O	0.683014	0.964007	-0.164315
O8	O	0.912274	0.659826	0.001519
O9	O	0.727017	1.260305	-0.365605
O10	O	0.926852	0.857947	-0.136522
O11	O	0.830933	0.879954	-0.037712
O12	O	0.865885	1.055559	-0.257339
O13	O	0.769967	1.077566	-0.158529
Zr14	Zr	0.977556	1.002288	0.007454
Zr15	Zr	0.992070	0.955249	-0.203707
Zr16	Zr	0.787084	1.002279	0.007460
Zr17	Zr	0.824431	1.189922	-0.227222
Zr18	Zr	0.954723	0.767606	0.030976
O19	O	0.962890	1.180055	-0.050623
O20	O	0.983526	1.113170	-0.350865
O21	O	0.692063	1.180042	-0.050614
O22	O	1.066454	0.844370	0.154610
O23	O	1.087091	0.777486	-0.145633
O24	O	0.795627	0.844358	0.154619
O25	O	1.105240	0.964027	-0.164330
O26	O	0.933204	1.030904	0.135918
O27	O	0.813777	1.030899	0.135922
O28	O	1.096140	0.993521	-0.031931
O29	O	0.878416	1.260312	-0.365610
O30	O	0.900737	0.697216	0.169363
O31	O	1.052137	0.697223	0.169358
O32	O	1.063674	0.659833	0.001514
O33	O	0.715480	1.297695	-0.197761
O34	O	0.866880	1.297702	-0.197766
O35	O	0.913269	0.901969	0.061093
O36	O	1.009187	0.879962	-0.037717
O37	O	0.948220	1.077574	-0.158535
O38	O	0.852302	1.099581	-0.059725
C39	C	0.861016	0.685213	-0.068701
C40	C	0.851322	0.585584	-0.058715
C41	C	0.894583	0.530249	-0.103280
C42	C	0.884565	0.427278	-0.092960
C43	C	0.651326	0.978753	-0.098115
C44	C	0.570465	0.978749	-0.098113
C45	C	0.274356	0.978784	-0.098134
C46	C	0.356741	0.978779	-0.098131
C47	C	0.422408	0.978766	-0.098124
C48	C	0.504798	0.978762	-0.098120
C49	C	1.127828	0.978775	-0.098131
C50	C	1.208688	0.978779	-0.098134
C51	C	0.907731	0.919925	-0.362252
C52	C	0.913893	0.899955	-0.451896
C53	C	0.918138	1.272315	-0.127546
C54	C	0.927831	1.371944	-0.137531
C55	C	0.892758	0.968449	-0.644451
C56	C	0.886392	0.989091	-0.551801
C57	C	0.871422	1.037603	0.166006
C58	C	0.865261	1.057573	0.255649
C59	C	1.099267	0.685224	-0.068709
C60	C	1.170434	0.585599	-0.058726
C61	C	0.842861	0.744052	0.195428
C62	C	0.827006	0.664393	0.295057
C63	C	1.081113	0.744063	0.195420
C64	C	1.146118	0.664407	0.295046
C65	C	0.698041	1.213465	-0.391667
C66	C	0.633036	1.293121	-0.491293
C67	C	0.679887	1.272305	-0.127538
C68	C	0.608720	1.371929	-0.137521
C69	C	0.936293	1.213476	-0.391675
C70	C	0.952147	1.293135	-0.491304
C71	C	1.160877	0.527320	-0.105622
C72	C	1.227741	0.433720	-0.096263
C73	C	1.304161	0.398396	-0.040001
C74	C	1.313717	0.456684	0.006895
C75	C	1.246854	0.550287	-0.002471
C76	C	0.862538	0.638478	0.393427
C77	C	0.847638	0.563645	0.487046
C78	C	0.797211	0.514721	0.482292
C79	C	0.761675	0.540643	0.383911
C80	C	0.776570	0.615482	0.290294
C81	C	1.226721	0.615513	0.290254
C82	C	1.287810	0.540680	0.383854
C83	C	1.268293	0.514736	0.482245
C84	C	1.187681	0.563639	0.487035
C85	C	1.126595	0.638477	0.393436
C86	C	0.552433	1.342026	-0.486501
C87	C	0.491348	1.416889	-0.580104
C88	C	0.510865	1.442838	-0.678497
C89	C	0.591476	1.393929	-0.683286
C90	C	0.652561	1.319074	-0.589685
C91	C	0.618278	1.430216	-0.090635
C92	C	0.551418	1.523836	-0.100020
C93	C	0.474999	1.559163	-0.156284
C94	C	0.465443	1.500871	-0.203176
C95	C	0.532303	1.407258	-0.193797
C96	C	1.002579	1.342036	-0.486515
C97	C	1.017492	1.416874	-0.580118
C98	C	0.981968	1.442815	-0.678508
C99	C	0.931534	1.393906	-0.683293
C100	C	0.916626	1.319063	-0.589691
H101	H	0.972291	0.400794	-0.183323
H102	H	0.680496	1.401463	-0.044812
H103	H	1.219945	0.386272	-0.134453
Br104	Br	0.968682	0.578334	-0.179602
Br105	Br	0.818175	1.210226	-0.772595
Br106	Br	0.939857	0.815796	-0.616206
H107	H	1.318041	0.453795	0.558452
Br108	Br	1.394895	0.271359	-0.027300
H109	H	1.353443	0.500868	0.379935
Br110	Br	1.259838	0.629365	0.061188
Br111	Br	0.361725	1.548827	-0.279529
Br112	Br	0.777003	0.413156	0.609356
Br113	Br	0.519315	1.328160	-0.257431
Br114	Br	1.050800	1.306848	-0.352998
H115	H	1.058557	1.456690	-0.576201
H116	H	1.375946	0.427909	0.052703
H117	H	0.903600	0.678305	0.397318
H118	H	0.747636	0.636569	0.210201
Br119	Br	0.895875	0.528480	0.620548
Br120	Br	0.839304	1.141750	-0.580053
Br121	Br	0.384268	1.686214	-0.169003
Br122	Br	0.525923	1.306825	-0.352981
Br123	Br	0.693239	0.474237	0.377478
Br124	Br	1.253232	0.650711	0.156734
H125	H	0.425715	1.456699	-0.576184
Br126	Br	0.617951	1.429154	-0.816828
H127	H	0.840111	0.398421	-0.047161
Br128	Br	1.161207	0.528418	0.620577
H129	H	0.806871	0.556723	-0.012919
H130	H	1.060965	0.678278	0.397353
Br131	Br	0.427954	1.544430	-0.805519
H132	H	0.942150	0.808364	-0.434949
H133	H	1.098660	0.556076	-0.151448
Br134	Br	1.002207	1.544393	-0.805531
Br135	Br	0.761949	1.252703	-0.596206
H136	H	0.559215	1.571284	-0.061829
H137	H	0.902614	1.415039	-0.763415
H138	H	0.875557	1.279255	-0.593605
