data_functionalizedCrystal
_audit_creation_method	'MofGen! by Chris Wilmer'
_symmetry_space_group_name_H-M	'P1'
_symmetry_Int_Tables_number	1
_symmetry_cell_setting	triclinic
loop_
_symmetry_equiv_pos_as_xyz
  x,y,z
_cell_length_a	19.805407
_cell_length_b	19.077068
_cell_length_c	19.805399
_cell_angle_alpha	92.269429
_cell_angle_beta	89.980427
_cell_angle_gamma	92.327086
loop_
_atom_site_label
_atom_site_type_symbol
_atom_site_fract_x
_atom_site_fract_y
_atom_site_fract_z
Zn1	Zn	1.023904	-0.280218	-0.393534
Zn2	Zn	1.019269	-0.397917	-0.284888
Zn3	Zn	0.910718	-0.280237	-0.280359
Zn4	Zn	0.906134	-0.397880	-0.398033
O5	O	0.965006	-0.339063	-0.339204
O6	O	1.118005	-0.295839	-0.379134
O7	O	1.004848	-0.382330	-0.189571
O8	O	0.929590	-0.181744	-0.291594
O9	O	1.114600	-0.382312	-0.299312
O10	O	1.012748	-0.181729	-0.374743
O11	O	0.925096	-0.295872	-0.186244
O12	O	0.815394	-0.295835	-0.295957
O13	O	0.921778	-0.382248	-0.492152
O14	O	0.812026	-0.382267	-0.382411
O15	O	1.008303	-0.295802	-0.488846
O16	O	1.000404	-0.496403	-0.303675
O17	O	0.917284	-0.496376	-0.386802
C18	C	0.789151	-0.339050	-0.339181
C19	C	0.713918	-0.339061	-0.339188
C20	C	0.676836	-0.384133	-0.384138
C21	C	0.606147	-0.384135	-0.384147
C22	C	0.572543	-0.339066	-0.339204
C23	C	0.609630	-0.293989	-0.294252
C24	C	0.680318	-0.293985	-0.294246
C25	C	0.324556	-0.294004	-0.294275
C26	C	0.253864	-0.294014	-0.294283
C27	C	0.250386	-0.384154	-0.384176
C28	C	0.321073	-0.384150	-0.384170
C29	C	0.358155	-0.339070	-0.339221
C30	C	0.434804	-0.339069	-0.339212
C31	C	0.495895	-0.339071	-0.339209
C32	C	0.957862	-0.521927	-0.346233
C33	C	0.954867	-0.600157	-0.349263
C34	C	0.996770	-0.636901	-0.307443
C35	C	0.993957	-0.710406	-0.310296
C36	C	0.949238	-0.747167	-0.354968
C37	C	0.907333	-0.710418	-0.396793
C38	C	0.910150	-0.636914	-0.393942
C39	C	0.936174	-0.967002	-0.368135
C40	C	0.933359	-1.040511	-0.370981
C41	C	1.019984	-1.040494	-0.284485
C42	C	1.022794	-0.966989	-0.281635
C43	C	0.980892	-0.930246	-0.323463
N44	N	0.946361	-0.822301	-0.357884
N45	N	0.983773	-0.855113	-0.320549
C46	C	1.141548	-0.339077	-0.339226
C47	C	1.216780	-0.339083	-0.339236
C48	C	0.965046	-0.339019	-0.515745
C49	C	0.965063	-0.339000	-0.590976
C50	C	0.972197	-0.155485	-0.332161
C51	C	0.975262	-0.077255	-0.329160
C52	C	1.010118	-0.293985	-0.624600
C53	C	1.010125	-0.293965	-0.695288
C54	C	0.965081	-0.338963	-0.732350
C55	C	0.920022	-0.383980	-0.698721
C56	C	0.920011	-0.383996	-0.628035
C57	C	0.920062	-0.383914	-0.983792
C58	C	0.920078	-0.383896	-1.054484
C59	C	1.010177	-0.293883	-1.051045
C60	C	1.010166	-0.293899	-0.980358
C61	C	0.965104	-0.338913	-0.946736
C62	C	0.965096	-0.338934	-0.870088
C63	C	0.965093	-0.338947	-0.808997
C64	C	0.965008	-0.339056	-0.163347
C65	C	0.965130	-0.338877	-0.088109
H66	H	0.582264	-0.257290	-0.257661
H67	H	0.226505	-0.257309	-0.257684
C68	C	1.071278	-0.926953	-0.233154
C69	C	1.064761	-0.854716	-0.239595
C70	C	1.109405	-0.817813	-0.194936
H71	H	1.116322	-0.938866	-0.243519
H72	H	1.060928	-0.939000	-0.188121
H73	H	1.075115	-0.842674	-0.284618
H74	H	1.019727	-0.842782	-0.229225
H75	H	1.099055	-0.829860	-0.149903
H76	H	1.154445	-0.829732	-0.205304
H77	H	1.104985	-0.768797	-0.199296
C78	C	0.858675	-0.750236	-0.445253
C79	C	0.792399	-0.732408	-0.429774
C80	C	0.747555	-0.769064	-0.474407
H81	H	0.862903	-0.799286	-0.441006
H82	H	0.868978	-0.738134	-0.490282
H83	H	0.782098	-0.744514	-0.384757
H84	H	0.788149	-0.683364	-0.434026
H85	H	0.757859	-0.756962	-0.519435
H86	H	0.751790	-0.818113	-0.470156
H87	H	0.702583	-0.756968	-0.463915
C88	C	0.364690	-0.245035	-0.245400
C89	C	0.320127	-0.205582	-0.206032
C90	C	0.357076	-0.160467	-0.160995
H91	H	0.393473	-0.214339	-0.270086
H92	H	0.391192	-0.271895	-0.216858
H93	H	0.293636	-0.178724	-0.234570
H94	H	0.291343	-0.236260	-0.181332
H95	H	0.383579	-0.187327	-0.132453
H96	H	0.385858	-0.129776	-0.185685
H97	H	0.326846	-0.133698	-0.134273
H98	H	1.054099	-1.070418	-0.250432
H99	H	0.348430	-0.420852	-0.420766
C100	C	0.884788	-1.080297	-0.419559
C101	C	0.848709	-1.032389	-0.455595
C102	C	0.803969	-1.069014	-0.500354
H103	H	0.854149	-1.109017	-0.394831
H104	H	0.909557	-1.108914	-0.450215
H105	H	0.823941	-1.003784	-0.424943
H106	H	0.879329	-1.003667	-0.480336
H107	H	0.828737	-1.097631	-0.531010
H108	H	0.773335	-1.097732	-0.475621
H109	H	0.779488	-1.036514	-0.524814
H110	H	0.710510	-0.257278	-0.257647
C111	C	0.864693	-0.597106	-0.439462
C112	C	0.878701	-0.614942	-0.507133
C113	C	0.836836	-0.578291	-0.549089
H114	H	0.872735	-0.548055	-0.431459
H115	H	0.818744	-0.609209	-0.430027
H116	H	0.924638	-0.602834	-0.516564
H117	H	0.870655	-0.663986	-0.515157
H118	H	0.790887	-0.590394	-0.539654
H119	H	0.844881	-0.529242	-0.541080
H120	H	0.846330	-0.590392	-0.595009
C121	C	1.059053	-0.245052	-0.584483
C122	C	1.098498	-0.205612	-0.629062
C123	C	1.143578	-0.160518	-0.592133
H124	H	1.087549	-0.271904	-0.557940
H125	H	1.034374	-0.214352	-0.555740
H126	H	1.123175	-0.236308	-0.657793
H127	H	1.070020	-0.178746	-0.655605
H128	H	1.118899	-0.129818	-0.563390
H129	H	1.172070	-0.187376	-0.565592
H130	H	1.170342	-0.133748	-0.622374
H131	H	1.033182	-0.606975	-0.271063
C132	C	1.058931	-0.244997	-0.731820
C133	C	1.022377	-0.199855	-0.770641
C134	C	1.067313	-0.154723	-0.804293
H135	H	1.087391	-0.271825	-0.760490
H136	H	1.085743	-0.218162	-0.699638
H137	H	0.995576	-0.226687	-0.802819
H138	H	0.993919	-0.173011	-0.741987
H139	H	1.094125	-0.127889	-0.772111
H140	H	1.095771	-0.181557	-0.832959
H141	H	1.042517	-0.124085	-0.830632
C142	C	1.059100	-0.244966	-0.940239
C143	C	1.098547	-0.205524	-0.984815
C144	C	1.143624	-0.160430	-0.947882
H145	H	1.087595	-0.271819	-0.913696
H146	H	1.034419	-0.214267	-0.911497
H147	H	1.123226	-0.236220	-1.013545
H148	H	1.070070	-0.178658	-1.011359
H149	H	1.118943	-0.129731	-0.919140
H150	H	1.172115	-0.187289	-0.921340
H151	H	1.170390	-0.133659	-0.978121
H152	H	1.028079	-0.740320	-0.276241
H153	H	0.220186	-0.420858	-0.420778
H154	H	0.902054	-0.937092	-0.402191
H155	H	0.704191	-0.420836	-0.420734
C156	C	0.871091	-0.432777	-1.094604
C157	C	0.831611	-0.472187	-1.050030
C158	C	0.786475	-0.517214	-1.086963
H159	H	0.895706	-0.463503	-1.123364
H160	H	0.842627	-0.405855	-1.121128
H161	H	0.860072	-0.499107	-1.023517
H162	H	0.806982	-0.441479	-1.021269
H163	H	0.758011	-0.490293	-1.113487
H164	H	0.811096	-0.547936	-1.115722
H165	H	0.759679	-0.543955	-1.056725
C166	C	1.059021	-0.245029	-1.087674
C167	C	1.049379	-0.254626	-1.157510
C168	C	1.094356	-0.209630	-1.191272
H169	H	1.104122	-0.255292	-1.076574
H170	H	1.050961	-0.197726	-1.074309
H171	H	1.057445	-0.301917	-1.170870
H172	H	1.004287	-0.244357	-1.168629
H173	H	1.086295	-0.162327	-1.177907
H174	H	1.139454	-0.219897	-1.180167
H175	H	1.087815	-0.216130	-1.238659
H176	H	0.883380	-0.420577	-0.956426
C177	C	0.871189	-0.432808	-0.739080
C178	C	0.880853	-0.423174	-0.808182
C179	C	0.835887	-0.468151	-0.845379
H180	H	0.826084	-0.422550	-0.727175
H181	H	0.879245	-0.480116	-0.729349
H182	H	0.872791	-0.375876	-0.817908
H183	H	0.925948	-0.433437	-0.820107
H184	H	0.843943	-0.515459	-0.835648
H185	H	0.790785	-0.457889	-0.833468
H186	H	0.842442	-0.461625	-0.892268
H187	H	0.575957	-0.420838	-0.420749
C188	C	0.871016	-0.432758	-0.591491
C189	C	0.829173	-0.392916	-0.549386
C190	C	0.784022	-0.437811	-0.515722
H191	H	0.895622	-0.463448	-0.565043
H192	H	0.844155	-0.459542	-0.623669
H193	H	0.856031	-0.366144	-0.517213
H194	H	0.804553	-0.362227	-0.575818
H195	H	0.757161	-0.464595	-0.547899
H196	H	0.808633	-0.468499	-0.489277
H197	H	0.755622	-0.410785	-0.487155
