data_functionalizedCrystal
_audit_creation_method	'MofGen! by Chris Wilmer'
_symmetry_space_group_name_H-M	'P1'
_symmetry_Int_Tables_number	1
_symmetry_cell_setting	triclinic
loop_
_symmetry_equiv_pos_as_xyz
  x,y,z
_cell_length_a	15.995350
_cell_length_b	15.072220
_cell_length_c	15.995350
_cell_angle_alpha	89.991130
_cell_angle_beta	96.507625
_cell_angle_gamma	89.990384
loop_
_atom_site_label
_atom_site_type_symbol
_atom_site_fract_x
_atom_site_fract_y
_atom_site_fract_z
O1	O	1.110972	0.073703	-0.107936
O2	O	0.867197	0.073721	-0.121263
O3	O	0.995748	0.073710	0.007288
O4	O	0.982420	0.073713	-0.236487
O5	O	0.995764	-0.073855	0.007311
O6	O	0.867213	-0.073844	-0.121241
O7	O	1.110988	-0.073862	-0.107913
Zn8	Zn	0.989103	-0.097283	-0.114574
Zn9	Zn	0.989082	0.097141	-0.114603
O10	O	0.982437	-0.073852	-0.236465
C11	C	0.836010	-0.000060	-0.120701
C12	C	0.743060	-0.000053	-0.119049
C13	C	0.405312	-0.000071	-0.113117
C14	C	0.452746	-0.000401	-0.021565
C15	C	0.549436	-0.000063	-0.023217
C16	C	0.572873	-0.000063	-0.116060
C17	C	0.531776	0.084201	-0.161229
C18	C	0.435140	0.084266	-0.158929
C19	C	0.434820	-0.083543	-0.160795
C20	C	0.531766	-0.084651	-0.160773
C21	C	0.667570	-0.000055	-0.117727
C22	C	0.310614	-0.000073	-0.111452
C23	C	0.995205	-0.000070	0.038494
C24	C	0.993553	-0.000065	0.131444
C25	C	1.142175	-0.000080	-0.108476
C26	C	1.235125	-0.000081	-0.110127
N27	N	0.989067	0.229830	-0.114617
N28	N	0.989124	-0.229971	-0.114553
C29	C	0.989105	0.589031	-0.114574
C30	C	0.920393	0.551430	-0.183434
C31	C	0.920138	0.448604	-0.183269
C32	C	0.989086	0.410827	-0.114596
C33	C	0.970234	0.448135	-0.027160
C34	C	0.969751	0.550993	-0.027551
C35	C	1.076872	0.551110	-0.132369
C36	C	1.076276	0.448246	-0.134368
C37	C	0.989077	0.310114	-0.114603
C38	C	0.989112	0.689745	-0.114561
C39	C	0.982980	-0.000069	-0.267671
C40	C	0.984631	-0.000069	-0.360621
C41	C	0.987621	-0.000068	0.469192
C42	C	0.896069	0.000270	0.421758
C43	C	0.897721	-0.000063	0.325068
C44	C	0.990564	-0.000066	0.301631
C45	C	1.035730	-0.084335	0.342722
C46	C	1.033430	-0.084405	0.439357
C47	C	1.035302	0.083404	0.439690
C48	C	1.035281	0.084518	0.342744
C49	C	0.992231	-0.000068	0.206934
C50	C	0.985956	-0.000072	0.563890
H51	H	0.434231	-0.060830	0.015040
H52	H	1.102984	0.089603	0.327382
O53	O	1.028240	0.418909	0.035538
C54	C	0.987588	0.370178	0.094415
H55	H	0.918708	0.390959	0.090203
H56	H	1.019509	0.383864	0.160538
H57	H	0.991676	0.296307	0.080113
O58	O	1.113656	-0.088867	0.477745
C59	C	1.159535	-0.014849	0.454188
H60	H	1.128637	0.012534	0.391763
H61	H	1.226838	-0.035827	0.447063
H62	H	1.160229	0.038598	0.504688
O63	O	0.852665	-0.071388	0.445285
C64	C	0.848155	-0.068298	0.532758
H65	H	0.901912	-0.025967	0.564041
H66	H	0.853444	-0.138394	0.559623
H67	H	0.785466	-0.038035	0.545342
O68	O	0.994011	-0.159483	0.461147
C69	C	0.911356	-0.161284	0.419797
H70	H	0.890319	-0.090830	0.402052
H71	H	0.867205	-0.191058	0.463457
H72	H	0.909707	-0.203420	0.360450
H73	H	1.103939	-0.087471	0.328596
H74	H	0.931333	0.423382	-0.248256
O75	O	0.842469	0.419100	-0.169724
C76	C	0.841936	0.325557	-0.169501
H77	H	0.894182	0.299869	-0.205995
H78	H	0.778561	0.300678	-0.200442
H79	H	0.852633	0.300482	-0.101886
O80	O	0.998202	-0.159060	0.308822
C81	C	0.931163	-0.135454	0.247937
H82	H	0.908849	-0.065574	0.261288
H83	H	0.877031	-0.184194	0.250570
H84	H	0.953397	-0.137508	0.182721
O85	O	0.893461	0.579678	-0.008756
C86	C	0.904275	0.631758	0.064890
H87	H	0.966408	0.613682	0.103218
H88	H	0.850209	0.618740	0.103967
H89	H	0.904951	0.704964	0.047038
O90	O	0.933516	0.580712	-0.261300
C91	C	0.870967	0.545797	-0.321531
H92	H	0.843746	0.482917	-0.295684
H93	H	0.899846	0.529383	-0.381638
H94	H	0.818733	0.596858	-0.335978
H95	H	0.906965	0.422374	-0.011137
H96	H	0.547131	-0.089741	-0.228476
H97	H	1.005363	0.147274	0.460220
H98	H	1.017906	0.575864	0.025240
H99	H	0.862219	0.060344	0.296636
O100	O	1.098409	0.582113	-0.206856
C101	C	1.034450	0.638647	-0.244031
H102	H	0.972656	0.622110	-0.218372
H103	H	1.026901	0.628981	-0.315173
H104	H	1.052075	0.710565	-0.228611
H105	H	0.416825	0.147255	-0.126009
O106	O	0.548774	0.087993	-0.242554
C107	C	0.636571	0.091719	-0.244768
H108	H	0.667954	0.118669	-0.182376
H109	H	0.651268	0.137223	-0.298132
H110	H	0.661488	0.022280	-0.255586
O111	O	1.093243	0.419051	-0.211102
C112	C	1.026574	0.365065	-0.246811
H113	H	0.991119	0.337131	-0.194742
H114	H	1.052898	0.308122	-0.282767
H115	H	0.981795	0.406286	-0.291798
O116	O	0.429282	0.071188	0.021973
C117	C	0.392903	0.042266	0.093487
H118	H	0.368280	-0.028264	0.082744
H119	H	0.338650	0.088140	0.104837
H120	H	0.442357	0.043537	0.150707
O121	O	0.410372	-0.159828	-0.125201
C122	C	0.437815	-0.233285	-0.169367
H123	H	0.448127	-0.212067	-0.235837
H124	H	0.388112	-0.287754	-0.172617
H125	H	0.499393	-0.259432	-0.135362
O126	O	0.396698	0.088999	-0.239119
C127	C	0.421422	0.167615	-0.277292
H128	H	0.443443	0.218212	-0.226563
H129	H	0.365752	0.195811	-0.319867
H130	H	0.475061	0.152393	-0.316314
H131	H	1.128004	0.575429	-0.082158
H132	H	1.129784	0.422529	-0.087488
H133	H	0.560143	0.146912	-0.129875
O134	O	0.582752	0.072160	0.019278
C135	C	0.624326	0.125637	-0.035378
H136	H	0.642656	0.083494	-0.089607
H137	H	0.683341	0.155334	0.000594
H138	H	0.580602	0.181324	-0.061317
O139	O	0.396849	-0.084103	-0.241292
C140	C	0.343896	-0.009430	-0.254531
H141	H	0.325623	0.014836	-0.191590
H142	H	0.284759	-0.028399	-0.297389
H143	H	0.378485	0.045653	-0.285320
H144	H	0.559089	-0.146989	-0.127800
H145	H	0.859470	0.060701	0.440280
O146	O	0.843178	0.582313	-0.169896
C147	C	0.850985	0.637807	-0.098485
H148	H	0.911237	0.620597	-0.056538
H149	H	0.794556	0.627666	-0.061929
H150	H	0.853475	0.710031	-0.119241
O151	O	0.996004	0.158870	0.310032
C152	C	0.999398	0.161019	0.222358
H153	H	1.054394	0.118785	0.205997
H154	H	1.008374	0.232372	0.201470
H155	H	0.938174	0.133642	0.188710
O156	O	0.583340	-0.072049	0.019279
C157	C	0.564697	-0.068818	0.103290
H158	H	0.551292	0.002679	0.120828
H159	H	0.620662	-0.094991	0.146784
H160	H	0.507062	-0.111528	0.110193
O161	O	0.854994	-0.072218	0.291918
C162	C	0.771027	-0.068404	0.310635
H163	H	0.767355	-0.024889	0.368392
H164	H	0.748306	-0.138152	0.323877
H165	H	0.729522	-0.039087	0.254773
H166	H	1.102803	0.083968	0.471451
