data_functionalizedCrystal
_audit_creation_method	'MofGen! by Chris Wilmer'
_symmetry_space_group_name_H-M	'P1'
_symmetry_Int_Tables_number	1
_symmetry_cell_setting	triclinic
loop_
_symmetry_equiv_pos_as_xyz
  x,y,z
_cell_length_a	16.793024
_cell_length_b	16.793047
_cell_length_c	33.586455
_cell_angle_alpha	113.253857
_cell_angle_beta	66.219990
_cell_angle_gamma	112.758327
loop_
_atom_site_label
_atom_site_type_symbol
_atom_site_fract_x
_atom_site_fract_y
_atom_site_fract_z
O1	O	0.005016	-0.570216	-0.583573
O2	O	-0.034529	-0.474528	-0.453458
O3	O	0.114723	-0.474535	-0.528082
O4	O	-0.144235	-0.570209	-0.508949
O5	O	0.108729	-0.346329	-0.530229
O6	O	-0.040523	-0.346322	-0.455605
O7	O	-0.000977	-0.442010	-0.585721
Cu8	Cu	-0.021297	-0.382459	-0.520859
Cu9	Cu	-0.014209	-0.534079	-0.518320
O10	O	-0.150229	-0.442003	-0.511097
C11	C	0.005100	-0.790970	-0.238461
C12	C	0.009223	-0.693065	-0.217557
C13	C	0.003804	-0.645758	-0.241627
C14	C	-0.075059	-0.538459	-0.266316
C15	C	0.049838	-0.422849	-0.250165
C16	C	-0.040584	-0.395375	-0.435637
C17	C	-0.044693	-0.353446	-0.386631
C18	C	-0.039275	-0.401741	-0.363054
C19	C	-0.040566	-0.125547	-0.300731
C20	C	-0.044689	-0.223451	-0.321635
C21	C	-0.039266	-0.270752	-0.297563
C22	C	0.039597	-0.378051	-0.272874
C23	C	-0.085304	-0.493667	-0.289026
C24	C	0.005118	-0.521142	-0.103554
C25	C	0.009231	-0.563064	-0.152559
C26	C	0.003809	-0.514775	-0.176138
C27	C	0.010758	-0.652581	-0.172822
C28	C	0.001010	-0.556371	-0.220792
C29	C	-0.008251	-0.506059	-0.245823
C30	C	-0.046224	-0.263935	-0.366370
C31	C	-0.036476	-0.360146	-0.318399
C32	C	-0.027211	-0.410451	-0.293367
C33	C	0.815184	-0.521162	-0.508596
C34	C	0.717729	-0.563083	-0.506815
C35	C	0.669923	-0.514793	-0.509201
C36	C	0.564072	-0.463272	-0.548285
C37	C	0.445555	-0.498966	-0.486078
C38	C	0.415541	-0.125553	-0.528781
C39	C	0.375032	-0.223457	-0.531493
C40	C	0.423813	-0.270761	-0.529101
C41	C	0.149318	-0.395376	-0.530584
C42	C	0.246774	-0.353455	-0.532364
C43	C	0.294574	-0.401748	-0.529976
C44	C	0.400424	-0.453269	-0.490892
C45	C	0.518948	-0.417572	-0.553101
C46	C	0.548961	-0.790984	-0.510398
C47	C	0.589464	-0.693083	-0.507684
C48	C	0.540690	-0.645776	-0.510078
C49	C	0.678399	-0.652598	-0.506649
C50	C	0.581167	-0.556389	-0.510877
C51	C	0.530434	-0.506073	-0.515170
C52	C	0.286104	-0.263940	-0.532530
C53	C	0.383336	-0.360149	-0.528302
C54	C	0.434062	-0.410467	-0.524008
C55	C	-0.040530	-0.395407	-0.935652
C56	C	-0.044651	-0.353482	-0.886645
C57	C	-0.039242	-0.401770	-0.863061
C58	C	0.039602	-0.453292	-0.810474
C59	C	-0.085288	-0.417587	-0.750981
C60	C	0.005063	-0.791004	-0.738448
C61	C	0.009186	-0.693099	-0.717543
C62	C	0.003779	-0.645796	-0.741620
C63	C	0.005077	-0.521171	-0.603544
C64	C	0.009198	-0.563096	-0.652550
C65	C	0.003786	-0.514804	-0.676131
C66	C	-0.075058	-0.463283	-0.728717
C67	C	0.049835	-0.498991	-0.788214
C68	C	-0.040516	-0.125574	-0.800747
C69	C	-0.044642	-0.223476	-0.821649
C70	C	-0.039232	-0.270782	-0.797575
C71	C	-0.046172	-0.263965	-0.866386
C72	C	-0.036447	-0.360171	-0.818406
C73	C	-0.027197	-0.410486	-0.793373
C74	C	0.010719	-0.652613	-0.672809
C75	C	0.000994	-0.556406	-0.720789
C76	C	-0.008259	-0.506089	-0.745819
O77	O	-0.000965	0.173549	-0.277957
O78	O	-0.040516	-0.085616	-0.325254
O79	O	0.108737	0.059592	-0.327284
O80	O	-0.150219	0.028341	-0.275927
O81	O	0.114753	0.055151	-0.263265
O82	O	-0.034500	-0.090057	-0.261234
O83	O	0.005051	0.169108	-0.213937
Cu84	Cu	-0.014175	0.039120	-0.231740
Cu85	Cu	-0.021290	0.044372	-0.307451
O86	O	-0.144202	0.023900	-0.211907
O87	O	-0.034458	-0.474571	0.046517
O88	O	0.005076	-0.570190	-0.083599
O89	O	-0.144170	-0.570237	-0.008972
O90	O	0.114787	-0.474523	-0.028110
O91	O	-0.150200	-0.442024	-0.011093
O92	O	-0.000954	-0.441976	-0.085720
O93	O	-0.040488	-0.346357	0.044396
Cu94	Cu	-0.021272	-0.382460	-0.020856
Cu95	Cu	-0.014141	-0.534087	-0.018347
O96	O	0.108757	-0.346309	-0.030231
C97	C	-0.850734	0.086244	-0.289716
C98	C	-0.753280	0.087165	-0.312001
C99	C	-0.705462	0.081107	-0.288506
C100	C	-0.599592	0.000085	-0.264184
C101	C	-0.481080	0.121287	-0.283645
C102	C	-0.450996	0.035117	-0.097351
C103	C	-0.410501	0.028587	-0.146852
C104	C	-0.459292	0.034683	-0.169840
C105	C	-0.184802	0.024283	-0.235878
C106	C	-0.282257	0.023363	-0.213592
C107	C	-0.330068	0.029423	-0.237088
C108	C	-0.435938	0.110445	-0.261411
C109	C	-0.554456	-0.010759	-0.241948
C110	C	-0.584541	0.075410	-0.428242
C111	C	-0.625029	0.081943	-0.378743
C112	C	-0.576244	0.075844	-0.355753
C113	C	-0.713963	0.086424	-0.357292
C114	C	-0.616708	0.075351	-0.310510
C115	C	-0.565963	0.065400	-0.286043
C116	C	-0.321573	0.024104	-0.168302
C117	C	-0.418828	0.035176	-0.215083
C118	C	-0.469568	0.045131	-0.239552
O119	O	0.585213	0.169090	-0.504004
O120	O	0.494056	-0.090076	-0.525516
O121	O	0.488081	0.055124	-0.449918
O122	O	0.591189	0.023889	-0.579602
O123	O	0.359978	0.059584	-0.452885
O124	O	0.365953	-0.085616	-0.528483
O125	O	0.457110	0.173550	-0.506971
Cu126	Cu	0.399835	0.044374	-0.517998
Cu127	Cu	0.551332	0.039099	-0.514489
O128	O	0.463086	0.028349	-0.582569
C129	C	0.815354	-0.521094	-0.008709
C130	C	0.717898	-0.563028	-0.006927
C131	C	0.670072	-0.514739	-0.009298
C132	C	0.564182	-0.463204	-0.048354
C133	C	0.445681	-0.498945	0.013847
C134	C	0.415547	-0.125494	-0.028771
C135	C	0.375059	-0.223405	-0.031498
C136	C	0.423859	-0.270708	-0.029121
C137	C	0.149365	-0.395355	-0.030599
C138	C	0.246820	-0.353421	-0.032381
C139	C	0.294640	-0.401713	-0.030008
C140	C	0.400530	-0.453248	0.009048
C141	C	0.519038	-0.417504	-0.053155
C142	C	0.549171	-0.790955	-0.010537
C143	C	0.589653	-0.693047	-0.007809
C144	C	0.540859	-0.645741	-0.010187
C145	C	0.678588	-0.652551	-0.006775
C146	C	0.581317	-0.556344	-0.010973
C147	C	0.530562	-0.506029	-0.015250
C148	C	0.286131	-0.263897	-0.032533
C149	C	0.383402	-0.360104	-0.028335
C150	C	0.434150	-0.410423	-0.024057
O151	O	-0.620614	0.089309	0.052274
O152	O	-0.529507	0.043784	-0.078544
O153	O	-0.523494	0.194833	-0.006033
O154	O	-0.626628	-0.061740	-0.020236
O155	O	-0.395386	0.185419	-0.005549
O156	O	-0.401400	0.034370	-0.078059
O157	O	-0.492507	0.079895	0.052758
Cu158	Cu	-0.435256	0.056273	-0.012607
Cu159	Cu	-0.586758	0.067406	-0.013179
O160	O	-0.498521	-0.071154	-0.019752
C161	C	-0.437537	0.048335	0.402491
C162	C	-0.397043	0.041789	0.352989
C163	C	-0.445822	0.047883	0.329994
C164	C	-0.496646	0.126653	0.277022
C165	C	-0.465894	-0.000633	0.218811
C166	C	-0.837226	0.099430	0.210091
C167	C	-0.739773	0.100339	0.187806
C168	C	-0.691967	0.094287	0.211308
C169	C	-0.571027	0.088563	0.071568
C170	C	-0.611521	0.095108	0.121070
C171	C	-0.562739	0.089011	0.144061
C172	C	-0.511915	0.010241	0.197033
C173	C	-0.542670	0.137531	0.255247
C174	C	-0.171338	0.037467	0.263967
C175	C	-0.268788	0.036555	0.286249
C176	C	-0.316597	0.042611	0.262750
C177	C	-0.308112	0.037305	0.331542
C178	C	-0.405351	0.048369	0.284750
C179	C	-0.456092	0.058317	0.260279
C180	C	-0.700452	0.099593	0.142516
C181	C	-0.603213	0.088528	0.189308
C182	C	-0.552469	0.078578	0.213776
O183	O	-0.040608	-1.085661	-0.825229
O184	O	-0.001018	-0.826491	-0.777938
O185	O	-0.150287	-0.971682	-0.775894
O186	O	0.108661	-0.940470	-0.827272
O187	O	-0.144253	-0.976123	-0.711878
O188	O	0.005016	-0.830932	-0.713922
O189	O	-0.034575	-1.090102	-0.761213
Cu190	Cu	-0.014228	-0.960923	-0.731722
Cu191	Cu	-0.021364	-0.955670	-0.807428
O192	O	0.114695	-0.944911	-0.763256
C193	C	-0.036587	-0.225633	-0.248813
C194	C	-0.115212	-0.197561	-0.222306
C195	C	-0.112787	-0.156006	-0.177394
H196	H	0.014756	-0.174936	-0.247781
H197	H	-0.032968	-0.267195	-0.237357
H198	H	-0.118822	-0.156002	-0.233759
H199	H	-0.166568	-0.248241	-0.223325
H200	H	-0.109167	-0.197567	-0.165938
H201	H	-0.061440	-0.105312	-0.176366
H202	H	-0.166135	-0.136961	-0.159403
H203	H	0.088092	-0.309407	-0.275738
H204	H	0.413839	-0.532573	0.042316
H205	H	-0.281187	0.020914	-0.148901
C206	C	0.232161	-0.210721	-0.533833
C207	C	0.155810	-0.208094	-0.495714
C208	C	0.106099	-0.159069	-0.496894
H209	H	0.213683	-0.238849	-0.560572
H210	H	0.268710	-0.151109	-0.533743
H211	H	0.119268	-0.267695	-0.495808
H212	H	0.174262	-0.179959	-0.468970
H213	H	0.142648	-0.099456	-0.496804
H214	H	0.087627	-0.187202	-0.523634
H215	H	0.054294	-0.157273	-0.471029
H216	H	-0.740818	0.102779	0.123104
H217	H	0.702991	-0.441593	-0.009870
H218	H	-0.037138	-0.474881	-0.380005
H219	H	-0.297145	0.029698	-0.274103
H220	H	-0.724884	0.094041	0.248327
H221	H	0.261721	-0.474856	-0.029430
C222	C	0.402959	-0.543929	-0.448161
C223	C	0.321420	-0.607686	-0.453244
C224	C	0.282164	-0.649134	-0.418328
H225	H	0.391637	-0.499792	-0.419700
H226	H	0.442963	-0.572951	-0.449495
H227	H	0.281425	-0.578665	-0.451906
H228	H	0.332718	-0.651841	-0.481698
H229	H	0.322168	-0.678155	-0.419661
H230	H	0.270848	-0.604990	-0.389869
H231	H	0.226840	-0.692403	-0.421774
C232	C	0.000877	-0.417285	-0.653604
C233	C	-0.004540	-0.383673	-0.684251
C234	C	-0.007228	-0.293845	-0.663514
H235	H	0.054138	-0.382519	-0.644763
H236	H	-0.050550	-0.413921	-0.627592
H237	H	0.046882	-0.387031	-0.710255
H238	H	-0.057799	-0.418414	-0.693094
H239	H	-0.058655	-0.290481	-0.637502
H240	H	0.046034	-0.259087	-0.654674
H241	H	-0.010912	-0.271031	-0.684303
C242	C	-0.161883	-0.534501	-0.310362
C243	C	-0.217818	-0.476827	-0.291403
C244	C	-0.288362	-0.514407	-0.311051
H245	H	-0.196146	-0.591165	-0.304765
H246	H	-0.137526	-0.542436	-0.342150
H247	H	-0.242173	-0.468903	-0.259622
H248	H	-0.183581	-0.420161	-0.296999
H249	H	-0.264006	-0.522342	-0.342840
H250	H	-0.322618	-0.571071	-0.305454
H251	H	-0.326318	-0.475277	-0.298194
C252	C	0.444013	-0.691021	-0.011892
C253	C	0.419295	-0.779966	-0.010657
C254	C	0.330083	-0.821703	-0.012220
H255	H	0.439393	-0.690790	-0.039115
H256	H	0.404879	-0.659235	0.013441
H257	H	0.458418	-0.811744	-0.035987
H258	H	0.423893	-0.780223	0.016565
H259	H	0.290949	-0.789916	0.013113
H260	H	0.325472	-0.821465	-0.039444
H261	H	0.313298	-0.882053	-0.011378
H262	H	-0.048864	-0.224020	-0.386283
C263	C	0.104199	-0.447258	-0.857110
C264	C	0.079946	-0.396952	-0.872978
C265	C	0.139439	-0.391370	-0.915935
H266	H	0.101097	-0.506090	-0.877490
H267	H	0.164113	-0.418746	-0.855103
H268	H	0.020047	-0.425465	-0.874989
H269	H	0.083053	-0.338112	-0.852611
H270	H	0.199353	-0.362859	-0.913928
H271	H	0.136333	-0.450206	-0.936311
H272	H	0.122997	-0.357231	-0.926705
H273	H	-0.449229	0.177371	-0.300885
C274	C	0.732435	-0.705648	-0.005292
C275	C	0.759547	-0.663823	0.034157
C276	C	0.809148	-0.712709	0.035542
H277	H	0.784283	-0.707629	-0.031122
H278	H	0.695830	-0.765203	-0.005273
H279	H	0.796151	-0.604285	0.034134
H280	H	0.707718	-0.661842	0.059993
H281	H	0.772543	-0.772264	0.035561
H282	H	0.860991	-0.714687	0.009710
H283	H	0.827543	-0.684343	0.062310
C284	C	0.126404	-0.381681	-0.228804
C285	C	0.176595	-0.298166	-0.237124
C286	C	0.247125	-0.260213	-0.217447
H287	H	0.164555	-0.420595	-0.241604
H288	H	0.102044	-0.373659	-0.197009
H289	H	0.200955	-0.306192	-0.268912
H290	H	0.138470	-0.259231	-0.224323
H291	H	0.222765	-0.252191	-0.185652
H292	H	0.285269	-0.299133	-0.230248
H293	H	0.281183	-0.203541	-0.223085
C294	C	0.014084	-0.705805	-0.146212
C295	C	-0.062113	-0.708442	-0.108052
C296	C	-0.059088	-0.757475	-0.083531
H297	H	0.067191	-0.677680	-0.136789
H298	H	0.014700	-0.765416	-0.164888
H299	H	-0.062720	-0.648843	-0.089379
H300	H	-0.115231	-0.736575	-0.117462
H301	H	-0.058472	-0.817085	-0.102207
H302	H	-0.005979	-0.729344	-0.074111
H303	H	-0.110790	-0.759277	-0.057639
C304	C	-0.342603	0.172778	-0.259768
C305	C	-0.318132	0.235177	-0.283442
C306	C	-0.232161	0.292623	-0.281932
H307	H	-0.299943	0.138432	-0.273360
H308	H	-0.343549	0.203779	-0.229089
H309	H	-0.317179	0.204179	-0.314115
H310	H	-0.360768	0.269543	-0.269855
H311	H	-0.233107	0.323624	-0.251254
H312	H	-0.189509	0.258270	-0.295524
H313	H	-0.215550	0.334973	-0.297991
C314	C	0.001148	-0.417197	-0.153549
C315	C	0.079784	-0.366314	-0.140587
C316	C	0.077375	-0.276418	-0.119784
H317	H	-0.050187	-0.413729	-0.127503
H318	H	-0.002476	-0.394194	-0.174283
H319	H	0.083399	-0.389310	-0.119855
H320	H	0.131132	-0.369755	-0.166625
H321	H	0.073750	-0.253415	-0.140517
H322	H	0.026036	-0.272960	-0.093739
H323	H	0.130731	-0.241882	-0.110990
H324	H	-0.503619	0.071273	-0.373665
H325	H	0.001632	-0.679646	-0.778160
C326	C	0.561290	-0.372646	-0.591024
C327	C	0.502118	-0.330008	-0.588953
C328	C	0.541098	-0.288601	-0.623875
H329	H	0.572529	-0.416796	-0.619486
H330	H	0.616630	-0.329315	-0.587649
H331	H	0.446795	-0.373334	-0.592331
H332	H	0.490875	-0.285845	-0.560498
H333	H	0.596438	-0.245271	-0.620501
H334	H	0.552335	-0.332757	-0.652336
H335	H	0.500960	-0.259660	-0.622473
H336	H	-0.142686	-0.383972	-0.734830
H337	H	-0.574318	0.196197	0.271049
H338	H	-0.283673	0.042875	0.225734
H339	H	-0.037089	-0.236932	-0.761035
C340	C	-0.465954	0.082781	0.120109
C341	C	-0.464354	0.005915	0.082785
C342	C	-0.375210	0.000157	0.060707
H343	H	-0.442442	0.078994	0.140524
H344	H	-0.430083	0.134801	0.110028
H345	H	-0.500212	-0.046093	0.092867
H346	H	-0.487849	0.009684	0.062360
H347	H	-0.339338	0.052178	0.050626
H348	H	-0.351705	-0.003627	0.081126
H349	H	-0.374111	-0.051991	0.035378
H350	H	-0.669612	-0.046576	-0.265443
C351	C	0.250514	-0.499218	-0.529122
C352	C	0.173911	-0.503867	-0.491243
C353	C	0.133297	-0.593641	-0.490444
H354	H	0.292190	-0.522266	-0.527417
H355	H	0.233235	-0.533914	-0.555979
H356	H	0.191192	-0.469183	-0.464393
H357	H	0.132215	-0.480837	-0.492940
H358	H	0.116018	-0.628338	-0.517301
H359	H	0.174979	-0.616682	-0.488740
H360	H	0.081313	-0.596808	-0.464746
C361	C	0.307138	-0.447270	-0.458455
C362	C	0.312774	-0.405274	-0.414074
C363	C	0.226854	-0.399729	-0.384181
H364	H	0.267195	-0.506113	-0.460370
H365	H	0.284981	-0.413136	-0.466366
H366	H	0.334919	-0.439408	-0.406165
H367	H	0.352700	-0.346426	-0.412145
H368	H	0.204697	-0.365595	-0.392092
H369	H	0.186917	-0.458574	-0.386099
H370	H	0.230668	-0.371227	-0.354065
C371	C	0.001090	-0.690952	-0.290369
C372	C	0.079696	-0.719060	-0.316870
C373	C	0.077231	-0.760704	-0.361773
H374	H	-0.002530	-0.649458	-0.301861
H375	H	-0.050283	-0.741644	-0.291360
H376	H	0.131055	-0.668375	-0.315881
H377	H	0.083332	-0.760564	-0.305392
H378	H	0.025858	-0.811395	-0.362764
H379	H	0.073609	-0.719204	-0.373260
H380	H	0.130560	-0.779787	-0.379758
H381	H	0.550886	-0.383867	-0.081621
C382	C	0.443844	-0.691046	-0.511784
C383	C	0.419104	-0.779982	-0.510534
C384	C	0.329893	-0.821710	-0.512099
H385	H	0.439234	-0.690829	-0.539013
H386	H	0.404715	-0.659243	-0.486457
H387	H	0.458222	-0.811777	-0.535858
H388	H	0.423693	-0.780225	-0.483307
H389	H	0.290763	-0.789908	-0.486772
H390	H	0.325291	-0.821487	-0.539328
H391	H	0.313092	-0.882055	-0.511246
H392	H	0.634201	-0.467612	-0.072637
H393	H	-0.267732	0.034117	0.350946
C394	C	0.126277	-0.543921	-0.809682
C395	C	0.122699	-0.586556	-0.780378
C396	C	0.193093	-0.627966	-0.800141
H397	H	0.182617	-0.499773	-0.815007
H398	H	0.120106	-0.587254	-0.837640
H399	H	0.128877	-0.543228	-0.752428
H400	H	0.066375	-0.630717	-0.775051
H401	H	0.186922	-0.671299	-0.828099
H402	H	0.249427	-0.583813	-0.805465
H403	H	0.190670	-0.656906	-0.780263
C404	C	0.732076	-0.705965	-0.505248
C405	C	0.677885	-0.793670	-0.505252
C406	C	0.727297	-0.842856	-0.503958
H407	H	0.750555	-0.677796	-0.478510
H408	H	0.783871	-0.708018	-0.531113
H409	H	0.626106	-0.791613	-0.479389
H410	H	0.659404	-0.821864	-0.531988
H411	H	0.779093	-0.844910	-0.529823
H412	H	0.745774	-0.814679	-0.477219
H413	H	0.690539	-0.902371	-0.503965
H414	H	0.496488	-0.236853	-0.027824
H415	H	0.245737	-0.223998	-0.033572
C416	C	-0.520910	-0.055550	0.151436
C417	C	-0.565188	-0.142430	0.156342
C418	C	-0.573498	-0.203061	0.114347
H419	H	-0.462536	-0.054647	0.130236
H420	H	-0.554903	-0.038653	0.140825
H421	H	-0.531195	-0.159323	0.166947
H422	H	-0.623568	-0.143362	0.177534
H423	H	-0.607490	-0.186164	0.103736
H424	H	-0.515121	-0.202150	0.093150
H425	H	-0.603548	-0.262015	0.117671
C426	C	0.713876	-0.417228	-0.509897
C427	C	0.739165	-0.366367	-0.470250
C428	C	0.779659	-0.276486	-0.470870
H429	H	0.672165	-0.394150	-0.511549
H430	H	0.765917	-0.413836	-0.535557
H431	H	0.687131	-0.369754	-0.444596
H432	H	0.780885	-0.389417	-0.468589
H433	H	0.831700	-0.273094	-0.496531
H434	H	0.737943	-0.253416	-0.472524
H435	H	0.796830	-0.241967	-0.443973
H436	H	-0.518447	0.052455	0.347905
H437	H	0.013347	-0.692513	-0.652885
H438	H	0.496441	-0.236915	-0.527803
H439	H	-0.738384	0.080845	-0.251490
C440	C	0.657446	-0.469034	-0.580685
C441	C	0.681953	-0.422321	-0.612209
C442	C	0.767968	-0.427595	-0.642058
H443	H	0.656578	-0.530334	-0.596186
H444	H	0.700044	-0.442980	-0.564047
H445	H	0.639366	-0.448379	-0.628845
H446	H	0.682841	-0.361017	-0.596721
H447	H	0.810566	-0.401541	-0.625420
H448	H	0.767092	-0.488897	-0.657556
H449	H	0.784610	-0.395895	-0.663448
C450	C	-0.423836	-0.078948	0.197814
C451	C	-0.461017	-0.133111	0.227153
C452	C	-0.422303	-0.205268	0.207824
H453	H	-0.360367	-0.056504	0.192967
H454	H	-0.435839	-0.113610	0.169647
H455	H	-0.449007	-0.098455	0.255312
H456	H	-0.524482	-0.155577	0.232002
H457	H	-0.434306	-0.239930	0.179658
H458	H	-0.358835	-0.182816	0.202979
H459	H	-0.447530	-0.242031	0.227726
C460	C	-0.596740	-0.085584	-0.218996
C461	C	-0.541052	-0.143499	-0.237956
C462	C	-0.579961	-0.212429	-0.216820
H463	H	-0.654474	-0.118434	-0.223339
H464	H	-0.603161	-0.060203	-0.187452
H465	H	-0.534643	-0.168879	-0.269493
H466	H	-0.483317	-0.110676	-0.233614
H467	H	-0.586381	-0.187048	-0.185276
H468	H	-0.637695	-0.245271	-0.221164
H469	H	-0.542179	-0.251728	-0.229679
C470	C	-0.487898	0.192379	0.322671
C471	C	-0.532570	0.257572	0.334973
C472	C	-0.524547	0.318125	0.377024
H473	H	-0.425812	0.220846	0.320575
H474	H	-0.514258	0.160760	0.344951
H475	H	-0.506208	0.289188	0.312698
H476	H	-0.594659	0.229131	0.337078
H477	H	-0.550906	0.286506	0.399304
H478	H	-0.462459	0.346586	0.374925
H479	H	-0.554861	0.362361	0.385378
H480	H	-0.754334	0.089615	-0.376700
C481	C	-0.049483	-0.210653	-0.892957
C482	C	0.026725	-0.136405	-0.895308
C483	C	0.023716	-0.087280	-0.919788
H484	H	-0.102583	-0.190359	-0.878177
H485	H	-0.050101	-0.247991	-0.922753
H486	H	0.027334	-0.099073	-0.865518
H487	H	0.079837	-0.156674	-0.910091
H488	H	0.023098	-0.124618	-0.949583
H489	H	-0.029387	-0.066992	-0.905006
H490	H	0.075425	-0.036902	-0.921390
H491	H	-0.037104	-0.474911	-0.880014
H492	H	0.330510	-0.448858	0.033327
C493	C	-0.556158	0.040734	-0.146048
C494	C	-0.590469	0.046218	-0.176306
C495	C	-0.679701	0.051780	-0.154406
H496	H	-0.557530	0.092843	-0.120710
H497	H	-0.592048	-0.011337	-0.136013
H498	H	-0.554588	0.098283	-0.186334
H499	H	-0.589119	-0.005886	-0.201645
H500	H	-0.715591	-0.000290	-0.144371
H501	H	-0.681065	0.103890	-0.129068
H502	H	-0.702995	0.055493	-0.174933
H503	H	-0.123559	-0.467696	-0.693740
H504	H	-0.123560	-0.607102	-0.263443
