data_functionalizedCrystal
_audit_creation_method	'MofGen! by Chris Wilmer'
_symmetry_space_group_name_H-M	'P1'
_symmetry_Int_Tables_number	1
_symmetry_cell_setting	triclinic
loop_
_symmetry_equiv_pos_as_xyz
  x,y,z
_cell_length_a	12.827893
_cell_length_b	16.625546
_cell_length_c	12.827885
_cell_angle_alpha	89.964686
_cell_angle_beta	89.980728
_cell_angle_gamma	90.022439
loop_
_atom_site_label
_atom_site_type_symbol
_atom_site_fract_x
_atom_site_fract_y
_atom_site_fract_z
Zn1	Zn	1.597618	-0.320962	-0.590810
Zn2	Zn	1.597491	-0.455816	-0.416054
Zn3	Zn	1.422860	-0.321001	-0.416084
Zn4	Zn	1.422823	-0.455756	-0.590754
O5	O	1.510198	-0.388384	-0.503425
O6	O	1.743837	-0.338859	-0.567639
O7	O	1.574287	-0.437975	-0.269822
O8	O	1.446110	-0.208164	-0.439297
O9	O	1.743744	-0.437936	-0.439247
O10	O	1.574505	-0.208135	-0.567668
O11	O	1.445987	-0.338927	-0.269843
O12	O	1.276619	-0.338868	-0.439243
O13	O	1.446048	-0.437833	-0.736997
O14	O	1.276592	-0.437872	-0.567572
O15	O	1.574469	-0.338801	-0.737039
O16	O	1.574252	-0.568641	-0.439192
O17	O	1.445925	-0.568596	-0.567544
C18	C	1.238688	-0.388368	-0.503405
C19	C	1.122535	-0.388381	-0.503422
C20	C	1.070765	-0.437448	-0.566825
C21	C	0.950714	-0.437462	-0.566844
C22	C	1.510099	-0.597875	-0.503382
C23	C	1.510152	-0.687496	-0.503398
C24	C	1.510335	-1.015671	-0.503507
C25	C	1.510281	-0.924363	-0.503479
C26	C	1.510243	-0.851587	-0.503452
C27	C	1.510190	-0.760272	-0.503425
C28	C	1.782768	-0.388400	-0.503446
C29	C	1.898921	-0.388407	-0.503455
C30	C	1.510269	-0.388306	-0.775996
C31	C	1.510299	-0.388272	-0.892149
C32	C	1.510326	-0.178075	-0.503492
C33	C	1.510380	-0.088454	-0.503521
C34	C	1.573794	-0.437265	-0.943923
C35	C	1.573826	-0.437231	-1.063973
C36	C	1.510187	-0.388404	-0.231915
C37	C	1.510359	-0.388210	-0.115763
H38	H	0.906193	-0.479472	-0.621123
C39	C	1.130943	-0.494184	-0.640141
H40	H	1.203736	-0.486734	-0.630506
H41	H	1.113144	-0.482464	-0.710401
H42	H	1.113085	-0.548363	-0.624733
H43	H	0.943436	-0.346400	-0.449166
H44	H	1.077981	-0.346381	-0.449157
C45	C	1.647197	-0.493964	-0.883748
H46	H	1.637540	-0.486552	-0.810955
H47	H	1.717440	-0.482179	-0.901593
H48	H	1.631882	-0.548148	-0.901565
C49	C	1.647268	-0.493896	-1.124109
H50	H	1.687078	-0.524659	-1.076043
H51	H	1.692790	-0.463014	-1.166703
H52	H	1.607240	-0.528989	-1.166671
H53	H	1.455994	-0.346266	-1.071245
C54	C	1.436894	-0.331572	-0.952319
H55	H	1.397059	-0.300835	-0.904268
H56	H	1.391394	-0.362429	-0.994888
H57	H	1.476949	-0.296456	-0.994908
