data_functionalizedCrystal
_audit_creation_method	'MofGen! by Chris Wilmer'
_symmetry_space_group_name_H-M	'P1'
_symmetry_Int_Tables_number	1
_symmetry_cell_setting	triclinic
loop_
_symmetry_equiv_pos_as_xyz
  x,y,z
_cell_length_a	14.908520
_cell_length_b	14.908779
_cell_length_c	14.908308
_cell_angle_alpha	96.758236
_cell_angle_beta	83.639235
_cell_angle_gamma	90.163414
loop_
_atom_site_label
_atom_site_type_symbol
_atom_site_fract_x
_atom_site_fract_y
_atom_site_fract_z
Zn1	Zn	-0.462183	-1.325899	0.460117
Zn2	Zn	-0.604822	-1.325796	0.317493
Zn3	Zn	-0.445762	-1.184281	0.316513
Zn4	Zn	-0.604768	-1.165773	0.477546
O5	O	-0.529384	-1.250437	0.392918
O6	O	-0.487999	-1.452123	0.434314
O7	O	-0.576873	-1.314727	0.190282
O8	O	-0.321700	-1.210855	0.327859
O9	O	-0.592796	-1.452048	0.329529
O10	O	-0.333764	-1.314901	0.433364
O11	O	-0.460012	-1.210755	0.189562
O12	O	-0.459960	-1.055588	0.344759
O13	O	-0.592704	-1.179312	0.602316
O14	O	-0.576781	-1.041990	0.463069
O15	O	-0.487946	-1.296955	0.589511
O16	O	-0.731055	-1.296781	0.346429
O17	O	-0.731015	-1.179212	0.464019
C18	C	-0.516583	-1.016057	0.405699
C19	C	-0.511130	-0.915785	0.411190
C20	C	-0.609840	-0.727304	0.312209
C21	C	-0.604719	-0.633090	0.317365
C22	C	-0.495773	-0.633140	0.426665
C23	C	-0.500894	-0.727354	0.421508
C24	C	-0.557928	-0.774433	0.364277
C25	C	-0.563044	-0.868650	0.359116
C26	C	-0.454103	-0.868697	0.468420
C27	C	-0.448982	-0.774483	0.473576
C28	C	-0.763770	-1.236000	0.407240
C29	C	-0.864048	-1.229905	0.413393
C30	C	-1.052472	-1.340988	0.302596
C31	C	-1.146692	-1.335264	0.308374
C32	C	-1.146710	-1.212738	0.430731
C33	C	-1.052490	-1.218462	0.424953
C34	C	-1.005374	-1.282588	0.360882
C35	C	-0.911152	-1.288307	0.355100
C36	C	-0.911172	-1.165786	0.477461
C37	C	-1.005392	-1.160062	0.483240
C38	C	-0.294084	-1.264954	0.378558
C39	C	-0.193814	-1.271140	0.372439
C40	C	-0.542151	-1.236080	0.629785
C41	C	-0.547591	-1.229962	0.730724
C42	C	-0.542229	-0.485734	0.380079
C43	C	-0.547686	-0.586005	0.374590
C44	C	-0.516604	-1.264794	0.156964
C45	C	-0.510919	-1.271102	0.056001
C46	C	-0.448710	-1.340967	0.907066
C47	C	-0.453819	-1.335222	1.001907
C48	C	-0.562913	-1.212723	1.015248
C49	C	-0.557804	-1.218468	0.920407
C50	C	-0.500701	-1.282593	0.866319
C51	C	-0.495598	-1.288342	0.771477
C52	C	-0.604686	-1.165840	0.784820
C53	C	-0.609795	-1.160094	0.879661
H54	H	-0.402549	-0.736138	0.520175
C55	C	-0.661878	-1.101625	0.739997
H56	H	-0.650656	-1.114226	0.675767
H57	H	-0.724048	-1.110149	0.758524
H58	H	-0.646200	-1.040882	0.758039
H59	H	-1.185088	-1.160535	0.482900
H60	H	-0.646993	-0.594721	0.274967
C61	C	-1.057223	-1.089525	0.553707
H62	H	-1.120083	-1.094475	0.548798
H63	H	-1.045755	-1.099908	0.613071
H64	H	-1.037815	-1.030667	0.542712
C65	C	-0.433042	-0.581343	0.489611
H66	H	-0.437427	-0.518484	0.485219
H67	H	-0.450458	-0.592281	0.550574
H68	H	-0.372532	-0.601302	0.471860
H69	H	-0.411828	-0.907080	0.510813
H70	H	-0.449104	-1.340558	0.727440
H71	H	-1.014109	-1.393196	0.250420
C72	C	-0.625786	-0.920435	0.296173
H73	H	-0.655977	-0.878868	0.265911
H74	H	-0.591094	-0.961703	0.252533
H75	H	-0.669012	-0.952669	0.331255
C76	C	-0.859326	-1.358845	0.284630
H77	H	-0.900875	-1.392812	0.250751
H78	H	-0.818600	-1.329007	0.244657
H79	H	-0.826544	-1.398250	0.315013
C80	C	-0.859363	-1.101546	0.541582
H81	H	-0.796501	-1.114141	0.528970
H82	H	-0.870840	-1.040813	0.532496
H83	H	-0.878777	-1.110068	0.602841
C84	C	-1.198496	-1.399499	0.244255
H85	H	-1.156938	-1.438503	0.205267
H86	H	-1.239223	-1.434437	0.279134
H87	H	-1.231277	-1.365182	0.208789
C88	C	-0.385901	-1.411498	0.847567
H89	H	-0.355664	-1.445439	0.885419
H90	H	-0.420559	-1.450916	0.810528
H91	H	-0.342714	-1.381645	0.810058
C92	C	-0.625716	-1.142189	1.074750
H93	H	-0.655947	-1.108239	1.036902
H94	H	-0.668894	-1.172031	1.112270
H95	H	-0.591044	-1.102767	1.111779
H96	H	-0.656274	-0.765638	0.265603
C97	C	-0.396633	-1.399437	1.046725
H98	H	-0.361901	-1.438452	1.000926
H99	H	-0.357437	-1.365113	1.083208
H100	H	-0.435287	-1.434378	1.083682
C101	C	-0.672606	-1.089563	0.939158
H102	H	-0.702835	-1.055618	0.901304
H103	H	-0.715785	-1.119408	0.976674
H104	H	-0.637941	-1.050136	0.976190
