data_functionalizedCrystal
_audit_creation_method	'MofGen! by Chris Wilmer'
_symmetry_space_group_name_H-M	'P1'
_symmetry_Int_Tables_number	1
_symmetry_cell_setting	triclinic
loop_
_symmetry_equiv_pos_as_xyz
  x,y,z
_cell_length_a	12.759401
_cell_length_b	13.897448
_cell_length_c	12.759393
_cell_angle_alpha	90.029685
_cell_angle_beta	89.980324
_cell_angle_gamma	89.980005
loop_
_atom_site_label
_atom_site_type_symbol
_atom_site_fract_x
_atom_site_fract_y
_atom_site_fract_z
Zn1	Zn	1.606231	0.383957	-0.593991
Zn2	Zn	1.606107	0.545284	-0.418313
Zn3	Zn	1.430530	0.384005	-0.418330
Zn4	Zn	1.430506	0.545213	-0.593954
O5	O	1.518343	0.464615	-0.506147
O6	O	1.753235	0.405367	-0.570695
O7	O	1.582774	0.523939	-0.271294
O8	O	1.453898	0.249017	-0.441654
O9	O	1.753144	0.523893	-0.441626
O10	O	1.582985	0.248982	-0.570711
O11	O	1.453778	0.405449	-0.271306
O12	O	1.283505	0.405381	-0.441618
O13	O	1.453859	0.523773	-0.740980
O14	O	1.283489	0.523819	-0.570649
O15	O	1.582963	0.405299	-0.741007
O16	O	1.582752	0.680256	-0.441590
O17	O	1.453739	0.680204	-0.570633
C18	C	1.245376	0.464598	-0.506132
C19	C	1.128599	0.464614	-0.506151
C20	C	1.073785	0.403010	-0.573461
C21	C	0.964061	0.403019	-0.573468
C22	C	0.963975	0.526247	-0.438852
C23	C	1.073697	0.526232	-0.438840
C24	C	0.814152	0.289323	-0.611234
C25	C	0.759335	0.227726	-0.678561
C26	C	0.794995	0.213025	-0.781099
C27	C	0.885470	0.259934	-0.816332
C28	C	0.940283	0.321538	-0.749011
C29	C	0.904624	0.336221	-0.646458
C30	C	1.223608	0.639930	-0.401084
C31	C	1.278422	0.701539	-0.333768
C32	C	1.242764	0.716250	-0.231228
C33	C	1.152285	0.669358	-0.195999
C34	C	1.097471	0.607749	-0.263315
C35	C	1.133136	0.593036	-0.365854
C36	C	1.518258	0.715229	-0.506129
C37	C	1.518317	0.822443	-0.506156
C38	C	1.518421	1.018738	-0.506232
C39	C	1.518360	0.909506	-0.506193
C40	C	1.792377	0.464632	-0.506162
C41	C	1.909153	0.464640	-0.506169
C42	C	1.518422	0.464522	-0.780180
C43	C	1.518456	0.464483	-0.896957
C44	C	1.518449	1.213022	-0.506200
C45	C	1.518471	1.105808	-0.506255
C46	C	1.585685	0.402784	-0.951835
C47	C	1.585703	0.402742	-1.061559
C48	C	1.451259	0.526107	-1.061518
C49	C	1.451237	0.526143	-0.951796
C50	C	1.623325	0.288937	-1.211534
C51	C	1.690571	0.227246	-1.266416
C52	C	1.793085	0.212456	-1.230822
C53	C	1.828375	0.259372	-1.140348
C54	C	1.761134	0.321070	-1.085473
C55	C	1.658606	0.335841	-1.121065
C56	C	1.413625	0.639950	-0.801819
C57	C	1.346389	0.701653	-0.746941
C58	C	1.243873	0.716453	-0.782533
C59	C	1.208588	0.669554	-0.873010
C60	C	1.275823	0.607851	-0.927887
C61	C	1.378338	0.593050	-0.892288
C62	C	1.518326	0.464638	-0.233180
C63	C	1.518496	0.464405	-0.116403
H64	H	0.685669	0.189533	-0.649865
C65	C	1.391602	0.580835	-1.229698
C66	C	1.377382	0.593890	-1.121801
H67	H	1.345997	0.622688	-1.266910
H68	H	1.376258	0.516026	-1.247684
H69	H	1.462193	0.594953	-1.247674
H70	H	1.306793	0.579764	-1.103823
H71	H	1.392719	0.658713	-1.103808
H72	H	1.247085	0.569664	-1.001559
C73	C	1.363335	0.852804	-0.366036
C74	C	1.377873	0.753105	-0.372478
H75	H	1.424729	0.884640	-0.389935
H76	H	1.349931	0.870366	-0.295339
H77	H	1.305493	0.871023	-0.408483
H78	H	1.435711	0.734885	-0.330024
H79	H	1.391290	0.735536	-0.443187
C80	C	0.857449	0.179799	-0.980699
C81	C	0.924663	0.243778	-0.929051
H82	H	0.881653	0.169820	-1.050286
H83	H	0.788722	0.206029	-0.982459
H84	H	0.856403	0.120151	-0.944388
H85	H	0.925702	0.303428	-0.965359
H86	H	0.993408	0.217551	-0.927298
C87	C	0.852504	0.276604	-0.427546
C88	C	0.774958	0.305475	-0.498515
H89	H	0.828299	0.286573	-0.357959
H90	H	0.914221	0.313353	-0.438888
H91	H	0.867570	0.210300	-0.437653
H92	H	0.759898	0.371781	-0.488414
H93	H	0.713222	0.268728	-0.487169
C94	C	1.059446	0.347204	-0.891956
C95	C	1.039723	0.373106	-0.787729
H96	H	1.120842	0.379036	-0.915856
H97	H	1.001602	0.365446	-0.934371
H98	H	1.069287	0.279563	-0.896320
H99	H	1.029875	0.440746	-0.783366
H100	H	1.097581	0.354870	-0.745302
H101	H	1.252656	0.627949	-0.484578
C102	C	1.011764	0.724195	-0.085909
C103	C	1.113081	0.685526	-0.083284
H104	H	0.987566	0.734185	-0.016323
H105	H	0.966180	0.680793	-0.120951
H106	H	1.012840	0.783842	-0.122222
H107	H	1.112003	0.625875	-0.046978
H108	H	1.158676	0.728929	-0.048227
H109	H	1.375132	0.739849	-0.673277
H110	H	1.118484	0.352834	-0.628266
C111	C	1.138200	0.859348	-0.788125
C112	C	1.169967	0.784284	-0.722214
H113	H	1.092578	0.901223	-0.750885
H114	H	1.102517	0.833524	-0.847087
H115	H	1.197965	0.894215	-0.811088
H116	H	1.110202	0.749412	-0.699256
H117	H	1.205649	0.810110	-0.663232
H118	H	1.125112	0.681608	-0.901992
H119	H	1.911856	0.247332	-1.111381
H120	H	1.640416	0.352573	-0.907188
H121	H	1.497100	0.627898	-0.772825
H122	H	0.750354	0.162871	-0.835917
C123	C	0.795739	0.580994	-0.379104
C124	C	0.903622	0.593984	-0.364876
H125	H	0.758484	0.622820	-0.333438
H126	H	0.777768	0.516179	-0.363847
H127	H	0.777800	0.595192	-0.449674
H128	H	0.921563	0.579779	-0.294308
H129	H	0.921600	0.658814	-0.380125
C130	C	1.237051	0.859040	-0.125356
C131	C	1.303012	0.783979	-0.157232
H132	H	1.274246	0.900852	-0.079678
H133	H	1.178077	0.833206	-0.089704
H134	H	1.214109	0.893979	-0.185070
H135	H	1.325947	0.749036	-0.097518
H136	H	1.362004	0.809814	-0.192884
H137	H	1.023797	0.569567	-0.234623
H138	H	1.789868	0.359271	-1.011814
C139	C	1.814394	0.106616	-1.378088
C140	C	1.867010	0.144660	-1.291158
H141	H	1.860029	0.064761	-1.415337
H142	H	1.792823	0.157550	-1.422766
H143	H	1.754653	0.071723	-1.355111
H144	H	1.926747	0.179559	-1.314136
H145	H	1.888595	0.093719	-1.246472
H146	H	1.661829	0.189047	-1.340079
H147	H	1.539848	0.300965	-1.240518
