data_functionalizedCrystal
_audit_creation_method	'MofGen! by Chris Wilmer'
_symmetry_space_group_name_H-M	'P1'
_symmetry_Int_Tables_number	1
_symmetry_cell_setting	triclinic
loop_
_symmetry_equiv_pos_as_xyz
  x,y,z
_cell_length_a	14.519709
_cell_length_b	14.519709
_cell_length_c	13.930277
_cell_angle_alpha	89.996649
_cell_angle_beta	89.998266
_cell_angle_gamma	83.680145
loop_
_atom_site_label
_atom_site_type_symbol
_atom_site_fract_x
_atom_site_fract_y
_atom_site_fract_z
O1	O	1.223872	0.120888	-0.079708
O2	O	1.723872	0.620888	0.420292
O3	O	0.955395	0.135124	-0.079738
O4	O	1.455395	0.635124	0.420262
O5	O	1.096752	-0.006233	-0.079713
O6	O	1.596752	0.493767	0.420287
O7	O	1.082515	0.262244	-0.079732
O8	O	1.582515	0.762244	0.420268
O9	O	1.096731	-0.006230	0.079949
O10	O	1.596731	0.493770	0.579949
O11	O	0.955374	0.135127	0.079924
O12	O	1.455374	0.635127	0.579924
O13	O	1.223851	0.120890	0.079954
O14	O	1.723851	0.620890	0.579954
Zn15	Zn	1.089609	0.128009	0.105289
Zn16	Zn	1.589609	0.628009	0.605289
Zn17	Zn	1.089637	0.128005	-0.105073
Zn18	Zn	1.589637	0.628005	0.394927
O19	O	1.082494	0.262247	0.079930
O20	O	1.582494	0.762247	0.579930
C21	C	0.921025	0.134462	0.000090
C22	C	1.421025	0.634462	0.500090
C23	C	0.818643	0.132474	0.000079
C24	C	1.318643	0.632474	0.500079
C25	C	0.443748	0.125154	0.000123
C26	C	0.943748	0.625154	0.500123
C27	C	0.548056	0.127187	0.000110
C28	C	1.048056	0.627187	0.500110
C29	C	0.631192	0.128814	0.000100
C30	C	1.131192	0.628814	0.500100
C31	C	0.735507	0.130847	0.000089
C32	C	1.235507	0.630847	0.500089
C33	C	1.096078	-0.040591	0.000118
C34	C	1.596078	0.459409	0.500118
C35	C	1.094090	-0.142972	0.000118
C36	C	1.594090	0.357028	0.500118
C37	C	1.086770	-0.517868	0.000092
C38	C	1.586770	-0.017868	0.500092
C39	C	1.088803	-0.413560	0.000100
C40	C	1.588803	0.086440	0.500100
C41	C	1.090430	-0.330423	0.000106
C42	C	1.590430	0.169577	0.500106
C43	C	1.092463	-0.226109	0.000112
C44	C	1.592463	0.273891	0.500112
C45	C	1.258221	0.121553	0.000125
C46	C	1.758221	0.621553	0.500125
C47	C	1.360602	0.123541	0.000129
C48	C	1.860602	0.623541	0.500129
C49	C	1.083168	0.296606	0.000097
C50	C	1.583168	0.796606	0.500097
C51	C	1.085156	0.398987	0.000090
C52	C	1.585156	0.898987	0.500090
N53	N	1.089597	0.128011	0.248855
N54	N	1.589597	0.628011	0.748855
N55	N	1.089656	0.127996	-0.248639
N56	N	1.589656	0.627996	0.251361
C57	C	1.033579	0.071952	0.299116
C58	C	1.533579	0.571952	0.799116
C59	C	1.145628	0.184065	0.299099
C60	C	1.645628	0.684065	0.799099
C61	C	1.145639	0.184065	0.399595
C62	C	1.645639	0.684065	0.899595
C63	C	1.089621	0.128006	0.449856
C64	C	1.589621	0.628006	0.949856
C65	C	1.033591	0.071948	0.399621
C66	C	1.533591	0.571948	0.899621
C67	C	1.201675	0.240115	0.449837
C68	C	1.701675	0.740115	0.949837
C69	C	1.201690	0.240116	0.550339
C70	C	1.701690	0.740116	1.050339
C71	C	1.145666	0.184061	0.600602
C72	C	1.645666	0.684061	1.100602
C73	C	1.089632	0.128001	0.550361
C74	C	1.589632	0.628001	1.050361
C75	C	1.033614	0.071942	0.600621
C76	C	1.533614	0.571942	1.100621
C77	C	0.977575	0.015887	0.550382
C78	C	1.477575	0.515887	1.050382
C79	C	0.977566	0.015893	0.449883
C80	C	1.477566	0.515893	0.949883
C81	C	1.145674	0.184055	0.701101
C82	C	1.645674	0.684055	1.201101
C83	C	1.033626	0.071938	0.701126
C84	C	1.533626	0.571938	1.201126
H85	H	0.988004	0.026292	0.742042
H86	H	1.488004	0.526292	1.242042
O87	O	0.973139	0.011498	0.244932
O88	O	1.473139	0.511498	0.744932
H89	H	0.934185	-0.027477	0.296769
H90	H	1.434185	0.472523	0.796769
H91	H	1.247289	0.285748	0.408908
H92	H	1.747289	0.785748	0.908908
O93	O	0.917199	-0.044607	0.395663
O94	O	1.417199	0.455393	0.895663
H95	H	0.867712	-0.000537	0.349840
H96	H	1.367712	0.499463	0.849840
H97	H	1.247319	0.285760	0.591236
H98	H	1.747319	0.785760	1.091236
H99	H	1.191241	0.229700	0.258171
H100	H	1.691241	0.729700	0.758171
H101	H	1.191304	0.229691	0.742001
H102	H	1.691304	0.729691	1.242001
H103	H	0.931969	-0.029760	0.591317
H104	H	1.431969	0.470240	1.091317
