data_functionalizedCrystal
_audit_creation_method	'MofGen! by Chris Wilmer'
_symmetry_space_group_name_H-M	'P1'
_symmetry_Int_Tables_number	1
_symmetry_cell_setting	triclinic
loop_
_symmetry_equiv_pos_as_xyz
  x,y,z
_cell_length_a	12.759395
_cell_length_b	18.050589
_cell_length_c	18.050582
_cell_angle_alpha	89.981795
_cell_angle_beta	89.986559
_cell_angle_gamma	90.028909
loop_
_atom_site_label
_atom_site_type_symbol
_atom_site_fract_x
_atom_site_fract_y
_atom_site_fract_z
Zn1	Zn	1.606087	-0.295693	-0.419906
Zn2	Zn	1.605961	-0.419876	-0.295725
Zn3	Zn	1.430410	-0.295706	-0.295733
Zn4	Zn	1.430336	-0.419847	-0.419877
O5	O	1.518199	-0.357781	-0.357810
O6	O	1.753091	-0.312173	-0.403442
O7	O	1.582652	-0.403423	-0.191802
O8	O	1.453797	-0.191780	-0.312220
O9	O	1.752999	-0.403410	-0.312207
O10	O	1.582867	-0.191770	-0.403449
O11	O	1.453675	-0.312195	-0.191807
O12	O	1.283379	-0.312167	-0.312192
O13	O	1.453672	-0.403360	-0.523805
O14	O	1.283325	-0.403373	-0.403400
O15	O	1.582796	-0.312145	-0.523827
O16	O	1.582580	-0.523797	-0.312179
O17	O	1.453550	-0.523776	-0.403393
C18	C	1.245231	-0.357769	-0.357794
C19	C	1.128454	-0.357782	-0.357805
C20	C	0.909013	-0.452925	-0.452655
C21	C	0.963876	-0.500481	-0.500062
C22	C	1.073598	-0.500472	-0.500052
C23	C	1.128459	-0.452903	-0.452629
C24	C	1.073596	-0.405347	-0.405222
C25	C	0.963872	-0.405360	-0.405238
C26	C	1.073591	-0.310225	-0.310398
C27	C	0.963870	-0.310230	-0.310410
C28	C	1.128452	-0.262656	-0.262975
C29	C	1.073589	-0.215095	-0.215570
C30	C	0.963861	-0.215106	-0.215582
C31	C	0.909007	-0.262673	-0.263003
C32	C	1.518072	-0.550733	-0.357798
C33	C	1.518114	-0.633279	-0.357817
C34	C	1.448016	-0.832745	-0.407402
C35	C	1.422413	-0.882179	-0.339635
C36	C	1.518217	-0.784409	-0.357827
C37	C	1.543871	-0.882056	-0.425602
C38	C	1.518314	-0.930394	-0.357842
C39	C	1.492564	-0.832756	-0.290024
C40	C	1.614066	-0.832629	-0.376037
C41	C	1.588500	-0.882041	-0.308223
C42	C	1.518158	-0.700311	-0.357819
C43	C	1.518374	-1.014490	-0.357843
C44	C	1.792232	-0.357793	-0.357827
C45	C	1.909009	-0.357798	-0.357834
C46	C	1.518240	-0.357748	-0.551516
C47	C	1.518257	-0.357734	-0.634062
C48	C	1.518354	-0.164075	-0.357839
C49	C	1.518421	-0.081529	-0.357851
C50	C	1.448094	-0.407269	-0.833501
C51	C	1.543946	-0.425422	-0.882892
C52	C	1.518309	-0.357677	-0.785192
C53	C	1.422509	-0.339504	-0.882883
C54	C	1.518351	-0.357624	-0.931177
C55	C	1.614212	-0.375865	-0.833496
C56	C	1.492710	-0.289916	-0.833483
C57	C	1.588629	-0.308043	-0.882851
C58	C	1.518284	-0.357710	-0.701094
C59	C	1.518387	-0.357591	-1.015274
C60	C	1.518218	-0.357760	-0.164858
C61	C	1.518404	-0.357565	-0.082313
H62	H	1.217800	-0.452906	-0.452619
C63	C	1.132980	-0.552131	-0.551604
C64	C	1.061459	-0.593780	-0.593150
C65	C	1.116123	-0.641367	-0.640654
H66	H	1.175758	-0.584508	-0.523217
H67	H	1.175791	-0.523776	-0.584045
H68	H	1.018667	-0.622132	-0.560713
H69	H	1.018679	-0.561422	-0.621552
H70	H	1.158934	-0.613012	-0.673095
H71	H	1.158899	-0.673740	-0.612261
H72	H	1.067605	-0.669627	-0.668853
C73	C	1.247579	-0.262562	-0.262826
C74	C	1.283878	-0.210740	-0.211137
C75	C	1.393611	-0.210636	-0.210972
H76	H	1.272565	-0.249756	-0.310725
H77	H	1.272409	-0.310453	-0.249863
H78	H	1.259059	-0.162859	-0.224105
H79	H	1.258921	-0.223534	-0.163230
H80	H	1.418441	-0.258528	-0.198009
H81	H	1.418587	-0.197831	-0.258874
H82	H	1.418254	-0.175481	-0.175898
H83	H	1.471005	-0.232651	-0.811763
C84	C	1.667866	-0.910630	-0.252327
C85	C	1.767751	-0.884402	-0.270936
C86	C	1.840880	-0.910718	-0.219455
H87	H	1.668011	-0.963250	-0.252881
H88	H	1.649577	-0.893637	-0.204223
H89	H	1.786035	-0.901399	-0.319027
H90	H	1.767640	-0.831785	-0.270376
H91	H	1.822592	-0.893726	-0.171351
H92	H	1.841016	-0.963338	-0.220013
H93	H	1.908659	-0.892921	-0.232070
C94	C	1.463755	-0.804049	-0.213531
C95	C	1.537007	-0.829594	-0.161752
C96	C	1.510507	-0.803155	-0.091284
H97	H	1.395950	-0.821411	-0.200421
H98	H	1.463913	-0.751418	-0.213963
H99	H	1.536838	-0.882214	-0.161318
H100	H	1.604817	-0.812234	-0.174838
H101	H	1.510665	-0.750523	-0.091715
H102	H	1.442701	-0.820519	-0.078180
H103	H	1.560209	-0.820477	-0.056144
H104	H	1.695059	-0.810850	-0.391457
C105	C	0.789880	-0.262693	-0.262867
C106	C	0.753513	-0.281529	-0.192134
C107	C	0.643779	-0.281550	-0.191983
H108	H	0.764942	-0.297830	-0.297845
H109	H	0.765048	-0.214782	-0.275757
H110	H	0.778334	-0.329433	-0.179254
H111	H	0.778421	-0.246398	-0.157144
H112	H	0.618947	-0.233639	-0.204873
H113	H	0.618852	-0.316688	-0.226964
H114	H	0.619090	-0.294323	-0.143991
H115	H	1.388770	-0.449262	-0.811833
C116	C	1.572829	-0.910787	-0.502058
C117	C	1.589863	-0.850828	-0.549800
C118	C	1.616546	-0.877263	-0.620235
H119	H	1.517343	-0.940498	-0.520731
H120	H	1.634879	-0.939673	-0.498779
H121	H	1.527821	-0.821954	-0.553081
H122	H	1.645354	-0.821112	-0.531151
H123	H	1.678595	-0.906149	-0.616956
H124	H	1.561055	-0.906973	-0.638901
H125	H	1.628116	-0.836585	-0.652635
C126	C	1.572649	-0.501851	-0.911797
C127	C	1.498856	-0.553577	-0.886813
C128	C	1.525247	-0.623990	-0.913430
H129	H	1.640202	-0.515184	-0.894177
H130	H	1.573037	-0.501194	-0.964425
H131	H	1.498479	-0.554235	-0.834196
H132	H	1.431297	-0.540268	-0.904430
H133	H	1.525635	-0.623334	-0.966059
H134	H	1.592801	-0.637316	-0.895809
H135	H	1.475178	-0.659094	-0.896488
C136	C	1.133099	-0.163551	-0.163960
C137	C	1.106375	-0.179632	-0.090457
C138	C	1.161191	-0.132171	-0.042892
H139	H	1.115207	-0.113640	-0.174817
H140	H	1.206312	-0.170369	-0.170691
H141	H	1.033179	-0.172808	-0.083729
H142	H	1.124271	-0.229534	-0.079577
H143	H	1.234403	-0.138990	-0.049623
H144	H	1.143294	-0.082264	-0.053756
H145	H	1.143074	-0.143081	0.006986
H146	H	1.341475	-0.324155	-0.904577
H147	H	0.919198	-0.176380	-0.176977
H148	H	1.695270	-0.391279	-0.811893
C149	C	0.904251	-0.551997	-0.551642
C150	C	0.841331	-0.510013	-0.599331
C151	C	0.786403	-0.557443	-0.646861
H152	H	0.861328	-0.584334	-0.523270
H153	H	0.952604	-0.580306	-0.579919
H154	H	0.792985	-0.481717	-0.571056
H155	H	0.884229	-0.477679	-0.627719
H156	H	0.834755	-0.585753	-0.675139
H157	H	0.743485	-0.589777	-0.618483
H158	H	0.743713	-0.528964	-0.679228
H159	H	1.341402	-0.903960	-0.324248
H160	H	1.388562	-0.811098	-0.449267
H161	H	1.648094	-0.266082	-0.904383
H162	H	0.819672	-0.452930	-0.452675
