data_functionalizedCrystal
_audit_creation_method	'MofGen! by Chris Wilmer'
_symmetry_space_group_name_H-M	'P1'
_symmetry_Int_Tables_number	1
_symmetry_cell_setting	triclinic
loop_
_symmetry_equiv_pos_as_xyz
  x,y,z
_cell_length_a	12.759395
_cell_length_b	12.645330
_cell_length_c	12.759387
_cell_angle_alpha	90.031550
_cell_angle_beta	90.019431
_cell_angle_gamma	90.012491
loop_
_atom_site_label
_atom_site_type_symbol
_atom_site_fract_x
_atom_site_fract_y
_atom_site_fract_z
Zn1	Zn	1.606284	-0.421988	0.593969
Zn2	Zn	1.606181	-0.599290	0.418288
Zn3	Zn	1.430582	-0.422040	0.418310
Zn4	Zn	1.430580	-0.599209	0.593930
O5	O	1.518407	-0.510632	0.506124
O6	O	1.753291	-0.445519	0.570672
O7	O	1.582844	-0.575833	0.271269
O8	O	1.453933	-0.273686	0.441637
O9	O	1.753215	-0.575782	0.441599
O10	O	1.583020	-0.273648	0.570693
O11	O	1.453833	-0.445609	0.271285
O12	O	1.283561	-0.445530	0.441599
O13	O	1.453930	-0.575645	0.740956
O14	O	1.283560	-0.575696	0.570626
O15	O	1.583019	-0.445441	0.740985
O16	O	1.582843	-0.747626	0.441561
O17	O	1.453831	-0.747567	0.570605
C18	C	1.245439	-0.510611	0.506111
C19	C	1.128662	-0.510627	0.506131
C20	C	1.128722	-0.375204	0.640751
C21	C	1.073891	-0.307505	0.708070
C22	C	0.964169	-0.307523	0.708083
C23	C	0.909276	-0.375246	0.640768
C24	C	0.964107	-0.442945	0.573449
C25	C	1.073831	-0.442921	0.573446
C26	C	0.964048	-0.578362	0.438825
C27	C	1.073769	-0.578350	0.438815
C28	C	0.909155	-0.646085	0.371510
C29	C	0.963986	-0.713791	0.304195
C30	C	1.073714	-0.713770	0.304185
C31	C	1.128600	-0.646049	0.371497
C32	C	1.518354	-0.786062	0.506099
C33	C	1.518428	-0.903892	0.506124
C34	C	1.599459	-1.071449	0.424778
C35	C	1.599723	-0.948888	0.424977
C36	C	1.548458	-0.948265	0.616868
C37	C	1.549101	-1.070863	0.616436
C38	C	1.407334	-1.071221	0.477817
C39	C	1.407867	-0.948617	0.475334
C40	C	1.792440	-0.510654	0.506138
C41	C	1.909217	-0.510663	0.506144
C42	C	1.518486	-0.510528	0.780158
C43	C	1.518520	-0.510484	0.896934
C44	C	1.518488	-0.234127	0.506172
C45	C	1.518523	-0.116296	0.506192
C46	C	1.518388	-0.510659	0.233157
C47	C	1.518558	-0.510404	0.116380
C48	C	1.652949	-0.374911	0.896984
C49	C	1.720178	-0.307109	0.951870
C50	C	1.720203	-0.307071	1.061592
C51	C	1.652990	-0.374839	1.116430
C52	C	1.585761	-0.442641	1.061545
C53	C	1.585745	-0.442675	0.951820
C54	C	1.451329	-0.578206	1.061495
C55	C	1.451307	-0.578252	0.951773
C56	C	1.384116	-0.645975	1.116333
C57	C	1.316890	-0.713784	1.061447
C58	C	1.316868	-0.713821	0.951719
C59	C	1.384078	-0.646054	0.896887
H60	H	1.217941	-0.646020	0.371490
O61	O	1.132845	-0.786787	0.231567
H62	H	1.218365	-0.775395	0.242858
H63	H	1.580905	-1.101008	0.342422
H64	H	1.774899	-0.251932	0.907209
H65	H	1.262166	-0.768950	1.106105
O66	O	1.247065	-0.375187	0.640750
H67	H	1.275970	-0.433645	0.582637
H68	H	0.819813	-0.646092	0.371522
O69	O	1.377855	-0.910213	0.367386
H70	H	1.441407	-0.859477	0.335787
O71	O	0.790934	-0.375256	0.640776
H72	H	0.761979	-0.353727	0.561572
H73	H	1.262111	-0.769022	0.907037
O74	O	1.474402	-1.110174	0.699515
H75	H	1.518041	-1.158725	0.757355
H76	H	1.118597	-0.252364	0.762875
O77	O	0.904785	-0.786826	0.231593
H78	H	0.819278	-0.775464	0.242910
O79	O	1.472773	-0.909636	0.699387
H80	H	1.433848	-0.978452	0.736779
O81	O	1.574837	-0.909138	0.316211
H82	H	1.641127	-0.860510	0.287076
H83	H	1.652944	-0.374946	0.807643
H84	H	1.682077	-0.919479	0.443744
O85	O	1.707969	-1.112128	0.449359
H86	H	1.704507	-1.164148	0.519312
O87	O	1.384132	-0.645935	1.234676
H88	H	1.463368	-0.667376	1.263616
H89	H	0.919526	-0.252391	0.762893
O90	O	1.792715	-0.233948	1.120801
H91	H	1.839452	-0.186835	1.064241
H92	H	1.630374	-1.099374	0.640472
H93	H	1.628813	-0.917475	0.641305
H94	H	1.380027	-1.102236	0.398470
H95	H	1.384071	-0.646082	0.807546
H96	H	1.344309	-0.917998	0.530285
H97	H	1.653008	-0.374793	1.205772
H98	H	1.347030	-1.100224	0.537115
