data_functionalizedCrystal
_audit_creation_method	'MofGen! by Chris Wilmer'
_symmetry_space_group_name_H-M	'P1'
_symmetry_Int_Tables_number	1
_symmetry_cell_setting	triclinic
loop_
_symmetry_equiv_pos_as_xyz
  x,y,z
_cell_length_a	17.639504
_cell_length_b	14.908520
_cell_length_c	14.908308
_cell_angle_alpha	83.639235
_cell_angle_beta	98.635970
_cell_angle_gamma	105.081037
loop_
_atom_site_label
_atom_site_type_symbol
_atom_site_fract_x
_atom_site_fract_y
_atom_site_fract_z
Zn1	Zn	-1.161811	0.136904	-0.786529
Zn2	Zn	-1.161721	0.279569	-0.643880
Zn3	Zn	-1.037719	0.155226	-0.608062
Zn4	Zn	-1.021502	0.318773	-0.764538
O5	O	-1.095688	0.222618	-0.700752
O6	O	-1.272414	0.131754	-0.791800
O7	O	-1.152021	0.254335	-0.513943
O8	O	-1.061004	0.024645	-0.625949
O9	O	-1.272348	0.236569	-0.686996
O10	O	-1.152174	0.011184	-0.757068
O11	O	-1.060917	0.162981	-0.487628
O12	O	-0.924952	0.200995	-0.604625
O13	O	-1.033365	0.303387	-0.892641
O14	O	-0.913038	0.321153	-0.719588
O15	O	-1.136449	0.169768	-0.908797
O16	O	-1.136296	0.412920	-0.665672
O17	O	-1.033278	0.441723	-0.754319
C18	C	-0.890314	0.267317	-0.655834
C19	C	-0.802451	0.286463	-0.636640
C20	C	-0.513578	0.077095	-0.846769
C21	C	-0.431017	0.095107	-0.828716
C22	C	-0.430990	0.204046	-0.719410
C23	C	-0.513551	0.186046	-0.737457
C24	C	-0.554839	0.122569	-0.801137
C25	C	-0.554813	0.231519	-0.691825
C26	C	-0.637368	0.213517	-0.709867
C27	C	-0.678661	0.150041	-0.773542
C28	C	-0.637394	0.104566	-0.819179
C29	C	-0.513524	0.294991	-0.628141
C30	C	-0.554786	0.340465	-0.582509
C31	C	-0.637341	0.322468	-0.600555
C32	C	-0.678635	0.258992	-0.664230
C33	C	-0.678609	0.367943	-0.554918
C34	C	-0.761164	0.349940	-0.572960
C35	C	-0.761190	0.240989	-0.682272
C36	C	-1.083038	0.460546	-0.711520
C37	C	-1.077697	0.562319	-0.716173
C38	C	-1.083108	0.238907	-0.934086
C39	C	-1.077747	0.245848	-1.033518
C40	C	-0.301865	0.177731	-0.745843
C41	C	-0.389728	0.158568	-0.765048
C42	C	-1.108408	-0.016243	-0.689966
C43	C	-1.113829	-0.118031	-0.685370
C44	C	-1.175032	0.723492	-0.632722
C45	C	-1.170017	0.819116	-0.637091
C46	C	-1.062654	0.849192	-0.729285
C47	C	-1.067670	0.753568	-0.724916
C48	C	-1.123860	0.690721	-0.676632
C49	C	-1.128871	0.595096	-0.672258
C50	C	-1.021513	0.625173	-0.764456
C51	C	-1.016497	0.720797	-0.768826
C52	C	-1.175014	0.119734	-1.237187
C53	C	-1.169980	0.126253	-1.330614
C54	C	-1.062641	0.265399	-1.313798
C55	C	-1.067675	0.258881	-1.220372
C56	C	-1.123865	0.186047	-1.182070
C57	C	-1.128902	0.179533	-1.088643
C58	C	-1.021560	0.318674	-1.071828
C59	C	-1.016526	0.325193	-1.165255
C60	C	-1.108268	0.206316	-0.468333
C61	C	-1.113796	0.199083	-0.368923
H62	H	-0.794808	0.189304	-0.734130
H63	H	-0.397426	0.058067	-0.865876
H64	H	-1.220780	0.672321	-0.593400
H65	H	-0.979912	0.372673	-1.026942
H66	H	-0.970751	0.771980	-0.808140
H67	H	-1.220770	0.060434	-1.206003
H68	H	-0.745883	0.135381	-0.788227
F69	F	-0.387040	0.271597	-0.651637
F70	F	-0.681339	0.037014	-0.886961
H71	H	-0.547196	0.025409	-0.898627
F72	F	-1.224483	0.853989	-0.590359
H73	H	-0.979843	0.598482	-0.800208
H74	H	-1.211629	0.072252	-1.375487
F75	F	-0.425661	0.314144	-0.608935
F76	F	-0.510836	0.408016	-0.514736
F77	F	-1.002840	0.342902	-1.354576
F78	F	-0.634658	0.435487	-0.487139
H79	H	-0.794759	0.386970	-0.535802
H80	H	-1.174622	0.543926	-0.632940
F81	F	-1.188705	0.102020	-1.047882
F82	F	-1.002866	0.916091	-0.780680
F83	F	-0.956727	0.402702	-1.206028
