data_functionalizedCrystal
_audit_creation_method	'MofGen! by Chris Wilmer'
_symmetry_space_group_name_H-M	'P1'
_symmetry_Int_Tables_number	1
_symmetry_cell_setting	triclinic
loop_
_symmetry_equiv_pos_as_xyz
  x,y,z
_cell_length_a	16.120530
_cell_length_b	19.120786
_cell_length_c	16.120297
_cell_angle_alpha	90.306305
_cell_angle_beta	90.128140
_cell_angle_gamma	89.436752
loop_
_atom_site_label
_atom_site_type_symbol
_atom_site_fract_x
_atom_site_fract_y
_atom_site_fract_z
Zn1	Zn	1.230439	-0.354318	-0.515736
Zn2	Zn	1.232048	-0.465652	-0.370762
Zn3	Zn	1.098996	-0.342500	-0.370282
Zn4	Zn	1.086035	-0.465008	-0.502765
O5	O	1.161880	-0.406870	-0.439886
O6	O	1.346768	-0.374302	-0.502134
O7	O	1.220496	-0.444639	-0.254581
O8	O	1.121184	-0.246204	-0.394804
O9	O	1.347950	-0.456099	-0.395622
O10	O	1.217754	-0.254887	-0.501668
O11	O	1.122744	-0.354160	-0.254229
O12	O	0.981161	-0.353536	-0.382227
O13	O	1.099093	-0.455001	-0.620603
O14	O	0.971638	-0.443542	-0.479562
O15	O	1.205186	-0.373678	-0.630132
O16	O	1.207928	-0.563430	-0.383045
O17	O	1.100653	-0.562957	-0.480027
C18	C	0.946292	-0.397187	-0.429435
C19	C	0.854061	-0.393062	-0.424983
C20	C	0.685193	-0.385516	-0.416863
C21	C	0.639400	-0.428278	-0.462967
C22	C	0.545437	-0.424079	-0.458449
C23	C	0.779166	-0.389714	-0.421380
C24	C	1.153080	-0.588570	-0.430200
C25	C	1.149390	-0.666307	-0.426087
C26	C	1.197893	-0.707288	-0.479835
C27	C	1.194422	-0.780330	-0.475973
C28	C	1.142452	-0.812390	-0.418357
C29	C	1.093943	-0.771403	-0.364607
C30	C	1.097410	-0.698363	-0.368475
C31	C	1.129467	-1.032702	-0.403899
C32	C	1.126006	-1.105748	-0.400034
C33	C	1.226484	-1.114670	-0.511400
C34	C	1.229950	-1.041628	-0.515259
C35	C	1.181438	-1.000648	-0.461512
C36	C	1.138905	-0.887050	-0.414406
C37	C	1.184981	-0.925989	-0.465468
C38	C	1.378309	-0.416591	-0.450378
C39	C	1.470538	-0.420733	-0.454849
C40	C	1.150514	-0.415586	-0.656317
C41	C	1.145671	-0.419300	-0.748547
C42	C	1.170735	-0.224461	-0.449629
C43	C	1.174509	-0.146729	-0.453781
C44	C	1.136799	-0.426065	-0.917412
C45	C	1.187134	-0.387472	-0.963231
C46	C	1.182197	-0.391236	-1.057193
C47	C	1.141734	-0.422302	-0.823441
C48	C	1.173251	-0.398139	-0.224302
C49	C	1.178264	-0.394235	-0.132091
H50	H	0.670765	-0.468040	-0.505833
H51	H	1.090002	-0.461929	-0.948752
Br52	Br	0.632920	-0.319244	-0.345423
H53	H	1.227292	-0.899884	-0.512382
Br54	Br	1.068368	-0.930566	-0.336223
Br55	Br	1.260237	-0.835945	-0.548933
Br56	Br	1.268435	-0.663786	-0.558025
Br57	Br	1.292316	-1.170289	-0.584341
Br58	Br	1.055475	-1.149257	-0.321831
Br59	Br	1.300485	-0.998124	-0.593453
Br60	Br	1.023399	-0.814912	-0.286425
Br61	Br	1.265158	-0.327708	-0.910998
Br62	Br	1.031577	-0.642744	-0.295532
H63	H	1.089968	-0.999342	-0.360134
