data_functionalizedCrystal
_audit_creation_method	'MofGen! by Chris Wilmer'
_symmetry_space_group_name_H-M	'P1'
_symmetry_Int_Tables_number	1
_symmetry_cell_setting	triclinic
loop_
_symmetry_equiv_pos_as_xyz
  x,y,z
_cell_length_a	15.995350
_cell_length_b	11.026607
_cell_length_c	9.482900
_cell_angle_alpha	101.363848
_cell_angle_beta	99.336743
_cell_angle_gamma	83.960804
loop_
_atom_site_label
_atom_site_type_symbol
_atom_site_fract_x
_atom_site_fract_y
_atom_site_fract_z
O1	O	0.340363	-1.629075	-0.120882
O2	O	0.840363	-1.129075	0.379118
O3	O	0.300437	-1.275769	-0.120885
O4	O	0.800437	-0.775769	0.379115
O5	O	0.199968	-1.462080	-0.120882
O6	O	0.699968	-0.962080	0.379118
O7	O	0.440832	-1.442765	-0.120885
O8	O	0.940832	-0.942765	0.379115
O9	O	0.220481	-1.424236	0.120910
O10	O	0.720481	-0.924236	0.620910
O11	O	0.320950	-1.237926	0.120907
O12	O	0.820950	-0.737926	0.620907
O13	O	0.360875	-1.591231	0.120910
O14	O	0.860875	-1.091231	0.620910
Cu15	Cu	0.342785	-1.411123	0.142986
Cu16	Cu	0.842785	-0.911123	0.642986
Cu17	Cu	0.318527	-1.455878	-0.142961
Cu18	Cu	0.818527	-0.955878	0.357039
O19	O	0.461344	-1.404921	0.120907
O20	O	0.961344	-0.904921	0.620907
C21	C	0.303328	-1.211637	0.000010
C22	C	0.803328	-0.711637	0.500010
C23	C	0.281371	-1.076923	0.000009
C24	C	0.781371	-0.576923	0.500009
C25	C	0.178909	-1.442360	0.000011
C26	C	0.678909	-0.942360	0.500011
C27	C	0.085597	-1.439967	0.000003
C28	C	0.585597	-0.939967	0.500003
N29	N	0.359848	-1.379654	0.344106
N30	N	0.859848	-0.879654	0.844106
C31	C	-0.253446	-1.431369	0.000008
C32	C	0.246554	-0.931369	0.500008
C33	C	-0.226057	-1.298767	-0.000536
C34	C	0.273943	-0.798767	0.499464
C35	C	-0.128960	-1.301076	0.000009
C36	C	0.371040	-0.801076	0.500009
C37	C	-0.085243	-1.435634	0.000005
C38	C	0.414757	-0.935634	0.500005
C39	C	-0.104742	-1.479470	0.138078
C40	C	0.395258	-0.979470	0.638078
C41	C	-0.201871	-1.476118	0.138193
C42	C	0.298129	-0.976118	0.638193
C43	C	-0.225142	-1.521895	-0.136769
C44	C	0.274858	-1.021895	0.363231
C45	C	-0.128356	-1.522149	-0.138594
C46	C	0.371644	-1.022149	0.361406
C47	C	0.009819	-1.438051	0.000008
C48	C	0.509819	-0.938051	0.500008
C49	C	-0.348507	-1.428954	0.000014
C50	C	0.151493	-0.928954	0.500014
C51	C	0.482403	-1.424641	0.000011
C52	C	0.982403	-0.924641	0.500011
C53	C	0.575714	-1.427036	0.000009
C54	C	1.075714	-0.927036	0.500009
C55	C	0.357984	-1.655364	0.000012
C56	C	0.857984	-1.155364	0.500012
C57	C	0.379940	-1.790080	0.000004
C58	C	0.879940	-1.290080	0.500004
C59	C	0.341997	-1.003118	0.000007
C60	C	0.841997	-0.503118	0.500007
C61	C	0.319305	-0.863884	0.000005
C62	C	0.819305	-0.363884	0.500005
N63	N	0.301459	-1.487357	-0.344081
N64	N	0.801459	-0.987357	0.155919
C65	C	0.323554	-1.446587	0.416306
C66	C	0.823554	-0.946587	0.916306
C67	C	0.337759	-1.420413	0.583723
C68	C	0.837759	-0.920413	1.083723
H69	H	-0.116689	-1.265122	-0.098967
H70	H	0.383311	-0.765122	0.401033
Br71	Br	-0.055642	-1.642898	0.146639
Br72	Br	0.444358	-1.142898	0.646639
Br73	Br	-0.054331	-1.376906	0.309344
Br74	Br	0.445669	-0.876906	0.809344
H75	H	0.401433	-1.302967	0.406234
H76	H	0.901433	-0.802967	0.906234
Br77	Br	0.407072	-1.292586	0.687256
Br78	Br	0.907072	-0.792586	1.187256
H79	H	0.250594	-0.824003	-0.000031
H80	H	0.750594	-0.324003	0.499969
Br81	Br	-0.230265	-1.636843	0.148648
Br82	Br	0.269735	-1.136843	0.648648
H83	H	-0.260983	-1.261230	-0.099551
H84	H	0.239017	-0.761230	0.400449
Br85	Br	0.494463	-0.856540	0.000030
Br86	Br	0.994463	-0.356540	0.500030
Br87	Br	-0.285061	-1.476878	-0.311197
Br88	Br	0.214939	-0.976878	0.188803
Br89	Br	0.253979	-1.574093	0.312768
Br90	Br	0.753979	-1.074093	0.812768
H91	H	0.212664	-1.037037	-0.000028
H92	H	0.712664	-0.537037	0.499972
Br93	Br	-0.108766	-1.469716	-0.308869
Br94	Br	0.391234	-0.969716	0.191131
Br95	Br	-0.229775	-1.369648	0.310221
Br96	Br	0.270225	-0.869648	0.810221
H97	H	0.259864	-1.564039	0.593796
H98	H	0.759864	-1.064039	1.093796
H99	H	0.410702	-1.043008	0.000014
H100	H	0.910702	-0.543008	0.500014
H101	H	-0.100491	-1.233768	0.099153
H102	H	0.399509	-0.733768	0.599153
Br103	Br	-0.258537	-1.184903	0.163072
Br104	Br	0.241463	-0.684903	0.663072
H105	H	-0.242236	-1.619870	-0.137701
H106	H	0.257764	-1.119870	0.362299
H107	H	-0.098912	-1.621579	-0.146934
H108	H	0.401088	-1.121579	0.353066
