data_functionalizedCrystal
_audit_creation_method	'MofGen! by Chris Wilmer'
_symmetry_space_group_name_H-M	'P1'
_symmetry_Int_Tables_number	1
_symmetry_cell_setting	triclinic
loop_
_symmetry_equiv_pos_as_xyz
  x,y,z
_cell_length_a	12.811457
_cell_length_b	12.811415
_cell_length_c	9.130313
_cell_angle_alpha	84.567879
_cell_angle_beta	95.431704
_cell_angle_gamma	84.559489
loop_
_atom_site_label
_atom_site_type_symbol
_atom_site_fract_x
_atom_site_fract_y
_atom_site_fract_z
O1	O	1.393278	0.141366	0.044495
O2	O	1.087763	0.156740	0.001869
O3	O	1.248207	-0.003705	0.044500
O4	O	1.232834	0.301811	0.001865
O5	O	1.248205	-0.003701	0.288098
O6	O	1.087761	0.156744	0.245467
O7	O	1.393276	0.141371	0.288093
Cu8	Cu	1.240518	0.149058	0.289023
Cu9	Cu	1.240521	0.149053	0.000940
O10	O	1.232832	0.301816	0.245463
C11	C	1.048654	0.155881	0.118588
C12	C	0.932126	0.153301	0.103451
C13	C	1.247345	-0.042811	0.171377
C14	C	1.244766	-0.159340	0.186508
C15	C	0.713155	0.148440	0.340610
C16	C	0.603666	0.146016	0.326395
C17	C	0.603658	0.146023	0.060808
C18	C	0.713147	0.148446	0.075023
C19	C	0.767891	0.149656	0.214929
C20	C	0.877381	0.152088	0.229141
C21	C	0.877372	0.152087	-0.036443
C22	C	0.767883	0.149663	-0.050658
C23	C	1.239902	-0.378304	-0.050663
C24	C	1.237479	-0.487793	-0.036453
C25	C	1.237488	-0.487809	0.229135
C26	C	1.239911	-0.378320	0.214925
C27	C	1.241120	-0.323571	0.075022
C28	C	1.243551	-0.214081	0.060815
C29	C	1.243552	-0.214098	0.326400
C30	C	1.241129	-0.323587	0.340610
C31	C	1.432385	0.142230	0.171372
C32	C	1.548913	0.144809	0.186499
C33	C	1.233694	0.340921	0.118582
C34	C	1.236273	0.457450	0.103441
N35	N	1.240524	0.149061	0.491646
N36	N	1.240523	0.149041	-0.201681
C37	C	1.311587	0.078040	0.587174
C38	C	1.311585	0.078027	0.740512
C39	C	1.169452	0.220066	0.702779
C40	C	1.169451	0.220072	0.549444
C41	C	1.393649	-0.003962	0.608960
C42	C	1.393647	-0.003975	0.762298
H43	H	0.921952	0.153079	0.343058
Br44	Br	1.351682	-0.130852	0.852845
H45	H	1.240141	-0.368178	0.454515
H46	H	0.757727	0.149439	0.454524
Br47	Br	1.235810	-0.562124	0.418982
Br48	Br	1.245221	-0.139815	0.496986
H49	H	0.559068	0.145020	-0.053093
Br50	Br	0.529384	0.144358	0.496971
H51	H	0.723296	0.148673	-0.164564
Br52	Br	1.072989	0.316442	0.419794
H53	H	0.921949	0.153084	-0.138784
H54	H	1.111586	0.277881	0.749855
Br55	Br	1.245198	-0.139780	-0.129050
H56	H	1.240896	-0.333727	-0.164576
Br57	Br	1.520472	0.038114	0.540933
Br58	Br	1.527954	0.025402	0.845614
H59	H	1.236484	-0.532352	-0.138800
H60	H	1.376079	-0.084563	0.575715
