data_functionalizedCrystal
_audit_creation_method	'MofGen! by Chris Wilmer'
_symmetry_space_group_name_H-M	'P1'
_symmetry_Int_Tables_number	1
_symmetry_cell_setting	triclinic
loop_
_symmetry_equiv_pos_as_xyz
  x,y,z
_cell_length_a	19.805407
_cell_length_b	16.625546
_cell_length_c	19.805399
_cell_angle_alpha	89.972133
_cell_angle_beta	89.982197
_cell_angle_gamma	90.019784
loop_
_atom_site_label
_atom_site_type_symbol
_atom_site_fract_x
_atom_site_fract_y
_atom_site_fract_z
Zn1	Zn	1.034754	-0.321078	-0.382686
Zn2	Zn	1.284754	-0.071078	-0.132686
Zn3	Zn	1.534754	0.178922	0.117314
Zn4	Zn	1.784754	0.428922	0.367314
Zn5	Zn	1.034677	-0.455915	-0.269498
Zn6	Zn	1.284677	-0.205915	-0.019498
Zn7	Zn	1.534677	0.044085	0.230502
Zn8	Zn	1.784677	0.294085	0.480502
Zn9	Zn	0.921569	-0.321094	-0.269514
Zn10	Zn	1.171569	-0.071094	-0.019514
Zn11	Zn	1.421569	0.178906	0.230486
Zn12	Zn	1.671569	0.428906	0.480486
Zn13	Zn	0.921540	-0.455866	-0.382648
Zn14	Zn	1.171540	-0.205866	-0.132648
Zn15	Zn	1.421540	0.044134	0.117352
Zn16	Zn	1.671540	0.294134	0.367352
O17	O	0.978135	-0.388488	-0.326086
O18	O	1.228135	-0.138488	-0.076086
O19	O	1.478135	0.111512	0.173914
O20	O	1.728135	0.361512	0.423914
O21	O	1.129460	-0.338978	-0.367681
O22	O	1.379460	-0.088978	-0.117681
O23	O	1.629460	0.161022	0.132319
O24	O	1.879460	0.411022	0.382319
O25	O	1.019652	-0.438058	-0.174783
O26	O	1.269652	-0.188058	0.075217
O27	O	1.519652	0.061942	0.325217
O28	O	1.769652	0.311942	0.575217
O29	O	0.936628	-0.208259	-0.284550
O30	O	1.186628	0.041741	-0.034550
O31	O	1.436628	0.291741	0.215450
O32	O	1.686628	0.541741	0.465450
O33	O	1.129404	-0.438043	-0.284521
O34	O	1.379404	-0.188043	-0.034521
O35	O	1.629404	0.061957	0.215479
O36	O	1.879404	0.311957	0.465479
O37	O	1.019784	-0.208248	-0.367697
O38	O	1.269784	0.041752	-0.117697
O39	O	1.519784	0.291752	0.132303
O40	O	1.769784	0.541752	0.382303
O41	O	0.936552	-0.339006	-0.174796
O42	O	1.186552	-0.089006	0.075204
O43	O	1.436552	0.160994	0.325204
O44	O	1.686552	0.410994	0.575204
O45	O	0.826848	-0.338958	-0.284513
O46	O	1.076848	-0.088958	-0.034513
O47	O	1.326848	0.161042	0.215487
O48	O	1.576848	0.411042	0.465487
O49	O	0.936579	-0.437959	-0.477369
O50	O	1.186579	-0.187959	-0.227369
O51	O	1.436579	0.062041	0.022631
O52	O	1.686579	0.312041	0.272631
O53	O	0.826827	-0.437974	-0.367631
O54	O	1.076827	-0.187974	-0.117631
O55	O	1.326827	0.062026	0.132369
O56	O	1.576827	0.312026	0.382369
O57	O	1.019756	-0.338931	-0.477398
O58	O	1.269756	-0.088931	-0.227398
O59	O	1.519756	0.161069	0.022602
O60	O	1.769756	0.411069	0.272602
O61	O	1.019625	-0.568741	-0.284484
O62	O	1.269625	-0.318741	-0.034484
O63	O	1.519625	-0.068741	0.215516
O64	O	1.769625	0.181259	0.465516
O65	O	0.936504	-0.568705	-0.367615
O66	O	1.186504	-0.318705	-0.117615
O67	O	1.436504	-0.068705	0.132385
O68	O	1.686504	0.181295	0.382385
C69	C	0.802279	-0.388463	-0.326070
C70	C	1.052279	-0.138463	-0.076070
C71	C	1.302279	0.111537	0.173930
C72	C	1.552279	0.361537	0.423930
C73	C	0.727047	-0.388472	-0.326079
C74	C	0.977047	-0.138472	-0.076079
C75	C	1.227047	0.111528	0.173921
C76	C	1.477047	0.361528	0.423921
C77	C	0.691733	-0.336980	-0.369446
C78	C	0.941733	-0.086980	-0.119446
C79	C	1.191733	0.163020	0.130554
C80	C	1.441733	0.413020	0.380554
C81	C	0.621045	-0.336984	-0.369449
C82	C	0.871045	-0.086984	-0.119449
C83	C	1.121045	0.163016	0.130551
C84	C	1.371045	0.413016	0.380551
C85	C	0.585671	-0.388485	-0.326087
C86	C	0.835671	-0.138485	-0.076087
C87	C	1.085671	0.111515	0.173913
C88	C	1.335671	0.361515	0.423913
C89	C	0.620990	-0.439979	-0.282716
C90	C	0.870990	-0.189979	-0.032716
C91	C	1.120990	0.060021	0.217284
C92	C	1.370990	0.310021	0.467284
C93	C	0.691677	-0.439970	-0.282710
C94	C	0.941677	-0.189970	-0.032710
C95	C	1.191677	0.060030	0.217290
C96	C	1.441677	0.310030	0.467290
C97	C	0.335917	-0.440015	-0.282736
C98	C	0.585917	-0.190015	-0.032736
C99	C	0.835917	0.059985	0.217264
C100	C	1.085917	0.309985	0.467264
C101	C	0.265225	-0.440022	-0.282747
C102	C	0.515225	-0.190022	-0.032747
C103	C	0.765225	0.059978	0.217253
C104	C	1.015225	0.309978	0.467253
C105	C	0.265284	-0.337030	-0.369475
C106	C	0.515284	-0.087030	-0.119475
C107	C	0.765284	0.162970	0.130525
C108	C	1.015284	0.412970	0.380525
C109	C	0.335971	-0.337021	-0.369469
C110	C	0.585971	-0.087021	-0.119469
C111	C	0.835971	0.162979	0.130531
C112	C	1.085971	0.412979	0.380531
C113	C	0.371284	-0.388511	-0.326095
C114	C	0.621284	-0.138511	-0.076095
C115	C	0.871284	0.111489	0.173905
C116	C	1.121284	0.361489	0.423905
C117	C	0.447932	-0.388505	-0.326092
C118	C	0.697932	-0.138505	-0.076092
C119	C	0.947932	0.111495	0.173908
C120	C	1.197932	0.361495	0.423908
C121	C	0.509024	-0.388496	-0.326093
C122	C	0.759024	-0.138496	-0.076093
C123	C	1.009024	0.111504	0.173907
C124	C	1.259024	0.361504	0.423907
C125	C	0.978071	-0.597979	-0.326058
C126	C	1.228071	-0.347979	-0.076058
C127	C	1.478071	-0.097979	0.173942
C128	C	1.728071	0.152021	0.423942
C129	C	0.978105	-0.687600	-0.326069
C130	C	1.228105	-0.437600	-0.076069
C131	C	1.478105	-0.187600	0.173931
C132	C	1.728105	0.062400	0.423931
C133	C	0.978224	-1.015776	-0.326139
C134	C	1.228224	-0.765776	-0.076139
C135	C	1.478224	-0.515776	0.173861
C136	C	1.728224	-0.265776	0.423861
C137	C	0.978189	-0.924467	-0.326121
C138	C	1.228189	-0.674467	-0.076121
C139	C	1.478189	-0.424467	0.173879
C140	C	1.728189	-0.174467	0.423879
C141	C	0.978164	-0.851691	-0.326104
C142	C	1.228164	-0.601691	-0.076104
C143	C	1.478164	-0.351691	0.173896
C144	C	1.728164	-0.101691	0.423896
C145	C	0.978130	-0.760377	-0.326087
C146	C	1.228130	-0.510377	-0.076087
C147	C	1.478130	-0.260377	0.173913
C148	C	1.728130	-0.010377	0.423913
C149	C	1.154678	-0.388514	-0.326103
C150	C	1.404678	-0.138514	-0.076103
C151	C	1.654678	0.111486	0.173897
C152	C	1.904678	0.361486	0.423897
C153	C	1.229910	-0.388525	-0.326111
C154	C	1.479910	-0.138525	-0.076111
C155	C	1.729910	0.111475	0.173889
C156	C	1.979910	0.361475	0.423889
C157	C	0.978173	-0.388438	-0.502629
C158	C	1.228173	-0.138438	-0.252629
C159	C	1.478173	0.111562	-0.002629
C160	C	1.728173	0.361562	0.247371
C161	C	0.978189	-0.388416	-0.577861
C162	C	1.228189	-0.138416	-0.327861
C163	C	1.478189	0.111584	-0.077861
C164	C	1.728189	0.361584	0.172139
C165	C	0.978218	-0.178179	-0.326130
C166	C	1.228218	0.071821	-0.076130
C167	C	1.478218	0.321821	0.173870
C168	C	1.728218	0.571821	0.423870
C169	C	0.978253	-0.088558	-0.326148
C170	C	1.228253	0.161442	-0.076148
C171	C	1.478253	0.411442	0.173852
C172	C	1.728253	0.661442	0.423852
C173	C	1.021501	-0.336849	-0.613221
C174	C	1.271501	-0.086849	-0.363221
C175	C	1.521501	0.163151	-0.113221
C176	C	1.771501	0.413151	0.136779
C177	C	1.021508	-0.336826	-0.683910
C178	C	1.271508	-0.086826	-0.433910
C179	C	1.521508	0.163174	-0.183910
C180	C	1.771508	0.413174	0.066090
C181	C	0.978206	-0.388374	-0.719237
C182	C	1.228206	-0.138374	-0.469237
C183	C	1.478206	0.111626	-0.219237
C184	C	1.728206	0.361626	0.030763
C185	C	0.934889	-0.439943	-0.683872
C186	C	1.184889	-0.189943	-0.433872
C187	C	1.434889	0.060057	-0.183872
C188	C	1.684889	0.310057	0.066128
C189	C	0.934880	-0.439961	-0.613185
C190	C	1.184880	-0.189961	-0.363185
C191	C	1.434880	0.060039	-0.113185
C192	C	1.684880	0.310039	0.136815
C193	C	0.934928	-0.439867	-0.968945
C194	C	1.184928	-0.189867	-0.718945
C195	C	1.434928	0.060133	-0.468945
C196	C	1.684928	0.310133	-0.218945
C197	C	0.934942	-0.439846	-1.039638
C198	C	1.184942	-0.189846	-0.789638
C199	C	1.434942	0.060154	-0.539638
C200	C	1.684942	0.310154	-0.289638
C201	C	1.021556	-0.336732	-1.039670
C202	C	1.271556	-0.086732	-0.789670
C203	C	1.521556	0.163268	-0.539670
C204	C	1.771556	0.413268	-0.289670
C205	C	1.021546	-0.336751	-0.968983
C206	C	1.271546	-0.086751	-0.718983
C207	C	1.521546	0.163249	-0.468983
C208	C	1.771546	0.413249	-0.218983
C209	C	0.978227	-0.388316	-0.933624
C210	C	1.228227	-0.138316	-0.683624
C211	C	1.478227	0.111684	-0.433624
C212	C	1.728227	0.361684	-0.183624
C213	C	0.978219	-0.388340	-0.856976
C214	C	1.228219	-0.138340	-0.606976
C215	C	1.478219	0.111660	-0.356976
C216	C	1.728219	0.361660	-0.106976
C217	C	0.978217	-0.388355	-0.795884
C218	C	1.228217	-0.138355	-0.545884
C219	C	1.478217	0.111645	-0.295884
C220	C	1.728217	0.361645	-0.045884
C221	C	0.978136	-0.388481	-0.150231
C222	C	1.228136	-0.138481	0.099769
C223	C	1.478136	0.111519	0.349769
C224	C	1.728136	0.361519	0.599769
C225	C	0.978251	-0.388275	-0.074999
C226	C	1.228251	-0.138275	0.175001
C227	C	1.478251	0.111725	0.425001
C228	C	1.728251	0.361725	0.675001
H229	H	0.236426	-0.481961	-0.247434
H230	H	0.486426	-0.231961	0.002566
H231	H	0.736426	0.018039	0.252566
H232	H	0.986426	0.268039	0.502566
H233	H	0.364660	-0.481942	-0.247419
H234	H	0.614660	-0.231942	0.002581
H235	H	0.864660	0.018058	0.252581
H236	H	1.114660	0.268058	0.502581
H237	H	1.056778	-0.294837	-0.712697
H238	H	1.306778	-0.044837	-0.462697
H239	H	1.556778	0.205163	-0.212697
H240	H	1.806778	0.455163	0.037303
F241	F	0.729261	-0.494775	-0.236553
F242	F	0.979261	-0.244775	0.013447
F243	F	1.229261	0.005225	0.263447
F244	F	1.479261	0.255225	0.513447
F245	F	0.583342	-0.494785	-0.236563
F246	F	0.833342	-0.244785	0.013437
F247	F	1.083342	0.005215	0.263437
F248	F	1.333342	0.255215	0.513437
F249	F	1.067658	-0.281848	-1.077307
F250	F	1.317658	-0.031848	-0.827307
F251	F	1.567658	0.218152	-0.577307
F252	F	1.817658	0.468152	-0.327307
F253	F	0.888780	-0.494843	-0.575552
F254	F	1.138780	-0.244843	-0.325552
F255	F	1.388780	0.005157	-0.075552
F256	F	1.638780	0.255157	0.174448
F257	F	0.888852	-0.494713	-1.077234
F258	F	1.138852	-0.244713	-0.827234
F259	F	1.388852	0.005287	-0.577234
F260	F	1.638852	0.255287	-0.327234
H261	H	1.056764	-0.294876	-0.584463
H262	H	1.306764	-0.044876	-0.334463
H263	H	1.556764	0.205124	-0.084463
H264	H	1.806764	0.455124	0.165537
H265	H	0.899630	-0.481911	-0.712641
H266	H	1.149630	-0.231911	-0.462641
H267	H	1.399630	0.018089	-0.212641
H268	H	1.649630	0.268089	0.037359
F269	F	0.729374	-0.282169	-0.415601
F270	F	0.979374	-0.032169	-0.165601
F271	F	1.229374	0.217831	0.084399
F272	F	1.479374	0.467831	0.334399
F273	F	0.583464	-0.282182	-0.415607
F274	F	0.833464	-0.032182	-0.165607
F275	F	1.083464	0.217818	0.084393
F276	F	1.333464	0.467818	0.334393
F277	F	1.067636	-0.281890	-0.931389
F278	F	1.317636	-0.031890	-0.681389
F279	F	1.567636	0.218110	-0.431389
F280	F	1.817636	0.468110	-0.181389
H281	H	0.364769	-0.295086	-0.404781
H282	H	0.614769	-0.045086	-0.154781
H283	H	0.864769	0.204914	0.095219
H284	H	1.114769	0.454914	0.345219
F285	F	0.227696	-0.282226	-0.415636
F286	F	0.477696	-0.032226	-0.165636
F287	F	0.727696	0.217774	0.084364
F288	F	0.977696	0.467774	0.334364
H289	H	0.899665	-0.481867	-0.940165
H290	H	1.149665	-0.231867	-0.690165
H291	H	1.399665	0.018133	-0.440165
H292	H	1.649665	0.268133	-0.190165
