data_functionalizedCrystal
_audit_creation_method	'MofGen! by Chris Wilmer'
_symmetry_space_group_name_H-M	'P1'
_symmetry_Int_Tables_number	1
_symmetry_cell_setting	triclinic
loop_
_symmetry_equiv_pos_as_xyz
  x,y,z
_cell_length_a	14.044220
_cell_length_b	17.038272
_cell_length_c	12.503572
_cell_angle_alpha	93.777379
_cell_angle_beta	86.164750
_cell_angle_gamma	92.150217
loop_
_atom_site_label
_atom_site_type_symbol
_atom_site_fract_x
_atom_site_fract_y
_atom_site_fract_z
O1	O	1.278116	0.185401	-0.089207
O2	O	1.001597	0.178559	-0.089234
O3	O	1.138213	0.068050	-0.089212
O4	O	1.141501	0.295910	-0.089229
O5	O	1.127940	0.076376	0.089428
O6	O	0.991324	0.186885	0.089406
O7	O	1.267843	0.193727	0.089433
Cu8	Cu	1.128646	0.191066	0.105731
Cu9	Cu	1.140795	0.181220	-0.105532
O10	O	1.131228	0.304236	0.089411
C11	C	0.960905	0.179728	0.000083
C12	C	0.854959	0.170796	0.000072
C13	C	0.660980	0.154469	0.000095
C14	C	0.608455	0.217814	0.000095
C15	C	0.500518	0.208729	0.000107
C16	C	0.768927	0.163552	0.000082
C17	C	1.130087	0.042876	0.000108
C18	C	1.121168	-0.044541	0.000106
C19	C	1.203055	-0.088926	0.000115
C20	C	1.194670	-0.171064	0.000104
C21	C	1.104395	-0.208815	0.000092
C22	C	1.022502	-0.164424	0.000080
C23	C	1.030888	-0.082288	0.000083
C24	C	1.074766	-0.456646	0.000074
C25	C	1.066385	-0.538788	0.000074
C26	C	1.238555	-0.545422	0.000097
C27	C	1.246933	-0.463284	0.000107
C28	C	1.165040	-0.418901	0.000089
C29	C	1.095822	-0.292772	0.000084
C30	C	1.173615	-0.334945	0.000089
C31	C	1.308536	0.192558	0.000114
C32	C	1.414481	0.201490	0.000117
C33	C	1.139354	0.329410	0.000089
C34	C	1.148273	0.416827	0.000083
N35	N	1.120107	0.197992	0.254322
N36	N	1.149340	0.174289	-0.254123
C37	C	1.107548	0.208186	0.473435
C38	C	1.161896	0.164097	0.526771
C39	C	1.154908	0.169769	0.648693
C40	C	1.114535	0.202515	0.351502
H41	H	0.644550	0.278868	0.000085
H42	H	1.261352	-0.207199	0.000114
O43	O	1.045702	0.258314	0.528022
C44	C	0.996558	0.298214	0.454426
H45	H	0.997336	0.262234	0.374226
H46	H	0.919580	0.306466	0.487030
H47	H	1.033015	0.358204	0.442513
H48	H	0.624887	0.093419	0.000105
H49	H	1.213675	0.122092	0.480866
O50	O	1.290781	-0.052303	-0.000065
C51	C	1.346425	-0.078716	-0.092569
H52	H	1.297468	-0.102363	-0.157237
H53	H	1.392774	-0.027652	-0.123621
H54	H	1.394030	-0.127489	-0.071650
O55	O	1.334702	-0.426743	0.000075
C56	C	1.405181	-0.483531	0.000112
H57	H	1.375918	-0.542681	-0.033722
H58	H	1.470797	-0.464531	-0.051734
H59	H	1.425819	-0.489301	0.085820
O60	O	1.318007	-0.588658	0.000057
C61	C	1.291251	-0.669247	0.000078
H62	H	1.218069	-0.679188	-0.033747
H63	H	1.346023	-0.704996	-0.051784
H64	H	1.288026	-0.688724	0.085780
O65	O	0.978680	-0.575436	-0.000138
C66	C	0.933678	-0.557646	-0.092656
H67	H	0.990074	-0.540015	-0.157310
H68	H	0.890914	-0.611608	-0.123721
H69	H	0.883657	-0.506932	-0.071752
O70	O	0.995254	-0.413517	-0.000126
C71	C	1.000278	-0.370103	-0.092634
H72	H	1.050324	-0.399745	-0.157294
H73	H	0.926022	-0.367690	-0.123698
H74	H	1.028547	-0.307768	-0.071715
O75	O	0.934869	-0.201189	-0.000076
C76	C	0.930180	-0.252796	-0.092609
H77	H	1.005438	-0.269418	-0.123447
H78	H	0.886654	-0.308180	-0.071805
H79	H	0.894657	-0.222521	-0.157400
O80	O	0.951243	-0.039286	0.000122
C81	C	0.869766	-0.090217	0.000083
H82	H	0.887076	-0.148164	0.033909
H83	H	0.808998	-0.061747	0.051935
H84	H	0.847340	-0.101925	-0.085625
O85	O	1.261261	-0.298195	-0.000042
C86	C	1.276593	-0.255206	-0.092573
H87	H	1.204883	-0.241464	-0.123433
H88	H	1.317716	-0.197879	-0.071756
H89	H	1.319578	-0.291511	-0.157351
O90	O	1.008069	-0.329347	0.000221
C91	C	0.952435	-0.302972	0.092752
H92	H	0.981222	-0.242843	0.123606
H93	H	0.875167	-0.298097	0.071938
H94	H	0.955928	-0.346645	0.157533
