data_functionalizedCrystal
_audit_creation_method	'MofGen! by Chris Wilmer'
_symmetry_space_group_name_H-M	'P1'
_symmetry_Int_Tables_number	1
_symmetry_cell_setting	triclinic
loop_
_symmetry_equiv_pos_as_xyz
  x,y,z
_cell_length_a	29.839135
_cell_length_b	29.839131
_cell_length_c	29.839135
_cell_angle_alpha	89.999332
_cell_angle_beta	89.988440
_cell_angle_gamma	90.043247
loop_
_atom_site_label
_atom_site_type_symbol
_atom_site_fract_x
_atom_site_fract_y
_atom_site_fract_z
Zn1	Zn	-0.686701	0.178970	0.254050
Zn2	Zn	-0.353368	0.512303	0.587384
Zn3	Zn	-0.020034	0.845637	0.920717
Zn4	Zn	-0.686639	0.254060	0.178920
Zn5	Zn	-0.353305	0.587393	0.512254
Zn6	Zn	-0.019972	0.920726	0.845587
Zn7	Zn	-0.611589	0.178947	0.178928
Zn8	Zn	-0.278256	0.512280	0.512261
Zn9	Zn	0.055077	0.845614	0.845595
Zn10	Zn	-0.611532	0.254076	0.254017
Zn11	Zn	-0.278198	0.587409	0.587350
Zn12	Zn	0.055135	0.920743	0.920683
O13	O	-0.649115	0.216513	0.216479
O14	O	-0.315782	0.549847	0.549812
O15	O	0.017552	0.883180	0.883146
O16	O	-0.749560	0.188934	0.244095
O17	O	-0.416226	0.522267	0.577428
O18	O	-0.082893	0.855600	0.910762
O19	O	-0.676681	0.244079	0.116054
O20	O	-0.343348	0.577413	0.449388
O21	O	-0.010015	0.910746	0.782721
O22	O	-0.621603	0.116083	0.188910
O23	O	-0.288270	0.449416	0.522244
O24	O	0.045063	0.782749	0.855577
O25	O	-0.749514	0.244102	0.188897
O26	O	-0.416181	0.577435	0.522231
O27	O	-0.082847	0.910768	0.855564
O28	O	-0.676788	0.116100	0.244102
O29	O	-0.343454	0.449433	0.577436
O30	O	-0.010121	0.782766	0.910769
O31	O	-0.621543	0.188894	0.116060
O32	O	-0.288209	0.522228	0.449393
O33	O	0.045124	0.855561	0.782727
O34	O	-0.548715	0.188910	0.188878
O35	O	-0.215381	0.522243	0.522211
O36	O	0.117952	0.855577	0.855545
O37	O	-0.621505	0.244130	0.316888
O38	O	-0.288171	0.577463	0.650222
O39	O	0.045162	0.910796	0.983555
O40	O	-0.548672	0.244107	0.244045
O41	O	-0.215339	0.577441	0.577379
O42	O	0.117995	0.910774	0.910712
O43	O	-0.676731	0.188950	0.316913
O44	O	-0.343398	0.522283	0.650246
O45	O	-0.010065	0.855616	0.983580
O46	O	-0.676625	0.316929	0.188865
O47	O	-0.343292	0.650262	0.522198
O48	O	-0.009959	0.983596	0.855531
O49	O	-0.621444	0.316941	0.244038
O50	O	-0.288111	0.650274	0.577371
O51	O	0.045222	0.983608	0.910704
C52	C	-0.532393	0.216508	0.216459
C53	C	-0.199059	0.549842	0.549792
C54	C	0.134274	0.883175	0.883126
C55	C	-0.482458	0.216517	0.216461
C56	C	-0.149125	0.549850	0.549795
C57	C	0.184209	0.883184	0.883128
C58	C	-0.172836	0.187825	0.245260
C59	C	0.160498	0.521158	0.578594
C60	C	0.493831	0.854492	0.911927
C61	C	0.014837	0.187826	0.245272
C62	C	0.348171	0.521159	0.578606
C63	C	0.681504	0.854492	0.911939
O64	O	0.039085	0.163423	0.269738
O65	O	0.372418	0.496757	0.603072
O66	O	0.705751	0.830090	0.936405
N67	N	0.038327	0.216505	0.216492
N68	N	0.371660	0.549839	0.549826
N69	N	0.704994	0.883172	0.883159
C70	C	0.014895	0.245185	0.187705
C71	C	0.348229	0.578518	0.521038
C72	C	0.681562	0.911851	0.854372
O73	O	0.039181	0.269575	0.163223
O74	O	0.372514	0.602908	0.496556
O75	O	0.705848	0.936242	0.829889
C76	C	-0.172777	0.245181	0.187691
C77	C	0.160556	0.578514	0.521024
C78	C	0.493890	0.911848	0.854358
C79	C	-0.196264	0.216503	0.216476
C80	C	0.137069	0.549836	0.549810
C81	C	0.470403	0.883170	0.883143
C82	C	-0.196323	0.159149	0.274043
C83	C	0.137011	0.492482	0.607376
C84	C	0.470344	0.825815	0.940710
C85	C	-0.243238	0.159150	0.274042
C86	C	0.090095	0.492484	0.607375
C87	C	0.423429	0.825817	0.940708
C88	C	-0.266666	0.187829	0.245257
C89	C	0.066667	0.521162	0.578591
C90	C	0.400000	0.854495	0.911924
C91	C	-0.243179	0.216505	0.216475
C92	C	0.090154	0.549838	0.549808
C93	C	0.423487	0.883171	0.883141
C94	C	-0.196208	0.273858	0.158902
C95	C	0.137126	0.607191	0.492235
C96	C	0.470459	0.940524	0.825568
C97	C	-0.243129	0.273854	0.158900
C98	C	0.090205	0.607187	0.492233
C99	C	0.423538	0.940520	0.825567
C100	C	-0.266616	0.245175	0.187685
C101	C	0.066718	0.578509	0.521019
C102	C	0.400051	0.911842	0.854352
C103	C	-0.313523	0.245185	0.187689
C104	C	0.019810	0.578518	0.521022
C105	C	0.353143	0.911851	0.854356
N106	N	-0.337013	0.216505	0.216469
N107	N	-0.003679	0.549838	0.549803
N108	N	0.329654	0.883172	0.883136
C109	C	-0.313584	0.187827	0.245253
C110	C	0.019749	0.521160	0.578587
C111	C	0.353082	0.854494	0.911920
C112	C	0.113426	0.245185	0.187715
C113	C	0.446759	0.578518	0.521048
C114	C	0.780093	0.911852	0.854381
C115	C	0.160344	0.245186	0.187719
C116	C	0.493677	0.578520	0.521052
C117	C	0.827010	0.911853	0.854385
C118	C	0.160283	0.187827	0.245286
C119	C	0.493616	0.521160	0.578619
C120	C	0.826949	0.854493	0.911952
C121	C	0.113364	0.187828	0.245284
C122	C	0.446697	0.521161	0.578617
C123	C	0.780031	0.854495	0.911950
C124	C	0.089936	0.216505	0.216495
C125	C	0.423270	0.549839	0.549828
C126	C	0.756603	0.883172	0.883162
C127	C	-0.412110	0.187833	0.245248
C128	C	-0.078777	0.521167	0.578582
C129	C	0.254556	0.854500	0.911915
C130	C	-0.459030	0.187839	0.245245
C131	C	-0.125696	0.521172	0.578579
C132	C	0.207637	0.854506	0.911912
C133	C	-0.458965	0.245197	0.187677
C134	C	-0.125631	0.578530	0.521010
C135	C	0.207702	0.911863	0.854344
C136	C	-0.412049	0.245193	0.187681
C137	C	-0.078716	0.578526	0.521015
C138	C	0.254618	0.911860	0.854348
C139	C	-0.388623	0.216508	0.216468
C140	C	-0.055290	0.549841	0.549802
C141	C	0.278044	0.883174	0.883135
O142	O	-0.337799	0.269571	0.163233
O143	O	-0.004466	0.602904	0.496566
O144	O	0.328867	0.936237	0.829899
O145	O	-0.337878	0.163433	0.269725
O146	O	-0.004545	0.496766	0.603058
O147	O	0.328789	0.830100	0.936392
C148	C	-0.125920	0.187823	0.245262
C149	C	0.207413	0.521156	0.578595
C150	C	0.540747	0.854490	0.911929
C151	C	-0.102433	0.216499	0.216479
C152	C	0.230900	0.549833	0.549813
C153	C	0.564234	0.883166	0.883146
C154	C	-0.125861	0.245177	0.187695
C155	C	0.207472	0.578511	0.521029
C156	C	0.540805	0.911844	0.854362
C157	C	-0.055515	0.216501	0.216483
C158	C	0.277818	0.549834	0.549817
C159	C	0.611151	0.883167	0.883150
C160	C	-0.032087	0.187823	0.245267
C161	C	0.301246	0.521156	0.578601
C162	C	0.634580	0.854489	0.911934
C163	C	-0.055576	0.159143	0.274048
C164	C	0.277757	0.492477	0.607381
C165	C	0.611090	0.825810	0.940714
C166	C	-0.102492	0.159145	0.274046
C167	C	0.230842	0.492478	0.607379
C168	C	0.564175	0.825812	0.940713
C169	C	-0.102372	0.273857	0.158915
C170	C	0.230961	0.607190	0.492248
C171	C	0.564295	0.940524	0.825582
C172	C	-0.055456	0.273853	0.158919
C173	C	0.277877	0.607186	0.492253
C174	C	0.611210	0.940520	0.825586
C175	C	-0.032028	0.245175	0.187703
C176	C	0.301305	0.578508	0.521037
C177	C	0.634639	0.911842	0.854370
C178	C	-0.649034	0.333236	0.216457
C179	C	-0.315701	0.666569	0.549790
C180	C	0.017633	0.999902	0.883123
C181	C	-0.649040	0.383170	0.216462
C182	C	-0.315707	0.716504	0.549795
C183	C	0.017626	1.049837	0.883129
C184	C	-0.649119	0.216544	0.333657
C185	C	-0.315785	0.549877	0.666991
C186	C	0.017548	0.883211	1.000324
C187	C	-0.649120	0.216557	0.383592
C188	C	-0.315787	0.549890	0.716925
C189	C	0.017546	0.883224	1.050258
C190	C	0.233707	0.216515	0.216498
C191	C	0.567040	0.549849	0.549831
C192	C	0.900373	0.883182	0.883164
C193	C	0.183772	0.216508	0.216503
C194	C	0.517105	0.549842	0.549836
C195	C	0.850439	0.883175	0.883170
C196	C	-0.649209	0.099335	0.216511
C197	C	-0.315875	0.432668	0.549844
C198	C	0.017458	0.766001	0.883178
C199	C	-0.649249	0.049400	0.216525
C200	C	-0.315915	0.382734	0.549858
C201	C	0.017418	0.716067	0.883191
C202	C	-0.677900	0.692795	0.187792
C203	C	-0.344567	1.026128	0.521126
C204	C	-0.011233	1.359461	0.854459
C205	C	-0.677955	0.880468	0.187810
C206	C	-0.344622	1.213801	0.521143
C207	C	-0.011289	1.547134	0.854476
O208	O	-0.702429	0.904716	0.163416
O209	O	-0.369095	1.238050	0.496750
O210	O	-0.035762	1.571383	0.830083
N211	N	-0.649208	0.903955	0.216513
N212	N	-0.315875	1.237289	0.549846
N213	N	0.017458	1.570622	0.883179
C214	C	-0.620447	0.880522	0.245216
C215	C	-0.287114	1.213855	0.578549
C216	C	0.046219	1.547188	0.911882
O217	O	-0.596000	0.904805	0.269633
O218	O	-0.262667	1.238139	0.602966
O219	O	0.070666	1.571472	0.936300
C220	C	-0.620394	0.692849	0.245200
C221	C	-0.287061	1.026183	0.578533
C222	C	0.046272	1.359516	0.911867
C223	C	-0.649140	0.669364	0.216492
C224	C	-0.315807	1.002698	0.549825
C225	C	0.017526	1.336031	0.883159
C226	C	-0.706644	0.669309	0.159087
C227	C	-0.373311	1.002643	0.492420
C228	C	-0.039977	1.335976	0.825753
C229	C	-0.706628	0.622394	0.159081
C230	C	-0.373295	0.955727	0.492414
C231	C	-0.039961	1.289061	0.825748
C232	C	-0.677868	0.598964	0.187781
C233	C	-0.344535	0.932297	0.521114
C234	C	-0.011202	1.265630	0.854447
C235	C	-0.649124	0.622449	0.216486
C236	C	-0.315791	0.955782	0.549819
C237	C	0.017542	1.289116	0.883153
C238	C	-0.591636	0.669417	0.273905
C239	C	-0.258303	1.002750	0.607238
C240	C	0.075031	1.336083	0.940572
C241	C	-0.591626	0.622496	0.273899
C242	C	-0.258293	0.955829	0.607233
C243	C	0.075041	1.289162	0.940566
C244	C	-0.620372	0.599011	0.245191
C245	C	-0.287039	0.932344	0.578524
C246	C	0.046295	1.265677	0.911858
C247	C	-0.620349	0.552103	0.245180
C248	C	-0.287015	0.885436	0.578513
C249	C	0.046318	1.218770	0.911847
N250	N	-0.649096	0.528616	0.216477
N251	N	-0.315763	0.861949	0.549810
N252	N	0.017571	1.195282	0.883144
C253	C	-0.677856	0.552046	0.187777
C254	C	-0.344522	0.885379	0.521111
C255	C	-0.011189	1.218713	0.854444
C256	C	-0.620476	0.979052	0.245221
C257	C	-0.287143	1.312386	0.578554
C258	C	0.046190	1.645719	0.911888
C259	C	-0.620489	1.025970	0.245224
C260	C	-0.287156	1.359303	0.578558
C261	C	0.046178	1.692637	0.911891
C262	C	-0.677998	1.025913	0.187819
C263	C	-0.344665	1.359246	0.521152
C264	C	-0.011331	1.692580	0.854486
C265	C	-0.677983	0.978994	0.187814
C266	C	-0.344649	1.312328	0.521147
C267	C	-0.011316	1.645661	0.854480
C268	C	-0.649224	0.955565	0.216518
C269	C	-0.315890	1.288898	0.549851
C270	C	0.017443	1.622231	0.883185
C271	C	-0.677820	0.453520	0.187767
C272	C	-0.344487	0.786853	0.521100
C273	C	-0.011153	1.120187	0.854434
C274	C	-0.677800	0.406600	0.187762
C275	C	-0.344467	0.739934	0.521096
C276	C	-0.011133	1.073267	0.854429
C277	C	-0.620293	0.406662	0.245169
C278	C	-0.286960	0.739995	0.578503
C279	C	0.046374	1.073328	0.911836
C280	C	-0.620311	0.453577	0.245172
C281	C	-0.286978	0.786911	0.578506
C282	C	0.046356	1.120244	0.911839
C283	C	-0.649078	0.477005	0.216470
C284	C	-0.315745	0.810339	0.549803
C285	C	0.017589	1.143672	0.883136
O286	O	-0.595892	0.527825	0.269564
O287	O	-0.262559	0.861159	0.602897
O288	O	0.070775	1.194492	0.936231
O289	O	-0.702306	0.527754	0.163370
O290	O	-0.368972	0.861087	0.496704
O291	O	-0.035639	1.194421	0.830037
C292	C	-0.677916	0.739710	0.187798
C293	C	-0.344583	1.073043	0.521131
C294	C	-0.011249	1.406377	0.854465
C295	C	-0.649172	0.763195	0.216504
C296	C	-0.315839	1.096529	0.549837
C297	C	0.017495	1.429862	0.883170
C298	C	-0.620412	0.739765	0.245203
C299	C	-0.287079	1.073098	0.578537
C300	C	0.046254	1.406432	0.911870
C301	C	-0.649185	0.810113	0.216507
C302	C	-0.315851	1.143446	0.549840
C303	C	0.017482	1.476780	0.883174
C304	C	-0.677944	0.833543	0.187807
C305	C	-0.344611	1.166877	0.521141
C306	C	-0.011278	1.500210	0.854474
C307	C	-0.706692	0.810056	0.159104
C308	C	-0.373358	1.143389	0.492437
C309	C	-0.040025	1.476723	0.825771
C310	C	-0.706676	0.763140	0.159098
C311	C	-0.373342	1.096474	0.492432
C312	C	-0.040009	1.429807	0.825765
C313	C	-0.591665	0.763252	0.273906
C314	C	-0.258332	1.096586	0.607240
C315	C	0.075002	1.429919	0.940573
C316	C	-0.591683	0.810168	0.273909
C317	C	-0.258350	1.143501	0.607243
C318	C	0.074984	1.476835	0.940576
C319	C	-0.620443	0.833598	0.245210
C320	C	-0.287109	1.166932	0.578543
C321	C	0.046224	1.500265	0.911876
C322	C	-0.620358	0.245254	0.740166
C323	C	-0.287025	0.578588	1.073499
C324	C	0.046308	0.911921	1.406833
C325	C	-0.620361	0.245270	0.552493
C326	C	-0.287028	0.578604	0.885826
C327	C	0.046305	0.911937	1.219160
O328	O	-0.595896	0.269692	0.528218
O329	O	-0.262563	0.603025	0.861551
O330	O	0.070770	0.936359	1.194884
N331	N	-0.649115	0.216543	0.529037
N332	N	-0.315782	0.549877	0.862370
N333	N	0.017551	0.883210	1.195703
C334	C	-0.677868	0.187808	0.552502
C335	C	-0.344535	0.521141	0.885835
C336	C	-0.011202	0.854475	1.219168
O337	O	-0.702322	0.163371	0.528245
O338	O	-0.368989	0.496704	0.861578
O339	O	-0.035655	0.830038	1.194911
C340	C	-0.677863	0.187790	0.740174
C341	C	-0.344529	0.521124	1.073507
C342	C	-0.011196	0.854457	1.406841
C343	C	-0.649110	0.216522	0.763628
C344	C	-0.315777	0.549856	1.096961
C345	C	0.017556	0.883189	1.430294
C346	C	-0.591608	0.273984	0.763620
C347	C	-0.258275	0.607317	1.096953
C348	C	0.075059	0.940651	1.430286
C349	C	-0.591609	0.273981	0.810535
C350	C	-0.258276	0.607315	1.143869
C351	C	0.075058	0.940648	1.477202
C352	C	-0.620361	0.245249	0.833997
C353	C	-0.287028	0.578583	1.167330
C354	C	0.046306	0.911916	1.500664
C355	C	-0.649111	0.216520	0.810543
C356	C	-0.315778	0.549853	1.143876
C357	C	0.017555	0.883187	1.477210
C358	C	-0.706613	0.159053	0.763638
C359	C	-0.373280	0.492386	1.096971
C360	C	-0.039947	0.825720	1.430305
C361	C	-0.706608	0.159050	0.810559
C362	C	-0.373275	0.492384	1.143892
C363	C	-0.039942	0.825717	1.477226
C364	C	-0.677856	0.187783	0.834013
C365	C	-0.344523	0.521116	1.167346
C366	C	-0.011189	0.854449	1.500679
C367	C	-0.677865	0.187785	0.880920
C368	C	-0.344531	0.521119	1.214254
C369	C	-0.011198	0.854452	1.547587
N370	N	-0.649111	0.216512	0.904376
N371	N	-0.315777	0.549846	1.237710
N372	N	0.017556	0.883179	1.571043
C373	C	-0.620359	0.245244	0.880915
C374	C	-0.287026	0.578578	1.214248
C375	C	0.046308	0.911911	1.547581
C376	C	-0.677870	0.187820	0.453971
C377	C	-0.344537	0.521153	0.787304
C378	C	-0.011203	0.854487	1.120638
C379	C	-0.677872	0.187825	0.407053
C380	C	-0.344539	0.521158	0.740387
C381	C	-0.011205	0.854492	1.073720
C382	C	-0.620364	0.245287	0.407048
C383	C	-0.287031	0.578620	0.740381
C384	C	0.046302	0.911954	1.073714
C385	C	-0.620365	0.245284	0.453966
C386	C	-0.287032	0.578617	0.787300
C387	C	0.046302	0.911951	1.120633
C388	C	-0.649116	0.216547	0.477427
C389	C	-0.315783	0.549881	0.810761
C390	C	0.017551	0.883214	1.144094
C391	C	-0.620364	0.245237	0.979441
C392	C	-0.287031	0.578571	1.312774
C393	C	0.046303	0.911904	1.646107
C394	C	-0.620369	0.245233	1.026360
C395	C	-0.287036	0.578567	1.359694
C396	C	0.046298	0.911900	1.693027
C397	C	-0.677875	0.187770	1.026362
C398	C	-0.344541	0.521103	1.359695
C399	C	-0.011208	0.854437	1.693028
C400	C	-0.677872	0.187775	0.979446
C401	C	-0.344538	0.521109	1.312779
C402	C	-0.011205	0.854442	1.646113
C403	C	-0.649112	0.216510	0.955987
C404	C	-0.315779	0.549844	1.289320
C405	C	0.017554	0.883177	1.622653
O406	O	-0.702313	0.163373	0.905225
O407	O	-0.368980	0.496706	1.238558
O408	O	-0.035646	0.830040	1.571891
O409	O	-0.595902	0.269671	0.905180
O410	O	-0.262568	0.603004	1.238513
O411	O	0.070765	0.936337	1.571847
C412	C	-0.620357	0.245257	0.693251
C413	C	-0.287024	0.578590	1.026584
C414	C	0.046310	0.911924	1.359917
C415	C	-0.649108	0.216528	0.669797
C416	C	-0.315774	0.549861	1.003130
C417	C	0.017559	0.883194	1.336463
C418	C	-0.677859	0.187795	0.693258
C419	C	-0.344526	0.521129	1.026592
C420	C	-0.011193	0.854462	1.359925
C421	C	-0.649110	0.216532	0.622879
C422	C	-0.315776	0.549866	0.956212
C423	C	0.017557	0.883199	1.289546
C424	C	-0.620358	0.245265	0.599417
C425	C	-0.287025	0.578598	0.932751
C426	C	0.046309	0.911931	1.266084
C427	C	-0.591604	0.273992	0.622873
C428	C	-0.258271	0.607325	0.956207
C429	C	0.075063	0.940658	1.289540
C430	C	-0.591605	0.273989	0.669789
C431	C	-0.258272	0.607322	1.003122
C432	C	0.075061	0.940656	1.336456
C433	C	-0.706613	0.159068	0.669802
C434	C	-0.373280	0.492402	1.003136
C435	C	-0.039947	0.825735	1.336469
C436	C	-0.706610	0.159074	0.622887
C437	C	-0.373277	0.492407	0.956220
C438	C	-0.039943	0.825740	1.289553
C439	C	-0.677858	0.187806	0.599425
C440	C	-0.344525	0.521139	0.932758
C441	C	-0.011192	0.854472	1.266092
C442	C	-0.649112	0.216498	1.099756
C443	C	-0.315778	0.549831	1.433090
C444	C	0.017555	0.883165	1.766423
C445	C	-0.649121	0.216501	1.049822
C446	C	-0.315788	0.549835	1.383155
C447	C	0.017546	0.883168	1.716489
H448	H	-0.262201	0.297206	0.135456
H449	H	0.071132	0.630539	0.468789
H450	H	0.404466	0.963873	0.802122
H451	H	-0.568226	0.688530	0.297280
H452	H	-0.234892	1.021864	0.630613
H453	H	0.098441	1.355197	0.963947
H454	H	-0.568207	0.603422	0.297275
H455	H	-0.234874	0.936755	0.630609
H456	H	0.098459	1.270088	0.963942
H457	H	-0.177092	0.297210	0.135461
H458	H	0.156241	0.630544	0.468795
H459	H	0.489574	0.963877	0.802128
O460	O	-0.737625	0.128083	0.597591
O461	O	-0.404291	0.461416	0.930925
O462	O	-0.070958	0.794750	1.264258
H463	H	-0.757613	0.108102	0.621793
H464	H	-0.424280	0.441436	0.955126
H465	H	-0.090947	0.774769	1.288460
H466	H	0.179366	0.164476	0.268723
H467	H	0.512699	0.497810	0.602057
H468	H	0.846033	0.831143	0.935390
H469	H	-0.392925	0.268550	0.164247
H470	H	-0.059592	0.601884	0.497580
H471	H	0.273742	0.935217	0.830914
H472	H	0.094356	0.268539	0.164270
H473	H	0.427689	0.601872	0.497604
H474	H	0.761022	0.935206	0.830937
H475	H	-0.478048	0.268547	0.164243
H476	H	-0.144715	0.601880	0.497576
H477	H	0.188618	0.935213	0.830909
O478	O	-0.737639	0.597066	0.128124
O479	O	-0.404306	0.930399	0.461457
O480	O	-0.070972	1.263732	0.794790
H481	H	-0.757642	0.621247	0.108175
H482	H	-0.424308	0.954580	0.441508
H483	H	-0.090975	1.287914	0.774842
H484	H	-0.730083	0.744022	0.135722
H485	H	-0.396750	1.077356	0.469055
H486	H	-0.063417	1.410689	0.802388
H487	H	-0.597056	0.959979	0.268596
H488	H	-0.263723	1.293312	0.601930
H489	H	0.069611	1.626646	0.935263
H490	H	-0.036493	0.135794	0.297486
H491	H	0.296841	0.469127	0.630820
H492	H	0.630174	0.802461	0.964153
H493	H	-0.596942	0.268632	0.960346
H494	H	-0.263608	0.601965	1.293679
H495	H	0.069725	0.935299	1.627012
O496	O	-0.589476	1.051295	0.276183
O497	O	-0.256143	1.384629	0.609516
O498	O	0.077190	1.717962	0.942849
H499	H	-0.594310	1.087858	0.271364
H500	H	-0.260977	1.421191	0.604697
H501	H	0.072357	1.754524	0.938030
H502	H	-0.730027	0.135657	0.744550
H503	H	-0.396694	0.468990	1.077883
H504	H	-0.063360	0.802323	1.411217
O505	O	-0.708995	0.953669	0.156855
O506	O	-0.375662	1.287003	0.490188
O507	O	-0.042328	1.620336	0.823522
H508	H	-0.731830	0.932271	0.176987
H509	H	-0.398496	1.265604	0.510320
H510	H	-0.065163	1.598937	0.843653
O511	O	-0.268565	0.128209	0.305081
O512	O	0.064769	0.461542	0.638415
O513	O	0.398102	0.794875	0.971748
H514	H	-0.259559	0.135971	0.340327
H515	H	0.073775	0.469304	0.673661
H516	H	0.407108	0.802637	1.006994
O517	O	-0.560586	0.304975	0.738327
O518	O	-0.227253	0.638309	1.071661
O519	O	0.106080	0.971642	1.404994
H520	H	-0.580668	0.327840	0.716955
H521	H	-0.247334	0.661173	1.050289
H522	H	0.085999	0.994507	1.383622
H523	H	-0.177252	0.135793	0.297483
H524	H	0.156081	0.469126	0.630816
H525	H	0.489414	0.802460	0.964149
H526	H	-0.701415	1.044998	0.164451
H527	H	-0.368082	1.378331	0.497784
H528	H	-0.034749	1.711664	0.831117
H529	H	-0.121611	0.135792	0.297486
H530	H	0.211723	0.469125	0.630819
H531	H	0.545056	0.802459	0.964153
H532	H	-0.730066	0.688381	0.135716
H533	H	-0.396733	1.021715	0.469049
H534	H	-0.063399	1.355048	0.802382
H535	H	-0.568271	0.829286	0.297287
H536	H	-0.234937	1.162619	0.630620
H537	H	0.098396	1.495952	0.963953
H538	H	0.094244	0.164475	0.268722
H539	H	0.427577	0.497808	0.602056
H540	H	0.760911	0.831141	0.935389
O541	O	-0.589307	0.478912	0.276134
O542	O	-0.255973	0.812246	0.609467
O543	O	0.077360	1.145579	0.942800
H544	H	-0.569307	0.454735	0.296091
H545	H	-0.235974	0.788069	0.629424
H546	H	0.097359	1.121402	0.962757
H547	H	-0.121442	0.297210	0.135474
H548	H	0.211891	0.630543	0.468808
H549	H	0.545224	0.963877	0.802141
H550	H	0.179463	0.268544	0.164284
H551	H	0.512796	0.601877	0.497617
H552	H	0.846130	0.935211	0.830951
O553	O	-0.030125	0.304784	0.127867
O554	O	0.303208	0.638117	0.461201
O555	O	0.636541	0.971450	0.794534
H556	H	-0.054303	0.324719	0.107849
H557	H	0.279030	0.658053	0.441183
H558	H	0.612363	0.991386	0.774516
O559	O	-0.708809	0.381269	0.156801
O560	O	-0.375476	0.714602	0.490134
O561	O	-0.042142	1.047936	0.823468
H562	H	-0.728813	0.405447	0.136850
H563	H	-0.395480	0.738780	0.470184
H564	H	-0.062147	1.072114	0.803517
H565	H	-0.701246	0.472590	0.164395
H566	H	-0.367912	0.805923	0.497729
H567	H	-0.034579	1.139256	0.831062
O568	O	-0.560633	0.737989	0.304856
O569	O	-0.227300	1.071323	0.638189
O570	O	0.106034	1.404656	0.971523
H571	H	-0.568304	0.746985	0.340125
H572	H	-0.234971	1.080319	0.673458
H573	H	0.098363	1.413652	1.006791
O574	O	-0.589276	0.381387	0.276126
O575	O	-0.255943	0.714720	0.609459
O576	O	0.077391	1.048054	0.942792
H577	H	-0.594102	0.344817	0.271300
H578	H	-0.260768	0.678150	0.604634
H579	H	0.072565	1.011484	0.937967
O580	O	-0.737721	0.835331	0.128157
O581	O	-0.404388	1.168664	0.461491
O582	O	-0.071055	1.501997	0.794824
H583	H	-0.732905	0.871900	0.132993
H584	H	-0.399571	1.205234	0.466326
H585	H	-0.066238	1.538567	0.799660
H586	H	-0.596955	0.268632	1.045454
H587	H	-0.263622	0.601966	1.378787
H588	H	0.069712	0.935299	1.712121
O589	O	-0.560590	0.304964	0.835830
O590	O	-0.227257	0.638297	1.169163
O591	O	0.106077	0.971630	1.502496
H592	H	-0.540595	0.324936	0.811627
H593	H	-0.207262	0.658269	1.144960
H594	H	0.126071	0.991603	1.478293
H595	H	-0.596952	0.268680	0.473059
H596	H	-0.263618	0.602013	0.806393
H597	H	0.069715	0.935346	1.139726
H598	H	-0.393042	0.164474	0.268688
H599	H	-0.059709	0.497807	0.602021
H600	H	0.273624	0.831140	0.935355
H601	H	-0.701285	0.164379	1.045473
H602	H	-0.367952	0.497712	1.378806
H603	H	-0.034619	0.831045	1.712139
O604	O	-0.560591	0.304977	0.695082
O605	O	-0.227258	0.638311	1.028415
O606	O	0.106076	0.971644	1.361748
H607	H	-0.537750	0.284869	0.716453
H608	H	-0.204417	0.618202	1.049786
H609	H	0.128917	0.951535	1.383119
O610	O	-0.589348	0.276274	0.381739
O611	O	-0.256015	0.609607	0.715073
O612	O	0.077319	0.942941	1.048406
H613	H	-0.594180	0.271444	0.345175
H614	H	-0.260846	0.604777	0.678508
H615	H	0.072487	0.938111	1.011842
O616	O	-0.708888	0.156840	0.381758
O617	O	-0.375554	0.490174	0.715091
O618	O	-0.042221	0.823507	1.048425
H619	H	-0.728876	0.136859	0.405959
H620	H	-0.395542	0.470193	0.739293
H621	H	-0.062209	0.803526	1.072626
H622	H	-0.701285	0.164419	0.473069
H623	H	-0.367951	0.497752	0.806402
H624	H	-0.034618	0.831085	1.139735
O625	O	-0.708883	0.156788	0.954145
O626	O	-0.375550	0.490121	1.287478
O627	O	-0.042216	0.823455	1.620812
H628	H	-0.728874	0.136807	0.978344
H629	H	-0.395541	0.470141	1.311677
H630	H	-0.062208	0.803474	1.645010
H631	H	-0.730020	0.135647	0.829658
H632	H	-0.396686	0.468980	1.162992
H633	H	-0.063353	0.802314	1.496325
H634	H	-0.568195	0.297388	0.603763
H635	H	-0.234862	0.630721	0.937096
H636	H	0.098472	0.964055	1.270429
O637	O	-0.737629	0.128081	0.695105
O638	O	-0.404296	0.461414	1.028438
O639	O	-0.070962	0.794747	1.361772
H640	H	-0.757623	0.108111	0.670908
H641	H	-0.424290	0.441444	1.004241
H642	H	-0.090957	0.774778	1.337575
H643	H	-0.478151	0.164485	0.268687
H644	H	-0.144818	0.497819	0.602021
H645	H	0.188516	0.831152	0.935354
