data_functionalizedCrystal
_audit_creation_method	'MofGen! by Chris Wilmer'
_symmetry_space_group_name_H-M	'P1'
_symmetry_Int_Tables_number	1
_symmetry_cell_setting	triclinic
loop_
_symmetry_equiv_pos_as_xyz
  x,y,z
_cell_length_a	14.908571
_cell_length_b	15.297327
_cell_length_c	15.299447
_cell_angle_alpha	88.407023
_cell_angle_beta	103.494345
_cell_angle_gamma	96.991395
loop_
_atom_site_label
_atom_site_type_symbol
_atom_site_fract_x
_atom_site_fract_y
_atom_site_fract_z
Zn1	Zn	1.434649	-0.329596	0.649770
Zn2	Zn	1.934649	0.170404	1.149770
Zn3	Zn	1.383646	-0.499074	0.525279
Zn4	Zn	1.883646	0.000926	1.025279
Zn5	Zn	1.253428	-0.346567	0.491415
Zn6	Zn	1.753428	0.153433	0.991415
Zn7	Zn	1.262200	-0.468033	0.663733
Zn8	Zn	1.762200	0.031967	1.163733
O9	O	1.333481	-0.410818	0.582550
O10	O	1.833481	0.089182	1.082550
O11	O	1.554551	-0.357967	0.641585
O12	O	2.054551	0.142033	1.141585
O13	O	1.341356	-0.498937	0.396571
O14	O	1.841356	0.001063	0.896571
O15	O	1.295141	-0.222555	0.492406
O16	O	1.795141	0.277445	0.992406
O17	O	1.517080	-0.482481	0.550122
O18	O	2.017080	0.017519	1.050122
O19	O	1.428284	-0.210087	0.608749
O20	O	1.928284	0.289913	1.108749
O21	O	1.245685	-0.386891	0.371692
O22	O	1.745685	0.113109	0.871692
O23	O	1.127924	-0.356791	0.505945
O24	O	1.627924	0.143209	1.005945
O25	O	1.310092	-0.429575	0.786097
O26	O	1.810092	0.070425	1.286097
O27	O	1.134369	-0.446031	0.632546
O28	O	1.634369	0.053969	1.132546
O29	O	1.436790	-0.327867	0.775838
O30	O	1.936790	0.172133	1.275838
O31	O	1.349862	-0.616717	0.563661
O32	O	1.849862	-0.116717	1.063661
O33	O	1.260637	-0.593911	0.665383
O34	O	1.760637	-0.093911	1.165383
C35	C	1.098303	-0.399885	0.567087
C36	C	1.598303	0.100115	1.067087
C37	C	0.997694	-0.395226	0.560496
C38	C	1.497694	0.104774	1.060496
C39	C	0.815343	-0.479593	0.679818
C40	C	1.315343	0.020407	1.179818
C41	C	0.720812	-0.475217	0.673629
C42	C	1.220812	0.024783	1.173629
C43	C	0.714101	-0.382094	0.541934
C44	C	1.214101	0.117906	1.041934
C45	C	0.808632	-0.386470	0.548123
C46	C	1.308632	0.113530	1.048123
C47	C	0.859249	-0.435222	0.617066
C48	C	1.359249	0.064778	1.117066
C49	C	0.953780	-0.439602	0.623251
C50	C	1.453780	0.060398	1.123251
C51	C	0.947069	-0.346474	0.491560
C52	C	1.447069	0.153526	0.991560
C53	C	0.852538	-0.342098	0.485372
C54	C	1.352538	0.157902	0.985372
C55	C	1.300695	-0.636883	0.619733
C56	C	1.800695	-0.136883	1.119733
C57	C	1.286758	-0.733594	0.635675
C58	C	1.786758	-0.233594	1.135675
C59	C	1.433525	-1.053561	0.468936
C60	C	1.933525	-0.553561	0.968936
C61	C	1.446618	-0.962697	0.453953
C62	C	1.946618	-0.462697	0.953953
C63	C	1.406654	-0.905417	0.499382
C64	C	1.906654	-0.405417	0.999382
C65	C	1.353595	-0.939010	0.559797
C66	C	1.853595	-0.439010	1.059797
C67	C	1.340495	-1.029883	0.574776
C68	C	1.840495	-0.529883	1.074776
C69	C	1.313624	-0.881739	0.605222
C70	C	1.813624	-0.381739	1.105222
C71	C	1.260565	-0.915332	0.665637
C72	C	1.760565	-0.415332	1.165637
C73	C	1.247467	-1.006196	0.680614
C74	C	1.747467	-0.506196	1.180614
C75	C	1.287431	-1.063477	0.635185
C76	C	1.787431	-0.563477	1.135185
C77	C	1.326725	-0.790866	0.590243
C78	C	1.826725	-0.290866	1.090243
C79	C	1.233695	-0.767188	0.696083
C80	C	1.733695	-0.267188	1.196083
C81	C	1.220602	-0.858052	0.711066
C82	C	1.720602	-0.358052	1.211066
C83	C	1.569577	-0.421793	0.598073
C84	C	2.069577	0.078207	1.098073
C85	C	1.670187	-0.426471	0.604689
C86	C	2.170187	0.073529	1.104689
C87	C	1.380109	-0.373365	0.814076
C88	C	1.880109	0.126635	1.314076
C89	C	1.399979	-0.357406	0.912739
C90	C	1.899979	0.142594	1.412739
C91	C	1.366423	-0.183867	0.545242
C92	C	1.866423	0.316133	1.045242
C93	C	1.380461	-0.087154	0.529344
C94	C	1.880461	0.412846	1.029344
C95	C	1.287095	-0.448064	0.351917
C96	C	1.787095	0.051936	0.851917
C97	C	1.267436	-0.463787	0.253226
C98	C	1.767436	0.036213	0.753226
C99	C	1.192132	-0.524237	1.212217
C100	C	1.692132	-0.024237	1.712217
C101	C	1.173455	-0.539227	1.119517
C102	C	1.673455	-0.039227	1.619517
C103	C	1.230084	-0.493773	1.067818
C104	C	1.730084	0.006227	1.567818
C105	C	1.305394	-0.433326	1.108828
C106	C	1.805394	0.066674	1.608828
C107	C	1.324069	-0.418329	1.201536
C108	C	1.824069	0.081671	1.701536
C109	C	1.362021	-0.387866	1.057137
C110	C	1.862021	0.112134	1.557137
C111	C	1.437331	-0.327419	1.098146
C112	C	1.937331	0.172581	1.598146
C113	C	1.456002	-0.312425	1.190845
C114	C	1.956002	0.187575	1.690845
C115	C	1.399373	-0.357879	1.242544
C116	C	1.899373	0.142121	1.742544
C117	C	1.343346	-0.402863	0.964429
C118	C	1.843346	0.097137	1.464429
C119	C	1.475283	-0.296955	0.953747
C120	C	1.975283	0.203045	1.453747
C121	C	1.493960	-0.281965	1.046447
C122	C	1.993960	0.218035	1.546447
H123	H	0.811314	-0.302403	0.429242
H124	H	1.311314	0.197597	0.929242
H125	H	1.276776	-1.137466	0.647383
H126	H	1.776776	-0.637466	1.147383
H127	H	1.146030	-0.561236	1.254318
H128	H	1.646030	-0.061236	1.754318
H129	H	1.177400	-0.885416	0.760257
H130	H	1.677400	-0.385416	1.260257
H131	H	1.214874	-0.505983	0.992338
H132	H	1.714874	-0.005983	1.492338
H133	H	1.555278	-0.232748	1.079850
H134	H	2.055278	0.267252	1.579850
H135	H	0.994991	-0.479301	0.679387
H136	H	1.494991	0.020699	1.179387
Cl137	Cl	1.423412	-0.791159	0.480805
Cl138	Cl	1.923412	-0.291159	0.980805
Cl139	Cl	1.483755	-1.125572	0.411830
Cl140	Cl	1.983755	-0.625572	0.911830
Cl141	Cl	1.180759	-1.048426	0.756560
Cl142	Cl	1.680759	-0.548426	1.256560
Cl143	Cl	0.878976	-0.540890	0.766479
Cl144	Cl	1.378976	-0.040890	1.266479
Cl145	Cl	1.546483	-0.239814	0.888762
Cl146	Cl	2.046483	0.260186	1.388762
H147	H	1.112144	-0.588450	1.086136
H148	H	1.612144	-0.088450	1.586136
Cl149	Cl	0.665619	-0.530999	0.752521
Cl150	Cl	1.165619	-0.030999	1.252521
H151	H	0.672874	-0.342396	0.485809
H152	H	1.172874	0.157604	0.985809
Cl153	Cl	1.422854	-0.339042	1.359088
Cl154	Cl	1.922854	0.160958	1.859088
H155	H	1.369926	-0.763523	0.541053
H156	H	1.869926	-0.263523	1.041053
Cl157	Cl	1.002268	-0.290699	0.412662
Cl158	Cl	1.502268	0.209301	0.912662
Cl159	Cl	1.513328	-0.920471	0.378016
Cl160	Cl	2.013328	-0.420471	0.878016
Cl161	Cl	1.248676	-0.478852	0.912886
Cl162	Cl	1.748676	0.021148	1.412886
Cl163	Cl	1.183445	-0.695185	0.753192
Cl164	Cl	1.683445	-0.195185	1.253192
H165	H	1.517320	-0.263199	1.224231
H166	H	2.017320	0.236801	1.724231
