data_functionalizedCrystal
_audit_creation_method	'MofGen! by Chris Wilmer'
_symmetry_space_group_name_H-M	'P1'
_symmetry_Int_Tables_number	1
_symmetry_cell_setting	triclinic
loop_
_symmetry_equiv_pos_as_xyz
  x,y,z
_cell_length_a	14.044209
_cell_length_b	15.021413
_cell_length_c	14.044220
_cell_angle_alpha	90.003392
_cell_angle_beta	93.188415
_cell_angle_gamma	89.997521
loop_
_atom_site_label
_atom_site_type_symbol
_atom_site_fract_x
_atom_site_fract_y
_atom_site_fract_z
O1	O	-1.277173	0.073928	-0.230145
O2	O	-1.000501	0.073953	-0.221841
O3	O	-1.134684	0.073932	-0.087657
O4	O	-1.142990	0.073949	-0.364329
O5	O	-1.134663	-0.074132	-0.087676
O6	O	-1.000480	-0.074111	-0.221860
O7	O	-1.277151	-0.074136	-0.230164
Zn8	Zn	-1.138812	-0.097632	-0.226015
Zn9	Zn	-1.138840	0.097449	-0.225990
O10	O	-1.142968	-0.074115	-0.364348
C11	C	-0.964868	-0.000076	-0.218216
C12	C	-0.858726	-0.000066	-0.207372
C13	C	-0.664388	-0.000083	-0.187547
C14	C	-0.613258	-0.000082	-0.264462
C15	C	-0.505122	-0.000091	-0.253431
C16	C	-0.772534	-0.000074	-0.198576
N17	N	-1.138799	-0.230770	-0.226032
C18	C	-1.076740	-0.470443	-0.288046
C19	C	-1.164574	-0.529784	-0.313869
C20	C	-1.138822	-0.412377	-0.226010
C21	C	-1.051013	-0.529777	-0.200211
C22	C	-1.138836	-0.587801	-0.225991
C23	C	-1.226703	-0.470411	-0.251880
C24	C	-1.113082	-0.470399	-0.138179
C25	C	-1.200975	-0.529713	-0.163971
C26	C	-1.138813	-0.311319	-0.226024
C27	C	-1.138855	-0.688856	-0.225977
C28	C	-0.312784	-0.000103	-0.233792
C29	C	-0.418926	-0.000099	-0.244642
C30	C	-1.131038	-0.000100	-0.052045
C31	C	-1.120193	-0.000100	0.054097
N32	N	-1.138860	0.230586	-0.225966
C33	C	-1.146615	-0.000081	-0.399960
C34	C	-1.157459	-0.000075	-0.506103
C35	C	-1.100367	-0.000086	0.248435
C36	C	-1.177281	-0.000090	0.299566
C37	C	-1.166250	-0.000082	0.407702
C38	C	-1.111397	-0.000094	0.140289
H39	H	-0.626951	-0.000092	-0.113420
H40	H	-0.976748	-0.555857	-0.178399
H41	H	-0.650697	-0.000073	-0.338595
H42	H	-1.024302	-0.444419	-0.340559
O43	O	-1.190407	-0.560869	-0.402522
C44	C	-1.124779	-0.530660	-0.467723
H45	H	-1.054148	-0.514007	-0.427763
H46	H	-1.112903	-0.584977	-0.522503
H47	H	-1.154215	-0.468570	-0.505625
H48	H	-1.300991	-0.444444	-0.273781
O49	O	-1.263817	-0.560532	-0.101488
C50	C	-1.356254	-0.530100	-0.129016
H51	H	-1.360251	-0.513541	-0.208352
H52	H	-1.410447	-0.584245	-0.114510
H53	H	-1.372813	-0.467906	-0.086447
H54	H	-1.091273	-0.444294	-0.063931
O55	O	-1.265655	-0.000146	0.254758
C56	C	-1.257142	-0.000131	0.155199
H57	H	-1.184575	-0.028150	0.138234
H58	H	-1.315884	-0.043131	0.119781
H59	H	-1.264086	0.070900	0.127077
O60	O	-1.012000	-0.000121	0.293241
C61	C	-1.020521	-0.000095	0.392799
H62	H	-1.093083	-0.028124	0.409758
H63	H	-0.961770	-0.043081	0.428224
H64	H	-1.013600	0.070940	0.420920
