data_functionalizedCrystal
_audit_creation_method	'MofGen! by Chris Wilmer'
_symmetry_space_group_name_H-M	'P1'
_symmetry_Int_Tables_number	1
_symmetry_cell_setting	triclinic
loop_
_symmetry_equiv_pos_as_xyz
  x,y,z
_cell_length_a	12.645331
_cell_length_b	12.645330
_cell_length_c	14.908308
_cell_angle_alpha	86.729519
_cell_angle_beta	86.722342
_cell_angle_gamma	90.017906
loop_
_atom_site_label
_atom_site_type_symbol
_atom_site_fract_x
_atom_site_fract_y
_atom_site_fract_z
Zn1	Zn	1.586096	-0.456606	0.510125
Zn2	Zn	2.086096	0.043394	1.010125
Zn3	Zn	1.596219	-0.623669	0.359279
Zn4	Zn	2.096219	-0.123669	0.859279
Zn5	Zn	1.419052	-0.446420	0.359282
Zn6	Zn	1.919052	0.053580	0.859282
Zn7	Zn	1.408795	-0.633826	0.510087
Zn8	Zn	1.908795	-0.133826	1.010087
O9	O	1.502541	-0.540130	0.434693
O10	O	2.002541	-0.040130	0.934693
O11	O	1.735785	-0.478779	0.490129
O12	O	2.235785	0.021221	0.990129
O13	O	1.581247	-0.591642	0.233038
O14	O	2.081247	-0.091642	0.733038
O15	O	1.441267	-0.299426	0.379309
O16	O	1.941267	0.200574	0.879309
O17	O	1.743223	-0.601519	0.379304
O18	O	2.243223	-0.101519	0.879304
O19	O	1.563993	-0.306909	0.490133
O20	O	2.063993	0.193091	0.990133
O21	O	1.451083	-0.461419	0.233040
O22	O	1.951083	0.038581	0.733040
O23	O	1.269345	-0.471268	0.379272
O24	O	1.769345	0.028732	0.879272
O25	O	1.423785	-0.618832	0.636333
O26	O	1.923785	-0.118832	1.136333
O27	O	1.261809	-0.608955	0.490067
O28	O	1.761809	-0.108955	0.990067
O29	O	1.554047	-0.488629	0.636361
O30	O	2.054047	0.011371	1.136361
O31	O	1.571301	-0.773362	0.379266
O32	O	2.071301	-0.273362	0.879266
O33	O	1.433601	-0.780825	0.490064
O34	O	1.933601	-0.280825	0.990064
C35	C	1.227113	-0.540109	0.434666
C36	C	1.727113	-0.040109	0.934666
C37	C	1.109282	-0.540127	0.434676
C38	C	1.609282	-0.040127	0.934676
C39	C	1.069098	-0.453389	0.365089
C40	C	1.569098	0.046611	0.865089
C41	C	0.946522	-0.453102	0.365327
C42	C	1.446522	0.046898	0.865327
C43	C	0.934987	-0.516791	0.529908
C44	C	1.434987	-0.016791	1.029908
C45	C	1.057614	-0.516148	0.529474
C46	C	1.557614	-0.016148	1.029474
C47	C	1.065747	-0.650508	0.409931
C48	C	1.565747	-0.150508	0.909931
C49	C	0.943279	-0.649783	0.407866
C50	C	1.443279	-0.149783	0.907866
C51	C	1.502464	-0.815559	0.434680
C52	C	2.002464	-0.315559	0.934680
C53	C	1.502526	-0.933391	0.434705
C54	C	2.002526	-0.433391	0.934705
C55	C	1.416222	-1.105709	0.504623
C56	C	1.916222	-0.605709	1.004623
C57	C	1.415820	-0.983134	0.504398
C58	C	1.915820	-0.483134	1.004398
C59	C	1.478736	-0.971540	0.339631
C60	C	1.978736	-0.471540	0.839631
C61	C	1.478209	-1.094167	0.340056
C62	C	1.978209	-0.594167	0.840056
C63	C	1.613172	-1.102133	0.459090
C64	C	2.113172	-0.602133	0.959090
C65	C	1.612342	-0.979667	0.461169
C66	C	2.112342	-0.479667	0.961169
C67	C	1.779044	-0.540152	0.434720
C68	C	2.279044	-0.040152	0.934720
C69	C	1.896873	-0.540162	0.434732
C70	C	2.396873	-0.040162	0.934732
C71	C	1.486643	-0.556000	0.669996
C72	C	1.986643	-0.056000	1.169996
C73	C	1.479868	-0.562762	0.770268
C74	C	1.979868	-0.062762	1.270268
C75	C	1.502645	-0.263627	0.434725
C76	C	2.002645	0.236373	0.934725
C77	C	1.502689	-0.145798	0.434739
C78	C	2.002689	0.354202	0.934739
C79	C	1.518438	-0.524246	0.200306
C80	C	2.018438	-0.024246	0.700306
C81	C	1.525418	-0.517185	0.100034
C82	C	2.025418	-0.017185	0.600034
C83	C	1.602776	-0.439865	0.958720
C84	C	2.102776	0.060135	1.458720
C85	C	1.596414	-0.446215	1.052935
C86	C	2.096414	0.053785	1.552935
C87	C	1.460777	-0.581807	1.052913
C88	C	1.960777	-0.081807	1.552913
C89	C	1.467139	-0.575457	0.958698
C90	C	1.967139	-0.075457	1.458698
C91	C	1.538142	-0.504485	0.911605
C92	C	2.038142	-0.004485	1.411605
C93	C	1.544509	-0.498140	0.817389
C94	C	2.044509	0.001860	1.317389
C95	C	1.408867	-0.633726	0.817369
C96	C	1.908867	-0.133726	1.317369
C97	C	1.402505	-0.640076	0.911583
C98	C	1.902505	-0.140076	1.411583
H99	H	0.921169	-0.466925	0.294766
H100	H	1.421169	0.033075	0.794766
H101	H	1.356239	-0.686347	0.778998
H102	H	1.856239	-0.186347	1.278998
H103	H	1.098823	-0.371926	0.381306
H104	H	1.598823	0.128074	0.881306
H105	H	0.916097	-0.371191	0.381761
H106	H	1.416097	0.128809	0.881761
H107	H	1.103308	-0.466981	0.294289
H108	H	1.603308	0.033019	0.794289
H109	H	1.538805	-1.120174	0.286211
H110	H	2.038805	-0.620174	0.786211
H111	H	1.397638	-1.121461	0.319427
H112	H	1.897638	-0.621461	0.819427
H113	H	1.084812	-0.435669	0.550391
H114	H	1.584812	0.064331	1.050391
F115	F	1.434447	-1.150421	0.597072
F116	F	1.934447	-0.650421	1.097072
H117	H	0.902861	-0.437246	0.551200
H118	H	1.402861	0.062754	1.051200
H119	H	1.679640	-0.945817	0.413976
H120	H	2.179640	-0.445817	0.913976
H121	H	1.344694	-0.697858	0.949939
H122	H	1.844694	-0.197858	1.449939
F123	F	1.112142	-0.680052	0.320723
F124	F	1.612142	-0.180052	0.820723
H125	H	1.334691	-1.135530	0.488696
H126	H	1.834691	-0.635530	0.988696
H127	H	1.660595	-0.382082	0.920377
H128	H	2.160595	0.117918	1.420377
F129	F	0.899163	-0.738055	0.469276
F130	F	1.399163	-0.238055	0.969276
H131	H	1.083687	-0.576953	0.583117
H132	H	1.583687	-0.076953	1.083117
H133	H	0.902269	-0.578326	0.583197
H134	H	1.402269	-0.078326	1.083197
H135	H	0.918896	-0.667530	0.337820
H136	H	1.418896	-0.167530	0.837820
H137	H	1.091345	-0.715048	0.460615
H138	H	1.591345	-0.215048	0.960615
H139	H	1.333784	-0.952806	0.488265
H140	H	1.833784	-0.452806	0.988265
H141	H	1.677513	-1.127670	0.408191
H142	H	2.177513	-0.627670	0.908191
H143	H	1.602325	-0.440352	0.779048
H144	H	2.102325	0.059648	1.279048
H145	H	1.402969	-0.639589	1.091272
H146	H	1.902969	-0.139589	1.591272
H147	H	1.429957	-0.957759	0.574895
H148	H	1.929957	-0.457759	1.074895
F149	F	1.558815	-0.928691	0.269711
F150	F	2.058815	-0.428691	0.769711
F151	F	1.643187	-1.148485	0.548167
F152	F	2.143187	-0.648485	1.048167
F153	F	1.374571	-0.929675	0.312180
F154	F	1.874571	-0.429675	0.812180
F155	F	1.665205	-0.377437	1.103075
F156	F	2.165205	0.122563	1.603075
F157	F	1.635949	-0.947766	0.552625
F158	F	2.135949	-0.447766	1.052625
