data_functionalizedCrystal
_audit_creation_method	'MofGen! by Chris Wilmer'
_symmetry_space_group_name_H-M	'P1'
_symmetry_Int_Tables_number	1
_symmetry_cell_setting	triclinic
loop_
_symmetry_equiv_pos_as_xyz
  x,y,z
_cell_length_a	17.019282
_cell_length_b	17.038272
_cell_length_c	14.048226
_cell_angle_alpha	89.993466
_cell_angle_beta	93.874761
_cell_angle_gamma	87.241387
loop_
_atom_site_label
_atom_site_type_symbol
_atom_site_fract_x
_atom_site_fract_y
_atom_site_fract_z
O1	O	1.053361	0.099546	0.007218
O2	O	1.553361	0.599546	0.507218
O3	O	0.824549	0.112259	-0.011547
O4	O	1.324549	0.612259	0.488453
O5	O	0.937595	-0.007912	-0.002269
O6	O	1.437595	0.492088	0.497731
O7	O	0.940315	0.219716	-0.002061
O8	O	1.440315	0.719716	0.497939
O9	O	0.937580	-0.007919	0.156051
O10	O	1.437580	0.492081	0.656051
O11	O	0.824534	0.112252	0.146773
O12	O	1.324534	0.612252	0.646773
O13	O	1.053346	0.099539	0.165538
O14	O	1.553346	0.599539	0.665538
Zn15	Zn	0.938938	0.105894	0.181292
Zn16	Zn	1.438938	0.605894	0.681292
Zn17	Zn	0.938958	0.105903	-0.027301
Zn18	Zn	1.438958	0.605903	0.472699
O19	O	0.940300	0.219709	0.156259
O20	O	1.440300	0.719709	0.656259
C21	C	0.795121	0.111775	0.065200
C22	C	1.295121	0.611775	0.565200
C23	C	0.707454	0.110336	0.058010
C24	C	1.207454	0.610336	0.558010
C25	C	0.666264	0.109654	0.140935
C26	C	1.166264	0.609654	0.640935
C27	C	0.583893	0.108288	0.134182
C28	C	1.083893	0.608288	0.634182
C29	C	0.542712	0.107611	0.044504
C30	C	1.042712	0.607611	0.544504
C31	C	0.583907	0.108291	-0.038427
C32	C	1.083907	0.608291	0.461573
C33	C	0.666278	0.109650	-0.031674
C34	C	1.166278	0.609650	0.468326
C35	C	0.294007	0.103501	0.019795
C36	C	0.794007	0.603501	0.519795
C37	C	0.211631	0.102144	0.013047
C38	C	0.711631	0.602144	0.513047
C39	C	0.211622	0.102140	0.185658
C40	C	0.711622	0.602140	0.685658
C41	C	0.293994	0.103504	0.192403
C42	C	0.793994	0.603504	0.692403
C43	C	0.335182	0.104180	0.109472
C44	C	0.835182	0.604180	0.609472
C45	C	0.458515	0.106218	0.037599
C46	C	0.958515	0.606218	0.537599
C47	C	0.419378	0.105567	0.116378
C48	C	0.919378	0.605567	0.616378
C49	C	0.935114	-0.037041	0.076688
C50	C	1.435114	0.462959	0.576688
C51	C	0.927734	-0.123828	0.076083
C52	C	1.427734	0.376172	0.576083
C53	C	0.995494	-0.174004	0.081641
C54	C	1.495494	0.325996	0.581641
C55	C	0.988554	-0.255548	0.081063
C56	C	1.488554	0.244452	0.581063
C57	C	0.913854	-0.286914	0.074933
C58	C	1.413854	0.213086	0.574933
C59	C	0.846090	-0.236732	0.069372
C60	C	1.346090	0.263268	0.569372
C61	C	0.853030	-0.155189	0.069943
C62	C	1.353030	0.344811	0.569943
C63	C	0.889337	-0.532650	0.072910
C64	C	1.389337	-0.032650	0.572910
C65	C	0.882402	-0.614199	0.072341
C66	C	1.382402	-0.114199	0.572341
C67	C	1.024867	-0.633009	0.084031
C68	C	1.524867	-0.133009	0.584031
C69	C	1.031801	-0.551464	0.084607
C70	C	1.531801	-0.051464	0.584607
C71	C	0.964036	-0.501289	0.079041
C72	C	1.464036	-0.001289	0.579041
C73	C	0.906760	-0.370265	0.074345
C74	C	1.406760	0.129735	0.574345
C75	C	0.971131	-0.417939	0.079622
C76	C	1.471131	0.082061	0.579622
C77	C	1.082775	0.100022	0.088789
C78	C	1.582775	0.600022	0.588789
C79	C	1.170442	0.101462	0.095972
C80	C	1.670442	0.601462	0.595972
C81	C	0.942781	0.248839	0.077300
C82	C	1.442781	0.748839	0.577300
C83	C	0.950162	0.335625	0.077900
C84	C	1.450162	0.835625	0.577900
N85	N	0.938930	0.105887	0.323652
N86	N	1.438930	0.605887	0.823652
N87	N	0.938971	0.105904	-0.169661
N88	N	1.438971	0.605904	0.330339
C89	C	0.989005	0.052698	0.377580
C90	C	1.489005	0.552698	0.877580
C91	C	0.989010	0.052697	0.477238
C92	C	1.489010	0.552697	0.977238
C93	C	0.938944	0.105891	0.522967
C94	C	1.438944	0.605891	1.022967
C95	C	0.888863	0.159083	0.469031
C96	C	1.388863	0.659083	0.969031
C97	C	0.888855	0.159079	0.369375
C98	C	1.388855	0.659079	0.869375
C99	C	0.888887	0.159089	0.676747
C100	C	1.388887	0.659089	1.176747
C101	C	0.888896	0.159094	0.776411
C102	C	1.388896	0.659094	1.276411
C103	C	0.989042	0.052707	0.784611
C104	C	1.489042	0.552707	1.284611
C105	C	0.989033	0.052703	0.684955
C106	C	1.489033	0.552703	1.184955
C107	C	0.938954	0.105896	0.631026
C108	C	1.438954	0.605896	1.131026
H109	H	0.424976	0.105666	-0.035417
H110	H	0.924976	0.605666	0.464583
H111	H	0.821569	-0.639734	0.067365
H112	H	1.321569	-0.139734	0.567365
H113	H	0.452911	0.106115	0.189394
H114	H	0.952911	0.606115	0.689394
O115	O	1.043034	-0.004670	0.635632
O116	O	1.543034	0.495330	1.135632
H117	H	1.007274	-0.042642	0.587310
H118	H	1.507274	0.457358	1.087310
H119	H	0.848103	0.202402	0.632841
H120	H	1.348103	0.702402	1.132841
H121	H	1.080037	-0.673870	0.088561
H122	H	1.580037	-0.173870	0.588561
H123	H	1.029818	0.009395	0.828526
H124	H	1.529818	0.509395	1.328526
H125	H	0.848126	0.202409	0.813637
H126	H	1.348126	0.702409	1.313637
O127	O	0.539501	0.107557	-0.135158
O128	O	1.039501	0.607557	0.364842
H129	H	0.498519	0.160201	-0.142660
H130	H	0.998519	0.660201	0.357340
O131	O	0.167340	0.101506	0.275215
O132	O	0.667340	0.601506	0.775215
H133	H	0.179825	0.155067	0.317464
H134	H	0.679825	0.655067	0.817464
O135	O	0.834867	0.216465	0.518346
O136	O	1.334867	0.716465	1.018346
H137	H	0.794331	0.183585	0.560454
H138	H	1.294331	0.683585	1.060454
O139	O	0.710677	0.110387	0.237662
O140	O	1.210677	0.610387	0.737662
H141	H	0.744736	0.164271	0.244579
H142	H	1.244736	0.664271	0.744579
H143	H	0.178104	0.101594	-0.059983
H144	H	0.678104	0.601594	0.440017
O145	O	0.710710	0.110391	-0.121112
O146	O	1.210710	0.610391	0.378888
H147	H	0.668237	0.109700	-0.184607
H148	H	1.168237	0.609700	0.315393
H149	H	1.056322	-0.148472	0.086638
H150	H	1.556322	0.351528	0.586638
O151	O	1.061637	-0.309669	0.087073
O152	O	1.561637	0.190331	0.587073
H153	H	1.114746	-0.274159	0.091449
H154	H	1.614746	0.225841	0.591449
H155	H	1.029778	0.009384	0.340356
H156	H	1.529778	0.509384	0.840356
O157	O	1.112369	-0.517632	0.091195
O158	O	1.612369	-0.017632	0.591195
H159	H	1.158323	-0.566223	0.094949
H160	H	1.658323	-0.066223	0.594949
H161	H	0.834157	-0.491806	0.068377
H162	H	1.334157	0.008194	0.568377
H163	H	0.848077	0.202390	0.325467
H164	H	1.348077	0.702390	0.825467
H165	H	0.327533	0.104049	-0.047734
H166	H	0.827533	0.604049	0.452266
H167	H	0.785267	-0.262277	0.064375
H168	H	1.285267	0.237723	0.564375
O169	O	0.779947	-0.101065	0.063959
O170	O	1.279947	0.398935	0.563959
H171	H	0.726837	-0.136573	0.059612
H172	H	1.226837	0.363427	0.559612
H173	H	1.031952	-0.392397	0.084592
H174	H	1.531952	0.107603	0.584592
O175	O	0.826193	-0.404102	0.067755
O176	O	1.326193	0.095898	0.567755
H177	H	0.819631	-0.440803	0.002692
H178	H	1.319631	0.059197	0.502692
H179	H	0.550361	0.107720	0.201709
H180	H	1.050361	0.607720	0.701709
O181	O	1.043034	-0.004657	0.535409
O182	O	1.543034	0.495343	1.035409
H183	H	1.077859	-0.041635	0.486870
H184	H	1.577859	0.458365	0.986870
H185	H	0.327518	0.104052	0.265429
H186	H	0.827518	0.604052	0.765429
