data_functionalizedCrystal
_audit_creation_method	'MofGen! by Chris Wilmer'
_symmetry_space_group_name_H-M	'P1'
_symmetry_Int_Tables_number	1
_symmetry_cell_setting	triclinic
loop_
_symmetry_equiv_pos_as_xyz
  x,y,z
_cell_length_a	19.288840
_cell_length_b	16.109301
_cell_length_c	17.766277
_cell_angle_alpha	89.993364
_cell_angle_beta	89.983379
_cell_angle_gamma	83.293748
loop_
_atom_site_label
_atom_site_type_symbol
_atom_site_fract_x
_atom_site_fract_y
_atom_site_fract_z
O1	O	0.921612	0.103615	-0.062722
O2	O	0.719382	0.117628	-0.062697
O3	O	0.826052	-0.010429	-0.062702
O4	O	0.814941	0.231672	-0.062716
O5	O	0.826033	-0.010432	0.062486
O6	O	0.719363	0.117625	0.062492
O7	O	0.921593	0.103612	0.062466
Cu8	Cu	0.820476	0.110618	0.073910
Cu9	Cu	0.820499	0.110622	-0.074140
O10	O	0.814922	0.231669	0.062472
C11	C	0.693495	0.117179	-0.000099
C12	C	0.616387	0.115836	-0.000089
C13	C	0.580192	0.115193	-0.068331
C14	C	0.507742	0.113921	-0.068340
C15	C	0.471492	0.113277	-0.000103
C16	C	0.507695	0.113925	0.068148
C17	C	0.580142	0.115204	0.068155
C18	C	0.362035	0.062550	0.052168
C19	C	0.289589	0.061266	0.052158
C20	C	0.248039	0.109334	-0.000123
C21	C	0.278944	0.158676	-0.052406
C22	C	0.351392	0.159956	-0.052399
C23	C	0.392934	0.111890	-0.000103
C24	C	0.133285	0.107313	-0.068379
C25	C	0.060834	0.106047	-0.068386
C26	C	0.060788	0.106042	0.068104
C27	C	0.133238	0.107317	0.068109
C28	C	0.169482	0.107948	-0.000135
C29	C	0.825593	-0.041404	-0.000108
C30	C	0.824243	-0.133694	-0.000107
C31	C	0.884402	-0.356179	-0.000126
C32	C	0.883129	-0.442895	-0.000132
C33	C	0.756568	-0.422574	-0.000113
C34	C	0.757842	-0.335860	-0.000112
C35	C	0.821761	-0.302665	-0.000115
C36	C	0.819214	-0.476095	-0.000122
C37	C	0.817833	-0.570116	-0.000128
C38	C	0.823142	-0.208638	-0.000110
C39	C	0.947480	0.104061	-0.000133
C40	C	1.024588	0.105404	-0.000148
C41	C	0.815382	0.262644	-0.000124
C42	C	0.816731	0.354934	-0.000130
N43	N	0.820465	0.110614	0.178040
N44	N	0.820515	0.110619	-0.178270
C45	C	0.862573	0.160911	0.217412
C46	C	0.862584	0.160909	0.296214
C47	C	0.820474	0.110619	0.335641
C48	C	0.778364	0.060312	0.296259
C49	C	0.778359	0.060310	0.217459
C50	C	0.757856	0.108523	0.460508
C51	C	0.757859	0.108531	0.539307
C52	C	0.820489	0.110622	0.578687
C53	C	0.883116	0.112721	0.539258
C54	C	0.883112	0.112719	0.460458
C55	C	0.820475	0.110616	0.421086
C56	C	0.862612	0.160918	0.703505
C57	C	0.862624	0.160910	0.782308
C58	C	0.778397	0.060319	0.782352
C59	C	0.778391	0.060322	0.703550
C60	C	0.820498	0.110627	0.664131
H61	H	0.376551	0.200134	-0.094968
N62	N	0.468599	0.113220	0.141746
H63	H	0.502525	0.113821	0.184980
H64	H	0.432886	0.164216	0.144713
H65	H	0.245114	0.197821	-0.094976
H66	H	0.031273	0.105522	0.123664
H67	H	0.704527	-0.449612	-0.000109
H68	H	0.706829	-0.292286	-0.000106
H69	H	0.896919	0.201865	0.814363
N70	N	0.950652	0.114973	0.417926
H71	H	0.971833	0.167400	0.431619
H72	H	0.984185	0.064336	0.431648
N73	N	0.619186	0.115902	0.141762
H74	H	0.585230	0.115304	0.184991
H75	H	0.654893	0.064902	0.144742
H76	H	0.609698	0.115707	-0.123901
N77	N	0.732983	0.006069	0.824865
H78	H	0.739377	0.013700	0.880760
H79	H	0.682463	0.022653	0.811110
H80	H	0.706851	0.106826	0.428452
N81	N	0.950689	-0.500618	-0.000140
H82	H	0.978584	-0.489961	-0.046549
H83	H	0.978511	-0.489949	0.046297
H84	H	0.896898	0.201879	0.671408
N85	N	0.907994	0.215156	0.174896
H86	H	0.934674	0.247015	0.211800
H87	H	0.941956	0.178791	0.142198
N88	N	0.406843	0.010700	0.108562
H89	H	0.441479	-0.030411	0.081068
H90	H	0.432753	0.048590	0.140710
H91	H	0.478267	0.113399	-0.123913
N92	N	0.950680	0.114996	0.581702
H93	H	0.959703	0.063580	0.614401
H94	H	0.990292	0.116361	0.544703
H95	H	0.896874	0.201868	0.328277
H96	H	0.936449	-0.329155	-0.000130
H97	H	0.162796	0.107836	-0.123948
H98	H	0.744100	0.019368	0.671493
N99	N	0.690315	0.106260	0.581828
H100	H	0.699819	0.106584	0.637723
H101	H	0.656755	0.156856	0.568059
N102	N	0.172282	0.108010	0.141713
H103	H	0.138326	0.107409	0.184941
H104	H	0.207992	0.057012	0.144694
N105	N	0.732948	0.006066	0.338778
H106	H	0.739339	0.013700	0.394673
H107	H	0.682428	0.022648	0.325021
N108	N	0.021791	0.105356	-0.141993
H109	H	0.055748	0.105947	-0.185221
H110	H	-0.002618	0.053296	-0.144959
N111	N	0.732940	0.006057	0.174993
H112	H	0.682401	0.022614	0.188724
H113	H	0.739383	0.013709	0.119105
N114	N	0.256256	0.008049	0.108543
H115	H	0.275534	-0.052495	0.101580
H116	H	0.266857	0.026527	0.161201
