data_functionalizedCrystal
_audit_creation_method	'MofGen! by Chris Wilmer'
_symmetry_space_group_name_H-M	'P1'
_symmetry_Int_Tables_number	1
_symmetry_cell_setting	triclinic
loop_
_symmetry_equiv_pos_as_xyz
  x,y,z
_cell_length_a	14.519709
_cell_length_b	10.654550
_cell_length_c	9.730223
_cell_angle_alpha	89.996251
_cell_angle_beta	89.995143
_cell_angle_gamma	95.917476
loop_
_atom_site_label
_atom_site_type_symbol
_atom_site_fract_x
_atom_site_fract_y
_atom_site_fract_z
O1	O	-0.129528	1.666589	-0.114382
O2	O	-0.141869	1.300991	-0.114358
O3	O	-0.001510	1.493483	-0.114383
O4	O	-0.269887	1.474097	-0.114357
O5	O	-0.001514	1.493481	0.114197
O6	O	-0.141873	1.300989	0.114222
O7	O	-0.129532	1.666586	0.114198
Zn8	Zn	-0.135703	1.483787	0.150502
Zn9	Zn	-0.135698	1.483790	-0.150662
O10	O	-0.269890	1.474094	0.114223
C11	C	-0.140965	1.254201	-0.000065
C12	C	-0.138254	1.114784	-0.000057
C13	C	-0.220895	1.034504	-0.000069
C14	C	-0.218342	0.903507	-0.000093
C15	C	-0.050500	0.933085	-0.000099
C16	C	-0.053054	1.064078	-0.000065
C17	C	-0.317797	1.017426	-0.000072
C18	C	-0.315244	0.886430	-0.000096
C19	C	-0.304253	1.474999	-0.000064
C20	C	-0.406648	1.477707	-0.000055
C21	C	-0.781596	1.487674	-0.000110
C22	C	-0.677274	1.484906	-0.000094
C23	C	-0.594125	1.482690	-0.000081
C24	C	-0.489797	1.479922	-0.000068
C25	C	0.032852	1.492579	-0.000099
C26	C	0.135247	1.489871	-0.000117
C27	C	-0.130436	1.713377	-0.000098
C28	C	-0.133147	1.852794	-0.000115
N29	N	-0.135705	1.483795	0.356038
N30	N	-0.135688	1.483793	-0.356198
C31	C	-0.073576	1.569052	0.427953
C32	C	-0.073565	1.569048	0.571836
C33	C	-0.197821	1.398527	0.571877
C34	C	-0.197827	1.398525	0.427996
C35	C	-0.001840	1.667505	0.427931
C36	C	-0.001829	1.667502	0.571814
H37	H	0.014241	1.129439	-0.000036
H38	H	0.065157	1.637633	0.616425
H39	H	0.018867	0.891784	-0.000127
H40	H	-0.344531	0.840476	0.098591
H41	H	-0.248409	1.329091	0.369444
H42	H	-0.024302	1.758473	0.383301
H43	H	-0.017630	1.763861	0.610860
H44	H	-0.355697	1.046392	0.095598
H45	H	-0.348651	1.052786	-0.098756
H46	H	-0.248398	1.329102	0.630480
H47	H	-0.351754	0.844347	-0.095760
H48	H	0.069045	1.646743	0.388872
