data_functionalizedCrystal
_audit_creation_method	'MofGen! by Chris Wilmer'
_symmetry_space_group_name_H-M	'P1'
_symmetry_Int_Tables_number	1
_symmetry_cell_setting	triclinic
loop_
_symmetry_equiv_pos_as_xyz
  x,y,z
_cell_length_a	16.992694
_cell_length_b	26.809956
_cell_length_c	16.956985
_cell_angle_alpha	89.993957
_cell_angle_beta	96.639294
_cell_angle_gamma	90.010447
loop_
_atom_site_label
_atom_site_type_symbol
_atom_site_fract_x
_atom_site_fract_y
_atom_site_fract_z
O1	O	1.029490	0.041419	-0.168385
O2	O	0.801324	0.041433	-0.166538
O3	O	0.929115	0.041421	-0.052256
O4	O	0.901699	0.041431	-0.282667
O5	O	0.929078	-0.041538	-0.052253
O6	O	0.801287	-0.041526	-0.166535
O7	O	1.029453	-0.041540	-0.168382
Zn8	Zn	0.915364	-0.054705	-0.167458
Zn9	Zn	0.915413	0.054598	-0.167462
O10	O	0.901662	-0.041528	-0.282664
C11	C	0.772247	-0.000044	-0.164160
C12	C	0.685663	-0.000039	-0.157069
N13	N	0.915337	-0.129301	-0.167456
C14	C	0.630987	-0.000036	-0.225484
C15	C	0.549633	-0.000044	-0.218817
C16	C	0.522955	-0.000050	-0.143734
C17	C	0.577637	-0.000054	-0.075314
C18	C	0.658990	-0.000050	-0.081982
C19	C	0.281149	-0.000064	-0.116099
C20	C	0.199790	-0.000066	-0.109436
C21	C	0.171791	-0.000057	-0.252940
C22	C	0.253146	-0.000051	-0.259601
C23	C	0.307821	-0.000057	-0.191181
N24	N	0.439798	-0.000055	-0.136918
N25	N	0.390976	-0.000055	-0.197998
C26	C	0.959637	-0.473928	-0.218662
C27	C	0.959662	-0.682806	-0.218663
O28	O	0.997307	-0.709810	-0.262190
N29	N	0.915432	-0.708928	-0.167455
C30	C	0.871197	-0.682827	-0.116239
O31	O	0.833584	-0.709839	-0.072678
C32	C	0.871176	-0.473951	-0.116235
C33	C	0.915403	-0.447831	-0.167452
C34	C	1.003860	-0.447808	-0.269875
C35	C	1.003850	-0.395592	-0.269877
C36	C	0.959616	-0.369495	-0.218667
C37	C	0.915393	-0.395615	-0.167454
C38	C	0.826946	-0.447851	-0.065015
C39	C	0.826947	-0.395628	-0.065017
C40	C	0.871173	-0.369509	-0.116235
C41	C	0.871149	-0.317302	-0.116246
N42	N	0.915379	-0.291180	-0.167455
C43	C	0.959612	-0.317276	-0.218665
C44	C	0.871209	-0.792491	-0.116246
C45	C	0.871213	-0.844710	-0.116248
C46	C	0.959680	-0.844684	-0.218671
C47	C	0.959671	-0.792464	-0.218673
C48	C	0.915439	-0.766368	-0.167454
C49	C	0.959587	-0.207618	-0.218666
C50	C	0.959570	-0.155397	-0.218666
C51	C	0.871108	-0.155427	-0.116240
C52	C	0.871121	-0.207644	-0.116243
C53	C	0.915367	-0.233738	-0.167458
O54	O	0.833530	-0.290265	-0.072736
O55	O	0.997234	-0.290256	-0.262207
C56	C	0.959647	-0.526144	-0.218660
C57	C	0.915423	-0.552264	-0.167447
C58	C	0.871190	-0.526167	-0.116237
C59	C	0.915427	-0.604483	-0.167449
C60	C	0.959661	-0.630579	-0.218660
C61	C	1.003891	-0.604457	-0.269868
C62	C	1.003880	-0.552241	-0.269870
C63	C	0.826960	-0.552289	-0.065029
C64	C	0.826973	-0.604505	-0.065032
C65	C	0.871206	-0.630602	-0.116242
C66	C	1.058530	-0.000062	-0.170760
C67	C	1.145114	-0.000064	-0.177851
C68	C	0.930501	-0.000058	-0.022636
C69	C	0.934674	-0.000058	0.065619
N70	N	0.915447	0.129194	-0.167458
C71	C	0.864889	-0.000052	0.102150
C72	C	0.868816	-0.000054	0.185075
C73	C	0.942528	-0.000058	0.231467
C74	C	1.012319	-0.000067	0.194930
C75	C	1.008392	-0.000068	0.112007
C76	C	0.961968	-0.000057	0.480001
C77	C	0.965890	-0.000054	0.562930
C78	C	0.822386	-0.000042	0.553069
C79	C	0.818465	-0.000041	0.470144
C80	C	0.888256	-0.000051	0.433615
N81	N	0.946544	-0.000059	0.316230
N82	N	0.884240	-0.000055	0.348853
C83	C	0.900277	-0.000048	0.687716
C84	C	0.896105	-0.000047	0.599461
H85	H	0.652701	-0.000031	-0.286625
N86	N	1.051586	-0.524073	-0.325109
H87	H	1.079607	-0.548535	-0.357543
H88	H	1.092002	-0.502404	-0.292939
H89	H	0.804864	-0.000045	0.064383
N90	N	1.083661	-0.000079	0.072603
H91	H	1.115730	0.030671	0.089178
H92	H	1.069922	-0.000101	0.013043
H93	H	0.274860	-0.000040	-0.320741
N94	N	0.793548	-0.000056	0.224478
H95	H	0.746256	-0.000053	0.182506
H96	H	0.792058	0.030695	0.258670
N97	N	0.717968	-0.000049	-0.008194
H98	H	0.752336	-0.030802	-0.007764
H99	H	0.688669	-0.000034	0.040343
N100	N	0.823490	-0.764345	-0.061012
H101	H	0.859997	-0.742677	-0.024322
H102	H	0.795475	-0.788851	-0.028631
H103	H	0.790950	-0.625767	-0.023326
H104	H	0.835190	-0.865972	-0.074551
H105	H	0.790933	-0.469109	-0.023308
H106	H	0.790928	-0.374384	-0.023308
H107	H	0.758441	-0.000035	0.432377
N108	N	0.548858	-0.000059	0.005665
H109	H	0.569144	0.030692	0.035874
H110	H	0.569132	-0.030834	0.035809
N111	N	0.112822	-0.000051	-0.326732
H112	H	0.057236	-0.000054	-0.311118
H113	H	0.120923	-0.030803	-0.359228
H114	H	1.025919	-0.000055	0.600701
H115	H	0.505119	-0.000041	-0.274528
N116	N	1.051597	-0.632610	-0.325106
H117	H	1.044886	-0.669653	-0.317328
H118	H	1.109401	-0.623475	-0.313069
N119	N	1.037245	-0.000065	0.440619
H120	H	1.069305	0.030687	0.457204
H121	H	1.023522	-0.000086	0.381056
N122	N	0.171013	-0.000070	-0.028450
H123	H	0.217994	-0.000073	0.013883
H124	H	0.137858	-0.030823	-0.022561
N125	N	0.340113	-0.000074	-0.042306
H126	H	0.310866	-0.000078	0.006268
H127	H	0.374489	0.030679	-0.041940
H128	H	0.995693	-0.865941	-0.260372
N129	N	0.747116	-0.000032	0.592468
H130	H	0.760785	-0.000032	0.652039
H131	H	0.715086	-0.030785	0.575825
H132	H	0.995584	-0.134133	-0.260377
N133	N	1.091823	-0.000067	0.244966
H134	H	1.135436	-0.000072	0.209238
H135	H	1.096567	-0.030819	0.279595
H136	H	0.995617	-0.228858	-0.260370
H137	H	1.039885	-0.469051	-0.311577
N138	N	1.051562	-0.367424	-0.325109
H139	H	1.079585	-0.391887	-0.357542
H140	H	1.091977	-0.345757	-0.292934
H141	H	0.835097	-0.228911	-0.074547
N142	N	1.007373	-0.764294	-0.273911
H143	H	1.035392	-0.788755	-0.306351
H144	H	1.047792	-0.742627	-0.241742
N145	N	0.823408	-0.127275	-0.061001
H146	H	0.830123	-0.090232	-0.068773
H147	H	0.842597	-0.136405	-0.004241
H148	H	0.790940	-0.531046	-0.023325
