data_functionalizedCrystal
_audit_creation_method	'MofGen! by Chris Wilmer'
_symmetry_space_group_name_H-M	'P1'
_symmetry_Int_Tables_number	1
_symmetry_cell_setting	triclinic
loop_
_symmetry_equiv_pos_as_xyz
  x,y,z
_cell_length_a	23.532407
_cell_length_b	16.956995
_cell_length_c	16.053802
_cell_angle_alpha	87.607939
_cell_angle_beta	87.443152
_cell_angle_gamma	100.548425
loop_
_atom_site_label
_atom_site_type_symbol
_atom_site_fract_x
_atom_site_fract_y
_atom_site_fract_z
O1	O	-0.021053	1.061237	-0.069483
O2	O	0.478947	1.561237	0.430517
O3	O	-0.041054	0.828920	-0.069468
O4	O	0.458946	1.328920	0.430532
O5	O	0.052180	0.952085	-0.069486
O6	O	0.552180	1.452085	0.430514
O7	O	-0.114287	0.938073	-0.069464
O8	O	0.385713	1.438073	0.430536
O9	O	0.047068	0.945306	0.069374
O10	O	0.547068	1.445306	0.569374
O11	O	-0.046166	0.822141	0.069392
O12	O	0.453834	1.322141	0.569392
O13	O	-0.026165	1.054458	0.069377
O14	O	0.473835	1.554458	0.569377
Zn15	Zn	-0.036977	0.937223	0.091432
Zn16	Zn	0.463023	1.437223	0.591432
Zn17	Zn	-0.030242	0.946155	-0.091522
Zn18	Zn	0.469758	1.446155	0.408478
O19	O	-0.119399	0.931293	0.069396
O20	O	0.380601	1.431293	0.569396
C21	C	-0.044634	0.795815	-0.000036
C22	C	0.455366	1.295815	0.499964
C23	C	-0.047679	0.707270	-0.000031
C24	C	0.452321	1.207270	0.499969
C25	C	-0.070454	0.207791	-0.000060
C26	C	0.429546	0.707791	0.499940
C27	C	-0.067589	0.290988	-0.000059
C28	C	0.432411	0.790988	0.499941
C29	C	-0.013809	0.342503	-0.000060
C30	C	0.486191	0.842503	0.499940
C31	C	0.037109	0.310816	-0.000070
C32	C	0.537109	0.810816	0.499930
C33	C	0.034244	0.227620	-0.000076
C34	C	0.534244	0.727620	0.499924
C35	C	0.000374	0.592387	-0.000047
C36	C	0.500374	1.092387	0.499953
C37	C	0.003236	0.675588	-0.000038
C38	C	0.503236	1.175588	0.499962
C39	C	-0.101463	0.655755	-0.000030
C40	C	0.398537	1.155755	0.499970
C41	C	-0.104324	0.572558	-0.000031
C42	C	0.395676	1.072558	0.499969
C43	C	-0.053405	0.540878	-0.000045
C44	C	0.446595	1.040878	0.499955
N45	N	-0.010879	0.427544	-0.000057
N46	N	0.489121	0.927544	0.499943
N47	N	-0.056335	0.455838	-0.000054
N48	N	0.443665	0.955838	0.499946
C49	C	-0.138044	0.935040	-0.000032
C50	C	0.361956	1.435040	0.499968
C51	C	-0.201215	0.936112	-0.000024
C52	C	0.298785	1.436112	0.499976
C53	C	-0.603164	0.869957	-0.000062
C54	C	-0.103164	1.369957	0.499938
C55	C	-0.662521	0.870953	-0.000068
C56	C	-0.162521	1.370953	0.499932
O57	O	-0.701903	0.809626	-0.000095
O58	O	-0.201903	1.309626	0.499905
N59	N	-0.681996	0.944174	-0.000072
N60	N	-0.181996	1.444174	0.499928
C61	C	-0.642110	1.016403	-0.000078
C62	C	-0.142110	1.516403	0.499922
O63	O	-0.664125	1.078775	-0.000082
O64	O	-0.164125	1.578775	0.499918
C65	C	-0.582754	1.015406	-0.000078
C66	C	-0.082754	1.515406	0.499922
C67	C	-0.563283	0.942180	-0.000066
C68	C	-0.063283	1.442180	0.499934
C69	C	-0.583692	0.796737	-0.000051
C70	C	-0.083692	1.296737	0.499949
C71	C	-0.524339	0.795740	-0.000044
C72	C	-0.024339	1.295740	0.499956
C73	C	-0.484458	0.867964	-0.000047
C74	C	0.015542	1.367964	0.499953
C75	C	-0.503929	0.941183	-0.000059
C76	C	-0.003929	1.441183	0.499941
C77	C	-0.542868	1.087634	-0.000090
C78	C	-0.042868	1.587634	0.499910
C79	C	-0.483509	1.086631	-0.000091
C80	C	0.016491	1.586631	0.499909
C81	C	-0.464038	1.013405	-0.000079
C82	C	0.035962	1.513405	0.499921
C83	C	-0.404695	1.012410	-0.000055
C84	C	0.095305	1.512410	0.499945
N85	N	-0.385220	0.939190	-0.000051
N86	N	0.114780	1.439190	0.499949
C87	C	-0.425101	0.866966	-0.000048
C88	C	0.074899	1.366966	0.499952
C89	C	-0.766762	1.018492	-0.000079
C90	C	-0.266762	1.518492	0.499921
C91	C	-0.826117	1.019490	-0.000073
C92	C	-0.326117	1.519490	0.499927
C93	C	-0.846524	0.874040	-0.000065
C94	C	-0.346524	1.374040	0.499935
C95	C	-0.787168	0.873043	-0.000065
C96	C	-0.287168	1.373043	0.499935
C97	C	-0.747287	0.945271	-0.000076
C98	C	-0.247287	1.445271	0.499924
C99	C	-0.300455	0.864879	-0.000031
C100	C	0.199545	1.364879	0.499969
C101	C	-0.241096	0.863889	-0.000020
C102	C	0.258904	1.363889	0.499980
C103	C	-0.220694	1.009338	-0.000033
C104	C	0.279306	1.509338	0.499967
C105	C	-0.280048	1.010329	-0.000039
C106	C	0.219952	1.510329	0.499961
C107	C	-0.319928	0.938093	-0.000041
C108	C	0.180072	1.438093	0.499959
O109	O	-0.365279	1.073705	-0.000031
O110	O	0.134721	1.573705	0.499969
O111	O	-0.403077	0.804606	-0.000054
O112	O	0.096923	1.304606	0.499946
C113	C	0.070825	0.948339	-0.000061
C114	C	0.570825	1.448339	0.499939
C115	C	0.133996	0.947266	-0.000074
C116	C	0.633996	1.447266	0.499926
C117	C	-0.022585	1.087564	-0.000056
C118	C	0.477415	1.587564	0.499944
C119	C	-0.019540	1.176109	-0.000067
C120	C	0.480460	1.676109	0.499933
N121	N	-0.041573	0.931133	0.216293
N122	N	0.458427	1.431133	0.716293
N123	N	-0.025641	0.952251	-0.216384
N124	N	0.474359	1.452251	0.283616
C125	C	-0.001914	0.983559	0.259979
C126	C	0.498086	1.483559	0.759979
C127	C	-0.005134	0.979306	0.347386
C128	C	0.494866	1.479306	0.847386
C129	C	-0.048016	0.922631	0.391106
C130	C	0.451984	1.422631	0.891106
C131	C	-0.087677	0.870200	0.347414
C132	C	0.412323	1.370200	0.847414
C133	C	-0.084454	0.874450	0.260008
C134	C	0.415546	1.374450	0.760008
C135	C	-0.062079	0.904070	0.652518
C136	C	0.437921	1.404070	1.152518
C137	C	-0.065300	0.899826	0.739930
C138	C	0.434700	1.399826	1.239930
C139	C	0.017244	1.008931	0.739897
C140	C	0.517244	1.508931	1.239897
C141	C	0.020461	1.013179	0.652489
C142	C	0.520461	1.513179	1.152489
C143	C	-0.019198	0.960745	0.608805
C144	C	0.480802	1.460745	1.108805
N145	N	-0.051310	0.918285	0.480450
N146	N	0.448690	1.418285	0.980450
N147	N	-0.015901	0.965088	0.519462
N148	N	0.484099	1.465088	1.019462
H149	H	0.080898	0.352766	-0.000075
H150	H	0.580898	0.852766	0.499925
O151	O	0.062297	1.068139	0.610247
O152	O	0.562297	1.568139	1.110247
C153	C	0.117196	1.054377	0.631895
C154	C	0.617196	1.554377	1.131895
H155	H	0.113456	0.989286	0.655823
H156	H	0.613456	1.489286	1.155823
H157	H	0.148486	1.066611	0.574578
H158	H	0.648486	1.566611	1.074578
H159	H	0.134038	1.096103	0.682787
H160	H	0.634038	1.596103	1.182787
O161	O	-0.298867	1.081531	-0.000087
O162	O	0.201133	1.581531	0.499913
C163	C	-0.250936	1.145061	-0.000066
C164	C	0.249064	1.645061	0.499934
H165	H	-0.210645	1.124308	-0.026336
H166	H	0.289355	1.624308	0.473664
H167	H	-0.259455	1.198176	-0.040397
H168	H	0.240545	1.698176	0.459603
H169	H	-0.243951	1.164072	0.066550
H170	H	0.256049	1.664072	0.566550
H171	H	-0.122591	0.824050	0.383015
H172	H	0.377409	1.324050	0.883015
H173	H	-0.508491	0.736113	-0.000041
H174	H	-0.008491	1.236113	0.499959
O175	O	-0.123041	0.823489	0.217698
O176	O	0.376959	1.323489	0.717698
C177	C	-0.161573	0.772542	0.275026
C178	C	0.338427	1.272542	0.775026
H179	H	-0.162989	0.802212	0.337322
H180	H	0.337011	1.302212	0.837322
H181	H	-0.206708	0.761235	0.249772
H182	H	0.293292	1.261235	0.749772
H183	H	-0.146181	0.712984	0.284342
H184	H	0.353819	1.212984	0.784342
H185	H	-0.616158	0.737921	-0.000051
H186	H	-0.116158	1.237921	0.499949
H187	H	-0.109049	0.316779	-0.000061
H188	H	0.390951	0.816779	0.499939
O189	O	-0.768353	0.801844	-0.000098
O190	O	-0.268353	1.301844	0.499902
C191	C	-0.816288	0.738316	-0.000071
C192	C	-0.316288	1.238316	0.499929
H193	H	-0.854637	0.761638	-0.026357
H194	H	-0.354637	1.261638	0.473643
H195	H	-0.804795	0.689132	-0.040385
H196	H	-0.304795	1.189132	0.459615
H197	H	-0.828194	0.712809	0.066549
H198	H	-0.328194	1.212809	0.566549
H199	H	-0.188213	1.068140	-0.000032
H200	H	0.311787	1.568140	0.499968
O201	O	-0.156575	0.522563	-0.000182
O202	O	0.343425	1.022563	0.499818
C203	C	-0.185077	0.540397	-0.072084
C204	C	0.314923	1.040397	0.427916
H205	H	-0.151806	0.571525	-0.122351
H206	H	0.348194	1.071525	0.377649
H207	H	-0.209819	0.482369	-0.096226
H208	H	0.290181	0.982369	0.403774
H209	H	-0.216651	0.581714	-0.055820
H210	H	0.283349	1.081714	0.444180
H211	H	-0.841965	1.079117	-0.000070
H212	H	-0.341965	1.579117	0.499930
O213	O	0.039793	1.038638	0.217643
O214	O	0.539793	1.538638	0.717643
C215	C	0.074098	1.084010	0.274949
C216	C	0.574098	1.584010	0.774949
H217	H	0.070917	1.048281	0.337264
H218	H	0.570917	1.548281	0.837264
H219	H	0.121096	1.097770	0.249695
H220	H	0.621096	1.597770	0.749695
H221	H	0.058021	1.142665	0.284227
H222	H	0.558021	1.642665	0.784227
O223	O	0.049789	0.561516	0.000054
O224	O	0.549789	1.061516	0.500054
C225	C	0.048621	0.510477	0.071974
C226	C	0.548621	1.010477	0.571974
H227	H	0.001858	0.488231	0.095954
H228	H	0.501858	0.988231	0.595954
H229	H	0.069358	0.456962	0.055790
H230	H	0.569358	0.956962	0.555790
H231	H	0.073703	0.544965	0.122335
H232	H	0.573703	1.044965	0.622335
O233	O	-0.150943	0.686484	0.000123
O234	O	0.349057	1.186484	0.500123
C235	C	-0.186149	0.656588	0.072027
C236	C	0.313851	1.156588	0.572027
H237	H	-0.158161	0.637059	0.122293
H238	H	0.341839	1.137059	0.622293
H239	H	-0.208902	0.705622	0.096169
H240	H	0.291098	1.205622	0.596169
H241	H	-0.219851	0.602909	0.055764
H242	H	0.280149	1.102909	0.555764
O243	O	-0.122689	0.157713	0.000088
O244	O	0.377311	0.657713	0.500088
C245	C	-0.130127	0.105461	0.071990
C246	C	0.369873	0.605461	0.571990
H247	H	-0.101411	0.133696	0.122259
H248	H	0.398589	0.633696	0.622259
H249	H	-0.177349	0.094569	0.096129
H250	H	0.322651	0.594569	0.596129
H251	H	-0.117636	0.045867	0.055725
H252	H	0.382364	0.545867	0.555725
H253	H	-0.100222	0.853672	0.775523
H254	H	0.399778	1.353672	1.275523
O255	O	0.055499	0.725609	-0.000195
O256	O	0.555499	1.225609	0.499805
C257	C	0.089297	0.714823	-0.072111
C258	C	0.589297	1.214823	0.427889
H259	H	0.059730	0.688607	-0.122372
H260	H	0.559730	1.188607	0.377628
H261	H	0.115808	0.775219	-0.096252
H262	H	0.615808	1.275219	0.403748
H263	H	0.119682	0.671926	-0.055865
H264	H	0.619682	1.171926	0.444135
H265	H	-0.879007	0.815232	-0.000062
H266	H	-0.379007	1.315232	0.499938
H267	H	-0.734293	1.077313	-0.000082
H268	H	-0.234293	1.577313	0.499918
O269	O	0.083691	0.196810	-0.000228
O270	O	0.583691	0.696810	0.499772
C271	C	0.087808	0.152784	-0.072140
C272	C	0.587808	0.652784	0.427860
H273	H	0.060817	0.174692	-0.122400
H274	H	0.560817	0.674692	0.377600
H275	H	0.134964	0.161789	-0.096284
H276	H	0.634964	0.661789	0.403716
H277	H	0.070973	0.086272	-0.055886
H278	H	0.570973	0.586272	0.444114
O279	O	-0.444849	1.156868	-0.000063
O280	O	0.055151	1.656868	0.499937
C281	C	-0.474768	1.221706	-0.000097
C282	C	0.025232	1.721706	0.499903
H283	H	-0.521040	1.199810	0.026191
H284	H	-0.021040	1.699810	0.526191
H285	H	-0.451971	1.270317	0.040212
H286	H	0.048029	1.770317	0.540212
H287	H	-0.475485	1.247419	-0.066719
H288	H	0.024515	1.747419	0.433281
O289	O	-0.561837	1.158724	-0.000221
O290	O	-0.061837	1.658724	0.499779
C291	C	-0.592890	1.167173	-0.072154
C292	C	-0.092890	1.667173	0.427846
H293	H	-0.609769	1.105351	-0.096116
H294	H	-0.109769	1.605351	0.403884
H295	H	-0.630899	1.197882	-0.055994
H296	H	-0.130899	1.697882	0.444006
H297	H	-0.563113	1.205119	-0.122519
H298	H	-0.063113	1.705119	0.377481
O299	O	-0.222279	0.792685	-0.000049
O300	O	0.277721	1.292685	0.499951
C301	C	-0.270213	0.729155	-0.000029
C302	C	0.229787	1.229155	0.499971
H303	H	-0.308560	0.752473	-0.026324
H304	H	0.191440	1.252473	0.473676
H305	H	-0.258714	0.679972	-0.040340
H306	H	0.241286	1.179972	0.459660
H307	H	-0.282124	0.703647	0.066589
H308	H	0.217876	1.203647	0.566589
O309	O	-0.339248	0.794756	0.000082
O310	O	0.160752	1.294756	0.500082
C311	C	-0.376838	0.787456	0.072007
C312	C	0.123162	1.287456	0.572007
H313	H	-0.377763	0.849575	0.095974
H314	H	0.122237	1.349575	0.595974
H315	H	-0.422297	0.758155	0.055834
H316	H	0.077703	1.258155	0.555834
H317	H	-0.360851	0.748734	0.122373
H318	H	0.139149	1.248734	0.622373
O319	O	0.033439	1.030127	0.389856
O320	O	0.533439	1.530127	0.889856
C321	C	0.064728	0.985241	0.440443
C322	C	0.564728	1.485241	0.940443
H323	H	0.063729	0.923622	0.414126
H324	H	0.563729	1.423622	0.914126
H325	H	0.111493	1.018107	0.441420
H326	H	0.611493	1.518107	0.941420
H327	H	0.044265	0.977700	0.506689
H328	H	0.544265	1.477700	1.006689
O329	O	0.055739	1.059774	0.782462
O330	O	0.555739	1.559774	1.282462
C331	C	0.043693	1.043887	0.868984
C332	C	0.543693	1.543887	1.368984
H333	H	0.018999	0.979720	0.880941
H334	H	0.518999	1.479720	1.380941
H335	H	0.086029	1.051490	0.902200
H336	H	0.586029	1.551490	1.402200
H337	H	0.016313	1.087603	0.893773
H338	H	0.516313	1.587603	1.393773
O339	O	-0.100666	0.853105	0.610220
O340	O	0.399334	1.353105	1.110220
C341	C	-0.139196	0.802163	0.667554
C342	C	0.360804	1.302163	1.167554
H343	H	-0.140609	0.831837	0.729848
H344	H	0.359391	1.331837	1.229848
H345	H	-0.184332	0.790856	0.642304
H346	H	0.315668	1.290856	1.142304
H347	H	-0.123805	0.742604	0.676873
H348	H	0.376195	1.242604	1.176873
