data_functionalizedCrystal
_audit_creation_method	'MofGen! by Chris Wilmer'
_symmetry_space_group_name_H-M	'P1'
_symmetry_Int_Tables_number	1
_symmetry_cell_setting	triclinic
loop_
_symmetry_equiv_pos_as_xyz
  x,y,z
_cell_length_a	10.685901
_cell_length_b	10.685194
_cell_length_c	19.076919
_cell_angle_alpha	92.275516
_cell_angle_beta	83.170935
_cell_angle_gamma	90.347428
loop_
_atom_site_label
_atom_site_type_symbol
_atom_site_fract_x
_atom_site_fract_y
_atom_site_fract_z
Zn1	Zn	1.857244	-0.665522	0.289846
Zn2	Zn	2.357244	-0.165522	0.789846
Zn3	Zn	1.850794	-0.866987	0.163816
Zn4	Zn	2.350794	-0.366987	0.663816
Zn5	Zn	1.655804	-0.642350	0.181795
Zn6	Zn	2.155804	-0.142350	0.681795
Zn7	Zn	1.631292	-0.859290	0.291214
Zn8	Zn	2.131292	-0.359290	0.791214
O9	O	1.748784	-0.758537	0.231668
O10	O	2.248784	-0.258537	0.731668
O11	O	2.032555	-0.705166	0.265031
O12	O	2.532555	-0.205166	0.765031
O13	O	1.832487	-0.830712	0.067665
O14	O	2.332487	-0.330712	0.567665
O15	O	1.695483	-0.470319	0.203080
O16	O	2.195483	0.029681	0.703080
O17	O	2.027816	-0.853181	0.172437
O18	O	2.527816	-0.353181	0.672437
O19	O	1.843481	-0.487344	0.282465
O20	O	2.343481	0.012656	0.782465
O21	O	1.689229	-0.665672	0.080874
O22	O	2.189229	-0.165672	0.580874
O23	O	1.476386	-0.658208	0.204407
O24	O	1.976386	-0.158208	0.704407
O25	O	1.653706	-0.840062	0.389569
O26	O	2.153706	-0.340062	0.889569
O27	O	1.458377	-0.817593	0.284796
O28	O	1.958377	-0.317593	0.784796
O29	O	1.819713	-0.697702	0.388564
O30	O	2.319713	-0.197702	0.888564
O31	O	1.808719	-1.041070	0.173764
O32	O	2.308719	-0.541070	0.673764
O33	O	1.647451	-1.035415	0.267363
O34	O	2.147451	-0.535415	0.767363
C35	C	1.421704	-0.734552	0.246701
C36	C	1.921704	-0.234552	0.746701
C37	C	1.281774	-0.724322	0.253148
C38	C	1.781774	-0.224322	0.753148
C39	C	1.724758	-1.083648	0.218775
C40	C	2.224758	-0.583648	0.718775
C41	C	1.714593	-1.222742	0.213277
C42	C	2.214593	-0.722742	0.713277
C43	C	2.077140	-0.782617	0.216576
C44	C	2.577140	-0.282617	0.716576
C45	C	2.217067	-0.792878	0.210145
C46	C	2.717067	-0.292878	0.710145
C47	C	1.734695	-0.770608	0.415330
C48	C	2.234695	-0.270608	0.915330
C49	C	1.728691	-0.775752	0.493596
C50	C	2.228691	-0.275752	0.993596
C51	C	1.772936	-0.432160	0.244625
C52	C	2.272936	0.067840	0.744625
C53	C	1.783228	-0.293077	0.250147
C54	C	2.283228	0.206923	0.750147
C55	C	1.762897	-0.746428	0.048720
C56	C	2.262897	-0.246428	0.548720
C57	C	1.769171	-0.740949	-0.029543
C58	C	2.269171	-0.240949	0.470457
C59	C	1.812296	-0.704053	0.529844
C60	C	2.312296	-0.204053	1.029844
C61	C	1.806640	-0.708880	0.603384
C62	C	2.306640	-0.208880	1.103384
C63	C	1.717383	-0.785414	0.640675
C64	C	2.217383	-0.285414	1.140675
C65	C	1.633769	-0.857116	0.604422
C66	C	2.133769	-0.357116	1.104422
C67	C	1.639420	-0.852281	0.530884
C68	C	2.139420	-0.352281	1.030884
C69	C	1.691208	-0.807816	0.860667
C70	C	2.191208	-0.307816	1.360667
C71	C	1.685565	-0.812649	0.934210
C72	C	2.185565	-0.312649	1.434210
C73	C	1.858436	-0.664410	0.933166
C74	C	2.358436	-0.164410	1.433166
C75	C	1.864084	-0.659587	0.859626
C76	C	2.364084	-0.159587	1.359626
C77	C	1.780465	-0.731284	0.823381
C78	C	2.280465	-0.231284	1.323381
N79	N	1.711602	-0.790354	0.715844
N80	N	2.211602	-0.290354	1.215844
N81	N	1.786242	-0.726337	0.748213
N82	N	2.286242	-0.226337	1.248213
H83	H	1.648039	-1.268942	0.177507
H84	H	2.148039	-0.768942	0.677507
H85	H	1.849767	-1.246884	0.285921
H86	H	2.349767	-0.746884	0.785921
H87	H	1.884983	-0.641734	0.499486
H88	H	2.384983	-0.141734	0.999486
H89	H	1.874723	-0.650498	0.632893
H90	H	2.374723	-0.150498	1.132893
H91	H	1.230116	-0.657805	0.294901
H92	H	1.730116	-0.157805	0.794901
O93	O	1.601024	-0.885153	0.821582
O94	O	2.101024	-0.385153	1.321582
H95	H	1.619931	-0.868928	0.764182
H96	H	2.119931	-0.368928	1.264182
H97	H	1.268717	-0.859402	0.168401
H98	H	1.768717	-0.359402	0.668401
H99	H	1.936770	-0.597269	0.829269
H100	H	2.436770	-0.097269	1.329269
O101	O	1.537488	-0.939659	0.644638
O102	O	2.037488	-0.439659	1.144638
H103	H	1.547608	-0.930985	0.701864
H104	H	2.047608	-0.430985	1.201864
O105	O	1.948588	-0.587042	0.972261
O106	O	2.448588	-0.087042	1.472261
H107	H	1.929651	-0.603239	1.029663
H108	H	2.429651	-0.103239	1.529663
H109	H	1.571327	-0.910653	0.501374
H110	H	2.071327	-0.410653	1.001374
O111	O	1.589283	-0.895191	0.974436
O112	O	2.089283	-0.395191	1.474436
H113	H	1.532078	-0.944224	0.936880
H114	H	2.032078	-0.444224	1.436880
