data_functionalizedCrystal
_audit_creation_method	'MofGen! by Chris Wilmer'
_symmetry_space_group_name_H-M	'P1'
_symmetry_Int_Tables_number	1
_symmetry_cell_setting	triclinic
loop_
_symmetry_equiv_pos_as_xyz
  x,y,z
_cell_length_a	10.489716
_cell_length_b	10.489741
_cell_length_c	8.965430
_cell_angle_alpha	89.992413
_cell_angle_beta	89.997200
_cell_angle_gamma	84.534155
loop_
_atom_site_label
_atom_site_type_symbol
_atom_site_fract_x
_atom_site_fract_y
_atom_site_fract_z
O1	O	1.694069	0.179825	-0.124026
O2	O	1.322869	0.196750	-0.124032
O3	O	1.516915	0.002689	-0.124020
O4	O	1.500023	0.373886	-0.124038
O5	O	1.516905	0.002671	0.124059
O6	O	1.322858	0.196732	0.124047
O7	O	1.694058	0.179807	0.124052
Cu8	Cu	1.508457	0.188268	0.146701
Cu9	Cu	1.508470	0.188289	-0.146681
O10	O	1.500012	0.373868	0.124041
C11	C	1.275332	0.195470	0.000007
C12	C	1.133701	0.191665	0.000005
C13	C	1.036027	0.310669	-0.000005
C14	C	0.958675	0.247776	0.122321
C15	C	0.958693	0.247766	-0.122265
C16	C	1.058215	0.128821	0.122431
C17	C	1.058237	0.128829	-0.122265
C18	C	0.980935	0.065848	0.000091
C19	C	1.515634	-0.044852	0.000018
C20	C	1.511817	-0.186481	0.000016
C21	C	1.388351	-0.254610	0.000003
C22	C	1.446670	-0.346747	0.122319
C23	C	1.446710	-0.346703	-0.122267
C24	C	1.570187	-0.276752	0.122433
C25	C	1.570209	-0.276699	-0.122263
C26	C	1.628618	-0.368808	0.000083
C27	C	1.741596	0.181087	0.000010
C28	C	1.883227	0.184892	0.000002
C29	C	1.501293	0.421409	-0.000001
C30	C	1.505110	0.563038	-0.000008
N31	N	1.508457	0.188252	0.353050
N32	N	1.508480	0.188295	-0.353030
C33	C	1.597494	0.097797	0.549726
C34	C	1.624328	0.212943	0.450244
C35	C	1.481680	0.073116	0.450325
C36	C	1.535372	0.303499	0.549677
C37	C	1.392673	0.163597	0.549767
C38	C	1.419459	0.278825	0.450329
H39	H	0.915188	0.298005	0.225731
H40	H	1.730222	-0.418241	0.000153
Br41	Br	1.219157	-0.171842	0.000191
Br42	Br	1.359597	-0.398439	0.294678
Br43	Br	1.130393	0.045125	0.294973
H44	H	1.622411	-0.245651	-0.225677
H45	H	1.394457	-0.377655	-0.225686
Br46	Br	1.723054	-0.029585	0.622474
Br47	Br	1.787535	0.247727	0.377338
H48	H	1.622378	-0.245932	0.225958
H49	H	1.558136	0.400911	0.593136
H50	H	1.344169	0.355421	0.406962
Br51	Br	1.229502	0.128736	0.622687
H52	H	1.459022	-0.024271	0.406681
H53	H	0.956505	-0.037744	0.000166
Br54	Br	1.077159	0.483196	0.000174
H55	H	0.915214	0.298034	-0.225667
Br56	Br	1.130765	0.045186	-0.294632
