data_functionalizedCrystal
_audit_creation_method	'MofGen! by Chris Wilmer'
_symmetry_space_group_name_H-M	'P1'
_symmetry_Int_Tables_number	1
_symmetry_cell_setting	triclinic
loop_
_symmetry_equiv_pos_as_xyz
  x,y,z
_cell_length_a	6.394989
_cell_length_b	11.026607
_cell_length_c	9.482900
_cell_angle_alpha	78.636152
_cell_angle_beta	80.390180
_cell_angle_gamma	82.458136
loop_
_atom_site_label
_atom_site_type_symbol
_atom_site_fract_x
_atom_site_fract_y
_atom_site_fract_z
O1	O	-0.853991	1.642135	-0.120875
O2	O	-0.753816	1.287297	-0.120879
O3	O	-0.501733	1.469753	-0.120878
O4	O	-1.106074	1.459679	-0.120876
O5	O	-0.553199	1.432696	0.120914
O6	O	-0.805282	1.250240	0.120913
O7	O	-0.905458	1.605078	0.120917
Cu8	Cu	-0.860069	1.424275	0.142993
Cu9	Cu	-0.799204	1.468099	-0.142955
O10	O	-1.157541	1.422622	0.120916
C11	C	-0.761068	1.223275	0.000016
C12	C	-0.705977	1.087719	0.000014
C13	C	-0.858092	1.016240	0.000014
C14	C	-0.801156	0.876135	0.000012
N15	N	-0.902881	1.393461	0.344113
C16	C	-0.448894	1.449233	0.000013
C17	C	-0.210371	1.443147	0.000011
C18	C	-0.898204	1.669100	0.000019
C19	C	-0.953293	1.804658	0.000011
N20	N	-0.756380	1.498923	-0.344074
C21	C	-0.811817	1.459002	0.416312
C22	C	-0.847457	1.433373	0.583730
H23	H	-0.628755	0.833619	-0.000026
H24	H	-0.652016	1.574010	0.593802
H25	H	-1.125689	0.847177	0.000021
C26	C	-1.249977	1.320722	0.391278
C27	C	-1.043747	1.292090	0.427967
H28	H	-1.336935	1.258132	0.443037
H29	H	-1.308376	1.398782	0.416145
H30	H	-1.244481	1.324648	0.289768
H31	H	-1.049242	1.288173	0.529475
H32	H	-0.985334	1.214009	0.403109
H33	H	-1.030475	1.058766	0.000023
C34	C	-0.757147	1.675440	0.369200
C35	C	-0.670963	1.560391	0.332495
H36	H	-0.670183	1.738038	0.317474
H37	H	-0.897035	1.694840	0.344302
H38	H	-0.762638	1.671469	0.470716
H39	H	-0.665488	1.564359	0.230980
H40	H	-0.531038	1.540987	0.357383
H41	H	-0.533588	1.045197	-0.000024
H42	H	-0.951802	1.358277	0.645854
