data_functionalizedCrystal
_audit_creation_method	'MofGen! by Chris Wilmer'
_symmetry_space_group_name_H-M	'P1'
_symmetry_Int_Tables_number	1
_symmetry_cell_setting	triclinic
loop_
_symmetry_equiv_pos_as_xyz
  x,y,z
_cell_length_a	12.759399
_cell_length_b	21.395364
_cell_length_c	21.395356
_cell_angle_alpha	90.017236
_cell_angle_beta	89.976068
_cell_angle_gamma	89.968183
loop_
_atom_site_label
_atom_site_type_symbol
_atom_site_fract_x
_atom_site_fract_y
_atom_site_fract_z
Zn1	Zn	-0.417820	-0.957877	-0.354292
Zn2	Zn	-0.593514	-0.957823	-0.249523
Zn3	Zn	-0.417901	-0.853107	-0.249528
Zn4	Zn	-0.593508	-0.853090	-0.354262
O5	O	-0.505686	-0.905474	-0.301901
O6	O	-0.441094	-1.045548	-0.340405
O7	O	-0.570255	-0.943917	-0.161846
O8	O	-0.270869	-0.867035	-0.263440
O9	O	-0.570176	-1.045508	-0.263432
O10	O	-0.270809	-0.944009	-0.340410
O11	O	-0.441232	-0.866982	-0.161849
O12	O	-0.441227	-0.765427	-0.263410
O13	O	-0.570167	-0.867006	-0.441944
O14	O	-0.570245	-0.765414	-0.340358
O15	O	-0.441089	-0.943993	-0.441966
O16	O	-0.740534	-0.943900	-0.263402
O17	O	-0.740530	-0.866953	-0.340353
C18	C	-0.505745	-0.742687	-0.301881
C19	C	-0.505796	-0.673045	-0.301888
C20	C	-0.438695	-0.640375	-0.342030
C21	C	-0.438670	-0.574940	-0.342031
C22	C	-0.505765	-0.542177	-0.301898
C23	C	-0.572871	-0.574855	-0.261748
C24	C	-0.572886	-0.640289	-0.261743
C25	C	-0.600387	-0.438469	-0.296863
C26	C	-0.600373	-0.373036	-0.296872
C27	C	-0.505718	-0.340356	-0.301909
C28	C	-0.411073	-0.373118	-0.306950
C29	C	-0.411088	-0.438552	-0.306945
C30	C	-0.505756	-0.471225	-0.301898
C31	C	-0.438584	-0.236734	-0.342055
C32	C	-0.438558	-0.171297	-0.342052
C33	C	-0.572769	-0.171213	-0.261772
C34	C	-0.572786	-0.236649	-0.261771
C35	C	-0.505695	-0.269405	-0.301916
C36	C	-0.778653	-0.905436	-0.301887
C37	C	-0.895430	-0.905477	-0.301902
C38	C	-0.950259	-0.945589	-0.261879
C39	C	-1.059983	-0.945629	-0.261900
C40	C	-1.060039	-0.865440	-0.341968
C41	C	-0.950317	-0.865403	-0.341950
C42	C	-1.209821	-1.019585	-0.239607
C43	C	-1.264654	-1.059692	-0.199574
C44	C	-1.229096	-1.069338	-0.138441
C45	C	-1.138708	-1.038867	-0.117329
C46	C	-1.083881	-0.998756	-0.157358
C47	C	-1.119436	-0.989123	-0.218499
C48	C	-0.800477	-0.791446	-0.364237
C49	C	-0.745648	-0.751331	-0.404264
C50	C	-0.781203	-0.741679	-0.465397
C51	C	-0.871595	-0.772138	-0.486508
C52	C	-0.926424	-0.812253	-0.446481
C53	C	-0.890861	-0.821906	-0.385348
C54	C	-0.231652	-0.905530	-0.301929
C55	C	-0.114876	-0.905554	-0.301941
C56	C	-0.505618	-0.905503	-0.465325
C57	C	-0.505589	-0.905516	-0.534966
C58	C	-0.505639	-0.068898	-0.301918
C59	C	-0.505653	-0.138539	-0.301917
C60	C	-0.438211	-0.945662	-1.036775
C61	C	-0.438236	-0.945657	-0.971340
C62	C	-0.505449	-0.905569	-0.938604
C63	C	-0.572661	-0.865495	-0.971310
C64	C	-0.572641	-0.865506	-1.036744
C65	C	-0.513797	-0.849102	-0.834928
C66	C	-0.513810	-0.849090	-0.769495
C67	C	-0.505517	-0.905537	-0.736783
C68	C	-0.497189	-0.961998	-0.769513
C69	C	-0.497169	-0.962008	-0.834947
C70	C	-0.505479	-0.905554	-0.867652
C71	C	-0.438342	-0.945607	-0.633133
C72	C	-0.438374	-0.945603	-0.567697
C73	C	-0.572794	-0.865436	-0.567668
C74	C	-0.572766	-0.865445	-0.633104
C75	C	-0.505535	-0.905530	-0.665832
C76	C	-0.505677	-0.905481	-0.139114
C77	C	-0.505410	-0.905590	-0.069473
H78	H	-0.627530	-0.666889	-0.229054
N79	N	-0.986387	-0.965892	-0.134612
H80	H	-1.004419	-0.938699	-0.097536
H81	H	-0.932398	-0.997970	-0.121840
H82	H	-0.383471	-0.978304	-1.063419
H83	H	-0.334025	-0.465224	-0.311047
N84	N	-0.365757	-0.988878	-0.936062
H85	H	-0.323165	-1.014274	-0.966725
H86	H	-0.317162	-0.963373	-0.908917
N87	N	-0.366224	-0.272070	-0.385349
H88	H	-0.323704	-0.241441	-0.410776
H89	H	-0.317557	-0.299232	-0.359893
N90	N	-1.288228	-1.112601	-0.095266
H91	H	-1.251989	-1.114088	-0.053333
H92	H	-1.362194	-1.096713	-0.089686
N93	N	-0.308971	-0.337882	-0.312388
H94	H	-0.323317	-0.291458	-0.311623
H95	H	-0.261922	-0.349328	-0.276204
N96	N	-0.365894	-0.988830	-0.532432
H97	H	-0.290829	-0.979109	-0.543827
H98	H	-0.376196	-0.982727	-0.486024
H99	H	-0.383597	-0.978245	-0.659782
H100	H	-0.672041	-0.726533	-0.387072
H101	H	-0.520552	-0.803132	-0.861556
H102	H	-0.627524	-0.832798	-0.541016
N103	N	-0.366162	-0.136057	-0.385338
H104	H	-0.323663	-0.166739	-0.410765
H105	H	-0.408975	-0.108894	-0.414291
N106	N	-0.366334	-0.675705	-0.385325
H107	H	-0.323821	-0.645076	-0.410755
H108	H	-0.317661	-0.702864	-0.359871
H109	H	-0.736551	-0.709012	-0.497986
N110	N	-0.645241	-0.822223	-0.668375
H111	H	-0.687825	-0.796826	-0.637711
H112	H	-0.602478	-0.793240	-0.695526
H113	H	-0.520590	-0.803117	-0.742852
N114	N	-0.645161	-0.822261	-0.936007
H115	H	-0.634975	-0.828333	-0.889593
H116	H	-0.628828	-0.777517	-0.947442
N117	N	-0.488199	-1.022899	-0.870250
H118	H	-0.482949	-1.058660	-0.839603
H119	H	-0.552205	-1.028704	-0.897388
N120	N	-0.645129	-0.135886	-0.218478
H121	H	-0.634937	-0.089476	-0.224570
H122	H	-0.720189	-0.147294	-0.228151
N123	N	-0.645161	-0.271891	-0.218476
H124	H	-0.687662	-0.241208	-0.193050
H125	H	-0.693844	-0.299030	-0.243926
N126	N	-0.702486	-0.473713	-0.291430
H127	H	-0.700995	-0.500845	-0.252818
H128	H	-0.762381	-0.442991	-0.288269
H129	H	-0.627500	-0.548175	-0.229070
H130	H	-0.627364	-0.832874	-1.063366
H131	H	-0.771513	-0.799306	-0.314458
H132	H	-0.384023	-0.548335	-0.374718
N133	N	-0.702446	-0.337702	-0.291433
H134	H	-0.749556	-0.349085	-0.327608
H135	H	-0.738011	-0.349073	-0.250822
N136	N	-0.891056	-0.988811	-0.218689
H137	H	-0.942444	-1.014229	-0.193340
H138	H	-0.845448	-1.017775	-0.244214
H139	H	-0.490432	-1.007962	-0.742881
N140	N	-1.100357	-1.049264	-0.051389
H141	H	-1.156342	-1.035831	-0.020813
H142	H	-1.084240	-1.095058	-0.045139
N143	N	-1.362144	-1.092553	-0.222341
H144	H	-1.376347	-1.080363	-0.267146
H145	H	-1.351596	-1.139262	-0.219652
N146	N	-1.248165	-1.009185	-0.305547
H147	H	-1.249201	-1.050329	-0.328692
H148	H	-1.321257	-0.991081	-0.304370
H149	H	-1.104741	-0.832813	-0.374573
H150	H	-1.000023	-0.837057	-0.463675
N151	N	-0.909958	-0.761728	-0.552444
H152	H	-0.861508	-0.731695	-0.574597
H153	H	-0.911005	-0.802895	-0.575545
