data_functionalizedCrystal
_audit_creation_method	'MofGen! by Chris Wilmer'
_symmetry_space_group_name_H-M	'P1'
_symmetry_Int_Tables_number	1
_symmetry_cell_setting	triclinic
loop_
_symmetry_equiv_pos_as_xyz
  x,y,z
_cell_length_a	18.426585
_cell_length_b	23.196402
_cell_length_c	23.196401
_cell_angle_alpha	60.007332
_cell_angle_beta	90.013019
_cell_angle_gamma	60.005651
loop_
_atom_site_label
_atom_site_type_symbol
_atom_site_fract_x
_atom_site_fract_y
_atom_site_fract_z
Zr1	Zr	0.699168	0.631001	-0.075645
O2	O	0.583279	0.751260	-0.167690
O3	O	0.734684	0.510741	-0.047431
O4	O	0.734663	0.631004	-0.167697
O5	O	0.583329	0.630995	0.047448
O6	O	0.854089	0.631008	-0.167700
O7	O	0.583300	0.630997	-0.047424
O8	O	0.854126	0.415879	0.047434
O9	O	0.583291	0.846124	-0.167686
O10	O	0.838970	0.560209	-0.035397
O11	O	0.749865	0.560205	0.035407
O12	O	0.749840	0.701799	-0.106191
O13	O	0.660735	0.701795	-0.035388
Zr14	Zr	0.889684	0.631005	0.075660
Zr15	Zr	0.889639	0.631007	-0.075649
Zr16	Zr	0.699214	0.630999	0.075664
Zr17	Zr	0.699187	0.782298	-0.075639
Zr18	Zr	0.889665	0.479708	0.075654
O19	O	0.854169	0.751266	0.047447
O20	O	0.854104	0.751269	-0.167695
O21	O	0.583344	0.751256	0.047452
O22	O	1.005573	0.510746	0.167705
O23	O	1.005508	0.510750	-0.047437
O24	O	0.734748	0.510737	0.167710
O25	O	1.005523	0.631011	-0.047432
O26	O	0.854190	0.631002	0.167712
O27	O	0.734764	0.630998	0.167715
O28	O	1.005552	0.631009	0.047439
O29	O	0.734690	0.846129	-0.167689
O30	O	0.854162	0.415877	0.167704
O31	O	1.005561	0.415882	0.167701
O32	O	1.005525	0.415884	0.047431
O33	O	0.583328	0.846122	-0.047416
O34	O	0.734726	0.846127	-0.047419
O35	O	0.839012	0.560207	0.106206
O36	O	0.928117	0.560211	0.035403
O37	O	0.838988	0.701801	-0.035391
O38	O	0.749883	0.701797	0.035412
C39	C	0.794402	0.441753	0.000000
C40	C	0.794394	0.377524	-0.000002
C41	C	0.860203	0.295097	0.052257
C42	C	0.860209	0.234736	0.052264
C43	C	0.794413	0.256808	0.000000
C44	C	0.728592	0.339249	-0.052264
C45	C	0.728583	0.399607	-0.052265
C46	C	0.773908	0.201221	-0.063791
C47	C	0.773923	0.140862	-0.063791
C48	C	0.794437	0.070646	0.000003
C49	C	0.814953	0.060787	0.063801
C50	C	0.814944	0.121145	0.063800
C51	C	0.794415	0.191366	-0.000004
C52	C	0.860256	-0.077234	0.052274
C53	C	0.860256	-0.137594	0.052281
C54	C	0.728642	-0.033078	-0.052253
C55	C	0.728639	0.027279	-0.052254
C56	C	0.794450	0.005195	0.000009
C57	C	0.556177	0.630995	0.000012
C58	C	0.475317	0.630992	0.000014
C59	C	0.179202	0.631017	0.000002
C60	C	0.261588	0.631013	0.000003
C61	C	0.327257	0.631005	0.000007
C62	C	0.409648	0.631001	0.000010
C63	C	1.032676	0.631011	0.000003
C64	C	1.113535	0.631014	0.000001
C65	C	0.794369	0.631006	-0.189257
C66	C	0.794350	0.631007	-0.253491
C67	C	0.794450	0.820253	0.000015
C68	C	0.794458	0.884483	0.000017
C69	C	0.747830	0.704913	-0.320618
C70	C	0.747852	0.704914	-0.380974
C71	C	0.794383	0.631005	-0.374198
C72	C	0.840913	0.557089	-0.307059
C73	C	0.840897	0.557090	-0.246706
C74	C	0.787767	0.574379	-0.441517
C75	C	0.787777	0.574381	-0.501870
C76	C	0.794439	0.630999	-0.560345
C77	C	0.801073	0.687628	-0.558466
C78	C	0.801056	0.687629	-0.498113
C79	C	0.794406	0.630996	-0.439636
C80	C	0.747941	0.704911	-0.692919
C81	C	0.747970	0.704909	-0.753274
C82	C	0.841025	0.557082	-0.679357
C83	C	0.841002	0.557086	-0.619004
C84	C	0.794455	0.631003	-0.625790
C85	C	0.794483	0.631000	0.189272
C86	C	0.794502	0.630999	0.253507
C87	C	1.032652	0.441761	-0.000004
C88	C	1.113503	0.377534	-0.000008
C89	C	0.794459	0.441750	0.189265
C90	C	0.794470	0.377520	0.253497
C91	C	1.032709	0.441758	0.189260
C92	C	1.113580	0.377530	0.253491
C93	C	0.556144	0.820248	-0.189245
C94	C	0.475273	0.884476	-0.253476
C95	C	0.556201	0.820245	0.000019
C96	C	0.475349	0.884472	0.000023
C97	C	0.794393	0.820256	-0.189250
C98	C	0.794382	0.884486	-0.253482
C99	C	1.104938	0.347372	-0.036973
C100	C	1.180899	0.287032	-0.036991
C101	C	1.265425	0.256852	-0.000040
C102	C	1.273989	0.287021	0.036926
C103	C	1.198028	0.347363	0.036940
C104	C	0.841010	0.347357	0.320624
C105	C	0.841017	0.287014	0.380983
C106	C	0.794489	0.256831	0.374213
C107	C	0.747944	0.286999	0.307079
C108	C	0.747932	0.347345	0.246722
C109	C	1.198077	0.347370	0.246695
C110	C	1.274071	0.287030	0.307041
C111	C	1.265566	0.256846	0.374181
C112	C	1.181059	0.287012	0.380975
C113	C	1.105067	0.347356	0.320630
C114	C	0.390775	0.914643	-0.246680
C115	C	0.314781	0.975002	-0.307026
C116	C	0.323287	1.005189	-0.374166
C117	C	0.407793	0.975019	-0.380960
C118	C	0.483785	0.914665	-0.320615
C119	C	0.483914	0.914641	0.036982
C120	C	0.407953	0.974997	0.036983
C121	C	0.323427	1.005179	0.000030
C122	C	0.314864	0.975008	-0.036934
C123	C	0.390824	0.914657	-0.036938
C124	C	0.840919	0.914651	-0.246689
C125	C	0.840925	0.974995	-0.307037
C126	C	0.794390	1.005177	-0.374176
C127	C	0.747852	0.975006	-0.380967
C128	C	0.747851	0.914659	-0.320620
H129	H	0.913800	0.167611	0.094822
H130	H	0.913840	-0.095216	0.094832
C131	C	0.417384	1.008178	0.077643
H132	H	0.360043	1.048452	0.072349
H133	H	0.448958	0.964852	0.126263
H134	H	0.448960	1.031714	0.059388
C135	C	0.417138	1.008224	-0.454816
H136	H	0.359773	1.048481	-0.489776
H137	H	0.448707	1.031771	-0.460124
H138	H	0.448686	0.964899	-0.460117
C139	C	0.656219	0.363529	-0.109753
H140	H	0.665655	0.315777	-0.102273
H141	H	0.599424	0.394885	-0.107585
H142	H	0.658940	0.394897	-0.154874
C143	C	0.381406	0.881449	-0.172832
H144	H	0.438761	0.841178	-0.137859
H145	H	0.349851	0.924773	-0.167536
H146	H	0.349831	0.857906	-0.167540
C147	C	1.349159	0.190471	0.440557
H148	H	1.331998	0.176815	0.481520
H149	H	1.383527	0.143389	0.440553
H150	H	1.383521	0.210271	0.440549
C151	C	0.932585	0.270804	0.109750
H152	H	0.971775	0.213065	0.140878
H153	H	0.965073	0.292183	0.088281
H154	H	0.905556	0.292169	0.135570
H155	H	0.794506	0.207693	0.423366
H156	H	1.342820	0.262439	0.067011
H157	H	1.036120	0.371944	-0.067072
H158	H	0.245980	0.999556	-0.301480
C159	C	0.239879	1.071562	0.000043
H160	H	0.257094	1.085197	0.027354
H161	H	0.205496	1.118653	-0.047038
H162	H	0.205512	1.051778	0.019839
H163	H	1.036268	0.371904	0.326173
H164	H	1.205015	0.371914	0.067045
C165	C	0.892222	0.253833	0.454823
H166	H	0.885561	0.213577	0.489805
H167	H	0.953426	0.230290	0.460110
H168	H	0.869252	0.297168	0.460110
C169	C	0.239690	1.071566	-0.440539
H170	H	0.188151	1.085197	-0.426870
H171	H	0.239667	1.118661	-0.467850
H172	H	0.239671	1.051776	-0.467838
C173	C	0.696793	0.786208	-0.827118
H174	H	0.703476	0.775623	-0.862091
H175	H	0.635583	0.816570	-0.832423
H176	H	0.719762	0.816584	-0.832399
C177	C	0.656264	-0.008793	-0.109739
H178	H	0.665696	-0.056545	-0.102256
H179	H	0.599471	0.022565	-0.107569
H180	H	0.658983	0.022574	-0.154861
H181	H	0.674989	0.466726	-0.094820
H182	H	0.709951	0.890106	-0.326161
H183	H	0.831647	0.113115	0.115745
H184	H	0.552585	0.890103	-0.326156
H185	H	1.173909	0.262476	-0.067093
H186	H	1.174147	0.262428	0.435649
H187	H	0.552733	0.890071	0.067079
H188	H	0.246033	0.999591	-0.067020
H189	H	0.383838	0.890095	-0.067033
H190	H	1.327270	0.207716	-0.000056
H191	H	0.878813	0.890086	-0.192027
H192	H	0.878898	0.371926	0.326150
C193	C	0.696780	0.253782	0.299641
H194	H	0.703468	0.213515	0.345205
H195	H	0.635567	0.297092	0.274567
H196	H	0.719760	0.230226	0.274572
H197	H	0.710037	0.371895	0.192066
H198	H	0.878821	0.999553	-0.301493
C199	C	1.207451	0.380564	0.172849
H200	H	1.268663	0.353959	0.177455
H201	H	1.179744	0.370670	0.147766
H202	H	1.179744	0.437544	0.147773
H203	H	0.794398	1.054315	-0.423308
C204	C	0.892064	0.475790	-0.172863
H205	H	0.919777	0.431770	-0.177468
H206	H	0.936080	0.472718	-0.147765
H207	H	0.851891	0.472719	-0.147802
C208	C	0.696659	1.008219	-0.454822
H209	H	0.703321	1.048485	-0.489783
H210	H	0.719613	0.964907	-0.460133
H211	H	0.635447	1.031774	-0.460116
H212	H	0.831651	0.003618	0.115747
H213	H	0.675054	0.094397	-0.094813
C214	C	0.932652	-0.228267	0.109768
H215	H	0.971847	-0.232769	0.140887
H216	H	0.905643	-0.253995	0.135590
H217	H	0.965143	-0.253974	0.088288
C218	C	0.751355	0.151710	-0.133964
H219	H	0.739120	0.202178	-0.171958
H220	H	0.800356	0.108350	-0.133244
H221	H	0.700649	0.151311	-0.139988
H222	H	0.757194	0.258396	-0.115744
H223	H	1.342873	0.262475	0.301497
H224	H	0.709967	0.765100	-0.435639
C225	C	0.696638	0.786219	-0.328084
H226	H	0.668941	0.830235	-0.376711
H227	H	0.652608	0.789291	-0.306090
H228	H	0.736794	0.789294	-0.306066
C229	C	0.808358	0.749911	-0.496040
H230	H	0.807387	0.741804	-0.451723
H231	H	0.862467	0.742788	-0.502350
H232	H	0.759710	0.803570	-0.532764
C233	C	0.808421	0.749900	-0.622776
H234	H	0.807497	0.741782	-0.658986
H235	H	0.759781	0.803561	-0.639728
H236	H	0.862536	0.742758	-0.609289
C237	C	0.696760	0.786215	-0.700378
H238	H	0.669070	0.830233	-0.749004
H239	H	0.652725	0.789294	-0.678388
H240	H	0.736922	0.789281	-0.678354
H241	H	0.878913	0.496903	-0.673838
H242	H	0.782371	0.528273	-0.503396
C243	C	0.892163	0.475788	-0.545162
H244	H	0.919873	0.431769	-0.549769
H245	H	0.936182	0.472714	-0.520065
H246	H	0.851991	0.472718	-0.520100
H247	H	0.878800	0.496911	-0.301545
C248	C	0.780434	0.512098	-0.377200
H249	H	0.776471	0.478382	-0.386966
H250	H	0.831523	0.479351	-0.337270
H251	H	0.728767	0.540144	-0.367693
