data_functionalizedCrystal
_audit_creation_method	'MofGen! by Chris Wilmer'
_symmetry_space_group_name_H-M	'P1'
_symmetry_Int_Tables_number	1
_symmetry_cell_setting	triclinic
loop_
_symmetry_equiv_pos_as_xyz
  x,y,z
_cell_length_a	25.639239
_cell_length_b	13.032951
_cell_length_c	13.034356
_cell_angle_alpha	105.186779
_cell_angle_beta	82.788040
_cell_angle_gamma	97.159836
loop_
_atom_site_label
_atom_site_type_symbol
_atom_site_fract_x
_atom_site_fract_y
_atom_site_fract_z
Zn1	Zn	-0.265088	-1.699996	-0.806435
Zn2	Zn	0.234912	-1.199996	-0.306435
Zn3	Zn	-0.362374	-1.677236	-0.628784
Zn4	Zn	0.137626	-1.177236	-0.128784
Zn5	Zn	-0.265088	-1.499800	-0.606311
Zn6	Zn	0.234912	-0.999800	-0.106311
Zn7	Zn	-0.342618	-1.522281	-0.783836
Zn8	Zn	0.157382	-1.022281	-0.283836
O9	O	-0.308792	-1.599828	-0.706341
O10	O	0.191208	-1.099828	-0.206341
O11	O	-0.286261	-1.845609	-0.801731
O12	O	0.213739	-1.345609	-0.301731
O13	O	-0.357737	-1.634766	-0.477160
O14	O	0.142263	-1.134766	0.022840
O15	O	-0.191927	-1.526473	-0.632911
O16	O	0.308073	-1.026473	-0.132911
O17	O	-0.357736	-1.828888	-0.671212
O18	O	0.142264	-1.328888	-0.171212
O19	O	-0.191927	-1.673556	-0.779941
O20	O	0.308073	-1.173556	-0.279941
O21	O	-0.286261	-1.504404	-0.460650
O22	O	0.213739	-1.004404	0.039350
O23	O	-0.267104	-1.354150	-0.610998
O24	O	0.232896	-0.854150	-0.110998
O25	O	-0.324065	-1.564788	-0.935476
O26	O	0.175935	-1.064788	-0.435476
O27	O	-0.324065	-1.370666	-0.741425
O28	O	0.175935	-0.870666	-0.241425
O29	O	-0.267104	-1.695355	-0.952079
O30	O	0.232896	-1.195355	-0.452079
O31	O	-0.432914	-1.656565	-0.649299
O32	O	0.067086	-1.156565	-0.149299
O33	O	-0.418400	-1.542719	-0.763215
O34	O	0.081600	-1.042719	-0.263215
C35	C	-0.293441	-1.323870	-0.671322
C36	C	0.206559	-0.823870	-0.171322
C37	C	-0.286886	-1.205816	-0.656365
C38	C	0.213114	-0.705816	-0.156365
C39	C	-0.444627	-1.599643	-0.706270
C40	C	0.055373	-1.099643	-0.206270
C41	C	-0.502741	-1.599666	-0.706288
C42	C	-0.002741	-1.099666	-0.206288
C43	C	-0.312202	-1.161372	-0.714133
C44	C	0.187798	-0.661372	-0.214133
C45	C	-0.305427	-1.039358	-0.698676
C46	C	0.194573	-0.539358	-0.198676
C47	C	-0.870660	-1.659299	-0.647163
C48	C	-0.370660	-1.159299	-0.147163
C49	C	-0.925266	-1.659342	-0.647183
C50	C	-0.425266	-1.159342	-0.147183
O51	O	-0.959919	-1.709853	-0.596836
O52	O	-0.459919	-1.209853	-0.096836
N53	N	-0.945037	-1.600024	-0.706436
N54	N	-0.445037	-1.100024	-0.206436
C55	C	-0.910200	-1.540667	-0.765681
C56	C	-0.410200	-1.040667	-0.265681
O57	O	-0.932031	-1.490217	-0.816083
O58	O	-0.432031	-0.990217	-0.316083
C59	C	-0.855595	-1.540631	-0.765667
C60	C	-0.355595	-1.040631	-0.265667
C61	C	-0.835827	-1.599945	-0.706402
C62	C	-0.335827	-1.099945	-0.206402
C63	C	-0.850891	-1.718609	-0.587904
C64	C	-0.350891	-1.218609	-0.087904
C65	C	-0.796289	-1.718565	-0.587883
C66	C	-0.296289	-1.218565	-0.087883
C67	C	-0.761456	-1.659210	-0.647122
C68	C	-0.261456	-1.159210	-0.147122
C69	C	-0.781225	-1.599900	-0.706381
C70	C	-0.281225	-1.099900	-0.206381
C71	C	-0.820758	-1.481281	-0.824918
C72	C	-0.320758	-0.981281	-0.324918
C73	C	-0.766150	-1.481250	-0.824900
C74	C	-0.266150	-0.981250	-0.324900
C75	C	-0.746382	-1.540564	-0.765635
C76	C	-0.246382	-1.040564	-0.265635
C77	C	-0.691789	-1.540500	-0.765599
C78	C	-0.191789	-1.040500	-0.265599
N79	N	-0.672018	-1.599819	-0.706346
N80	N	-0.172018	-1.099819	-0.206346
C81	C	-0.706851	-1.659174	-0.647108
C82	C	-0.206851	-1.159174	-0.147108
C83	C	-1.024874	-1.540749	-0.765708
C84	C	-0.524874	-1.040749	-0.265708
C85	C	-1.079477	-1.540779	-0.765717
C86	C	-0.579477	-1.040779	-0.265717
C87	C	-1.094540	-1.659456	-0.647219
C88	C	-0.594540	-1.159456	-0.147219
C89	C	-1.039935	-1.659420	-0.647205
C90	C	-0.539935	-1.159420	-0.147205
C91	C	-1.005102	-1.600068	-0.706455
C92	C	-0.505102	-1.100068	-0.206455
C93	C	-0.592182	-1.659074	-0.647068
C94	C	-0.092182	-1.159074	-0.147068
C95	C	-0.537575	-1.659021	-0.647049
C96	C	-0.037575	-1.159021	-0.147049
C97	C	-0.522517	-1.540349	-0.765550
C98	C	-0.022517	-1.040349	-0.265550
C99	C	-0.577120	-1.540397	-0.765565
C100	C	-0.077120	-1.040397	-0.265565
C101	C	-0.611952	-1.599768	-0.706322
C102	C	-0.111952	-1.099768	-0.206322
O103	O	-0.657105	-1.490019	-0.815923
O104	O	-0.157105	-0.990019	-0.315923
O105	O	-0.685012	-1.709626	-0.596726
O106	O	-0.185012	-1.209626	-0.096726
C107	C	-0.172426	-1.600046	-0.706440
C108	C	0.327574	-1.100046	-0.206440
C109	C	-0.114315	-1.600138	-0.706482
C110	C	0.385685	-1.100138	-0.206482
C111	C	-0.293381	-1.635118	-0.983397
C112	C	0.206619	-1.135118	-0.483397
C113	C	-0.286814	-1.650157	-1.101461
C114	C	0.213186	-1.150157	-0.601461
C115	C	-0.324197	-0.876864	-0.741492
C116	C	0.175803	-0.376864	-0.241492
C117	C	-0.330748	-0.994917	-0.756452
C118	C	0.169252	-0.494917	-0.256452
C119	C	-0.305285	-1.607799	-1.267909
C120	C	0.194715	-1.107799	-0.767909
C121	C	-0.312072	-1.592254	-1.145883
C122	C	0.187928	-1.092254	-0.645883
C123	C	-0.324108	-1.564737	-0.430372
C124	C	0.175892	-1.064737	0.069628
C125	C	-0.330540	-1.549904	-0.312334
C126	C	0.169460	-1.049904	0.187666
H127	H	-0.338891	-1.213652	-0.775037
H128	H	0.161109	-0.713652	-0.275037
O129	O	-0.270079	-0.970124	-0.617979
O130	O	0.229921	-0.470124	-0.117979
H131	H	-0.270312	-0.885152	-0.618487
H132	H	0.229688	-0.385152	-0.118487
O133	O	-0.366104	-1.064148	-0.837136
O134	O	0.133896	-0.564148	-0.337136
H135	H	-0.365879	-1.149118	-0.836615
H136	H	0.134121	-0.649118	-0.336615
H137	H	-0.879248	-1.766949	-0.539665
H138	H	-0.379248	-1.266949	-0.039665
H139	H	-0.278640	-1.668878	-1.320215
H140	H	0.221360	-1.168878	-0.820215
O141	O	-0.251514	-1.731070	-1.170725
O142	O	0.248486	-1.231070	-0.670725
H143	H	-0.210643	-1.710234	-1.147203
H144	H	0.289357	-1.210234	-0.647203
H145	H	-1.122911	-1.707790	-0.598988
H146	H	-0.622911	-1.207790	-0.098988
O147	O	-0.987304	-1.476701	-0.829587
O148	O	-0.487304	-0.976701	-0.329587
H149	H	-1.010230	-1.435451	-0.870773
H150	H	-0.510230	-0.935451	-0.370773
O151	O	-0.347370	-1.511340	-1.076617
O152	O	0.152630	-1.011340	-0.576617
H153	H	-0.347159	-1.511819	-0.991642
H154	H	0.152841	-1.011819	-0.491642
H155	H	-0.260193	-1.153537	-0.595469
H156	H	0.239807	-0.653537	-0.095469
H157	H	-0.357188	-1.488833	-1.260029
H158	H	0.142812	-0.988833	-0.760029
H159	H	-0.521482	-1.707321	-0.598784
H160	H	-0.021482	-1.207321	-0.098784
H161	H	-0.620537	-1.707422	-0.598829
H162	H	-0.120537	-1.207422	-0.098829
H163	H	-0.836843	-1.432975	-0.873173
H164	H	-0.336843	-0.932975	-0.373173
H165	H	-0.780198	-1.766866	-0.539628
H166	H	-0.280198	-1.266866	-0.039628
H167	H	-1.023844	-1.707719	-0.598947
H168	H	-0.523844	-1.207719	-0.098947
H169	H	-0.737791	-1.432921	-0.873152
H170	H	-0.237791	-0.932921	-0.373152
O171	O	-1.100797	-1.476797	-0.829629
O172	O	-0.600797	-0.976797	-0.329629
H173	H	-1.067397	-1.435526	-0.870820
H174	H	-0.567397	-0.935526	-0.370820
H175	H	-0.593216	-1.492103	-0.813827
H176	H	-0.093216	-0.992103	-0.313827
H177	H	-0.494147	-1.492019	-0.813778
H178	H	0.005853	-0.992019	-0.313778
