data_functionalizedCrystal
_audit_creation_method	'MofGen! by Chris Wilmer'
_symmetry_space_group_name_H-M	'P1'
_symmetry_Int_Tables_number	1
_symmetry_cell_setting	triclinic
loop_
_symmetry_equiv_pos_as_xyz
  x,y,z
_cell_length_a	17.038278
_cell_length_b	17.038272
_cell_length_c	15.186229
_cell_angle_alpha	89.995962
_cell_angle_beta	89.996532
_cell_angle_gamma	91.111028
loop_
_atom_site_label
_atom_site_type_symbol
_atom_site_fract_x
_atom_site_fract_y
_atom_site_fract_z
O1	O	1.048753	0.170526	-0.073237
O2	O	0.820941	0.167820	-0.073237
O3	O	0.933493	0.055267	-0.073230
O4	O	0.936201	0.283079	-0.073244
O5	O	0.933485	0.055265	0.073227
O6	O	0.820933	0.167818	0.073220
O7	O	1.048745	0.170524	0.073220
Zn8	Zn	0.934838	0.169171	0.096473
Zn9	Zn	0.934848	0.169173	-0.096491
O10	O	0.936193	0.283077	0.073213
C11	C	0.791645	0.165356	-0.000009
C12	C	0.704361	0.158009	-0.000009
C13	C	0.210935	0.112872	-0.000009
C14	C	0.292947	0.119781	-0.000004
C15	C	0.329347	0.194155	-0.000013
C16	C	0.283730	0.261623	-0.000017
C17	C	0.201720	0.254713	-0.000016
C18	C	0.576734	0.218567	-0.000012
C19	C	0.658751	0.225473	-0.000016
C20	C	0.667962	0.083630	-0.000001
C21	C	0.585949	0.076726	-0.000005
C22	C	0.540340	0.144194	-0.000005
C23	C	0.413176	0.201219	-0.000011
C24	C	0.456513	0.137129	-0.000001
C25	C	0.931026	0.025974	-0.000002
C26	C	0.923678	-0.061310	-0.000002
C27	C	0.991142	-0.106920	-0.000001
C28	C	0.984233	-0.188932	-0.000009
C29	C	0.909859	-0.225332	-0.000012
C30	C	0.842391	-0.179716	-0.000016
C31	C	0.849300	-0.097706	-0.000014
C32	C	0.885449	-0.472720	-0.000025
C33	C	0.878544	-0.554736	-0.000024
C34	C	1.020387	-0.563946	-0.000019
C35	C	1.027290	-0.481934	-0.000012
C36	C	0.959821	-0.436325	-0.000020
C37	C	0.902796	-0.309161	-0.000018
C38	C	0.966886	-0.352497	-0.000020
C39	C	1.078041	0.172988	-0.000011
C40	C	1.165325	0.180335	-0.000016
C41	C	0.938660	0.312370	-0.000017
C42	C	0.946008	0.399654	-0.000023
N43	N	0.934836	0.169168	0.228166
N44	N	0.934856	0.169170	-0.228183
C45	C	0.984693	0.119349	0.453892
C46	C	0.984696	0.119348	0.546082
C47	C	0.884993	0.218991	0.546084
C48	C	0.884987	0.218988	0.453896
C49	C	0.934842	0.169169	0.407803
C50	C	0.934850	0.169170	0.592180
C51	C	0.934852	0.169168	0.692136
C52	C	0.934839	0.169169	0.307840
H53	H	0.539609	0.273505	-0.000016
N54	N	0.152525	0.327478	-0.000034
H55	H	0.095049	0.311815	-0.000030
H56	H	0.164845	0.359657	0.054255
N57	N	0.452439	0.281434	-0.000035
H58	H	0.411104	0.323128	-0.000044
H59	H	0.486262	0.287392	0.054258
N60	N	0.776537	-0.048508	-0.000020
H61	H	0.728373	-0.084010	-0.000022
H62	H	0.776309	-0.014283	0.054272
H63	H	0.844388	0.259557	0.416368
H64	H	0.830511	-0.435595	-0.000031
N65	N	1.071360	-0.067665	0.000011
H66	H	1.101168	-0.083944	-0.054281
H67	H	1.065436	-0.008801	0.000049
N68	N	0.171678	0.032654	-0.000007
H69	H	0.213020	-0.009035	0.000000
H70	H	0.137849	0.026699	0.054287
H71	H	1.039169	-0.226064	-0.000007
H72	H	0.688384	0.286039	-0.000010
H73	H	1.027440	-0.322857	-0.000037
H74	H	0.330080	0.064845	0.000005
H75	H	0.842240	-0.338808	-0.000019
H76	H	0.556319	0.016163	0.000002
H77	H	0.817978	-0.584370	-0.000012
N78	N	0.762172	-0.218972	-0.000025
H79	H	0.768031	-0.277846	-0.000023
H80	H	0.732407	-0.202627	0.054268
N81	N	1.038471	0.065622	0.595793
H82	H	1.075233	0.097972	0.634034
H83	H	1.006100	0.028845	0.634000
H84	H	1.025287	0.078782	0.416364
N85	N	0.417249	0.056918	0.000006
H86	H	0.433533	0.027114	-0.054284
H87	H	0.433541	0.027175	0.054335
N88	N	0.717153	0.010864	0.000003
H89	H	0.774630	0.026524	0.000003
H90	H	0.704825	-0.021308	0.054302
N91	N	0.322982	0.341844	-0.000026
H92	H	0.356802	0.347876	0.054262
H93	H	0.356760	0.347821	-0.054357
N94	N	1.107507	-0.442675	-0.000003
H95	H	1.149198	-0.484014	-0.000003
H96	H	1.113468	-0.408842	-0.054294
N97	N	1.093149	-0.613143	-0.000011
H98	H	1.093448	-0.647370	-0.054304
H99	H	1.141273	-0.577590	0.000024
N100	N	0.831228	0.272723	0.595807
H101	H	0.863553	0.309508	0.634045
H102	H	0.799653	0.304230	0.552566
