data_functionalizedCrystal
_audit_creation_method	'MofGen! by Chris Wilmer'
_symmetry_space_group_name_H-M	'P1'
_symmetry_Int_Tables_number	1
_symmetry_cell_setting	triclinic
loop_
_symmetry_equiv_pos_as_xyz
  x,y,z
_cell_length_a	10.489741
_cell_length_b	9.065218
_cell_length_c	7.540329
_cell_angle_alpha	90.001757
_cell_angle_beta	90.000270
_cell_angle_gamma	84.777530
loop_
_atom_site_label
_atom_site_type_symbol
_atom_site_fract_x
_atom_site_fract_y
_atom_site_fract_z
O1	O	-1.694803	-0.208165	-0.147365
O2	O	-1.323678	-0.227705	-0.147392
O3	O	-1.516911	-0.003256	-0.147374
O4	O	-1.501569	-0.432615	-0.147382
O5	O	-1.516900	-0.003253	0.147591
O6	O	-1.323666	-0.227702	0.147573
O7	O	-1.694791	-0.208162	0.147600
Cu8	Cu	-1.509228	-0.217932	0.174519
Cu9	Cu	-1.509241	-0.217935	-0.174311
O10	O	-1.501558	-0.432612	0.147583
C11	C	-1.515431	0.051725	0.000105
C12	C	-1.511022	0.215547	0.000097
C13	C	-1.276135	-0.226228	0.000087
C14	C	-1.134489	-0.221813	0.000077
C15	C	-1.742334	-0.209640	0.000117
C16	C	-1.883979	-0.214055	0.000116
C17	C	-1.065834	-0.079002	0.000096
C18	C	-0.973956	-0.146466	-0.145334
C19	C	-0.973979	-0.146497	0.145478
C20	C	-1.044478	-0.289335	-0.145474
C21	C	-1.044510	-0.289346	0.145469
C22	C	-0.952660	-0.356914	0.000003
C23	C	-1.503038	-0.487593	0.000099
C24	C	-1.507447	-0.651414	0.000096
N25	N	-1.509227	-0.217929	0.419868
N26	N	-1.509252	-0.217927	-0.419659
H27	H	-0.942728	-0.086041	-0.268286
H28	H	-0.942778	-0.086044	0.268429
C29	C	-1.131427	0.077582	-0.000462
C30	C	-1.095877	0.151666	-0.153097
C31	C	-1.156295	0.295898	-0.153697
H32	H	-1.106334	0.129020	0.101685
H33	H	-1.221630	0.073725	0.000489
H34	H	-1.005693	0.155530	-0.154033
H35	H	-1.120971	0.100272	-0.255270
H36	H	-1.246498	0.292041	-0.152745
H37	H	-1.131197	0.347322	-0.051543
H38	H	-1.132192	0.346177	-0.257265
C39	C	-0.887479	-0.513691	0.000177
C40	C	-0.924894	-0.588687	0.151124
C41	C	-0.864885	-0.733115	0.151324
H42	H	-0.797249	-0.510235	0.001253
H43	H	-0.911646	-0.564258	-0.103155
H44	H	-0.900719	-0.538133	0.254430
H45	H	-1.015114	-0.592185	0.150080
H46	H	-0.889051	-0.783682	0.047993
H47	H	-0.774657	-0.729643	0.152396
H48	H	-0.890271	-0.784022	0.253731
H49	H	-1.075528	-0.349715	-0.268563
H50	H	-1.075769	-0.349722	0.268426
