data_functionalizedCrystal
_audit_creation_method	'MofGen! by Chris Wilmer'
_symmetry_space_group_name_H-M	'P1'
_symmetry_Int_Tables_number	1
_symmetry_cell_setting	triclinic
loop_
_symmetry_equiv_pos_as_xyz
  x,y,z
_cell_length_a	10.723024
_cell_length_b	10.723023
_cell_length_c	9.198806
_cell_angle_alpha	90.003487
_cell_angle_beta	90.002012
_cell_angle_gamma	84.467709
loop_
_atom_site_label
_atom_site_type_symbol
_atom_site_fract_x
_atom_site_fract_y
_atom_site_fract_z
O1	O	0.175020	1.657188	0.120874
O2	O	0.191774	1.294036	0.120879
O3	O	0.001821	1.483989	0.120871
O4	O	0.364973	1.467235	0.120882
O5	O	0.001820	1.483974	-0.120914
O6	O	0.191774	1.294021	-0.120906
O7	O	0.175019	1.657173	-0.120911
Cu8	Cu	0.183396	1.475596	-0.142985
Cu9	Cu	0.183397	1.475613	0.142953
O10	O	0.364973	1.467220	-0.120903
C11	C	0.190555	1.247529	-0.000012
C12	C	0.186908	1.108974	-0.000010
C13	C	0.185281	1.047194	-0.125261
C14	C	0.181511	0.903991	-0.125262
C15	C	-0.044679	1.482762	-0.000020
C16	C	-0.183233	1.479114	-0.000015
C17	C	-0.258216	1.585402	-0.000014
C18	C	-0.401420	1.581634	-0.000009
C19	C	0.411473	1.468447	-0.000009
C20	C	0.550027	1.472095	-0.000005
C21	C	0.176239	1.703680	-0.000016
C22	C	0.179886	1.842235	-0.000009
N23	N	0.183395	1.475592	-0.344099
C24	C	0.103288	1.555348	-0.416300
C25	C	0.103283	1.555367	-0.583712
N26	N	0.183388	1.475627	0.344067
H27	H	0.181292	0.895355	0.107228
H28	H	-0.216394	1.679188	-0.000025
O29	O	-0.233261	1.367299	0.000185
C30	C	-0.307719	1.358614	0.125431
H31	H	-0.339164	1.456726	0.167179
H32	H	-0.250744	1.303834	0.213114
C33	C	-0.384917	1.170090	0.036127
C34	C	-0.423548	1.290593	0.087396
H35	H	-0.456363	1.128127	0.012669
H36	H	-0.334750	1.175937	-0.048251
H37	H	-0.337437	1.124456	0.109205
H38	H	-0.471013	1.336230	0.014312
H39	H	-0.473726	1.284752	0.171761
O40	O	-0.373175	1.363498	-0.000260
C41	C	-0.396466	1.293513	-0.125459
H42	H	-0.440470	1.358958	-0.212985
H43	H	-0.463262	1.220627	-0.097140
C44	C	-0.218188	1.146738	-0.074739
C45	C	-0.272225	1.227120	-0.182244
H46	H	-0.141553	1.105778	-0.109764
H47	H	-0.202498	1.193884	0.009613
H48	H	-0.273864	1.086010	-0.051149
H49	H	-0.216557	1.287855	-0.205818
H50	H	-0.287902	1.179982	-0.266602
O51	O	0.186786	1.110720	-0.253101
C52	C	0.080862	1.199216	-0.260894
H53	H	0.045401	1.222999	-0.146431
H54	H	0.003997	1.158361	-0.326016
C55	C	0.160444	1.289737	-0.476641
C56	C	0.116897	1.318955	-0.336055
H57	H	0.182669	1.363596	-0.523010
H58	H	0.231805	1.230112	-0.471395
H59	H	0.096382	1.255688	-0.530892
H60	H	0.180963	1.352988	-0.281802
H61	H	0.045547	1.378588	-0.341294
H62	H	0.034702	1.623612	-0.354177
O63	O	0.021286	1.636774	-0.657616
C64	C	-0.102370	1.615086	-0.620565
H65	H	-0.102607	1.567052	-0.510025
H66	H	-0.141270	1.552452	-0.706212
C67	C	-0.184283	1.799881	-0.749488
C68	C	-0.184576	1.740895	-0.613715
H69	H	-0.234995	1.877485	-0.745268
H70	H	-0.100975	1.814491	-0.774454
H71	H	-0.216698	1.747674	-0.820845
H72	H	-0.152148	1.793095	-0.542363
H73	H	-0.267882	1.726297	-0.588736
H74	H	0.185506	1.055849	0.107221
O75	O	0.265260	1.394023	-0.417977
C76	C	0.339767	1.319884	-0.318340
H77	H	0.288703	1.317797	-0.209802
H78	H	0.432716	1.361446	-0.302200
C79	C	0.427291	1.188137	-0.511232
C80	C	0.364568	1.185566	-0.377927
H81	H	0.442595	1.105285	-0.547989
H82	H	0.377098	1.238088	-0.578360
H83	H	0.504741	1.222778	-0.497763
H84	H	0.287113	1.150940	-0.391401
H85	H	0.414749	1.135606	-0.310802
H86	H	0.251980	1.407346	-0.593853
H87	H	-0.465852	1.672625	-0.000015
O88	O	0.179617	0.840593	-0.253159
C89	C	0.069761	0.778463	-0.260918
H90	H	-0.004610	0.827010	-0.186181
H91	H	0.091558	0.676852	-0.225364
C92	C	0.112120	0.722648	-0.510174
C93	C	0.020773	0.782281	-0.418389
H94	H	0.081904	0.724998	-0.607309
H95	H	0.186135	0.764502	-0.504946
H96	H	0.130276	0.637978	-0.480527
H97	H	0.002630	0.866953	-0.448024
H98	H	-0.053247	0.740442	-0.423626
