data_functionalizedCrystal
_audit_creation_method	'MofGen! by Chris Wilmer'
_symmetry_space_group_name_H-M	'P1'
_symmetry_Int_Tables_number	1
_symmetry_cell_setting	triclinic
loop_
_symmetry_equiv_pos_as_xyz
  x,y,z
_cell_length_a	13.033286
_cell_length_b	13.033855
_cell_length_c	18.215399
_cell_angle_alpha	97.201593
_cell_angle_beta	82.825818
_cell_angle_gamma	76.696395
loop_
_atom_site_label
_atom_site_type_symbol
_atom_site_fract_x
_atom_site_fract_y
_atom_site_fract_z
Zn1	Zn	1.677454	-0.628836	0.209570
Zn2	Zn	1.699926	-0.806441	0.068624
Zn3	Zn	1.499854	-0.606338	0.104448
Zn4	Zn	1.522397	-0.783860	0.209581
O5	O	1.599908	-0.706369	0.148056
O6	O	1.829057	-0.671262	0.175876
O7	O	1.673356	-0.779932	-0.029609
O8	O	1.504574	-0.460701	0.133380
O9	O	1.845567	-0.801747	0.072324
O10	O	1.635056	-0.477230	0.210613
O11	O	1.526364	-0.632917	-0.003289
O12	O	1.354222	-0.611021	0.133390
O13	O	1.542995	-0.763261	0.312564
O14	O	1.370784	-0.741446	0.210631
O15	O	1.656915	-0.649366	0.312556
O16	O	1.695215	-0.952067	0.072335
O17	O	1.564785	-0.935477	0.175895
C18	C	1.323967	-0.671343	0.175900
C19	C	1.205921	-0.656384	0.187827
C20	C	1.161449	-0.714176	0.141849
C21	C	1.039443	-0.698717	0.154175
C22	C	1.634913	-0.982312	0.120242
C23	C	1.649986	-1.100374	0.108358
C24	C	1.592124	-1.144829	0.154264
C25	C	1.607701	-1.266852	0.141983
C26	C	1.876926	-0.741533	0.120103
C27	C	1.994975	-0.756518	0.108191
C28	C	1.599963	-0.706304	0.340009
C29	C	1.599987	-0.706276	0.421809
C30	C	1.564794	-0.429352	0.175991
C31	C	1.549831	-0.311304	0.187895
C32	C	1.599904	-0.706365	-0.043150
C33	C	1.600048	-0.706119	-0.124940
C34	C	1.659321	-0.646910	0.610004
C35	C	1.659330	-0.646881	0.686864
C36	C	1.540706	-0.765487	0.686861
C37	C	1.540692	-0.765510	0.610002
C38	C	1.600006	-0.706224	0.571575
C39	C	1.600029	-0.706172	0.725294
C40	C	1.600038	-0.706140	0.808630
C41	C	1.599995	-0.706253	0.488234
H42	H	0.987197	-0.637793	0.202668
C43	C	1.723732	-0.582424	0.568424
C44	C	1.775655	-0.530451	0.618537
C45	C	1.834988	-0.471021	0.580266
H46	H	1.775235	-0.628823	0.529676
H47	H	1.677247	-0.530949	0.547226
H48	H	1.822138	-0.581920	0.639723
H49	H	1.724178	-0.484034	0.657286
H50	H	1.788502	-0.419545	0.559068
H51	H	1.886484	-0.517428	0.541519
H52	H	1.870217	-0.435742	0.614263
C53	C	1.689005	-1.336491	0.077354
C54	C	1.662549	-1.306792	0.009521
C55	C	1.737412	-1.370939	-0.050025
H56	H	1.758093	-1.327404	0.082682
H57	H	1.688630	-1.409245	0.077640
H58	H	1.662934	-1.234056	0.009236
H59	H	1.593473	-1.315884	0.004169
H60	H	1.737038	-1.443692	-0.049739
H61	H	1.806496	-1.361846	-0.044690
H62	H	1.719467	-1.350803	-0.096057
C63	C	1.468484	-1.241438	0.252411
C64	C	1.469229	-1.134303	0.251785
C65	C	1.394320	-1.069914	0.311210
H66	H	1.399382	-1.250452	0.247046
H67	H	1.486282	-1.261413	0.298517
H68	H	1.451425	-1.114334	0.205690
H69	H	1.538314	-1.125256	0.257159
H70	H	1.412118	-1.089889	0.357316
H71	H	1.325223	-1.078937	0.305840
H72	H	1.394822	-0.997217	0.310797
C73	C	1.231254	-0.795493	0.077293
C74	C	1.303627	-0.871643	0.105626
C75	C	1.367955	-0.946561	0.046178
H76	H	1.187669	-0.829865	0.050005
H77	H	1.269402	-0.760282	0.045041
H78	H	1.265482	-0.906850	0.137865
H79	H	1.347235	-0.837303	0.132908
H80	H	1.406103	-0.911351	0.013926
H81	H	1.324361	-0.980925	0.018893
H82	H	1.417074	-0.998232	0.065393
C83	C	1.064770	-0.837841	0.043631
C84	C	1.137142	-0.913995	0.071961
C85	C	1.201463	-0.988916	0.012511
H86	H	1.021180	-0.872209	0.016345
H87	H	1.102918	-0.802633	0.011376
H88	H	1.098998	-0.949199	0.104203
H89	H	1.180756	-0.879658	0.099240
H90	H	1.239610	-0.953709	-0.019744
H91	H	1.157863	-1.023276	-0.014770
H92	H	1.250581	-1.040590	0.031724
H93	H	1.153671	-0.595464	0.236317
C94	C	1.731590	-1.169937	0.043866
C95	C	1.833217	-1.156212	0.052055
C96	C	1.908423	-1.220254	-0.007346
H97	H	1.731401	-1.242727	0.044114
H98	H	1.713864	-1.149881	-0.002236
H99	H	1.850939	-1.176273	0.098145
H100	H	1.833440	-1.083435	0.051798
H101	H	1.890697	-1.200199	-0.053448
H102	H	1.908224	-1.293041	-0.007093
H103	H	1.977383	-1.210943	-0.001802
H104	H	1.707628	-0.598580	0.718150
H105	H	1.492418	-0.813758	0.718157
C106	C	1.476266	-0.830025	0.568399
C107	C	1.424355	-0.881971	0.618495
C108	C	1.365008	-0.941416	0.580195
H109	H	1.424756	-0.783639	0.547176
H110	H	1.522741	-0.881517	0.529663
H111	H	1.377883	-0.830485	0.657217
H112	H	1.475839	-0.928374	0.639720
H113	H	1.411483	-0.992908	0.541459
H114	H	1.313504	-0.895023	0.558974
H115	H	1.329787	-0.976676	0.614178
H116	H	1.531049	-1.092554	0.202657
