data_functionalizedCrystal
_audit_creation_method	'MofGen! by Chris Wilmer'
_symmetry_space_group_name_H-M	'P1'
_symmetry_Int_Tables_number	1
_symmetry_cell_setting	triclinic
loop_
_symmetry_equiv_pos_as_xyz
  x,y,z
_cell_length_a	19.188930
_cell_length_b	11.026607
_cell_length_c	10.065908
_cell_angle_alpha	79.267606
_cell_angle_beta	81.268756
_cell_angle_gamma	84.134602
loop_
_atom_site_label
_atom_site_type_symbol
_atom_site_fract_x
_atom_site_fract_y
_atom_site_fract_z
O1	O	0.953440	-0.133449	-0.113942
O2	O	0.752720	-0.153845	-0.113849
O3	O	0.836444	0.032916	-0.113883
O4	O	0.869716	-0.320210	-0.113908
O5	O	0.820496	-0.002842	0.113113
O6	O	0.736772	-0.189602	0.113146
O7	O	0.937492	-0.169207	0.113053
Zn8	Zn	0.834600	-0.185082	0.149140
Zn9	Zn	0.855612	-0.137970	-0.149936
O10	O	0.853768	-0.355967	0.113087
C11	C	0.718650	-0.171065	-0.000339
C12	C	0.640890	-0.169090	-0.000303
N13	N	0.820264	-0.217233	0.353252
C14	C	0.822332	0.060215	-0.000384
C15	C	0.804035	0.194832	-0.000380
C16	C	0.609934	-0.278667	-0.000333
C17	C	0.536874	-0.276803	-0.000347
C18	C	0.494775	-0.165352	-0.000360
C19	C	0.525739	-0.055761	-0.000323
C20	C	0.598796	-0.057630	-0.000295
N21	N	0.381369	-0.067985	-0.077666
N22	N	0.311968	-0.066217	-0.077696
C23	C	0.274655	-0.159714	-0.000444
N24	N	0.309368	-0.255063	0.076823
N25	N	0.378776	-0.256834	0.076847
C26	C	0.415555	-0.163313	-0.000391
C27	C	0.164479	-0.267279	-0.000487
C28	C	0.091417	-0.265412	-0.000493
C29	C	0.080284	-0.044364	-0.000483
C30	C	0.153344	-0.046237	-0.000463
C31	C	0.195438	-0.157696	-0.000471
C32	C	0.971562	-0.151985	-0.000459
C33	C	1.049322	-0.153960	-0.000504
C34	C	0.867880	-0.383266	-0.000415
C35	C	0.886177	-0.517881	-0.000427
C36	C	0.854557	0.268909	-0.000406
C37	C	0.835648	0.408043	-0.000402
C38	C	0.850617	-0.149154	0.421018
C39	C	0.839591	-0.173908	0.578190
N40	N	0.869948	-0.105818	0.645953
H41	H	0.644203	-0.369426	-0.000342
C42	C	0.727647	0.247398	-0.000138
C43	C	0.686332	0.189374	0.116645
C44	C	0.615957	0.237750	0.116904
H45	H	0.724981	0.333882	-0.000071
H46	H	0.710597	0.233066	-0.079244
H47	H	0.703377	0.203716	0.195731
H48	H	0.688977	0.102892	0.116603
H49	H	0.598907	0.223418	0.037798
H50	H	0.613298	0.324234	0.116967
H51	H	0.587915	0.198381	0.196133
C52	C	0.187067	0.072682	-0.000665
C53	C	0.236927	0.096443	-0.117417
C54	C	0.268013	0.205976	-0.117638
H55	H	0.151612	0.139438	-0.000747
H56	H	0.209800	0.064098	0.078462
H57	H	0.214195	0.105035	-0.196524
H58	H	0.272396	0.029716	-0.117360
H59	H	0.290746	0.197391	-0.038510
H60	H	0.232553	0.272722	-0.117716
H61	H	0.301851	0.222105	-0.196845
H62	H	0.911810	0.229325	-0.000424
H63	H	0.884763	-0.072537	0.362680
H64	H	0.778391	0.447622	-0.000384
C65	C	0.962479	0.429116	-0.000394
C66	C	0.966065	0.301647	-0.000360
C67	C	1.036340	0.252777	-0.000313
H68	H	0.990686	0.468201	-0.079542
H69	H	0.979507	0.443330	0.078785
H70	H	0.949046	0.287443	-0.079532
H71	H	0.937874	0.262530	0.078781
H72	H	1.053367	0.266991	0.078866
H73	H	1.064540	0.291871	-0.079462
H74	H	1.038781	0.166284	-0.000278
C75	C	0.210061	-0.388424	-0.000410
C76	C	0.167306	-0.484000	-0.000389
C77	C	0.209267	-0.595618	-0.000300
H78	H	0.244379	-0.381457	-0.079539
H79	H	0.233201	-0.406284	0.078788
H80	H	0.144177	-0.466144	-0.079579
H81	H	0.132988	-0.491006	0.078734
H82	H	0.232407	-0.613479	0.078898
H83	H	0.243583	-0.588639	-0.079430
H84	H	0.180263	-0.660482	-0.000273
H85	H	0.805436	-0.250521	0.636525
H86	H	0.786112	-0.293841	0.411591
C87	C	0.915304	-0.003491	0.567938
C88	C	0.917124	0.000865	0.427558
C89	C	0.958823	0.095216	0.355649
H90	H	0.895697	0.073629	0.591309
H91	H	0.961973	-0.019580	0.591001
H92	H	0.870465	0.016962	0.404504
H93	H	0.936738	-0.076233	0.404147
H94	H	1.005491	0.079128	0.378712
H95	H	0.939211	0.172330	0.379031
H96	H	0.960069	0.098177	0.260394
H97	H	0.491458	0.034986	-0.000353
C98	C	0.503311	-0.395770	-0.000674
C99	C	0.532659	-0.444473	-0.117482
C100	C	0.501754	-0.554051	-0.117842
H101	H	0.511973	-0.454099	0.078387
H102	H	0.453773	-0.378727	-0.000768
H103	H	0.582186	-0.461521	-0.117376
H104	H	0.523999	-0.386177	-0.196561
H105	H	0.452217	-0.537009	-0.117936
H106	H	0.510418	-0.612371	-0.038777
H107	H	0.521658	-0.587104	-0.197101
H108	H	0.624000	0.031604	-0.000272
H109	H	0.046013	0.046395	-0.000578
H110	H	0.066214	-0.354648	-0.000509
