data_functionalizedCrystal
_audit_creation_method	'MofGen! by Chris Wilmer'
_symmetry_space_group_name_H-M	'P1'
_symmetry_Int_Tables_number	1
_symmetry_cell_setting	triclinic
loop_
_symmetry_equiv_pos_as_xyz
  x,y,z
_cell_length_a	11.792254
_cell_length_b	11.792241
_cell_length_c	13.930277
_cell_angle_alpha	89.995317
_cell_angle_beta	89.992836
_cell_angle_gamma	84.196007
loop_
_atom_site_label
_atom_site_type_symbol
_atom_site_fract_x
_atom_site_fract_y
_atom_site_fract_z
O1	O	1.506905	0.155636	-0.079830
O2	O	1.176566	0.171653	-0.079833
O3	O	1.349752	-0.001526	-0.079825
O4	O	1.333719	0.328815	-0.079838
O5	O	1.349727	-0.001530	0.079837
O6	O	1.176541	0.171650	0.079829
O7	O	1.506881	0.155632	0.079831
Zn8	Zn	1.341707	0.163640	0.105180
Zn9	Zn	1.341739	0.163645	-0.105181
O10	O	1.333695	0.328811	0.079824
C11	C	1.134263	0.170642	-0.000002
C12	C	1.008250	0.167622	-0.000003
C13	C	0.905913	0.165168	-0.000007
C14	C	0.777527	0.162100	-0.000007
C15	C	1.348732	-0.043819	0.000006
C16	C	1.345718	-0.169832	0.000005
C17	C	1.340175	-0.400545	-0.000011
C18	C	1.343255	-0.272160	-0.000002
C19	C	1.549183	0.156643	-0.000001
C20	C	1.675196	0.159663	-0.000007
C21	C	1.334714	0.371104	-0.000009
C22	C	1.337728	0.497118	-0.000015
N23	N	1.341694	0.163636	0.248746
N24	N	1.341761	0.163640	-0.248747
C25	C	1.265049	0.240298	0.701012
C26	C	1.418460	0.086983	0.700988
C27	C	1.418447	0.086979	0.600493
C28	C	1.341734	0.163638	0.550252
C29	C	1.265036	0.240299	0.600507
C30	C	1.495152	0.010327	0.550230
C31	C	1.495142	0.010321	0.449728
C32	C	1.418423	0.086974	0.399486
C33	C	1.341721	0.163639	0.449747
C34	C	1.265008	0.240297	0.399506
C35	C	1.188299	0.316956	0.449766
C36	C	1.188317	0.316953	0.550264
C37	C	1.418406	0.086978	0.298987
C38	C	1.264995	0.240298	0.299001
H39	H	1.202522	0.302719	0.258101
O40	O	1.113767	0.391262	0.599195
C41	C	1.043374	0.330000	0.657334
H42	H	1.088037	0.241487	0.672380
H43	H	0.959434	0.321724	0.618629
C44	C	0.964681	0.502537	0.734323
C45	C	1.019541	0.393827	0.752810
H46	H	0.949975	0.541910	0.793216
H47	H	1.012103	0.543812	0.695151
H48	H	0.894738	0.495625	0.702066
H49	H	1.089489	0.400740	0.785055
H50	H	0.972130	0.352555	0.791990
O51	O	1.569531	-0.064409	0.401054
C52	C	1.550278	-0.176810	0.425794
H53	H	1.459368	-0.177834	0.453379
H54	H	1.612896	-0.209653	0.484210
C55	C	1.679120	-0.252585	0.302762
C56	C	1.567460	-0.253844	0.336635
H57	H	1.689724	-0.300105	0.247768
H58	H	1.692095	-0.176859	0.286097
H59	H	1.731289	-0.279952	0.351451
H60	H	1.515295	-0.226464	0.287952
H61	H	1.554477	-0.329568	0.353291
O62	O	1.190648	0.314721	0.749976
C63	C	1.207079	0.298266	0.849454
H64	H	1.297054	0.256457	0.863171
H65	H	1.142494	0.240901	0.877986
C66	C	1.080220	0.465610	0.884198
C67	C	1.190733	0.414268	0.901046
H68	H	1.070133	0.537163	0.916025
H69	H	1.069146	0.476694	0.817178
H70	H	1.026412	0.417794	0.907975
H71	H	1.244539	0.462077	0.877259
H72	H	1.201816	0.403194	0.968064
H73	H	1.480923	0.024575	0.741897
O74	O	1.113940	0.391470	0.400852
C75	C	1.175150	0.461925	0.342726
H76	H	1.263687	0.417323	0.327668
H77	H	1.183369	0.545866	0.381450
C78	C	1.002572	0.540526	0.265758
C79	C	1.111310	0.485740	0.247257
H80	H	0.963191	0.555221	0.206870
H81	H	0.961332	0.493063	0.304921
H82	H	1.009435	0.610471	0.298030
H83	H	1.104445	0.415791	0.214997
H84	H	1.152548	0.533192	0.208087
O85	O	1.569501	-0.064245	0.599083
C86	C	1.508283	-0.134654	0.657245
H87	H	1.418769	-0.137180	0.626960
H88	H	1.502542	-0.099163	0.733407
C89	C	1.680028	-0.252996	0.696002
C90	C	1.570089	-0.256105	0.658801
H91	H	1.718154	-0.327912	0.696966
H92	H	1.721274	-0.205558	0.656820
H93	H	1.675229	-0.223415	0.759466
H94	H	1.574890	-0.285673	0.595333
H95	H	1.528846	-0.303552	0.697972
O96	O	1.492799	0.012376	0.250197
C97	C	1.473713	-0.100118	0.274772
H98	H	1.382852	-0.101314	0.302427
H99	H	1.536440	-0.133030	0.333086
C100	C	1.602463	-0.175460	0.151518
C101	C	1.490863	-0.176930	0.185477
H102	H	1.613047	-0.222844	0.096439
H103	H	1.615326	-0.099671	0.134963
H104	H	1.654723	-0.202884	0.200122
H105	H	1.438606	-0.149493	0.136879
H106	H	1.477992	-0.252717	0.202022
