data_functionalizedCrystal
_audit_creation_method	'MofGen! by Chris Wilmer'
_symmetry_space_group_name_H-M	'P1'
_symmetry_Int_Tables_number	1
_symmetry_cell_setting	triclinic
loop_
_symmetry_equiv_pos_as_xyz
  x,y,z
_cell_length_a	15.995292
_cell_length_b	15.995292
_cell_length_c	13.330367
_cell_angle_alpha	89.998548
_cell_angle_beta	89.991273
_cell_angle_gamma	83.468616
loop_
_atom_site_label
_atom_site_type_symbol
_atom_site_fract_x
_atom_site_fract_y
_atom_site_fract_z
O1	O	1.110997	0.107697	-0.083443
O2	O	0.867212	0.121076	-0.083439
O3	O	0.995794	-0.007506	-0.083443
O4	O	0.982415	0.236279	-0.083439
O5	O	0.995776	-0.007509	0.083404
O6	O	0.867194	0.121073	0.083409
O7	O	1.110979	0.107694	0.083404
Cu8	Cu	0.989084	0.114383	0.098641
Cu9	Cu	0.989107	0.114387	-0.098676
O10	O	0.982397	0.236276	0.083408
C11	C	0.836008	0.120530	-0.000015
C12	C	0.743055	0.118898	-0.000013
C13	C	0.995240	-0.038703	-0.000022
C14	C	0.993608	-0.131655	-0.000029
C15	C	0.405318	0.112896	-0.000024
C16	C	0.428611	0.205703	-0.000396
C17	C	0.525286	0.207467	-0.000015
C18	C	0.572873	0.115874	-0.000019
C19	C	0.543770	0.069473	0.095255
C20	C	0.446980	0.068356	0.095330
C21	C	0.447146	0.066464	-0.094406
C22	C	0.543638	0.069903	-0.095661
C23	C	0.667569	0.117552	-0.000013
C24	C	0.310622	0.111215	-0.000024
C25	C	0.987607	-0.469393	-0.000020
C26	C	1.080413	-0.446100	0.000351
C27	C	1.082177	-0.349424	-0.000029
C28	C	0.990584	-0.301837	-0.000024
C29	C	0.944196	-0.330927	-0.095298
C30	C	0.943079	-0.427717	-0.095374
C31	C	0.941162	-0.427577	0.094363
C32	C	0.944602	-0.331085	0.095618
C33	C	0.992263	-0.207141	-0.000030
C34	C	0.985926	-0.564088	-0.000021
C35	C	1.142183	0.108240	-0.000023
C36	C	1.235136	0.109873	-0.000031
C37	C	0.982951	0.267473	-0.000016
C38	C	0.984583	0.360426	-0.000015
N39	N	0.989075	0.114380	0.237422
N40	N	0.989123	0.114383	-0.237457
C41	C	0.932168	0.171300	0.710047
C42	C	1.046067	0.057467	0.710011
C43	C	1.046058	0.057464	0.604993
C44	C	0.989104	0.114381	0.552497
C45	C	0.932159	0.171301	0.605019
C46	C	1.103008	0.000551	0.552463
C47	C	1.103001	0.000547	0.447438
C48	C	1.046042	0.057461	0.394940
C49	C	0.989094	0.114382	0.447468
C50	C	0.932140	0.171300	0.394972
C51	C	0.875187	0.228218	0.447499
C52	C	0.875199	0.228215	0.552521
C53	C	1.046030	0.057463	0.289918
C54	C	0.932130	0.171300	0.289944
H55	H	0.544313	0.243801	-0.068314
Cl56	Cl	0.860570	0.242849	0.776075
Cl57	Cl	1.117670	-0.014079	0.776004
H58	H	0.432443	0.000310	0.099655
H59	H	1.118738	-0.331026	-0.068445
H60	H	1.092403	0.011125	0.247156
H61	H	0.399577	0.241275	0.067547
H62	H	0.876796	-0.299045	-0.098836
H63	H	0.575652	0.002073	0.098794
Cl64	Cl	0.403427	0.111263	-0.205898
Cl65	Cl	1.174610	-0.070994	0.618455
Cl66	Cl	0.572348	0.122036	-0.204486
H67	H	0.828818	0.274564	0.404744
Cl68	Cl	1.174593	-0.071008	0.381411
H69	H	0.400615	0.241476	-0.068721
Cl70	Cl	0.594556	-0.033318	-0.104548
Cl71	Cl	1.138249	-0.320058	0.105428
H72	H	0.543674	0.244023	0.068398
H73	H	1.116178	-0.474105	0.068676
Cl74	Cl	0.993955	-0.299971	-0.204774
Cl75	Cl	0.405550	0.117971	0.205288
H76	H	0.885748	0.217647	0.247208
H77	H	0.975221	-0.454539	-0.166596
H78	H	0.872850	-0.441553	0.095008
H79	H	0.828831	0.274557	0.595294
H80	H	0.877747	-0.298102	0.101376
Cl81	Cl	0.574713	0.119217	0.204730
Cl82	Cl	0.996743	-0.302427	0.204442
H83	H	1.115994	-0.475124	-0.067592
Cl84	Cl	0.425569	-0.039005	-0.095404
H85	H	0.875033	-0.442253	-0.099687
H86	H	0.970381	-0.455673	0.166580
