data_functionalizedCrystal
_audit_creation_method	'MofGen! by Chris Wilmer'
_symmetry_space_group_name_H-M	'P1'
_symmetry_Int_Tables_number	1
_symmetry_cell_setting	triclinic
loop_
_symmetry_equiv_pos_as_xyz
  x,y,z
_cell_length_a	27.732048
_cell_length_b	16.109301
_cell_length_c	15.186229
_cell_angle_alpha	89.994833
_cell_angle_beta	90.002148
_cell_angle_gamma	83.052068
loop_
_atom_site_label
_atom_site_type_symbol
_atom_site_fract_x
_atom_site_fract_y
_atom_site_fract_z
O1	O	0.641340	0.098925	-0.073118
O2	O	1.141340	0.598925	0.426882
O3	O	0.500610	0.113967	-0.073145
O4	O	1.000610	0.613967	0.426855
O5	O	0.574841	-0.014633	-0.073122
O6	O	1.074841	0.485367	0.426878
O7	O	0.567109	0.227525	-0.073141
O8	O	1.067109	0.727525	0.426859
O9	O	0.574836	-0.014634	0.073335
O10	O	1.074836	0.485366	0.573335
O11	O	0.500605	0.113965	0.073312
O12	O	1.000605	0.613965	0.573312
O13	O	0.641335	0.098924	0.073339
O14	O	1.141335	0.598924	0.573339
Zn15	Zn	0.570969	0.106444	0.096579
Zn16	Zn	1.070969	0.606444	0.596579
Zn17	Zn	0.570976	0.106446	-0.096385
Zn18	Zn	1.070976	0.606446	0.403615
O19	O	0.567104	0.227523	0.073316
O20	O	1.067104	0.727523	0.573316
C21	C	0.574526	-0.045605	0.000107
C22	C	1.074526	0.454395	0.500107
C23	C	0.573586	-0.137888	0.000108
C24	C	1.073586	0.362112	0.500108
C25	C	0.482599	0.113650	0.000080
C26	C	0.982599	0.613650	0.500080
C27	C	0.428940	0.112700	0.000070
C28	C	0.928940	0.612700	0.500070
C29	C	0.615450	-0.360679	0.000102
C30	C	1.115450	0.139321	0.500102
C31	C	0.614564	-0.447388	0.000095
C32	C	1.114564	0.052612	0.500095
C33	C	0.526492	-0.426424	0.000082
C34	C	1.026492	0.073576	0.500082
C35	C	0.527378	-0.339716	0.000083
C36	C	1.027378	0.160284	0.500083
C37	C	0.571859	-0.306846	0.000098
C38	C	1.071859	0.193154	0.500098
C39	C	0.570086	-0.480263	0.000089
C40	C	1.070086	0.019737	0.500089
C41	C	0.569125	-0.574277	0.000081
C42	C	1.069125	-0.074277	0.500081
C43	C	0.572820	-0.212826	0.000104
C44	C	1.072820	0.287174	0.500104
C45	C	0.090418	0.182708	0.000103
C46	C	0.590418	0.682708	0.500103
C47	C	-0.111256	0.179181	0.000111
C48	C	0.388744	0.679181	0.500111
O49	O	-0.142244	0.243198	0.000144
O50	O	0.357756	0.743198	0.500144
N51	N	-0.130699	0.102926	0.000115
N52	N	0.369301	0.602926	0.500115
C53	C	-0.099720	0.027548	0.000124
C54	C	0.400280	0.527548	0.500124
O55	O	-0.120885	-0.037392	0.000137
O56	O	0.379115	0.462608	0.500137
C57	C	0.101954	0.031077	0.000122
C58	C	0.601954	0.531077	0.500122
C59	C	0.121393	0.107336	0.000108
C60	C	0.621393	0.607336	0.500108
C61	C	0.109859	0.258961	0.000090
C62	C	0.609859	0.758961	0.500090
C63	C	0.160274	0.259842	0.000083
C64	C	0.660274	0.759842	0.500083
C65	C	0.191250	0.184470	0.000089
C66	C	0.691250	0.684470	0.500089
C67	C	0.171809	0.108217	0.000102
C68	C	0.671809	0.608217	0.500102
C69	C	0.132932	-0.044300	0.000137
C70	C	0.632932	0.455700	0.500137
C71	C	0.183353	-0.043411	0.000138
C72	C	0.683353	0.456589	0.500138
C73	C	0.202793	0.032848	0.000125
C74	C	0.702793	0.532848	0.500125
C75	C	0.253200	0.033726	0.000100
C76	C	0.753200	0.533726	0.500100
N77	N	0.272643	0.109981	0.000096
N78	N	0.772643	0.609981	0.500096
C79	C	0.241668	0.185353	0.000090
C80	C	0.741668	0.685353	0.500090
C81	C	-0.205602	0.025701	0.000123
C82	C	0.294398	0.525701	0.500123
C83	C	-0.256020	0.024819	0.000122
C84	C	0.243980	0.524819	0.500122
C85	C	-0.267553	0.176451	0.000111
C86	C	0.232447	0.676451	0.500111
C87	C	-0.217134	0.177333	0.000106
C88	C	0.282866	0.677333	0.500106
C89	C	-0.186159	0.101956	0.000118
C90	C	0.313841	0.601956	0.500118
C91	C	0.347545	0.187197	0.000075
C92	C	0.847545	0.687197	0.500075
C93	C	0.397965	0.188072	0.000065
C94	C	0.897965	0.688072	0.500065
C95	C	0.409494	0.036440	0.000080
C96	C	0.909494	0.536440	0.500080
C97	C	0.359077	0.035565	0.000086
C98	C	0.859077	0.535565	0.500086
C99	C	0.328104	0.110950	0.000087
C100	C	0.828104	0.610950	0.500087
O101	O	0.284216	-0.030257	0.000077
O102	O	0.784216	0.469743	0.500077
O103	O	0.262842	0.250283	0.000097
O104	O	0.762842	0.750283	0.500097
C105	C	0.040003	0.181827	0.000110
C106	C	0.540003	0.681827	0.500110
C107	C	0.020562	0.105574	0.000122
C108	C	0.520562	0.605574	0.500122
C109	C	0.051537	0.030202	0.000128
C110	C	0.551537	0.530202	0.500128
C111	C	-0.029856	0.104692	0.000121
C112	C	0.470144	0.604692	0.500121
C113	C	-0.060831	0.180064	0.000115
C114	C	0.439169	0.680064	0.500115
C115	C	-0.041388	0.256318	0.000111
C116	C	0.458612	0.756318	0.500111
C117	C	0.009027	0.257199	0.000104
C118	C	0.509027	0.757199	0.500104
C119	C	0.032095	-0.046052	0.000132
C120	C	0.532095	0.453948	0.500132
C121	C	-0.018322	-0.046927	0.000138
C122	C	0.481678	0.453073	0.500138
C123	C	-0.049297	0.028445	0.000133
C124	C	0.450703	0.528445	0.500133
C125	C	0.659346	0.099240	0.000112
C126	C	1.159346	0.599240	0.500112
C127	C	0.713005	0.100191	0.000116
C128	C	1.213005	0.600191	0.500116
C129	C	0.567420	0.258495	0.000085
C130	C	1.067420	0.758495	0.500085
C131	C	0.568359	0.350779	0.000078
C132	C	1.068359	0.850779	0.500078
N133	N	0.570969	0.106442	0.228272
N134	N	1.070969	0.606442	0.728272
N135	N	0.570981	0.106442	-0.228077
N136	N	1.070981	0.606442	0.271923
C137	C	0.603849	0.049517	0.454005
C138	C	1.103849	0.549517	0.954005
C139	C	0.603851	0.049515	0.546194
C140	C	1.103851	0.549515	1.046194
C141	C	0.538096	0.163370	0.546183
C142	C	1.038096	0.663370	1.046183
C143	C	0.538093	0.163367	0.453995
C144	C	1.038093	0.663367	0.953995
C145	C	0.570972	0.106442	0.407908
C146	C	1.070972	0.606442	0.907908
C147	C	0.570977	0.106442	0.592286
C148	C	1.070977	0.606442	1.092286
C149	C	0.570979	0.106441	0.692242
C150	C	1.070979	0.606441	1.192242
C151	C	0.570970	0.106442	0.307946
C152	C	1.070970	0.606442	0.807946
H153	H	0.651670	-0.333920	0.000113
H154	H	1.151670	0.166080	0.500113
N155	N	-0.276982	-0.057433	0.000136
N156	N	0.223018	0.442567	0.500136
H157	H	-0.313623	-0.046564	0.000136
H158	H	0.186377	0.453436	0.500136
H159	H	-0.265651	-0.090388	-0.054152
H160	H	0.234349	0.409612	0.445848
N161	N	0.502636	0.224766	0.595891
N162	N	1.002636	0.724766	1.095891
H163	H	0.507627	0.216132	0.661287
H164	H	1.007627	0.716132	1.161287
H165	H	0.508208	0.283680	0.579767
H166	H	1.008208	0.783680	1.079767
H167	H	0.434723	-0.024926	0.000082
H168	H	0.934723	0.475074	0.500082
H169	H	0.630621	0.003164	0.416483
H170	H	1.130621	0.503164	0.916483
N171	N	0.216757	-0.124717	0.000149
N172	N	0.716757	0.375283	0.500149
H173	H	0.237931	-0.127737	-0.054144
H174	H	0.737931	0.372263	0.445856
H175	H	0.237904	-0.127684	0.054476
H176	H	0.737904	0.372316	0.554476
H177	H	0.630622	0.003161	0.583724
H178	H	1.130622	0.503161	1.083724
H179	H	0.650061	-0.491216	0.000097
H180	H	1.150061	0.008784	0.500097
H181	H	0.413790	0.250174	0.000053
H182	H	0.913790	0.750174	0.500053
N183	N	0.478518	-0.461876	0.000069
N184	N	0.978518	0.038124	0.500069
H185	H	0.484570	-0.524974	0.000072
H186	H	0.984570	-0.024974	0.500072
H187	H	0.459443	-0.442146	0.054361
H188	H	0.959443	0.057854	0.554361
H189	H	-0.292781	0.237822	0.000106
H190	H	0.207219	0.737822	0.500106
N191	N	0.480360	-0.281645	0.000071
N192	N	0.980360	0.218355	0.500071
H193	H	0.452047	-0.315623	0.000068
H194	H	0.952047	0.184377	0.500068
H195	H	0.478809	-0.245216	0.054363
H196	H	0.978809	0.254784	0.554363
N197	N	0.502626	0.224766	0.404276
N198	N	1.002626	0.724766	0.904276
H199	H	0.508181	0.283711	0.420307
H200	H	1.008181	0.783711	0.920307
H201	H	0.507628	0.216052	0.338898
H202	H	1.007628	0.716052	0.838898
N203	N	-0.196165	0.259580	0.000103
N204	N	0.303835	0.759580	0.500103
H205	H	-0.175504	0.263330	-0.054188
H206	H	0.324496	0.763330	0.445812
H207	H	-0.223468	0.307144	0.000131
H208	H	0.276532	0.807144	0.500131
N209	N	-0.039286	-0.129184	0.000147
N210	N	0.460714	0.370816	0.500147
H211	H	-0.012008	-0.176793	0.000152
H212	H	0.487992	0.323207	0.500152
H213	H	-0.059948	-0.132851	0.054446
H214	H	0.440052	0.367149	0.554446
N215	N	0.314142	0.268504	0.000096
N216	N	0.814142	0.768504	0.500096
H217	H	0.334114	0.316937	0.000093
H218	H	0.834114	0.816937	0.500093
H219	H	0.292964	0.271458	-0.054189
H220	H	0.792964	0.771458	0.445811
H221	H	-0.180386	-0.035684	0.000134
H222	H	0.319614	0.464316	0.500134
H223	H	0.176097	0.321940	0.000072
H224	H	0.676097	0.821940	0.500072
N225	N	0.076454	0.340262	0.000134
N226	N	0.576454	0.840262	0.500134
H227	H	0.096428	0.388694	0.000143
H228	H	0.596428	0.888694	0.500143
H229	H	0.055271	0.343235	-0.054146
H230	H	0.555271	0.843235	0.445854
H231	H	0.117113	-0.106398	0.000148
H232	H	0.617113	0.393602	0.500148
H233	H	0.343249	-0.026532	0.000084
H234	H	0.843249	0.473468	0.500084
H235	H	0.024850	0.319297	0.000094
H236	H	0.524850	0.819297	0.500094
H237	H	-0.066617	0.317688	0.000103
H238	H	0.433383	0.817688	0.500103
H239	H	0.057310	-0.107431	0.000139
H240	H	0.557310	0.392569	0.500139
