data_functionalizedCrystal
_audit_creation_method	'MofGen! by Chris Wilmer'
_symmetry_space_group_name_H-M	'P1'
_symmetry_Int_Tables_number	1
_symmetry_cell_setting	triclinic
loop_
_symmetry_equiv_pos_as_xyz
  x,y,z
_cell_length_a	10.723022
_cell_length_b	10.540510
_cell_length_c	9.198806
_cell_angle_alpha	89.999296
_cell_angle_beta	89.996352
_cell_angle_gamma	84.490268
loop_
_atom_site_label
_atom_site_type_symbol
_atom_site_fract_x
_atom_site_fract_y
_atom_site_fract_z
O1	O	1.657259	0.178039	-0.120874
O2	O	1.294113	0.195084	-0.120879
O3	O	1.483990	0.001848	-0.120876
O4	O	1.467381	0.371274	-0.120877
O5	O	1.483975	0.001847	0.120909
O6	O	1.294098	0.195083	0.120907
O7	O	1.657243	0.178038	0.120911
Cu8	Cu	1.475669	0.186561	0.142986
Cu9	Cu	1.475687	0.186561	-0.142953
O10	O	1.467366	0.371274	0.120908
C11	C	1.247605	0.193843	0.000013
C12	C	1.109049	0.190133	0.000012
C13	C	1.060445	0.078701	0.000011
C14	C	0.917240	0.074864	0.000009
C15	C	1.482745	-0.045455	0.000014
C16	C	1.479042	-0.186403	0.000005
C17	C	1.610949	-0.403927	0.000560
C18	C	1.614899	-0.257334	0.000008
C19	C	1.409505	-0.231125	-0.138064
C20	C	1.406517	-0.377885	-0.138172
C21	C	1.403671	-0.377693	0.136783
C22	C	1.410115	-0.231355	0.138600
C23	C	1.703751	0.179278	0.000016
C24	C	1.842307	0.182988	0.000008
C25	C	1.468611	0.418577	0.000015
C26	C	1.472314	0.559525	0.000014
N27	N	1.475666	0.186559	0.344099
N28	N	1.475700	0.186552	-0.344067
C29	C	1.555389	0.105068	0.416298
C30	C	1.555409	0.105063	0.583710
H31	H	1.669307	-0.228018	0.098979
H32	H	1.623668	0.035299	0.645797
H33	H	0.884148	0.278401	0.000017
H34	H	1.310928	-0.182237	0.146936
O35	O	1.032098	0.300480	-0.000186
C36	C	0.956000	0.305291	-0.125430
H37	H	0.948662	0.204449	-0.167178
H38	H	0.858539	0.351608	-0.097271
H39	H	0.999263	0.363706	-0.213114
O40	O	1.674103	-0.454229	0.118569
C41	C	1.675866	-0.588129	0.115639
H42	H	1.661802	-0.621058	-0.000750
H43	H	1.769897	-0.632816	0.158056
H44	H	1.597328	-0.618788	0.187241
O45	O	1.394438	0.269850	0.581724
C46	C	1.462251	0.348528	0.493697
H47	H	1.559359	0.298593	0.471021
H48	H	1.410458	0.368187	0.386616
H49	H	1.471770	0.442425	0.552270
O50	O	1.394197	0.269618	0.418365
C51	C	1.316468	0.201076	0.506396
H52	H	1.365060	0.102067	0.529035
H53	H	1.297431	0.253826	0.613496
H54	H	1.224062	0.191911	0.447845
O55	O	1.673623	-0.455691	-0.117058
C56	C	1.613388	-0.409094	-0.245240
H57	H	1.556446	-0.314420	-0.221439
H58	H	1.686650	-0.394379	-0.331873
H59	H	1.548363	-0.480801	-0.286061
O60	O	1.137448	-0.031611	0.000077
C61	C	1.263288	-0.003222	0.000039
H62	H	1.269029	0.096554	0.045812
H63	H	1.321697	-0.075604	0.070236
H64	H	1.300895	-0.007660	-0.115958
H65	H	0.875391	-0.020543	-0.000028
O66	O	1.680017	-0.223299	-0.118332
C67	C	1.601887	-0.139602	-0.205950
H68	H	1.522831	-0.091175	-0.136893
H69	H	1.659036	-0.064283	-0.254617
H70	H	1.560618	-0.195665	-0.297188
O71	O	1.463111	-0.425735	-0.261433
C72	C	1.398501	-0.372486	-0.383821
H73	H	1.344663	-0.277954	-0.352328
H74	H	1.468512	-0.355640	-0.473397
H75	H	1.330084	-0.440803	-0.424706
H76	H	1.304905	-0.400827	-0.144429
O77	O	1.636850	0.021712	0.342418
C78	C	1.711005	-0.054037	0.442052
H79	H	1.659915	-0.055894	0.550602
H80	H	1.728841	-0.155229	0.397957
H81	H	1.804219	-0.012243	0.458163
O82	O	1.290222	-0.174470	-0.144468
C83	C	1.274145	-0.102762	-0.273641
H84	H	1.346431	-0.141495	-0.357348
H85	H	1.175919	-0.110101	-0.318270
H86	H	1.287082	0.001294	-0.249762
O87	O	1.454705	-0.428246	0.261775
C88	C	1.391126	-0.369924	0.382133
H89	H	1.293440	-0.328899	0.347366
H90	H	1.383007	-0.443721	0.471380
H91	H	1.445516	-0.289994	0.424978
H92	H	1.457809	-0.200294	-0.240814
O93	O	1.470580	-0.197102	0.260317
C94	C	1.574802	-0.132835	0.220411
H95	H	1.559507	-0.090986	0.106812
H96	H	1.586377	-0.052813	0.301225
H97	H	1.662797	-0.202735	0.220928
H98	H	1.301668	-0.399790	0.137712
