data_functionalizedCrystal
_audit_creation_method	'MofGen! by Chris Wilmer'
_symmetry_space_group_name_H-M	'P1'
_symmetry_Int_Tables_number	1
_symmetry_cell_setting	triclinic
loop_
_symmetry_equiv_pos_as_xyz
  x,y,z
_cell_length_a	19.077236
_cell_length_b	12.827892
_cell_length_c	19.076919
_cell_angle_alpha	87.724655
_cell_angle_beta	90.112677
_cell_angle_gamma	92.308321
loop_
_atom_site_label
_atom_site_type_symbol
_atom_site_fract_x
_atom_site_fract_y
_atom_site_fract_z
Zn1	Zn	1.058331	-0.379340	0.440559
Zn2	Zn	1.062989	-0.546809	0.323059
Zn3	Zn	0.945547	-0.378792	0.318339
Zn4	Zn	0.940809	-0.560751	0.435798
O5	O	1.001919	-0.466423	0.379439
O6	O	1.157282	-0.395950	0.428940
O7	O	1.051341	-0.518458	0.224102
O8	O	0.960541	-0.232628	0.334568
O9	O	1.160704	-0.518989	0.342614
O10	O	1.043403	-0.233030	0.424362
O11	O	0.965057	-0.395016	0.220634
O12	O	0.846585	-0.408534	0.329952
O13	O	0.952467	-0.542750	0.534761
O14	O	0.843105	-0.542219	0.416249
O15	O	1.038810	-0.409468	0.538258
O16	O	1.046748	-0.694896	0.337998
O17	O	0.956983	-0.705139	0.420826
C18	C	0.819348	-0.476831	0.372072
C19	C	0.741243	-0.481310	0.368937
C20	C	0.702765	-0.419464	0.412478
C21	C	0.629377	-0.423667	0.409527
C22	C	0.594468	-0.489721	0.363037
C23	C	0.632951	-0.551569	0.319491
C24	C	0.706338	-0.547360	0.322440
C25	C	0.375177	-0.509162	0.349389
C26	C	0.301785	-0.513369	0.346445
C27	C	0.298216	-0.385464	0.436480
C28	C	0.371604	-0.381266	0.439427
C29	C	0.410081	-0.443109	0.395879
N30	N	0.519454	-0.494021	0.360021
N31	N	0.485094	-0.438803	0.398892
C32	C	1.001876	-0.737935	0.379424
C33	C	1.001920	-0.854086	0.379444
C34	C	1.042903	-0.905990	0.423914
C35	C	1.042950	-1.026039	0.423936
C36	C	1.185203	-0.455975	0.386834
C37	C	1.263307	-0.451523	0.389986
C38	C	0.994591	-0.477726	0.562718
C39	C	0.991468	-0.482542	0.640821
C40	C	1.001981	-0.193851	0.379470
C41	C	1.002008	-0.077697	0.379483
C42	C	1.009259	-0.455087	0.196874
C43	C	1.012518	-0.449968	0.118776
C44	C	1.034952	-0.415415	0.679336
C45	C	1.032009	-0.419937	0.752722
C46	C	0.985585	-0.491592	0.787591
C47	C	0.942096	-0.558722	0.749071
C48	C	0.945035	-0.554194	0.675687
C49	C	0.971969	-0.512570	1.006872
C50	C	0.969034	-0.517095	1.080262
C51	C	1.058947	-0.378309	1.083907
C52	C	1.061886	-0.373791	1.010521
C53	C	1.018394	-0.440917	0.972007
N54	N	0.982577	-0.496218	0.862603
N55	N	1.021398	-0.436285	0.896997
H56	H	0.731183	-0.365678	0.450337
H57	H	0.966865	-0.898525	0.341390
Br58	Br	1.101317	-0.831935	0.487359
H59	H	1.099691	-0.315445	0.982136
H60	H	1.067421	-0.365278	0.784078
H61	H	0.737666	-0.597721	0.286983
H62	H	0.406496	-0.559520	0.313929
H63	H	0.966922	-1.033069	0.341405
H64	H	1.078039	-1.070675	0.462006
H65	H	1.072758	-0.357069	0.650951
Br66	Br	1.117967	-0.287213	1.136179
H67	H	0.931227	-0.575447	1.108650
H68	H	0.400022	-0.327481	0.477287
Br69	Br	0.879086	-0.655963	0.796393
Br70	Br	0.577160	-0.339731	0.468622
Br71	Br	0.245994	-0.301538	0.495578
Br72	Br	0.254408	-0.603051	0.283367
H73	H	0.604523	-0.605347	0.281635
Br74	Br	0.912942	-0.603668	0.954612
Br75	Br	0.886014	-0.645292	0.623415
