data_functionalizedCrystal
_audit_creation_method	'MofGen! by Chris Wilmer'
_symmetry_space_group_name_H-M	'P1'
_symmetry_Int_Tables_number	1
_symmetry_cell_setting	triclinic
loop_
_symmetry_equiv_pos_as_xyz
  x,y,z
_cell_length_a	6.817900
_cell_length_b	9.514088
_cell_length_c	9.514063
_cell_angle_alpha	83.787405
_cell_angle_beta	118.843314
_cell_angle_gamma	118.843545
loop_
_atom_site_label
_atom_site_type_symbol
_atom_site_fract_x
_atom_site_fract_y
_atom_site_fract_z
V1	V	-4.303769	-0.502027	-0.225060
O2	O	-4.198339	-0.491166	0.007885
O3	O	-4.337709	-0.499849	-0.443439
O4	O	-4.337712	-0.720406	-0.222884
O5	O	-4.198336	-0.269082	-0.214197
V6	V	-4.766057	-0.474013	-0.197045
O7	O	-4.611606	-0.563480	-0.286513
O8	O	-4.908417	-0.412560	-0.135593
O9	O	-4.508910	-0.476191	0.021333
O10	O	-4.988884	-0.484874	-0.429991
O11	O	-4.988887	-0.706958	-0.207909
O12	O	-4.508907	-0.255634	-0.199222
C13	C	-4.200076	-0.492253	-0.496635
C14	C	-4.309662	-0.491928	-0.675170
C15	C	-4.200078	-0.773594	-0.215293
C16	C	-4.309659	-0.952128	-0.214959
C17	C	-4.309886	-0.483783	0.074521
C18	C	-4.179543	-0.484119	0.253054
C19	C	-4.309882	-0.202438	-0.206818
C20	C	-4.179536	-0.023902	-0.207144
H21	H	-3.984311	-0.948770	-0.200725
O22	O	-4.542394	-0.499373	-0.764925
C23	C	-4.512925	-0.359777	-0.839824
H24	H	-4.331324	-0.306103	-0.850124
H25	H	-4.496219	-0.265939	-0.763502
C26	C	-4.971662	-0.472479	-0.998173
C27	C	-4.748627	-0.406563	-1.010836
H28	H	-5.117057	-0.501334	-1.103658
H29	H	-4.991518	-0.566525	-0.947708
H30	H	-4.957704	-0.394269	-0.934565
H31	H	-4.762574	-0.484779	-1.074426
H32	H	-4.728779	-0.312530	-1.061316
O33	O	-3.946397	-0.476152	-0.657338
C34	C	-3.756748	-0.331323	-0.670662
H35	H	-3.825255	-0.238192	-0.705903
H36	H	-3.721503	-0.357734	-0.767894
C37	C	-3.420512	-0.377628	-0.462982
C38	C	-3.504645	-0.263239	-0.506252
H39	H	-3.264998	-0.335634	-0.361570
H40	H	-3.548281	-0.475206	-0.454009
H41	H	-3.391160	-0.399628	-0.544022
H42	H	-3.534026	-0.241257	-0.425223
H43	H	-3.376874	-0.165656	-0.515208
O44	O	-4.542806	-1.041740	-0.222926
C45	C	-4.732458	-1.028427	-0.367762
H46	H	-4.663943	-0.993184	-0.460889
H47	H	-4.767720	-0.931201	-0.341360
C48	C	-5.068692	-1.236116	-0.321459
C49	C	-4.984550	-1.192843	-0.435844
H50	H	-5.224199	-1.337532	-0.363453
H51	H	-4.940921	-1.245082	-0.223877
H52	H	-5.098058	-1.155081	-0.299467
H53	H	-4.955154	-1.273867	-0.457819
H54	H	-5.112322	-1.183895	-0.533432
