data_functionalizedCrystal
_audit_creation_method	'MofGen! by Chris Wilmer'
_symmetry_space_group_name_H-M	'P1'
_symmetry_Int_Tables_number	1
_symmetry_cell_setting	triclinic
loop_
_symmetry_equiv_pos_as_xyz
  x,y,z
_cell_length_a	29.839134
_cell_length_b	29.839131
_cell_length_c	16.120297
_cell_angle_alpha	87.132273
_cell_angle_beta	87.131193
_cell_angle_gamma	90.036281
loop_
_atom_site_label
_atom_site_type_symbol
_atom_site_fract_x
_atom_site_fract_y
_atom_site_fract_z
Zn1	Zn	0.673863	-0.191811	0.471576
Zn2	Zn	1.173863	0.308189	0.971576
Zn3	Zn	0.677596	-0.263129	0.332158
Zn4	Zn	1.177596	0.236871	0.832158
Zn5	Zn	0.602547	-0.188007	0.332157
Zn6	Zn	1.102547	0.311993	0.832157
Zn7	Zn	0.598696	-0.266905	0.471498
Zn8	Zn	1.098696	0.233095	0.971498
O9	O	0.638176	-0.227463	0.401847
O10	O	1.138176	0.272537	0.901847
O11	O	0.737225	-0.201282	0.453114
O12	O	1.237225	0.298718	0.953114
O13	O	0.670815	-0.249991	0.215496
O14	O	1.170815	0.250009	0.715496
O15	O	0.612057	-0.125645	0.350683
O16	O	1.112057	0.374355	0.850683
O17	O	0.739967	-0.253680	0.350685
O18	O	1.239967	0.246320	0.850685
O19	O	0.664452	-0.128440	0.453114
O20	O	1.164452	0.371560	0.953114
O21	O	0.615676	-0.194799	0.215496
O22	O	1.115676	0.305201	0.715496
O23	O	0.539170	-0.198461	0.350608
O24	O	1.039170	0.301539	0.850608
O25	O	0.605493	-0.260116	0.588170
O26	O	1.105493	0.239884	1.088170
O27	O	0.536341	-0.256428	0.452982
O28	O	1.036341	0.243572	0.952982
O29	O	0.660718	-0.204944	0.588227
O30	O	1.160718	0.295056	1.088227
O31	O	0.667081	-0.326496	0.350610
O32	O	1.167081	0.173504	0.850610
O33	O	0.609113	-0.329271	0.452982
O34	O	1.109113	0.170729	0.952982
C35	C	0.521455	-0.227442	0.401787
C36	C	1.021455	0.272558	0.901787
C37	C	0.471520	-0.227445	0.401781
C38	C	0.971520	0.272555	0.901781
C39	C	0.160413	-0.257687	0.455088
C40	C	0.660413	0.242313	0.955088
C41	C	-0.027261	-0.257700	0.455125
C42	C	0.472739	0.242300	0.955125
O43	O	-0.052769	-0.283391	0.500412
O44	O	0.447231	0.216609	1.000412
N45	N	-0.049268	-0.227481	0.401910
N46	N	0.450732	0.272519	0.901910
C47	C	-0.024354	-0.197254	0.348686
C48	C	0.475646	0.302746	0.848686
O49	O	-0.047379	-0.171548	0.303431
O50	O	0.452621	0.328452	0.803431
C51	C	0.163319	-0.197239	0.348654
C52	C	0.663319	0.302761	0.848654
C53	C	0.185324	-0.227463	0.401866
C54	C	0.685324	0.272537	0.901866
C55	C	0.182418	-0.287908	0.508296
C56	C	0.682418	0.212092	1.008296
C57	C	0.229334	-0.287906	0.508283
C58	C	0.729334	0.212094	1.008283
C59	C	0.254245	-0.257683	0.455062
C60	C	0.754245	0.242317	0.955062
C61	C	0.232240	-0.227461	0.401853
C62	C	0.732240	0.272539	0.901853
C63	C	0.188232	-0.167010	0.295435
C64	C	0.688232	0.332990	0.795435
C65	C	0.235153	-0.167008	0.295433
C66	C	0.735153	0.332992	0.795433
C67	C	0.257158	-0.197232	0.348645
C68	C	0.757158	0.302768	0.848645
C69	C	0.304066	-0.197235	0.348619
C70	C	0.804066	0.302765	0.848619
N71	N	0.326074	-0.227455	0.401833
N72	N	0.826074	0.272545	0.901833
C73	C	0.301163	-0.257678	0.455055
C74	C	0.801163	0.242322	0.955055
C75	C	-0.122885	-0.197265	0.348706
C76	C	0.377115	0.302735	0.848706
C77	C	-0.169803	-0.197269	0.348713
C78	C	0.330197	0.302731	0.848713
C79	C	-0.172707	-0.257715	0.455152
C80	C	0.327293	0.242285	0.955152
C81	C	-0.125788	-0.257713	0.455141
C82	C	0.374212	0.242287	0.955141
C83	C	-0.100878	-0.227484	0.401920
C84	C	0.399122	0.272516	0.901920
C85	C	0.399690	-0.257672	0.455023
C86	C	0.899690	0.242328	0.955023
C87	C	0.446610	-0.257668	0.455003
C88	C	0.946610	0.242332	0.955003
C89	C	0.449509	-0.197221	0.348566
C90	C	0.949509	0.302779	0.848566
C91	C	0.402593	-0.197226	0.348583
C92	C	0.902593	0.302774	0.848583
C93	C	0.377684	-0.227453	0.401818
C94	C	0.877684	0.272547	0.901818
O95	O	0.329603	-0.171555	0.303361
O96	O	0.829603	0.328445	0.803361
O97	O	0.324196	-0.283374	0.500317
O98	O	0.824196	0.216626	1.000317
C99	C	0.113497	-0.257689	0.455101
C100	C	0.613497	0.242311	0.955101
C101	C	0.091492	-0.227467	0.401892
C102	C	0.591492	0.272533	0.901892
C103	C	0.116403	-0.197244	0.348671
C104	C	0.616403	0.302756	0.848671
C105	C	0.044574	-0.227472	0.401899
C106	C	0.544574	0.272528	0.901899
C107	C	0.019664	-0.257695	0.455121
C108	C	0.519664	0.242305	0.955121
C109	C	0.041671	-0.287915	0.508335
C110	C	0.541671	0.212085	1.008335
C111	C	0.088587	-0.287912	0.508322
C112	C	0.588587	0.212088	1.008322
C113	C	0.094396	-0.167024	0.295456
C114	C	0.594396	0.332976	0.795456
C115	C	0.047480	-0.167029	0.295473
C116	C	0.547480	0.332971	0.795473
C117	C	0.022569	-0.197253	0.348694
C118	C	0.522569	0.302747	0.848694
C119	C	0.638096	-0.344184	0.401806
C120	C	1.138096	0.155816	0.901806
C121	C	0.638102	-0.394119	0.401816
C122	C	1.138102	0.105881	0.901816
C123	C	0.668410	-0.702308	0.348620
C124	C	1.168410	-0.202308	0.848620
C125	C	0.668464	-0.889982	0.348652
C126	C	1.168464	-0.389982	0.848652
O127	O	0.694169	-0.913009	0.303391
O128	O	1.194169	-0.413009	0.803391
N129	N	0.638267	-0.914907	0.401910
N130	N	1.138267	-0.414907	0.901910
C131	C	0.608056	-0.892910	0.455168
C132	C	1.108056	-0.392910	0.955168
O133	O	0.582376	-0.918417	0.500474
O134	O	1.082376	-0.418417	1.000474
C135	C	0.608004	-0.705237	0.455139
C136	C	1.108004	-0.205237	0.955139
C137	C	0.638200	-0.680315	0.401871
C138	C	1.138200	-0.180315	0.901871
C139	C	0.698603	-0.677385	0.295357
C140	C	1.198603	-0.177385	0.795357
C141	C	0.698588	-0.630470	0.295346
C142	C	1.198588	-0.130470	0.795346
C143	C	0.668378	-0.608476	0.348598
C144	C	1.168378	-0.108476	0.848598
C145	C	0.638184	-0.633399	0.401861
C146	C	1.138184	-0.133399	0.901861
C147	C	0.577796	-0.683242	0.508400
C148	C	1.077796	-0.183242	1.008400
C149	C	0.577786	-0.636321	0.508390
C150	C	1.077786	-0.136321	1.008390
C151	C	0.607982	-0.611398	0.455122
C152	C	1.107982	-0.111398	0.955122
C153	C	0.607959	-0.564490	0.455102
C154	C	1.107959	-0.064490	0.955102
N155	N	0.638156	-0.539565	0.401844
N156	N	1.138156	-0.039565	0.901844
C157	C	0.668366	-0.561558	0.348592
C158	C	1.168366	-0.061558	0.848592
C159	C	0.608085	-0.991441	0.455178
C160	C	1.108085	-0.491441	0.955178
C161	C	0.608097	-1.038359	0.455184
C162	C	1.108097	-0.538359	0.955184
C163	C	0.668506	-1.035427	0.348669
C164	C	1.168506	-0.535427	0.848669
C165	C	0.668491	-0.988509	0.348660
C166	C	1.168491	-0.488509	0.848660
C167	C	0.638282	-0.966516	0.401920
C168	C	1.138282	-0.466516	0.901920
C169	C	0.668331	-0.463032	0.348573
C170	C	1.168331	0.036968	0.848573
C171	C	0.668311	-0.416112	0.348564
C172	C	1.168311	0.083888	0.848564
C173	C	0.607904	-0.419048	0.455082
C174	C	1.107904	0.080952	0.955082
C175	C	0.607922	-0.465964	0.455088
C176	C	1.107922	0.034036	0.955088
C177	C	0.638139	-0.487954	0.401830
C178	C	1.138139	0.012046	0.901830
O179	O	0.582271	-0.541433	0.500346
O180	O	1.082271	-0.041433	1.000346
O181	O	0.694049	-0.536044	0.303306
O182	O	1.194049	-0.036044	0.803306
C183	C	0.668425	-0.749224	0.348630
C184	C	1.168425	-0.249224	0.848630
C185	C	0.638231	-0.774146	0.401893
C186	C	1.138231	-0.274146	0.901893
C187	C	0.608022	-0.752153	0.455145
C188	C	1.108022	-0.252153	0.955145
C189	C	0.638244	-0.821064	0.401899
C190	C	1.138244	-0.321064	0.901899
C191	C	0.668453	-0.843057	0.348648
C192	C	1.168453	-0.343057	0.848648
C193	C	0.698650	-0.818133	0.295389
C194	C	1.198650	-0.318133	0.795389
C195	C	0.698635	-0.771217	0.295379
C196	C	1.198635	-0.271217	0.795379
C197	C	0.577825	-0.777078	0.508403
C198	C	1.077825	-0.277078	1.008403
C199	C	0.577842	-0.823993	0.508409
C200	C	1.077842	-0.323993	1.008409
C201	C	0.608052	-0.845987	0.455157
C202	C	1.108052	-0.345987	0.955157
C203	C	0.755352	-0.227484	0.401908
C204	C	1.255352	0.272516	0.901908
C205	C	0.805286	-0.227493	0.401934
C206	C	1.305286	0.272507	0.901934
C207	C	0.632260	-0.233376	0.619293
C208	C	1.132260	0.266624	1.119293
C209	C	0.629739	-0.235896	0.711956
C210	C	1.129739	0.264104	1.211956
C211	C	0.638268	-0.110286	0.401907
C212	C	1.138268	0.389714	0.901907
C213	C	0.638307	-0.060352	0.401933
C214	C	1.138307	0.439648	0.901933
C215	C	0.644094	-0.221540	0.185247
C216	C	1.144094	0.278460	0.685247
C217	C	0.646703	-0.218894	0.092585
C218	C	1.146703	0.281106	0.592585
C219	C	0.625119	-0.240486	0.881611
C220	C	1.125119	0.259514	1.381611
C221	C	0.651320	-0.214305	0.922935
C222	C	1.151320	0.285695	1.422935
C223	C	0.648750	-0.216859	1.017337
C224	C	1.148750	0.283141	1.517337
C225	C	0.627689	-0.237933	0.787201
C226	C	1.127689	0.262067	1.287201
H227	H	0.379414	-0.282285	0.498374
H228	H	0.879414	0.217715	0.998374
H229	H	0.106499	-0.312524	0.551654
H230	H	0.606499	0.187476	1.051654
H231	H	0.723177	-0.610180	0.251974
H232	H	1.223177	-0.110180	0.751974
H233	H	0.600760	-0.264818	0.917129
H234	H	1.100760	0.235182	1.417129
O235	O	0.014816	-0.320546	0.565705
O236	O	0.514816	0.179454	1.065705
H237	H	0.022056	-0.314702	0.631171
H238	H	0.522056	0.185298	1.131171
H239	H	0.029568	-0.142417	0.252133
H240	H	0.529568	0.357583	0.752133
H241	H	0.675682	-0.189971	0.887415
H242	H	1.175682	0.310029	1.387415
O243	O	0.545271	-0.850874	0.565861
O244	O	1.045271	-0.350874	1.065861
H245	H	0.551169	-0.843627	0.631302
H246	H	1.051169	-0.343627	1.131302
H247	H	0.723247	-0.836048	0.252028
H248	H	1.223247	-0.336048	0.752028
H249	H	0.583505	-1.058647	0.498552
H250	H	1.083505	-0.558647	0.998552
H251	H	0.464524	-0.282282	0.498335
H252	H	0.964524	0.217718	0.998335
O253	O	0.545231	-0.753358	0.565823
O254	O	1.045231	-0.253358	1.065823
H255	H	0.524234	-0.778576	0.602845
H256	H	1.024234	-0.278576	1.102845
H257	H	0.247246	-0.312517	0.551616
H258	H	0.747246	0.187483	1.051616
H259	H	0.255432	-0.142389	0.252098
H260	H	0.755432	0.357611	0.752098
O261	O	0.155556	-0.320558	0.565607
O262	O	0.655556	0.179442	1.065607
H263	H	0.178748	-0.341588	0.602561
H264	H	0.678748	0.158412	1.102561
O265	O	0.731188	-0.701106	0.237919
O266	O	1.231188	-0.201106	0.737919
H267	H	0.725284	-0.690340	0.172475
H268	H	1.225284	-0.190340	0.672475
O269	O	-0.102054	-0.290306	0.512541
O270	O	0.397946	0.209694	1.012541
H271	H	-0.127263	-0.311320	0.549551
H272	H	0.372737	0.188680	1.049551
H273	H	0.583484	-0.973538	0.498550
H274	H	1.083484	-0.473538	0.998550
H275	H	0.693079	-0.968219	0.305285
H276	H	1.193079	-0.468219	0.805285
H277	H	0.553205	-0.703526	0.551773
H278	H	1.053205	-0.203526	1.051773
O279	O	-0.199553	-0.290335	0.512559
O280	O	0.300447	0.209665	1.012559
H281	H	-0.222067	-0.271441	0.555075
H282	H	0.277933	0.228559	1.055075
O283	O	-0.193536	-0.164673	0.291316
O284	O	0.306464	0.335327	0.791316
H285	H	-0.168327	-0.143654	0.254316
H286	H	0.331673	0.356346	0.754316
H287	H	-0.102608	-0.172649	0.305363
H288	H	0.397392	0.327351	0.805363
H289	H	0.384676	-0.172616	0.305252
H290	H	0.884676	0.327384	0.805252
O291	O	0.164504	-0.134407	0.238049
O292	O	0.664504	0.365593	0.738049
H293	H	0.189715	-0.113389	0.201055
H294	H	0.689715	0.386611	0.701055
O295	O	0.476380	-0.164621	0.291168
O296	O	0.976380	0.335379	0.791168
H297	H	0.512701	-0.169696	0.300112
H298	H	1.012701	0.330304	0.800112
O299	O	0.121262	-0.134434	0.238032
O300	O	0.621262	0.365566	0.738032
H301	H	0.098072	-0.113428	0.201026
H302	H	0.598072	0.386572	0.701026
H303	H	0.692937	-0.480931	0.305207
H304	H	1.192937	0.019069	0.805207
O305	O	0.700884	-0.389230	0.291116
O306	O	1.200884	0.110770	0.791116
H307	H	0.721896	-0.412409	0.254098
H308	H	1.221896	0.087591	0.754098
H309	H	0.693104	-1.053342	0.305310
H310	H	1.193104	-0.553342	0.805310
O311	O	0.545198	-0.612599	0.565826
O312	O	1.045198	-0.112599	1.065826
H313	H	0.524202	-0.637815	0.602855
H314	H	1.024202	-0.137815	1.102855
H315	H	0.583335	-0.486257	0.498465
H316	H	1.083335	0.013743	0.998465
H317	H	0.583307	-0.401134	0.498436
H318	H	1.083307	0.098866	0.998436
O319	O	0.731207	-0.744338	0.237935
O320	O	1.231207	-0.244338	0.737935
H321	H	0.752217	-0.767521	0.200919
H322	H	1.252217	-0.267521	0.700919
