data_functionalizedCrystal
_audit_creation_method	'MofGen! by Chris Wilmer'
_symmetry_space_group_name_H-M	'P1'
_symmetry_Int_Tables_number	1
_symmetry_cell_setting	triclinic
loop_
_symmetry_equiv_pos_as_xyz
  x,y,z
_cell_length_a	14.908783
_cell_length_b	18.050590
_cell_length_c	14.908803
_cell_angle_alpha	86.715811
_cell_angle_beta	90.199445
_cell_angle_gamma	93.309344
loop_
_atom_site_label
_atom_site_type_symbol
_atom_site_fract_x
_atom_site_fract_y
_atom_site_fract_z
Zn1	Zn	1.345192	-0.259921	0.587812
Zn2	Zn	1.845192	0.240079	1.087812
Zn3	Zn	1.353812	-0.376528	0.437450
Zn4	Zn	1.853812	0.123472	0.937450
Zn5	Zn	1.203541	-0.259071	0.428786
Zn6	Zn	1.703541	0.240929	0.928786
Zn7	Zn	1.194806	-0.390790	0.579070
Zn8	Zn	1.694806	0.109210	1.079070
O9	O	1.274338	-0.321578	0.508279
O10	O	1.774338	0.178422	1.008279
O11	O	1.472161	-0.269776	0.575151
O12	O	1.972161	0.230224	1.075151
O13	O	1.341141	-0.354623	0.310480
O14	O	1.841141	0.145377	0.810480
O15	O	1.222380	-0.155259	0.449914
O16	O	1.722380	0.344741	0.949914
O17	O	1.478494	-0.355447	0.464681
O18	O	1.978494	0.144553	0.964681
O19	O	1.326451	-0.155883	0.566750
O20	O	1.826451	0.344117	1.066750
O21	O	1.230738	-0.268328	0.304114
O22	O	1.730738	0.231672	0.804114
O23	O	1.076557	-0.282157	0.441436
O24	O	1.576557	0.217843	0.941436
O25	O	1.207492	-0.379755	0.706051
O26	O	1.707492	0.120245	1.206051
O27	O	1.070139	-0.378930	0.551849
O28	O	1.570139	0.121070	1.051849
O29	O	1.317980	-0.283606	0.712474
O30	O	1.817980	0.216394	1.212474
O31	O	1.332671	-0.482346	0.456204
O32	O	1.832671	0.017654	0.956204
O33	O	1.215850	-0.492824	0.560251
O34	O	1.715850	0.007176	1.060251
C35	C	1.040722	-0.332000	0.494754
C36	C	1.540722	0.168000	0.994754
C37	C	0.940780	-0.336477	0.488989
C38	C	1.440780	0.163523	0.988989
C39	C	0.746370	-0.255821	0.593365
C40	C	1.246370	0.244179	1.093365
C41	C	0.652464	-0.260025	0.587952
C42	C	1.152464	0.239975	1.087952
C43	C	0.659062	-0.349086	0.472745
C44	C	1.159062	0.150914	0.972745
C45	C	0.752967	-0.344882	0.478158
C46	C	1.252967	0.155118	0.978158
C47	C	0.796618	-0.298248	0.538472
C48	C	1.296618	0.201752	1.038472
C49	C	0.890525	-0.294048	0.543889
C50	C	1.390525	0.205952	1.043889
C51	C	0.897121	-0.383105	0.428678
C52	C	1.397121	0.116895	0.928678
C53	C	0.803215	-0.387309	0.423265
C54	C	1.303215	0.112691	0.923265
C55	C	1.274271	-0.514531	0.508240
C56	C	1.774271	-0.014531	1.008240
C57	C	1.274323	-0.597075	0.508257
C58	C	1.774323	-0.097075	1.008257
C59	C	1.337970	-0.790800	0.451768
C60	C	1.837970	-0.290800	0.951768
C61	C	1.355178	-0.843294	0.535097
C62	C	1.855178	-0.343294	1.035097
C63	C	1.274371	-0.748205	0.508296
C64	C	1.774371	-0.248205	1.008296
C65	C	1.257253	-0.842790	0.425009
C66	C	1.757253	-0.342790	0.925009
C67	C	1.274421	-0.894189	0.508327
C68	C	1.774421	-0.394189	1.008327
C69	C	1.291619	-0.799613	0.591671
C70	C	1.791619	-0.299613	1.091671
C71	C	1.193659	-0.799103	0.481526
C72	C	1.693659	-0.299103	0.981526
C73	C	1.210833	-0.851580	0.564910
C74	C	1.710833	-0.351580	1.064910
C75	C	1.274345	-0.664107	0.508278
C76	C	1.774345	-0.164107	1.008278
C77	C	1.274446	-0.978286	0.508354
C78	C	1.774446	-0.478286	1.008354
C79	C	1.508865	-0.311116	0.521858
C80	C	2.008865	0.188884	1.021858
C81	C	1.608807	-0.306657	0.527644
C82	C	2.108807	0.193343	1.027644
C83	C	1.260800	-0.333366	0.742798
C84	C	1.760800	0.166634	1.242798
C85	C	1.255031	-0.338389	0.842736
C86	C	1.755031	0.161611	1.342736
C87	C	1.274428	-0.127871	0.508341
C88	C	1.774428	0.372129	1.008341
C89	C	1.274467	-0.045324	0.508367
C90	C	1.774467	0.454676	1.008367
C91	C	1.359239	-0.247692	1.037221
C92	C	1.859239	0.252308	1.537221
C93	C	1.353821	-0.252409	1.131121
C94	C	1.853821	0.247591	1.631121
C95	C	1.238773	-0.352537	1.124440
C96	C	1.738773	0.147463	1.624440
C97	C	1.244191	-0.347820	1.030539
C98	C	1.744191	0.152180	1.530539
C99	C	1.304427	-0.295396	0.986933
C100	C	1.804427	0.204604	1.486933
C101	C	1.309849	-0.290683	0.893031
C102	C	1.809849	0.209317	1.393031
C103	C	1.194797	-0.390807	0.886351
C104	C	1.694797	0.109193	1.386351
C105	C	1.189379	-0.395524	0.980252
C106	C	1.689379	0.104476	1.480252
C107	C	1.287818	-0.309853	1.274672
C108	C	1.787818	0.190147	1.774672
C109	C	1.293591	-0.304831	1.174735
C110	C	1.793591	0.195169	1.674735
H111	H	0.623506	-0.387044	0.423631
H112	H	1.123506	0.112956	0.923631
C113	C	1.172497	-0.410181	1.172423
C114	C	1.672497	0.089819	1.672423
N115	N	1.122572	-0.453594	1.208564
N116	N	1.622572	0.046406	1.708564
C117	C	1.376105	-0.233014	0.845065
C118	C	1.876105	0.266986	1.345065
N119	N	1.426009	-0.189574	0.808940
N120	N	1.926009	0.310426	1.308940
C121	C	1.414121	-0.199933	1.186435
C122	C	1.914121	0.300067	1.686435
N123	N	1.459542	-0.160405	1.228097
N124	N	1.959542	0.339595	1.728097
H125	H	1.408289	-0.205010	1.001716
H126	H	1.908289	0.294990	1.501716
H127	H	1.140336	-0.438205	1.015769
H128	H	1.640336	0.061795	1.515769
C129	C	1.101453	-0.772727	0.450875
C130	C	1.601453	-0.272727	0.950875
N131	N	1.032004	-0.752856	0.427778
N132	N	1.532004	-0.252856	0.927778
C133	C	0.755189	-0.438604	0.356924
C134	C	1.255189	0.061396	0.856924
N135	N	0.719016	-0.477243	0.306958
N136	N	1.219016	0.022757	0.806958
C137	C	0.794387	-0.204528	0.659713
C138	C	1.294387	0.295472	1.159713
N139	N	0.830553	-0.165892	0.709688
N140	N	1.330553	0.334108	1.209688
H141	H	1.157068	-0.877947	0.612786
H142	H	1.657068	-0.377947	1.112786
H143	H	1.150167	-0.429653	0.845397
H144	H	1.650167	0.070347	1.345397
H145	H	0.926063	-0.256078	0.593000
H146	H	1.426063	0.243922	1.093000
H147	H	0.611556	-0.225475	0.632650
H148	H	1.111556	0.274525	1.132650
H149	H	0.938042	-0.417659	0.383987
H150	H	1.438042	0.082341	0.883987
H151	H	1.423455	-0.862792	0.557758
H152	H	1.923455	-0.362792	1.057758
C153	C	1.410646	-0.754989	0.387264
C154	C	1.910646	-0.254989	0.887264
N155	N	1.465388	-0.728014	0.338686
N156	N	1.965388	-0.228014	0.838686
C157	C	1.311322	-0.773975	0.686876
C158	C	1.811322	-0.273975	1.186876
N159	N	1.326167	-0.754662	0.758581
N160	N	1.826167	-0.254662	1.258581
C161	C	1.237660	-0.868547	0.329837
C162	C	1.737660	-0.368547	0.829837
N163	N	1.222908	-0.887943	0.258151
N164	N	1.722908	-0.387943	0.758151
