data_functionalizedCrystal
_audit_creation_method	'MofGen! by Chris Wilmer'
_symmetry_space_group_name_H-M	'P1'
_symmetry_Int_Tables_number	1
_symmetry_cell_setting	triclinic
loop_
_symmetry_equiv_pos_as_xyz
  x,y,z
_cell_length_a	12.759401
_cell_length_b	12.594516
_cell_length_c	12.594509
_cell_angle_alpha	89.973801
_cell_angle_beta	89.980791
_cell_angle_gamma	90.017577
loop_
_atom_site_label
_atom_site_type_symbol
_atom_site_fract_x
_atom_site_fract_y
_atom_site_fract_z
Zn1	Zn	1.606239	-0.423667	-0.601815
Zn2	Zn	1.606131	-0.601677	-0.423843
Zn3	Zn	1.430543	-0.423718	-0.423850
Zn4	Zn	1.430525	-0.601608	-0.601779
O5	O	1.518359	-0.512667	-0.512822
O6	O	1.753245	-0.447288	-0.578218
O7	O	1.582801	-0.578120	-0.274898
O8	O	1.453901	-0.274765	-0.447476
O9	O	1.753166	-0.578071	-0.447463
O10	O	1.582985	-0.274728	-0.578226
O11	O	1.453797	-0.447374	-0.274903
O12	O	1.283519	-0.447308	-0.447441
O13	O	1.453872	-0.577954	-0.750730
O14	O	1.283506	-0.578003	-0.578165
O15	O	1.582968	-0.447221	-0.750756
O16	O	1.582784	-0.750614	-0.447428
O17	O	1.453767	-0.750563	-0.578158
C18	C	1.245392	-0.512654	-0.512801
C19	C	1.128615	-0.512674	-0.512817
C20	C	1.073774	-0.580831	-0.580778
C21	C	0.964050	-0.580835	-0.580799
C22	C	0.964018	-0.444523	-0.444889
C23	C	1.073740	-0.444514	-0.444874
C24	C	1.518290	-0.789208	-0.512811
C25	C	1.518357	-0.907514	-0.512843
C26	C	1.448178	-0.976778	-0.583896
C27	C	1.422580	-1.047644	-0.486774
C28	C	1.544051	-1.047447	-0.609981
C29	C	1.492708	-0.976822	-0.415669
C30	C	1.614224	-0.976618	-0.538942
C31	C	1.588662	-1.047452	-0.441753
C32	C	1.792392	-0.512681	-0.512844
C33	C	1.909169	-0.512687	-0.512853
C34	C	1.518430	-0.512574	-0.790443
C35	C	1.518460	-0.512534	-0.908748
C36	C	1.518457	-0.235047	-0.512856
C37	C	1.518499	-0.116741	-0.512870
C38	C	1.448266	-0.583600	-0.977987
C39	C	1.544132	-0.609603	-1.048775
C40	C	1.422669	-0.486467	-1.048760
C41	C	1.614375	-0.538589	-0.977978
C42	C	1.492848	-0.415407	-0.977956
C43	C	1.588779	-0.441374	-1.048712
C44	C	1.518350	-0.512683	-0.236281
C45	C	1.518523	-0.512423	-0.117976
H46	H	0.919403	-0.636334	-0.636141
H47	H	1.471122	-0.333340	-0.946826
H48	H	1.648235	-0.381229	-1.079570
N49	N	1.321010	-0.458843	-1.087744
N50	N	1.281204	-0.371404	-1.063769
H51	H	1.209405	-0.351901	-1.091297
N52	N	1.716074	-0.566307	-0.939169
N53	N	1.793625	-0.510313	-0.962561
H54	H	1.865449	-0.529891	-0.935154
H55	H	1.388724	-0.945745	-0.643897
H56	H	1.118393	-0.389006	-0.389532
N57	N	1.129812	-0.650460	-0.650181
N58	N	1.080828	-0.711309	-0.710855
H59	H	1.120402	-0.760487	-0.759875
H60	H	1.341573	-1.078866	-0.464721
H61	H	0.919325	-0.389031	-0.389571
N62	N	1.465386	-0.938057	-0.312607
N63	N	1.460870	-0.840329	-0.295975
H64	H	1.441564	-0.812947	-0.223191
H65	H	1.565726	-1.078470	-0.692120
N66	N	1.715809	-0.937423	-0.566675
N67	N	1.732162	-0.839628	-0.570323
H68	H	1.803906	-0.811941	-0.589923
H69	H	1.388953	-0.643791	-0.946934
N70	N	1.663186	-1.086131	-0.366296
N71	N	1.653604	-1.063288	-0.270209
H72	H	1.706232	-1.090606	-0.216914
H73	H	1.565829	-0.691694	-1.079882
