data_functionalizedCrystal
_audit_creation_method	'MofGen! by Chris Wilmer'
_symmetry_space_group_name_H-M	'P1'
_symmetry_Int_Tables_number	1
_symmetry_cell_setting	triclinic
loop_
_symmetry_equiv_pos_as_xyz
  x,y,z
_cell_length_a	16.992694
_cell_length_b	15.995292
_cell_length_c	15.455313
_cell_angle_alpha	92.667666
_cell_angle_beta	87.142206
_cell_angle_gamma	87.068419
loop_
_atom_site_label
_atom_site_type_symbol
_atom_site_fract_x
_atom_site_fract_y
_atom_site_fract_z
O1	O	1.043788	0.174118	-0.072012
O2	O	0.815505	0.172169	-0.072038
O3	O	0.935911	0.051672	-0.072025
O4	O	0.923383	0.294616	-0.072024
O5	O	0.929025	0.058532	0.072236
O6	O	0.808619	0.179030	0.072224
O7	O	1.036903	0.180979	0.072249
Cu8	Cu	0.922133	0.180630	0.085409
Cu9	Cu	0.930275	0.172517	-0.085197
O10	O	0.916497	0.301476	0.072237
C11	C	0.782850	0.173094	0.000090
C12	C	0.695808	0.165617	0.000080
C13	C	0.931958	0.023872	0.000103
C14	C	0.930430	-0.069183	0.000096
C15	C	0.645553	0.237753	0.000081
C16	C	0.563768	0.230724	0.000093
C17	C	0.532238	0.151557	0.000097
C18	C	0.582499	0.079416	0.000099
C19	C	0.664283	0.086446	0.000093
C20	C	0.288645	0.122419	0.000120
C21	C	0.206855	0.115394	0.000124
C22	C	0.188129	0.266704	0.000119
C23	C	0.269915	0.273727	0.000108
C24	C	0.320169	0.201585	0.000114
N25	N	0.448640	0.144370	0.000107
N26	N	0.403765	0.208773	0.000111
C27	C	0.924810	-0.407297	0.000104
C28	C	1.011700	-0.378154	0.000436
C29	C	1.013368	-0.281383	0.000108
C30	C	0.927598	-0.239555	0.000101
C31	C	0.888081	-0.275481	-0.082282
C32	C	0.887038	-0.372345	-0.082348
C33	C	0.877434	-0.364519	0.081704
C34	C	0.880603	-0.267760	0.082790
C35	C	0.929170	-0.144754	0.000096
C36	C	0.923236	-0.502099	0.000103
C37	C	1.069558	0.180054	0.000120
C38	C	1.156600	0.187531	0.000125
C39	C	0.920450	0.329275	0.000107
C40	C	0.921978	0.422331	0.000108
N41	N	0.916411	0.186337	0.205404
N42	N	0.936003	0.166805	-0.205192
C43	C	0.967582	0.135166	0.250803
C44	C	0.963262	0.139490	0.341611
C45	C	0.907775	0.194989	0.387017
C46	C	0.856599	0.246161	0.341611
C47	C	0.860916	0.241832	0.250806
C48	C	0.889144	0.213649	0.658597
C49	C	0.884833	0.217975	0.749409
C50	C	0.991495	0.111303	0.749402
C51	C	0.995810	0.106983	0.658594
C52	C	0.944631	0.158152	0.613196
N53	N	0.903360	0.199411	0.479837
N54	N	0.949043	0.153725	0.520378
H55	H	0.671218	0.302219	0.000076
H56	H	1.004928	0.097823	0.378574
C57	C	0.509338	0.309142	0.000048
C58	C	0.554456	0.379975	0.000015
C59	C	0.504343	0.452231	-0.000035
H60	H	0.474636	0.312059	0.050346
H61	H	0.479448	0.307196	-0.050275
H62	H	0.584332	0.381922	0.050333
H63	H	0.589156	0.377086	-0.050279
H64	H	0.474453	0.450285	-0.050359
H65	H	0.469643	0.455140	0.050263
H66	H	0.534948	0.500299	-0.000066
C67	C	0.932214	-0.249769	-0.163956
C68	C	0.930212	-0.162206	-0.164989
C69	C	0.970872	-0.138492	-0.240205
H70	H	0.907910	-0.271724	-0.213531
H71	H	0.985468	-0.271115	-0.164693
H72	H	0.876968	-0.140869	-0.164260
H73	H	0.954521	-0.140230	-0.115432
H74	H	1.024126	-0.159838	-0.240942
H75	H	0.946563	-0.160452	-0.289774
H76	H	0.969524	-0.079079	-0.240912
H77	H	0.819246	0.283500	0.213842
C78	C	0.931022	-0.409488	-0.164419
C79	C	0.930538	-0.497031	-0.165360
C80	C	0.971040	-0.531271	-0.240955
H81	H	0.983959	-0.392979	-0.165775
H82	H	0.905875	-0.389849	-0.213709
H83	H	0.955686	-0.516663	-0.116083
H84	H	0.877611	-0.513564	-0.164017
H85	H	0.945894	-0.511632	-0.290245
H86	H	1.023975	-0.514756	-0.242305
H87	H	0.970711	-0.590672	-0.241608
C88	C	0.303990	0.359758	0.000152
C89	C	0.242472	0.421431	0.000179
C90	C	0.273831	0.500693	0.000229
H91	H	0.337887	0.363372	-0.050143
H92	H	0.333088	0.368082	0.050478
H93	H	0.213388	0.413110	-0.050141
H94	H	0.208571	0.417844	0.050471
H95	H	0.302929	0.509017	0.050554
H96	H	0.307727	0.504298	-0.050067
H97	H	0.232096	0.542548	0.000255
C98	C	0.792109	-0.388884	0.082622
C99	C	0.774161	-0.430159	0.158477
C100	C	0.695569	-0.452611	0.159349
H101	H	0.784794	-0.425096	0.033539
H102	H	0.758285	-0.339895	0.080855
H103	H	0.807975	-0.479140	0.160236
H104	H	0.781458	-0.393962	0.207573
H105	H	0.661744	-0.403622	0.157582
H106	H	0.688261	-0.488821	0.110262
H107	H	0.683379	-0.480611	0.210819
C108	C	0.909758	-0.395636	0.165036
C109	C	0.935776	-0.327836	0.214446
C110	C	0.965557	-0.356470	0.291216
H111	H	0.952664	-0.435239	0.151395
H112	H	0.869394	-0.421438	0.197246
H113	H	0.976136	-0.302048	0.182243
H114	H	0.892884	-0.288228	0.228110
H115	H	0.925194	-0.382272	0.323426
H116	H	1.008461	-0.396073	0.277567
H117	H	0.983208	-0.310472	0.324754
C118	C	1.062761	-0.257362	-0.078700
C119	C	1.064406	-0.169958	-0.079189
C120	C	1.109903	-0.147800	-0.151774
H121	H	1.040272	-0.277989	-0.130001
H122	H	1.115006	-0.280985	-0.076295
H123	H	1.012171	-0.146344	-0.081601
H124	H	1.086901	-0.149311	-0.027905
H125	H	1.162148	-0.171424	-0.149370
H126	H	1.087410	-0.168432	-0.203069
H127	H	1.111031	-0.088496	-0.152111
H128	H	0.147204	0.325437	0.000116
H129	H	1.012768	0.089977	0.213839
C130	C	0.796395	0.306546	0.390793
C131	C	0.810123	0.388631	0.368674
C132	C	0.754671	0.444281	0.413951
H133	H	0.801093	0.301914	0.451390
H134	H	0.744763	0.293254	0.375899
H135	H	0.861741	0.401920	0.383574
H136	H	0.805418	0.393291	0.308085
H137	H	0.703039	0.430989	0.399057
H138	H	0.759374	0.439641	0.474545
H139	H	0.763973	0.499981	0.398943
C140	C	0.172471	0.029510	0.000093
C141	C	0.090094	0.038797	0.000071
C142	C	0.058393	-0.040296	0.000031
H143	H	0.187238	0.001904	0.050390
H144	H	0.192073	-0.002834	-0.050231
H145	H	0.070500	0.071128	0.050390
H146	H	0.075305	0.066389	-0.050222
H147	H	0.077994	-0.072641	-0.050292
H148	H	0.073165	-0.067896	0.050329
H149	H	0.002497	-0.034006	0.000009
C150	C	1.052607	-0.408587	0.079282
C151	C	1.075611	-0.339560	0.129128
C152	C	1.113290	-0.367568	0.201773
H153	H	1.097850	-0.443435	0.060873
H154	H	1.017308	-0.439552	0.113168
H155	H	1.110908	-0.308608	0.095247
H156	H	1.030383	-0.304705	0.147558
H157	H	1.077991	-0.398534	0.235660
H158	H	1.158529	-0.402416	0.183356
H159	H	1.128896	-0.320738	0.235607
C160	C	1.056078	0.046639	0.609455
C161	C	1.099954	0.002734	0.668651
C162	C	1.155476	-0.052868	0.623416
H163	H	1.090467	0.077183	0.574020
H164	H	1.029584	0.008146	0.574058
H165	H	1.126447	0.041221	0.704032
H166	H	1.065587	-0.027827	0.704088
H167	H	1.128982	-0.091360	0.588019
H168	H	1.189859	-0.022317	0.587982
H169	H	1.185248	-0.082669	0.663573
H170	H	0.705200	0.027704	0.000092
H171	H	1.033161	0.069642	0.786373
C172	C	0.343071	0.043995	0.000079
C173	C	0.297952	-0.026839	0.000059
C174	C	0.348066	-0.099102	0.000010
H175	H	0.372986	0.045865	0.050372
H176	H	0.377750	0.041148	-0.050249
H177	H	0.263286	-0.023992	0.050381
H178	H	0.268038	-0.028736	-0.050231
H179	H	0.382745	-0.101949	-0.050318
H180	H	0.377979	-0.097223	0.050304
H181	H	0.317460	-0.147171	-0.000012
H182	H	0.839646	0.263172	0.786375
C183	C	0.548233	-0.006525	-0.000075
C184	C	0.505379	-0.018519	-0.074304
C185	C	0.473813	-0.097683	-0.074502
H186	H	0.514272	-0.010108	0.050174
H187	H	0.589858	-0.048509	-0.000122
H188	H	0.463759	0.023454	-0.074249
H189	H	0.539323	-0.014953	-0.124565
H190	H	0.515438	-0.139668	-0.074549
H191	H	0.439855	-0.101259	-0.024250
H192	H	0.444739	-0.105835	-0.124869
C193	C	1.059943	-0.417695	-0.077782
C194	C	1.123558	-0.466530	-0.049619
C195	C	1.168008	-0.502976	-0.121650
H196	H	1.079255	-0.374896	-0.112407
H197	H	1.027629	-0.452106	-0.111116
H198	H	1.155866	-0.432122	-0.016299
H199	H	1.104268	-0.509343	-0.015004
H200	H	1.135694	-0.537386	-0.154984
H201	H	1.187315	-0.460171	-0.156270
H202	H	1.211171	-0.536120	-0.102552
C203	C	0.802272	-0.397512	-0.087408
C204	C	0.752221	-0.325514	-0.090389
C205	C	0.674133	-0.348662	-0.095073
H206	H	0.787881	-0.427263	-0.037758
H207	H	0.797641	-0.432293	-0.138230
H208	H	0.756848	-0.290747	-0.039573
H209	H	0.766586	-0.295754	-0.140037
H210	H	0.669503	-0.383444	-0.145894
H211	H	0.659751	-0.378414	-0.045421
H212	H	0.640165	-0.299817	-0.097104
H213	H	0.847473	0.255314	0.621641
H214	H	0.825113	-0.247983	-0.085350
C215	C	0.796828	-0.229021	0.089250
C216	C	0.785340	-0.178640	0.018785
C217	C	0.708173	-0.142948	0.024696
H218	H	0.788601	-0.195777	0.141779
H219	H	0.760499	-0.272234	0.088514
H220	H	0.821659	-0.135433	0.019529
H221	H	0.793551	-0.211865	-0.033754
H222	H	0.671843	-0.186161	0.023959
H223	H	0.699952	-0.109708	0.077227
H224	H	0.700366	-0.108767	-0.023117
H225	H	0.909331	-0.244179	0.143736
H226	H	1.044577	-0.257273	0.059162
