data_functionalizedCrystal
_audit_creation_method	'MofGen! by Chris Wilmer'
_symmetry_space_group_name_H-M	'P1'
_symmetry_Int_Tables_number	1
_symmetry_cell_setting	triclinic
loop_
_symmetry_equiv_pos_as_xyz
  x,y,z
_cell_length_a	19.077105
_cell_length_b	19.077068
_cell_length_c	19.076919
_cell_angle_alpha	85.529249
_cell_angle_beta	90.076224
_cell_angle_gamma	89.884684
loop_
_atom_site_label
_atom_site_type_symbol
_atom_site_fract_x
_atom_site_fract_y
_atom_site_fract_z
Zn1	Zn	1.044048	0.340450	-0.453500
Zn2	Zn	1.544048	0.840450	0.046500
Zn3	Zn	1.043962	0.453600	-0.340340
Zn4	Zn	1.543962	0.953600	0.159660
Zn5	Zn	0.931660	0.331023	-0.330931
Zn6	Zn	1.431660	0.831023	0.169069
Zn7	Zn	0.921801	0.453176	-0.453077
Zn8	Zn	1.421801	0.953176	0.046923
O9	O	0.985368	0.394562	-0.394462
O10	O	1.485368	0.894562	0.105538
O11	O	1.142196	0.359583	-0.442604
O12	O	1.642196	0.859583	0.057396
O13	O	1.033154	0.433572	-0.240616
O14	O	1.533154	0.933572	0.259384
O15	O	0.950731	0.233799	-0.343429
O16	O	1.450731	0.733799	0.156571
O17	O	1.142133	0.442714	-0.359466
O18	O	1.642133	0.942714	0.140534
O19	O	1.033302	0.240725	-0.433479
O20	O	1.533302	0.740725	0.066521
O21	O	0.950647	0.343516	-0.233703
O22	O	1.450647	0.843516	0.266297
O23	O	0.832193	0.343104	-0.343019
O24	O	1.332193	0.843104	0.156981
O25	O	0.933928	0.441990	-0.551609
O26	O	1.433928	0.941990	-0.051609
O27	O	0.824949	0.432849	-0.432759
O28	O	1.324949	0.932849	0.067241
O29	O	1.023742	0.359171	-0.551919
O30	O	1.523742	0.859171	-0.051919
O31	O	1.023594	0.552019	-0.359056
O32	O	1.523594	1.052019	0.140944
O33	O	0.933844	0.551707	-0.441883
O34	O	1.433844	1.051707	0.058117
C35	C	0.803119	0.386908	-0.386822
C36	C	1.303119	0.886908	0.113178
C37	C	0.725151	0.383651	-0.383571
C38	C	1.225151	0.883651	0.116429
C39	C	0.977658	0.577398	-0.401461
C40	C	1.477658	1.077398	0.098539
C41	C	0.974423	0.655619	-0.404482
C42	C	1.474423	1.155619	0.095518
C43	C	0.977745	0.401585	-0.578012
C44	C	1.477745	0.901585	-0.078012
C45	C	0.974497	0.404578	-0.656230
C46	C	1.474497	0.904578	-0.156230
C47	C	0.684769	0.428912	-0.428699
C48	C	1.184769	0.928912	0.071301
C49	C	0.611510	0.425842	-0.425647
C50	C	1.111510	0.925842	0.074353
C51	C	0.578634	0.377515	-0.377464
C52	C	1.078634	0.877515	0.122536
C53	C	0.619022	0.332250	-0.332335
C54	C	1.119022	0.832250	0.167665
C55	C	0.692280	0.335317	-0.335390
C56	C	1.192280	0.835317	0.164610
C57	C	0.359940	0.363323	-0.363326
C58	C	0.859940	0.863323	0.136674
C59	C	0.286677	0.360262	-0.360273
C60	C	0.786677	0.860262	0.139727
C61	C	0.279170	0.453853	-0.453586
C62	C	0.779170	0.953853	0.046414
C63	C	0.352429	0.456918	-0.456635
C64	C	0.852429	0.956918	0.043365
C65	C	0.392810	0.411651	-0.411508
C66	C	0.892810	0.911651	0.088492
N67	N	0.503752	0.374378	-0.374342
N68	N	1.003752	0.874378	0.125658
N69	N	0.467691	0.414785	-0.414634
N70	N	0.967691	0.914785	0.085366
C71	C	1.168328	0.402247	-0.402132
C72	C	1.668328	0.902247	0.097868
C73	C	1.246295	0.405522	-0.405400
C74	C	1.746295	0.905522	0.094600
C75	C	0.993126	0.211015	-0.387451
C76	C	1.493126	0.711015	0.112549
C77	C	0.996432	0.132798	-0.384464
C78	C	1.496432	0.632798	0.115536
C79	C	1.019665	0.692509	-0.362816
C80	C	1.519665	1.192509	0.137184
C81	C	1.016626	0.766007	-0.365661
C82	C	1.516626	1.266007	0.134339
C83	C	0.968342	0.802612	-0.410169
C84	C	1.468342	1.302612	0.089831
C85	C	0.923098	0.765717	-0.451839
C86	C	1.423098	1.265717	0.048161
C87	C	0.926141	0.692221	-0.448997
C88	C	1.426141	1.192221	0.051003
C89	C	0.954231	1.022406	-0.423292
C90	C	1.454231	1.522406	0.076708
C91	C	0.951190	1.095907	-0.426130
C92	C	1.451190	1.595907	0.073870
C93	C	1.044720	1.096192	-0.339952
C94	C	1.544720	1.596192	0.160048
C95	C	1.047755	1.022695	-0.337111
C96	C	1.547755	1.522695	0.162889
C97	C	1.002514	0.985806	-0.378784
C98	C	1.502514	1.485806	0.121216
N99	N	0.965233	0.877738	-0.413077
N100	N	1.465233	1.377738	0.086923
N101	N	1.005627	0.910681	-0.375880
N102	N	1.505627	1.410681	0.124120
C103	C	1.019730	0.362866	-0.693140
C104	C	1.519730	0.862866	-0.193140
C105	C	1.016669	0.365675	-0.766634
C106	C	1.516669	0.865675	-0.266634
C107	C	0.968378	0.410200	-0.803216
C108	C	1.468378	0.910200	-0.303216
C109	C	0.923140	0.451913	-0.766301
C110	C	1.423140	0.951913	-0.266301
C111	C	0.926198	0.449100	-0.692809
C112	C	1.426198	0.949100	-0.192809
C113	C	0.954216	0.423233	-1.022998
C114	C	1.454216	0.923233	-0.522998
C115	C	0.951163	0.426044	-1.096496
C116	C	1.451163	0.926044	-0.596496
C117	C	1.044691	0.339805	-1.096823
C118	C	1.544691	0.839805	-0.596823
C119	C	1.047748	0.337000	-1.023329
C120	C	1.547748	0.837000	-0.523329
C121	C	1.002507	0.378710	-0.986421
C122	C	1.502507	0.878710	-0.486421
N123	N	0.965250	0.413073	-0.878339
N124	N	1.465250	0.913073	-0.378339
N125	N	1.005632	0.375832	-0.911299
N126	N	1.505632	0.875832	-0.411299
C127	C	0.993003	0.387518	-0.211626
C128	C	1.493003	0.887518	0.288374
C129	C	0.996396	0.384333	-0.133406
C130	C	1.496396	0.884333	0.366594
H131	H	0.578633	0.462699	-0.462394
H132	H	1.078633	0.962699	0.037606
O133	O	0.905435	0.982616	-0.468229
O134	O	1.405435	1.482616	0.031771
H135	H	0.872475	0.946469	-0.433910
H136	H	1.372475	1.446469	0.066090
H137	H	0.883787	0.795527	-0.488082
H138	H	1.383787	1.295527	0.011918
H139	H	1.053504	0.331711	-0.796682
H140	H	1.553504	0.831711	-0.296682
O141	O	0.877337	0.652426	-0.493927
O142	O	1.377337	1.152426	0.006073
H143	H	0.843244	0.690225	-0.525347
H144	H	1.343244	1.190225	-0.025347
O145	O	1.099840	0.983213	-0.289113
O146	O	1.599840	1.483213	0.210887
H147	H	1.130795	1.021214	-0.260623
H148	H	1.630795	1.521214	0.239377
H149	H	0.911879	1.125710	-0.462386
H150	H	1.411879	1.625710	0.037614
H151	H	1.081523	0.305846	-1.126882
H152	H	1.581523	0.805846	-0.626882
O153	O	1.071815	0.314843	-0.653683
O154	O	1.571815	0.814843	-0.153683
H155	H	1.102749	0.286306	-0.691699
H156	H	1.602749	0.786306	-0.191699
H157	H	0.911836	0.462303	-1.126280
H158	H	1.411836	0.962303	-0.626280
O159	O	0.403491	0.314523	-0.314635
O160	O	0.903491	0.814523	0.185365
H161	H	0.368320	0.280416	-0.280607
H162	H	0.868320	0.780416	0.219393
O163	O	0.583569	0.280141	-0.280347
O164	O	1.083569	0.780141	0.219653
H165	H	0.525844	0.285623	-0.285791
H166	H	1.025844	0.785623	0.214209
H167	H	0.917388	0.457207	-0.992957
H168	H	1.417388	0.957207	-0.492957
H169	H	0.379191	0.496273	-0.495869
H170	H	0.879191	0.996273	0.004131
H171	H	1.081554	1.126235	-0.306026
H172	H	1.581554	1.626235	0.193974
O173	O	1.071754	0.653029	-0.314822
O174	O	1.571754	1.153029	0.185178
H175	H	1.043269	0.616899	-0.276378
H176	H	1.543269	1.116899	0.223622
H177	H	0.246283	0.490707	-0.490327
H178	H	0.746283	0.990707	0.009673
H179	H	1.087073	0.300745	-0.993549
H180	H	1.587073	0.800745	-0.493549
O181	O	0.735841	0.286509	-0.286710
O182	O	1.235841	0.786509	0.213290
H183	H	0.700674	0.252395	-0.252685
H184	H	1.200674	0.752395	0.247315
H185	H	0.883818	0.488163	-0.796093
H186	H	1.383818	0.988163	-0.296093
H187	H	0.889357	0.483058	-0.662757
H188	H	1.389357	0.983058	-0.162757
H189	H	0.711530	0.468267	-0.467932
H190	H	1.211530	0.968267	0.032068
O191	O	1.065421	0.805797	-0.320720
O192	O	1.565421	1.305797	0.179280
H193	H	1.056302	0.789114	-0.264434
H194	H	1.556302	1.289114	0.235566
O195	O	0.251214	0.308131	-0.308307
O196	O	0.751214	0.808131	0.191693
H197	H	0.291600	0.277162	-0.277445
H198	H	0.791600	0.777162	0.222555
