data_functionalizedCrystal
_audit_creation_method	'MofGen! by Chris Wilmer'
_symmetry_space_group_name_H-M	'P1'
_symmetry_Int_Tables_number	1
_symmetry_cell_setting	triclinic
loop_
_symmetry_equiv_pos_as_xyz
  x,y,z
_cell_length_a	13.101039
_cell_length_b	14.519709
_cell_length_c	14.044220
_cell_angle_alpha	88.434511
_cell_angle_beta	93.667477
_cell_angle_gamma	86.641741
loop_
_atom_site_label
_atom_site_type_symbol
_atom_site_fract_x
_atom_site_fract_y
_atom_site_fract_z
O1	O	0.085082	-1.238528	-0.119055
O2	O	0.585082	-0.738528	0.380945
O3	O	0.085114	-0.971233	-0.133688
O4	O	0.585114	-0.471233	0.366312
O5	O	0.085089	-1.100868	0.011619
O6	O	0.585089	-0.600868	0.511619
O7	O	0.085108	-1.108893	-0.264362
O8	O	0.585108	-0.608893	0.235638
O9	O	-0.085340	-1.091568	0.001176
O10	O	0.414660	-0.591568	0.501176
O11	O	-0.085314	-0.961933	-0.144131
O12	O	0.414686	-0.461933	0.355869
O13	O	-0.085346	-1.229228	-0.129498
O14	O	0.414654	-0.729228	0.370502
Zn15	Zn	-0.112389	-1.094104	-0.138473
Zn16	Zn	0.387611	-0.594104	0.361527
Zn17	Zn	0.112157	-1.106357	-0.124714
Zn18	Zn	0.612157	-0.606357	0.375286
O19	O	-0.085320	-1.099593	-0.274805
O20	O	0.414680	-0.599593	0.225195
C21	C	-0.000096	-0.932168	-0.138227
C22	C	0.499904	-0.432168	0.361773
C23	C	-0.000084	-0.829623	-0.136183
C24	C	0.499916	-0.329623	0.363817
N25	N	-0.265636	-1.085748	-0.147862
N26	N	0.234364	-0.585748	0.352138
C27	C	-0.000133	-1.268292	-0.124959
C28	C	0.499867	-0.768292	0.375041
C29	C	-0.000138	-1.370838	-0.127003
C30	C	0.499862	-0.870838	0.372997
C31	C	-0.474676	-1.074381	-0.160646
C32	C	0.025324	-0.574381	0.339354
C33	C	-0.525562	-1.126083	-0.102536
C34	C	-0.025562	-0.626083	0.397464
C35	C	-0.641879	-1.119759	-0.109649
C36	C	-0.141879	-0.619759	0.390351
C37	C	-0.358348	-1.080705	-0.153534
C38	C	0.141652	-0.580705	0.346466
N39	N	0.265404	-1.114719	-0.115317
N40	N	0.765404	-0.614719	0.384683
C41	C	-0.000126	-1.092705	0.041718
C42	C	0.499874	-0.592705	0.541718
C43	C	-0.000126	-1.082228	0.146962
C44	C	0.499874	-0.582228	0.646962
C45	C	-0.000131	-0.454118	-0.128661
C46	C	0.499869	0.045882	0.371339
C47	C	-0.000118	-0.558595	-0.130750
C48	C	0.499882	-0.058595	0.369250
C49	C	-0.000107	-0.641867	-0.132422
C50	C	0.499893	-0.141867	0.367578
C51	C	-0.000095	-0.746351	-0.134511
C52	C	0.499905	-0.246351	0.365489
C53	C	-0.000104	-1.107756	-0.304904
C54	C	0.499896	-0.607756	0.195096
C55	C	-0.000097	-1.118233	-0.410147
C56	C	0.499903	-0.618233	0.089853
C57	C	-0.000109	-1.063075	0.339657
C58	C	0.499891	-0.563075	0.839657
C59	C	-0.000114	-1.137382	0.397163
C60	C	0.499886	-0.637382	0.897163
C61	C	-0.000105	-1.126725	0.504385
C62	C	0.499895	-0.626725	1.004385
C63	C	-0.000118	-1.073730	0.232424
C64	C	0.499882	-0.573730	0.732424
H65	H	-0.518464	-1.025371	-0.215734
H66	H	-0.018464	-0.525371	0.284266
H67	H	-0.000054	-1.209007	0.365875
H68	H	0.499946	-0.709007	0.865875
H69	H	-0.000098	-0.991459	0.370948
H70	H	0.499902	-0.491459	0.870948
H71	H	-0.481769	-1.175098	-0.047446
H72	H	0.018231	-0.675098	0.452554
