data_functionalizedCrystal
_audit_creation_method	'MofGen! by Chris Wilmer'
_symmetry_space_group_name_H-M	'P1'
_symmetry_Int_Tables_number	1
_symmetry_cell_setting	triclinic
loop_
_symmetry_equiv_pos_as_xyz
  x,y,z
_cell_length_a	22.610064
_cell_length_b	23.532407
_cell_length_c	23.532407
_cell_angle_alpha	82.848678
_cell_angle_beta	89.981742
_cell_angle_gamma	90.003678
loop_
_atom_site_label
_atom_site_type_symbol
_atom_site_fract_x
_atom_site_fract_y
_atom_site_fract_z
O1	O	0.049117	-0.755256	-0.069142
O2	O	0.382450	-0.421923	0.264191
O3	O	0.715783	-0.088590	0.597524
O4	O	0.049135	-0.589393	-0.079146
O5	O	0.382468	-0.256059	0.254188
O6	O	0.715802	0.077274	0.587521
O7	O	0.049114	-0.677326	0.008788
O8	O	0.382448	-0.343993	0.342121
O9	O	0.715781	-0.010659	0.675454
O10	O	0.049137	-0.667323	-0.157076
O11	O	0.382471	-0.333990	0.176258
O12	O	0.715804	-0.000656	0.509591
O13	O	-0.049255	-0.677325	0.008806
O14	O	0.284079	-0.343992	0.342139
O15	O	0.617412	-0.010659	0.675472
O16	O	-0.049234	-0.589392	-0.079128
O17	O	0.284099	-0.256059	0.254206
O18	O	0.617432	0.077275	0.587539
O19	O	-0.049252	-0.755255	-0.069124
O20	O	0.284081	-0.421922	0.264209
O21	O	0.617414	-0.088589	0.597542
Zn22	Zn	-0.064862	-0.672323	-0.074123
Zn23	Zn	0.268472	-0.338990	0.259210
Zn24	Zn	0.601805	-0.005657	0.592544
Zn25	Zn	0.064744	-0.672325	-0.074147
Zn26	Zn	0.398077	-0.338991	0.259186
Zn27	Zn	0.731411	-0.005658	0.592520
O28	O	-0.049232	-0.667322	-0.157058
O29	O	0.284101	-0.333989	0.176276
O30	O	0.617435	-0.000655	0.509609
C31	C	-0.000048	-0.568176	-0.078882
C32	C	0.333286	-0.234843	0.254451
C33	C	0.666619	0.098490	0.587785
C34	C	-0.000041	-0.504959	-0.078116
C35	C	0.333292	-0.171626	0.255217
C36	C	0.666626	0.161707	0.588551
N37	N	-0.153314	-0.672327	-0.074106
N38	N	0.180019	-0.338993	0.259227
N39	N	0.513353	-0.005660	0.592560
N40	N	0.153196	-0.672326	-0.074159
N41	N	0.486530	-0.338993	0.259174
N42	N	0.819863	-0.005659	0.592508
C43	C	0.438041	-0.706606	-0.108573
C44	C	0.771375	-0.373273	0.224760
C45	C	1.104708	-0.039939	0.558093
C46	C	0.376122	-0.706606	-0.108577
C47	C	0.709455	-0.373273	0.224756
C48	C	1.042788	-0.039940	0.558090
O49	O	0.344100	-0.735764	-0.137852
O50	O	0.677433	-0.402431	0.195481
O51	O	1.010767	-0.069097	0.528814
N52	N	0.345149	-0.672335	-0.074141
N53	N	0.678482	-0.339001	0.259192
N54	N	1.011815	-0.005668	0.592526
C55	C	0.376099	-0.638065	-0.039695
C56	C	0.709432	-0.304732	0.293638
C57	C	1.042766	0.028602	0.626972
O58	O	0.344069	-0.608915	-0.010405
O59	O	0.677402	-0.275582	0.322929
O60	O	1.010735	0.057752	0.656262
C61	C	0.438018	-0.638068	-0.039689
C62	C	0.771351	-0.304735	0.293644
C63	C	1.104685	0.028598	0.626978
C64	C	0.468987	-0.672338	-0.074131
C65	C	0.802321	-0.339004	0.259202
C66	C	1.135654	-0.005671	0.592535
C67	C	0.469011	-0.740873	-0.143012
C68	C	0.802344	-0.407540	0.190321
C69	C	1.135678	-0.074206	0.523654
C70	C	0.530927	-0.740872	-0.143009
C71	C	0.864260	-0.407538	0.190324
C72	C	1.197593	-0.074205	0.523657
C73	C	0.561873	-0.706603	-0.108567
C74	C	0.895206	-0.373270	0.224766
C75	C	1.228539	-0.039937	0.558099
C76	C	0.530903	-0.672336	-0.074128
C77	C	0.864236	-0.339003	0.259205
C78	C	1.197570	-0.005670	0.592538
C79	C	0.468967	-0.603802	-0.005240
C80	C	0.802301	-0.270469	0.328093
C81	C	1.135634	0.062865	0.661426
C82	C	0.530890	-0.603809	-0.005237
C83	C	0.864224	-0.270475	0.328097
C84	C	1.197557	0.062858	0.661430
C85	C	0.561860	-0.638078	-0.039679
C86	C	0.895193	-0.304745	0.293654
C87	C	1.228526	0.028589	0.626988
C88	C	0.623765	-0.638067	-0.039683
C89	C	0.957098	-0.304734	0.293650
C90	C	1.290431	0.028600	0.626983
N91	N	0.654738	-0.672338	-0.074119
N92	N	0.988071	-0.339005	0.259214
N93	N	1.321404	-0.005672	0.592548
C94	C	0.623791	-0.706607	-0.108561
C95	C	0.957125	-0.373273	0.224772
C96	C	1.290458	-0.039940	0.558106
C97	C	0.246066	-0.638062	-0.039710
C98	C	0.579399	-0.304728	0.293623
C99	C	0.912732	0.028605	0.626956
C100	C	0.184148	-0.638055	-0.039719
C101	C	0.517481	-0.304722	0.293614
C102	C	0.850815	0.028612	0.626948
C103	C	0.184175	-0.706597	-0.108600
C104	C	0.517508	-0.373264	0.224733
C105	C	0.850841	-0.039930	0.558067
C106	C	0.246093	-0.706600	-0.108594
C107	C	0.579427	-0.373267	0.224739
C108	C	0.912760	-0.039934	0.558073
C109	C	0.277038	-0.672333	-0.074146
C110	C	0.610372	-0.339000	0.259187
C111	C	0.943705	-0.005667	0.592521
C112	C	0.753819	-0.706601	-0.108553
C113	C	1.087152	-0.373268	0.224781
C114	C	1.420485	-0.039934	0.558114
C115	C	0.815740	-0.706595	-0.108548
C116	C	1.149073	-0.373262	0.224785
C117	C	1.482407	-0.039928	0.558118
C118	C	0.815708	-0.638056	-0.039665
C119	C	1.149041	-0.304722	0.293668
C120	C	1.482375	0.028611	0.627001
C121	C	0.753792	-0.638059	-0.039672
C122	C	1.087126	-0.304726	0.293662
C123	C	1.420459	0.028608	0.626995
C124	C	0.722849	-0.672336	-0.074117
C125	C	1.056182	-0.339003	0.259216
C126	C	1.389516	-0.005670	0.592550
O127	O	0.655825	-0.608926	-0.010421
O128	O	0.989159	-0.275593	0.322912
O129	O	1.322492	0.057741	0.656246
O130	O	0.655829	-0.735758	-0.137841
O131	O	0.989163	-0.402424	0.195492
O132	O	1.322496	-0.069091	0.528826
C133	C	-0.000072	-0.677071	0.030013
C134	C	0.333262	-0.343738	0.363346
C135	C	0.666595	-0.010404	0.696679
C136	C	-0.000076	-0.676305	0.093230
C137	C	0.333257	-0.342972	0.426563
C138	C	0.666591	-0.009638	0.759896
C139	C	-0.000069	-0.776472	-0.069388
C140	C	0.333265	-0.443138	0.263945
C141	C	0.666598	-0.109805	0.597278
C142	C	-0.000071	-0.839689	-0.070154
C143	C	0.333262	-0.506355	0.263179
C144	C	0.666595	-0.173022	0.596513
C145	C	-0.000061	-0.105856	-0.125350
C146	C	0.333272	0.227477	0.207984
C147	C	0.666605	0.560810	0.541317
C148	C	-0.000065	-0.046456	-0.124638
C149	C	0.333268	0.286877	0.208695
C150	C	0.666602	0.620211	0.542029
O151	O	-0.000081	-0.009711	-0.168424
O152	O	0.333253	0.323622	0.164909
O153	O	0.666586	0.656955	0.498243
N154	N	-0.000071	-0.023830	-0.072362
N155	N	0.333262	0.309504	0.260972
N156	N	0.666595	0.642837	0.594305
C157	C	-0.000080	-0.060607	-0.020794
C158	C	0.333254	0.272726	0.312540
C159	C	0.666587	0.606059	0.645873
O160	O	-0.000086	-0.035908	0.023737
O161	O	0.333247	0.297426	0.357070
O162	O	0.666581	0.630759	0.690404
C163	C	-0.000080	-0.120006	-0.021506
C164	C	0.333253	0.213327	0.311828
C165	C	0.666586	0.546660	0.645161
C166	C	-0.000068	-0.142629	-0.073785
C167	C	0.333265	0.190704	0.259548
C168	C	0.666599	0.524038	0.592881
C169	C	-0.000050	-0.128479	-0.177625
C170	C	0.333284	0.204854	0.155708
C171	C	0.666617	0.538187	0.489042
C172	C	-0.000045	-0.187876	-0.178336
C173	C	0.333288	0.145458	0.154997
C174	C	0.666622	0.478791	0.488330
C175	C	-0.000052	-0.224649	-0.126772
C176	C	0.333282	0.108685	0.206561
C177	C	0.666615	0.442018	0.539895
C178	C	-0.000063	-0.202025	-0.074496
C179	C	0.333270	0.131308	0.258837
C180	C	0.666603	0.464641	0.592170
C181	C	-0.000093	-0.156783	0.030062
C182	C	0.333240	0.176550	0.363395
C183	C	0.666574	0.509884	0.696729
C184	C	-0.000094	-0.216185	0.029345
C185	C	0.333239	0.117148	0.362679
C186	C	0.666573	0.450481	0.696012
C187	C	-0.000082	-0.238808	-0.022934
C188	C	0.333252	0.094525	0.310399
C189	C	0.666585	0.427859	0.643732
C190	C	-0.000065	-0.298194	-0.023643
C191	C	0.333268	0.035139	0.309690
C192	C	0.666602	0.368472	0.643023
N193	N	-0.000059	-0.320820	-0.075920
N194	N	0.333274	0.012513	0.257414
N195	N	0.666608	0.345846	0.590747
C196	C	-0.000052	-0.284048	-0.127484
C197	C	0.333281	0.049286	0.205849
C198	C	0.666614	0.382619	0.539183
C199	C	-0.000080	0.064135	-0.019302
C200	C	0.333254	0.397468	0.314031
C201	C	0.666587	0.730802	0.647365
C202	C	-0.000075	0.123533	-0.018589
C203	C	0.333258	0.456866	0.314744
C204	C	0.666592	0.790200	0.648077
C205	C	-0.000061	0.137680	-0.122434
C206	C	0.333272	0.471014	0.210899
C207	C	0.666605	0.804347	0.544232
C208	C	-0.000062	0.078281	-0.123146
C209	C	0.333271	0.411615	0.210187
C210	C	0.666605	0.744948	0.543520
C211	C	-0.000074	0.041509	-0.071578
C212	C	0.333260	0.374842	0.261755
C213	C	0.666593	0.708176	0.595088
C214	C	-0.000042	-0.408784	-0.128974
C215	C	0.333292	-0.075451	0.204360
C216	C	0.666625	0.257882	0.537693
C217	C	-0.000034	-0.468186	-0.129680
C218	C	0.333299	-0.134853	0.203653
C219	C	0.666632	0.198480	0.536986
C220	C	-0.000051	-0.482329	-0.025836
C221	C	0.333282	-0.148995	0.307497
C222	C	0.666616	0.184338	0.640831
C223	C	-0.000055	-0.422932	-0.025129
C224	C	0.333278	-0.089598	0.308204
C225	C	0.666611	0.243735	0.641538
C226	C	-0.000052	-0.386160	-0.076702
C227	C	0.333281	-0.052827	0.256631
C228	C	0.666614	0.280506	0.589964
O229	O	-0.000052	-0.334974	0.020119
O230	O	0.333281	-0.001640	0.353453
O231	O	0.666615	0.331693	0.686786
O232	O	-0.000054	-0.308755	-0.172007
O233	O	0.333279	0.024578	0.161326
O234	O	0.666613	0.357911	0.494660
C235	C	-0.000045	-0.667577	-0.178283
C236	C	0.333289	-0.334244	0.155051
C237	C	0.666622	-0.000910	0.488384
C238	C	-0.000036	-0.668343	-0.241500
C239	C	0.333297	-0.335010	0.091834
C240	C	0.666630	-0.001676	0.425167
C241	C	-0.000049	-0.723539	0.492333
C242	C	0.333284	-0.390205	0.825666
C243	C	0.666618	-0.056872	1.158999
C244	C	-0.000044	-0.722827	0.551733
C245	C	0.333289	-0.389494	0.885066
C246	C	0.666622	-0.056160	1.218400
O247	O	-0.000027	-0.766613	0.588478
O248	O	0.333306	-0.433280	0.921811
O249	O	0.666639	-0.099946	1.255144
N250	N	-0.000039	-0.670551	0.574359
N251	N	0.333294	-0.337217	0.907693
N252	N	0.666628	-0.003884	1.241026
C253	C	-0.000032	-0.618983	0.537582
C254	C	0.333301	-0.285649	0.870915
C255	C	0.666634	0.047684	1.204248
O256	O	-0.000027	-0.574452	0.562281
O257	O	0.333307	-0.241119	0.895615
O258	O	0.666640	0.092215	1.228948
C259	C	-0.000033	-0.619695	0.478182
C260	C	0.333301	-0.286361	0.811516
C261	C	0.666634	0.046972	1.144849
C262	C	-0.000044	-0.671974	0.455560
C263	C	0.333289	-0.338641	0.788893
C264	C	0.666623	-0.005308	1.122227
C265	C	-0.000060	-0.775814	0.469710
C266	C	0.333274	-0.442481	0.803043
C267	C	0.666607	-0.109147	1.136376
C268	C	-0.000065	-0.776525	0.410313
C269	C	0.333268	-0.443192	0.743647
C270	C	0.666601	-0.109859	1.076980
C271	C	-0.000060	-0.724961	0.373540
C272	C	0.333273	-0.391628	0.706874
C273	C	0.666606	-0.058294	1.040207
C274	C	-0.000050	-0.672685	0.396164
C275	C	0.333284	-0.339352	0.729497
C276	C	0.666617	-0.006019	1.062830
C277	C	-0.000022	-0.568127	0.441406
C278	C	0.333312	-0.234794	0.774739
C279	C	0.666645	0.098540	1.108073
C280	C	-0.000021	-0.568844	0.382004
C281	C	0.333312	-0.235510	0.715337
C282	C	0.666645	0.097823	1.048670
C283	C	-0.000033	-0.621123	0.359381
C284	C	0.333301	-0.287790	0.692714
C285	C	0.666634	0.045543	1.026048
C286	C	-0.000050	-0.621832	0.299995
C287	C	0.333283	-0.288499	0.633328
C288	C	0.666616	0.044834	0.966661
N289	N	-0.000056	-0.674109	0.277369
N290	N	0.333278	-0.340775	0.610702
N291	N	0.666611	-0.007442	0.944035
C292	C	-0.000061	-0.725673	0.314141
C293	C	0.333273	-0.392340	0.647475
C294	C	0.666606	-0.059006	0.980808
C295	C	-0.000031	-0.617491	0.662324
C296	C	0.333303	-0.284158	0.995657
C297	C	0.666636	0.049176	1.328991
C298	C	-0.000034	-0.616778	0.721722
C299	C	0.333299	-0.283445	1.055055
C300	C	0.666632	0.049888	1.388389
C301	C	-0.000045	-0.720623	0.735869
C302	C	0.333288	-0.387290	1.069203
C303	C	0.666621	-0.053957	1.402536
C304	C	-0.000046	-0.721335	0.676470
C305	C	0.333288	-0.388002	1.009804
C306	C	0.666621	-0.054669	1.343137
C307	C	-0.000036	-0.669767	0.639698
C308	C	0.333298	-0.336434	0.973031
C309	C	0.666631	-0.003101	1.306365
C310	C	-0.000073	-0.727163	0.189405
C311	C	0.333260	-0.393829	0.522738
C312	C	0.666594	-0.060496	0.856071
C313	C	-0.000081	-0.727869	0.130003
C314	C	0.333252	-0.394536	0.463336
C315	C	0.666586	-0.061203	0.796669
C316	C	-0.000067	-0.624025	0.115860
C317	C	0.333266	-0.290692	0.449194
C318	C	0.666600	0.042642	0.782527
C319	C	-0.000062	-0.623318	0.175257
C320	C	0.333271	-0.289985	0.508591
C321	C	0.666605	0.043349	0.841924
C322	C	-0.000063	-0.674891	0.212029
C323	C	0.333270	-0.341558	0.545362
C324	C	0.666604	-0.008225	0.878695
O325	O	-0.000065	-0.578070	0.263215
O326	O	0.333268	-0.244736	0.596549
O327	O	0.666602	0.088597	0.929882
O328	O	-0.000058	-0.770196	0.289434
O329	O	0.333275	-0.436863	0.622767
O330	O	0.666608	-0.103529	0.956100
H331	H	0.840953	-0.734501	-0.136598
H332	H	1.174286	-0.401168	0.196735
H333	H	1.507619	-0.067834	0.530068
Br334	Br	-0.000033	-0.545825	0.752416
Br335	Br	0.333300	-0.212491	1.085750
Br336	Br	0.666634	0.120842	1.419083
Br337	Br	-0.000097	-0.798825	0.099305
Br338	Br	0.333236	-0.465492	0.432638
Br339	Br	0.666570	-0.132158	0.765971
Br340	Br	0.288056	-0.591545	0.007039
Br341	Br	0.621389	-0.258212	0.340372
Br342	Br	0.954723	0.075121	0.673705
H343	H	-0.000055	0.059867	-0.165717
H344	H	0.333278	0.393200	0.167616
H345	H	0.666611	0.726533	0.500950
H346	H	-0.000065	-0.582043	0.085909
H347	H	0.333268	-0.248709	0.419243
H348	H	0.666602	0.084624	0.752576
H349	H	-0.000041	-0.378852	-0.170970
H350	H	0.333292	-0.045518	0.162363
H351	H	0.666625	0.287815	0.495697
Br352	Br	-0.000062	-0.792288	0.645775
Br353	Br	0.333271	-0.458955	0.979108
Br354	Br	0.666604	-0.125622	1.312441
Br355	Br	0.711834	-0.753121	-0.155300
Br356	Br	1.045168	-0.419788	0.178034
Br357	Br	1.378501	-0.086454	0.511367
Br358	Br	0.142126	-0.591534	0.007015
Br359	Br	0.475459	-0.258201	0.340348
Br360	Br	0.808792	0.075133	0.673682
H361	H	0.728575	-0.610147	-0.011633
H362	H	1.061909	-0.276814	0.321700
H363	H	1.395242	0.056520	0.655033
Br364	Br	-0.000074	-0.797156	0.239299
Br365	Br	0.333260	-0.463823	0.572633
Br366	Br	0.666593	-0.130489	0.905966
Br367	Br	0.288117	-0.753112	-0.155337
Br368	Br	0.621450	-0.419778	0.177996
Br369	Br	0.954784	-0.086445	0.511330
H370	H	0.556137	-0.768780	-0.171053
H371	H	0.889470	-0.435446	0.162280
H372	H	1.222803	-0.102113	0.495613
H373	H	-0.000035	-0.206289	-0.220908
H374	H	0.333298	0.127044	0.112426
H375	H	0.666632	0.460378	0.445759
H376	H	0.556082	-0.575904	0.022816
H377	H	0.889416	-0.242571	0.356149
H378	H	1.222749	0.090763	0.689483
H379	H	-0.000013	-0.526850	0.352066
H380	H	0.333321	-0.193516	0.685399
H381	H	0.666654	0.139817	1.018732
Br382	Br	0.857718	-0.591549	0.007073
Br383	Br	1.191051	-0.258215	0.340406
Br384	Br	1.524385	0.075118	0.673740
H385	H	-0.000024	-0.486602	-0.172255
H386	H	0.333309	-0.153269	0.161079
H387	H	0.666643	0.180065	0.494412
Br388	Br	-0.000064	-0.847480	0.379621
Br389	Br	0.333269	-0.514147	0.712954
Br390	Br	0.666603	-0.180813	1.046288
H391	H	0.443821	-0.768781	-0.171059
H392	H	0.777155	-0.435448	0.162274
H393	H	1.110488	-0.102115	0.495607
Br394	Br	-0.000022	-0.547499	0.612424
Br395	Br	0.333311	-0.214166	0.945757
Br396	Br	0.666645	0.119168	1.279090
H397	H	-0.000103	-0.138375	0.072634
H398	H	0.333230	0.194959	0.405967
H399	H	0.666563	0.528292	0.739300
Br400	Br	0.142164	-0.753106	-0.155342
Br401	Br	0.475498	-0.419773	0.177992
Br402	Br	0.808831	-0.086440	0.511325
H403	H	0.443762	-0.575897	0.022807
H404	H	0.777096	-0.242564	0.356141
H405	H	1.110429	0.090770	0.689474
H406	H	-0.000046	-0.098544	-0.219617
H407	H	0.333287	0.234789	0.113716
H408	H	0.666620	0.568123	0.447049
Br409	Br	-0.000054	0.187598	-0.192415
Br410	Br	0.333280	0.520931	0.140918
Br411	Br	0.666613	0.854265	0.474252
H412	H	-0.000069	-0.580748	0.193677
H413	H	0.333264	-0.247414	0.527011
H414	H	0.666597	0.085919	0.860344
Br415	Br	-0.000074	0.154227	0.052364
Br416	Br	0.333260	0.487561	0.385698
Br417	Br	0.666593	0.820894	0.719031
H418	H	-0.000056	-0.404512	0.017441
H419	H	0.333277	-0.071178	0.350775
H420	H	0.666610	0.262155	0.684108
H421	H	-0.000084	0.034198	0.022693
H422	H	0.333249	0.367531	0.356027
H423	H	0.666583	0.700864	0.689360
H424	H	-0.000104	-0.246123	0.071339
H425	H	0.333229	0.087210	0.404673
H426	H	0.666563	0.420543	0.738006
H427	H	-0.000061	-0.817806	0.499645
H428	H	0.333272	-0.484473	0.832978
H429	H	0.666605	-0.151140	1.166312
H430	H	-0.000047	-0.762610	0.765821
H431	H	0.333286	-0.429276	1.099154
H432	H	0.666620	-0.095943	1.432488
H433	H	-0.000054	-0.512280	0.016146
H434	H	0.333279	-0.178946	0.349480
H435	H	0.666612	0.154387	0.682813
Br436	Br	-0.000004	-0.497171	0.472092
Br437	Br	0.333329	-0.163838	0.805426
Br438	Br	0.666663	0.169495	1.138759
