data_functionalizedCrystal
_audit_creation_method	'MofGen! by Chris Wilmer'
_symmetry_space_group_name_H-M	'P1'
_symmetry_Int_Tables_number	1
_symmetry_cell_setting	triclinic
loop_
_symmetry_equiv_pos_as_xyz
  x,y,z
_cell_length_a	14.044191
_cell_length_b	14.044220
_cell_length_c	10.268362
_cell_angle_alpha	89.993803
_cell_angle_beta	89.997935
_cell_angle_gamma	93.190327
loop_
_atom_site_label
_atom_site_type_symbol
_atom_site_fract_x
_atom_site_fract_y
_atom_site_fract_z
O1	O	1.277173	0.230201	-0.108243
O2	O	1.777173	0.730201	0.391757
O3	O	1.000500	0.221888	-0.108259
O4	O	1.500500	0.721888	0.391741
O5	O	1.134684	0.087708	-0.108239
O6	O	1.634684	0.587708	0.391761
O7	O	1.142989	0.364380	-0.108264
O8	O	1.642989	0.864380	0.391736
O9	O	1.134670	0.087701	0.108362
O10	O	1.634670	0.587701	0.608362
O11	O	1.000487	0.221881	0.108341
O12	O	1.500487	0.721881	0.608341
O13	O	1.277159	0.230194	0.108358
O14	O	1.777159	0.730194	0.608358
Cu15	Cu	1.138822	0.226037	0.128127
Cu16	Cu	1.638822	0.726037	0.628127
Cu17	Cu	1.138838	0.226045	-0.128029
Cu18	Cu	1.638838	0.726045	0.371971
O19	O	1.142976	0.364373	0.108337
O20	O	1.642976	0.864373	0.608337
C21	C	0.964872	0.218248	0.000039
C22	C	1.464872	0.718248	0.500039
C23	C	0.858728	0.207401	0.000033
C24	C	1.358728	0.707401	0.500033
C25	C	0.613270	0.264501	0.000041
C26	C	1.113270	0.764501	0.500041
C27	C	0.664395	0.187585	0.000046
C28	C	1.164395	0.687585	0.500046
C29	C	0.772532	0.198613	0.000039
C30	C	1.272532	0.698613	0.500039
C31	C	0.505123	0.253474	0.000048
C32	C	1.005123	0.753474	0.500048
C33	C	1.131041	0.052083	0.000062
C34	C	1.631041	0.552083	0.500062
C35	C	1.120197	-0.054060	0.000063
C36	C	1.620197	0.445940	0.500063
C37	C	1.100370	-0.248398	0.000043
C38	C	1.600370	0.251602	0.500043
C39	C	1.177285	-0.299526	0.000044
C40	C	1.677285	0.200474	0.500044
C41	C	1.166253	-0.407663	0.000033
C42	C	1.666253	0.092337	0.500033
C43	C	1.111400	-0.140252	0.000054
C44	C	1.611400	0.359748	0.500054
C45	C	1.312788	0.233834	0.000056
C46	C	1.812788	0.733834	0.500056
C47	C	1.418931	0.244681	0.000054
C48	C	1.918931	0.744681	0.500054
C49	C	1.146618	0.399998	0.000033
C50	C	1.646618	0.899998	0.500033
C51	C	1.157463	0.506142	0.000024
C52	C	1.657463	1.006142	0.500024
N53	N	1.138818	0.226031	0.308293
N54	N	1.638818	0.726031	0.808293
N55	N	1.138849	0.226044	-0.308194
N56	N	1.638849	0.726044	0.191806
C57	C	1.138833	0.226043	0.573963
C58	C	1.638833	0.726043	1.073963
C59	C	1.138822	0.226039	0.426125
C60	C	1.638822	0.726039	0.926125
H61	H	0.650711	0.338628	0.000030
H62	H	1.150711	0.838628	0.500030
N63	N	1.275485	-0.249938	0.000082
N64	N	1.775485	0.250062	0.500082
H65	H	1.325280	-0.299128	0.000087
H66	H	1.825280	0.200872	0.500087
H67	H	1.283412	-0.208711	-0.080205
H68	H	1.783412	0.291289	0.419795
N69	N	1.002176	-0.297983	0.000036
N70	N	1.502176	0.202017	0.500036
H71	H	1.008116	-0.369323	0.000033
H72	H	1.508116	0.130677	0.500033
H73	H	0.966364	-0.278862	0.080337
H74	H	1.466364	0.221138	0.580337
H75	H	0.626952	0.113452	-0.000039
H76	H	1.126952	0.613452	0.499961
