data_functionalizedCrystal
_audit_creation_method	'MofGen! by Chris Wilmer'
_symmetry_space_group_name_H-M	'P1'
_symmetry_Int_Tables_number	1
_symmetry_cell_setting	triclinic
loop_
_symmetry_equiv_pos_as_xyz
  x,y,z
_cell_length_a	23.532407
_cell_length_b	14.044220
_cell_length_c	13.101039
_cell_angle_alpha	86.332523
_cell_angle_beta	86.666253
_cell_angle_gamma	91.981188
loop_
_atom_site_label
_atom_site_type_symbol
_atom_site_fract_x
_atom_site_fract_y
_atom_site_fract_z
O1	O	0.764357	-0.109755	-0.085152
O2	O	0.599396	-0.126395	-0.085169
O3	O	0.679400	0.019885	-0.085150
O4	O	0.684353	-0.256036	-0.085170
O5	O	0.673661	0.009373	0.085278
O6	O	0.593657	-0.136908	0.085260
O7	O	0.758617	-0.120268	0.085277
Zn8	Zn	0.675226	-0.130257	0.112327
Zn9	Zn	0.682788	-0.116406	-0.112219
O10	O	0.678613	-0.266549	0.085258
C11	C	0.575287	-0.131228	0.000044
C12	C	0.512001	-0.129953	0.000038
C13	C	0.240856	-0.038135	0.000072
C14	C	0.300320	-0.039318	0.000072
O15	O	0.333116	0.033519	0.000113
N16	N	0.327661	-0.126282	0.000059
C17	C	0.295533	-0.212068	0.000056
O18	O	0.324248	-0.286146	0.000046
C19	C	0.236069	-0.210884	0.000064
C20	C	0.208733	-0.123914	0.000067
C21	C	0.213519	0.048828	0.000076
C22	C	0.154059	0.050011	0.000075
C23	C	0.121936	-0.035768	0.000069
C24	C	0.149273	-0.122731	0.000065
C25	C	0.203943	-0.296670	0.000069
C26	C	0.144475	-0.295478	0.000077
C27	C	0.117139	-0.208509	0.000080
C28	C	0.057689	-0.207327	0.000058
N29	N	0.030349	-0.120364	0.000071
C30	C	0.062472	-0.034584	0.000077
C31	C	0.420410	-0.214548	0.000042
C32	C	0.479873	-0.215733	0.000027
C33	C	0.484657	-0.042983	0.000044
C34	C	0.425193	-0.041799	0.000052
C35	C	0.393070	-0.127585	0.000055
C36	C	-0.062399	-0.032106	0.000073
C37	C	-0.121864	-0.030930	0.000067
C38	C	-0.126643	-0.203680	0.000055
C39	C	-0.067182	-0.204856	0.000055
C40	C	-0.035062	-0.119062	0.000067
O41	O	0.024857	-0.280127	0.000022
O42	O	0.033749	0.039481	0.000101
C43	C	0.674363	0.049923	0.000064
C44	C	0.667897	0.155088	0.000065
C45	C	0.782726	-0.115436	0.000062
C46	C	0.846012	-0.116710	0.000061
C47	C	0.683651	-0.296586	0.000042
C48	C	0.690117	-0.401751	0.000034
N49	N	0.670069	-0.139709	0.265575
C50	C	0.656076	0.347639	0.000049
C51	C	0.701935	0.405704	0.000050
C52	C	0.695358	0.512846	0.000041
C53	C	0.662652	0.240487	0.000058
N54	N	0.687948	-0.106946	-0.265467
C55	C	0.663054	-0.152578	0.474616
C56	C	0.694962	-0.094081	0.525499
C57	C	0.691059	-0.101241	0.641816
C58	C	0.666957	-0.145419	0.358288
H59	H	0.226190	-0.367490	0.000062
H60	H	0.611879	0.378393	0.000042
H61	H	0.725211	-0.038622	0.481703
H62	H	0.118323	-0.365338	0.000084
H63	H	0.632807	-0.208034	0.518406
H64	H	0.746138	0.374953	-0.000014
H65	H	0.394260	-0.284410	0.000037
H66	H	-0.144119	0.039894	0.000066
H67	H	-0.036253	0.037756	0.000082
H68	H	-0.152808	-0.273519	0.000045
H69	H	0.131807	0.120831	0.000081
H70	H	0.402940	0.029020	0.000055
H71	H	0.510822	0.026864	0.000049
H72	H	0.239668	0.118684	0.000084
H73	H	0.502126	-0.286551	0.000010
H74	H	-0.044924	-0.275674	0.000052
