data_functionalizedCrystal
_audit_creation_method	'MofGen! by Chris Wilmer'
_symmetry_space_group_name_H-M	'P1'
_symmetry_Int_Tables_number	1
_symmetry_cell_setting	triclinic
loop_
_symmetry_equiv_pos_as_xyz
  x,y,z
_cell_length_a	12.594517
_cell_length_b	12.645330
_cell_length_c	12.645324
_cell_angle_alpha	90.031766
_cell_angle_beta	90.009508
_cell_angle_gamma	90.011333
loop_
_atom_site_label
_atom_site_type_symbol
_atom_site_fract_x
_atom_site_fract_y
_atom_site_fract_z
Zn1	Zn	-1.627273	0.422139	-0.599066
Zn2	Zn	-1.627153	0.599448	-0.421806
Zn3	Zn	-1.449272	0.422180	-0.421852
Zn4	Zn	-1.449254	0.599341	-0.599063
O5	O	-1.538238	0.510777	-0.510446
O6	O	-1.776203	0.445687	-0.575534
O7	O	-1.603514	0.575995	-0.273464
O8	O	-1.472941	0.273827	-0.445380
O9	O	-1.776115	0.575956	-0.445302
O10	O	-1.603718	0.273797	-0.575578
O11	O	-1.472825	0.445756	-0.273498
O12	O	-1.300324	0.445653	-0.445377
O13	O	-1.472912	0.575773	-0.747410
O14	O	-1.300311	0.575812	-0.575573
O15	O	-1.603701	0.445583	-0.747413
O16	O	-1.603497	0.747781	-0.445299
O17	O	-1.472796	0.747703	-0.575529
C18	C	-1.261697	0.510726	-0.510480
C19	C	-1.143392	0.510730	-0.510520
C20	C	-1.538160	0.786207	-0.510432
C21	C	-1.538225	0.904037	-0.510461
C22	C	-1.074162	0.581660	-0.581202
C23	C	-1.003358	0.484999	-0.607277
C24	C	-1.003398	0.607462	-0.484435
C25	C	-1.074145	0.414017	-0.536646
C26	C	-1.074191	0.536546	-0.413759
C27	C	-1.003418	0.439819	-0.439798
C28	C	-1.538318	0.510662	-0.786952
C29	C	-1.538352	0.510613	-0.904782
C30	C	-0.815859	0.510819	-0.510429
C31	C	-0.934164	0.510812	-0.510463
C32	C	-1.538345	0.234272	-0.510484
C33	C	-1.538391	0.116442	-0.510501
C34	C	-1.456339	1.071595	-0.592641
C35	C	-1.455920	0.949036	-0.592377
C36	C	-1.507857	0.948641	-0.398746
C37	C	-1.507357	1.071239	-0.399245
C38	C	-1.650979	1.071135	-0.539089
C39	C	-1.650288	0.948528	-0.541532
C40	C	-1.620952	0.428948	-1.072347
C41	C	-1.620687	0.428653	-0.949787
C42	C	-1.426219	0.480242	-0.949286
C43	C	-1.426721	0.479622	-1.071885
C44	C	-1.566974	0.622767	-1.071973
C45	C	-1.569428	0.622203	-0.949367
C46	C	-1.538220	0.510815	-0.235017
C47	C	-1.538392	0.510566	-0.117187
H48	H	-1.105228	0.641530	-0.641045
Cl49	Cl	-1.691061	0.665405	-1.119696
Cl50	Cl	-1.122231	0.570241	-0.287474
Cl51	Cl	-0.955415	0.733709	-0.450405
Cl52	Cl	-1.595608	1.117054	-0.301528
H53	H	-1.474921	0.918874	-0.675213
H54	H	-1.105092	0.332222	-0.558778
Cl55	Cl	-1.328503	0.567390	-1.117686
H56	H	-1.363031	0.537862	-0.920134
H57	H	-1.475165	1.100999	-0.675749
Cl58	Cl	-0.955757	0.347162	-0.347475
Cl59	Cl	-1.380288	1.115532	-0.361851
H60	H	-1.673189	0.919370	-0.623748
Cl61	Cl	-1.328279	1.119315	-0.563799
Cl62	Cl	-1.327051	0.903881	-0.563142
Cl63	Cl	-1.749066	0.458002	-0.903326
H64	H	-1.565724	0.919496	-0.335874
Cl65	Cl	-1.474133	0.716657	-1.116740
Cl66	Cl	-1.749649	0.901221	-0.455895
Cl67	Cl	-1.382109	0.901380	-0.360672
H68	H	-0.972244	0.463191	-0.689082
H69	H	-1.712109	1.100137	-0.479263
H70	H	-1.678681	1.101972	-0.619166
H71	H	-1.401547	0.399139	-0.918597
Cl72	Cl	-1.749756	0.457936	-1.117857
H73	H	-1.602271	0.346291	-1.103175
H74	H	-1.601763	0.345536	-0.920479
Cl75	Cl	-1.389266	0.353007	-1.116069
Cl76	Cl	-1.696837	0.657561	-0.904464
H77	H	-1.513666	0.686288	-0.918728
