data_functionalizedCrystal
_audit_creation_method	'MofGen! by Chris Wilmer'
_symmetry_space_group_name_H-M	'P1'
_symmetry_Int_Tables_number	1
_symmetry_cell_setting	triclinic
loop_
_symmetry_equiv_pos_as_xyz
  x,y,z
_cell_length_a	19.288864
_cell_length_b	15.995350
_cell_length_c	17.766277
_cell_angle_alpha	89.995869
_cell_angle_beta	89.976791
_cell_angle_gamma	83.314311
loop_
_atom_site_label
_atom_site_type_symbol
_atom_site_fract_x
_atom_site_fract_y
_atom_site_fract_z
O1	O	0.921624	0.104452	-0.062832
O2	O	0.719400	0.118542	-0.062780
O3	O	0.826040	-0.010412	-0.062807
O4	O	0.814984	0.233405	-0.062805
O5	O	0.826021	-0.010418	0.062382
O6	O	0.719381	0.118535	0.062408
O7	O	0.921605	0.104445	0.062357
Cu8	Cu	0.820492	0.111490	0.073813
Cu9	Cu	0.820514	0.111497	-0.074237
O10	O	0.814965	0.233399	0.062383
C11	C	0.693513	0.118085	-0.000179
C12	C	0.616406	0.116724	-0.000159
C13	C	0.571906	0.192388	-0.000171
C14	C	0.499456	0.191110	-0.000179
C15	C	0.471508	0.114163	-0.000191
C16	C	0.516018	0.038489	-0.000176
C17	C	0.588467	0.039769	-0.000160
C18	C	0.363096	0.053676	-0.044076
C19	C	0.290648	0.052398	-0.044097
C20	C	0.248053	0.110209	-0.000237
C21	C	0.277912	0.169312	0.043634
C22	C	0.350361	0.170593	0.043650
C23	C	0.392951	0.112765	-0.000208
C24	C	0.124993	0.184492	-0.000256
C25	C	0.052542	0.183210	-0.000260
C26	C	0.069106	0.030587	-0.000264
C27	C	0.141556	0.031871	-0.000253
C28	C	0.169495	0.108826	-0.000252
C29	C	0.825574	-0.041608	-0.000214
C30	C	0.824203	-0.134553	-0.000218
C31	C	0.819282	-0.472282	-0.000214
C32	C	0.743335	-0.424562	-0.000475
C33	C	0.744706	-0.327877	-0.000193
C34	C	0.821723	-0.304731	-0.000216
C35	C	0.859172	-0.345953	0.071262
C36	C	0.857264	-0.442582	0.071322
C37	C	0.858855	-0.442939	-0.071041
C38	C	0.858837	-0.345993	-0.071986
C39	C	0.823107	-0.210039	-0.000215
C40	C	0.817901	-0.566975	-0.000210
C41	C	0.947492	0.104902	-0.000246
C42	C	1.024600	0.106263	-0.000271
C43	C	0.815432	0.264595	-0.000211
C44	C	0.816802	0.357540	-0.000212
N45	N	0.820481	0.111484	0.177944
N46	N	0.820530	0.111497	-0.178367
C47	C	0.867717	0.054411	0.217319
C48	C	0.867721	0.054407	0.296120
C49	C	0.820496	0.111490	0.335544
C50	C	0.773251	0.168567	0.296160
C51	C	0.773244	0.168564	0.217359
C52	C	0.811395	0.187781	0.460384
C53	C	0.811407	0.187785	0.539183
C54	C	0.820514	0.111500	0.578590
C55	C	0.829624	0.035208	0.539190
C56	C	0.829617	0.035204	0.460389
C57	C	0.820498	0.111500	0.420990
C58	C	0.867757	0.054419	0.703411
C59	C	0.867756	0.054414	0.782215
C60	C	0.773290	0.168581	0.782252
C61	C	0.773288	0.168579	0.703451
C62	C	0.820525	0.111499	0.664035
H63	H	0.624700	-0.021848	-0.000151
C64	C	0.825318	-0.470552	-0.144232
N65	N	0.800050	-0.491349	-0.199356
H66	H	0.803994	0.249907	0.571257
C67	C	0.003591	0.266452	-0.000261
N68	N	-0.033280	0.329151	-0.000260
H69	H	0.463217	0.252727	-0.000186
H70	H	0.915002	-0.330843	-0.076319
C71	C	0.934500	-0.486136	-0.071716
N72	N	0.991473	-0.518678	-0.072220
C73	C	0.155729	0.269143	-0.000247
N74	N	0.178876	0.332903	-0.000238
H75	H	0.837040	-0.026911	0.571273
C76	C	0.824010	-0.307490	0.143144
N77	N	0.797520	-0.278521	0.197284
C78	C	0.721374	0.231425	0.660136
N79	N	0.682286	0.278782	0.627512
C80	C	0.038368	-0.054056	-0.000276
N81	N	0.015213	-0.117812	-0.000284
C82	C	0.821883	-0.308990	-0.143424
N83	N	0.794042	-0.281122	-0.197230
H84	H	0.913023	-0.475041	0.074549
C85	C	0.257810	-0.012620	-0.092349
N86	N	0.233079	-0.061596	-0.128692
H87	H	0.594649	0.255051	-0.000172
C88	C	0.190508	-0.051367	-0.000249
N89	N	0.227379	-0.114065	-0.000245
C90	C	0.721342	0.231375	0.825614
N91	N	0.682214	0.278672	0.858277
C92	C	0.704930	-0.289323	-0.069409
N93	N	0.674966	-0.260288	-0.121543
H94	H	0.906178	0.007931	0.185229
C95	C	0.409944	-0.009921	-0.092332
N96	N	0.445230	-0.057820	-0.128678
C97	C	0.935608	-0.327143	0.074843
N98	N	0.993178	-0.312967	0.077542
H99	H	0.243232	0.216387	0.079349
H100	H	0.734778	0.215040	0.185299
H101	H	0.712988	-0.442976	-0.051732
C102	C	0.383205	0.235596	0.091914
N103	N	0.407943	0.284555	0.128271
C104	C	0.919692	-0.008372	0.339442
N105	N	0.958840	-0.055653	0.372069
C106	C	0.702505	-0.450855	0.068422
N107	N	0.671757	-0.470653	0.120322
H108	H	0.837032	-0.026916	0.428312
C109	C	0.485275	-0.046153	-0.000190
N110	N	0.462119	-0.109909	-0.000198
C111	C	0.919712	-0.008378	0.660052
N112	N	0.958843	-0.055679	0.627395
H113	H	0.906219	0.007934	0.814274
H114	H	0.715054	-0.299903	0.051147
H115	H	0.829941	-0.460783	0.124769
C116	C	0.801376	0.271706	0.417044
N117	N	0.793830	0.334917	0.384400
C118	C	0.721301	0.231356	0.339527
N119	N	0.682168	0.278647	0.372192
