data_functionalizedCrystal
_audit_creation_method	'MofGen! by Chris Wilmer'
_symmetry_space_group_name_H-M	'P1'
_symmetry_Int_Tables_number	1
_symmetry_cell_setting	triclinic
loop_
_symmetry_equiv_pos_as_xyz
  x,y,z
_cell_length_a	16.959455
_cell_length_b	25.639239
_cell_length_c	16.959447
_cell_angle_alpha	89.966924
_cell_angle_beta	89.985678
_cell_angle_gamma	90.035633
loop_
_atom_site_label
_atom_site_type_symbol
_atom_site_fract_x
_atom_site_fract_y
_atom_site_fract_z
Zn1	Zn	1.208282	-0.208183	-0.446894
Zn2	Zn	1.708282	0.291817	0.053106
Zn3	Zn	1.208161	-0.295624	-0.314709
Zn4	Zn	1.708161	0.204376	0.185291
Zn5	Zn	1.076110	-0.208199	-0.314731
Zn6	Zn	1.576110	0.291801	0.185269
Zn7	Zn	1.076032	-0.295585	-0.446847
Zn8	Zn	1.576032	0.204415	0.053153
O9	O	1.142146	-0.251898	-0.380795
O10	O	1.642146	0.248102	0.119205
O11	O	1.318876	-0.219792	-0.429369
O12	O	1.818876	0.280208	0.070631
O13	O	1.190627	-0.284050	-0.204101
O14	O	1.690627	0.215950	0.295899
O15	O	1.093726	-0.135032	-0.332291
O16	O	1.593726	0.364968	0.167709
O17	O	1.318788	-0.284034	-0.332253
O18	O	1.818788	0.215966	0.167747
O19	O	1.190832	-0.135020	-0.429391
O20	O	1.690832	0.364980	0.070609
O21	O	1.093609	-0.219820	-0.204117
O22	O	1.593609	0.280180	0.295883
O23	O	0.965489	-0.219782	-0.332247
O24	O	1.465489	0.280218	0.167753
O25	O	1.093593	-0.283967	-0.557464
O26	O	1.593593	0.216033	-0.057464
O27	O	0.965431	-0.283983	-0.429312
O28	O	1.465431	0.216017	0.070688
O29	O	1.190756	-0.219754	-0.557498
O30	O	1.690756	0.280246	-0.057498
O31	O	1.190551	-0.368784	-0.332208
O32	O	1.690551	0.131216	0.167792
O33	O	1.093476	-0.368755	-0.429290
O34	O	1.593476	0.131245	0.070710
C35	C	0.936780	-0.251880	-0.380777
C36	C	1.436780	0.248120	0.119223
C37	C	0.848923	-0.251886	-0.380788
C38	C	1.348923	0.248114	0.119212
C39	C	1.142013	-0.387740	-0.380759
C40	C	1.642013	0.112260	0.119241
C41	C	1.142029	-0.445854	-0.380770
C42	C	1.642029	0.054146	0.119230
C43	C	0.477453	-0.218441	-0.330359
C44	C	0.977453	0.281559	0.169641
C45	C	0.477442	-0.285398	-0.431277
C46	C	0.977442	0.214602	0.068723
C47	C	0.559988	-0.285390	-0.431272
C48	C	1.059988	0.214610	0.068728
C49	C	0.601270	-0.251908	-0.380809
C50	C	1.101270	0.248092	0.119191
C51	C	0.560007	-0.218433	-0.330351
C52	C	1.060007	0.281567	0.169649
C53	C	0.601258	-0.318868	-0.481723
C54	C	1.101258	0.181132	0.018277
C55	C	0.683809	-0.318863	-0.481720
C56	C	1.183809	0.181137	0.018280
C57	C	0.725092	-0.285377	-0.431260
C58	C	1.225092	0.214623	0.068740
C59	C	0.683824	-0.251901	-0.380801
C60	C	1.183824	0.248099	0.119199
C61	C	0.725106	-0.218418	-0.330338
C62	C	1.225106	0.281582	0.169662
C63	C	0.683839	-0.184939	-0.279882
C64	C	1.183839	0.315061	0.220118
C65	C	0.601290	-0.184948	-0.279891
C66	C	1.101290	0.315052	0.220109
C67	C	0.807641	-0.285368	-0.431251
C68	C	1.307641	0.214632	0.068749
C69	C	0.807660	-0.218411	-0.330330
C70	C	1.307660	0.281589	0.169670
C71	C	1.192825	-0.806220	-0.330331
C72	C	1.692825	-0.306220	0.169669
C73	C	1.192855	-0.860824	-0.330341
C74	C	1.692855	-0.360824	0.169659
O75	O	1.235906	-0.889063	-0.287417
O76	O	1.735906	-0.389063	0.212583
N77	N	1.142285	-0.888137	-0.380847
N78	N	1.642285	-0.388137	0.119153
C79	C	1.091686	-0.860842	-0.431352
C80	C	1.591686	-0.360842	0.068648
O81	O	1.048675	-0.889088	-0.474313
O82	O	1.548675	-0.389088	0.025687
C83	C	1.091660	-0.806239	-0.431345
C84	C	1.591660	-0.306239	0.068655
C85	C	1.142228	-0.778929	-0.380830
C86	C	1.642228	-0.278929	0.119170
C87	C	1.243389	-0.778910	-0.279820
C88	C	1.743389	-0.278910	0.220180
C89	C	1.243358	-0.724309	-0.279809
C90	C	1.743358	-0.224309	0.220191
C91	C	1.192761	-0.697019	-0.330308
C92	C	1.692761	-0.197019	0.169692
C93	C	1.142196	-0.724329	-0.380818
C94	C	1.642196	-0.224329	0.119182
C95	C	1.041066	-0.778946	-0.481853
C96	C	1.541066	-0.278946	0.018147
C97	C	1.041045	-0.724339	-0.481842
C98	C	1.541045	-0.224339	0.018158
C99	C	1.091613	-0.697029	-0.431326
C100	C	1.591613	-0.197029	0.068674
C101	C	1.091568	-0.642437	-0.431306
C102	C	1.591568	-0.142437	0.068694
N103	N	1.142139	-0.615125	-0.380800
N104	N	1.642139	-0.115125	0.119200
C105	C	1.192735	-0.642415	-0.330301
C106	C	1.692735	-0.142415	0.169699
C107	C	1.091746	-0.975513	-0.431364
C108	C	1.591746	-0.475513	0.068636
C109	C	1.091767	-1.030115	-0.431368
C110	C	1.591767	-0.530115	0.068632
C111	C	1.192938	-1.030093	-0.330358
C112	C	1.692938	-0.530093	0.169642
C113	C	1.192912	-0.975490	-0.330351
C114	C	1.692912	-0.475490	0.169649
C115	C	1.142316	-0.948200	-0.380858
C116	C	1.642316	-0.448200	0.119142
C117	C	1.192664	-0.527750	-0.330280
C118	C	1.692664	-0.027750	0.169720
C119	C	1.192625	-0.473145	-0.330271
C120	C	1.692625	0.026855	0.169729
C121	C	1.091458	-0.473172	-0.431283
C122	C	1.591458	0.026828	0.068717
C123	C	1.091493	-0.527772	-0.431290
C124	C	1.591493	-0.027772	0.068710
C125	C	1.142103	-0.555060	-0.380786
C126	C	1.642103	-0.055060	0.119214
O127	O	1.048541	-0.614164	-0.474211
O128	O	1.548541	-0.114164	0.025789
O129	O	1.235746	-0.614163	-0.287355
O130	O	1.735746	-0.114163	0.212645
C131	C	1.348314	-0.251915	-0.380814
C132	C	1.848314	0.248085	0.119186
C133	C	1.436171	-0.251923	-0.380822
C134	C	1.936171	0.248077	0.119178
C135	C	1.142179	-0.251854	-0.586963
C136	C	1.642179	0.248146	-0.086963
C137	C	1.142193	-0.251836	-0.674820
C138	C	1.642193	0.248164	-0.174820
C139	C	1.142301	-0.115525	-0.380849
C140	C	1.642301	0.384475	0.119151
C141	C	1.142367	-0.057411	-0.380872
C142	C	1.642367	0.442589	0.119128
C143	C	1.091699	-0.285214	-1.046281
C144	C	1.591699	0.214786	-0.546281
C145	C	1.192876	-0.218348	-1.046311
C146	C	1.692876	0.281652	-0.546311
C147	C	1.192855	-0.218359	-0.963765
C148	C	1.692855	0.281641	-0.463765
C149	C	1.142256	-0.251799	-0.922473
C150	C	1.642256	0.248201	-0.422473
C151	C	1.091678	-0.285227	-0.963727
C152	C	1.591678	0.214773	-0.463727
C153	C	1.243438	-0.184935	-0.922505
C154	C	1.743438	0.315065	-0.422505
C155	C	1.243419	-0.184945	-0.839954
C156	C	1.743419	0.315055	-0.339954
C157	C	1.192816	-0.218382	-0.798661
C158	C	1.692816	0.281618	-0.298661
C159	C	1.142235	-0.251812	-0.839920
C160	C	1.642235	0.248188	-0.339920
C161	C	1.091636	-0.285251	-0.798628
C162	C	1.591636	0.214749	-0.298628
C163	C	1.041051	-0.318679	-0.839885
C164	C	1.541051	0.181321	-0.339885
C165	C	1.041074	-0.318665	-0.922433
C166	C	1.541074	0.181335	-0.422433
C167	C	1.192792	-0.218396	-0.716112
C168	C	1.692792	0.281604	-0.216112
C169	C	1.091615	-0.285265	-0.716074
C170	C	1.591615	0.214735	-0.216074
C171	C	1.142159	-0.251903	-0.175429
C172	C	1.642159	0.248097	0.324571
C173	C	1.142298	-0.251774	-0.087573
C174	C	1.642298	0.248226	0.412427
H175	H	0.841266	-0.191142	-0.289241
H176	H	1.341266	0.308858	0.210759
Cl177	Cl	1.027997	-0.327303	-0.664171
Cl178	Cl	1.527997	0.172697	-0.164171
H179	H	1.234076	-0.191126	-1.079936
H180	H	1.734076	0.308874	-0.579936
H181	H	1.233804	-0.450911	-0.289133
H182	H	1.733804	0.049089	0.210867
Cl183	Cl	1.307049	-0.142903	-0.974418
Cl184	Cl	1.807049	0.357097	-0.474418
Cl185	Cl	1.027858	-0.438853	-0.494768
Cl186	Cl	1.527858	0.061147	0.005232
H187	H	1.234139	-1.052323	-0.289242
H188	H	1.734139	-0.552323	0.210758
Cl189	Cl	0.735746	-0.142852	-0.216440
Cl190	Cl	1.235746	0.357148	0.283560
Cl191	Cl	0.977448	-0.360718	-0.787965
Cl192	Cl	1.477448	0.139282	-0.287965
Cl193	Cl	0.549407	-0.142864	-0.216466
Cl194	Cl	1.049407	0.357136	0.283534
H195	H	0.443850	-0.191181	-0.289281
H196	H	0.943850	0.308819	0.210719
H197	H	1.050582	-1.052346	-0.472495
H198	H	1.550582	-0.552346	0.027505
Cl199	Cl	1.028127	-0.941211	-0.494859
Cl200	Cl	1.528127	-0.441211	0.005141
H201	H	0.999884	-0.801172	-0.522984
H202	H	1.499884	-0.301172	-0.022984
Cl203	Cl	1.256384	-0.176381	-0.664249
Cl204	Cl	1.756384	0.323619	-0.164249
Cl205	Cl	1.307008	-0.142921	-0.788095
Cl206	Cl	1.807008	0.357079	-0.288095
Cl207	Cl	0.977436	-0.690035	-0.545342
Cl208	Cl	1.477436	-0.190035	-0.045342
H209	H	0.443825	-0.312661	-0.472356
H210	H	0.943825	0.187339	0.027644
Cl211	Cl	0.549357	-0.360974	-0.545133
Cl212	Cl	1.049357	0.139026	-0.045133
H213	H	0.717401	-0.346123	-0.522805
H214	H	1.217401	0.153877	-0.022805
H215	H	0.841237	-0.312628	-0.472329
H216	H	1.341237	0.187372	0.027671
Cl217	Cl	0.977492	-0.360686	-0.974304
Cl218	Cl	1.477492	0.139314	-0.474304
Cl219	Cl	1.027905	-0.562106	-0.494779
Cl220	Cl	1.527905	-0.062106	0.005221
Cl221	Cl	1.028107	-0.327233	-1.098144
Cl222	Cl	1.528107	0.172767	-0.598144
H223	H	1.233876	-0.549962	-0.289157
H224	H	1.733876	-0.049962	0.210843
H225	H	1.284596	-0.801124	-0.238698
H226	H	1.784596	-0.301124	0.261302
Cl227	Cl	1.256486	-0.941163	-0.266845
Cl228	Cl	1.756486	-0.441163	0.233155
Cl229	Cl	1.306945	-0.689985	-0.216313
Cl230	Cl	1.806945	-0.189985	0.283687
