data_functionalizedCrystal
_audit_creation_method	'MofGen! by Chris Wilmer'
_symmetry_space_group_name_H-M	'P1'
_symmetry_Int_Tables_number	1
_symmetry_cell_setting	triclinic
loop_
_symmetry_equiv_pos_as_xyz
  x,y,z
_cell_length_a	25.639242
_cell_length_b	19.805407
_cell_length_c	19.805398
_cell_angle_alpha	90.013121
_cell_angle_beta	89.982692
_cell_angle_gamma	89.993815
loop_
_atom_site_label
_atom_site_type_symbol
_atom_site_fract_x
_atom_site_fract_y
_atom_site_fract_z
Zn1	Zn	0.208158	1.034788	0.382773
Zn2	Zn	0.708158	1.534788	0.882773
Zn3	Zn	0.295593	1.034755	0.269607
Zn4	Zn	0.795593	1.534755	0.769607
Zn5	Zn	0.208174	0.921615	0.269597
Zn6	Zn	0.708174	1.421615	0.769597
Zn7	Zn	0.295564	0.921606	0.382754
Zn8	Zn	0.795564	1.421606	0.882754
O9	O	0.251872	0.978191	0.326183
O10	O	0.751872	1.478191	0.826183
O11	O	0.219762	1.129500	0.367773
O12	O	0.719762	1.629500	0.867773
O13	O	0.284016	1.019737	0.174889
O14	O	0.784016	1.519737	0.674889
O15	O	0.135006	0.936645	0.284614
O16	O	0.635006	1.436645	0.784614
O17	O	0.284000	1.129476	0.284631
O18	O	0.784000	1.629476	0.784631
O19	O	0.134994	1.019793	0.367764
O20	O	0.634994	1.519793	0.867764
O21	O	0.219789	0.936614	0.174882
O22	O	0.719789	1.436614	0.674882
O23	O	0.219760	0.826897	0.284596
O24	O	0.719760	1.326897	0.784596
O25	O	0.283950	0.936629	0.477473
O26	O	0.783950	1.436629	0.977473
O27	O	0.283966	0.826890	0.367731
O28	O	0.783966	1.326890	0.867731
O29	O	0.219733	1.019784	0.477487
O30	O	0.719733	1.519784	0.977487
O31	O	0.368754	1.019728	0.284612
O32	O	0.868754	1.519728	0.784612
O33	O	0.368733	0.936598	0.367740
O34	O	0.868733	1.436598	0.867740
C35	C	0.251862	0.802335	0.326161
C36	C	0.751862	1.302335	0.826161
C37	C	0.251870	0.727103	0.326167
C38	C	0.751870	1.227103	0.826167
C39	C	0.115499	0.978224	0.326190
C40	C	0.615499	1.478224	0.826190
C41	C	0.057385	0.978237	0.326193
C42	C	0.557385	1.478237	0.826193
C43	C	0.285352	0.691773	0.369386
C44	C	0.785352	1.191773	0.869386
C45	C	0.285353	0.621085	0.369396
C46	C	0.785353	1.121085	0.869396
C47	C	0.251874	0.585727	0.326183
C48	C	0.751874	1.085727	0.826183
C49	C	0.218389	0.621062	0.282962
C50	C	0.718389	1.121062	0.782962
C51	C	0.218386	0.691749	0.282957
C52	C	0.718386	1.191749	0.782957
C53	C	0.218400	0.335989	0.282985
C54	C	0.718400	0.835989	0.782985
C55	C	0.218407	0.265297	0.282992
C56	C	0.718407	0.765297	0.782992
C57	C	0.285368	0.265324	0.369424
C58	C	0.785368	0.765324	0.869424
C59	C	0.285365	0.336011	0.369418
C60	C	0.785365	0.836011	0.869418
C61	C	0.251877	0.371340	0.326200
C62	C	0.751877	0.871340	0.826200
C63	C	0.251876	0.447988	0.326191
C64	C	0.751876	0.947988	0.826191
C65	C	0.251878	0.509080	0.326188
C66	C	0.751878	1.009080	0.826188
C67	C	-0.302978	0.934932	0.282919
C68	C	0.197022	1.434932	0.782919
C69	C	-0.357582	0.934932	0.282923
C70	C	0.142418	1.434932	0.782923
O71	O	-0.385818	0.898101	0.246125
O72	O	0.114182	1.398101	0.746125
N73	N	-0.384898	0.978224	0.326213
N74	N	0.115102	1.478224	0.826213
C75	C	-0.357606	1.021515	0.369508
C76	C	0.142394	1.521515	0.869508
O77	O	-0.385854	1.058338	0.406330
O78	O	0.114146	1.558338	0.906330
C79	C	-0.303003	1.021512	0.369507
C80	C	0.196997	1.521512	0.869507
C81	C	-0.275690	0.978222	0.326209
C82	C	0.224310	1.478222	0.826209
C83	C	-0.275665	0.891645	0.239625
C84	C	0.224335	1.391645	0.739625
C85	C	-0.221064	0.891647	0.239621
C86	C	0.278936	1.391647	0.739621
C87	C	-0.193777	0.934936	0.282911
C88	C	0.306223	1.434936	0.782911
C89	C	-0.221089	0.978224	0.326205
C90	C	0.278911	1.478224	0.826205
C91	C	-0.275712	1.064800	0.412805
C92	C	0.224288	1.564800	0.912805
C93	C	-0.221105	1.064792	0.412801
C94	C	0.278895	1.564792	0.912801
C95	C	-0.193792	1.021502	0.369503
C96	C	0.306208	1.521502	0.869503
C97	C	-0.139201	1.021515	0.369491
C98	C	0.360799	1.521515	0.869491
N99	N	-0.111886	0.978222	0.326201
N100	N	0.388114	1.478222	0.826201
C101	C	-0.139173	0.934933	0.282911
C102	C	0.360827	1.434933	0.782911
C103	C	-0.472277	1.021518	0.369506
C104	C	0.027723	1.521518	0.869506
C105	C	-0.526879	1.021525	0.369503
C106	C	-0.026879	1.521525	0.869503
C107	C	-0.526851	0.934940	0.282919
C108	C	-0.026851	1.434940	0.782919
C109	C	-0.472248	0.934937	0.282919
C110	C	0.027752	1.434937	0.782919
C111	C	-0.444961	0.978225	0.326216
C112	C	0.055039	1.478225	0.826216
C113	C	-0.024508	0.934940	0.282905
C114	C	0.475492	1.434940	0.782905
C115	C	0.030097	0.934948	0.282903
C116	C	0.530097	1.434948	0.782903
C117	C	0.030065	1.021530	0.369490
C118	C	0.530065	1.521530	0.869490
C119	C	-0.024536	1.021525	0.369490
C120	C	0.475464	1.521525	0.869490
C121	C	-0.051821	0.978225	0.326195
C122	C	0.448179	1.478225	0.826195
O123	O	-0.110930	1.058325	0.406272
O124	O	0.389070	1.558325	0.906272
O125	O	-0.110919	0.898110	0.246101
O126	O	0.389081	1.398110	0.746101
C127	C	0.387715	0.978177	0.326190
C128	C	0.887715	1.478177	0.826190
C129	C	0.445829	0.978233	0.326216
C130	C	0.945829	1.478233	0.826216
C131	C	0.251837	0.978209	0.502725
C132	C	0.751837	1.478209	1.002725
C133	C	0.251822	0.978217	0.577957
C134	C	0.751822	1.478217	1.077957
C135	C	0.251882	1.154734	0.326205
C136	C	0.751882	1.654734	0.826205
C137	C	0.251887	1.229966	0.326215
C138	C	0.751887	1.729966	0.826215
C139	C	0.251869	0.978212	0.150327
C140	C	0.751869	1.478212	0.650327
C141	C	0.251737	0.978335	0.075095
C142	C	0.751737	1.478335	0.575095
C143	C	0.285181	1.021606	1.039750
C144	C	0.785181	1.521606	1.539750
C145	C	0.285195	1.021587	0.969061
C146	C	0.785195	1.521587	1.469061
C147	C	0.251763	0.978301	0.933719
C148	C	0.751763	1.478301	1.433719
C149	C	0.218317	0.935025	0.969069
C150	C	0.718317	1.435025	1.469069
C151	C	0.218306	0.935041	1.039757
C152	C	0.718306	1.435041	1.539757
C153	C	0.218362	0.934960	0.683996
C154	C	0.718362	1.434960	1.183996
C155	C	0.218374	0.934949	0.613304
C156	C	0.718374	1.434949	1.113304
C157	C	0.285251	1.021506	0.613301
C158	C	0.785251	1.521506	1.113301
C159	C	0.285240	1.021522	0.683988
C160	C	0.785240	1.521522	1.183988
C161	C	0.251797	0.978244	0.719332
C162	C	0.751797	1.478244	1.219332
C163	C	0.251783	0.978264	0.795980
C164	C	0.751783	1.478264	1.295980
C165	C	0.251774	0.978284	0.857072
C166	C	0.751774	1.478284	1.357072
H167	H	0.312616	0.720556	0.404573
H168	H	0.812616	1.220556	0.904573
N169	N	-0.053932	0.888240	0.236210
N170	N	0.446068	1.388240	0.736210
H171	H	-0.028338	0.860822	0.208786
H172	H	0.471662	1.360822	0.708786
H173	H	-0.076583	0.915787	0.204890
H174	H	0.423417	1.415787	0.704890
N175	N	0.182259	0.888333	0.930955
N176	N	0.682259	1.388333	1.430955
H177	H	0.187339	0.894890	0.880811
H178	H	0.687339	1.394890	1.380811
H179	H	0.144917	0.898879	0.943317
H180	H	0.644917	1.398879	1.443317
N181	N	0.321239	1.068298	1.077866
N182	N	0.821239	1.568298	1.577866
H183	H	0.342428	1.095705	1.044746
H184	H	0.842428	1.595705	1.544746
H185	H	0.345428	1.040748	1.107192
H186	H	0.845428	1.540748	1.607192
N187	N	0.321473	0.582981	0.416003
N188	N	0.821473	1.082981	0.916003
H189	H	0.300264	0.553665	0.447423
H190	H	0.800264	1.053665	0.947423
H191	H	0.342676	0.616152	0.443325
H192	H	0.842676	1.116152	0.943325
H193	H	-0.198831	0.856394	0.204365
H194	H	0.301169	1.356394	0.704365
H195	H	0.191127	0.592269	0.247780
H196	H	0.691127	1.092269	0.747780
N197	N	-0.191682	1.111488	0.459504
N198	N	0.308318	1.611488	0.959504
H199	H	-0.169024	1.142857	0.432005
H200	H	0.330976	1.642857	0.932005
H201	H	-0.169062	1.083939	0.490859
H202	H	0.330938	1.583939	0.990859
H203	H	0.191072	0.899807	1.068534
H204	H	0.691072	1.399807	1.568534
H205	H	0.191137	0.364745	0.247789
H206	H	0.691137	0.864745	0.747789
H207	H	0.312484	1.056743	0.584515
H208	H	0.812484	1.556743	1.084515
H209	H	-0.549079	0.899691	0.247671
H210	H	-0.049079	1.399691	0.747671
H211	H	0.191118	0.720514	0.247767
H212	H	0.691118	1.220514	0.747767
H213	H	0.052333	0.899695	0.247642
H214	H	0.552333	1.399695	0.747642
N215	N	-0.054004	1.068218	0.416181
N216	N	0.445996	1.568218	0.916181
H217	H	-0.044507	1.116579	0.405675
H218	H	0.455493	1.616579	0.905675
H219	H	-0.044496	1.057654	0.464521
H220	H	0.455504	1.557654	0.964521
H221	H	-0.297878	0.856390	0.204373
H222	H	0.202122	1.356390	0.704373
N223	N	0.321268	1.068255	0.930936
N224	N	0.821268	1.568255	1.430936
H225	H	0.342444	1.095682	0.964050
H226	H	0.842444	1.595682	1.464050
H227	H	0.299991	1.099573	0.901608
H228	H	0.799991	1.599573	1.401608
H229	H	-0.549113	1.056783	0.404753
H230	H	-0.049113	1.556783	0.904753
H231	H	0.312463	1.056772	0.712760
H232	H	0.812463	1.556772	1.212760
N233	N	0.182310	0.888264	0.575182
N234	N	0.682310	1.388264	1.075182
H235	H	0.161122	0.860850	0.608298
H236	H	0.661122	1.360850	1.108298
H237	H	0.203595	0.856933	0.545846
H238	H	0.703595	1.356933	1.045846
N239	N	-0.442791	0.888246	0.236219
N240	N	0.057209	1.388246	0.736219
H241	H	-0.468368	0.860827	0.208796
H242	H	0.031632	1.360827	0.708796
H243	H	-0.420141	0.856921	0.263763
H244	H	0.079859	1.356921	0.763763
N245	N	0.182292	0.888285	0.722112
N246	N	0.682292	1.388285	1.222112
H247	H	0.161114	0.860864	0.688995
H248	H	0.661114	1.360864	1.188995
H249	H	0.158093	0.915846	0.751445
H250	H	0.658093	1.415846	1.251445
H251	H	-0.450063	1.056773	0.404764
H252	H	0.049937	1.556773	0.904764
H253	H	0.312628	0.364796	0.404604
H254	H	0.812628	0.864796	0.904604
N255	N	0.059502	1.068221	0.416178
N256	N	0.559502	1.568221	0.916178
H257	H	0.098236	1.061647	0.409604
H258	H	0.598236	1.561647	0.909604
H259	H	0.049950	1.057688	0.464517
H260	H	0.549950	1.557688	0.964517
N261	N	0.321485	0.227216	0.416039
N262	N	0.821485	0.727216	0.916039
H263	H	0.300273	0.197900	0.447455
H264	H	0.800273	0.697900	0.947455
H265	H	0.342688	0.260383	0.443364
H266	H	0.842688	0.760383	0.943364
N267	N	0.182297	0.227159	0.236381
N268	N	0.682297	0.727159	0.736381
H269	H	0.161081	0.260265	0.209003
H270	H	0.661081	0.760265	0.709003
H271	H	0.158134	0.197838	0.263989
H272	H	0.658134	0.697838	0.763989
N273	N	-0.305162	1.111489	0.459509
N274	N	0.194838	1.611489	0.959509
H275	H	-0.279582	1.138904	0.486932
H276	H	0.220418	1.638904	0.986932
H277	H	-0.327819	1.083937	0.490830
H278	H	0.172181	1.583937	0.990830
