data_functionalizedCrystal
_audit_creation_method	'MofGen! by Chris Wilmer'
_symmetry_space_group_name_H-M	'P1'
_symmetry_Int_Tables_number	1
_symmetry_cell_setting	triclinic
loop_
_symmetry_equiv_pos_as_xyz
  x,y,z
_cell_length_a	10.489711
_cell_length_b	10.489741
_cell_length_c	13.330367
_cell_angle_alpha	89.994717
_cell_angle_beta	90.008525
_cell_angle_gamma	84.533091
loop_
_atom_site_label
_atom_site_type_symbol
_atom_site_fract_x
_atom_site_fract_y
_atom_site_fract_z
O1	O	1.694082	0.179769	0.083459
O2	O	1.322882	0.196701	0.083453
O3	O	1.516928	0.002636	0.083450
O4	O	1.500035	0.373834	0.083462
O5	O	1.516899	0.002667	-0.083397
O6	O	1.322852	0.196732	-0.083394
O7	O	1.694052	0.179800	-0.083388
Cu8	Cu	1.508449	0.188269	-0.098625
Cu9	Cu	1.508485	0.188232	0.098691
O10	O	1.500006	0.373865	-0.083385
C11	C	1.275334	0.195446	0.000029
C12	C	1.133703	0.191644	0.000026
C13	C	0.951317	0.308348	0.000042
C14	C	1.043477	0.250038	0.082303
C15	C	1.043421	0.250037	-0.082196
C16	C	0.973526	0.126495	0.082377
C17	C	0.973460	0.126511	-0.082195
C18	C	1.065593	0.068111	0.000086
C19	C	1.515638	-0.044880	0.000027
C20	C	1.511820	-0.186509	0.000029
C21	C	1.388354	-0.254636	0.000034
C22	C	1.446664	-0.346749	-0.082229
C23	C	1.446722	-0.346755	0.082269
C24	C	1.570181	-0.276757	-0.082302
C25	C	1.570222	-0.276753	0.082270
C26	C	1.628622	-0.368839	-0.000013
C27	C	1.741600	0.181055	0.000039
C28	C	1.883231	0.184857	0.000048
C29	C	1.501296	0.421381	0.000040
C30	C	1.505114	0.563010	0.000045
N31	N	1.508434	0.188294	-0.237407
C32	C	1.586573	0.266323	-0.710015
C33	C	1.430434	0.110090	-0.710012
C34	C	1.430415	0.110110	-0.604994
C35	C	1.508479	0.188236	-0.552481
C36	C	1.586560	0.266342	-0.604987
C37	C	1.352344	0.031996	-0.552480
C38	C	1.352324	0.032011	-0.447455
C39	C	1.430382	0.110145	-0.394941
C40	C	1.508465	0.188255	-0.447453
C41	C	1.586529	0.266381	-0.394941
C42	C	1.664607	0.344499	-0.447451
C43	C	1.664618	0.344475	-0.552473
C44	C	1.430371	0.110168	-0.289919
C45	C	1.586516	0.266400	-0.289913
N46	N	1.508510	0.188197	0.237472
H47	H	1.074484	0.302280	0.151849
N48	N	0.932750	0.057317	0.174603
H49	H	0.836696	0.055166	0.174057
H50	H	0.958894	0.103642	0.236612
N51	N	1.131101	-0.066463	0.000120
H52	H	1.105687	-0.112939	0.062280
H53	H	1.226992	-0.063044	-0.000515
N54	N	0.932336	0.057374	-0.174323
H55	H	0.888819	-0.020242	-0.153366
H56	H	1.009988	0.029404	-0.216480
H57	H	1.074364	0.302323	-0.151742
H58	H	1.728172	0.408103	-0.404682
H59	H	1.622432	-0.245727	0.151823
N60	N	1.377440	-0.387804	-0.174349
H61	H	1.376096	-0.483950	-0.173997
H62	H	1.423199	-0.361023	-0.236433
N63	N	1.268110	-0.052240	-0.390831
H64	H	1.175538	-0.027976	-0.409135
H65	H	1.280045	-0.040342	-0.316349
N66	N	1.346253	0.025828	-0.766655
H67	H	1.284338	0.080757	-0.810253
H68	H	1.296868	-0.023638	-0.717397
H69	H	1.286841	-0.204974	-0.000050
H70	H	1.622364	-0.245917	-0.151927
H71	H	1.366804	0.046562	-0.247170
H72	H	1.650139	0.329928	-0.752774
N73	N	0.885486	0.442791	0.000145
H74	H	0.910770	0.489258	0.062347
H75	H	0.789628	0.439123	-0.000525
H76	H	1.730226	-0.418274	-0.000057
N77	N	1.377520	-0.387814	0.174388
H78	H	1.286766	-0.345864	0.174308
H79	H	1.423348	-0.361123	0.236474
N80	N	1.670710	0.350670	-0.233277
H81	H	1.720169	0.400149	-0.282480
H82	H	1.732557	0.295661	-0.189685
H83	H	1.728188	0.408072	-0.595236
N84	N	1.268165	-0.052261	-0.609130
H85	H	1.206247	0.002676	-0.652721
H86	H	1.218783	-0.101739	-0.559878
