data_functionalizedCrystal
_audit_creation_method	'MofGen! by Chris Wilmer'
_symmetry_space_group_name_H-M	'P1'
_symmetry_Int_Tables_number	1
_symmetry_cell_setting	triclinic
loop_
_symmetry_equiv_pos_as_xyz
  x,y,z
_cell_length_a	14.971486
_cell_length_b	9.130313
_cell_length_c	14.971494
_cell_angle_alpha	89.999536
_cell_angle_beta	83.615843
_cell_angle_gamma	89.995281
loop_
_atom_site_label
_atom_site_type_symbol
_atom_site_fract_x
_atom_site_fract_y
_atom_site_fract_z
O1	O	1.186943	0.121625	0.116558
O2	O	1.686943	0.621625	0.616558
O3	O	0.926543	0.121664	0.130517
O4	O	1.426543	0.621664	0.630517
O5	O	1.063719	0.121640	-0.006662
O6	O	1.563719	0.621640	0.493338
O7	O	1.049768	0.121649	0.253737
O8	O	1.549768	0.621649	0.753737
O9	O	1.063717	-0.121958	-0.006658
O10	O	1.563717	0.378042	0.493342
O11	O	0.926542	-0.121934	0.130521
O12	O	1.426542	0.378066	0.630521
O13	O	1.186941	-0.121974	0.116562
O14	O	1.686941	0.378026	0.616562
Cu15	Cu	1.056741	-0.144197	0.123542
Cu16	Cu	1.556741	0.355803	0.623542
Cu17	Cu	1.056743	0.143887	0.123537
Cu18	Cu	1.556743	0.643887	0.623537
O19	O	1.049766	-0.121950	0.253741
O20	O	1.549766	0.378050	0.753741
C21	C	0.893218	-0.000130	0.129895
C22	C	1.393218	0.499870	0.629895
C23	C	0.793921	-0.000115	0.128024
C24	C	1.293921	0.499885	0.628024
N25	N	1.056747	-0.346819	0.123544
N26	N	1.556747	0.153181	0.623544
C27	C	0.736698	-0.000114	0.208613
C28	C	1.236698	0.499886	0.708613
C29	C	0.643398	-0.000136	0.206850
C30	C	1.143398	0.499864	0.706850
C31	C	0.607323	-0.000148	0.124497
C32	C	1.107323	0.499852	0.624497
C33	C	0.664554	-0.000153	0.043902
C34	C	1.164554	0.499847	0.543902
C35	C	0.757851	-0.000142	0.045666
C36	C	1.257851	0.499858	0.545666
C37	C	0.470091	-0.000173	0.040231
C38	C	0.970091	0.499827	0.540231
C39	C	0.376787	-0.000182	0.038466
C40	C	0.876787	0.499818	0.538466
C41	C	0.355638	-0.000168	0.201415
C42	C	0.855638	0.499832	0.701415
C43	C	0.448936	-0.000156	0.203179
C44	C	0.948936	0.499844	0.703179
C45	C	0.506160	-0.000159	0.122583
C46	C	1.006160	0.499841	0.622583
C47	C	1.117503	-0.423482	0.062822
C48	C	1.617503	0.076518	0.562822
C49	C	1.117501	-0.576819	0.062811
C50	C	1.617501	-0.076819	0.562811
C51	C	0.995982	-0.576817	0.184253
C52	C	1.495982	-0.076817	0.684253
C53	C	0.995981	-0.423483	0.184259
C54	C	1.495981	0.076517	0.684259
C55	C	1.187664	-0.423484	-0.007289
C56	C	1.687664	0.076516	0.492711
C57	C	1.187661	-0.576821	-0.007300
C58	C	1.687661	-0.076821	0.492700
C59	C	1.220267	-0.000176	0.117184
C60	C	1.720267	0.499824	0.617184
C61	C	1.319564	-0.000182	0.119055
C62	C	1.819564	0.499818	0.619055
C63	C	1.063093	-0.000157	-0.039985
C64	C	1.563093	0.499843	0.460015
C65	C	1.061219	-0.000150	-0.139281
C66	C	1.561219	0.499850	0.360719
N67	N	1.056745	0.346510	0.123528
N68	N	1.556745	0.846510	0.623528
C69	C	1.060342	0.132638	-0.185928
C70	C	1.560342	0.632638	0.314072
C71	C	1.058575	0.132640	-0.279227
C72	C	1.558575	0.632640	0.220773
C73	C	1.057693	-0.000147	-0.325879
C74	C	1.557693	0.499853	0.174121
C75	C	1.058567	-0.132945	-0.279225
C76	C	1.558567	0.367055	0.220775
C77	C	1.060327	-0.132945	-0.185927
C78	C	1.560327	0.367055	0.314073
C79	C	1.054901	-0.132934	-0.473688
C80	C	1.554901	0.367066	0.026312
C81	C	1.053143	-0.132934	-0.566993
C82	C	1.553143	0.367066	-0.066993
C83	C	1.053149	0.132651	-0.566988
C84	C	1.553149	0.632651	-0.066988
C85	C	1.054909	0.132650	-0.473690
C86	C	1.554909	0.632650	0.026310
C87	C	1.055786	-0.000148	-0.427043
C88	C	1.555786	0.499852	0.072957
C89	C	1.050392	-0.000149	0.287064
C90	C	1.550392	0.499851	0.787064
C91	C	1.052266	-0.000147	0.386360
C92	C	1.552266	0.499853	0.886360
H93	H	0.766062	-0.000103	0.275674
H94	H	1.266062	0.499897	0.775674
F95	F	1.057643	0.273971	-0.328868
F96	F	1.557643	0.773971	0.171132
F97	F	1.159896	-0.638974	-0.092001
F98	F	1.659896	-0.138974	0.407999
F99	F	1.061287	0.273971	-0.136287
F100	F	1.561287	0.773971	0.363713
H101	H	0.804442	-0.000141	-0.019958
H102	H	1.304442	0.499859	0.480042
H103	H	0.596810	-0.000134	0.272473
H104	H	1.096810	0.499866	0.772473
H105	H	1.052434	0.240780	-0.604973
H106	H	1.552434	0.740780	-0.104973
H107	H	1.172914	-0.381863	-0.075927
H108	H	1.672914	0.118137	0.424073
H109	H	1.052417	-0.241061	-0.604973
H110	H	1.552417	0.258939	-0.104973
H111	H	0.635174	-0.000184	-0.023152
H112	H	1.135174	0.499816	0.476848
H113	H	1.055635	0.240777	-0.435710
H114	H	1.555635	0.740777	0.064290
H115	H	0.347418	-0.000194	-0.028593
H116	H	0.847418	0.499806	0.471407
F117	F	1.272329	-0.361326	0.020548
F118	F	1.772329	0.138674	0.520548
H119	H	1.055595	-0.241073	-0.435709
H120	H	1.555595	0.258927	0.064291
H121	H	0.309041	-0.000173	0.267038
H122	H	0.809041	0.499827	0.767038
H123	H	0.478304	-0.000133	0.270238
H124	H	0.978304	0.499867	0.770238
H125	H	1.256284	-0.618447	0.007501
H126	H	1.756284	-0.118447	0.507501
H127	H	0.516681	-0.000178	-0.025399
H128	H	1.016681	0.499822	0.474601
F129	F	1.057618	-0.274267	-0.328876
F130	F	1.557618	0.225733	0.171124
H131	H	0.946501	-0.361065	0.233696
H132	H	1.446501	0.138935	0.733696
F133	F	1.061260	-0.274276	-0.136282
F134	F	1.561260	0.225724	0.363718
H135	H	0.946508	-0.639253	0.233684
H136	H	1.446508	-0.139253	0.733684
