data_functionalizedCrystal
_audit_creation_method	'MofGen! by Chris Wilmer'
_symmetry_space_group_name_H-M	'P1'
_symmetry_Int_Tables_number	1
_symmetry_cell_setting	triclinic
loop_
_symmetry_equiv_pos_as_xyz
  x,y,z
_cell_length_a	17.699104
_cell_length_b	15.944493
_cell_length_c	16.776229
_cell_angle_alpha	89.999222
_cell_angle_beta	89.991971
_cell_angle_gamma	83.383281
loop_
_atom_site_label
_atom_site_type_symbol
_atom_site_fract_x
_atom_site_fract_y
_atom_site_fract_z
O1	O	1.004230	0.106308	-0.066294
O2	O	0.783875	0.120110	-0.066291
O3	O	0.900093	-0.009081	-0.066299
O4	O	0.888012	0.235499	-0.066286
O5	O	0.900077	-0.009089	0.066277
O6	O	0.783859	0.120102	0.066286
O7	O	1.004215	0.106300	0.066283
Zn8	Zn	0.894035	0.113200	0.087334
Zn9	Zn	0.894055	0.113210	-0.087342
O10	O	0.887997	0.235491	0.066291
C11	C	0.755670	0.119608	-0.000002
C12	C	0.671650	0.118116	-0.000002
C13	C	0.899591	-0.040379	-0.000014
C14	C	0.898111	-0.133625	-0.000024
C15	C	0.146882	0.185531	-0.000006
C16	C	0.225828	0.186928	-0.000008
C17	C	0.274330	0.111088	-0.000012
C18	C	0.243883	0.033845	-0.000022
C19	C	0.164938	0.032449	-0.000026
C20	C	0.562257	0.039476	-0.000009
C21	C	0.641207	0.040878	-0.000003
C22	C	0.623147	0.193955	0.000008
C23	C	0.544202	0.192559	0.000005
C24	C	0.513762	0.115317	-0.000009
C25	C	0.428160	0.113802	-0.000009
C26	C	0.359931	0.112602	-0.000008
C27	C	0.966520	-0.369523	-0.000010
C28	C	0.929637	-0.420012	-0.065376
C29	C	0.895368	-0.304340	-0.000015
C30	C	0.929605	-0.419996	0.065334
C31	C	0.892724	-0.469245	-0.000002
C32	C	0.858505	-0.353602	-0.065435
C33	C	0.858483	-0.353582	0.065334
C34	C	0.821549	-0.404039	-0.000048
C35	C	0.896893	-0.209343	-0.000023
C36	C	0.891193	-0.564239	0.000001
C37	C	1.032420	0.106802	-0.000008
C38	C	1.116439	0.108294	-0.000014
C39	C	0.888498	0.266789	0.000004
C40	C	0.889979	0.360035	0.000009
N41	N	0.894026	0.113192	0.206545
N42	N	0.894069	0.113211	-0.206553
C43	C	0.945503	0.056010	0.248258
C44	C	0.945507	0.056009	0.331710
C45	C	0.894038	0.113195	0.373448
C46	C	0.842555	0.170381	0.331728
C47	C	0.842548	0.170377	0.248278
C48	C	0.842583	0.170397	0.668276
C49	C	0.842595	0.170398	0.751732
C50	C	0.945542	0.056029	0.751708
C51	C	0.945535	0.056025	0.668258
C52	C	0.894050	0.113207	0.626546
C53	C	0.894045	0.113206	0.536057
C54	C	0.894046	0.113201	0.463934
H55	H	0.107396	0.247289	0.000003
H56	H	0.250609	0.249822	-0.000010
H57	H	0.828455	-0.324564	0.120600
Br58	Br	1.068668	-0.343678	-0.000115
H59	H	0.800629	0.216939	0.214315
H60	H	0.140154	-0.030445	-0.000033
H61	H	0.800680	0.216968	0.785713
H62	H	0.800663	0.216958	0.634320
Br63	Br	0.478381	0.295488	0.000014
H64	H	0.680696	-0.020884	-0.000009
H65	H	0.987462	0.009466	0.785679
Br66	Br	0.979727	-0.468355	-0.157487
H67	H	0.800644	0.216940	0.365716
Br68	Br	1.015392	-0.021582	0.611616
Br69	Br	0.979699	-0.468324	0.157435
H70	H	0.760213	-0.419381	-0.000083
Br71	Br	1.015367	-0.021600	0.388324
Br72	Br	0.664462	0.298786	0.000024
Br73	Br	0.520955	-0.065353	-0.000052
H74	H	0.283380	-0.027905	-0.000030
Br75	Br	0.808463	-0.305467	-0.157643
H76	H	0.987419	0.009445	0.214281
