data_functionalizedCrystal
_audit_creation_method	'MofGen! by Chris Wilmer'
_symmetry_space_group_name_H-M	'P1'
_symmetry_Int_Tables_number	1
_symmetry_cell_setting	triclinic
loop_
_symmetry_equiv_pos_as_xyz
  x,y,z
_cell_length_a	10.723024
_cell_length_b	8.559649
_cell_length_c	7.681481
_cell_angle_alpha	94.930900
_cell_angle_beta	95.778575
_cell_angle_gamma	102.876733
loop_
_atom_site_label
_atom_site_type_symbol
_atom_site_fract_x
_atom_site_fract_y
_atom_site_fract_z
O1	O	1.621004	-0.238853	-0.146409
O2	O	1.255654	-0.260282	-0.146414
O3	O	1.470517	-0.017318	-0.146409
O4	O	1.406141	-0.481817	-0.146413
O5	O	1.496970	0.012655	0.146449
O6	O	1.282107	-0.230309	0.146445
O7	O	1.647457	-0.208880	0.146450
Zn8	Zn	1.468982	-0.214836	0.192945
Zn9	Zn	1.434129	-0.254327	-0.192909
O10	O	1.432594	-0.451844	0.146445
C11	C	1.222541	-0.243736	0.000015
C12	C	1.084465	-0.239071	0.000012
C13	C	0.907566	-0.094143	0.000011
C14	C	1.050275	-0.098962	0.000013
C15	C	1.488621	0.057144	0.000017
C16	C	1.503142	0.234364	0.000007
C17	C	1.680570	-0.225426	0.000017
C18	C	1.818645	-0.230093	0.000008
C19	C	1.414489	-0.526307	0.000015
C20	C	1.399967	-0.703528	0.000013
N21	N	1.492777	-0.187883	0.456280
N22	N	1.410345	-0.281266	-0.456244
H23	H	0.878045	0.025819	0.000038
H24	H	1.602592	0.316782	0.000023
H25	H	1.326200	-0.376582	0.468558
C26	C	0.858509	-0.392157	0.000008
H27	H	0.784216	-0.476825	0.000017
H28	H	0.898723	-0.410273	-0.102115
H29	H	0.917166	-0.389366	0.102150
H30	H	1.576935	-0.092573	0.531487
C31	C	1.265623	0.185163	0.000004
H32	H	1.202843	0.247889	0.000021
H33	H	1.246343	0.109018	-0.102125
H34	H	1.264795	0.129921	0.102140
H35	H	1.126639	0.017421	0.000004
H36	H	1.008106	-0.355462	0.000003
