data_functionalizedCrystal
_audit_creation_method	'MofGen! by Chris Wilmer'
_symmetry_space_group_name_H-M	'P1'
_symmetry_Int_Tables_number	1
_symmetry_cell_setting	triclinic
loop_
_symmetry_equiv_pos_as_xyz
  x,y,z
_cell_length_a	19.288865
_cell_length_b	10.654550
_cell_length_c	9.730223
_cell_angle_alpha	89.999758
_cell_angle_beta	90.008198
_cell_angle_gamma	96.189411
loop_
_atom_site_label
_atom_site_type_symbol
_atom_site_fract_x
_atom_site_fract_y
_atom_site_fract_z
O1	O	0.097553	-1.665751	0.114205
O2	O	0.597553	-1.165751	0.614205
O3	O	0.106847	-1.300074	0.114232
O4	O	0.606847	-0.800074	0.614232
O5	O	0.001139	-1.493479	0.114191
O6	O	0.501139	-0.993479	0.614191
O7	O	0.203261	-1.472346	0.114247
O8	O	0.703261	-0.972346	0.614247
O9	O	0.001139	-1.493465	-0.114389
O10	O	0.501139	-0.993465	0.385611
O11	O	0.106847	-1.300060	-0.114348
O12	O	0.606847	-0.800060	0.385652
O13	O	0.097553	-1.665738	-0.114375
O14	O	0.597553	-1.165738	0.385625
Zn15	Zn	0.102200	-1.482897	-0.150653
Zn16	Zn	0.602200	-0.982897	0.349347
Zn17	Zn	0.102200	-1.482915	0.150511
Zn18	Zn	0.602200	-0.982915	0.650511
O19	O	0.203261	-1.472333	-0.114333
O20	O	0.703261	-0.972333	0.385667
C21	C	0.106165	-1.253284	-0.000055
C22	C	0.606165	-0.753284	0.499945
C23	C	0.104123	-1.113884	-0.000046
C24	C	0.604123	-0.613884	0.499954
C25	C	-0.024742	-1.492792	-0.000103
C26	C	0.475258	-0.992792	0.499897
C27	C	-0.101859	-1.490751	-0.000115
C28	C	0.398141	-0.990751	0.499885
N29	N	0.102200	-1.482894	-0.356190
N30	N	0.602200	-0.982894	0.143810
C31	C	-0.145812	-1.604232	-0.000131
C32	C	0.354188	-1.104232	0.499869
C33	C	-0.218272	-1.602315	-0.000109
C34	C	0.281728	-1.102315	0.499891
C35	C	-0.246775	-1.486909	-0.000099
C36	C	0.253225	-0.986909	0.499901
C37	C	-0.202812	-1.373413	-0.000076
C38	C	0.297188	-0.873413	0.499924
C39	C	-0.130354	-1.375334	-0.000085
C40	C	0.369646	-0.875334	0.499915
C41	C	-0.355656	-1.396182	-0.080159
C42	C	0.144344	-0.896182	0.419841
C43	C	-0.428113	-1.394266	-0.080160
C44	C	0.071887	-0.894266	0.419840
C45	C	-0.470259	-1.480980	-0.000068
C46	C	0.029741	-0.980980	0.499932
C47	C	-0.439941	-1.569631	0.080006
C48	C	0.060059	-1.069631	0.580006
C49	C	-0.367483	-1.571552	0.079998
C50	C	0.132517	-1.071552	0.579998
C51	C	-0.325343	-1.484814	-0.000090
C52	C	0.174657	-0.984814	0.499910
C53	C	-0.592782	-1.592390	-0.000057
C54	C	-0.092782	-1.092390	0.499943
C55	C	-0.665243	-1.590467	-0.000027
C56	C	-0.165243	-1.090467	0.499973
C57	C	-0.649781	-1.361562	-0.000009
C58	C	-0.149781	-0.861562	0.499991
C59	C	-0.577322	-1.363488	-0.000025
C60	C	-0.077322	-0.863488	0.499975
C61	C	-0.548827	-1.478905	-0.000056
C62	C	-0.048827	-0.978905	0.499944
C63	C	0.229142	-1.473020	-0.000036
C64	C	0.729142	-0.973020	0.499964
C65	C	0.306259	-1.475061	-0.000015
C66	C	0.806259	-0.975061	0.499985
C67	C	0.098236	-1.712528	-0.000085
C68	C	0.598236	-1.212528	0.499915
C69	C	0.100277	-1.851928	-0.000085
C70	C	0.600277	-1.351928	0.499915
C71	C	0.166363	-1.033066	-0.000033
C72	C	0.666363	-0.533066	0.499967
C73	C	0.164440	-0.902087	-0.000057
C74	C	0.664440	-0.402087	0.499943
C75	C	0.038033	-0.932756	-0.000102
C76	C	0.538033	-0.432756	0.499898
C77	C	0.039956	-1.063733	-0.000088
C78	C	0.539956	-0.563733	0.499912
C79	C	0.144718	-1.558815	-0.428104
C80	C	0.644718	-1.058815	0.071896
C81	C	0.144714	-1.558836	-0.571987
C82	C	0.644714	-1.058836	-0.071987
C83	C	0.059672	-1.407004	-0.572029
C84	C	0.559672	-0.907004	-0.072029
C85	C	0.059673	-1.406990	-0.428148
C86	C	0.559673	-0.906990	0.071852
N87	N	0.102195	-1.482928	0.356047
N88	N	0.602195	-0.982928	0.856047
H89	H	-0.122616	-1.698214	-0.000151
H90	H	0.377384	-1.198214	0.499849
H91	H	-0.701029	-1.682881	-0.000032
H92	H	-0.201029	-1.182881	0.499968
Cl93	Cl	0.198175	-1.654247	-0.337647
Cl94	Cl	0.698175	-1.154247	0.162353
H95	H	0.179336	-1.620660	-0.630534
H96	H	0.679336	-1.120660	-0.130534
H97	H	0.025049	-1.345204	-0.630635
H98	H	0.525049	-0.845204	-0.130635
H99	H	-0.541534	-1.271079	-0.000021
H100	H	-0.041534	-0.771079	0.499979
H101	H	0.025045	-1.345165	-0.369594
H102	H	0.525045	-0.845165	0.130406
Cl103	Cl	-0.042629	-0.869698	-0.000146
Cl104	Cl	0.457371	-0.369698	0.499854
Cl105	Cl	-0.273537	-1.744988	-0.000126
Cl106	Cl	0.226463	-1.244988	0.499874
H107	H	-0.342800	-1.643732	0.145200
H108	H	0.157200	-1.143732	0.645200
H109	H	-0.474255	-1.640241	0.145225
H110	H	0.025745	-1.140241	0.645225
H111	H	-0.569580	-1.686369	-0.000076
H112	H	-0.069580	-1.186369	0.499924
Cl113	Cl	-0.075095	-1.232660	-0.000066
Cl114	Cl	0.424905	-0.732660	0.499934
Cl115	Cl	-0.685607	-1.216479	0.000011
Cl116	Cl	-0.185607	-0.716479	0.500011
Cl117	Cl	-0.238643	-1.228332	-0.000054
Cl118	Cl	0.261357	-0.728332	0.499946
H119	H	-0.452792	-1.322076	-0.145353
H120	H	0.047208	-0.822076	0.354647
Cl121	Cl	0.242688	-0.800492	-0.000042
Cl122	Cl	0.742688	-0.300492	0.499958
Cl123	Cl	0.247029	-1.096110	0.000011
Cl124	Cl	0.747029	-0.596110	0.500011
H125	H	-0.321346	-1.325566	-0.145387
H126	H	0.178654	-0.825566	0.354613
H127	H	-0.010730	-1.129539	-0.000102
H128	H	0.489270	-0.629539	0.499898
