data_functionalizedCrystal
_audit_creation_method	'MofGen! by Chris Wilmer'
_symmetry_space_group_name_H-M	'P1'
_symmetry_Int_Tables_number	1
_symmetry_cell_setting	triclinic
loop_
_symmetry_equiv_pos_as_xyz
  x,y,z
_cell_length_a	12.759400
_cell_length_b	16.625547
_cell_length_c	12.759393
_cell_angle_alpha	89.974078
_cell_angle_beta	89.969553
_cell_angle_gamma	90.013103
loop_
_atom_site_label
_atom_site_type_symbol
_atom_site_fract_x
_atom_site_fract_y
_atom_site_fract_z
Zn1	Zn	-0.418206	1.232741	-0.594198
Zn2	Zn	-0.593925	1.232664	-0.418521
Zn3	Zn	-0.418260	1.097901	-0.418514
Zn4	Zn	-0.593843	1.097896	-0.594140
O5	O	-0.506059	1.165300	-0.506343
O6	O	-0.441527	1.345563	-0.570921
O7	O	-0.570679	1.214757	-0.271499
O8	O	-0.271232	1.115822	-0.441840
O9	O	-0.570627	1.345507	-0.441852
O10	O	-0.271192	1.214889	-0.570914
O11	O	-0.441619	1.115747	-0.271494
O12	O	-0.441540	0.985068	-0.441784
O13	O	-0.570488	1.115813	-0.741169
O14	O	-0.570540	0.985064	-0.570816
O15	O	-0.441448	1.214884	-0.741211
O16	O	-0.740935	1.214752	-0.441796
O17	O	-0.740875	1.115738	-0.570822
C18	C	-0.506038	0.955809	-0.506294
C19	C	-0.506055	0.866188	-0.506297
C20	C	-0.779026	1.165258	-0.506327
C21	C	-0.895803	1.165314	-0.506355
C22	C	-0.506057	0.793406	-0.506310
C23	C	-0.506062	0.702098	-0.506337
C24	C	-0.506072	0.629321	-0.506363
C25	C	-0.506079	0.538007	-0.506389
C26	C	-0.950564	1.216872	-0.573618
C27	C	-1.060288	1.216910	-0.573644
C28	C	-1.060479	1.113828	-0.439133
C29	C	-0.950757	1.113787	-0.439114
C30	C	-0.895609	1.268399	-0.640860
C31	C	-0.950371	1.319962	-0.708128
C32	C	-1.060095	1.319999	-0.708154
C33	C	-1.115057	1.268474	-0.640911
C34	C	-0.232025	1.165365	-0.506383
C35	C	-0.115249	1.165392	-0.506400
C36	C	-0.505953	1.165357	-0.780377
C37	C	-0.505907	1.165381	-0.897153
C38	C	-0.506080	1.375609	-0.506394
C39	C	-0.506089	1.465230	-0.506415
C40	C	-0.438710	1.216974	-0.952039
C41	C	-0.438672	1.216993	-1.061763
C42	C	-0.573038	1.113824	-1.061706
C43	C	-0.573070	1.113801	-0.951984
C44	C	-0.371547	1.268554	-0.897209
C45	C	-0.304345	1.320152	-0.952095
C46	C	-0.304307	1.320171	-1.061819
C47	C	-0.371471	1.268592	-1.116657
C48	C	-0.506088	1.165291	-0.233376
C49	C	-0.505838	1.165423	-0.116600
H50	H	-0.905615	1.361908	-0.762881
H51	H	-0.806266	1.268376	-0.640844
H52	H	-0.627772	1.071777	-0.907295
O53	O	-1.113129	1.370157	-0.773532
C54	C	-1.101353	1.472363	-0.906988
C55	C	-1.041165	1.415609	-0.832985
H56	H	-1.043196	1.509113	-0.955091
H57	H	-1.152692	1.514614	-0.858867
H58	H	-1.152742	1.435329	-0.961845
H59	H	-0.989718	1.452578	-0.778114
H60	H	-0.989892	1.373355	-0.881172
O61	O	-1.114029	1.063860	-0.373847
C62	C	-1.283149	1.018209	-0.314307
C63	C	-1.222637	1.074851	-0.388283
H64	H	-1.370969	1.027064	-0.325969
H65	H	-1.261701	1.032396	-0.229582
H66	H	-1.261563	0.953186	-0.332657
H67	H	-1.244191	1.139893	-0.370028
H68	H	-1.244090	1.060595	-0.472987
O69	O	-0.897718	1.063676	-0.373680
C70	C	-0.909477	0.961392	-0.240323
C71	C	-0.969675	1.018123	-0.314349
H72	H	-0.967628	0.924535	-0.192351
H73	H	-0.858135	0.998369	-0.185354
H74	H	-0.858090	0.919232	-0.288526
H75	H	-1.021119	1.060294	-0.266231
H76	H	-1.020951	0.981096	-0.369321
H77	H	-0.249656	1.362140	-0.907438
O78	O	-0.238994	1.370363	-1.114974
C79	C	-0.105685	1.472659	-1.103444
C80	C	-0.179613	1.415866	-1.043119
H81	H	-0.057640	1.509451	-1.045376
H82	H	-0.153860	1.514870	-1.154786
H83	H	-0.050770	1.435654	-1.154843
H84	H	-0.234543	1.452807	-0.991663
H85	H	-0.131372	1.373653	-0.991843
O86	O	-0.371337	1.268738	-1.223244
C87	C	-0.297520	1.325343	-1.380732
C88	C	-0.297577	1.325268	-1.260027
H89	H	-0.237875	1.371031	-1.410508
H90	H	-0.378843	1.342109	-1.410561
H91	H	-0.275750	1.262894	-1.410487
H92	H	-0.319301	1.387698	-1.230183
H93	H	-0.216244	1.308457	-1.230270
O94	O	-0.638251	1.063806	-1.115135
C95	C	-0.697714	1.018093	-1.284145
C96	C	-0.623819	1.074789	-1.223770
H97	H	-0.686055	1.026941	-1.371987
H98	H	-0.782460	1.032230	-1.262632
H99	H	-0.679278	0.953084	-1.262502
H100	H	-0.642160	1.139817	-1.245381
H101	H	-0.539095	1.060582	-1.245289
H102	H	-0.371573	1.268546	-0.807866
H103	H	-1.204402	1.268499	-0.640949
