data_functionalizedCrystal
_audit_creation_method	'MofGen! by Chris Wilmer'
_symmetry_space_group_name_H-M	'P1'
_symmetry_Int_Tables_number	1
_symmetry_cell_setting	triclinic
loop_
_symmetry_equiv_pos_as_xyz
  x,y,z
_cell_length_a	12.759395
_cell_length_b	19.805405
_cell_length_c	19.805399
_cell_angle_alpha	89.970699
_cell_angle_beta	89.984838
_cell_angle_gamma	90.026256
loop_
_atom_site_label
_atom_site_type_symbol
_atom_site_fract_x
_atom_site_fract_y
_atom_site_fract_z
Zn1	Zn	1.606139	-0.269482	-0.382632
Zn2	Zn	1.606007	-0.382670	-0.269440
Zn3	Zn	1.430450	-0.269500	-0.269465
Zn4	Zn	1.430394	-0.382634	-0.382596
O5	O	1.518247	-0.326071	-0.326033
O6	O	1.753142	-0.284504	-0.367621
O7	O	1.582687	-0.367681	-0.174727
O8	O	1.453835	-0.174781	-0.284503
O9	O	1.753045	-0.367663	-0.284460
O10	O	1.582912	-0.174768	-0.367646
O11	O	1.453706	-0.284535	-0.174745
O12	O	1.283422	-0.284500	-0.284467
O13	O	1.453738	-0.367601	-0.477317
O14	O	1.283380	-0.367619	-0.367584
O15	O	1.582858	-0.284469	-0.477344
O16	O	1.582632	-0.477382	-0.284425
O17	O	1.453610	-0.477355	-0.367560
C18	C	1.518129	-0.501927	-0.326001
C19	C	1.518175	-0.577159	-0.326009
C20	C	1.245280	-0.326058	-0.326025
C21	C	1.128503	-0.326069	-0.326037
C22	C	1.585422	-0.612495	-0.282766
C23	C	1.585466	-0.683183	-0.282781
C24	C	1.518258	-0.718535	-0.326036
C25	C	1.451008	-0.683194	-0.369284
C26	C	1.450969	-0.612507	-0.369272
C27	C	1.451163	-0.968268	-0.369334
C28	C	1.451204	-1.038960	-0.369341
C29	C	1.585660	-1.038944	-0.282843
C30	C	1.585621	-0.968257	-0.282831
C31	C	1.518376	-0.932922	-0.326081
C32	C	1.518329	-0.856274	-0.326065
C33	C	1.518298	-0.795182	-0.326049
C34	C	1.128585	-0.239615	-0.412773
C35	C	1.073765	-0.196396	-0.456147
C36	C	0.964043	-0.196408	-0.456155
C37	C	0.909139	-0.239642	-0.412784
C38	C	0.963959	-0.282861	-0.369411
C39	C	1.073683	-0.282846	-0.369408
C40	C	0.963877	-0.369310	-0.282672
C41	C	1.073599	-0.369302	-0.282666
C42	C	0.908973	-0.412544	-0.239301
C43	C	0.963793	-0.455767	-0.195930
C44	C	1.073521	-0.455753	-0.195924
C45	C	1.128419	-0.412521	-0.239293
C46	C	1.792281	-0.326085	-0.326042
C47	C	1.909057	-0.326091	-0.326046
C48	C	1.518306	-0.326029	-0.502576
C49	C	1.518331	-0.326011	-0.577808
C50	C	1.518395	-0.149529	-0.326081
C51	C	1.518457	-0.074297	-0.326101
C52	C	1.585565	-0.282721	-0.613167
C53	C	1.585576	-0.282702	-0.683856
C54	C	1.518357	-0.325975	-0.719184
C55	C	1.451116	-0.369266	-0.683820
C56	C	1.451101	-0.369282	-0.613133
C57	C	1.451175	-0.369203	-0.968893
C58	C	1.451198	-0.369186	-1.039585
C59	C	1.585651	-0.282623	-1.039616
C60	C	1.585635	-0.282639	-0.968929
C61	C	1.518391	-0.325927	-0.933571
C62	C	1.518378	-0.325947	-0.856923
C63	C	1.518374	-0.325959	-0.795831
C64	C	1.518249	-0.326065	-0.150177
C65	C	1.518428	-0.325893	-0.074946
H66	H	1.640146	-0.583716	-0.247540
H67	H	1.217760	-0.412503	-0.239289
H68	H	1.118480	-0.161195	-0.491457
H69	H	1.396476	-1.067741	-0.404570
C70	C	0.903740	-0.148867	-0.503868
N71	N	0.858319	-0.113059	-0.539806
C72	C	1.376993	-0.573639	-0.416843
N73	N	1.321274	-0.544364	-0.452677
H74	H	1.396436	-0.404461	-0.940113
C75	C	0.788442	-0.239647	-0.412790
N76	N	0.697532	-0.239652	-0.412795
H77	H	1.640345	-0.939476	-0.247607
H78	H	0.819632	-0.412549	-0.239309
H79	H	1.217926	-0.239598	-0.412768
H80	H	1.396290	-0.711983	-0.404506
C81	C	0.903392	-0.503317	-0.148226
N82	N	0.857893	-0.539134	-0.112296
H83	H	1.396407	-0.939504	-0.404548
H84	H	1.396382	-0.404498	-0.712589
H85	H	1.640225	-0.711950	-0.247568
H86	H	1.396456	-0.404425	-1.068347
H87	H	1.640306	-0.247485	-0.584408
C88	C	1.659577	-0.235032	-0.930072
N89	N	1.715266	-0.199170	-0.900806
H90	H	1.118149	-0.490945	-0.160602
H91	H	1.640419	-1.067721	-0.247630
C92	C	1.659541	-0.235081	-0.722747
N93	N	1.715254	-0.199211	-0.752040
H94	H	1.640401	-0.247373	-1.068413
H95	H	1.396341	-0.404526	-0.584344
