data_functionalizedCrystal
_audit_creation_method	'MofGen! by Chris Wilmer'
_symmetry_space_group_name_H-M	'P1'
_symmetry_Int_Tables_number	1
_symmetry_cell_setting	triclinic
loop_
_symmetry_equiv_pos_as_xyz
  x,y,z
_cell_length_a	17.699083
_cell_length_b	17.699104
_cell_length_c	16.176319
_cell_angle_alpha	90.014162
_cell_angle_beta	89.992278
_cell_angle_gamma	83.287266
loop_
_atom_site_label
_atom_site_type_symbol
_atom_site_fract_x
_atom_site_fract_y
_atom_site_fract_z
O1	O	-1.004075	-0.095720	-0.068632
O2	O	-0.783698	-0.108173	-0.068660
O3	O	-0.900104	0.008241	-0.068638
O4	O	-0.887668	-0.212135	-0.068654
O5	O	-0.900110	0.008266	0.068855
O6	O	-0.783703	-0.108149	0.068834
O7	O	-1.004081	-0.095696	0.068861
Cu8	Cu	-0.893893	-0.101920	0.081401
Cu9	Cu	-0.893886	-0.101949	-0.081200
O10	O	-0.887674	-0.212111	0.068839
C11	C	-0.755503	-0.107715	0.000083
C12	C	-0.671485	-0.106376	0.000073
N13	N	-0.893881	-0.101963	-0.195565
C14	C	-0.899659	0.036450	0.000109
C15	C	-0.898314	0.120467	0.000109
C16	C	-1.032275	-0.096155	0.000116
C17	C	-1.116293	-0.097493	0.000121
C18	C	-0.622869	-0.174709	0.000068
C19	C	-0.543926	-0.173446	0.000079
C20	C	-0.513600	-0.103851	0.000089
C21	C	-0.562222	-0.035513	0.000096
C22	C	-0.641164	-0.036776	0.000091
C23	C	-0.243859	-0.030418	0.000117
C24	C	-0.164911	-0.029160	0.000119
C25	C	-0.146621	-0.167088	0.000105
C26	C	-0.225563	-0.168351	0.000100
C27	C	-0.274178	-0.100014	0.000112
C28	C	-0.359777	-0.101383	0.000102
C29	C	-0.428002	-0.102480	0.000093
C30	C	-0.888120	-0.240319	0.000091
C31	C	-0.889464	-0.324337	0.000085
C32	C	-0.959058	0.645338	0.000093
C33	C	-0.960317	0.566395	0.000101
C34	C	-0.891982	0.517777	0.000094
C35	C	-0.822383	0.548107	0.000088
C36	C	-0.821125	0.627049	0.000087
C37	C	-0.827456	0.229741	0.000096
C38	C	-0.828720	0.150794	0.000095
C39	C	-0.966648	0.169086	0.000110
C40	C	-0.965390	0.248029	0.000108
C41	C	-0.895792	0.278352	0.000107
C42	C	-0.894427	0.363951	0.000100
C43	C	-0.893345	0.432179	0.000095
C44	C	-0.848161	-0.056017	-0.238825
C45	C	-0.848166	-0.056005	-0.325372
C46	C	-0.893889	-0.101943	-0.368658
C47	C	-0.939614	-0.147891	-0.325392
C48	C	-0.939613	-0.147899	-0.238847
C49	C	-0.939624	-0.147861	-0.674420
C50	C	-0.939620	-0.147851	-0.760972
C51	C	-0.848177	-0.055966	-0.760946
C52	C	-0.848175	-0.055974	-0.674401
C53	C	-0.893904	-0.101919	-0.631142
C54	C	-0.893899	-0.101930	-0.537298
C55	C	-0.893890	-0.101936	-0.462501
N56	N	-0.893903	-0.101900	0.195767
H57	H	-0.647554	-0.231382	0.000060
H58	H	-0.810945	-0.018553	-0.796178
Br59	Br	-0.123755	0.065298	0.000130
H60	H	-0.810924	-0.018612	-0.203588
Br61	Br	-0.309827	0.062327	0.000135
H62	H	-0.764455	0.651738	0.000087
H63	H	-1.016987	0.541708	0.000108
H64	H	-0.810938	-0.018588	-0.360591
H65	H	-0.766743	0.508516	0.000088
Br66	Br	-0.521066	0.058940	0.000118
H67	H	-1.014705	0.684918	0.000092
Br68	Br	-0.786116	0.006368	-0.615660
Br69	Br	-0.735973	0.084812	0.000084
Br70	Br	-1.001673	-0.210232	-0.384136
H71	H	-0.680747	0.018868	0.000095
Br72	Br	-1.058134	0.314006	0.000112
H73	H	-1.023319	0.144388	0.000100
Br74	Br	-0.733001	0.270884	0.000088
H75	H	-0.976856	-0.185262	-0.796213
H76	H	-0.976844	-0.185313	-0.203625
Br77	Br	-0.477949	-0.266188	0.000070
Br78	Br	-0.080639	-0.259834	0.000090
Br79	Br	-0.266715	-0.262806	0.000079
Br80	Br	-1.001679	-0.210219	-0.615723
