data_functionalizedCrystal
_audit_creation_method	'MofGen! by Chris Wilmer'
_symmetry_space_group_name_H-M	'P1'
_symmetry_Int_Tables_number	1
_symmetry_cell_setting	triclinic
loop_
_symmetry_equiv_pos_as_xyz
  x,y,z
_cell_length_a	10.654543
_cell_length_b	10.654549
_cell_length_c	9.130313
_cell_angle_alpha	90.002761
_cell_angle_beta	90.000509
_cell_angle_gamma	95.516525
loop_
_atom_site_label
_atom_site_type_symbol
_atom_site_fract_x
_atom_site_fract_y
_atom_site_fract_z
O1	O	-0.176394	1.667836	0.121755
O2	O	0.323606	2.167836	0.621755
O3	O	-0.193201	1.302357	0.121764
O4	O	0.306799	1.802357	0.621764
O5	O	-0.002058	1.493504	0.121762
O6	O	0.497942	1.993504	0.621762
O7	O	-0.367537	1.476689	0.121756
O8	O	0.132463	1.976689	0.621756
O9	O	-0.002058	1.493490	-0.121837
O10	O	0.497942	1.993490	0.378163
O11	O	-0.193201	1.302343	-0.121835
O12	O	0.306799	1.802343	0.378165
O13	O	-0.176394	1.667822	-0.121844
O14	O	0.323606	2.167822	0.378156
Cu15	Cu	-0.184798	1.485081	-0.144082
Cu16	Cu	0.315202	1.985081	0.355918
Cu17	Cu	-0.184798	1.485098	0.144002
Cu18	Cu	0.315202	1.985098	0.644002
O19	O	-0.367537	1.476675	-0.121843
O20	O	0.132463	1.976675	0.378157
C21	C	-0.191967	1.255552	-0.000035
C22	C	0.308033	1.755552	0.499965
C23	C	-0.188275	1.116109	-0.000031
C24	C	0.311725	1.616109	0.499969
C25	C	0.044740	1.492264	-0.000033
C26	C	0.544740	1.992264	0.499967
C27	C	0.184184	1.488575	-0.000021
C28	C	0.684184	1.988575	0.499979
C29	C	0.263670	1.601119	-0.000018
C30	C	0.763670	2.101119	0.499982
C31	C	0.394691	1.597646	0.000009
C32	C	0.894691	2.097646	0.500009
C33	C	0.366728	1.369075	0.000023
C34	C	0.866728	1.869075	0.500023
C35	C	0.235709	1.372550	0.000007
C36	C	0.735709	1.872550	0.500007
C37	C	-0.177628	1.714627	-0.000043
C38	C	0.322372	2.214627	0.499957
C39	C	-0.181320	1.854070	-0.000037
C40	C	0.318680	2.354070	0.499963
C41	C	0.585665	1.477921	-0.000027
C42	C	1.085665	1.977921	0.499973
C43	C	0.446224	1.481628	0.000022
C44	C	0.946224	1.981628	0.500022
N45	N	-0.184797	1.485078	-0.346705
N46	N	0.315203	1.985078	0.153295
C47	C	-0.072256	2.064587	-0.000031
C48	C	0.427744	2.564587	0.499969
C49	C	-0.068778	1.933567	-0.000029
C50	C	0.431222	2.433567	0.499971
C51	C	-0.297348	1.905600	-0.000032
C52	C	0.202652	2.405600	0.499968
C53	C	-0.300825	2.036618	-0.000023
C54	C	0.199175	2.536618	0.499977
C55	C	-0.261679	1.561907	-0.423355
C56	C	0.238321	2.061907	0.076645
C57	C	-0.261672	1.561927	-0.576691
C58	C	0.238328	2.061927	-0.076691
C59	C	-0.107897	1.408278	-0.576715
C60	C	0.392103	1.908278	-0.076715
C61	C	-0.107899	1.408266	-0.423381
C62	C	0.392101	1.908266	0.076619
N63	N	-0.184788	1.485111	0.346624
N64	N	0.315212	1.985111	0.846624
H65	H	0.221723	1.695594	-0.000038
H66	H	0.721723	2.195594	0.499962
Cl67	Cl	-0.011241	1.311710	-0.673119
Cl68	Cl	0.488759	1.811710	-0.173119
Cl69	Cl	-0.011241	1.311669	-0.327014
Cl70	Cl	0.488759	1.811669	0.172986
Cl71	Cl	-0.358340	1.658481	-0.326967
Cl72	Cl	0.141660	2.158481	0.173033
H73	H	0.459404	1.689290	0.000014
H74	H	0.959404	2.189290	0.500014
H75	H	0.408696	1.274611	0.000044
H76	H	0.908696	1.774611	0.500044
Cl77	Cl	-0.446690	2.101393	-0.000011
Cl78	Cl	0.053310	2.601393	0.499989
H79	H	0.170988	1.280898	0.000009
H80	H	0.670988	1.780898	0.500009
H81	H	-0.388982	1.840863	-0.000028
H82	H	0.111018	2.340863	0.499972
Cl83	Cl	0.069235	2.164514	-0.000031
Cl84	Cl	0.569235	2.664514	0.499969
Cl85	Cl	0.077081	1.868803	-0.000016
Cl86	Cl	0.577081	2.368803	0.499984
Cl87	Cl	-0.358327	1.658519	-0.673045
Cl88	Cl	0.141673	2.158519	-0.173045
