data_functionalizedCrystal
_audit_creation_method	'MofGen! by Chris Wilmer'
_symmetry_space_group_name_H-M	'P1'
_symmetry_Int_Tables_number	1
_symmetry_cell_setting	triclinic
loop_
_symmetry_equiv_pos_as_xyz
  x,y,z
_cell_length_a	9.065215
_cell_length_b	9.065218
_cell_length_c	8.140239
_cell_angle_alpha	90.002802
_cell_angle_beta	89.997429
_cell_angle_gamma	94.984709
loop_
_atom_site_label
_atom_site_type_symbol
_atom_site_fract_x
_atom_site_fract_y
_atom_site_fract_z
O1	O	0.216355	-1.960396	-0.136614
O2	O	0.549688	-1.627062	0.196719
O3	O	0.883021	-1.293729	0.530053
O4	O	0.234101	-1.531111	-0.136616
O5	O	0.567435	-1.197777	0.196717
O6	O	0.900768	-0.864444	0.530051
O7	O	0.010585	-1.754629	-0.136608
O8	O	0.343919	-1.421295	0.196725
O9	O	0.677252	-1.087962	0.530059
O10	O	0.439871	-1.736878	-0.136622
O11	O	0.773204	-1.403544	0.196711
O12	O	1.106537	-1.070211	0.530045
O13	O	0.010583	-1.754616	0.136619
O14	O	0.343916	-1.421283	0.469952
O15	O	0.677249	-1.087950	0.803286
O16	O	0.234099	-1.531098	0.136611
O17	O	0.567432	-1.197765	0.469944
O18	O	0.900765	-0.864432	0.803278
O19	O	0.216352	-1.960383	0.136613
O20	O	0.549685	-1.627050	0.469946
O21	O	0.883019	-1.293717	0.803280
Zn22	Zn	0.225225	-1.745739	0.179993
Zn23	Zn	0.558558	-1.412405	0.513326
Zn24	Zn	0.891892	-1.079072	0.846659
Zn25	Zn	0.225228	-1.745755	-0.179996
Zn26	Zn	0.558562	-1.412422	0.153338
Zn27	Zn	0.891895	-1.079089	0.486671
O28	O	0.439868	-1.736865	0.136605
O29	O	0.773201	-1.403532	0.469938
O30	O	1.106535	-1.070199	0.803272
C31	C	0.232394	-1.476118	-0.000003
C32	C	0.565728	-1.142785	0.333331
C33	C	0.899061	-0.809451	0.666664
C34	C	0.227295	-1.312275	-0.000004
C35	C	0.560628	-0.978942	0.333330
C36	C	0.893961	-0.645608	0.666663
N37	N	0.225222	-1.745738	0.425675
N38	N	0.558555	-1.412405	0.759009
N39	N	0.891888	-1.079072	1.092342
C40	C	-0.044403	-1.752917	0.000004
C41	C	0.288931	-1.419584	0.333337
C42	C	0.622264	-1.086251	0.666671
C43	C	-0.208246	-1.747819	-0.000001
C44	C	0.125088	-1.414486	0.333332
C45	C	0.458421	-1.081153	0.666665
C46	C	0.494856	-1.738576	-0.000011
C47	C	0.828189	-1.405243	0.333323
C48	C	1.161523	-1.071910	0.666656
C49	C	0.658699	-1.743674	-0.000016
C50	C	0.992033	-1.410341	0.333317
C51	C	1.325366	-1.077008	0.666650
C52	C	0.218059	-2.015376	-0.000004
C53	C	0.551392	-1.682043	0.333329
C54	C	0.884726	-1.348709	0.666663
C55	C	0.223159	-2.179219	-0.000014
C56	C	0.556492	-1.845886	0.333319
C57	C	0.889825	-1.512552	0.666653
N58	N	0.225220	-1.745767	-0.425678
N59	N	0.558554	-1.412434	-0.092345
N60	N	0.891887	-1.079101	0.240988
