data_functionalizedCrystal
_audit_creation_method	'MofGen! by Chris Wilmer'
_symmetry_space_group_name_H-M	'P1'
_symmetry_Int_Tables_number	1
_symmetry_cell_setting	triclinic
loop_
_symmetry_equiv_pos_as_xyz
  x,y,z
_cell_length_a	17.019282
_cell_length_b	15.500215
_cell_length_c	11.792241
_cell_angle_alpha	93.165578
_cell_angle_beta	83.790279
_cell_angle_gamma	89.309895
loop_
_atom_site_label
_atom_site_type_symbol
_atom_site_fract_x
_atom_site_fract_y
_atom_site_fract_z
O1	O	1.047020	-0.006088	0.144117
O2	O	1.547020	0.493912	0.644117
O3	O	0.818214	0.010966	0.163688
O4	O	1.318214	0.510966	0.663688
O5	O	0.938169	0.002019	-0.011354
O6	O	1.438169	0.502019	0.488646
O7	O	0.927065	0.002859	0.319159
O8	O	1.427065	0.502859	0.819159
O9	O	0.931599	-0.141381	-0.020728
O10	O	1.431599	0.358619	0.479272
O11	O	0.811643	-0.132434	0.154314
O12	O	1.311643	0.367566	0.654314
O13	O	1.040450	-0.149488	0.134744
O14	O	1.540450	0.350512	0.634744
Cu15	Cu	0.925446	-0.154054	0.143673
Cu16	Cu	1.425446	0.345946	0.643673
Cu17	Cu	0.933217	0.015533	0.154758
Cu18	Cu	1.433217	0.515533	0.654758
O19	O	0.920494	-0.140541	0.309785
O20	O	1.420494	0.359459	0.809785
C21	C	0.785636	-0.058550	0.158446
C22	C	1.285636	0.441450	0.658446
C23	C	0.698355	-0.052045	0.156781
C24	C	1.198355	0.447955	0.656781
C25	C	0.653773	-0.127158	0.150886
C26	C	1.153773	0.372842	0.650886
C27	C	0.571764	-0.121048	0.149303
C28	C	1.071764	0.378952	0.649303
C29	C	0.534338	-0.039824	0.153624
C30	C	1.034338	0.460176	0.653624
C31	C	0.578926	0.035295	0.159516
C32	C	1.078926	0.535295	0.659516
C33	C	0.660934	0.029184	0.161090
C34	C	1.160934	0.529184	0.661090
C35	C	0.286906	-0.017462	0.149117
C36	C	0.786906	0.482538	0.649117
C37	C	0.204891	-0.011356	0.147545
C38	C	0.704891	0.488644	0.647545
C39	C	0.197735	-0.167700	0.137331
C40	C	0.697735	0.332300	0.637331
C41	C	0.279744	-0.173803	0.138913
C42	C	0.779744	0.326197	0.638913
C43	C	0.324326	-0.098685	0.144799
C44	C	0.824326	0.401315	0.644799
C45	C	0.450511	-0.033576	0.152009
C46	C	0.950511	0.466424	0.652009
C47	C	0.408152	-0.104933	0.146405
C48	C	0.908152	0.395067	0.646405
N49	N	0.919987	-0.273333	0.135875
N50	N	1.419987	0.226667	0.635875
C51	C	0.965893	-0.322025	0.201490
C52	C	1.465893	0.177975	0.701490
C53	C	0.961774	-0.412292	0.195586
C54	C	1.461774	0.087708	0.695586
C55	C	0.911745	-0.453864	0.124071
C56	C	1.411745	0.046136	0.624071
C57	C	0.865837	-0.405165	0.058448
C58	C	1.365837	0.094835	0.558448
C59	C	0.869960	-0.314901	0.064347
C60	C	1.369960	0.185099	0.564347
C61	C	0.896899	-0.726226	0.102824
C62	C	1.396899	-0.226226	0.602824
C63	C	0.892777	-0.816497	0.096932
C64	C	1.392777	-0.316497	0.596932
C65	C	0.988716	-0.823617	0.234068
C66	C	1.488716	-0.323617	0.734068
C67	C	0.992831	-0.733351	0.239966
C68	C	1.492831	-0.233351	0.739966
C69	C	0.946927	-0.684660	0.174339
C70	C	1.446927	-0.184660	0.674339
C71	C	0.907532	-0.546130	0.118037
C72	C	1.407532	-0.046130	0.618037
C73	C	0.951144	-0.592396	0.180368
C74	C	1.451144	-0.092396	0.680368
C75	C	1.073027	-0.079970	0.139985
C76	C	1.573027	0.420030	0.639985
C77	C	1.160309	-0.086469	0.141650
C78	C	1.660309	0.413531	0.641650
C79	C	0.934187	-0.069629	-0.058321
C80	C	1.434187	0.430371	0.441679
C81	C	0.932099	-0.069472	-0.184303
C82	C	1.432099	0.430528	0.315697
N83	N	0.938683	0.134811	0.162547
N84	N	1.438683	0.634811	0.662547
C85	C	0.928260	-0.069171	-0.414955
C86	C	1.428260	0.430829	0.085045
C87	C	0.930393	-0.069338	-0.286603
C88	C	1.430393	0.430662	0.213397
C89	C	0.924477	-0.068891	0.356753
C90	C	1.424477	0.431109	0.856753
C91	C	0.926565	-0.069042	0.482734
C92	C	1.426565	0.430958	0.982734
H93	H	0.161428	-0.228857	0.132537
H94	H	0.661428	0.271143	0.632537
H95	H	0.684238	-0.193299	0.147378
H96	H	1.184238	0.306701	0.647378
H97	H	1.033573	-0.699509	0.298198
H98	H	1.533573	-0.199509	0.798198
H99	H	0.323195	0.043705	0.153906
H100	H	0.823195	0.543705	0.653906
H101	H	0.991881	-0.558544	0.238591
H102	H	1.491881	-0.058544	0.738591
Cl103	Cl	0.531880	0.137405	0.164905
Cl104	Cl	1.031880	0.637405	0.664905
Cl105	Cl	1.046423	-0.884833	0.316563
Cl106	Cl	1.546423	-0.384833	0.816563
Cl107	Cl	0.829879	-0.868758	0.007019
Cl108	Cl	1.329879	-0.368758	0.507019
Cl109	Cl	0.716981	0.123616	0.168496
Cl110	Cl	1.216981	0.623616	0.668496
Cl111	Cl	1.028790	-0.269772	0.291401
Cl112	Cl	1.528790	0.230228	0.791401
Cl113	Cl	0.455203	-0.207040	0.140970
Cl114	Cl	0.955203	0.292960	0.640970
H115	H	0.535470	-0.182213	0.144484
H116	H	1.035470	0.317787	0.644484
H117	H	0.174422	0.054789	0.151067
H118	H	0.674422	0.554789	0.651067
Cl119	Cl	0.844633	-0.598400	0.028144
Cl120	Cl	1.344633	-0.098400	0.528144
Cl121	Cl	0.326787	-0.275918	0.133489
Cl122	Cl	0.826787	0.224082	0.633489
H123	H	0.825105	-0.439021	0.000214
H124	H	1.325105	0.060979	0.500214
H125	H	0.420030	0.032557	0.155526
H126	H	0.920030	0.532557	0.655526
Cl127	Cl	0.812255	-0.253688	-0.018156
Cl128	Cl	1.312255	0.246312	0.481844
H129	H	0.999158	-0.451933	0.249015
H130	H	1.499158	0.048067	0.749015
Cl131	Cl	0.839158	-0.665025	0.020365
Cl132	Cl	1.339158	-0.165025	0.520365
