data_functionalizedCrystal
_audit_creation_method	'MofGen! by Chris Wilmer'
_symmetry_space_group_name_H-M	'P1'
_symmetry_Int_Tables_number	1
_symmetry_cell_setting	triclinic
loop_
_symmetry_equiv_pos_as_xyz
  x,y,z
_cell_length_a	31.640172
_cell_length_b	14.395555
_cell_length_c	14.395555
_cell_angle_alpha	60.000749
_cell_angle_beta	90.004893
_cell_angle_gamma	59.999894
loop_
_atom_site_label
_atom_site_type_symbol
_atom_site_fract_x
_atom_site_fract_y
_atom_site_fract_z
Zr1	Zr	0.407196	1.016674	-0.121799
O2	O	0.339710	1.210481	-0.270145
O3	O	0.427883	0.822874	-0.076321
O4	O	0.427886	1.016661	-0.270117
O5	O	0.339706	1.016701	0.076518
O6	O	0.497443	1.016642	-0.270096
O7	O	0.339706	1.016694	-0.076349
O8	O	0.497437	0.669992	0.076569
O9	O	0.339712	1.363351	-0.270148
O10	O	0.488617	0.902569	-0.056912
O11	O	0.436707	0.902589	0.057156
O12	O	0.436711	1.130748	-0.171014
O13	O	0.384801	1.130768	-0.056946
Zr14	Zr	0.518131	1.016654	0.122039
Zr15	Zr	0.518132	1.016643	-0.121766
Zr16	Zr	0.407195	1.016685	0.122007
Zr17	Zr	0.407200	1.260483	-0.121803
Zr18	Zr	0.518128	0.772845	0.122043
O19	O	0.497444	1.210453	0.076561
O20	O	0.497446	1.210438	-0.270099
O21	O	0.339709	1.210497	0.076515
O22	O	0.585617	0.822846	0.270386
O23	O	0.585619	0.822830	-0.076275
O24	O	0.427882	0.822890	0.270339
O25	O	0.585621	1.016626	-0.076277
O26	O	0.497441	1.016666	0.270357
O27	O	0.427884	1.016686	0.270336
O28	O	0.585621	1.016633	0.076590
O29	O	0.427891	1.363327	-0.270122
O30	O	0.497436	0.670001	0.270362
O31	O	0.585615	0.669977	0.270388
O32	O	0.585616	0.669968	0.076595
O33	O	0.339711	1.363360	-0.076355
O34	O	0.427890	1.363335	-0.076329
O35	O	0.488616	0.902580	0.171254
O36	O	0.540526	0.902560	0.057186
O37	O	0.488620	1.130739	-0.056916
O38	O	0.436710	1.130758	0.057152
C39	C	0.462659	0.711696	0.000125
C40	C	0.462658	0.608192	0.000126
C41	C	0.323900	1.016702	0.000079
C42	C	0.276805	1.016715	0.000066
C43	C	0.434356	0.547610	0.062325
C44	C	0.413844	0.561868	-0.044956
C45	C	0.483157	0.409539	0.107375
C46	C	0.442118	0.623876	-0.107218
C47	C	0.511458	0.471484	0.045190
C48	C	0.490958	0.485788	-0.062155
C49	C	0.011894	0.897544	0.059703
C50	C	-0.165091	0.897522	0.059726
O51	O	-0.164934	0.796225	0.110421
N52	N	-0.214316	1.016628	0.000164
C53	C	-0.219293	1.135748	-0.059401
O54	O	-0.265222	1.237055	-0.110052
C55	C	-0.042308	1.135769	-0.059416
C56	C	0.006916	1.016655	0.000140
C57	C	0.061115	0.778440	0.119255
C58	C	0.105359	0.778447	0.119244
C59	C	0.100380	0.897558	0.059680
C60	C	0.051159	1.016662	0.000128
C61	C	-0.047286	1.254888	-0.118974
C62	C	-0.003034	1.254883	-0.118970
C63	C	0.046189	1.135769	-0.059414
C64	C	0.090424	1.135780	-0.059446
N65	N	0.139648	1.016674	0.000115
C66	C	0.144626	0.897563	0.059679
C67	C	-0.312210	1.135728	-0.059391
C68	C	-0.356456	1.135723	-0.059389
C69	C	-0.302252	0.897496	0.059740
C70	C	-0.258005	0.897503	0.059731
C71	C	-0.262986	1.016622	0.000171
C72	C	0.237539	0.897587	0.059650
C73	C	0.281783	0.897604	0.059629
C74	C	0.227575	1.135830	-0.059494
C75	C	0.183334	1.135814	-0.059479
C76	C	0.188319	1.016681	0.000101
O77	O	0.090306	1.237024	-0.110104
O78	O	0.190560	0.796272	0.110342
C79	C	-0.032350	0.897538	0.059714
C80	C	-0.081571	1.016642	0.000162
C81	C	-0.086549	1.135753	-0.059401
C82	C	-0.125817	1.016637	0.000164
C83	C	-0.120839	0.897526	0.059728
C84	C	-0.071615	0.778420	0.119289
C85	C	-0.027371	0.778426	0.119278
C86	C	-0.135773	1.254859	-0.118963
C87	C	-0.180015	1.254842	-0.118947
C88	C	-0.175036	1.135731	-0.059384
C89	C	0.601427	1.016625	0.000161
C90	C	0.648522	1.016612	0.000175
C91	C	0.462665	1.016650	-0.304843
C92	C	0.462665	1.016645	-0.408345
C93	C	0.462668	1.321632	0.000116
C94	C	0.462669	1.425135	0.000114
C95	C	0.490969	0.892232	-0.406721
C96	C	0.442160	0.954436	-0.499758
C97	C	0.511462	0.954446	-0.499737
C98	C	0.413827	1.078850	-0.500019
C99	C	0.483165	1.078842	-0.499984
C100	C	0.434326	1.141137	-0.593038
C101	C	0.462663	1.016678	0.305084
C102	C	0.462662	1.016682	0.408586
C103	C	0.601423	0.711657	0.000165
C104	C	0.648516	0.608141	0.000181
C105	C	0.462658	0.711709	0.305088
C106	C	0.462657	0.608211	0.408592
C107	C	0.601422	0.711671	0.305129
C108	C	0.648515	0.608159	0.408646
C109	C	0.323905	1.321657	-0.304889
C110	C	0.276812	1.425168	-0.408406
C111	C	0.323904	1.321670	0.000075
C112	C	0.276811	1.425187	0.000060
C113	C	0.462669	1.321618	-0.304848
C114	C	0.462671	1.425117	-0.408351
C115	C	0.643536	0.559533	-0.059380
C116	C	0.687781	0.462282	-0.059389
C117	C	0.737006	0.413633	0.000171
C118	C	0.741986	0.462251	0.059734
C119	C	0.697741	0.559507	0.059735
C120	C	0.697732	0.559539	0.397717
C121	C	0.741985	0.462292	0.494973
C122	C	0.737021	0.413661	0.603157
C123	C	0.687799	0.462291	0.614084
C124	C	0.643546	0.559542	0.516829
C125	C	0.227596	1.473801	-0.397476
C126	C	0.183342	1.571078	-0.494732
C127	C	0.188307	1.619714	-0.602917
C128	C	0.237528	1.571078	-0.613844
C129	C	0.281781	1.473809	-0.516589
C130	C	0.281791	1.473805	0.059610
C131	C	0.237546	1.571083	0.059592
C132	C	0.188321	1.619735	0.000028
C133	C	0.183342	1.571113	-0.059530
C134	C	0.227586	1.473843	-0.059517
C135	C	0.434351	0.547634	0.406970
C136	C	0.483161	0.409523	0.500004
C137	C	0.413861	0.561875	0.499989
C138	C	0.511495	0.471400	0.500263
C139	C	0.442159	0.623826	0.500233
C140	C	0.490998	0.485725	0.593285
H141	H	0.410390	0.574845	0.114845
H142	H	0.321864	0.800603	0.108130
C143	C	0.589392	0.613035	-0.124913
N144	N	0.548612	0.653334	-0.174283
C145	C	-0.234160	1.385887	-0.184471
N146	N	-0.274940	1.484587	-0.233813
H147	H	0.603474	0.599117	0.525744
C148	C	0.785672	0.306639	0.000168
N149	N	0.822325	0.226047	0.000166
C150	C	0.222109	1.266846	-0.125009
N151	N	0.217993	1.365528	-0.174349
C152	C	0.796138	0.408713	0.125255
N153	N	0.836928	0.368378	0.174613
H154	H	0.372539	1.131402	-0.499210
C155	C	0.242981	1.624580	-0.732858
N156	N	0.247086	1.664872	-0.822503
C157	C	0.506575	0.285781	0.229913
N158	N	0.524210	0.192574	0.322210
C159	C	0.335935	1.420312	0.125134
N160	N	0.376715	1.380034	0.174483
H161	H	0.152269	1.698916	-0.682099
H162	H	0.372594	0.599059	0.500892
H163	H	0.683764	0.422681	0.702181
H164	H	0.410453	0.574721	0.327205
C165	C	0.335918	1.420309	-0.528631
N166	N	0.376694	1.380015	-0.537709
C167	C	0.129189	1.624626	-0.125027
N168	N	0.088400	1.664925	-0.174348
C169	C	0.418730	0.883414	-0.501024
N170	N	0.401086	0.829912	-0.501970
C171	C	0.129203	1.624557	-0.482687
N172	N	0.088427	1.664835	-0.473611
C173	C	0.682292	0.408809	-0.124903
N174	N	0.678156	0.368533	-0.174246
C175	C	0.139655	1.726729	0.000032
N176	N	0.103002	1.807313	0.000043
H177	H	0.241611	1.610654	0.108096
H178	H	0.223544	1.434206	-0.309396
C179	C	0.567273	0.420884	0.499164
N180	N	0.609284	0.382837	0.498331
C181	C	0.703228	0.612952	0.125274
N182	N	0.707365	0.653200	0.174643
C183	C	0.523288	0.449368	-0.133320
N184	N	0.547636	0.421938	-0.186927
H185	H	0.552714	0.434308	0.083343
H186	H	0.241605	0.800578	0.108167
C187	C	0.506586	0.285736	0.501274
N188	N	0.524226	0.192505	0.502226
H189	H	-0.217928	0.800510	0.108236
H190	H	0.410356	1.246426	-0.672675
C191	C	0.796124	0.408805	0.482927
N192	N	0.836900	0.368518	0.473851
C193	C	0.785705	0.306671	0.710130
N194	N	0.822376	0.226081	0.790699
H195	H	0.372579	0.599063	-0.083083
H196	H	0.424737	0.715442	-0.197964
H197	H	0.145435	0.681452	0.167736
H198	H	0.223524	1.434261	-0.108008
C199	C	0.567215	0.883371	-0.500940
N200	N	0.609209	0.829829	-0.501839
H201	H	0.701784	0.599120	0.309636
H202	H	0.012705	0.681431	0.167777
H203	H	0.514864	0.787032	-0.326952
H204	H	0.424804	0.715485	0.499241
C205	C	0.066603	0.647397	0.184773
N206	N	0.070741	0.548686	0.234115
C207	C	-0.101425	1.385926	-0.184488
N208	N	-0.142203	1.484631	-0.233835
H209	H	0.514970	0.458692	0.672920
H210	H	-0.298205	0.800511	0.108232
H211	H	-0.396533	1.232718	-0.107900
C212	C	-0.008519	1.385928	-0.184497
N213	N	-0.012651	1.484630	-0.233856
H214	H	0.500519	1.131370	-0.499004
H215	H	-0.316274	1.232735	-0.107899
H216	H	0.143253	1.232806	-0.107989
H217	H	-0.067568	0.681435	0.167781
H218	H	-0.139835	1.351856	-0.167469
