data_functionalizedCrystal
_audit_creation_method	'MofGen! by Chris Wilmer'
_symmetry_space_group_name_H-M	'P1'
_symmetry_Int_Tables_number	1
_symmetry_cell_setting	triclinic
loop_
_symmetry_equiv_pos_as_xyz
  x,y,z
_cell_length_a	19.188930
_cell_length_b	14.044220
_cell_length_c	13.101039
_cell_angle_alpha	86.332523
_cell_angle_beta	86.639939
_cell_angle_gamma	91.833172
loop_
_atom_site_label
_atom_site_type_symbol
_atom_site_fract_x
_atom_site_fract_y
_atom_site_fract_z
O1	O	0.937307	-0.113041	-0.085551
O2	O	1.270641	0.220292	0.247783
O3	O	1.603974	0.553625	0.581116
O4	O	0.735021	-0.128972	-0.085481
O5	O	1.068354	0.204361	0.247852
O6	O	1.401688	0.537695	0.581185
O7	O	0.833127	0.016965	-0.085505
O8	O	1.166461	0.350298	0.247829
O9	O	1.499794	0.683631	0.581162
O10	O	0.839201	-0.258978	-0.085527
O11	O	1.172534	0.074355	0.247806
O12	O	1.505868	0.407689	0.581140
O13	O	0.826089	0.006477	0.084927
O14	O	1.159423	0.339810	0.418260
O15	O	1.492756	0.673143	0.751593
O16	O	0.727983	-0.139460	0.084950
O17	O	1.061316	0.193873	0.418284
O18	O	1.394650	0.527207	0.751617
O19	O	0.930269	-0.123529	0.084881
O20	O	1.263603	0.209804	0.418214
O21	O	1.596936	0.543137	0.751548
Zn22	Zn	0.828009	-0.133160	0.111975
Zn23	Zn	1.161342	0.200174	0.445309
Zn24	Zn	1.494675	0.533507	0.778642
Zn25	Zn	0.837282	-0.119341	-0.112576
Zn26	Zn	1.170615	0.213992	0.220758
Zn27	Zn	1.503948	0.547325	0.554091
O28	O	0.832163	-0.269466	0.084904
O29	O	1.165496	0.063867	0.418238
O30	O	1.498830	0.397201	0.751571
C31	C	0.705457	-0.133701	-0.000256
C32	C	1.038791	0.199633	0.333077
C33	C	1.372124	0.532966	0.666410
C34	C	0.627852	-0.132154	-0.000229
C35	C	0.961185	0.201179	0.333104
C36	C	1.294518	0.534513	0.666437
N37	N	0.821685	-0.142590	0.265225
N38	N	1.155019	0.190743	0.598559
N39	N	1.488352	0.524077	0.931892
C40	C	0.826950	0.047024	-0.000288
C41	C	1.160284	0.380357	0.333046
C42	C	1.493617	0.713691	0.666379
C43	C	0.819021	0.152217	-0.000284
C44	C	1.152355	0.485550	0.333050
C45	C	1.485688	0.818883	0.666383
C46	C	0.588454	-0.217783	-0.000252
C47	C	0.921788	0.115551	0.333081
C48	C	1.255121	0.448884	0.666414
C49	C	0.515537	-0.216328	-0.000263
C50	C	0.848871	0.117006	0.333070
C51	C	1.182204	0.450339	0.666403
C52	C	0.482021	-0.129238	-0.000272
C53	C	0.815354	0.204096	0.333061
C54	C	1.148688	0.537429	0.666394
C55	C	0.521427	-0.043598	-0.000243
C56	C	0.854761	0.289735	0.333090
C57	C	1.188094	0.623069	0.666423
C58	C	0.594343	-0.045056	-0.000222
C59	C	0.927676	0.288277	0.333111
C60	C	1.261009	0.621610	0.666445
N61	N	0.372142	-0.059097	-0.058313
N62	N	0.705475	0.274236	0.275020
N63	N	1.038809	0.607570	0.608353
N64	N	0.302875	-0.057717	-0.058336
N65	N	0.636209	0.275616	0.274997
N66	N	0.969542	0.608949	0.608331
C67	C	0.262331	-0.124839	-0.000335
C68	C	0.595665	0.208495	0.332999
C69	C	0.928998	0.541828	0.666332
N70	N	0.293671	-0.193406	0.057677
N71	N	0.627004	0.139928	0.391011
N72	N	0.960338	0.473261	0.724344
N73	N	0.362944	-0.194788	0.057695
N74	N	0.696277	0.138546	0.391029
N75	N	1.029611	0.471879	0.724362
C76	C	0.402957	-0.127647	-0.000295
C77	C	0.736290	0.205687	0.333039
C78	C	1.069624	0.539020	0.666372
C79	C	0.143869	-0.208896	-0.000368
C80	C	0.477202	0.124438	0.332965
C81	C	0.810535	0.457771	0.666299
C82	C	0.070950	-0.207437	-0.000373
C83	C	0.404283	0.125896	0.332960
C84	C	0.737617	0.459230	0.666294
C85	C	0.076842	-0.034705	-0.000363
C86	C	0.410175	0.298629	0.332970
C87	C	0.743509	0.631962	0.666303
C88	C	0.149759	-0.036166	-0.000348
C89	C	0.483092	0.297167	0.332985
C90	C	0.816425	0.630501	0.666319
C91	C	0.183268	-0.123264	-0.000355
C92	C	0.516601	0.210069	0.332978
C93	C	0.849935	0.543403	0.666311
C94	C	0.959833	-0.118800	-0.000346
C95	C	1.293166	0.214533	0.332987
C96	C	1.626500	0.547866	0.666320
C97	C	1.037439	-0.120346	-0.000380
C98	C	1.370772	0.212987	0.332953
C99	C	1.704106	0.546320	0.666287
C100	C	0.838340	-0.299525	-0.000315
C101	C	1.171673	0.033808	0.333018
C102	C	1.505007	0.367142	0.666352
C103	C	0.846269	-0.404717	-0.000326
C104	C	1.179603	-0.071384	0.333008
C105	C	1.512936	0.261949	0.666341
C106	C	0.804526	0.344819	-0.000293
C107	C	1.137859	0.678152	0.333040
C108	C	1.471193	1.011485	0.666373
C109	C	0.860762	0.402686	-0.000316
C110	C	1.194095	0.736020	0.333017
C111	C	1.527428	1.069353	0.666351
C112	C	0.852696	0.509857	-0.000321
C113	C	1.186030	0.843190	0.333012
C114	C	1.519363	1.176523	0.666345
C115	C	0.812590	0.237638	-0.000288
C116	C	1.145924	0.570972	0.333045
C117	C	1.479257	0.904305	0.666379
N118	N	0.843610	-0.109904	-0.265826
N119	N	1.176943	0.223430	0.067508
N120	N	1.510277	0.556763	0.400841
C121	C	0.813083	-0.155429	0.474270
C122	C	1.146416	0.177905	0.807603
C123	C	1.479749	0.511238	1.140937
C124	C	0.852211	-0.097068	0.525136
C125	C	1.185544	0.236265	0.858470
C126	C	1.518877	0.569599	1.191803
C127	C	0.847424	-0.104212	0.641456
C128	C	1.180757	0.229122	0.974789
C129	C	1.514091	0.562455	1.308123
C130	C	0.817868	-0.148286	0.357940
C131	C	1.151202	0.185047	0.691273
C132	C	1.484535	0.518380	1.024607
H133	H	0.615733	-0.288704	-0.000260
H134	H	0.949066	0.044629	0.333073
H135	H	1.282400	0.377962	0.666406
H136	H	0.038873	-0.277170	-0.000386
H137	H	0.372207	0.056164	0.332948
H138	H	0.705540	0.389497	0.666281
H139	H	0.626420	0.024675	-0.000204
H140	H	0.959753	0.358008	0.333130
H141	H	1.293087	0.691342	0.666463
Br142	Br	0.462058	-0.332546	-0.000289
Br143	Br	0.795391	0.000787	0.333045
Br144	Br	1.128725	0.334121	0.666378
H145	H	0.171153	-0.279817	-0.000359
H146	H	0.504486	0.053517	0.332974
H147	H	0.837819	0.386850	0.666308
Br148	Br	0.914356	-0.005248	0.452122
Br149	Br	1.247689	0.328086	0.785455
Br150	Br	1.581022	0.661419	1.118788
Br151	Br	0.751262	-0.247645	0.547285
Br152	Br	1.084595	0.085688	0.880618
Br153	Br	1.417928	0.419022	1.213951
H154	H	0.914967	0.371745	-0.000403
H155	H	1.248300	0.705079	0.332930
H156	H	1.581633	1.038412	0.666263
H157	H	0.049557	0.036210	-0.000434
H158	H	0.382890	0.369543	0.332900
H159	H	0.716223	0.702876	0.666233
Br160	Br	0.203231	0.080051	-0.000319
Br161	Br	0.536564	0.413384	0.333014
Br162	Br	0.869897	0.746718	0.666347
Br163	Br	0.475943	0.074596	-0.000245
Br164	Br	0.809276	0.407929	0.333089
Br165	Br	1.142609	0.741262	0.666422
H166	H	0.750328	0.375762	-0.000277
H167	H	1.083662	0.709096	0.333056
H168	H	1.416995	1.042429	0.666389
