data_functionalizedCrystal
_audit_creation_method	'MofGen! by Chris Wilmer'
_symmetry_space_group_name_H-M	'P1'
_symmetry_Int_Tables_number	1
_symmetry_cell_setting	triclinic
loop_
_symmetry_equiv_pos_as_xyz
  x,y,z
_cell_length_a	12.784890
_cell_length_b	12.837942
_cell_length_c	16.053802
_cell_angle_alpha	92.838962
_cell_angle_beta	87.691149
_cell_angle_gamma	83.967749
loop_
_atom_site_label
_atom_site_type_symbol
_atom_site_fract_x
_atom_site_fract_y
_atom_site_fract_z
O1	O	1.414973	0.001703	-0.069404
O2	O	1.109974	0.045697	-0.069411
O3	O	1.255710	-0.126593	-0.069402
O4	O	1.269237	0.173992	-0.069412
O5	O	1.247685	-0.117146	0.069456
O6	O	1.101949	0.055144	0.069448
O7	O	1.406948	0.011150	0.069455
Zn8	Zn	1.253174	0.034647	0.091498
Zn9	Zn	1.263748	0.022200	-0.091454
O10	O	1.261212	0.183440	0.069446
C11	C	1.066652	0.053282	0.000018
C12	C	0.949520	0.061795	0.000015
C13	C	0.781351	0.168496	0.000010
C14	C	0.891406	0.160503	0.000011
C15	C	0.897571	-0.028926	0.000017
C16	C	0.787515	-0.020934	0.000016
C17	C	0.729409	0.077781	0.000015
C18	C	0.619351	0.085773	0.000020
C19	C	0.625518	-0.103656	0.000020
C20	C	0.735574	-0.111649	0.000021
C21	C	1.247128	-0.160078	0.000027
C22	C	1.233501	-0.273927	0.000025
C23	C	1.397333	-0.529655	0.000011
C24	C	1.384534	-0.636627	0.000010
C25	C	1.195103	-0.594846	0.000014
C26	C	1.207903	-0.487874	0.000016
C27	C	1.309021	-0.455283	0.000016
C28	C	1.321819	-0.348308	0.000023
C29	C	1.132390	-0.306529	0.000021
C30	C	1.119590	-0.413502	0.000020
C31	C	1.450270	0.003565	0.000025
C32	C	1.567402	-0.004949	0.000022
C33	C	1.269794	0.216925	0.000016
C34	C	1.283422	0.330773	0.000012
N35	N	1.245965	0.043141	0.216358
N36	N	1.270964	0.013697	-0.216314
C37	C	1.308004	-0.030147	0.260056
C38	C	1.302972	-0.024197	0.347462
C39	C	1.235907	0.055047	0.391169
C40	C	1.173861	0.128339	0.347466
C41	C	1.178888	0.122383	0.260061
C42	C	1.213945	0.081033	0.652578
C43	C	1.208925	0.086985	0.739989
C44	C	1.338036	-0.065552	0.739979
C45	C	1.343061	-0.071497	0.652573
C46	C	1.281012	0.001791	0.608876
N47	N	1.230764	0.061133	0.480513
N48	N	1.286149	-0.004300	0.519535
H49	H	0.782899	-0.192019	0.000019
H50	H	1.154310	0.151519	0.775571
Br51	Br	1.399035	-0.137691	0.200748
Br52	Br	1.459048	-0.304076	0.000032
Br53	Br	1.534558	-0.485416	0.000037
Br54	Br	1.129740	0.180494	0.593281
Br55	Br	0.961897	0.283621	-0.000001
Br56	Br	0.702486	0.302461	0.000027
H57	H	0.944900	-0.109295	0.000012
H58	H	1.456447	-0.697179	0.000003
Br59	Br	0.540493	0.219740	0.000024
H60	H	1.397671	-0.136023	0.616988
H61	H	1.037263	-0.440053	0.000017
H62	H	0.583220	-0.177527	-0.000043
H63	H	1.112778	-0.621402	0.000005
H64	H	1.119249	0.192858	0.383057
Br65	Br	1.012529	-0.205588	0.000042
Br66	Br	1.387164	-0.123663	0.406769
Br67	Br	1.422239	-0.165012	0.799284
H68	H	1.128368	0.182061	0.224483
