data_functionalizedCrystal
_audit_creation_method	'MofGen! by Chris Wilmer'
_symmetry_space_group_name_H-M	'P1'
_symmetry_Int_Tables_number	1
_symmetry_cell_setting	triclinic
loop_
_symmetry_equiv_pos_as_xyz
  x,y,z
_cell_length_a	15.995300
_cell_length_b	17.699083
_cell_length_c	16.776229
_cell_angle_alpha	89.998886
_cell_angle_beta	89.997895
_cell_angle_gamma	83.377411
loop_
_atom_site_label
_atom_site_type_symbol
_atom_site_fract_x
_atom_site_fract_y
_atom_site_fract_z
O1	O	0.105888	1.004237	-0.066168
O2	O	0.605888	1.504237	0.433832
O3	O	0.119664	0.783880	-0.066194
O4	O	0.619664	1.283880	0.433806
O5	O	-0.009127	0.900102	-0.066184
O6	O	0.490873	1.400102	0.433816
O7	O	0.234679	0.888015	-0.066178
O8	O	0.734679	1.388015	0.433822
O9	O	-0.009135	0.900086	0.066392
O10	O	0.490865	1.400086	0.566392
O11	O	0.119656	0.783864	0.066383
O12	O	0.619656	1.283864	0.566383
O13	O	0.105880	1.004222	0.066408
O14	O	0.605880	1.504222	0.566408
Zn15	Zn	0.112767	0.894041	0.087445
Zn16	Zn	0.612767	1.394041	0.587445
Zn17	Zn	0.112777	0.894061	-0.087230
Zn18	Zn	0.612777	1.394061	0.412770
O19	O	0.234671	0.887999	0.066399
O20	O	0.734671	1.387999	0.566399
C21	C	0.119166	0.755674	0.000091
C22	C	0.619166	1.255674	0.500091
C23	C	0.117685	0.671654	0.000081
C24	C	0.617685	1.171654	0.500081
C25	C	-0.040325	0.899601	0.000101
C26	C	0.459675	1.399601	0.500101
C27	C	-0.133275	0.898123	0.000093
C28	C	0.366725	1.398123	0.500093
C29	C	0.193283	0.623146	0.000084
C30	C	0.693283	1.123146	0.500084
C31	C	0.191887	0.544201	0.000094
C32	C	0.691887	1.044201	0.500094
C33	C	0.114892	0.513764	0.000096
C34	C	0.614892	1.013764	0.500096
C35	C	0.039288	0.562278	0.000096
C36	C	0.539288	1.062278	0.500096
C37	C	0.040686	0.641222	0.000092
C38	C	0.540686	1.141222	0.500092
C39	C	0.033651	0.243907	0.000116
C40	C	0.533651	0.743907	0.500116
C41	C	0.032260	0.164957	0.000118
C42	C	0.532260	0.664957	0.500118
C43	C	0.184852	0.146885	0.000118
C44	C	0.684852	0.646885	0.500118
C45	C	0.186250	0.225829	0.000114
C46	C	0.686250	0.725829	0.500114
C47	C	0.110647	0.274336	0.000118
C48	C	0.610647	0.774336	0.500118
C49	C	0.112162	0.359938	0.000108
C50	C	0.612162	0.859938	0.500108
C51	C	0.113376	0.428165	0.000100
C52	C	0.613376	0.928165	0.500100
C53	C	-0.303452	0.895394	0.000101
C54	C	0.196548	1.395394	0.500101
C55	C	-0.351087	0.978147	0.000108
C56	C	0.148913	1.478147	0.500108
C57	C	-0.447772	0.976637	0.000412
C58	C	0.052228	1.476637	0.500412
C59	C	-0.471004	0.892708	0.000107
C60	C	0.028996	1.392708	0.500107
C61	C	-0.429790	0.851642	0.075660
C62	C	0.070210	1.351642	0.575660
C63	C	-0.333161	0.853736	0.075721
C64	C	0.166839	1.353736	0.575721
C65	C	-0.332874	0.852528	-0.075049
C66	C	0.167126	1.352528	0.424951
C67	C	-0.429818	0.852536	-0.076039
C68	C	0.070182	1.352536	0.423961
C69	C	-0.565696	0.891185	0.000113
C70	C	-0.065696	1.391185	0.500113
C71	C	-0.208760	0.896914	0.000100
C72	C	0.291240	1.396914	0.500100
C73	C	0.265869	0.888500	0.000112
C74	C	0.765869	1.388500	0.500112
C75	C	0.358819	0.889978	0.000115
C76	C	0.858819	1.389978	0.500115
C77	C	0.106377	1.032427	0.000121
C78	C	0.606377	1.532427	0.500121
C79	C	0.107858	1.116448	0.000126
C80	C	0.607858	1.616448	0.500126
N81	N	0.112759	0.894032	0.206656
N82	N	0.612759	1.394032	0.706656
N83	N	0.112778	0.894075	-0.206442
N84	N	0.612778	1.394075	0.293558
C85	C	0.055754	0.945511	0.248377
C86	C	0.555754	1.445511	0.748377
C87	C	0.055753	0.945515	0.331830
C88	C	0.555753	1.445515	0.831830
C89	C	0.112762	0.894044	0.373559
C90	C	0.612762	1.394044	0.873559
C91	C	0.169770	0.842559	0.331832
C92	C	0.669770	1.342559	0.831832
C93	C	0.169766	0.842552	0.248381
C94	C	0.669766	1.342552	0.748381
C95	C	0.169787	0.842587	0.668379
C96	C	0.669787	1.342587	1.168379
C97	C	0.169788	0.842599	0.751836
C98	C	0.669788	1.342599	1.251836
C99	C	0.055773	0.945550	0.751827
C100	C	0.555773	1.445550	1.251827
C101	C	0.055770	0.945543	0.668377
C102	C	0.555770	1.445543	1.168377
C103	C	0.112774	0.894056	0.626657
C104	C	0.612774	1.394056	1.126657
C105	C	0.112773	0.894051	0.536169
C106	C	0.612773	1.394051	1.036169
C107	C	0.112768	0.894052	0.464046
C108	C	0.612768	1.394052	0.964046
H109	H	0.255981	0.647921	0.000081
H110	H	0.755981	1.147921	0.500081
H111	H	0.216186	0.800646	0.365813
H112	H	0.716186	1.300646	0.865813
H113	H	-0.030442	0.140179	0.000121
H114	H	0.469558	0.640179	0.500121
F115	F	-0.039776	0.692848	0.000092
F116	F	0.460224	1.192848	0.500092
F117	F	-0.042656	0.529884	0.000104
F118	F	0.457344	1.029884	0.500104
H119	H	0.009350	0.987458	0.634403
H120	H	0.509350	1.487458	1.134403
H121	H	0.009334	0.987428	0.214407
H122	H	0.509334	1.487428	0.714407
F123	F	-0.485065	1.018809	-0.070362
F124	F	0.014935	1.518809	0.429638
H125	H	0.216185	0.800632	0.214413
H126	H	0.716185	1.300632	0.714413
H127	H	0.216203	0.800666	0.634417
H128	H	0.716203	1.300666	1.134417
F129	F	-0.448053	0.771035	0.079049
F130	F	0.051947	1.271035	0.579049
H131	H	-0.027909	0.283392	0.000120
H132	H	0.472091	0.783392	0.500120
F133	F	0.268198	0.258217	0.000106
F134	F	0.768198	0.758217	0.500106
F135	F	0.272348	0.492578	0.000093
F136	F	0.772348	0.992578	0.500093
H137	H	0.216213	0.800682	0.785810
H138	H	0.716213	1.300682	1.285810
F139	F	-0.465631	0.891730	-0.149100
F140	F	0.034369	1.391730	0.350900
H141	H	0.246412	0.107381	0.000119
H142	H	0.746412	0.607381	0.500119
F143	F	-0.327009	1.021624	-0.070700
F144	F	0.172991	1.521624	0.429300
F145	F	-0.325548	1.020962	0.070827
F146	F	0.174452	1.520962	0.570827
H147	H	-0.475687	1.008752	0.054895
H148	H	0.024313	1.508752	0.554895
H149	H	-0.314904	0.883318	0.132420
H150	H	0.185096	1.383318	0.632420
F151	F	-0.449775	0.772580	-0.082349
F152	F	0.050225	1.272580	0.417651
F153	F	-0.306143	0.888143	-0.149924
F154	F	0.193857	1.388143	0.350076
F155	F	-0.290814	0.774312	0.079931
F156	F	0.209186	1.274312	0.579931
F157	F	-0.466932	0.888452	0.149441
F158	F	0.033068	1.388452	0.649441
H159	H	-0.300979	0.791513	-0.075776
H160	H	0.199021	1.291513	0.424224
F161	F	-0.004919	1.000304	0.376233
F162	F	0.495081	1.500304	0.876233
H163	H	0.009354	0.987471	0.785805
H164	H	0.509354	1.487471	1.285805
