data_functionalizedCrystal
_audit_creation_method	'MofGen! by Chris Wilmer'
_symmetry_space_group_name_H-M	'P1'
_symmetry_Int_Tables_number	1
_symmetry_cell_setting	triclinic
loop_
_symmetry_equiv_pos_as_xyz
  x,y,z
_cell_length_a	27.732048
_cell_length_b	19.288865
_cell_length_c	18.366186
_cell_angle_alpha	90.011479
_cell_angle_beta	90.003554
_cell_angle_gamma	82.889452
loop_
_atom_site_label
_atom_site_type_symbol
_atom_site_fract_x
_atom_site_fract_y
_atom_site_fract_z
O1	O	-0.641180	-0.082649	-0.060464
O2	O	-0.307847	0.250684	0.272869
O3	O	0.025487	0.584017	0.606203
O4	O	-0.500424	-0.095216	-0.060487
O5	O	-0.167091	0.238117	0.272846
O6	O	0.166242	0.571451	0.606179
O7	O	-0.574869	0.012223	-0.060461
O8	O	-0.241536	0.345556	0.272873
O9	O	0.091797	0.678890	0.606206
O10	O	-0.566735	-0.190088	-0.060491
O11	O	-0.233402	0.143245	0.272843
O12	O	0.099932	0.476578	0.606176
O13	O	-0.574857	0.012228	0.060639
O14	O	-0.241523	0.345562	0.393972
O15	O	0.091810	0.678895	0.727306
O16	O	-0.500412	-0.095211	0.060612
O17	O	-0.167078	0.238123	0.393946
O18	O	0.166255	0.571456	0.727279
O19	O	-0.641167	-0.082644	0.060635
O20	O	-0.307834	0.250689	0.393969
O21	O	0.025499	0.584023	0.727302
Zn22	Zn	-0.570788	-0.088927	0.079851
Zn23	Zn	-0.237454	0.244407	0.413184
Zn24	Zn	0.095879	0.577740	0.746518
Zn25	Zn	-0.570804	-0.088933	-0.079703
Zn26	Zn	-0.237471	0.244400	0.253631
Zn27	Zn	0.095863	0.577733	0.586964
O28	O	-0.566722	-0.190083	0.060609
O29	O	-0.233389	0.143250	0.393942
O30	O	0.099944	0.476584	0.727275
C31	C	-0.482410	-0.094950	0.000060
C32	C	-0.149077	0.238384	0.333393
C33	C	0.184256	0.571717	0.666726
C34	C	-0.428753	-0.094155	0.000052
C35	C	-0.095420	0.239178	0.333385
C36	C	0.237914	0.572511	0.666718
C37	C	-0.659181	-0.082910	0.000087
C38	C	-0.325848	0.250423	0.333420
C39	C	0.007485	0.583756	0.666754
C40	C	-0.712839	-0.083705	0.000090
C41	C	-0.379505	0.249629	0.333424
C42	C	-0.046172	0.582962	0.666757
C43	C	-0.574601	0.038100	0.000091
C44	C	-0.241268	0.371434	0.333425
C45	C	0.092065	0.704767	0.666758
C46	C	-0.573816	0.115199	0.000098
C47	C	-0.240482	0.448532	0.333431
C48	C	0.092851	0.781866	0.666764
C49	C	-0.090115	-0.152644	0.000074
C50	C	0.243219	0.180689	0.333408
C51	C	0.576552	0.514023	0.666741
C52	C	0.111554	-0.149697	0.000081
C53	C	0.444887	0.183636	0.333415
C54	C	0.778220	0.516970	0.666748
O55	O	0.142648	-0.203181	0.000105
O56	O	0.475981	0.130153	0.333438
O57	O	0.809315	0.463486	0.666771
N58	N	0.130870	-0.085990	0.000089
N59	N	0.464203	0.247343	0.333423
N60	N	0.797537	0.580677	0.666756
C61	C	0.099766	-0.023015	0.000101
C62	C	0.433099	0.310318	0.333434
C63	C	0.766432	0.643651	0.666767
O64	O	0.120823	0.031239	0.000115
O65	O	0.454156	0.364572	0.333449
O66	O	0.787489	0.697906	0.666782
C67	C	-0.101902	-0.025963	0.000099
C68	C	0.231431	0.307370	0.333432
C69	C	0.564765	0.640703	0.666766
C70	C	-0.121215	-0.089674	0.000083
C71	C	0.212118	0.243659	0.333417
C72	C	0.545452	0.576992	0.666750
C73	C	-0.109428	-0.216350	0.000060
C74	C	0.223905	0.116983	0.333393
C75	C	0.557238	0.450317	0.666726
C76	C	-0.159843	-0.217086	0.000054
C77	C	0.173491	0.116247	0.333387
C78	C	0.506824	0.449581	0.666721
C79	C	-0.190943	-0.154116	0.000063
C80	C	0.142390	0.179217	0.333396
C81	C	0.475724	0.512550	0.666730
C82	C	-0.171629	-0.090410	0.000078
C83	C	0.161704	0.242923	0.333411
C84	C	0.495037	0.576256	0.666744
C85	C	-0.133005	0.037011	0.000115
C86	C	0.200328	0.370344	0.333449
C87	C	0.533661	0.703677	0.666782
C88	C	-0.183425	0.036268	0.000117
C89	C	0.149908	0.369601	0.333450
C90	C	0.483242	0.702935	0.666784
C91	C	-0.202738	-0.027443	0.000101
C92	C	0.130595	0.305890	0.333435
C93	C	0.463929	0.639224	0.666768
C94	C	-0.253144	-0.028177	0.000081
C95	C	0.080189	0.305157	0.333414
C96	C	0.413523	0.638490	0.666748
N97	N	-0.272460	-0.091884	0.000073
N98	N	0.060873	0.241450	0.333406
N99	N	0.394207	0.574783	0.666740
C100	C	-0.241360	-0.154853	0.000064
C101	C	0.091974	0.178480	0.333397
C102	C	0.425307	0.511813	0.666730
C103	C	0.205644	-0.021472	0.000100
C104	C	0.538978	0.311861	0.333434
C105	C	0.872311	0.645194	0.666767
C106	C	0.256061	-0.020735	0.000099
C107	C	0.589394	0.312598	0.333433
C108	C	0.922728	0.645932	0.666766
C109	C	0.267846	-0.147417	0.000081
C110	C	0.601179	0.185916	0.333415
C111	C	0.934512	0.519250	0.666748
C112	C	0.217428	-0.148153	0.000077
C113	C	0.550761	0.185180	0.333410
C114	C	0.884095	0.518513	0.666744
C115	C	0.186328	-0.085179	0.000092
C116	C	0.519661	0.248154	0.333425
C117	C	0.852995	0.581488	0.666759
C118	C	-0.347234	-0.156395	0.000051
C119	C	-0.013900	0.176939	0.333385
C120	C	0.319433	0.510272	0.666718
C121	C	-0.397653	-0.157125	0.000042
C122	C	-0.064319	0.176208	0.333376
C123	C	0.269014	0.509542	0.666709
C124	C	-0.409433	-0.030444	0.000064
C125	C	-0.076100	0.302890	0.333398
C126	C	0.257234	0.636223	0.666731
C127	C	-0.359018	-0.029713	0.000069
C128	C	-0.025685	0.303621	0.333403
C129	C	0.307648	0.636954	0.666736
C130	C	-0.327919	-0.092694	0.000065
C131	C	0.005414	0.240640	0.333398
C132	C	0.338747	0.573973	0.666732
O133	O	-0.284266	0.025278	0.000066
O134	O	0.049067	0.358612	0.333399
O135	O	0.382400	0.691945	0.666732
O136	O	-0.262426	-0.209100	0.000065
O137	O	0.070907	0.124234	0.333399
O138	O	0.404241	0.457567	0.666732
C139	C	-0.039701	-0.151908	0.000080
C140	C	0.293633	0.181425	0.333413
C141	C	0.626966	0.514759	0.666747
C142	C	-0.020387	-0.088202	0.000095
C143	C	0.312947	0.245131	0.333428
C144	C	0.646280	0.578465	0.666761
C145	C	-0.051487	-0.025232	0.000104
C146	C	0.281846	0.308101	0.333437
C147	C	0.615179	0.641434	0.666771
C148	C	0.030030	-0.087465	0.000094
C149	C	0.363363	0.245868	0.333427
C150	C	0.696696	0.579202	0.666761
C151	C	0.061130	-0.150435	0.000085
C152	C	0.394464	0.182899	0.333418
C153	C	0.727797	0.516232	0.666752
C154	C	0.041814	-0.214142	0.000077
C155	C	0.375147	0.119192	0.333410
C156	C	0.708481	0.452525	0.666743
C157	C	-0.008600	-0.214878	0.000071
C158	C	0.324733	0.118456	0.333404
C159	C	0.658067	0.451789	0.666738
C160	C	-0.032171	0.038475	0.000112
C161	C	0.301162	0.371808	0.333445
C162	C	0.634496	0.705141	0.666779
C163	C	0.018244	0.039206	0.000117
C164	C	0.351577	0.372539	0.333450
C165	C	0.684910	0.705872	0.666784
C166	C	0.049344	-0.023764	0.000108
C167	C	0.382677	0.309569	0.333441
C168	C	0.716011	0.642902	0.666775
C169	C	-0.566990	-0.215961	0.000055
C170	C	-0.233657	0.117373	0.333389
C171	C	0.099676	0.450706	0.666722
C172	C	-0.567776	-0.293059	0.000044
C173	C	-0.234443	0.040274	0.333378
C174	C	0.098891	0.373607	0.666711
N175	N	-0.570780	-0.088922	0.188742
N176	N	-0.237446	0.244412	0.522075
N177	N	0.095887	0.577745	0.855409
C178	C	-0.617496	0.160168	0.000108
C179	C	-0.284163	0.493501	0.333442
C180	C	0.049170	0.826835	0.666775
C181	C	-0.616758	0.232610	0.000097
C182	C	-0.283425	0.565944	0.333430
C183	C	0.049908	0.899277	0.666763
C184	C	-0.572337	0.260081	0.000089
C185	C	-0.239003	0.593414	0.333422
C186	C	0.094330	0.926748	0.666756
C187	C	-0.528650	0.215102	0.000074
C188	C	-0.195317	0.548436	0.333407
C189	C	0.138016	0.881769	0.666741
C190	C	-0.529390	0.142661	0.000078
C191	C	-0.196056	0.475995	0.333412
C192	C	0.137277	0.809328	0.666745
C193	C	-0.537412	0.368152	0.042502
C194	C	-0.204079	0.701486	0.375835
C195	C	0.129255	1.034819	0.709168
C196	C	-0.536674	0.440592	0.042502
C197	C	-0.203341	0.773925	0.375835
C198	C	0.129992	1.107259	0.709168
C199	C	-0.570054	0.483512	0.000072
C200	C	-0.236721	0.816846	0.333406
C201	C	0.096612	1.150179	0.666739
C202	C	-0.604180	0.453985	-0.042348
C203	C	-0.270847	0.787318	0.290985
C204	C	0.062486	1.120652	0.624319
C205	C	-0.604920	0.381544	-0.042344
C206	C	-0.271586	0.714878	0.290990
C207	C	0.061747	1.048211	0.624323
C208	C	-0.571530	0.338630	0.000084
C209	C	-0.238197	0.671963	0.333417
C210	C	0.095137	1.005296	0.666750
C211	C	-0.612938	0.607032	0.000069
C212	C	-0.279605	0.940365	0.333403
C213	C	0.053729	1.273699	0.666736
C214	C	-0.612198	0.679475	0.000053
C215	C	-0.278865	1.012809	0.333387
C216	C	0.054469	1.346142	0.666720
C217	C	-0.524089	0.661966	0.000038
C218	C	-0.190755	0.995299	0.333371
C219	C	0.142578	1.328632	0.666705
C220	C	-0.524830	0.589524	0.000047
C221	C	-0.191497	0.922857	0.333380
C222	C	0.141837	1.256190	0.666713
C223	C	-0.569256	0.562062	0.000066
C224	C	-0.235923	0.895395	0.333399
C225	C	0.097411	1.228728	0.666733
N226	N	-0.570816	-0.088933	-0.188594
N227	N	-0.237482	0.244400	0.144739
N228	N	0.095851	0.577734	0.478073
C229	C	-0.603755	-0.041371	0.226854
C230	C	-0.270421	0.291963	0.560188
C231	C	0.062912	0.625296	0.893521
C232	C	-0.603758	-0.041368	0.303082
C233	C	-0.270424	0.291966	0.636415
C234	C	0.062909	0.625299	0.969749
C235	C	-0.570790	-0.088927	0.341195
C236	C	-0.237457	0.244406	0.674528
C237	C	0.095876	0.577739	1.007861
C238	C	-0.537809	-0.136482	0.303073
C239	C	-0.204476	0.196852	0.636407
C240	C	0.128857	0.530185	0.969740
C241	C	-0.537804	-0.136479	0.226847
C242	C	-0.204471	0.196854	0.560180
C243	C	0.128863	0.530188	0.893514
C244	C	-0.564320	-0.152255	0.461945
C245	C	-0.230986	0.181078	0.795278
C246	C	0.102347	0.514411	1.128612
C247	C	-0.564328	-0.152259	0.538170
C248	C	-0.230995	0.181074	0.871503
C249	C	0.102338	0.514408	1.204837
C250	C	-0.570804	-0.088936	0.576302
C251	C	-0.237471	0.244398	0.909636
C252	C	0.095862	0.577731	1.242969
C253	C	-0.577281	-0.025606	0.538200
C254	C	-0.243948	0.307727	0.871534
C255	C	0.089385	0.641061	1.204867
C256	C	-0.577276	-0.025603	0.461974
C257	C	-0.243943	0.307730	0.795307
C258	C	0.089391	0.641064	1.128641
C259	C	-0.570792	-0.088935	0.423850
C260	C	-0.237459	0.244398	0.757183
C261	C	0.095874	0.577731	1.090516
C262	C	-0.603784	-0.041378	0.697069
C263	C	-0.270451	0.291956	1.030403
C264	C	0.062882	0.625289	1.363736
C265	C	-0.603784	-0.041374	0.773299
C266	C	-0.270451	0.291960	1.106632
C267	C	0.062883	0.625293	1.439965
C268	C	-0.537838	-0.136494	0.773289
C269	C	-0.204505	0.196840	1.106622
C270	C	0.128829	0.530173	1.439955
C271	C	-0.537836	-0.136492	0.697061
C272	C	-0.204503	0.196841	1.030394
C273	C	0.128831	0.530175	1.363727
C274	C	-0.570812	-0.088934	0.658956
C275	C	-0.237478	0.244399	0.992289
C276	C	0.095855	0.577732	1.325622
H277	H	-0.413374	-0.209008	0.000029
H278	H	-0.080041	0.124325	0.333363
H279	H	0.253292	0.457658	0.666696
H280	H	-0.489260	0.552909	0.000042
H281	H	-0.155927	0.886242	0.333375
H282	H	0.177407	1.219576	0.666709
H283	H	0.201707	-0.200032	0.000068
H284	H	0.535041	0.133301	0.333402
H285	H	0.868374	0.466634	0.666735
H286	H	-0.631362	0.488930	-0.076899
H287	H	-0.298028	0.822263	0.256435
H288	H	0.035305	1.155596	0.589768
H289	H	0.033963	0.091091	0.000124
H290	H	0.367296	0.424424	0.333457
H291	H	0.700630	0.757757	0.666791
H292	H	-0.582549	0.025962	0.430954
H293	H	-0.249215	0.359295	0.764288
H294	H	0.084118	0.692629	1.097621
H295	H	-0.582554	0.025958	0.569246
H296	H	-0.249221	0.359291	0.902579
H297	H	0.084112	0.692625	1.235913
H298	H	-0.510228	0.333212	0.077057
H299	H	-0.176895	0.666545	0.410390
H300	H	0.156438	0.999878	0.743724
H301	H	0.067145	-0.265414	0.000066
H302	H	0.400478	0.067920	0.333400
H303	H	0.733812	0.401253	0.666733
H304	H	-0.492482	0.237473	0.000066
H305	H	-0.159148	0.570807	0.333399
H306	H	0.174185	0.904140	0.666733
H307	H	-0.652330	0.269231	0.000103
H308	H	-0.318996	0.602564	0.333436
H309	H	0.014337	0.935898	0.666769
H310	H	-0.508885	0.464627	0.077039
H311	H	-0.175552	0.797960	0.410372
H312	H	0.157782	1.131293	0.743705
H313	H	-0.487920	0.684331	0.000028
H314	H	-0.154586	1.017664	0.333361
H315	H	0.178747	1.350998	0.666695
H316	H	-0.493818	0.106047	0.000070
H317	H	-0.160485	0.439380	0.333403
H318	H	0.172849	0.772714	0.666737
H319	H	-0.630634	-0.002651	0.666043
H320	H	-0.297300	0.330682	0.999377
H321	H	0.036033	0.664015	1.332710
H322	H	-0.175562	-0.268966	0.000041
H323	H	0.157771	0.064367	0.333374
H324	H	0.491104	0.397701	0.666708
H325	H	-0.510951	-0.175201	0.195815
H326	H	-0.177618	0.158132	0.529149
H327	H	0.155715	0.491465	0.862482
H328	H	-0.647770	0.716089	0.000058
H329	H	-0.314436	1.049422	0.333391
H330	H	0.018897	1.382756	0.666725
H331	H	-0.630604	-0.002645	0.195831
H332	H	-0.297271	0.330688	0.529165
H333	H	0.036062	0.664022	0.862498
H334	H	-0.649112	0.584671	0.000082
H335	H	-0.315779	0.918004	0.333415
H336	H	0.017554	1.251338	0.666748
H337	H	-0.510966	-0.175205	0.334109
H338	H	-0.177633	0.158129	0.667442
H339	H	0.155701	0.491462	1.000775
H340	H	-0.208745	0.087550	0.000130
H341	H	0.124589	0.420884	0.333463
H342	H	0.457922	0.754217	0.666796
H343	H	-0.630635	-0.002648	0.804330
H344	H	-0.297301	0.330685	1.137664
H345	H	0.036032	0.664018	1.470997
H346	H	-0.630611	-0.002644	0.334119
H347	H	-0.297277	0.330689	0.667452
H348	H	0.036056	0.664022	1.000785
H349	H	-0.510993	-0.175215	0.804319
H350	H	-0.177660	0.158118	1.137653
H351	H	0.155673	0.491452	1.470986
H352	H	-0.559038	-0.203824	0.430904
H353	H	-0.225705	0.129509	0.764237
H354	H	0.107629	0.462842	1.097571
H355	H	-0.510986	-0.175215	0.666028
H356	H	-0.177653	0.158118	0.999361
H357	H	0.155680	0.491452	1.332694
H358	H	-0.559057	-0.203826	0.569187
H359	H	-0.225724	0.129507	0.902520
H360	H	0.107609	0.462841	1.235853
H361	H	-0.321918	-0.207680	0.000050
H362	H	0.011415	0.125653	0.333383
H363	H	0.344749	0.458987	0.666717
H364	H	-0.084111	-0.267630	0.000055
H365	H	0.249223	0.065703	0.333388
H366	H	0.582556	0.399036	0.666721
H367	H	0.271781	0.031145	0.000101
H368	H	0.605114	0.364478	0.333434
H369	H	0.938448	0.697811	0.666767
H370	H	0.180326	0.029812	0.000113
H371	H	0.513660	0.363145	0.333446
H372	H	0.846993	0.696479	0.666779
H373	H	0.293177	-0.198689	0.000074
H374	H	0.626510	0.134644	0.333407
H375	H	0.959843	0.467977	0.666741
H376	H	-0.117290	0.088891	0.000129
H377	H	0.216043	0.422224	0.333462
H378	H	0.549377	0.755558	0.666795
H379	H	-0.343293	0.022166	0.000071
H380	H	-0.009960	0.355499	0.333405
H381	H	0.323374	0.688833	0.666738
H382	H	-0.024320	-0.266758	0.000059
H383	H	0.309013	0.066576	0.333393
H384	H	0.642347	0.399909	0.666726
H385	H	-0.434764	0.020825	0.000069
H386	H	-0.101431	0.354158	0.333402
H387	H	0.231903	0.687491	0.666736
H388	H	-0.057489	0.089753	0.000121
H389	H	0.275845	0.423087	0.333455
H390	H	0.609178	0.756420	0.666788
H391	H	-0.653672	0.137813	0.000121
H392	H	-0.320338	0.471147	0.333455
H393	H	0.012995	0.804480	0.666788
H394	H	-0.632705	0.357506	-0.076885
H395	H	-0.299372	0.690840	0.256448
H396	H	0.033961	1.024173	0.589781
