data_functionalizedCrystal
_audit_creation_method	'MofGen! by Chris Wilmer'
_symmetry_space_group_name_H-M	'P1'
_symmetry_Int_Tables_number	1
_symmetry_cell_setting	triclinic
loop_
_symmetry_equiv_pos_as_xyz
  x,y,z
_cell_length_a	16.109301
_cell_length_b	17.699083
_cell_length_c	14.586319
_cell_angle_alpha	89.995320
_cell_angle_beta	89.999213
_cell_angle_gamma	83.372248
loop_
_atom_site_label
_atom_site_type_symbol
_atom_site_fract_x
_atom_site_fract_y
_atom_site_fract_z
O1	O	1.102963	0.097285	-0.076184
O2	O	1.352963	0.347285	0.173816
O3	O	1.602963	0.597285	0.423816
O4	O	1.852963	0.847285	0.673816
O5	O	0.860880	0.109391	-0.076199
O6	O	1.110880	0.359391	0.173801
O7	O	1.360880	0.609391	0.423801
O8	O	1.610880	0.859391	0.673801
O9	O	0.988761	-0.006841	-0.076183
O10	O	1.238761	0.243159	0.173817
O11	O	1.488761	0.493159	0.423817
O12	O	1.738761	0.743159	0.673817
O13	O	0.975082	0.213517	-0.076200
O14	O	1.225082	0.463517	0.173800
O15	O	1.475082	0.713517	0.423800
O16	O	1.725082	0.963517	0.673800
O17	O	0.988752	-0.006843	0.076298
O18	O	1.238752	0.243157	0.326298
O19	O	1.488752	0.493157	0.576298
O20	O	1.738752	0.743157	0.826298
O21	O	0.860872	0.109390	0.076282
O22	O	1.110872	0.359390	0.326282
O23	O	1.360872	0.609390	0.576282
O24	O	1.610872	0.859390	0.826282
O25	O	1.102954	0.097283	0.076297
O26	O	1.352954	0.347283	0.326297
O27	O	1.602954	0.597283	0.576297
O28	O	1.852954	0.847283	0.826297
Cu29	Cu	0.981912	0.103336	0.090212
Cu30	Cu	1.231912	0.353336	0.340212
Cu31	Cu	1.481912	0.603336	0.590212
Cu32	Cu	1.731912	0.853336	0.840212
Cu33	Cu	0.981923	0.103338	-0.090114
Cu34	Cu	1.231923	0.353338	0.159886
Cu35	Cu	1.481923	0.603338	0.409886
Cu36	Cu	1.731923	0.853338	0.659886
O37	O	0.975074	0.213516	0.076281
O38	O	1.225074	0.463516	0.326281
O39	O	1.475074	0.713516	0.576281
O40	O	1.725074	0.963516	0.826281
C41	C	0.829902	0.108900	0.000040
C42	C	1.079902	0.358900	0.250040
C43	C	1.329902	0.608900	0.500040
C44	C	1.579902	0.858900	0.750040
C45	C	0.737609	0.107430	0.000034
C46	C	0.987609	0.357430	0.250034
C47	C	1.237609	0.607430	0.500034
C48	C	1.487609	0.857430	0.750034
C49	C	0.515224	0.172981	0.000040
C50	C	0.765224	0.422981	0.250040
C51	C	1.015224	0.672981	0.500040
C52	C	1.265224	0.922981	0.750040
C53	C	0.428506	0.171594	0.000046
C54	C	0.678506	0.421594	0.250046
C55	C	0.928506	0.671594	0.500046
C56	C	1.178506	0.921594	0.750046
C57	C	0.448618	0.033688	0.000053
C58	C	0.698618	0.283688	0.250053
C59	C	0.948618	0.533688	0.500053
C60	C	1.198618	0.783688	0.750053
C61	C	0.535334	0.035076	0.000053
C62	C	0.785334	0.285076	0.250053
C63	C	1.035334	0.535076	0.500053
C64	C	1.285334	0.785076	0.750053
C65	C	0.568635	0.104725	0.000042
C66	C	0.818635	0.354725	0.250042
C67	C	1.068635	0.604725	0.500042
C68	C	1.318635	0.854725	0.750042
C69	C	0.395200	0.101949	0.000047
C70	C	0.645200	0.351949	0.250047
C71	C	0.895200	0.601949	0.500047
C72	C	1.145200	0.851949	0.750047
C73	C	0.301177	0.100445	0.000054
C74	C	0.551177	0.350445	0.250054
C75	C	0.801177	0.600445	0.500054
C76	C	1.051177	0.850445	0.750054
C77	C	0.662664	0.106230	0.000037
C78	C	0.912664	0.356230	0.250037
C79	C	1.162664	0.606230	0.500037
C80	C	1.412664	0.856230	0.750037
C81	C	0.988267	-0.035040	0.000057
C82	C	1.238267	0.214960	0.250057
C83	C	1.488267	0.464960	0.500057
C84	C	1.738267	0.714960	0.750057
C85	C	0.986796	-0.119060	0.000058
C86	C	1.236796	0.130940	0.250058
C87	C	1.486796	0.380940	0.500058
C88	C	1.736796	0.630940	0.750058
C89	C	1.061860	-0.167574	0.000064
C90	C	1.311860	0.082426	0.250064
C91	C	1.561860	0.332426	0.500064
C92	C	1.811860	0.582426	0.750064
C93	C	1.060473	-0.246519	0.000055
C94	C	1.310473	0.003481	0.250055
C95	C	1.560473	0.253481	0.500055
C96	C	1.810473	0.503481	0.750055
C97	C	0.984022	-0.276949	0.000048
C98	C	1.234022	-0.026949	0.250048
C99	C	1.484022	0.223051	0.500048
C100	C	1.734022	0.473051	0.750048
C101	C	0.908953	-0.228429	0.000039
C102	C	1.158953	0.021571	0.250039
C103	C	1.408953	0.271571	0.500039
C104	C	1.658953	0.521571	0.750039
C105	C	0.910341	-0.149485	0.000041
C106	C	1.160341	0.100515	0.250041
C107	C	1.410341	0.350515	0.500041
C108	C	1.660341	0.600515	0.750041
C109	C	0.903356	-0.546800	0.000031
C110	C	1.153356	-0.296800	0.250031
C111	C	1.403356	-0.046800	0.500031
C112	C	1.653356	0.203200	0.750031
C113	C	0.901974	-0.625750	0.000033
C114	C	1.151974	-0.375750	0.250033
C115	C	1.401974	-0.125750	0.500033
C116	C	1.651974	0.124250	0.750033
C117	C	1.053488	-0.643834	0.000046
C118	C	1.303488	-0.393834	0.250046
C119	C	1.553488	-0.143834	0.500046
C120	C	1.803488	0.106166	0.750046
C121	C	1.054876	-0.564890	0.000048
C122	C	1.304876	-0.314890	0.250048
C123	C	1.554876	-0.064890	0.500048
C124	C	1.804876	0.185110	0.750048
C125	C	0.979807	-0.516377	0.000034
C126	C	1.229807	-0.266377	0.250034
C127	C	1.479807	-0.016377	0.500034
C128	C	1.729807	0.233623	0.750034
C129	C	0.981312	-0.430776	0.000041
C130	C	1.231312	-0.180776	0.250041
C131	C	1.481312	0.069224	0.500041
C132	C	1.731312	0.319224	0.750041
C133	C	0.982517	-0.362549	0.000047
C134	C	1.232517	-0.112549	0.250047
C135	C	1.482517	0.137451	0.500047
C136	C	1.732517	0.387451	0.750047
C137	C	1.133933	0.097774	0.000056
C138	C	1.383933	0.347774	0.250056
C139	C	1.633933	0.597774	0.500056
C140	C	1.883933	0.847774	0.750056
C141	C	1.226226	0.099244	0.000055
C142	C	1.476226	0.349244	0.250055
C143	C	1.726226	0.599244	0.500055
C144	C	1.976226	0.849244	0.750055
C145	C	0.975568	0.241714	0.000038
C146	C	1.225568	0.491714	0.250038
C147	C	1.475568	0.741714	0.500038
C148	C	1.725568	0.991714	0.750038
C149	C	0.977039	0.325734	0.000032
C150	C	1.227039	0.575734	0.250032
C151	C	1.477039	0.825734	0.500032
C152	C	1.727039	1.075734	0.750032
N153	N	0.981911	0.103334	0.217044
N154	N	1.231911	0.353334	0.467044
N155	N	1.481911	0.603334	0.717044
N156	N	1.731911	0.853334	0.967044
N157	N	0.981931	0.103334	-0.216946
N158	N	1.231931	0.353334	0.033054
N159	N	1.481931	0.603334	0.283054
N160	N	1.731931	0.853334	0.533054
C161	C	1.038555	0.051884	0.452057
C162	C	1.288555	0.301884	0.702057
C163	C	1.538555	0.551884	0.952057
C164	C	1.788555	0.801884	1.202057
C165	C	1.038558	0.051882	0.548038
C166	C	1.288558	0.301882	0.798038
C167	C	1.538558	0.551882	1.048038
C168	C	1.788558	0.801882	1.298038
C169	C	0.925280	0.154787	0.548034
C170	C	1.175280	0.404787	0.798034
C171	C	1.425280	0.654787	1.048034
C172	C	1.675280	0.904787	1.298034
C173	C	0.925274	0.154785	0.452054
C174	C	1.175274	0.404785	0.702054
C175	C	1.425274	0.654785	0.952054
C176	C	1.675274	0.904785	1.202054
C177	C	0.981917	0.103334	0.404068
C178	C	1.231917	0.353334	0.654068
C179	C	1.481917	0.603334	0.904068
C180	C	1.731917	0.853334	1.154068
C181	C	0.981925	0.103334	0.596029
C182	C	1.231925	0.353334	0.846029
C183	C	1.481925	0.603334	1.096029
C184	C	1.731925	0.853334	1.346029
C185	C	0.981927	0.103333	0.700096
C186	C	1.231927	0.353333	0.950096
C187	C	1.481927	0.603333	1.200096
C188	C	1.731927	0.853333	1.450096
C189	C	0.981914	0.103334	0.299995
C190	C	1.231914	0.353334	0.549995
C191	C	1.481914	0.603334	0.799995
C192	C	1.731914	0.853334	1.049995
H193	H	1.124115	-0.142805	0.000075
H194	H	1.374115	0.107195	0.250075
H195	H	1.624115	0.357195	0.500075
H196	H	1.874115	0.607195	0.750075
Cl197	Cl	1.109759	-0.012801	0.391736
Cl198	Cl	1.359759	0.237199	0.641736
Cl199	Cl	1.609759	0.487199	0.891736
Cl200	Cl	1.859759	0.737199	1.141736
H201	H	0.879165	0.196679	0.587113
H202	H	1.129165	0.446679	0.837113
H203	H	1.379165	0.696679	1.087113
H204	H	1.629165	0.946679	1.337113
H205	H	0.542334	0.229694	0.000038
H206	H	0.792334	0.479694	0.250038
H207	H	1.042334	0.729694	0.500038
H208	H	1.292334	0.979694	0.750038
Cl209	Cl	0.361364	0.257406	0.000044
Cl210	Cl	0.611364	0.507406	0.250044
Cl211	Cl	0.861364	0.757406	0.500044
Cl212	Cl	1.111364	1.007406	0.750044
H213	H	0.879149	0.196682	0.412979
H214	H	1.129149	0.446682	0.662979
H215	H	1.379149	0.696682	0.912979
H216	H	1.629149	0.946682	1.162979
H217	H	0.421494	-0.023018	0.000067
H218	H	0.671494	0.226982	0.250067
H219	H	0.921494	0.476982	0.500067
H220	H	1.171494	0.726982	0.750067
H221	H	0.842230	-0.507310	0.000021
H222	H	1.092230	-0.257310	0.250021
H223	H	1.342230	-0.007310	0.500021
H224	H	1.592230	0.242690	0.750021
Cl225	Cl	1.109761	-0.012803	0.608364
Cl226	Cl	1.359761	0.237197	0.858364
Cl227	Cl	1.609761	0.487197	1.108364
Cl228	Cl	1.859761	0.737197	1.358364
H229	H	0.578824	-0.020510	0.000058
H230	H	0.828824	0.229490	0.250058
H231	H	1.078824	0.479490	0.500058
H232	H	1.328824	0.729490	0.750058
H233	H	1.121597	-0.286017	0.000062
H234	H	1.371597	-0.036017	0.250062
H235	H	1.621597	0.213983	0.500062
H236	H	1.871597	0.463983	0.750062
H237	H	1.114613	-0.683343	0.000052
H238	H	1.364613	-0.433343	0.250052
H239	H	1.614613	-0.183343	0.500052
H240	H	1.864613	0.066657	0.750052
Cl241	Cl	1.150989	-0.526640	0.000054
Cl242	Cl	1.400989	-0.276640	0.250054
Cl243	Cl	1.650989	-0.026640	0.500054
Cl244	Cl	1.900989	0.223360	0.750054
Cl245	Cl	0.805857	-0.664003	0.000021
Cl246	Cl	1.055857	-0.414003	0.250021
Cl247	Cl	1.305857	-0.164003	0.500021
Cl248	Cl	1.555857	0.085997	0.750021
H249	H	0.849216	-0.109986	0.000036
H250	H	1.099216	0.140014	0.250036
H251	H	1.349216	0.390014	0.500036
H252	H	1.599216	0.640014	0.750036
Cl253	Cl	0.812843	-0.266684	0.000018
Cl254	Cl	1.062843	-0.016684	0.250018
Cl255	Cl	1.312843	0.233316	0.500018
Cl256	Cl	1.562843	0.483316	0.750018
