data_functionalizedCrystal
_audit_creation_method	'MofGen! by Chris Wilmer'
_symmetry_space_group_name_H-M	'P1'
_symmetry_Int_Tables_number	1
_symmetry_cell_setting	triclinic
loop_
_symmetry_equiv_pos_as_xyz
  x,y,z
_cell_length_a	13.635800
_cell_length_b	10.943632
_cell_length_c	10.943624
_cell_angle_alpha	88.228940
_cell_angle_beta	71.161201
_cell_angle_gamma	108.838880
loop_
_atom_site_label
_atom_site_type_symbol
_atom_site_fract_x
_atom_site_fract_y
_atom_site_fract_z
V1	V	-2.057748	-0.178596	0.402520
O2	O	-2.036602	0.008617	0.394890
O3	O	-2.046723	-0.354159	0.399737
O4	O	-2.046729	-0.175834	0.578087
O5	O	-2.036596	-0.170943	0.215305
V6	V	-2.296146	-0.156205	0.380131
O7	O	-2.195753	-0.227713	0.451632
O8	O	-2.383239	-0.107088	0.331020
O9	O	-2.195568	0.019358	0.382915
O10	O	-2.375990	-0.343418	0.387762
O11	O	-2.375996	-0.163858	0.567347
O12	O	-2.195562	-0.158967	0.204564
C13	C	-1.972002	-0.396958	0.393379
C14	C	-2.003719	-0.540484	0.392273
C15	C	-1.972009	-0.169484	0.620881
C16	C	-2.003729	-0.168388	0.764408
V17	V	-1.557748	-0.178596	0.402520
O18	O	-1.536602	0.008617	0.394890
O19	O	-1.546723	-0.354159	0.399737
O20	O	-1.546729	-0.175834	0.578087
O21	O	-1.536596	-0.170943	0.215305
V22	V	-1.796146	-0.156205	0.380131
O23	O	-1.695753	-0.227713	0.451632
O24	O	-1.883239	-0.107088	0.331020
O25	O	-1.695568	0.019358	0.382915
O26	O	-1.875990	-0.343418	0.387762
O27	O	-1.875996	-0.163858	0.567347
O28	O	-1.695562	-0.158967	0.204564
C29	C	-1.926142	-0.617637	0.384920
C30	C	-1.965560	-0.690292	0.280695
C31	C	-2.020829	-0.723567	0.494542
C32	C	-2.042696	-0.611235	0.287974
C33	C	-2.097975	-0.644516	0.501916
C34	C	-2.137447	-0.717134	0.397670
C35	C	-2.101960	0.062151	0.389269
C36	C	-2.059863	0.205675	0.390383
C37	C	-2.101953	-0.165321	0.161764
C38	C	-2.059851	-0.166411	0.018236
C39	C	-1.472002	-0.396958	0.393379
C40	C	-1.503719	-0.540484	0.392273
C41	C	-1.472009	-0.169484	0.620881
C42	C	-1.503729	-0.168388	0.764408
C43	C	-1.926144	-0.161001	0.841556
C44	C	-2.020823	-0.270645	0.947527
C45	C	-1.965582	-0.056801	0.914178
C46	C	-2.098013	-0.278134	0.868502
C47	C	-2.042732	-0.064194	0.835129
C48	C	-2.137480	-0.173869	0.941070
C49	C	-1.601960	0.062151	0.389269
C50	C	-1.559863	0.205675	0.390383
C51	C	-1.601953	-0.165321	0.161764
C52	C	-1.559851	-0.166411	0.018236
C53	C	-1.426142	-0.617637	0.384920
C54	C	-1.465560	-0.690292	0.280695
C55	C	-1.520829	-0.723567	0.494542
C56	C	-1.542696	-0.611235	0.287974
C57	C	-1.597975	-0.644516	0.501916
C58	C	-1.637447	-0.717134	0.397670
C59	C	-1.426144	-0.161001	0.841556
C60	C	-1.520823	-0.270645	0.947527
C61	C	-1.465582	-0.056801	0.914178
C62	C	-1.598013	-0.278134	0.868502
C63	C	-1.542732	-0.064194	0.835129
C64	C	-1.637480	-0.173869	0.941070
H65	H	-1.836485	-0.574154	0.379408
C66	C	-1.554734	0.053724	0.768962
N67	N	-1.563760	0.142551	0.719118
H68	H	-2.153705	-0.371779	0.847941
C69	C	-2.008731	-0.789624	0.612456
N70	N	-1.999610	-0.839371	0.701265
C71	C	-2.258606	-0.181278	0.999543
N72	N	-2.349841	-0.186875	1.043605
C73	C	-1.890362	0.069577	0.942180
N74	N	-1.833700	0.164762	0.963265
C75	C	-1.673097	-0.616403	0.628290
N76	N	-1.729671	-0.595224	0.723484
H77	H	-1.836543	-0.155706	0.798109
C78	C	-1.390362	0.069577	0.942180
N79	N	-1.333700	0.164762	0.963265
C80	C	-1.508756	-0.388546	1.013649
N81	N	-1.499659	-0.477344	1.063449
H82	H	-1.551614	-0.562474	0.200587
H83	H	-1.909906	-0.711058	0.187152
C84	C	-2.173097	-0.616403	0.628290
N85	N	-2.229671	-0.595224	0.723484
H86	H	-2.051621	0.023090	0.786160
C87	C	-1.390378	-0.718361	0.154330
N88	N	-1.333745	-0.739500	0.059156
H89	H	-2.011892	-0.357924	0.996461
C90	C	-2.054736	-0.545365	0.169912
N91	N	-2.063799	-0.495747	0.080986
C92	C	-1.673248	-0.404648	0.840730
N93	N	-1.729909	-0.499939	0.819809
H94	H	-1.511869	-0.772480	0.581812
C95	C	-1.305021	-0.558881	0.377471
N96	N	-1.213792	-0.514622	0.371854
H97	H	-2.227076	-0.760358	0.403023
C98	C	-1.758531	-0.775536	0.404902
N99	N	-1.849728	-0.819526	0.410343
H100	H	-1.336543	-0.155706	0.798109
C101	C	-1.758606	-0.181278	0.999543
N102	N	-1.849841	-0.186875	1.043605
