data_functionalizedCrystal
_audit_creation_method	'MofGen! by Chris Wilmer'
_symmetry_space_group_name_H-M	'P1'
_symmetry_Int_Tables_number	1
_symmetry_cell_setting	triclinic
loop_
_symmetry_equiv_pos_as_xyz
  x,y,z
_cell_length_a	13.032987
_cell_length_b	13.032127
_cell_length_c	13.032268
_cell_angle_alpha	89.069017
_cell_angle_beta	89.114903
_cell_angle_gamma	90.899754
loop_
_atom_site_label
_atom_site_type_symbol
_atom_site_fract_x
_atom_site_fract_y
_atom_site_fract_z
Zn1	Zn	-1.423897	-0.684157	-0.684463
Zn2	Zn	-1.090564	-0.350824	-0.351130
Zn3	Zn	-0.757230	-0.017491	-0.017797
Zn4	Zn	-1.429189	-0.835089	-0.491212
Zn5	Zn	-1.095856	-0.501756	-0.157879
Zn6	Zn	-0.762522	-0.168423	0.175455
Zn7	Zn	-1.278369	-0.641836	-0.496664
Zn8	Zn	-0.945036	-0.308503	-0.163330
Zn9	Zn	-0.611703	0.024830	0.170003
Zn10	Zn	-1.236036	-0.829609	-0.642103
Zn11	Zn	-0.902703	-0.496276	-0.308770
Zn12	Zn	-0.569370	-0.162942	0.024564
O13	O	-1.341873	-0.747673	-0.578611
O14	O	-1.008540	-0.414340	-0.245277
O15	O	-0.675206	-0.081006	0.088056
O16	O	-1.566338	-0.724184	-0.674275
O17	O	-1.233004	-0.390850	-0.340941
O18	O	-0.899671	-0.057517	-0.007608
O19	O	-1.429114	-0.794036	-0.350192
O20	O	-1.095780	-0.460703	-0.016859
O21	O	-0.762447	-0.127369	0.316475
O22	O	-1.313176	-0.505701	-0.541585
O23	O	-0.979843	-0.172368	-0.208252
O24	O	-0.646509	0.160965	0.125081
O25	O	-1.570226	-0.835073	-0.532294
O26	O	-1.236892	-0.501739	-0.198960
O27	O	-0.903559	-0.168406	0.134373
O28	O	-1.420094	-0.536794	-0.679561
O29	O	-1.086761	-0.203461	-0.346228
O30	O	-0.753428	0.129872	-0.012894
O31	O	-1.318307	-0.652054	-0.354197
O32	O	-0.984974	-0.318720	-0.020864
O33	O	-0.651641	0.014613	0.312469
O34	O	-1.131015	-0.646740	-0.500510
O35	O	-0.797682	-0.313407	-0.167177
O36	O	-0.464348	0.019927	0.166157
O37	O	-1.241025	-0.825732	-0.789465
O38	O	-0.907692	-0.492399	-0.456132
O39	O	-0.574358	-0.159066	-0.122799
O40	O	-1.099913	-0.784696	-0.607364
O41	O	-0.766580	-0.451362	-0.274030
O42	O	-0.433246	-0.118029	0.059303
O43	O	-1.379046	-0.718870	-0.820587
O44	O	-1.045712	-0.385536	-0.487254
O45	O	-0.712379	-0.052203	-0.153921
O46	O	-1.388065	-0.976111	-0.491219
O47	O	-1.054732	-0.642778	-0.157885
O48	O	-0.721398	-0.309445	0.175448
O49	O	-1.246157	-0.972085	-0.602077
O50	O	-0.912823	-0.638752	-0.268744
O51	O	-0.579490	-0.305418	0.064589
C52	C	-1.078713	-0.710531	-0.549932
C53	C	-0.745379	-0.377198	-0.216599
C54	C	-0.412046	-0.043865	0.116734
C55	C	-0.966126	-0.694669	-0.537684
C56	C	-0.632792	-0.361336	-0.204351
C57	C	-0.299459	-0.028003	0.128983
C58	C	-0.784205	-0.739550	-0.572337
C59	C	-0.450872	-0.406217	-0.239004
C60	C	-0.117539	-0.072883	0.094329
C61	C	-0.900570	-0.755949	-0.584993
C62	C	-0.567237	-0.422616	-0.251660
C63	C	-0.233903	-0.089283	0.081673
C64	C	-1.313116	-1.010858	-0.541485
C65	C	-0.979782	-0.677525	-0.208151
C66	C	-0.646449	-0.344192	0.125182
C67	C	-1.300901	-1.123467	-0.525646
C68	C	-0.967568	-0.790134	-0.192313
C69	C	-0.634234	-0.456800	0.141020
C70	C	-0.606062	-0.784953	-0.607394
C71	C	-0.272729	-0.451620	-0.274060
C72	C	0.060604	-0.118286	0.059273
C73	C	-0.718649	-0.800821	-0.619640
C74	C	-0.385316	-0.467488	-0.286307
C75	C	-0.051982	-0.134155	0.047026
C76	C	-1.335678	-1.305364	-0.570540
C77	C	-1.002344	-0.972031	-0.237207
C78	C	-0.669011	-0.638698	0.096126
C79	C	-1.348310	-1.188979	-0.586914
C80	C	-1.014977	-0.855645	-0.253581
C81	C	-0.681643	-0.522312	0.079753
C82	C	-1.304723	-0.776410	-0.842806
C83	C	-0.971390	-0.443077	-0.509473
C84	C	-0.638056	-0.109744	-0.176140
C85	C	-1.288892	-0.788657	-0.955391
C86	C	-0.955558	-0.455323	-0.622057
C87	C	-0.622225	-0.121990	-0.288724
C88	C	-1.370767	-0.483466	-0.615906
C89	C	-1.037434	-0.150133	-0.282573
C90	C	-0.704100	0.183201	0.050760
C91	C	-1.383080	-0.370877	-0.631800
C92	C	-1.049747	-0.037544	-0.298466
C93	C	-0.716413	0.295790	0.034867
C94	C	-1.350124	-0.741243	-1.020983
C95	C	-1.016790	-0.407910	-0.687650
C96	C	-0.683457	-0.074576	-0.354316
C97	C	-1.333763	-0.753899	-1.137345
C98	C	-1.000429	-0.420565	-0.804012
C99	C	-0.667096	-0.087232	-0.470679
C100	C	-1.378945	-0.718982	-0.315459
C101	C	-1.045611	-0.385649	0.017874
C102	C	-0.712278	-0.052316	0.351207
C103	C	-1.395003	-0.706478	-0.202937
C104	C	-1.061670	-0.373145	0.130396
C105	C	-0.728336	-0.039812	0.463730
H106	H	-0.930587	-0.820547	-0.634870
H107	H	-0.597254	-0.487214	-0.301536
H108	H	-0.263921	-0.153880	0.031797
H109	H	-0.936109	-0.630063	-0.487818
H110	H	-0.602776	-0.296729	-0.154485
H111	H	-0.269443	0.036604	0.178849
H112	H	-1.459538	-0.656506	-1.172953
H113	H	-1.126205	-0.323173	-0.839620
H114	H	-0.792871	0.010161	-0.506286
O115	O	-1.203400	-0.854838	-0.995100
O116	O	-0.870067	-0.521505	-0.661766
O117	O	-0.536734	-0.188171	-0.328433
H118	H	-1.203968	-0.854396	-1.080264
H119	H	-0.870635	-0.521063	-0.746931
H120	H	-0.537302	-0.187730	-0.413597
H121	H	-0.754183	-0.674949	-0.522474
H122	H	-0.420849	-0.341616	-0.189141
H123	H	-0.087516	-0.008282	0.144192
O124	O	-1.269528	-1.345195	-0.485013
O125	O	-0.936195	-1.011862	-0.151680
O126	O	-0.602861	-0.678529	0.181654
H127	H	-1.236720	-1.279502	-0.442634
H128	H	-0.903386	-0.946168	-0.109301
H129	H	-0.570053	-0.612835	0.224032
H130	H	-1.250955	-1.153536	-0.461079
H131	H	-0.917622	-0.820203	-0.127746
H132	H	-0.584289	-0.486869	0.205588
H133	H	-1.414655	-0.691277	-0.990993
H134	H	-1.081322	-0.357943	-0.657659
H135	H	-0.747989	-0.024610	-0.324326
H136	H	-0.748672	-0.865415	-0.669513
H137	H	-0.415338	-0.532081	-0.336180
H138	H	-0.082005	-0.198748	-0.002846
H139	H	-1.398244	-1.158909	-0.651490
H140	H	-1.064911	-0.825576	-0.318157
H141	H	-0.731577	-0.492242	0.015177
O142	O	-1.248264	-0.820079	-1.177050
O143	O	-0.914930	-0.486746	-0.843717
O144	O	-0.581597	-0.153413	-0.510384
H145	H	-1.281228	-0.883225	-1.222923
H146	H	-0.947894	-0.549891	-0.889590
H147	H	-0.614561	-0.216558	-0.556257
O148	O	-1.449233	-1.331055	-0.717329
O149	O	-1.115900	-0.997722	-0.383995
O150	O	-0.782566	-0.664388	-0.050662
H151	H	-1.448781	-1.245891	-0.716761
H152	H	-1.115448	-0.912557	-0.383428
H153	H	-0.782115	-0.579224	-0.050094
