data_functionalizedCrystal
_audit_creation_method	'MofGen! by Chris Wilmer'
_symmetry_space_group_name_H-M	'P1'
_symmetry_Int_Tables_number	1
_symmetry_cell_setting	triclinic
loop_
_symmetry_equiv_pos_as_xyz
  x,y,z
_cell_length_a	16.956984
_cell_length_b	16.992695
_cell_length_c	16.053802
_cell_angle_alpha	92.741074
_cell_angle_beta	92.389299
_cell_angle_gamma	96.639179
loop_
_atom_site_label
_atom_site_type_symbol
_atom_site_fract_x
_atom_site_fract_y
_atom_site_fract_z
O1	O	1.063242	-0.028849	0.069433
O2	O	0.832831	-0.056264	0.069434
O3	O	0.947113	0.071526	0.069427
O4	O	0.948961	-0.156639	0.069441
O5	O	0.940821	0.064519	-0.069431
O6	O	0.826539	-0.063271	-0.069424
O7	O	1.056950	-0.035855	-0.069425
Zn8	Zn	0.940746	-0.050676	-0.091471
Zn9	Zn	0.949036	-0.041444	0.091481
O10	O	0.942669	-0.163646	-0.069418
C11	C	0.800067	-0.061171	0.000005
C12	C	0.711812	-0.065345	0.000006
C13	C	0.675280	0.004440	-0.000000
C14	C	0.592356	0.000514	0.000006
C15	C	0.545964	-0.073198	0.000012
C16	C	0.582501	-0.142989	0.000020
C17	C	0.665424	-0.139062	0.000020
C18	C	0.297430	-0.092637	0.000019
C19	C	0.214501	-0.096559	0.000017
C20	C	0.224362	0.046944	0.000004
C21	C	0.307286	0.050864	-0.000001
C22	C	0.343816	-0.018925	0.000012
N23	N	0.461201	-0.077213	0.000016
N24	N	0.428578	-0.014909	0.000014
C25	C	1.089715	-0.030948	0.000006
C26	C	1.177970	-0.026774	0.000011
C27	C	0.941590	0.097081	-0.000002
C28	C	0.934500	0.183666	-0.000002
N29	N	0.935094	-0.056975	-0.216331
C30	C	0.948191	-0.189201	0.000013
C31	C	0.955282	-0.275785	0.000018
C32	C	1.002914	0.238341	-0.000003
C33	C	0.996248	0.319696	0.000005
C34	C	0.921165	0.346374	0.000008
C35	C	0.852745	0.291692	0.000012
C36	C	0.859413	0.210339	0.000010
C37	C	0.893530	0.588181	0.000020
C38	C	0.886867	0.669540	0.000019
C39	C	1.030371	0.697538	0.000014
C40	C	1.037031	0.616182	0.000007
C41	C	0.968612	0.561508	0.000015
N42	N	0.914349	0.429531	0.000014
N43	N	0.975429	0.478353	0.000016
C44	C	0.983741	-0.002617	-0.260028
C45	C	0.979795	-0.007031	-0.347435
C46	C	0.927206	-0.065806	-0.391143
C47	C	0.878553	-0.120167	-0.347440
C48	C	0.882496	-0.115749	-0.260035
C49	C	0.909984	-0.085081	-0.652551
C50	C	0.906047	-0.089496	-0.739962
C51	C	1.007288	0.023642	-0.739952
C52	C	1.011229	0.028051	-0.652545
C53	C	0.962573	-0.026307	-0.608849
N54	N	0.923173	-0.070321	-0.480486
N55	N	0.966603	-0.021788	-0.519508
N56	N	0.954694	-0.035138	0.216341
H57	H	0.695167	-0.195888	0.000021
H58	H	1.046900	0.067898	-0.775536
H59	H	0.842881	-0.160012	-0.224457
H60	H	0.713047	0.064464	-0.000008
Br61	Br	1.104817	0.202143	-0.000019
Br62	Br	1.055122	0.077149	-0.200720
H63	H	0.825722	0.691256	0.000009
Br64	Br	0.542781	0.095228	0.000028
Br65	Br	0.174781	0.141654	-0.000010
H66	H	0.345053	0.110889	-0.000009
H67	H	1.098172	0.594468	0.000004
Br68	Br	1.045813	0.066744	-0.406741
H69	H	1.054051	0.075911	-0.616960
Br70	Br	0.750846	0.327897	0.000030
H71	H	0.176730	-0.156588	0.000017
Br72	Br	0.346997	-0.187352	0.000037
H73	H	1.051959	0.364210	0.000002
Br74	Br	0.519542	-0.243028	0.000039
Br75	Br	1.123221	0.771742	0.000003
Br76	Br	0.800674	0.513990	0.000036
Br77	Br	0.834673	-0.169273	-0.799275
Br78	Br	0.766561	0.136136	0.000018
H79	H	0.870368	-0.129343	-0.616981
Br80	Br	0.807174	-0.199931	-0.406754
