data_functionalizedCrystal
_audit_creation_method	'MofGen! by Chris Wilmer'
_symmetry_space_group_name_H-M	'P1'
_symmetry_Int_Tables_number	1
_symmetry_cell_setting	triclinic
loop_
_symmetry_equiv_pos_as_xyz
  x,y,z
_cell_length_a	8.497365
_cell_length_b	12.759401
_cell_length_c	12.759399
_cell_angle_alpha	89.985425
_cell_angle_beta	90.047819
_cell_angle_gamma	89.968728
loop_
_atom_site_label
_atom_site_type_symbol
_atom_site_fract_x
_atom_site_fract_y
_atom_site_fract_z
Zn1	Zn	-0.891943	1.606381	0.418029
Zn2	Zn	-0.628162	1.606234	0.593808
Zn3	Zn	-0.628176	1.430644	0.418141
Zn4	Zn	-0.891900	1.430669	0.593664
O5	O	-0.760045	1.518482	0.505910
O6	O	-0.856964	1.753383	0.441360
O7	O	-0.407401	1.582869	0.570612
O8	O	-0.663189	1.454007	0.271105
O9	O	-0.663166	1.753274	0.570504
O10	O	-0.856978	1.583120	0.271023
O11	O	-0.407412	1.453864	0.441550
O12	O	-0.663147	1.283626	0.441410
O13	O	-1.112668	1.454050	0.570259
O14	O	-0.856904	1.283645	0.570367
O15	O	-1.112700	1.583145	0.441221
O16	O	-0.663124	1.582894	0.740810
O17	O	-0.856891	1.453907	0.740704
C18	C	-0.760023	1.245515	0.505886
C19	C	-0.760051	1.128738	0.505901
C20	C	-0.861119	1.073925	0.438782
C21	C	-0.861129	0.964201	0.438802
C22	C	-0.658999	0.964112	0.573068
C23	C	-0.658983	1.073834	0.573042
C24	C	-0.962188	1.128829	0.371641
C25	C	-1.063264	1.074016	0.304518
C26	C	-1.063274	0.964292	0.304538
C27	C	-0.962207	0.909381	0.371681
C28	C	-0.760035	1.518416	0.778878
C29	C	-0.760084	1.518483	0.895654
C30	C	-0.659305	1.585721	0.950537
C31	C	-0.659363	1.585783	1.060261
C32	C	-0.860982	1.451363	1.060211
C33	C	-0.860931	1.451306	0.950489
C34	C	-0.558458	1.652898	0.895702
C35	C	-0.457670	1.720139	0.950585
C36	C	-0.457728	1.720202	1.060309
C37	C	-0.558574	1.653023	1.115150
C38	C	-0.350165	1.518406	0.506025
C39	C	-0.171522	1.518556	0.505809
C40	C	-0.760068	1.792515	0.505936
C41	C	-0.760078	1.909292	0.505947
C42	C	-0.760111	1.518574	1.231877
C43	C	-0.760193	1.518603	1.115100
H44	H	-1.145564	0.919667	0.249876
H45	H	-0.576685	1.118464	0.627696
H46	H	-1.145540	1.118732	0.249846
H47	H	-0.558395	1.652851	0.806360
C48	C	-0.547843	0.903714	0.646929
C49	C	-0.560414	0.918806	0.766368
C50	C	-0.449259	0.858409	0.840234
C51	C	-0.325533	0.782920	0.794660
C52	C	-0.312957	0.767825	0.675214
C53	C	-0.424112	0.828222	0.601349
H54	H	-0.652007	0.974690	0.800110
H55	H	-0.458569	0.869584	0.928656
H56	H	-0.243250	0.738211	0.849339
H57	H	-0.221364	0.711941	0.641472
H58	H	-0.414802	0.817047	0.512927
C59	C	-0.971897	1.377464	1.120533
C60	C	-0.971951	1.377523	1.241223
C61	C	-1.082864	1.303620	1.301545
C62	C	-1.193723	1.229659	1.241176
C63	C	-1.193674	1.229598	1.120479
C64	C	-1.082761	1.303501	1.060158
H65	H	-0.889882	1.432275	1.285918
H66	H	-1.082900	1.303666	1.390893
H67	H	-1.275828	1.174952	1.285829
H68	H	-1.275742	1.174846	1.075785
H69	H	-1.082724	1.303455	0.970810
H70	H	-0.942996	1.396557	0.905803
H71	H	-0.962190	1.218172	0.371617
H72	H	-0.375574	1.774840	0.905927
H73	H	-0.962190	0.820036	0.371670
H74	H	-0.375673	1.774961	1.104991
H75	H	-0.558625	1.653088	1.204495
