data_functionalizedCrystal
_audit_creation_method	'MofGen! by Chris Wilmer'
_symmetry_space_group_name_H-M	'P1'
_symmetry_Int_Tables_number	1
_symmetry_cell_setting	triclinic
loop_
_symmetry_equiv_pos_as_xyz
  x,y,z
_cell_length_a	14.519731
_cell_length_b	17.666332
_cell_length_c	14.519731
_cell_angle_alpha	90.000240
_cell_angle_beta	96.311147
_cell_angle_gamma	90.009346
loop_
_atom_site_label
_atom_site_type_symbol
_atom_site_fract_x
_atom_site_fract_y
_atom_site_fract_z
O1	O	1.223871	0.062941	-0.120983
O2	O	0.955398	0.062941	-0.135199
O3	O	1.096742	0.062946	0.006145
O4	O	1.082526	0.062935	-0.262328
O5	O	1.096717	-0.062951	0.006149
O6	O	0.955373	-0.062956	-0.135195
O7	O	1.223846	-0.062956	-0.120979
Cu8	Cu	1.089607	-0.074452	-0.128087
Cu9	Cu	1.089637	0.074436	-0.128092
O10	O	1.082502	-0.062962	-0.262324
C11	C	0.921026	-0.000008	-0.134531
C12	C	0.818645	-0.000007	-0.132535
C13	C	0.735501	-0.000004	-0.130913
C14	C	0.631192	-0.000004	-0.128887
C15	C	0.548053	-0.000004	-0.127278
C16	C	0.443738	-0.000002	-0.125252
N17	N	1.089593	-0.179171	-0.128083
C18	C	1.145612	-0.218777	-0.184150
C19	C	1.145627	-0.298024	-0.184147
C20	C	1.089606	-0.337663	-0.128088
C21	C	1.033583	-0.298048	-0.072010
C22	C	1.033577	-0.218802	-0.072007
N23	N	1.008826	-0.462102	-0.125430
N24	N	1.008834	-0.537383	-0.125438
C25	C	1.089622	-0.576427	-0.128091
N26	N	1.170403	-0.537347	-0.130755
N27	N	1.170393	-0.462060	-0.130752
C28	C	1.089606	-0.423592	-0.128084
C29	C	1.145662	-0.701962	-0.184159
C30	C	1.145679	-0.781211	-0.184149
C31	C	1.033626	-0.781233	-0.072017
C32	C	1.033618	-0.701986	-0.072021
C33	C	1.089635	-0.662355	-0.128097
C34	C	1.258218	-0.000006	-0.121648
C35	C	1.360598	-0.000002	-0.123643
N36	N	1.089658	0.179155	-0.128089
C37	C	1.083180	-0.000015	-0.296685
C38	C	1.085176	-0.000019	-0.399066
C39	C	1.086798	-0.000016	-0.482210
C40	C	1.088825	-0.000008	-0.586519
C41	C	1.090433	-0.000002	-0.669658
C42	C	1.092459	0.000004	-0.773974
C43	C	1.096064	0.000001	0.040507
C44	C	1.094068	0.000010	0.142887
H45	H	1.191245	-0.330278	-0.229806
O46	O	0.973203	-0.659266	-0.011537
H47	H	0.982621	-0.597502	-0.020942
O48	O	0.973163	-0.176064	-0.011536
H49	H	0.899486	-0.191273	-0.031427
H50	H	1.191275	-0.669693	-0.229818
O51	O	1.206106	-0.823936	-0.244620
H52	H	1.186151	-0.808739	-0.318285
O53	O	0.973176	-0.340800	-0.011531
H54	H	0.934231	-0.299942	0.027470
H55	H	0.988014	-0.813506	-0.026372
O56	O	1.206035	-0.176037	-0.244626
H57	H	1.196617	-0.114277	-0.235213
