data_functionalizedCrystal
_audit_creation_method	'MofGen! by Chris Wilmer'
_symmetry_space_group_name_H-M	'P1'
_symmetry_Int_Tables_number	1
_symmetry_cell_setting	triclinic
loop_
_symmetry_equiv_pos_as_xyz
  x,y,z
_cell_length_a	15.944551
_cell_length_b	15.944545
_cell_length_c	14.472310
_cell_angle_alpha	89.996829
_cell_angle_beta	89.991464
_cell_angle_gamma	83.497456
loop_
_atom_site_label
_atom_site_type_symbol
_atom_site_fract_x
_atom_site_fract_y
_atom_site_fract_z
O1	O	1.114533	0.108327	-0.076749
O2	O	1.447866	0.441660	0.256584
O3	O	1.781199	0.774993	0.589918
O4	O	0.869983	0.121683	-0.076773
O5	O	1.203316	0.455016	0.256561
O6	O	1.536649	0.788350	0.589894
O7	O	0.998939	-0.007270	-0.076749
O8	O	1.332272	0.326063	0.256584
O9	O	1.665605	0.659396	0.589918
O10	O	0.985577	0.237280	-0.076772
O11	O	1.318910	0.570613	0.256561
O12	O	1.652244	0.903947	0.589894
O13	O	0.998905	-0.007263	0.076933
O14	O	1.332239	0.326070	0.410266
O15	O	1.665572	0.659404	0.743600
O16	O	0.869950	0.121690	0.076909
O17	O	1.203283	0.455024	0.410243
O18	O	1.536616	0.788357	0.743576
O19	O	1.114500	0.108334	0.076933
O20	O	1.447833	0.441667	0.410266
O21	O	1.781166	0.775001	0.743600
Cu22	Cu	0.992222	0.115013	0.090954
Cu23	Cu	1.325555	0.448346	0.424287
Cu24	Cu	1.658888	0.781680	0.757620
Cu25	Cu	0.992261	0.115004	-0.090793
Cu26	Cu	1.325594	0.448337	0.242540
Cu27	Cu	1.658927	0.781671	0.575874
O28	O	0.985544	0.237287	0.076910
O29	O	1.318877	0.570621	0.410243
O30	O	1.652210	0.903954	0.743576
C31	C	0.838672	0.121132	0.000066
C32	C	1.172006	0.454465	0.333399
C33	C	1.505339	0.787799	0.666732
C34	C	0.745426	0.119470	0.000057
C35	C	1.078760	0.452803	0.333390
C36	C	1.412093	0.786137	0.666724
C37	C	0.998368	-0.038561	0.000093
C38	C	1.331702	0.294773	0.333426
C39	C	1.665035	0.628106	0.666759
C40	C	0.996708	-0.131807	0.000095
C41	C	1.330041	0.201526	0.333428
C42	C	1.663375	0.534860	0.666762
C43	C	0.530571	0.035565	0.000083
C44	C	0.863905	0.368899	0.333416
C45	C	1.197238	0.702232	0.666750
C46	C	0.469567	0.074524	-0.075694
C47	C	0.802900	0.407857	0.257639
C48	C	1.136233	0.741191	0.590973
C49	C	0.574700	0.116463	0.000068
C50	C	0.908034	0.449796	0.333402
C51	C	1.241367	0.783129	0.666735
C52	C	0.469556	0.074551	0.075824
C53	C	0.802890	0.407884	0.409158
C54	C	1.136223	0.741217	0.742491
C55	C	0.409788	0.113552	0.000083
C56	C	0.743121	0.446885	0.333416
C57	C	1.076454	0.780218	0.666750
C58	C	0.514924	0.155444	-0.075771
C59	C	0.848257	0.488777	0.257562
C60	C	1.181591	0.822110	0.590895
C61	C	0.514920	0.155459	0.075815
C62	C	0.848253	0.488792	0.409148
C63	C	1.181587	0.822125	0.742482
C64	C	0.453933	0.194476	0.000020
C65	C	0.787266	0.527810	0.333353
C66	C	1.120600	0.861143	0.666686
C67	C	0.669703	0.118137	0.000059
C68	C	1.003036	0.451470	0.333392
C69	C	1.336369	0.784804	0.666726
C70	C	0.314787	0.111884	0.000086
C71	C	0.648120	0.445217	0.333419
C72	C	0.981453	0.778550	0.666753
C73	C	0.911814	-0.402440	0.000068
C74	C	1.245148	-0.069106	0.333402
C75	C	1.578481	0.264227	0.666735
C76	C	0.952760	-0.351858	-0.075701
C77	C	1.286093	-0.018525	0.257632
C78	C	1.619426	0.314809	0.590965
C79	C	0.990787	-0.467451	0.000068
C80	C	1.324121	-0.134118	0.333402
C81	C	1.657454	0.199216	0.666735
C82	C	0.952748	-0.351878	0.075817
C83	C	1.286081	-0.018544	0.409150
C84	C	1.619415	0.314789	0.742484
C85	C	0.993692	-0.302537	0.000083
C86	C	1.327025	0.030796	0.333416
C87	C	1.660359	0.364129	0.666750
C88	C	1.031712	-0.418097	-0.075764
C89	C	1.365045	-0.084764	0.257569
C90	C	1.698378	0.248569	0.590903
C91	C	1.031688	-0.418121	0.075822
C92	C	1.365022	-0.084787	0.409156
C93	C	1.698355	0.248546	0.742489
C94	C	1.072692	-0.367571	0.000034
C95	C	1.406025	-0.034238	0.333368
C96	C	1.739358	0.299095	0.666701
C97	C	0.989112	-0.562453	0.000059
C98	C	1.322445	-0.229120	0.333392
C99	C	1.655778	0.104214	0.666726
C100	C	0.995374	-0.207538	0.000086
C101	C	1.328707	0.125795	0.333419
C102	C	1.662041	0.459129	0.666752
C103	C	1.145810	0.108885	0.000093
C104	C	1.479143	0.442218	0.333426
C105	C	1.812477	0.775552	0.666760
C106	C	1.239056	0.110547	0.000095
C107	C	1.572389	0.443880	0.333429
C108	C	1.905723	0.777214	0.666762
C109	C	0.986114	0.268578	0.000066
C110	C	1.319447	0.601911	0.333399
C111	C	1.652781	0.935244	0.666732
C112	C	0.987774	0.361824	0.000057
C113	C	1.321108	0.695157	0.333391
C114	C	1.654441	1.028491	0.666724
N115	N	0.992200	0.115019	0.218785
N116	N	1.325533	0.448352	0.552118
N117	N	1.658867	0.781685	0.885451
N118	N	0.992289	0.114992	-0.218624
N119	N	1.325622	0.448325	0.114709
N120	N	1.658956	0.781658	0.448043
C121	C	0.992260	0.115001	0.592876
C122	C	1.325593	0.448334	0.926209
C123	C	1.658926	0.781667	1.259542
C124	C	0.923027	0.183770	0.553697
C125	C	1.256360	0.517103	0.887031
C126	C	1.589693	0.850436	1.220364
C127	C	0.923186	0.184020	0.446609
C128	C	1.256520	0.517354	0.779943
C129	C	1.589853	0.850687	1.113276
C130	C	0.992229	0.115010	0.407285
C131	C	1.325563	0.448343	0.740618
C132	C	1.658896	0.781676	1.073951
C133	C	1.079872	0.134157	0.446128
C134	C	1.413206	0.467490	0.779461
C135	C	1.746539	0.800824	1.112795
C136	C	1.079483	0.134646	0.553250
C137	C	1.412817	0.467979	0.886583
C138	C	1.746150	0.801313	1.219916
C139	C	0.974632	0.026881	0.553411
C140	C	1.307965	0.360214	0.886745
C141	C	1.641298	0.693547	1.220078
C142	C	0.972622	0.027468	0.446284
C143	C	1.305955	0.360801	0.779617
C144	C	1.639288	0.694135	1.112950
C145	C	0.992218	0.115013	0.302397
C146	C	1.325551	0.448346	0.635730
C147	C	1.658884	0.781680	0.969063
C148	C	0.992277	0.114999	0.697764
C149	C	1.325610	0.448332	1.031097
C150	C	1.658944	0.781666	1.364431
H151	H	0.449471	0.040305	-0.139752
H152	H	0.782805	0.373638	0.193581
H153	H	1.116138	0.706971	0.526915
O154	O	1.162849	-0.347046	-0.000012
O155	O	1.496183	-0.013713	0.333322
O156	O	1.829516	0.319621	0.666655
H157	H	1.174341	-0.310239	0.062921
H158	H	1.507675	0.023094	0.396254
H159	H	1.841008	0.356427	0.729588
H160	H	0.919368	-0.322960	0.139873
H161	H	1.252702	0.010373	0.473206
H162	H	1.586035	0.343706	0.806539
O163	O	1.035086	-0.043491	0.410835
O164	O	1.368419	0.289842	0.744168
O165	O	1.701753	0.623175	1.077501
H166	H	1.000977	-0.089017	0.371763
H167	H	1.334310	0.244317	0.705096
H168	H	1.667644	0.577650	1.038429
H169	H	0.858040	0.172612	0.420348
H170	H	1.191373	0.505945	0.753682
H171	H	1.524706	0.839278	1.087015
O172	O	1.075816	-0.456467	0.160683
O173	O	1.409149	-0.123134	0.494016
O174	O	1.742483	0.210199	0.827350
H175	H	1.074711	-0.525938	0.159535
H176	H	1.408045	-0.192605	0.492868
H177	H	1.741378	0.140728	0.826201
O178	O	0.836449	0.168926	0.587859
O179	O	1.169782	0.502260	0.921192
O180	O	1.503115	0.835593	1.254526
H181	H	0.841834	0.112380	0.633132
H182	H	1.175167	0.445713	0.966465
H183	H	1.508501	0.779046	1.299798
H184	H	0.934128	0.248794	0.580602
H185	H	1.267462	0.582127	0.913935
H186	H	1.600795	0.915460	1.247269
O187	O	0.908603	-0.313518	-0.160556
O188	O	1.241937	0.019815	0.172778
O189	O	1.575270	0.353149	0.506111
H190	H	0.884839	-0.364106	-0.202497
H191	H	1.218172	-0.030773	0.130836
H192	H	1.551505	0.302560	0.464169
H193	H	0.534925	0.189631	-0.139905
H194	H	0.868258	0.522964	0.193428
H195	H	1.201591	0.856298	0.526762
H196	H	0.934444	0.249413	0.420970
H197	H	1.267777	0.582746	0.754304
H198	H	1.601110	0.916079	1.087637
H199	H	0.843802	-0.418092	-0.000012
H200	H	1.177135	-0.084759	0.333321
H201	H	1.510469	0.248574	0.666654
H202	H	0.420773	0.261684	-0.000029
H203	H	0.754106	0.595017	0.333304
H204	H	1.087439	0.928350	0.666637
O205	O	1.100058	0.219770	0.586339
O206	O	1.433392	0.553103	0.919673
O207	O	1.766725	0.886436	1.253006
H208	H	1.110187	0.260200	0.525830
H209	H	1.443520	0.593533	0.859164
H210	H	1.776854	0.926867	1.192497
H211	H	0.535037	0.189650	0.139876
H212	H	0.868370	0.522983	0.473209
H213	H	1.201703	0.856317	0.806543
H214	H	0.563906	-0.031573	-0.000004
H215	H	0.897239	0.301760	0.333329
H216	H	1.230573	0.635094	0.666662
H217	H	1.025120	-0.024295	0.578747
H218	H	1.358454	0.309038	0.912080
H219	H	1.691787	0.642372	1.245414
O220	O	1.075870	-0.456245	-0.160718
O221	O	1.409203	-0.122912	0.172615
O222	O	1.742536	0.210421	0.505948
H223	H	1.074264	-0.525656	-0.160077
H224	H	1.407597	-0.192322	0.173256
H225	H	1.740931	0.141011	0.506590
H226	H	1.132611	0.086533	0.579165
H227	H	1.465944	0.419866	0.912498
H228	H	1.799278	0.753200	1.245831
H229	H	0.912110	0.008470	0.580475
H230	H	1.245443	0.341803	0.913808
H231	H	1.578777	0.675137	1.247142
O232	O	1.149754	0.069582	0.412391
O233	O	1.483088	0.402915	0.745724
O234	O	1.816421	0.736249	1.079058
H235	H	1.122696	0.023048	0.367468
H236	H	1.456029	0.356381	0.700802
H237	H	1.789362	0.689714	1.034135
O238	O	1.100945	0.218318	0.410592
O239	O	1.434278	0.551652	0.743926
O240	O	1.767611	0.884985	1.077259
H241	H	1.049137	0.246638	0.365277
H242	H	1.382471	0.579971	0.698610
H243	H	1.715804	0.913305	1.031944
H244	H	0.908150	0.012937	0.420897
H245	H	1.241484	0.346270	0.754230
H246	H	1.574817	0.679604	1.087563
H247	H	0.449457	0.040322	0.139886
H248	H	0.782790	0.373656	0.473219
H249	H	1.116124	0.706989	0.806552
