data_functionalizedCrystal
_audit_creation_method	'MofGen! by Chris Wilmer'
_symmetry_space_group_name_H-M	'P1'
_symmetry_Int_Tables_number	1
_symmetry_cell_setting	triclinic
loop_
_symmetry_equiv_pos_as_xyz
  x,y,z
_cell_length_a	16.109301
_cell_length_b	16.992695
_cell_length_c	14.586319
_cell_angle_alpha	89.995905
_cell_angle_beta	89.999213
_cell_angle_gamma	87.064852
loop_
_atom_site_label
_atom_site_type_symbol
_atom_site_fract_x
_atom_site_fract_y
_atom_site_fract_z
O1	O	1.109856	0.100784	-0.076183
O2	O	0.868631	0.113326	-0.076198
O3	O	0.988277	-0.007087	-0.076183
O4	O	0.990211	0.221197	-0.076198
O5	O	0.988268	-0.007089	0.076298
O6	O	0.868622	0.113324	0.076283
O7	O	1.109847	0.100782	0.076298
Cu8	Cu	0.989234	0.107053	0.090213
Cu9	Cu	0.989244	0.107055	-0.090113
O10	O	0.990202	0.221196	0.076283
C11	C	0.837618	0.112817	0.000041
C12	C	0.745221	0.111294	0.000035
C13	C	0.527480	0.179203	0.000042
C14	C	0.440664	0.177766	0.000048
C15	C	0.451005	0.034899	0.000053
C16	C	0.537819	0.036337	0.000054
C17	C	0.576055	0.108492	0.000043
C18	C	0.402424	0.105616	0.000049
C19	C	0.308294	0.104057	0.000055
C20	C	0.670191	0.110051	0.000039
C21	C	0.985784	-0.036300	0.000057
C22	C	0.978361	-0.123343	0.000056
C23	C	1.049987	-0.173601	0.000062
C24	C	1.043007	-0.255386	0.000052
C25	C	0.964400	-0.286911	0.000045
C26	C	0.892768	-0.236645	0.000037
C27	C	0.899749	-0.154862	0.000039
C28	C	0.935467	-0.530501	0.000030
C29	C	0.928491	-0.612291	0.000030
C30	C	1.078731	-0.631026	0.000045
C31	C	1.085704	-0.549240	0.000053
C32	C	1.014073	-0.498982	0.000040
N33	N	0.957263	-0.370508	0.000038
N34	N	1.021210	-0.415387	0.000040
C35	C	1.140860	0.101291	0.000057
C36	C	1.233257	0.102814	0.000057
C37	C	0.992694	0.250408	0.000041
C38	C	1.000118	0.337451	0.000036
N39	N	0.989232	0.107051	0.217045
N40	N	0.989252	0.107051	-0.216945
C41	C	1.042231	0.053750	0.452058
C42	C	1.042233	0.053748	0.548039
C43	C	0.936247	0.160355	0.548036
C44	C	0.936241	0.160352	0.452056
C45	C	0.989238	0.107051	0.404070
C46	C	0.989246	0.107051	0.596030
C47	C	0.989248	0.107050	0.700098
C48	C	0.989235	0.107051	0.299996
H49	H	0.401118	0.235347	0.000048
H50	H	0.558608	0.237956	0.000040
C51	C	1.172172	-0.514569	0.000049
H52	H	1.213831	-0.556215	0.000042
H53	H	1.178018	-0.483056	0.053221
H54	H	1.178015	-0.483053	-0.053132
C55	C	0.591259	-0.041447	0.000054
H56	H	0.648438	-0.030255	0.000063
H57	H	0.579160	-0.071033	-0.053117
H58	H	0.579155	-0.071033	0.053236
H59	H	1.085384	0.010345	0.587108
C60	C	1.100517	-0.004886	0.399275
H61	H	1.132072	-0.036635	0.441606
H62	H	1.136998	0.023324	0.361825
H63	H	1.068432	-0.037536	0.361843
C64	C	0.877964	0.218989	0.600823
H65	H	0.885563	0.211363	0.664859
H66	H	0.821910	0.210462	0.585103
H67	H	0.890476	0.271322	0.585083
C68	C	0.877948	0.218988	0.399265
H69	H	0.846395	0.250740	0.441589
H70	H	0.841466	0.190772	0.361830
H71	H	0.910028	0.251636	0.361818
C72	C	0.408947	-0.044466	0.000053
H73	H	0.450312	-0.086373	0.000062
H74	H	0.375297	-0.047993	-0.053121
H75	H	0.375294	-0.047999	0.053232
C76	C	1.136455	-0.138932	0.000070
H77	H	1.178112	-0.180580	0.000063
H78	H	1.142300	-0.107421	0.053244
H79	H	1.142303	-0.107415	-0.053110
H80	H	1.137048	-0.671954	0.000053
C81	C	1.121795	-0.310668	0.000068
H82	H	1.169610	-0.280180	0.000086
H83	H	1.122207	-0.342958	-0.053105
H84	H	1.122185	-0.342963	0.053248
C85	C	0.842020	-0.646966	0.000006
H86	H	0.800358	-0.605321	-0.000013
H87	H	0.836163	-0.678485	0.053176
H88	H	0.836192	-0.678475	-0.053177
C89	C	0.856675	-0.475228	0.000032
H90	H	0.808863	-0.505718	0.000040
H91	H	0.856271	-0.442928	-0.053139
H92	H	0.856275	-0.442942	0.053215
H93	H	0.841423	-0.113942	0.000035
C94	C	0.806303	-0.271320	0.000031
H95	H	0.812402	-0.327226	0.000040
H96	H	0.776583	-0.254065	-0.053144
H97	H	0.776582	-0.254069	0.053210
