data_functionalizedCrystal
_audit_creation_method	'MofGen! by Chris Wilmer'
_symmetry_space_group_name_H-M	'P1'
_symmetry_Int_Tables_number	1
_symmetry_cell_setting	triclinic
loop_
_symmetry_equiv_pos_as_xyz
  x,y,z
_cell_length_a	12.811457
_cell_length_b	10.489741
_cell_length_c	11.892095
_cell_angle_alpha	93.929268
_cell_angle_beta	91.498327
_cell_angle_gamma	84.290239
loop_
_atom_site_label
_atom_site_type_symbol
_atom_site_fract_x
_atom_site_fract_y
_atom_site_fract_z
O1	O	1.390523	0.175985	0.048548
O2	O	1.087282	0.191984	0.017459
O3	O	1.245802	-0.001593	0.033718
O4	O	1.232003	0.369561	0.032290
O5	O	1.232585	0.014522	0.220370
O6	O	1.074065	0.208099	0.204111
O7	O	1.377305	0.192099	0.235200
Zn8	Zn	1.223587	0.202658	0.249291
Zn9	Zn	1.241001	0.181426	0.003369
O10	O	1.218786	0.385676	0.218942
C11	C	1.041844	0.198651	0.106804
C12	C	0.926143	0.194493	0.094942
C13	C	0.694318	0.204226	0.276163
C14	C	0.585606	0.200319	0.265023
C15	C	0.600006	0.182763	0.061524
C16	C	0.708718	0.186670	0.072664
C17	C	0.755869	0.197403	0.179987
C18	C	0.864582	0.201319	0.191125
C19	C	0.878981	0.183755	-0.012373
C20	C	0.770270	0.179848	-0.023512
C21	C	1.238151	-0.041070	0.126936
C22	C	1.235033	-0.182709	0.126615
C23	C	1.134172	-0.251147	0.116266
C24	C	1.175301	-0.335184	0.213180
C25	C	1.188356	-0.351046	0.029158
C26	C	1.276198	-0.264873	0.223609
C27	C	1.289245	-0.280734	0.039503
C28	C	1.330446	-0.364741	0.136447
C29	C	1.422744	0.185432	0.145853
C30	C	1.538446	0.189590	0.157707
C31	C	1.226437	0.425153	0.125721
C32	C	1.229555	0.566791	0.126035
N33	N	1.211709	0.217147	0.417127
N34	N	1.252886	0.166926	-0.164466
C35	C	1.335533	0.066027	0.666475
C36	C	1.327238	0.076165	0.783966
C37	C	1.186822	0.247553	0.769602
C38	C	1.195116	0.237415	0.652111
C39	C	1.269475	0.146651	0.600551
C40	C	1.277774	0.136520	0.483059
C41	C	1.137353	0.307902	0.468696
C42	C	1.129059	0.318039	0.586188
H43	H	0.929108	0.178207	-0.090687
N44	N	1.434562	-0.426439	0.147205
N45	N	1.458750	-0.493556	0.228578
H46	H	1.532281	-0.537132	0.236183
H47	H	1.051237	-0.201732	0.107856
N48	N	1.349646	-0.250068	-0.052629
N49	N	1.322039	-0.280476	-0.151641
H50	H	1.364691	-0.258817	-0.216720
H51	H	1.126274	0.321443	0.811596
N52	N	0.722118	0.168871	-0.133141
N53	N	0.748016	0.073707	-0.199112
H54	H	0.714012	0.065955	-0.276541
H55	H	1.151177	-0.388854	-0.053029
N56	N	1.114844	-0.365812	0.305290
N57	N	1.020338	-0.323556	0.312118
H58	H	0.977633	-0.345184	0.377166
N59	N	1.322773	-0.217593	0.326800
N60	N	1.332652	-0.100440	0.343723
H61	H	1.365542	-0.067044	0.416601
H62	H	1.381028	0.010511	0.837638
H63	H	1.396086	-0.007868	0.624495
H64	H	1.338323	0.062619	0.441081
H65	H	1.068514	0.391935	0.628180
N66	N	0.742481	0.215176	0.385788
N67	N	0.810464	0.129592	0.415637
H68	H	0.844476	0.137327	0.493064
N69	N	1.069886	0.390286	0.401362
N70	N	1.108179	0.464308	0.339254
H71	H	1.060536	0.522497	0.291700
N72	N	0.912730	0.212309	0.300756
N73	N	0.857755	0.218409	0.386617
H74	H	0.891755	0.226174	0.464048
H75	H	0.561598	0.174003	-0.025853
N76	N	0.522748	0.207280	0.363276
N77	N	0.564866	0.216857	0.459088
H78	H	0.520474	0.221771	0.528485
