data_functionalizedCrystal
_audit_creation_method	'MofGen! by Chris Wilmer'
_symmetry_space_group_name_H-M	'P1'
_symmetry_Int_Tables_number	1
_symmetry_cell_setting	triclinic
loop_
_symmetry_equiv_pos_as_xyz
  x,y,z
_cell_length_a	15.698487
_cell_length_b	19.851628
_cell_length_c	19.851628
_cell_angle_alpha	90.005779
_cell_angle_beta	60.003958
_cell_angle_gamma	59.999439
loop_
_atom_site_label
_atom_site_type_symbol
_atom_site_fract_x
_atom_site_fract_y
_atom_site_fract_z
Zr1	Zr	0.932289	0.648997	-0.088317
O2	O	1.110002	0.541434	-0.195885
O3	O	0.754577	0.681968	-0.055341
O4	O	0.932271	0.681973	-0.195868
O5	O	0.932321	0.541429	0.055492
O6	O	0.932255	0.792834	-0.195855
O7	O	0.932308	0.541430	-0.055358
O8	O	0.614393	0.792826	0.055522
O9	O	1.250183	0.541437	-0.195885
O10	O	0.827659	0.778768	-0.041267
O11	O	0.827681	0.696032	0.041449
O12	O	1.036893	0.696038	-0.124003
O13	O	1.036915	0.613302	-0.041287
Zr14	Zr	0.932283	0.825807	0.088498
Zr15	Zr	0.932262	0.825808	-0.088295
Zr16	Zr	0.932309	0.648995	0.088477
Zr17	Zr	1.155861	0.649001	-0.088316
Zr18	Zr	0.708711	0.825803	0.088498
O19	O	1.109994	0.792836	0.055523
O20	O	1.109965	0.792838	-0.195854
O21	O	1.110031	0.541432	0.055492
O22	O	0.754569	0.933369	0.196067
O23	O	0.754540	0.933371	-0.055311
O24	O	0.754607	0.681966	0.196036
O25	O	0.932250	0.933375	-0.055310
O26	O	0.932300	0.792831	0.196050
O27	O	0.932317	0.681969	0.196036
O28	O	0.932263	0.933374	0.055540
O29	O	1.250162	0.681979	-0.195868
O30	O	0.614409	0.792825	0.196049
O31	O	0.614388	0.933367	0.196066
O32	O	0.614372	0.933368	0.055539
O33	O	1.250199	0.541436	-0.055358
O34	O	1.250179	0.681978	-0.055341
O35	O	0.827679	0.778766	0.124185
O36	O	0.827657	0.861502	0.041469
O37	O	1.036890	0.778772	-0.041267
O38	O	1.036912	0.696036	0.041449
C39	C	0.652631	0.737396	0.000090
C40	C	0.557718	0.737394	0.000090
C41	C	0.480637	0.737394	0.000092
C42	C	0.383931	0.737400	0.000094
C43	C	0.932319	0.516237	0.000064
C44	C	0.932330	0.441176	0.000055
C45	C	1.046386	0.214723	-0.045029
C46	C	0.989353	0.192361	-0.077716
C47	C	0.932298	0.303769	0.000078
C48	C	0.989339	0.192391	0.032750
C49	C	0.932277	0.171037	0.000101
C50	C	0.875265	0.282396	-0.032654
C51	C	0.875267	0.282423	0.077855
C52	C	0.818151	0.260114	0.045188
C53	C	0.932314	0.380232	0.000064
C54	C	0.932252	0.094580	0.000114
C55	C	1.211941	0.737408	0.000091
C56	C	1.306853	0.737409	0.000091
C57	C	0.932260	0.737404	-0.221051
C58	C	0.932251	0.737404	-0.296104
C59	C	0.932253	0.958566	0.000118
C60	C	0.932242	1.033628	0.000127
C61	C	0.818194	0.782513	-0.477254
C62	C	0.875193	0.815217	-0.454870
C63	C	0.932298	0.737402	-0.566287
C64	C	0.875240	0.704738	-0.454909
C65	C	0.932269	0.737404	-0.433535
C66	C	0.989299	0.770151	-0.544892
C67	C	0.989329	0.659629	-0.544929
C68	C	1.046412	0.692314	-0.522598
C69	C	0.932312	0.737402	-0.642761
C70	C	0.932264	0.737405	-0.357066
C71	C	0.932311	0.737400	0.221232
C72	C	0.932320	0.737400	0.296286
C73	C	0.652598	0.958561	0.000117
C74	C	0.557674	1.033620	0.000126
C75	C	0.652657	0.737394	0.221232
C76	C	0.557753	0.737392	0.296285
C77	C	0.652624	0.958559	0.221259
C78	C	0.557709	1.033618	0.296321
C79	C	1.211948	0.516245	-0.221077
C80	C	1.306862	0.441186	-0.296139
C81	C	1.211973	0.516243	0.000064
C82	C	1.306897	0.441184	0.000055
C83	C	1.211915	0.737409	-0.221050
C84	C	1.306818	0.737412	-0.296103
C85	C	0.513099	1.025682	-0.043064
C86	C	0.423920	1.096202	-0.043072
C87	C	0.379313	1.174658	0.000116
C88	C	0.423898	1.182594	0.043308
C89	C	0.513081	1.112076	0.043310
C90	C	0.513184	0.780577	0.374726
C91	C	0.424024	0.780572	0.445253
C92	C	0.379429	0.737385	0.437338
C93	C	0.424007	0.694195	0.358889
C94	C	0.513171	0.694196	0.288363
C95	C	0.513125	1.112061	0.288394
C96	C	0.423955	1.182593	0.358916
C97	C	0.379364	1.174681	0.437365
C98	C	0.423958	1.096230	0.445290
C99	C	0.513132	1.025699	0.374769
C100	C	1.351458	0.362743	-0.288213
C101	C	1.440655	0.292211	-0.358735
C102	C	1.485250	0.300123	-0.437183
C103	C	1.440651	0.378574	-0.445109
C104	C	1.351461	0.449105	-0.374587
C105	C	1.351482	0.449121	0.043239
C106	C	1.440685	0.378602	0.043227
C107	C	1.485295	0.300146	0.000037
C108	C	1.440706	0.292209	-0.043152
C109	C	1.351511	0.362728	-0.043145
C110	C	1.351385	0.780607	-0.288162
C111	C	1.440545	0.780625	-0.358675
C112	C	1.485143	0.737444	-0.437130
C113	C	1.440568	0.694247	-0.445070
C114	C	1.351403	0.694234	-0.374557
H115	H	1.037565	0.153552	-0.143482
H116	H	0.387566	1.246483	0.078469
C117	C	0.281204	1.252221	0.000114
H118	H	0.261042	1.236250	-0.031789
H119	H	0.310412	1.284135	-0.023001
H120	H	0.211614	1.284122	0.055138
H121	H	1.315213	0.356253	-0.078308
H122	H	0.549363	1.118550	0.078486
H123	H	1.315153	0.356285	-0.224342
H124	H	0.826960	0.880991	-0.416064
H125	H	0.549483	0.815745	0.381186
H126	H	0.387639	1.089799	0.509172
H127	H	0.387740	0.815745	0.509123
C128	C	0.281344	0.737396	0.514920
H129	H	0.261184	0.769310	0.562768
H130	H	0.310570	0.682377	0.514929
H131	H	0.211748	0.760527	0.514935
H132	H	0.387685	0.659033	0.352456
C133	C	0.562180	0.646696	0.202083
H134	H	0.522837	0.620985	0.207478
H135	H	0.646378	0.605826	0.172761
H136	H	0.547535	0.683978	0.172786
C137	C	0.562161	1.120780	0.202110
H138	H	0.522837	1.177604	0.207501
H139	H	0.547543	1.095069	0.172799
H140	H	0.646362	1.095062	0.172805
C141	C	1.054499	0.139995	0.070081
H142	H	1.135548	0.123317	0.037960
H143	H	1.053395	0.092584	0.070296
H144	H	1.014763	0.171772	0.125015
H145	H	1.037521	0.593870	-0.583734
C146	C	1.302339	0.828113	-0.201871
H147	H	1.341652	0.853845	-0.207252
H148	H	1.316966	0.790841	-0.172567
H149	H	1.218136	0.868981	-0.172564
C150	C	1.054383	0.807580	-0.597140
H151	H	1.081568	0.823175	-0.570940
H152	H	1.000334	0.854773	-0.602408
H153	H	1.121416	0.767872	-0.650308
C154	C	1.176817	0.640794	-0.547693
H155	H	1.217148	0.664124	-0.579092
H156	H	1.217646	0.585782	-0.579901
H157	H	1.176103	0.640709	-0.499558
H158	H	0.721736	0.820705	-0.458826
C159	C	0.810084	0.667411	-0.402514
H160	H	0.729039	0.699528	-0.385849
H161	H	0.811175	0.667211	-0.355098
H162	H	0.849828	0.612468	-0.434280
H163	H	1.476953	0.228339	-0.352266
C164	C	0.374906	1.268878	0.350184
H165	H	0.414223	1.263483	0.293362
H166	H	0.389526	1.298194	0.375889
H167	H	0.290705	1.298184	0.375903
H168	H	0.306753	1.232118	0.494781
C169	C	0.562157	0.939390	-0.090580
H170	H	0.522837	0.944774	-0.116308
H171	H	0.547549	0.910076	-0.053316
H172	H	0.646357	0.910088	-0.131448
C173	C	0.562152	0.939416	0.383498
H174	H	0.522809	0.944813	0.440321
H175	H	0.646349	0.910094	0.357784
H176	H	0.547513	0.910115	0.357790
C177	C	1.583341	0.222535	-0.514750
H178	H	1.603495	0.174686	-0.498786
H179	H	1.652929	0.222517	-0.546662
H180	H	1.554093	0.222527	-0.546646
C181	C	1.489704	0.387267	-0.531404
H182	H	1.549197	0.334023	-0.572262
H183	H	1.524493	0.416572	-0.537602
H184	H	1.425676	0.416558	-0.537591
H185	H	1.476893	0.659090	-0.508957
C186	C	1.489576	0.828132	-0.349927
H187	H	1.450256	0.853831	-0.293102
H188	H	1.474947	0.869011	-0.375623
H189	H	1.573778	0.790851	-0.375647
C190	C	1.302401	0.535388	-0.383317
H191	H	1.341731	0.529991	-0.440140
H192	H	1.317000	0.564713	-0.357602
H193	H	1.218204	0.564685	-0.357609
H194	H	1.476974	0.385080	0.078400
C195	C	0.374881	1.087457	-0.090575
H196	H	0.414209	1.030631	-0.116280
H197	H	0.389493	1.113162	-0.131447
H198	H	0.290681	1.113174	-0.053294
H199	H	1.315167	0.512998	0.078415
H200	H	1.557924	0.242732	0.000038
H201	H	1.477042	0.228321	-0.078316
H202	H	1.557747	0.737461	-0.494540
H203	H	1.142852	0.196274	-0.083229
C204	C	0.810175	0.334659	-0.070078
H205	H	0.810617	0.382339	-0.069885
H206	H	0.729349	0.350902	-0.038277
H207	H	0.850426	0.302979	-0.125174
H208	H	1.315127	0.659056	-0.381035
H209	H	0.721606	0.278718	0.083334
H210	H	0.827096	0.321230	0.143607
