data_functionalizedCrystal
_audit_creation_method	'MofGen! by Chris Wilmer'
_symmetry_space_group_name_H-M	'P1'
_symmetry_Int_Tables_number	1
_symmetry_cell_setting	triclinic
loop_
_symmetry_equiv_pos_as_xyz
  x,y,z
_cell_length_a	19.288864
_cell_length_b	12.837942
_cell_length_c	18.366186
_cell_angle_alpha	89.994829
_cell_angle_beta	89.977106
_cell_angle_gamma	88.982593
loop_
_atom_site_label
_atom_site_type_symbol
_atom_site_fract_x
_atom_site_fract_y
_atom_site_fract_z
O1	O	0.930180	0.129276	-0.060785
O2	O	0.729110	0.146715	-0.060736
O3	O	0.825187	-0.012886	-0.060755
O4	O	0.834104	0.288877	-0.060766
O5	O	0.825168	-0.012894	0.060345
O6	O	0.729092	0.146707	0.060364
O7	O	0.930162	0.129268	0.060314
Zn8	Zn	0.829624	0.137986	0.079566
Zn9	Zn	0.829648	0.137997	-0.079987
O10	O	0.834085	0.288870	0.060334
C11	C	0.703186	0.146150	-0.000179
C12	C	0.625968	0.144466	-0.000160
C13	C	0.587666	0.238113	-0.000175
C14	C	0.515111	0.236530	-0.000183
C15	C	0.480860	0.141295	-0.000191
C16	C	0.519171	0.047636	-0.000172
C17	C	0.591725	0.049221	-0.000157
C18	C	0.367493	0.066433	-0.042639
C19	C	0.294940	0.064852	-0.042659
C20	C	0.257081	0.136402	-0.000235
C21	C	0.291782	0.209552	0.042200
C22	C	0.364336	0.211137	0.042215
C23	C	0.402188	0.139566	-0.000207
C24	C	0.140106	0.228340	-0.000257
C25	C	0.067550	0.226753	-0.000261
C26	C	0.071611	0.037857	-0.000257
C27	C	0.144166	0.039446	-0.000246
C28	C	0.178409	0.134690	-0.000250
C29	C	0.822165	-0.051497	-0.000205
C30	C	0.813181	-0.166532	-0.000204
C31	C	0.921187	-0.407995	-0.000245
C32	C	0.912748	-0.516081	-0.000245
C33	C	0.787867	-0.490793	-0.000206
C34	C	0.796305	-0.382707	-0.000207
C35	C	0.862967	-0.341312	-0.000226
C36	C	0.871405	-0.233223	-0.000221
C37	C	0.746524	-0.207938	-0.000188
C38	C	0.738086	-0.316024	-0.000187
C39	C	0.956086	0.129833	-0.000243
C40	C	1.033304	0.131518	-0.000267
C41	C	0.837107	0.327480	-0.000218
C42	C	0.846091	0.442515	-0.000224
N43	N	0.829612	0.137979	0.188457
N44	N	0.829665	0.137996	-0.188879
C45	C	0.872172	0.067342	0.226549
C46	C	0.872177	0.067337	0.302777
C47	C	0.829628	0.137987	0.340910
C48	C	0.787059	0.208630	0.302809
C49	C	0.787051	0.208625	0.226583
C50	C	0.826777	0.232410	0.461668
C51	C	0.826790	0.232416	0.537893
C52	C	0.829649	0.138000	0.576018
C53	C	0.832508	0.043575	0.537908
C54	C	0.832500	0.043571	0.461681
C55	C	0.829632	0.137999	0.423565
C56	C	0.872216	0.067352	0.696764
C57	C	0.872215	0.067346	0.772994
C58	C	0.787101	0.208648	0.773024
C59	C	0.787098	0.208645	0.696796
C60	C	0.829659	0.137998	0.658671
H61	H	0.167988	0.305893	-0.000250
F62	F	0.184932	-0.060228	-0.000234
F63	F	0.716927	-0.534868	-0.000205
F64	F	0.942351	-0.189169	-0.000236
H65	H	0.975465	-0.374291	-0.000253
F66	F	0.974714	-0.587047	-0.000268
H67	H	0.615542	0.315668	-0.000180
F68	F	0.258015	-0.012991	-0.087827
H69	H	0.834827	-0.033313	0.430655
F70	F	0.667144	-0.360092	-0.000174
F71	F	0.407779	-0.009727	-0.087795
H72	H	0.906869	0.009824	0.665722
F73	F	0.741803	0.283831	0.656253
H74	H	0.483920	0.312791	-0.000193
F75	F	0.482718	-0.053720	-0.000177
F76	F	0.251495	0.285708	0.087354
F77	F	0.741751	0.283810	0.186041
F78	F	0.026786	0.326431	-0.000273
H79	H	0.699118	-0.153632	-0.000166
F80	F	0.035164	-0.063500	-0.000258
H81	H	0.906835	0.009814	0.333797
F82	F	0.401265	0.288982	0.087378
H83	H	0.906826	0.009815	0.195510
F84	F	0.917511	-0.007844	0.813535
F85	F	0.835555	-0.056917	0.578476
H86	H	0.622910	-0.027040	-0.000145
F87	F	0.741813	0.283833	0.813604
F88	F	0.823751	0.332910	0.578446
F89	F	0.823786	0.332909	0.421101
F90	F	0.741773	0.283817	0.343393
