data_functionalizedCrystal
_audit_creation_method	'MofGen! by Chris Wilmer'
_symmetry_space_group_name_H-M	'P1'
_symmetry_Int_Tables_number	1
_symmetry_cell_setting	triclinic
loop_
_symmetry_equiv_pos_as_xyz
  x,y,z
_cell_length_a	17.077404
_cell_length_b	18.050589
_cell_length_c	17.077396
_cell_angle_alpha	89.973754
_cell_angle_beta	89.982940
_cell_angle_gamma	90.028446
loop_
_atom_site_label
_atom_site_type_symbol
_atom_site_fract_x
_atom_site_fract_y
_atom_site_fract_z
Zn1	Zn	1.200007	-0.295643	-0.443864
Zn2	Zn	1.199907	-0.419844	-0.312606
Zn3	Zn	1.068744	-0.295673	-0.312612
Zn4	Zn	1.068694	-0.419796	-0.443830
O5	O	1.134338	-0.357739	-0.378228
O6	O	1.309840	-0.312126	-0.426464
O7	O	1.182487	-0.403405	-0.202760
O8	O	1.086219	-0.191744	-0.330039
O9	O	1.309767	-0.403376	-0.330030
O10	O	1.182657	-0.191723	-0.426469
O11	O	1.086122	-0.312177	-0.202764
O12	O	0.958891	-0.312131	-0.330006
O13	O	1.086134	-0.403295	-0.553681
O14	O	0.958854	-0.403324	-0.426412
O15	O	1.182609	-0.312080	-0.553706
O16	O	1.182439	-0.523762	-0.329997
O17	O	1.086037	-0.523727	-0.426407
C18	C	0.930390	-0.357726	-0.378206
C19	C	0.843140	-0.357738	-0.378216
C20	C	1.134243	-0.550691	-0.378215
C21	C	1.134275	-0.633237	-0.378236
C22	C	0.802152	-0.405294	-0.428333
C23	C	0.720171	-0.405295	-0.428346
C24	C	0.679181	-0.357744	-0.378236
C25	C	0.720175	-0.310183	-0.328116
C26	C	0.802154	-0.310178	-0.328108
C27	C	0.549305	-0.310198	-0.328135
C28	C	0.467321	-0.310203	-0.328142
C29	C	0.467322	-0.405315	-0.428373
C30	C	0.549301	-0.405310	-0.428365
C31	C	0.590290	-0.357750	-0.378244
C32	C	1.081903	-0.832696	-0.430645
C33	C	1.062771	-0.882139	-0.359016
C34	C	1.134352	-0.784367	-0.378246
C35	C	1.153522	-0.882005	-0.449883
C36	C	1.134425	-0.930352	-0.378262
C37	C	1.115182	-0.832724	-0.306579
C38	C	1.205967	-0.832586	-0.397495
C39	C	1.186862	-0.882007	-0.325816
C40	C	1.134308	-0.700269	-0.378238
C41	C	1.134469	-1.014449	-0.378262
C42	C	1.339082	-0.357753	-0.378250
C43	C	1.426332	-0.357759	-0.378260
C44	C	1.134377	-0.357679	-0.582972
C45	C	1.134393	-0.357653	-0.670222
C46	C	1.134455	-0.164033	-0.378258
C47	C	1.134504	-0.081488	-0.378271
C48	C	1.184642	-0.405069	-1.046037
C49	C	1.184622	-0.405091	-0.964057
C50	C	1.134444	-0.357601	-0.923071
C51	C	1.084277	-0.310091	-0.964070
C52	C	1.084293	-0.310074	-1.046049
C53	C	1.084247	-0.310130	-0.793200
C54	C	1.084232	-0.310146	-0.711216
C55	C	1.184576	-0.405147	-0.711208
C56	C	1.184593	-0.405129	-0.793187
C57	C	1.134426	-0.357619	-0.834180
C58	C	1.134345	-0.357745	-0.174280
C59	C	1.134480	-0.357562	-0.087031
H60	H	0.835520	-0.444018	-0.469136
H61	H	1.002243	-0.903922	-0.342749
H62	H	1.231247	-0.903522	-0.281460
O63	O	0.680476	-0.451570	-0.477046
C64	C	0.689129	-0.545895	-0.576473
C65	C	0.734180	-0.493534	-0.521348
H66	H	0.732529	-0.579825	-0.612317
H67	H	0.650741	-0.584731	-0.540395
H68	H	0.650756	-0.511849	-0.617557
H69	H	0.772596	-0.527520	-0.480253
H70	H	0.772518	-0.454696	-0.557475
O71	O	0.680323	-0.264095	-0.279359
C72	C	0.587689	-0.253979	-0.173441
C73	C	0.632786	-0.306257	-0.228598
H74	H	0.549232	-0.288045	-0.132398
H75	H	0.631031	-0.219997	-0.137562
H76	H	0.549376	-0.215180	-0.209575
H77	H	0.671100	-0.345101	-0.192525
H78	H	0.589401	-0.340187	-0.264480
O79	O	1.233361	-0.451329	-0.832880
C80	C	1.332919	-0.545529	-0.824226
C81	C	1.277718	-0.493256	-0.779176
H82	H	1.368808	-0.579429	-0.780825
H83	H	1.296898	-0.584397	-0.862572
H84	H	1.373958	-0.511415	-0.862641
H85	H	1.236669	-0.527310	-0.740718
H86	H	1.313788	-0.454386	-0.740879
H87	H	1.098927	-0.811165	-0.245986
H88	H	0.582673	-0.444034	-0.469164
H89	H	1.266481	-0.810805	-0.413795
O90	O	0.589155	-0.263920	-0.279557
C91	C	0.681788	-0.163665	-0.269151
C92	C	0.636694	-0.216010	-0.324258
H93	H	0.720246	-0.124927	-0.305269
H94	H	0.638443	-0.129629	-0.233350
H95	H	0.720099	-0.197729	-0.228026
H96	H	0.598382	-0.182004	-0.365431
H97	H	0.680081	-0.250048	-0.360005
H98	H	1.169708	-0.903653	-0.510460
H99	H	0.835526	-0.271449	-0.287301
H100	H	0.433945	-0.444038	-0.469186
H101	H	0.433949	-0.271474	-0.287347
O102	O	1.029024	-0.806823	-0.483524
C103	C	1.007922	-0.734464	-0.600230
C104	C	1.067892	-0.763730	-0.540417
H105	H	1.039321	-0.699604	-0.646233
H106	H	0.977454	-0.783147	-0.629895
H107	H	0.962576	-0.698932	-0.568802
H108	H	1.113285	-0.799250	-0.571785
H109	H	1.098300	-0.715013	-0.510753
H110	H	1.225424	-0.443831	-0.677827
O111	O	1.035405	-0.264001	-0.671522
C112	C	0.935888	-0.169763	-0.680176
C113	C	0.991135	-0.221992	-0.725226
H114	H	0.900093	-0.135773	-0.723577
H115	H	0.894771	-0.203840	-0.641808
H116	H	0.971948	-0.130969	-0.641784
H117	H	0.955139	-0.260795	-0.763661
H118	H	1.032254	-0.187868	-0.763546
H119	H	1.225507	-0.443738	-1.079402
O120	O	1.035434	-0.264083	-0.833059
C121	C	0.929515	-0.254050	-0.925647
C122	C	0.984727	-0.306284	-0.880543
H123	H	0.888515	-0.288148	-0.964061
H124	H	0.893593	-0.220120	-0.882310
H125	H	0.965609	-0.215202	-0.964005
H126	H	0.948694	-0.345178	-0.842184
H127	H	1.020652	-0.340163	-0.923922
O128	O	1.035569	-0.263857	-0.924348
C129	C	0.997566	-0.137531	-0.899261
C130	C	1.052765	-0.189810	-0.944306
H131	H	1.011460	-0.077652	-0.915368
H132	H	0.934253	-0.150504	-0.915387
H133	H	1.006156	-0.145739	-0.833630
H134	H	1.044245	-0.181631	-1.009947
H135	H	1.116057	-0.176824	-0.928115
O136	O	1.035458	-0.263960	-1.085787
C137	C	0.901957	-0.227924	-1.110900
C138	C	0.957180	-0.280180	-1.065837
H139	H	0.838657	-0.241030	-1.094800
H140	H	0.915712	-0.168033	-1.094784
H141	H	0.910626	-0.236058	-1.176528
H142	H	0.948542	-0.272113	-1.000198
H143	H	0.943412	-0.340052	-1.082018
H144	H	1.225459	-0.443785	-0.930683
