data_functionalizedCrystal
_audit_creation_method	'MofGen! by Chris Wilmer'
_symmetry_space_group_name_H-M	'P1'
_symmetry_Int_Tables_number	1
_symmetry_cell_setting	triclinic
loop_
_symmetry_equiv_pos_as_xyz
  x,y,z
_cell_length_a	23.532407
_cell_length_b	23.532407
_cell_length_c	13.930277
_cell_angle_alpha	89.990782
_cell_angle_beta	89.995466
_cell_angle_gamma	82.848712
loop_
_atom_site_label
_atom_site_type_symbol
_atom_site_fract_x
_atom_site_fract_y
_atom_site_fract_z
O1	O	0.755262	0.069135	-0.079780
O2	O	1.255262	0.569135	0.420220
O3	O	0.589398	0.079138	-0.079797
O4	O	1.089398	0.579138	0.420203
O5	O	0.677332	-0.008795	-0.079770
O6	O	1.177332	0.491205	0.420230
O7	O	0.667328	0.157068	-0.079806
O8	O	1.167328	0.657068	0.420194
O9	O	0.677320	-0.008797	0.079892
O10	O	1.177320	0.491203	0.579892
O11	O	0.589386	0.079136	0.079865
O12	O	1.089386	0.579136	0.579865
O13	O	0.755250	0.069133	0.079882
O14	O	1.255250	0.569133	0.579882
Zn15	Zn	0.672316	0.074134	0.105223
Zn16	Zn	1.172316	0.574134	0.605223
Zn17	Zn	0.672332	0.074137	-0.105138
Zn18	Zn	1.172332	0.574137	0.394862
O19	O	0.667316	0.157066	0.079856
O20	O	1.167316	0.657066	0.579856
C21	C	0.568176	0.078882	0.000033
C22	C	1.068176	0.578882	0.500033
C23	C	0.504959	0.078116	0.000027
C24	C	1.004959	0.578116	0.500027
C25	C	0.677071	-0.030012	0.000063
C26	C	1.177071	0.469988	0.500063
C27	C	0.676305	-0.093229	0.000071
C28	C	1.176305	0.406771	0.500071
C29	C	0.238792	0.022921	0.000065
C30	C	0.738792	0.522921	0.500065
C31	C	0.298192	0.023632	0.000065
C32	C	0.798192	0.523632	0.500065
O33	O	0.334937	-0.020153	0.000108
O34	O	0.834937	0.479847	0.500108
N35	N	0.320818	0.075909	0.000047
N36	N	0.820818	0.575909	0.500047
C37	C	0.284041	0.127477	0.000039
C38	C	0.784041	0.627477	0.500039
O39	O	0.308740	0.172007	0.000025
O40	O	0.808740	0.672007	0.500025
C41	C	0.224642	0.126765	0.000046
C42	C	0.724642	0.626765	0.500046
C43	C	0.202019	0.074485	0.000055
C44	C	0.702019	0.574485	0.500055
C45	C	0.216168	-0.029354	0.000074
C46	C	0.716168	0.470646	0.500074
C47	C	0.156772	-0.030066	0.000073
C48	C	0.656772	0.469934	0.500073
C49	C	0.119999	0.021499	0.000062
C50	C	0.619999	0.521499	0.500062
C51	C	0.142623	0.073774	0.000053
C52	C	0.642623	0.573774	0.500053
C53	C	0.187865	0.178333	0.000045
C54	C	0.687865	0.678333	0.500045
C55	C	0.128463	0.177616	0.000053
C56	C	0.628463	0.677616	0.500053
C57	C	0.105840	0.125336	0.000062
C58	C	0.605840	0.625336	0.500062
C59	C	0.046454	0.124627	0.000041
C60	C	0.546454	0.624627	0.500041
N61	N	0.023828	0.072351	0.000059
N62	N	0.523828	0.572351	0.500059
C63	C	0.060600	0.020787	0.000070
C64	C	0.560600	0.520787	0.500070
C65	C	0.408783	0.128968	0.000025
C66	C	0.908783	0.628968	0.500025
C67	C	0.468181	0.129681	0.000011
C68	C	0.968181	0.629681	0.500011
C69	C	0.482328	0.025836	0.000039
C70	C	0.982328	0.525836	0.500039
C71	C	0.422929	0.025124	0.000046
C72	C	0.922929	0.525124	0.500046
C73	C	0.386157	0.076692	0.000043
C74	C	0.886157	0.576692	0.500043
C75	C	-0.064136	0.019297	0.000066
C76	C	0.435864	0.519297	0.500066
C77	C	-0.123538	0.018590	0.000061
C78	C	0.376462	0.518590	0.500061
C79	C	-0.137680	0.122435	0.000038
C80	C	0.362320	0.622435	0.500038
C81	C	-0.078284	0.123142	0.000038
C82	C	0.421716	0.623142	0.500038
C83	C	-0.041512	0.071568	0.000056
C84	C	0.458488	0.571568	0.500056
O85	O	0.009675	0.168390	0.000002
O86	O	0.509675	0.668390	0.500002
O87	O	0.035892	-0.023737	0.000097
O88	O	0.535892	0.476263	0.500097
C89	C	0.723538	-0.492332	0.000023
C90	C	1.223538	0.007668	0.500023
C91	C	0.722827	-0.551733	0.000015
C92	C	1.222827	-0.051733	0.500015
O93	O	0.766613	-0.588477	-0.000016
O94	O	1.266613	-0.088477	0.499984
N95	N	0.670551	-0.574359	0.000011
N96	N	1.170551	-0.074359	0.500011
C97	C	0.618982	-0.537581	0.000004
C98	C	1.118982	-0.037581	0.500004
O99	O	0.574452	-0.562281	-0.000002
O100	O	1.074452	-0.062281	0.499998
C101	C	0.619695	-0.478182	0.000004
C102	C	1.119695	0.021818	0.500004
C103	C	0.671974	-0.455559	0.000019
C104	C	1.171974	0.044441	0.500019
C105	C	0.775814	-0.469709	0.000036
C106	C	1.275814	0.030291	0.500036
C107	C	0.776525	-0.410313	0.000045
C108	C	1.276525	0.089687	0.500045
C109	C	0.724961	-0.373540	0.000041
C110	C	1.224961	0.126460	0.500041
C111	C	0.672685	-0.396163	0.000028
C112	C	1.172685	0.103837	0.500028
C113	C	0.568127	-0.441406	-0.000010
C114	C	1.068127	0.058594	0.499990
C115	C	0.568843	-0.382003	-0.000010
C116	C	1.068843	0.117997	0.499990
C117	C	0.621123	-0.359381	0.000005
C118	C	1.121123	0.140619	0.500005
C119	C	0.621832	-0.299994	0.000033
C120	C	1.121832	0.200006	0.500033
N121	N	0.674109	-0.277368	0.000037
N122	N	1.174109	0.222632	0.500037
C123	C	0.725673	-0.314141	0.000041
C124	C	1.225673	0.185859	0.500041
C125	C	0.617491	-0.662324	0.000001
C126	C	1.117491	-0.162324	0.500001
C127	C	0.616778	-0.721722	0.000007
C128	C	1.116778	-0.221722	0.500007
C129	C	0.720623	-0.735869	0.000017
C130	C	1.220623	-0.235869	0.500017
C131	C	0.721335	-0.676470	0.000018
C132	C	1.221335	-0.176470	0.500018
C133	C	0.669767	-0.639698	0.000006
C134	C	1.169767	-0.139698	0.500006
C135	C	0.727163	-0.189404	0.000061
C136	C	1.227163	0.310596	0.500061
C137	C	0.727869	-0.130002	0.000075
C138	C	1.227869	0.369998	0.500075
C139	C	0.624025	-0.115860	0.000060
C140	C	1.124025	0.384140	0.500060
C141	C	0.623318	-0.175257	0.000052
C142	C	1.123318	0.324743	0.500052
C143	C	0.674891	-0.212028	0.000049
C144	C	1.174891	0.287972	0.500049
O145	O	0.578069	-0.263215	0.000060
O146	O	1.078069	0.236785	0.500060
O147	O	0.770196	-0.289433	0.000034
O148	O	1.270196	0.210567	0.500034
C149	C	0.776472	0.069389	0.000051
C150	C	1.276472	0.569389	0.500051
C151	C	0.839689	0.070155	0.000050
C152	C	1.339689	0.570155	0.500050
C153	C	0.667577	0.178283	0.000020
C154	C	1.167577	0.678283	0.500020
C155	C	0.668343	0.241500	0.000006
C156	C	1.168343	0.741500	0.500006
N157	N	0.672309	0.074132	0.248789
N158	N	1.172309	0.574132	0.748789
N159	N	0.672343	0.074134	-0.248704
N160	N	1.172343	0.574134	0.251296
C161	C	0.633394	0.113058	0.701047
C162	C	1.133394	0.613058	1.201047
C163	C	0.711286	0.035210	0.701040
C164	C	1.211286	0.535210	1.201040
C165	C	0.711279	0.035209	0.600544
C166	C	1.211279	0.535209	1.100544
C167	C	0.672330	0.074133	0.550295
C168	C	1.172330	0.574133	1.050295
C169	C	0.633387	0.113059	0.600542
C170	C	1.133387	0.613059	1.100542
C171	C	0.750225	-0.003713	0.550290
C172	C	1.250225	0.496287	1.050290
C173	C	0.750220	-0.003716	0.449788
C174	C	1.250220	0.496284	0.949788
C175	C	0.711268	0.035206	0.399537
C176	C	1.211268	0.535206	0.899537
C177	C	0.672323	0.074133	0.449790
C178	C	1.172323	0.574133	0.949790
C179	C	0.633373	0.113058	0.399541
C180	C	1.133373	0.613058	0.899541
C181	C	0.594425	0.151983	0.449793
C182	C	1.094425	0.651983	0.949793
C183	C	0.594434	0.151981	0.550291
C184	C	1.094434	0.651981	1.050291
C185	C	0.711259	0.035208	0.299038
C186	C	1.211259	0.535208	0.799038
C187	C	0.633366	0.113058	0.299036
C188	C	1.133366	0.613058	0.799036
H189	H	-0.141954	-0.023984	0.000065
H190	H	0.358046	0.476016	0.500065
H191	H	0.742972	0.003519	0.258128
H192	H	1.242972	0.503519	0.758128
H193	H	0.206274	0.220904	0.000034
H194	H	0.706274	0.720904	0.500034
C195	C	-0.024152	-0.036653	-0.000073
C196	C	0.475848	0.463347	0.499927
C197	C	0.010375	-0.039272	-0.082205
C198	C	0.510375	0.460728	0.417795
C199	C	0.047220	-0.090801	-0.082367
C200	C	0.547220	0.409199	0.417633
H201	H	-0.046067	-0.067932	-0.000119
H202	H	0.453933	0.432068	0.499881
H203	H	-0.000653	-0.038546	0.055575
H204	H	0.499347	0.461454	0.555575
H205	H	-0.013121	-0.037385	-0.137838
H206	H	0.486879	0.462615	0.362162
H207	H	0.032302	-0.008005	-0.082176
H208	H	0.532302	0.491995	0.417824
H209	H	0.070718	-0.092693	-0.026719
H210	H	0.570718	0.407307	0.473281
H211	H	0.025300	-0.122076	-0.082411
H212	H	0.525300	0.377924	0.417589
H213	H	0.070654	-0.092582	-0.138087
H214	H	0.570654	0.407418	0.361913
C215	C	0.132326	-0.086886	0.000146
C216	C	0.632326	0.413114	0.500146
C217	C	0.177253	-0.131885	0.000185
C218	C	0.677253	0.368115	0.500185
C219	C	0.154760	-0.184239	0.000270
C220	C	0.654760	0.315761	0.500270
H221	H	0.109459	-0.089412	-0.055511
H222	H	0.609459	0.410588	0.444489
H223	H	0.109467	-0.089354	0.055851
H224	H	0.609467	0.410646	0.555851
H225	H	0.200103	-0.129419	-0.055515
H226	H	0.700103	0.370581	0.444485
H227	H	0.200125	-0.129378	0.055838
H228	H	0.700125	0.370622	0.555838
H229	H	0.131901	-0.186706	0.055976
H230	H	0.631901	0.313294	0.555976
H231	H	0.131893	-0.186759	-0.055388
H232	H	0.631893	0.313241	0.444612
H233	H	0.185239	-0.214777	0.000306
H234	H	0.685239	0.285223	0.500306
C235	C	0.512871	-0.342052	-0.000217
C236	C	1.012871	0.157948	0.499783
C237	C	0.510246	-0.307537	-0.082369
C238	C	1.010246	0.192463	0.417631
C239	C	0.458691	-0.270733	-0.082597
C240	C	0.958691	0.229267	0.417403
H241	H	0.510927	-0.318538	0.055397
H242	H	1.010927	0.181462	0.555397
H243	H	0.481620	-0.364016	-0.000278
H244	H	0.981620	0.135984	0.499722
H245	H	0.541488	-0.285575	-0.082299
H246	H	1.041488	0.214425	0.417701
H247	H	0.512180	-0.331035	-0.137997
H248	H	1.012180	0.168965	0.362003
H249	H	0.427440	-0.292697	-0.082657
H250	H	0.927440	0.207303	0.417343
H251	H	0.456751	-0.247224	-0.026978
H252	H	0.956751	0.252776	0.473022
H253	H	0.456900	-0.247315	-0.138339
H254	H	0.956900	0.252685	0.361661
C255	C	0.256154	-0.085302	-0.000071
C256	C	0.756154	0.414698	0.499929
C257	C	0.290676	-0.087922	-0.082208
C258	C	0.790676	0.412078	0.417792
C259	C	0.327518	-0.139452	-0.082378
C260	C	0.827518	0.360548	0.417622
H261	H	0.234236	-0.116579	-0.000114
H262	H	0.734236	0.383421	0.499886
H263	H	0.279656	-0.087197	0.055573
H264	H	0.779656	0.412803	0.555573
H265	H	0.267176	-0.086033	-0.137838
H266	H	0.767176	0.413967	0.362162
H267	H	0.312606	-0.056657	-0.082183
H268	H	0.812606	0.443343	0.417817
H269	H	0.351020	-0.141347	-0.026734
H270	H	0.851020	0.358653	0.473266
H271	H	0.305595	-0.170725	-0.082418
H272	H	0.805595	0.329275	0.417582
H273	H	0.350949	-0.141235	-0.138102
H274	H	0.850949	0.358765	0.361898
H275	H	0.781939	-0.035401	0.591206
H276	H	1.281939	0.464599	1.091206
C277	C	0.833305	-0.385790	-0.000149
C278	C	1.333305	0.114210	0.499851
C279	C	0.864450	-0.404494	-0.082304
C280	C	1.364450	0.095506	0.417696
C281	C	0.916758	-0.381915	-0.082526
C282	C	1.416758	0.118085	0.417474
H283	H	0.854587	-0.398426	0.055463
H284	H	1.354587	0.101574	0.555463
H285	H	0.826378	-0.345145	-0.000200
H286	H	1.326378	0.154855	0.499800
H287	H	0.871379	-0.445131	-0.082245
H288	H	1.371379	0.054869	0.417755
H289	H	0.843185	-0.391859	-0.137929
H290	H	1.343185	0.108141	0.362071
H291	H	0.909831	-0.341270	-0.082576
H292	H	1.409831	0.158730	0.417424
H293	H	0.938035	-0.394553	-0.026910
H294	H	1.438035	0.105447	0.473090
H295	H	0.937894	-0.394598	-0.138271
H296	H	1.437894	0.105402	0.361729
H297	H	0.486595	0.172252	-0.000009
H298	H	0.986595	0.672252	0.499991
C299	C	0.511306	-0.465846	-0.000079
C300	C	1.011306	0.034154	0.499921
C301	C	0.466308	-0.420918	-0.000114
C302	C	0.966308	0.079082	0.499886
C303	C	0.413953	-0.443409	-0.000193
C304	C	0.913953	0.056591	0.499807
H305	H	0.508774	-0.488720	0.055579
H306	H	1.008774	0.011280	0.555579
H307	H	0.508842	-0.488699	-0.055783
H308	H	1.008842	0.011301	0.444217
H309	H	0.468770	-0.398075	0.055584
H310	H	0.968770	0.101925	0.555584
H311	H	0.468821	-0.398040	-0.055768
H312	H	0.968821	0.101960	0.444232
H313	H	0.411490	-0.466262	-0.055897
H314	H	0.911490	0.033738	0.444103
H315	H	0.411428	-0.466283	0.055466
H316	H	0.911428	0.033717	0.555466
H317	H	0.383416	-0.412929	-0.000226
H318	H	0.883416	0.087071	0.499774
C319	C	0.568024	-0.075957	0.000246
C320	C	1.068024	0.424043	0.500246
C321	C	0.536517	-0.086129	0.082389
C322	C	1.036517	0.413871	0.582389
C323	C	0.484930	-0.049375	0.082589
C324	C	0.984930	0.450625	0.582589
H325	H	0.546514	-0.082745	-0.055375
H326	H	1.046514	0.417255	0.444625
H327	H	0.575915	-0.037333	0.000299
H328	H	1.075915	0.462667	0.500299
H329	H	0.528625	-0.124744	0.082326
H330	H	1.028625	0.375256	0.582326
H331	H	0.558010	-0.079338	0.138022
H332	H	1.058010	0.420662	0.638022
H333	H	0.492820	-0.010752	0.082643
H334	H	0.992820	0.489248	0.582643
H335	H	0.463425	-0.056166	0.026965
H336	H	0.963425	0.443834	0.526965
H337	H	0.463548	-0.056268	0.138326
H338	H	0.963548	0.443732	0.638326
C339	C	-0.177544	0.178461	0.000178
C340	C	0.322456	0.678461	0.500178
C341	C	-0.167358	0.209962	0.082304
C342	C	0.332642	0.709962	0.582304
C343	C	-0.204066	0.261579	0.082466
C344	C	0.295934	0.761579	0.582466
H345	H	-0.216179	0.170627	0.000232
H346	H	0.283821	0.670627	0.500232
H347	H	-0.170710	0.199946	-0.055474
H348	H	0.329290	0.699946	0.444526
H349	H	-0.174197	0.188480	0.137941
H350	H	0.325803	0.688480	0.637941
H351	H	-0.128731	0.217810	0.082268
H352	H	0.371269	0.717810	0.582268
H353	H	-0.197232	0.283065	0.026814
H354	H	0.302768	0.783065	0.526814
H355	H	-0.242698	0.253740	0.082517
H356	H	0.257302	0.753740	0.582517
H357	H	-0.197156	0.282961	0.138182
H358	H	0.302844	0.782961	0.638182
H359	H	0.512280	-0.016150	0.000048
H360	H	1.012280	0.483850	0.500048
C361	C	0.561437	-0.622496	0.000052
C362	C	1.061437	-0.122496	0.500052
C363	C	0.515509	-0.655031	0.000074
C364	C	1.015509	-0.155031	0.500074
C365	C	0.463865	-0.618365	0.000133
C366	C	0.963865	-0.118365	0.500133
H367	H	0.559474	-0.599010	-0.055609
H368	H	1.059474	-0.099010	0.444391
H369	H	0.559520	-0.599044	0.055754
H370	H	1.059520	-0.099044	0.555754
H371	H	0.517426	-0.678472	-0.055622
H372	H	1.017426	-0.178472	0.444378
H373	H	0.517454	-0.678515	0.055731
H374	H	1.017454	-0.178515	0.555731
H375	H	0.461947	-0.594913	0.055834
H376	H	0.961947	-0.094913	0.555834
H377	H	0.461907	-0.594881	-0.055529
H378	H	0.961907	-0.094881	0.444471
H379	H	0.432697	-0.640434	0.000156
H380	H	0.932697	-0.140434	0.500156
H381	H	0.601647	0.144753	0.258130
H382	H	1.101647	0.644753	0.758130
H383	H	0.770443	-0.111587	0.000089
H384	H	1.270443	0.388413	0.500089
H385	H	0.817806	-0.499644	0.000036
H386	H	1.317806	0.000356	0.500036
C387	C	-0.053643	0.179862	0.000181
C388	C	0.446357	0.679862	0.500181
C389	C	-0.019956	0.183295	0.082321
C390	C	0.480044	0.683295	0.582321
C391	C	0.002752	0.235535	0.082492
C392	C	0.502752	0.735535	0.582492
H393	H	-0.083997	0.210516	0.000223
H394	H	0.416003	0.710516	0.500223
H395	H	-0.030727	0.182311	-0.055461
H396	H	0.469273	0.682311	0.444539
H397	H	-0.042871	0.180852	0.137949
H398	H	0.457129	0.680852	0.637949
H399	H	0.010407	0.152653	0.082296
H400	H	0.510407	0.652653	0.582296
H401	H	0.025668	0.237984	0.026850
H402	H	0.525668	0.737984	0.526850
H403	H	-0.027606	0.266185	0.082532
H404	H	0.472394	0.766185	0.582532
H405	H	0.025615	0.237870	0.138218
H406	H	0.525615	0.737870	0.638218
H407	H	0.781933	-0.035411	0.408880
H408	H	1.281933	0.464589	0.908880
H409	H	0.404515	-0.017447	0.000053
H410	H	0.904515	0.482553	0.500053
H411	H	0.378846	0.170964	0.000016
H412	H	0.878846	0.670964	0.500016
H413	H	0.562715	0.183677	0.408868
H414	H	1.062715	0.683677	0.908868
H415	H	0.098525	0.219610	0.000056
H416	H	0.598525	0.719610	0.500056
C417	C	0.783217	-0.229227	0.000113
C418	C	1.283217	0.270773	0.500113
C419	C	0.829144	-0.196690	0.000152
C420	C	1.329144	0.303310	0.500152
C421	C	0.880789	-0.233355	0.000219
C422	C	1.380789	0.266645	0.500219
H423	H	0.785191	-0.252700	-0.055551
H424	H	1.285191	0.247300	0.444449
H425	H	0.785127	-0.252691	0.055811
H426	H	1.285127	0.247309	0.555811
H427	H	0.827236	-0.173236	-0.055541
H428	H	1.327236	0.326764	0.444459
H429	H	0.827190	-0.173219	0.055812
H430	H	1.327190	0.326781	0.555812
H431	H	0.882699	-0.256819	0.055917
H432	H	1.382699	0.243181	0.555917
H433	H	0.882757	-0.256826	-0.055446
H434	H	1.382757	0.243174	0.444554
H435	H	0.911957	-0.211284	0.000254
H436	H	1.411957	0.288716	0.500254
H437	H	0.763906	-0.658055	0.000028
H438	H	1.263906	-0.158055	0.500028
H439	H	0.762610	-0.765821	0.000017
H440	H	1.262610	-0.265821	0.500017
C441	C	0.566574	-0.199853	0.000242
C442	C	1.066574	0.300147	0.500242
C443	C	0.563115	-0.233543	0.082386
C444	C	1.063115	0.266457	0.582386
C445	C	0.510846	-0.256198	0.082591
C446	C	1.010846	0.243802	0.582591
H447	H	0.564084	-0.222758	-0.055377
H448	H	1.064084	0.277242	0.444623
H449	H	0.535951	-0.169457	0.000297
H450	H	1.035951	0.330543	0.500297
H451	H	0.593729	-0.263935	0.082323
H452	H	1.093729	0.236065	0.582323
H453	H	0.565594	-0.210650	0.138019
H454	H	1.065594	0.289350	0.638019
H455	H	0.480224	-0.225802	0.082645
H456	H	0.980224	0.274198	0.582645
H457	H	0.508362	-0.279101	0.026968
H458	H	1.008362	0.220899	0.526968
H459	H	0.508490	-0.279055	0.138328
H460	H	1.008490	0.220945	0.638328
C461	C	0.552219	0.194217	0.605024
C462	C	1.052219	0.694217	1.105024
C463	C	0.560576	0.185897	0.703791
C464	C	1.060576	0.685897	1.203791
C465	C	0.521706	0.224801	0.754243
C466	C	1.021706	0.724801	1.254243
H467	H	0.514219	0.188265	0.588690
H468	H	1.014219	0.688265	1.088690
H469	H	0.558192	0.232208	0.588594
H470	H	1.058192	0.732208	1.088594
H471	H	0.554598	0.147916	0.720214
H472	H	1.054598	0.647916	1.220214
H473	H	0.598568	0.191854	0.720153
H474	H	1.098568	0.691854	1.220153
H475	H	0.527679	0.262791	0.737813
H476	H	1.027679	0.762791	1.237813
H477	H	0.483708	0.218845	0.737902
H478	H	0.983708	0.718845	1.237902
H479	H	0.527374	0.219164	0.821261
H480	H	1.027374	0.719164	1.321261
H481	H	0.601681	0.144749	0.741964
H482	H	1.101681	0.644749	1.241964
C483	C	0.753479	-0.007112	0.755649
C484	C	1.253479	0.492888	1.255649
C485	C	0.723340	-0.041826	0.813350
C486	C	1.223340	0.458174	1.313350
C487	C	0.762188	-0.080828	0.863666
C488	C	1.262188	0.419172	1.363666
H489	H	0.777086	0.013188	0.794919
H490	H	1.277086	0.513188	1.294919
H491	H	0.776663	-0.030331	0.711364
H492	H	1.276663	0.469669	1.211364
H493	H	0.700165	-0.018611	0.857629
H494	H	1.200165	0.481389	1.357629
H495	H	0.699735	-0.062139	0.774104
H496	H	1.199735	0.437861	1.274104
H497	H	0.785373	-0.104046	0.819381
H498	H	1.285373	0.395954	1.319381
H499	H	0.785793	-0.060522	0.902930
H500	H	1.285793	0.439478	1.402930
H501	H	0.741745	-0.104389	0.902815
H502	H	1.241745	0.395611	1.402815
H503	H	0.574207	-0.740135	0.000012
H504	H	1.074207	-0.240135	0.500012
