data_functionalizedCrystal
_audit_creation_method	'MofGen! by Chris Wilmer'
_symmetry_space_group_name_H-M	'P1'
_symmetry_Int_Tables_number	1
_symmetry_cell_setting	triclinic
loop_
_symmetry_equiv_pos_as_xyz
  x,y,z
_cell_length_a	27.732066
_cell_length_b	18.266242
_cell_length_c	19.188930
_cell_angle_alpha	89.988525
_cell_angle_beta	97.102558
_cell_angle_gamma	90.000403
loop_
_atom_site_label
_atom_site_type_symbol
_atom_site_fract_x
_atom_site_fract_y
_atom_site_fract_z
O1	O	-0.641179	-0.060741	0.083140
O2	O	-0.500425	-0.060776	0.095758
O3	O	-0.574864	-0.060744	-0.012232
O4	O	-0.566740	-0.060774	0.191130
O5	O	-0.574851	0.061018	-0.012238
O6	O	-0.500412	0.060986	0.095753
O7	O	-0.641166	0.061021	0.083134
Zn8	Zn	-0.570787	0.080336	0.089443
Zn9	Zn	-0.570804	-0.080091	0.089450
O10	O	-0.566727	0.060988	0.191125
C11	C	-0.482411	0.000100	0.095489
C12	C	-0.428754	0.000088	0.094685
C13	C	-0.051470	0.000130	0.025398
C14	C	-0.253139	0.000116	0.028355
O15	O	-0.284227	0.000152	-0.025407
N16	N	-0.272462	0.000103	0.092392
C17	C	-0.241365	0.000099	0.155694
O18	O	-0.262428	0.000096	0.210230
C19	C	-0.039697	0.000119	0.152736
C20	C	-0.020376	0.000124	0.088695
C21	C	-0.032149	0.000135	-0.038638
C22	C	0.018265	0.000135	-0.039377
C23	C	0.049359	0.000129	0.023921
C24	C	0.030038	0.000123	0.087957
C25	C	-0.008600	0.000120	0.216038
C26	C	0.041820	0.000127	0.215292
C27	C	0.061140	0.000131	0.151251
C28	C	0.111546	0.000116	0.150515
N29	N	0.130869	0.000129	0.086478
C30	C	0.099775	0.000135	0.023181
C31	C	-0.347244	0.000088	0.157243
C32	C	-0.397661	0.000082	0.157983
C33	C	-0.409432	0.000099	0.030643
C34	C	-0.359014	0.000100	0.029904
C35	C	-0.327921	0.000100	0.093206
C36	C	0.205650	0.000133	0.021635
C37	C	0.256069	0.000130	0.020902
C38	C	0.267835	0.000116	0.148240
C39	C	0.217420	0.000116	0.148974
C40	C	0.186328	0.000127	0.085665
O41	O	0.142662	0.000088	0.204248
O42	O	0.120848	0.000154	-0.031346
C43	C	-0.101884	0.000130	0.026137
C44	C	-0.121205	0.000124	0.090173
C45	C	-0.090112	0.000118	0.153470
C46	C	-0.171622	0.000118	0.090912
C47	C	-0.202715	0.000124	0.027615
C48	C	-0.183392	0.000137	-0.036422
C49	C	-0.132978	0.000136	-0.037161
C50	C	-0.109435	0.000106	0.217507
C51	C	-0.159850	0.000106	0.218240
C52	C	-0.190943	0.000112	0.154943
N53	N	-0.570779	0.189822	0.089437
C54	C	-0.574594	0.000140	-0.038244
C55	C	-0.573805	0.000146	-0.115744
C56	C	0.340820	0.000136	0.083402
C57	C	0.287162	0.000124	0.084199
N58	N	-0.570815	-0.189578	0.089450
C59	C	-0.603752	0.228146	0.041642
C60	C	-0.603755	0.304791	0.041639
C61	C	-0.570790	0.343109	0.089443
C62	C	-0.537812	0.304777	0.137242
C63	C	-0.537806	0.228133	0.137239
N64	N	-0.564507	0.463431	0.151290
N65	N	-0.564515	0.536240	0.151290
C66	C	-0.570804	0.574032	0.089453
N67	N	-0.577094	0.536265	0.027613
N68	N	-0.577088	0.463451	0.027613
C69	C	-0.570792	0.426216	0.089451
C70	C	-0.603781	0.695462	0.041650
C71	C	-0.603781	0.772109	0.041646
C72	C	-0.537840	0.772093	0.137255
C73	C	-0.537838	0.695448	0.137253
C74	C	-0.570811	0.657137	0.089451
C75	C	-0.617483	0.000160	-0.160942
C76	C	-0.616741	0.000148	-0.233761
C77	C	-0.572318	0.000137	-0.261379
C78	C	-0.528634	0.000118	-0.216170
C79	C	-0.529377	0.000123	-0.143353
N80	N	-0.538358	0.041566	-0.369172
N81	N	-0.537655	0.041563	-0.438346
C82	C	-0.570076	0.000121	-0.480773
N83	N	-0.603235	-0.041309	-0.451414
N84	N	-0.603939	-0.041303	-0.382234
C85	C	-0.571507	0.000131	-0.340336
C86	C	-0.612953	0.000122	-0.604931
C87	C	-0.612209	0.000105	-0.677751
C88	C	-0.524102	0.000082	-0.660159
C89	C	-0.524847	0.000091	-0.587340
C90	C	-0.569274	0.000115	-0.559731
C91	C	-0.566997	0.000103	0.217137
C92	C	-0.567786	0.000092	0.294636
H93	H	-0.057461	0.000143	-0.090185
H94	H	-0.343287	0.000105	-0.022244
H95	H	-0.492465	0.000107	-0.238661
H96	H	-0.630599	0.196955	0.002718
H97	H	-0.652310	0.000157	-0.270569
H98	H	-0.487932	0.000069	-0.682644
F99	F	-0.482887	0.000107	-0.095247
F100	F	-0.664766	0.000169	-0.131563
H101	H	-0.647779	0.000113	-0.714552
H102	H	-0.510956	0.196930	0.176160
H103	H	-0.649128	0.000137	-0.582451
F104	F	0.276628	0.000130	-0.047263
H105	H	-0.510971	0.335980	0.176163
F106	F	-0.418217	0.000062	0.226144
H107	H	-0.510991	0.664243	0.176175
F108	F	-0.638872	0.654688	-0.009227
H109	H	-0.489279	0.000084	-0.550538
F110	F	0.300936	0.000105	0.215602
H111	H	-0.630629	0.803312	0.002722
F112	F	-0.180405	0.000095	0.286406
F113	F	-0.216493	0.000140	-0.103788
H114	H	-0.510998	0.803291	0.176175
F115	F	0.172566	0.000145	-0.045746
H116	H	0.033991	0.000142	-0.091525
H117	H	-0.321932	0.000087	0.208794
F118	F	-0.029151	0.000114	0.284200
F119	F	0.074909	0.000130	0.282669
F120	F	0.196858	0.000101	0.217133
F121	F	-0.112423	0.000139	-0.105322
F122	F	-0.076349	0.000097	0.284880
F123	F	-0.442532	0.000104	-0.036723
F124	F	-0.638850	0.345584	-0.009233
