data_functionalizedCrystal
_audit_creation_method	'MofGen! by Chris Wilmer'
_symmetry_space_group_name_H-M	'P1'
_symmetry_Int_Tables_number	1
_symmetry_cell_setting	triclinic
loop_
_symmetry_equiv_pos_as_xyz
  x,y,z
_cell_length_a	27.731994
_cell_length_b	27.732048
_cell_length_c	26.809956
_cell_angle_alpha	89.988964
_cell_angle_beta	89.981798
_cell_angle_gamma	82.631595
loop_
_atom_site_label
_atom_site_type_symbol
_atom_site_fract_x
_atom_site_fract_y
_atom_site_fract_z
O1	O	0.640958	0.057391	-0.041414
O2	O	0.890958	0.307391	0.208586
O3	O	1.140958	0.557391	0.458586
O4	O	1.390958	0.807391	0.708586
O5	O	0.500161	0.066164	-0.041431
O6	O	0.750161	0.316164	0.208569
O7	O	1.000161	0.566164	0.458569
O8	O	1.250161	0.816164	0.708569
O9	O	0.574933	-0.008620	-0.041412
O10	O	0.824933	0.241380	0.208588
O11	O	1.074933	0.491380	0.458588
O12	O	1.324933	0.741380	0.708588
O13	O	0.566187	0.132175	-0.041432
O14	O	0.816187	0.382175	0.208568
O15	O	1.066187	0.632175	0.458568
O16	O	1.316187	0.882175	0.708568
O17	O	0.574898	-0.008620	0.041547
O18	O	0.824898	0.241380	0.291547
O19	O	1.074898	0.491380	0.541547
O20	O	1.324898	0.741380	0.791547
O21	O	0.500127	0.066164	0.041528
O22	O	0.750127	0.316164	0.291528
O23	O	1.000127	0.566164	0.541528
O24	O	1.250127	0.816164	0.791528
O25	O	0.640924	0.057391	0.041545
O26	O	0.890924	0.307391	0.291545
O27	O	1.140924	0.557391	0.541545
O28	O	1.390924	0.807391	0.791545
Zn29	Zn	0.570520	0.061777	0.054708
Zn30	Zn	0.820520	0.311777	0.304708
Zn31	Zn	1.070520	0.561777	0.554708
Zn32	Zn	1.320520	0.811777	0.804708
Zn33	Zn	0.570565	0.061778	-0.054594
Zn34	Zn	0.820565	0.311778	0.195406
Zn35	Zn	1.070565	0.561778	0.445406
Zn36	Zn	1.320565	0.811778	0.695406
O37	O	0.566153	0.132175	0.041527
O38	O	0.816153	0.382175	0.291527
O39	O	1.066153	0.632175	0.541527
O40	O	1.316153	0.882175	0.791527
C41	C	0.482137	0.065984	0.000046
C42	C	0.732137	0.315984	0.250046
C43	C	0.982137	0.565984	0.500046
C44	C	1.232137	0.815984	0.750046
C45	C	0.428480	0.065442	0.000040
C46	C	0.678480	0.315442	0.250040
C47	C	0.928480	0.565442	0.500040
C48	C	1.178480	0.815442	0.750040
C49	C	0.095743	0.062026	0.045281
C50	C	0.345743	0.312026	0.295281
C51	C	0.595743	0.562026	0.545281
C52	C	0.845743	0.812026	0.795281
C53	C	-0.105915	0.059964	0.045287
C54	C	0.144085	0.309964	0.295287
C55	C	0.394085	0.559964	0.545287
C56	C	0.644085	0.809964	0.795287
O57	O	-0.132004	0.059676	0.083746
O58	O	0.117996	0.309676	0.333746
O59	O	0.367996	0.559676	0.583746
O60	O	0.617996	0.809676	0.833746
N61	N	-0.131111	0.059708	0.000066
N62	N	0.118889	0.309708	0.250066
N63	N	0.368889	0.559708	0.500066
N64	N	0.618889	0.809708	0.750066
C65	C	-0.105889	0.059965	-0.045160
C66	C	0.144111	0.309965	0.204840
C67	C	0.394111	0.559965	0.454840
C68	C	0.644111	0.809965	0.704840
O69	O	-0.131947	0.059695	-0.083623
O70	O	0.118053	0.309695	0.166377
O71	O	0.368053	0.559695	0.416377
O72	O	0.618053	0.809695	0.666377
C73	C	0.095768	0.062023	-0.045165
C74	C	0.345768	0.312023	0.204835
C75	C	0.595768	0.562023	0.454835
C76	C	0.845768	0.812023	0.704835
C77	C	0.120961	0.062283	0.000059
C78	C	0.370961	0.312283	0.250059
C79	C	0.620961	0.562283	0.500059
C80	C	0.870961	0.812283	0.750059
C81	C	0.120936	0.062286	0.090501
C82	C	0.370936	0.312286	0.340501
C83	C	0.620936	0.562286	0.590501
C84	C	0.870936	0.812286	0.840501
C85	C	0.171347	0.062804	0.090499
C86	C	0.421347	0.312804	0.340499
C87	C	0.671347	0.562804	0.590499
C88	C	0.921347	0.812804	0.840499
C89	C	0.196565	0.063062	0.045277
C90	C	0.446565	0.313062	0.295277
C91	C	0.696565	0.563062	0.545277
C92	C	0.946565	0.813062	0.795277
C93	C	0.171372	0.062801	0.000057
C94	C	0.421372	0.312801	0.250057
C95	C	0.671372	0.562801	0.500057
C96	C	0.921372	0.812801	0.750057
C97	C	0.120990	0.062276	-0.090390
C98	C	0.370990	0.312276	0.159610
C99	C	0.620990	0.562276	0.409610
C100	C	0.870990	0.812276	0.659610
C101	C	0.171408	0.062789	-0.090388
C102	C	0.421408	0.312789	0.159612
C103	C	0.671408	0.562789	0.409612
C104	C	0.921408	0.812789	0.659612
C105	C	0.196601	0.063050	-0.045164
C106	C	0.446601	0.313050	0.204836
C107	C	0.696601	0.563050	0.454836
C108	C	0.946601	0.813050	0.704836
C109	C	0.247002	0.063577	-0.045167
C110	C	0.497002	0.313577	0.204833
C111	C	0.747002	0.563577	0.454833
C112	C	0.997002	0.813577	0.704833
N113	N	0.272198	0.063833	0.000054
N114	N	0.522198	0.313833	0.250054
N115	N	0.772198	0.563833	0.500054
N116	N	1.022198	0.813833	0.750054
C117	C	0.246980	0.063575	0.045276
C118	C	0.496980	0.313575	0.295276
C119	C	0.746980	0.563575	0.545276
C120	C	0.996980	0.813575	0.795276
C121	C	-0.211763	0.058885	-0.045154
C122	C	0.038237	0.308885	0.204846
C123	C	0.288237	0.558885	0.454846
C124	C	0.538237	0.808885	0.704846
C125	C	-0.262177	0.058371	-0.045152
C126	C	-0.012177	0.308371	0.204848
C127	C	0.237823	0.558371	0.454848
C128	C	0.487823	0.808371	0.704848
C129	C	-0.262199	0.058370	0.045294
C130	C	-0.012199	0.308370	0.295294
C131	C	0.237801	0.558370	0.545294
C132	C	0.487801	0.808370	0.795294
C133	C	-0.211784	0.058887	0.045293
C134	C	0.038216	0.308887	0.295293
C135	C	0.288216	0.558887	0.545293
C136	C	0.538216	0.808887	0.795293
C137	C	-0.186567	0.059141	0.000067
C138	C	0.063433	0.309141	0.250067
C139	C	0.313433	0.559141	0.500067
C140	C	0.563433	0.809141	0.750067
C141	C	0.352847	0.064664	0.045268
C142	C	0.602847	0.314664	0.295268
C143	C	0.852847	0.564664	0.545268
C144	C	1.102847	0.814664	0.795268
C145	C	0.403262	0.065184	0.045262
C146	C	0.653262	0.315184	0.295262
C147	C	0.903262	0.565184	0.545262
C148	C	1.153262	0.815184	0.795262
C149	C	0.403280	0.065183	-0.045184
C150	C	0.653280	0.315183	0.204816
C151	C	0.903280	0.565183	0.454816
C152	C	1.153280	0.815183	0.704816
C153	C	0.352869	0.064665	-0.045179
C154	C	0.602869	0.314665	0.204821
C155	C	0.852869	0.564665	0.454821
C156	C	1.102869	0.814665	0.704821
C157	C	0.327654	0.064404	0.000052
C158	C	0.577654	0.314404	0.250052
C159	C	0.827654	0.564404	0.500052
C160	C	1.077654	0.814404	0.750052
O161	O	0.273122	0.063860	-0.083606
O162	O	0.523122	0.313860	0.166394
O163	O	0.773122	0.563860	0.416394
O164	O	1.023122	0.813860	0.666394
O165	O	0.273047	0.063834	0.083733
O166	O	0.523047	0.313834	0.333733
O167	O	0.773047	0.563834	0.583733
O168	O	1.023047	0.813834	0.833733
C169	C	0.045332	0.061508	0.045283
C170	C	0.295332	0.311508	0.295283
C171	C	0.545332	0.561508	0.545283
C172	C	0.795332	0.811508	0.795283
C173	C	0.020139	0.061247	0.000063
C174	C	0.270139	0.311247	0.250063
C175	C	0.520139	0.561247	0.500063
C176	C	0.770139	0.811247	0.750063
C177	C	0.045357	0.061505	-0.045160
C178	C	0.295357	0.311505	0.204840
C179	C	0.545357	0.561505	0.454840
C180	C	0.795357	0.811505	0.704840
C181	C	-0.030275	0.060734	0.000064
C182	C	0.219725	0.310734	0.250064
C183	C	0.469725	0.560734	0.500064
C184	C	0.719725	0.810734	0.750064
C185	C	-0.055494	0.060476	0.045286
C186	C	0.194506	0.310476	0.295286
C187	C	0.444506	0.560476	0.545286
C188	C	0.694506	0.810476	0.795286
C189	C	-0.030297	0.060732	0.090507
C190	C	0.219703	0.310732	0.340507
C191	C	0.469703	0.560732	0.590507
C192	C	0.719703	0.810732	0.840507
C193	C	0.020114	0.061250	0.090505
C194	C	0.270114	0.311250	0.340505
C195	C	0.520114	0.561250	0.590505
C196	C	0.770114	0.811250	0.840505
C197	C	0.020161	0.061250	-0.090381
C198	C	0.270161	0.311250	0.159619
C199	C	0.520161	0.561250	0.409619
C200	C	0.770161	0.811250	0.659619
C201	C	-0.030250	0.060732	-0.090375
C202	C	0.219750	0.310732	0.159625
C203	C	0.469750	0.560732	0.409625
C204	C	0.719750	0.810732	0.659625
C205	C	-0.055468	0.060474	-0.045153
C206	C	0.194532	0.310474	0.204847
C207	C	0.444532	0.560474	0.454847
C208	C	0.694532	0.810474	0.704847
C209	C	0.574732	-0.026627	0.000069
C210	C	0.824732	0.223373	0.250069
C211	C	1.074732	0.473373	0.500069
C212	C	1.324732	0.723373	0.750069
C213	C	0.574179	-0.080282	0.000073
C214	C	0.824179	0.169718	0.250073
C215	C	1.074179	0.419718	0.500073
C216	C	1.324179	0.669718	0.750073
C217	C	0.614884	-0.419105	0.000052
C218	C	0.864884	-0.169105	0.250052
C219	C	1.114884	0.080895	0.500052
C220	C	1.364884	0.330895	0.750052
C221	C	0.612833	-0.620764	0.000045
C222	C	0.862833	-0.370764	0.250045
C223	C	1.112833	-0.120764	0.500045
C224	C	1.362833	0.129236	0.750045
O225	O	0.650055	-0.652027	0.000028
O226	O	0.900055	-0.402027	0.250028
O227	O	1.150055	-0.152027	0.500028
O228	O	1.400055	0.097973	0.750028
N229	N	0.568496	-0.639879	0.000040
N230	N	0.818496	-0.389879	0.250040
N231	N	1.068496	-0.139879	0.500040
N232	N	1.318496	0.110121	0.750040
C233	C	0.524670	-0.608576	0.000033
C234	C	0.774670	-0.358576	0.250033
C235	C	1.024670	-0.108576	0.500033
C236	C	1.274670	0.141424	0.750033
O237	O	0.486912	-0.629462	0.000024
O238	O	0.736912	-0.379462	0.250024
O239	O	0.986912	-0.129462	0.500024
O240	O	1.236912	0.120538	0.750024
C241	C	0.526721	-0.406918	0.000037
C242	C	0.776721	-0.156918	0.250037
C243	C	1.026721	0.093082	0.500037
C244	C	1.276721	0.343082	0.750037
C245	C	0.571060	-0.387805	0.000047
C246	C	0.821060	-0.137805	0.250047
C247	C	1.071060	0.112195	0.500047
C248	C	1.321060	0.362195	0.750047
C249	C	0.659220	-0.399992	0.000061
C250	C	0.909220	-0.149992	0.250061
C251	C	1.159220	0.100008	0.500061
C252	C	1.409220	0.350008	0.750061
C253	C	0.659732	-0.349580	0.000066
C254	C	0.909732	-0.099580	0.250066
C255	C	1.159732	0.150420	0.500066
C256	C	1.409732	0.400420	0.750066
C257	C	0.615908	-0.318281	0.000061
C258	C	0.865908	-0.068281	0.250061
C259	C	1.115908	0.181719	0.500061
C260	C	1.365908	0.431719	0.750061
C261	C	0.571573	-0.337394	0.000052
C262	C	0.821573	-0.087394	0.250052
C263	C	1.071573	0.162606	0.500052
C264	C	1.321573	0.412606	0.750052
C265	C	0.482895	-0.375615	0.000027
C266	C	0.732895	-0.125615	0.250027
C267	C	0.982895	0.124385	0.500027
C268	C	1.232895	0.374385	0.750027
C269	C	0.483412	-0.325198	0.000027
C270	C	0.733412	-0.075198	0.250027
C271	C	0.983412	0.174802	0.500027
C272	C	1.233412	0.424802	0.750027
C273	C	0.527751	-0.306086	0.000037
C274	C	0.777751	-0.056086	0.250037
C275	C	1.027751	0.193914	0.500037
C276	C	1.277751	0.443914	0.750037
C277	C	0.528262	-0.255683	0.000051
C278	C	0.778262	-0.005683	0.250051
C279	C	1.028262	0.244317	0.500051
C280	C	1.278262	0.494317	0.750051
N281	N	0.572598	-0.236567	0.000056
N282	N	0.822598	0.013433	0.250056
N283	N	1.072598	0.263433	0.500056
N284	N	1.322598	0.513433	0.750056
C285	C	0.616421	-0.267867	0.000061
C286	C	0.866421	-0.017867	0.250061
C287	C	1.116421	0.232133	0.500061
C288	C	1.366421	0.482133	0.750061
C289	C	0.523596	-0.714450	0.000032
C290	C	0.773596	-0.464450	0.250032
C291	C	1.023596	-0.214450	0.500032
C292	C	1.273596	0.035550	0.750032
C293	C	0.523083	-0.764864	0.000032
C294	C	0.773083	-0.514864	0.250032
C295	C	1.023083	-0.264864	0.500032
C296	C	1.273083	-0.014864	0.750032
C297	C	0.611246	-0.777049	0.000043
C298	C	0.861246	-0.527049	0.250043
C299	C	1.111246	-0.277049	0.500043
C300	C	1.361246	-0.027049	0.750043
C301	C	0.611759	-0.726633	0.000047
C302	C	0.861759	-0.476633	0.250047
C303	C	1.111759	-0.226633	0.500047
C304	C	1.361759	0.023367	0.750047
C305	C	0.567932	-0.695335	0.000037
C306	C	0.817932	-0.445335	0.250037
C307	C	1.067932	-0.195335	0.500037
C308	C	1.317932	0.054665	0.750037
C309	C	0.617494	-0.161998	0.000071
C310	C	0.867494	0.088002	0.250071
C311	C	1.117494	0.338002	0.500071
C312	C	1.367494	0.588002	0.750071
C313	C	0.618002	-0.111581	0.000078
C314	C	0.868002	0.138419	0.250078
C315	C	1.118002	0.388419	0.500078
C316	C	1.368002	0.638419	0.750078
C317	C	0.529839	-0.099401	0.000064
C318	C	0.779839	0.150599	0.250064
C319	C	1.029839	0.400599	0.500064
C320	C	1.279839	0.650599	0.750064
C321	C	0.529331	-0.149813	0.000060
C322	C	0.779331	0.100187	0.250060
C323	C	1.029331	0.350187	0.500060
C324	C	1.279331	0.600187	0.750060
C325	C	0.573162	-0.181111	0.000062
C326	C	0.823162	0.068889	0.250062
C327	C	1.073162	0.318889	0.500062
C328	C	1.323162	0.568889	0.750062
O329	O	0.491060	-0.224391	0.000063
O330	O	0.741060	0.025609	0.250063
O331	O	0.991060	0.275609	0.500063
O332	O	1.241060	0.525609	0.750063
O333	O	0.654174	-0.246971	0.000060
O334	O	0.904174	0.003029	0.250060
O335	O	1.154174	0.253029	0.500060
O336	O	1.404174	0.503029	0.750060
C337	C	0.614372	-0.469517	0.000047
C338	C	0.864372	-0.219517	0.250047
C339	C	1.114372	0.030483	0.500047
C340	C	1.364372	0.280483	0.750047
C341	C	0.570036	-0.488629	0.000038
C342	C	0.820036	-0.238629	0.250038
C343	C	1.070036	0.011371	0.500038
C344	C	1.320036	0.261371	0.750038
C345	C	0.526213	-0.457330	0.000033
C346	C	0.776213	-0.207330	0.250033
C347	C	1.026213	0.042670	0.500033
C348	C	1.276213	0.292670	0.750033
C349	C	0.569523	-0.539043	0.000038
C350	C	0.819523	-0.289043	0.250038
C351	C	1.069523	-0.039043	0.500038
C352	C	1.319523	0.210957	0.750038
C353	C	0.613346	-0.570343	0.000043
C354	C	0.863346	-0.320343	0.250043
C355	C	1.113346	-0.070343	0.500043
C356	C	1.363346	0.179657	0.750043
C357	C	0.657683	-0.551228	0.000048
C358	C	0.907683	-0.301228	0.250048
C359	C	1.157683	-0.051228	0.500048
C360	C	1.407683	0.198772	0.750048
C361	C	0.658195	-0.500816	0.000052
C362	C	0.908195	-0.250816	0.250052
C363	C	1.158195	-0.000816	0.500052
C364	C	1.408195	0.249184	0.750052
C365	C	0.481876	-0.476445	0.000028
C366	C	0.731876	-0.226445	0.250028
C367	C	0.981876	0.023555	0.500028
C368	C	1.231876	0.273555	0.750028
C369	C	0.481367	-0.526857	0.000024
C370	C	0.731367	-0.276857	0.250024
C371	C	0.981367	-0.026857	0.500024
C372	C	1.231367	0.223143	0.750024
C373	C	0.525191	-0.558157	0.000029
C374	C	0.775191	-0.308157	0.250029
C375	C	1.025191	-0.058157	0.500029
C376	C	1.275191	0.191843	0.750029
C377	C	0.658949	0.057571	0.000067
C378	C	0.908949	0.307571	0.250067
C379	C	1.158949	0.557571	0.500067
C380	C	1.408949	0.807571	0.750067
C381	C	0.712605	0.058114	0.000070
C382	C	0.962605	0.308114	0.250070
C383	C	1.212605	0.558114	0.500070
C384	C	1.462605	0.808114	0.750070
C385	C	0.566353	0.150182	0.000045
C386	C	0.816353	0.400182	0.250045
C387	C	1.066353	0.650182	0.500045
C388	C	1.316353	0.900182	0.750045
C389	C	0.566906	0.203837	0.000037
C390	C	0.816906	0.453837	0.250037
C391	C	1.066906	0.703837	0.500037
C392	C	1.316906	0.953837	0.750037
N393	N	0.570493	0.061776	0.129304
N394	N	0.820493	0.311776	0.379304
N395	N	1.070493	0.561776	0.629304
N396	N	1.320493	0.811776	0.879304
C397	C	0.537419	0.094878	0.526179
C398	C	0.787419	0.344878	0.776179
C399	C	1.037419	0.594878	1.026179
C400	C	1.287419	0.844878	1.276179
C401	C	0.537395	0.094878	0.317302
C402	C	0.787395	0.344878	0.567302
C403	C	1.037395	0.594878	0.817302
C404	C	1.287395	0.844878	1.067302
O405	O	0.509217	0.123017	0.290294
O406	O	0.759217	0.373017	0.540294
O407	O	1.009217	0.623017	0.790294
O408	O	1.259217	0.873017	1.040294
N409	N	0.570508	0.061775	0.291183
N410	N	0.820508	0.311775	0.541183
N411	N	1.070508	0.561775	0.791183
N412	N	1.320508	0.811775	1.041183
C413	C	0.603628	0.028668	0.317287
C414	C	0.853628	0.278668	0.567287
C415	C	1.103628	0.528668	0.817287
C416	C	1.353628	0.778668	1.067287
O417	O	0.631788	0.000509	0.290278
O418	O	0.881788	0.250509	0.540278
O419	O	1.131788	0.500509	0.790278
O420	O	1.381788	0.750509	1.040278
C421	C	0.603649	0.028667	0.526163
C422	C	0.853649	0.278667	0.776163
C423	C	1.103649	0.528667	1.026163
C424	C	1.353649	0.778667	1.276163
C425	C	0.570537	0.061775	0.552280
C426	C	0.820537	0.311775	0.802280
C427	C	1.070537	0.561775	1.052280
C428	C	1.320537	0.811775	1.302280
C429	C	0.504309	0.127983	0.552296
C430	C	0.754309	0.377983	0.802296
C431	C	1.004309	0.627983	1.052296
C432	C	1.254309	0.877983	1.302296
C433	C	0.504317	0.127985	0.604512
C434	C	0.754317	0.377985	0.854512
C435	C	1.004317	0.627985	1.104512
C436	C	1.254317	0.877985	1.354512
C437	C	0.537435	0.094881	0.630612
C438	C	0.787435	0.344881	0.880612
C439	C	1.037435	0.594881	1.130612
C440	C	1.287435	0.844881	1.380612
C441	C	0.570545	0.061776	0.604496
C442	C	0.820545	0.311776	0.854496
C443	C	1.070545	0.561776	1.104496
C444	C	1.320545	0.811776	1.354496
C445	C	0.636765	-0.004442	0.552266
C446	C	0.886765	0.245558	0.802266
C447	C	1.136765	0.495558	1.052266
C448	C	1.386765	0.745558	1.302266
C449	C	0.636767	-0.004441	0.604489
C450	C	0.886767	0.245559	0.854489
C451	C	1.136767	0.495559	1.104489
C452	C	1.386767	0.745559	1.354489
C453	C	0.603655	0.028667	0.630605
C454	C	0.853655	0.278667	0.880605
C455	C	1.103655	0.528667	1.130605
C456	C	1.353655	0.778667	1.380605
C457	C	0.603670	0.028674	0.682812
C458	C	0.853670	0.278674	0.932812
C459	C	1.103670	0.528674	1.182812
C460	C	1.353670	0.778674	1.432812
N461	N	0.570557	0.061777	0.708931
N462	N	0.820557	0.311777	0.958931
N463	N	1.070557	0.561777	1.208931
N464	N	1.320557	0.811777	1.458931
C465	C	0.537440	0.094881	0.682831
C466	C	0.787440	0.344881	0.932831
C467	C	1.037440	0.594881	1.182831
C468	C	1.287440	0.844881	1.432831
C469	C	0.603615	0.028672	0.207623
C470	C	0.853615	0.278672	0.457623
C471	C	1.103615	0.528672	0.707623
C472	C	1.353615	0.778672	0.957623
C473	C	0.603610	0.028673	0.155405
C474	C	0.853610	0.278673	0.405405
C475	C	1.103610	0.528673	0.655405
C476	C	1.353610	0.778673	0.905405
C477	C	0.537377	0.094882	0.155423
C478	C	0.787377	0.344882	0.405423
C479	C	1.037377	0.594882	0.655423
C480	C	1.287377	0.844882	0.905423
C481	C	0.537384	0.094883	0.207643
C482	C	0.787384	0.344883	0.457643
C483	C	1.037384	0.594883	0.707643
C484	C	1.287384	0.844883	0.957643
C485	C	0.570502	0.061775	0.233742
C486	C	0.820502	0.311775	0.483742
C487	C	1.070502	0.561775	0.733742
C488	C	1.320502	0.811775	0.983742
C489	C	0.537459	0.094881	0.792489
C490	C	0.787459	0.344881	1.042489
C491	C	1.037459	0.594881	1.292489
C492	C	1.287459	0.844881	1.542489
C493	C	0.537472	0.094881	0.844710
C494	C	0.787472	0.344881	1.094710
C495	C	1.037472	0.594881	1.344710
C496	C	1.287472	0.844881	1.594710
C497	C	0.603703	0.028671	0.844687
C498	C	0.853703	0.278671	1.094687
C499	C	1.103703	0.528671	1.344687
C500	C	1.353703	0.778671	1.594687
C501	C	0.603692	0.028672	0.792470
C502	C	0.853692	0.278672	1.042470
C503	C	1.103692	0.528672	1.292470
C504	C	1.353692	0.778672	1.542470
C505	C	0.570567	0.061779	0.766373
C506	C	0.820567	0.311779	1.016373
C507	C	1.070567	0.561779	1.266373
C508	C	1.320567	0.811779	1.516373
O509	O	0.631831	0.000547	0.709852
O510	O	0.881831	0.250547	0.959852
O511	O	1.131831	0.500547	1.209852
O512	O	1.381831	0.750547	1.459852
O513	O	0.509276	0.123028	0.709848
O514	O	0.759276	0.373028	0.959848
O515	O	1.009276	0.623028	1.209848
O516	O	1.259276	0.873028	1.459848
C517	C	0.537411	0.094877	0.473963
C518	C	0.787411	0.344877	0.723963
C519	C	1.037411	0.594877	0.973963
C520	C	1.287411	0.844877	1.223963
C521	C	0.570521	0.061772	0.447847
C522	C	0.820521	0.311772	0.697847
C523	C	1.070521	0.561772	0.947847
C524	C	1.320521	0.811772	1.197847
C525	C	0.603638	0.028668	0.473947
C526	C	0.853638	0.278668	0.723947
C527	C	1.103638	0.528668	0.973947
C528	C	1.353638	0.778668	1.223947
C529	C	0.570516	0.061773	0.395628
C530	C	0.820516	0.311773	0.645628
C531	C	1.070516	0.561773	0.895628
C532	C	1.320516	0.811773	1.145628
C533	C	0.537398	0.094876	0.369528
C534	C	0.787398	0.344876	0.619528
C535	C	1.037398	0.594876	0.869528
C536	C	1.287398	0.844876	1.119528
C537	C	0.504285	0.127979	0.395647
C538	C	0.754285	0.377979	0.645647
C539	C	1.004285	0.627979	0.895647
C540	C	1.254285	0.877979	1.145647
C541	C	0.504293	0.127980	0.447863
C542	C	0.754293	0.377980	0.697863
C543	C	1.004293	0.627980	0.947863
C544	C	1.254293	0.877980	1.197863
C545	C	0.636751	-0.004435	0.447828
C546	C	0.886751	0.245565	0.697828
C547	C	1.136751	0.495565	0.947828
C548	C	1.386751	0.745565	1.197828
C549	C	0.636741	-0.004433	0.395612
C550	C	0.886741	0.245567	0.645612
C551	C	1.136741	0.495567	0.895612
C552	C	1.386741	0.745567	1.145612
C553	C	0.603623	0.028671	0.369512
C554	C	0.853623	0.278671	0.619512
C555	C	1.103623	0.528671	0.869512
C556	C	1.353623	0.778671	1.119512
N557	N	0.570589	0.061778	0.870810
N558	N	0.820589	0.311778	1.120810
N559	N	1.070589	0.561778	1.370810
N560	N	1.320589	0.811778	1.620810
H561	H	0.040621	0.061462	0.127331
H562	H	0.290621	0.311462	0.377331
H563	H	0.540621	0.561462	0.627331
H564	H	0.790621	0.811462	0.877331
H565	H	0.663728	-0.031402	0.531010
H566	H	0.913728	0.218598	0.781010
H567	H	1.163728	0.468598	1.031010
H568	H	1.413728	0.718598	1.281010
H569	H	-0.282686	0.058167	-0.081978
H570	H	-0.032686	0.308167	0.168022
H571	H	0.217314	0.558167	0.418022
H572	H	0.467314	0.808167	0.668022
H573	H	0.694301	-0.485260	0.000060
H574	H	0.944301	-0.235260	0.250060
H575	H	1.194301	0.014740	0.500060
H576	H	1.444301	0.264740	0.750060
H577	H	0.486977	-0.780420	0.000033
H578	H	0.736977	-0.530420	0.250033
H579	H	0.986977	-0.280420	0.500033
H580	H	1.236977	-0.030420	0.750033
H581	H	0.510422	0.121842	0.228904
H582	H	0.760422	0.371842	0.478904
H583	H	1.010422	0.621842	0.728904
H584	H	1.260422	0.871842	0.978904
H585	H	0.510412	0.121837	0.134164
H586	H	0.760412	0.371837	0.384164
H587	H	1.010412	0.621837	0.634164
H588	H	1.260412	0.871837	0.884164
H589	H	0.477354	0.154943	0.625773
H590	H	0.727354	0.404943	0.875773
H591	H	0.977354	0.654943	1.125773
H592	H	1.227354	0.904943	1.375773
O593	O	-0.057412	0.060438	-0.139160
O594	O	0.192588	0.310438	0.110840
O595	O	0.442588	0.560438	0.360840
O596	O	0.692588	0.810438	0.610840
H597	H	-0.052286	0.093489	-0.160861
H598	H	0.197714	0.343489	0.089139
H599	H	0.447714	0.593489	0.339139
H600	H	0.697714	0.843489	0.589139
O601	O	-0.184566	0.059164	-0.093935
O602	O	0.065434	0.309164	0.156065
O603	O	0.315434	0.559164	0.406065
O604	O	0.565434	0.809164	0.656065
H605	H	-0.210562	0.058906	-0.125375
H606	H	0.039438	0.308906	0.124625
H607	H	0.289438	0.558906	0.374625
H608	H	0.539438	0.808906	0.624625
H609	H	0.423822	0.065395	-0.082003
H610	H	0.673822	0.315395	0.167997
H611	H	0.923822	0.565395	0.417997
H612	H	1.173822	0.815395	0.667997
O613	O	0.672455	-0.040147	0.367445
O614	O	0.922455	0.209853	0.617445
O615	O	1.172455	0.459853	0.867445
O616	O	1.422455	0.709853	1.117445
H617	H	0.695479	-0.063167	0.394373
H618	H	0.945479	0.186833	0.644373
H619	H	1.195479	0.436833	0.894373
H620	H	1.445479	0.686833	1.144373
H621	H	0.423772	0.065397	0.082091
H622	H	0.673772	0.315397	0.332091
H623	H	0.923772	0.565397	0.582091
H624	H	1.173772	0.815397	0.832091
H625	H	0.100409	0.062075	0.127329
H626	H	0.350409	0.312075	0.377329
H627	H	0.600409	0.562075	0.627329
H628	H	0.850409	0.812075	0.877329
H629	H	0.630578	0.001718	0.134144
H630	H	0.880578	0.251718	0.384144
H631	H	1.130578	0.501718	0.634144
H632	H	1.380578	0.751718	0.884144
H633	H	0.477339	0.154940	0.531049
H634	H	0.727339	0.404940	0.781049
H635	H	0.977339	0.654940	1.031049
H636	H	1.227339	0.904940	1.281049
O637	O	0.658512	-0.810815	0.000049
O638	O	0.908512	-0.560815	0.250049
O639	O	1.158512	-0.310815	0.500049
O640	O	1.408512	-0.060815	0.750049
H641	H	0.689433	-0.789059	0.000055
H642	H	0.939433	-0.539059	0.250055
H643	H	1.189433	-0.289059	0.500055
H644	H	1.439433	-0.039059	0.750055
O645	O	0.468559	0.163675	0.367486
O646	O	0.718559	0.413675	0.617486
O647	O	0.968559	0.663675	0.867486
O648	O	1.218559	0.913675	1.117486
H649	H	0.488725	0.187020	0.343671
H650	H	0.738725	0.437020	0.593671
H651	H	0.988725	0.687020	0.843671
H652	H	1.238725	0.937020	1.093671
O653	O	0.639345	-0.007031	0.235771
O654	O	0.889345	0.242969	0.485771
O655	O	1.139345	0.492969	0.735771
O656	O	1.389345	0.742969	0.985771
H657	H	0.662372	-0.030041	0.208832
H658	H	0.912372	0.219959	0.458832
H659	H	1.162372	0.469959	0.708832
H660	H	1.412372	0.719959	0.958832
H661	H	0.447722	-0.299716	0.000018
H662	H	0.697722	-0.049716	0.250018
H663	H	0.947722	0.200284	0.500018
H664	H	1.197722	0.450284	0.750018
O665	O	0.325652	0.064388	0.094051
O666	O	0.575652	0.314388	0.344051
O667	O	0.825652	0.564388	0.594051
O668	O	1.075652	0.814388	0.844051
H669	H	0.351646	0.064661	0.125491
H670	H	0.601646	0.314661	0.375491
H671	H	0.851646	0.564661	0.625491
H672	H	1.101646	0.814661	0.875491
H673	H	-0.050839	0.060524	0.127329
H674	H	0.199161	0.310524	0.377329
H675	H	0.449161	0.560524	0.627329
H676	H	0.699161	0.810524	0.877329
H677	H	0.663734	-0.031403	0.625736
H678	H	0.913734	0.218597	0.875736
H679	H	1.163734	0.468597	1.125736
H680	H	1.413734	0.718597	1.375736
O681	O	0.198509	0.063093	0.139280
O682	O	0.448509	0.313093	0.389280
O683	O	0.698509	0.563093	0.639280
O684	O	0.948509	0.813093	0.889280
H685	H	0.193385	0.030037	0.160973
H686	H	0.443385	0.280037	0.410973
H687	H	0.693385	0.530037	0.660973
H688	H	0.943385	0.780037	0.910973
O689	O	0.639396	-0.007037	0.764289
O690	O	0.889396	0.242963	1.014289
O691	O	1.139396	0.492963	1.264289
O692	O	1.389396	0.742963	1.514289
H693	H	0.677039	-0.001157	0.774281
H694	H	0.927039	0.248843	1.024281
H695	H	1.177039	0.498843	1.274281
H696	H	1.427039	0.748843	1.524281
H697	H	0.446789	-0.391167	0.000016
H698	H	0.696789	-0.141167	0.250016
H699	H	0.946789	0.108833	0.500016
H700	H	1.196789	0.358833	0.750016
H701	H	0.100487	0.062063	-0.127217
H702	H	0.350487	0.312063	0.122783
H703	H	0.600487	0.562063	0.372783
H704	H	0.850487	0.812063	0.622783
H705	H	0.630668	0.001719	0.865946
H706	H	0.880668	0.251719	1.115946
H707	H	1.130668	0.501719	1.365946
H708	H	1.380668	0.751719	1.615946
H709	H	0.191937	0.062996	-0.127217
H710	H	0.441937	0.312996	0.122783
H711	H	0.691937	0.562996	0.372783
H712	H	0.941937	0.812996	0.622783
O713	O	0.468590	0.163700	0.476029
O714	O	0.718590	0.413700	0.726029
O715	O	0.968590	0.663700	0.976029
O716	O	1.218590	0.913700	1.226029
H717	H	0.445565	0.186717	0.449100
H718	H	0.695565	0.436717	0.699100
H719	H	0.945565	0.686717	0.949100
H720	H	1.195565	0.936717	1.199100
O721	O	0.481506	-0.170426	0.000056
O722	O	0.731506	0.079574	0.250056
O723	O	0.981506	0.329574	0.500056
O724	O	1.231506	0.579574	0.750056
H725	H	0.479147	-0.193108	0.033867
H726	H	0.729147	0.056892	0.283867
H727	H	0.979147	0.306892	0.533867
H728	H	1.229147	0.556892	0.783867
H729	H	0.663719	-0.031392	0.469075
H730	H	0.913719	0.218608	0.719075
H731	H	1.163719	0.468608	0.969075
H732	H	1.413719	0.718608	1.219075
H733	H	0.693365	-0.576720	0.000054
H734	H	0.943365	-0.326720	0.250054
H735	H	1.193365	-0.076720	0.500054
H736	H	1.443365	0.173280	0.750054
O737	O	0.476323	-0.680693	0.000033
O738	O	0.726323	-0.430693	0.250033
O739	O	0.976323	-0.180693	0.500033
O740	O	1.226323	0.069307	0.750033
H741	H	0.445411	-0.702460	0.000037
H742	H	0.695411	-0.452460	0.250037
H743	H	0.945411	-0.202460	0.500037
H744	H	1.195411	0.047540	0.750037
O745	O	0.047353	0.061530	-0.139161
O746	O	0.297353	0.311530	0.110839
O747	O	0.547353	0.561530	0.360839
O748	O	0.797353	0.811530	0.610839
H749	H	0.074879	0.028806	-0.141329
H750	H	0.324879	0.278806	0.108671
H751	H	0.574879	0.528806	0.358671
H752	H	0.824879	0.778806	0.608671
H753	H	-0.191276	0.059100	0.082118
H754	H	0.058724	0.309100	0.332118
H755	H	0.308724	0.559100	0.582118
H756	H	0.558724	0.809100	0.832118
H757	H	0.446189	-0.450966	0.000023
H758	H	0.696189	-0.200966	0.250023
H759	H	0.946189	0.049034	0.500023
H760	H	1.196189	0.299034	0.750023
O761	O	-0.289420	0.058220	0.094072
O762	O	-0.039420	0.308220	0.344072
O763	O	0.210580	0.558220	0.594072
O764	O	0.460580	0.808220	0.844072
H765	H	-0.328714	0.057863	0.086470
H766	H	-0.078714	0.307863	0.336470
H767	H	0.171286	0.557863	0.586470
H768	H	0.421286	0.807863	0.836470
O769	O	0.706491	-0.433746	0.000069
O770	O	0.956491	-0.183746	0.250069
O771	O	1.206491	0.066254	0.500069
O772	O	1.456491	0.316254	0.750069
H773	H	0.708351	-0.457011	0.033881
H774	H	0.958351	-0.207011	0.283881
H775	H	1.208351	0.042989	0.533881
H776	H	1.458351	0.292989	0.783881
O777	O	0.482573	-0.065638	0.000058
O778	O	0.732573	0.184362	0.250058
O779	O	0.982573	0.434362	0.500058
O780	O	1.232573	0.684362	0.750058
H781	H	0.490383	-0.027373	0.000057
H782	H	0.740383	0.222627	0.250057
H783	H	0.990383	0.472627	0.500057
H784	H	1.240383	0.722627	0.750057
O785	O	0.325691	0.064386	-0.093954
O786	O	0.575691	0.314386	0.156046
O787	O	0.825691	0.564386	0.406046
O788	O	1.075691	0.814386	0.656046
H789	H	0.351699	0.064650	-0.125399
H790	H	0.601699	0.314650	0.124601
H791	H	0.851699	0.564650	0.374601
H792	H	1.101699	0.814650	0.624601
H793	H	0.654110	-0.096023	0.000087
H794	H	0.904110	0.153977	0.250087
H795	H	1.154110	0.403977	0.500087
H796	H	1.404110	0.653977	0.750087
O797	O	0.659580	-0.706020	0.000048
O798	O	0.909580	-0.456020	0.250048
O799	O	1.159580	-0.206020	0.500048
O800	O	1.409580	0.043980	0.750048
H801	H	0.689965	-0.736259	0.000047
H802	H	0.939965	-0.486259	0.250047
H803	H	1.189965	-0.236259	0.500047
H804	H	1.439965	0.013741	0.750047
H805	H	0.510508	0.121844	0.865972
H806	H	0.760508	0.371844	1.115972
H807	H	1.010508	0.621844	1.365972
H808	H	1.260508	0.871844	1.615972
O809	O	0.664767	-0.195751	0.000080
O810	O	0.914767	0.054249	0.250080
O811	O	1.164767	0.304249	0.500080
O812	O	1.414767	0.554249	0.750080
H813	H	0.695679	-0.173984	0.000093
H814	H	0.945679	0.076016	0.250093
H815	H	1.195679	0.326016	0.500093
H816	H	1.445679	0.576016	0.750093
H817	H	0.695837	-0.334024	0.000072
H818	H	0.945837	-0.084024	0.250072
H819	H	1.195837	0.165976	0.500072
H820	H	1.445837	0.415976	0.750072
H821	H	0.445258	-0.542413	0.000020
H822	H	0.695258	-0.292413	0.250020
H823	H	0.945258	-0.042413	0.500020
H824	H	1.195258	0.207587	0.750020
O825	O	0.501736	0.130592	0.764344
O826	O	0.751736	0.380592	1.014344
O827	O	1.001736	0.630592	1.264344
O828	O	1.251736	0.880592	1.514344
H829	H	0.478720	0.153613	0.791284
H830	H	0.728720	0.403613	1.041284
H831	H	0.978720	0.653613	1.291284
H832	H	1.228720	0.903613	1.541284
