data_functionalizedCrystal
_audit_creation_method	'MofGen! by Chris Wilmer'
_symmetry_space_group_name_H-M	'P1'
_symmetry_Int_Tables_number	1
_symmetry_cell_setting	triclinic
loop_
_symmetry_equiv_pos_as_xyz
  x,y,z
_cell_length_a	6.817900
_cell_length_b	17.982783
_cell_length_c	17.329378
_cell_angle_alpha	92.080676
_cell_angle_beta	103.025558
_cell_angle_gamma	102.448572
loop_
_atom_site_label
_atom_site_type_symbol
_atom_site_fract_x
_atom_site_fract_y
_atom_site_fract_z
V1	V	-4.005897	-0.089822	-0.245307
O2	O	-3.999095	0.020338	-0.240302
O3	O	-3.952471	-0.193510	-0.243952
O4	O	-3.950717	-0.081410	-0.352147
O5	O	-4.000862	-0.092538	-0.131358
V6	V	-4.491055	-0.077476	-0.231639
O7	O	-4.263570	-0.116903	-0.275290
O8	O	-4.683580	-0.050395	-0.201656
O9	O	-4.321274	0.026212	-0.232994
O10	O	-4.615253	-0.187635	-0.236644
O11	O	-4.613487	-0.074759	-0.345587
O12	O	-4.323028	-0.085888	-0.124799
C13	C	-3.796469	-0.219007	-0.240166
C14	C	-3.834028	-0.303728	-0.239770
C15	C	-3.816576	-0.337225	-0.167597
C16	C	-3.851887	-0.416830	-0.167228
C17	C	-3.904636	-0.462937	-0.239032
C18	C	-3.922095	-0.429435	-0.311211
C19	C	-3.886798	-0.349831	-0.311580
C20	C	-4.064445	-0.750467	-0.309727
C21	C	-4.099735	-0.830076	-0.309352
C22	C	-4.029533	-0.817466	-0.165375
C23	C	-3.994237	-0.737862	-0.165743
C24	C	-4.011709	-0.704368	-0.237922
C25	C	-3.973424	-0.618051	-0.238321
C26	C	-3.942906	-0.549252	-0.238633
C27	C	-3.794230	-0.076011	-0.378177
C28	C	-3.830364	-0.069820	-0.465521
C29	C	-3.883414	-0.135955	-0.517992
C30	C	-3.917374	-0.130136	-0.600061
C31	C	-3.898269	-0.058182	-0.629657
C32	C	-3.845221	0.007958	-0.577180
C33	C	-3.811276	0.002138	-0.495113
C34	C	-3.998969	-0.037156	-0.876875
C35	C	-4.032913	-0.031342	-0.958948
C36	C	-4.105067	-0.169437	-0.981824
C37	C	-4.071106	-0.175250	-0.899754
C38	C	-4.018072	-0.109110	-0.847284
C39	C	-3.932975	-0.052232	-0.713545
C40	C	-3.983382	-0.115061	-0.763399
C41	C	-4.140618	0.051705	-0.236778
C42	C	-4.082297	0.136426	-0.237179
C43	C	-4.142858	-0.091289	-0.098764
C44	C	-4.085962	-0.097477	-0.011419
H45	H	-3.965060	-0.466982	-0.369676
O46	O	-4.089971	-0.245069	-0.870825
C47	C	-4.245149	-0.255783	-0.827875
H48	H	-4.266175	-0.197771	-0.807049
H49	H	-4.197811	-0.288247	-0.774065
H50	H	-4.396939	-0.289994	-0.867779
H51	H	-3.951276	-0.700325	-0.107272
H52	H	-3.901033	-0.322560	-0.370351
H53	H	-3.898960	-0.194548	-0.493902
H54	H	-4.142690	-0.867615	-0.367828
O55	O	-4.156962	-0.233665	-1.032834
C56	C	-4.351343	-0.237789	-1.084815
H57	H	-4.441275	-0.202714	-1.056257
H58	H	-4.441585	-0.299922	-1.097143
H59	H	-4.328352	-0.214069	-1.143077
H60	H	-4.017395	0.027254	-0.983042
H61	H	-3.960578	-0.183991	-0.642781
O62	O	-3.947360	0.027168	-0.826021
C63	C	-3.937817	0.091921	-0.869746
H64	H	-3.909498	0.077054	-0.930205
H65	H	-3.806010	0.140420	-0.835898
H66	H	-4.090222	0.110650	-0.878492
H67	H	-3.917418	0.006354	-0.737651
O68	O	-4.081395	-0.718059	-0.379906
C69	C	-4.135557	-0.775827	-0.443200
H70	H	-4.087330	-0.829461	-0.420461
H71	H	-4.053141	-0.755306	-0.491561
H72	H	-4.309993	-0.789426	-0.468761
O73	O	-3.827006	0.077864	-0.605900
C74	C	-3.969344	0.115080	-0.582686
H75	H	-4.101761	0.070723	-0.569484
H76	H	-4.033250	0.149091	-0.632750
H77	H	-3.888125	0.155520	-0.527056
O78	O	-3.765454	-0.292554	-0.097775
C79	C	-3.757584	-0.339193	-0.033994
H80	H	-3.856121	-0.399045	-0.056206
H81	H	-3.819619	-0.313721	0.014150
H82	H	-3.590656	-0.342525	-0.008352
H83	H	-3.837678	-0.444099	-0.108457
O84	O	-3.760089	0.066353	-0.444116
C85	C	-3.910883	0.063737	-0.399764
H86	H	-4.062228	0.023952	-0.433655
H87	H	-3.936530	0.123607	-0.389995
H88	H	-3.855829	0.041539	-0.339778
H89	H	-4.015317	-0.844747	-0.106604
O90	O	-4.001509	-0.184969	-0.734695
C91	C	-3.858958	-0.222098	-0.757871
H92	H	-3.816014	-0.197145	-0.812978
H93	H	-3.931701	-0.285847	-0.771924
H94	H	-3.713893	-0.213328	-0.707451
