data_functionalizedCrystal
_audit_creation_method	'MofGen! by Chris Wilmer'
_symmetry_space_group_name_H-M	'P1'
_symmetry_Int_Tables_number	1
_symmetry_cell_setting	triclinic
loop_
_symmetry_equiv_pos_as_xyz
  x,y,z
_cell_length_a	14.519709
_cell_length_b	23.532407
_cell_length_c	12.996460
_cell_angle_alpha	89.989202
_cell_angle_beta	90.000034
_cell_angle_gamma	83.264412
loop_
_atom_site_label
_atom_site_type_symbol
_atom_site_fract_x
_atom_site_fract_y
_atom_site_fract_z
O1	O	1.222985	0.074654	-0.085444
O2	O	0.954405	0.083445	-0.085477
O3	O	1.096794	-0.003845	-0.085440
O4	O	1.080596	0.161945	-0.085480
O5	O	1.096779	-0.003850	0.085693
O6	O	0.954390	0.083441	0.085657
O7	O	1.222971	0.074649	0.085690
Cu8	Cu	1.088679	0.079044	0.101299
Cu9	Cu	1.088696	0.079050	-0.101086
O10	O	1.080581	0.161940	0.085654
C11	C	0.920042	0.083033	0.000086
C12	C	0.817676	0.081805	0.000075
C13	C	1.096374	-0.025066	0.000129
C14	C	1.095134	-0.088288	0.000137
C15	C	0.442833	0.077286	0.000123
C16	C	0.547126	0.078541	0.000109
C17	C	0.630251	0.079545	0.000098
C18	C	0.734551	0.080801	0.000086
C19	C	1.171619	-0.487046	0.000090
C20	C	1.170467	-0.546452	0.000082
O21	O	1.241369	-0.582876	0.000052
N22	N	1.085816	-0.569460	0.000072
C23	C	1.002312	-0.533059	0.000060
O24	O	0.930205	-0.558084	0.000050
C25	C	1.003465	-0.473655	0.000061
C26	C	1.088121	-0.450650	0.000081
C27	C	1.256268	-0.464041	0.000109
C28	C	1.257420	-0.404640	0.000119
C29	C	1.173922	-0.368244	0.000110
C30	C	1.089273	-0.391249	0.000091
C31	C	0.919962	-0.437255	0.000041
C32	C	0.921123	-0.377847	0.000041
C33	C	1.005779	-0.354843	0.000061
C34	C	1.006927	-0.295451	0.000091
N35	N	1.091578	-0.272443	0.000101
C36	C	1.175075	-0.308839	0.000110
C37	C	0.999897	-0.657813	0.000057
C38	C	0.998743	-0.717216	0.000064
C39	C	1.166898	-0.730604	0.000084
C40	C	1.168051	-0.671200	0.000084
C41	C	1.084548	-0.634804	0.000067
C42	C	1.177487	-0.184092	0.000132
C43	C	1.178632	-0.124685	0.000146
C44	C	1.010477	-0.111301	0.000121
C45	C	1.009332	-0.170703	0.000112
C46	C	1.092845	-0.207098	0.000114
O47	O	0.936062	-0.258992	0.000117
O48	O	1.247171	-0.283806	0.000106
C49	C	1.257333	0.075061	0.000125
C50	C	1.359700	0.076289	0.000130
C51	C	1.081001	0.183160	0.000082
C52	C	1.082241	0.246383	0.000067
N53	N	1.088673	0.079040	0.243647
N54	N	1.088709	0.079050	-0.243433
C55	C	1.088695	0.079051	0.663461
C56	C	1.088686	0.079050	0.546656
C57	C	1.088685	0.079046	0.453557
C58	C	1.088675	0.079044	0.336745
H59	H	1.245491	-0.213718	0.000129
C60	C	1.350545	-0.379342	0.000125
C61	C	1.374479	-0.340359	0.088991
C62	C	1.467611	-0.315068	0.088992
C63	C	1.536810	-0.328759	0.000127
C64	C	1.512878	-0.367744	-0.088745
C65	C	1.419746	-0.393036	-0.088746
H66	H	1.323252	-0.330222	0.154780
H67	H	1.485326	-0.286208	0.154782
H68	H	1.605752	-0.310037	0.000128
H69	H	1.564105	-0.377882	-0.154534
H70	H	1.402031	-0.421895	-0.154536
C71	C	0.829264	-0.337813	0.000026
C72	C	0.806916	-0.295145	0.088892
C73	C	0.715059	-0.255113	0.088880
C74	C	0.645550	-0.257749	0.000003
C75	C	0.667896	-0.300419	-0.088870
C76	C	0.759754	-0.340451	-0.088858
H77	H	0.858372	-0.293192	0.154691
H78	H	0.698517	-0.223525	0.154670
H79	H	0.577552	-0.228114	-0.000006
H80	H	0.616440	-0.302372	-0.154668
H81	H	0.776295	-0.372038	-0.154648
H82	H	1.324266	-0.493670	0.000112
C83	C	0.908036	-0.617779	0.000056
C84	C	0.885694	-0.575110	0.088922
C85	C	0.793834	-0.535080	0.088919
C86	C	0.724316	-0.537719	0.000051
C87	C	0.746657	-0.580390	-0.088821
C88	C	0.838517	-0.620420	-0.088819
H89	H	0.937156	-0.573155	0.154713
H90	H	0.777296	-0.503492	0.154709
H91	H	0.656316	-0.508087	0.000049
H92	H	0.695194	-0.582345	-0.154613
H93	H	0.855054	-0.652008	-0.154609
H94	H	1.234886	-0.760249	0.000087
C95	C	1.261173	-0.645898	0.000097
C96	C	1.330368	-0.659602	0.088971
C97	C	1.423494	-0.634304	0.088982
C98	C	1.447425	-0.595300	0.000118
C99	C	1.378228	-0.581594	-0.088762
C100	C	1.285102	-0.606893	-0.088773
H101	H	1.312654	-0.688476	0.154759
H102	H	1.474717	-0.644450	0.154777
H103	H	1.516362	-0.576573	0.000126
H104	H	1.395942	-0.552720	-0.154550
H105	H	1.233879	-0.596746	-0.154569
H106	H	0.851027	-0.455975	0.000019
H107	H	0.929808	-0.735940	0.000065
C108	C	0.918635	-0.071257	0.000106
C109	C	0.896331	-0.028567	-0.088765
C110	C	0.804489	0.011479	-0.088789
C111	C	0.734949	0.008836	0.000058
C112	C	0.757251	-0.033856	0.088936
C113	C	0.849093	-0.073902	0.088960
H114	H	0.947810	-0.026608	-0.154541
H115	H	0.787980	0.043083	-0.154583
H116	H	0.666962	0.038480	0.000041
H117	H	0.705772	-0.035815	0.154712
H118	H	0.865602	-0.105506	0.154754
H119	H	1.247572	-0.105958	0.000165
H120	H	0.940399	-0.189434	0.000124
