data_functionalizedCrystal
_audit_creation_method	'MofGen! by Chris Wilmer'
_symmetry_space_group_name_H-M	'P1'
_symmetry_Int_Tables_number	1
_symmetry_cell_setting	triclinic
loop_
_symmetry_equiv_pos_as_xyz
  x,y,z
_cell_length_a	13.185407
_cell_length_b	12.376457
_cell_length_c	16.974769
_cell_angle_alpha	97.695299
_cell_angle_beta	112.286478
_cell_angle_gamma	97.407600
loop_
_atom_site_label
_atom_site_type_symbol
_atom_site_fract_x
_atom_site_fract_y
_atom_site_fract_z
O1	O	1.463724	0.073697	0.221441
O2	O	1.147703	0.080909	0.142769
O3	O	1.312239	0.066786	0.296903
O4	O	1.299187	0.087820	0.067306
O5	O	1.271119	-0.117699	0.258413
O6	O	1.106583	-0.103576	0.104279
O7	O	1.422604	-0.110788	0.182951
Zn8	Zn	1.258065	-0.136473	0.137504
Zn9	Zn	1.312242	0.106594	0.188216
O10	O	1.258067	-0.096665	0.028816
C11	C	1.086664	-0.010602	0.115548
C12	C	0.966050	-0.008424	0.091792
N13	N	1.221098	-0.302361	0.102896
C14	C	0.672542	-0.029199	0.318512
C15	C	0.785864	-0.031253	0.340833
C16	C	0.830916	-0.025546	0.278575
C17	C	0.762635	-0.017784	0.193992
C18	C	0.649300	-0.015739	0.171667
C19	C	0.807674	-0.012085	0.131730
C20	C	0.739393	-0.004324	0.047147
C21	C	0.626069	-0.002278	0.024826
C22	C	0.581017	-0.007986	0.087084
C23	C	0.921009	-0.014131	0.154054
C24	C	0.897767	-0.000671	0.007209
C25	C	0.784445	0.001384	-0.015111
C26	C	1.435029	-0.675698	0.303182
C27	C	1.460896	-0.559577	0.327403
C28	C	1.400948	-0.495267	0.271278
C29	C	1.315130	-0.547089	0.190929
C30	C	1.289266	-0.663221	0.166703
C31	C	1.255185	-0.482791	0.134799
C32	C	1.169367	-0.534613	0.054449
C33	C	1.143507	-0.650733	0.030227
C34	C	1.203455	-0.715043	0.086352
C35	C	1.281049	-0.366659	0.159025
C36	C	1.135286	-0.354182	0.022545
C37	C	1.109419	-0.470303	-0.001675
C38	C	1.483643	-0.019275	0.210172
C39	C	1.604259	-0.021446	0.233929
C40	C	1.290423	-0.028090	0.306425
C41	C	1.286666	-0.035935	0.392139
N42	N	1.349217	0.272480	0.222831
C43	C	1.263022	-0.090843	0.872347
C44	C	1.266562	-0.083477	0.791812
C45	C	1.290755	0.020771	0.772519
C46	C	1.311399	0.117660	0.833765
C47	C	1.307852	0.110293	0.914296
C48	C	1.303762	0.053587	0.533916
C49	C	1.307311	0.060946	0.453378
C50	C	1.262472	-0.140192	0.411430
C51	C	1.258933	-0.147549	0.491967
C52	C	1.279571	-0.050660	0.553203
N53	N	1.294377	0.028302	0.690201
N54	N	1.275941	-0.058193	0.635518
C55	C	1.279891	-0.001794	1.019296
C56	C	1.283668	0.006038	0.933586
H57	H	0.976593	-0.020449	0.222923
Cl58	Cl	0.954393	0.006496	-0.071065
H59	H	1.350923	-0.324476	0.224446
Cl60	Cl	1.232615	-0.221906	0.896593
Cl61	Cl	1.333801	0.232092	0.991281
H62	H	0.923189	-0.027218	0.296753
H63	H	1.086474	-0.301822	-0.023158
Cl64	Cl	1.035634	-0.715882	-0.070789
Cl65	Cl	1.001537	-0.535462	-0.102684
Cl66	Cl	1.240583	-0.205277	0.714821
H67	H	1.239237	-0.232439	0.507669
Cl68	Cl	0.615896	-0.036386	0.396766
H69	H	1.245668	-0.219073	0.361564
Cl70	Cl	0.540229	0.007466	-0.081510
H71	H	0.841450	-0.037577	0.409699
H72	H	1.331092	0.202541	0.818049
Cl73	Cl	1.337730	0.192011	0.429129
H74	H	1.483836	-0.728065	0.348869
Cl75	Cl	0.438553	-0.005387	0.059031
Cl76	Cl	0.698594	0.011141	-0.121441
Cl77	Cl	1.329718	0.175391	0.610891
Cl78	Cl	1.568775	-0.494432	0.428407
Cl79	Cl	1.170930	-0.861030	0.055904
Cl80	Cl	1.433465	-0.349285	0.301730
