data_functionalizedCrystal
_audit_creation_method	'MofGen! by Chris Wilmer'
_symmetry_space_group_name_H-M	'P1'
_symmetry_Int_Tables_number	1
_symmetry_cell_setting	triclinic
loop_
_symmetry_equiv_pos_as_xyz
  x,y,z
_cell_length_a	14.472310
_cell_length_b	15.995350
_cell_length_c	15.995350
_cell_angle_alpha	96.507625
_cell_angle_beta	90.001162
_cell_angle_gamma	90.009379
loop_
_atom_site_label
_atom_site_type_symbol
_atom_site_fract_x
_atom_site_fract_y
_atom_site_fract_z
O1	O	-0.076758	-1.110997	0.107921
O2	O	-0.076776	-0.867221	0.121248
O3	O	-0.076766	-0.995773	-0.007303
O4	O	-0.076769	-0.982445	0.236472
O5	O	0.076916	-0.995740	-0.007296
O6	O	0.076906	-0.867188	0.121256
O7	O	0.076924	-1.110963	0.107928
Cu8	Cu	0.090947	-0.989073	0.114593
Cu9	Cu	-0.090800	-0.989112	0.114584
O10	O	0.076913	-0.982412	0.236480
C11	C	0.000062	-0.836010	0.120701
C12	C	0.000055	-0.743060	0.119049
C13	C	0.000073	-0.995205	-0.038494
C14	C	0.000068	-0.993553	-0.131444
N15	N	0.218778	-0.989051	0.114598
N16	N	-0.218631	-0.989140	0.114572
C17	C	0.592869	-0.989111	0.114581
C18	C	0.553698	-0.920095	0.183135
C19	C	0.446610	-0.920254	0.183385
C20	C	0.407278	-0.989081	0.114590
C21	C	0.446122	-1.076445	0.133671
C22	C	0.553243	-1.076057	0.134159
C23	C	0.553398	-0.971542	0.026741
C24	C	0.446270	-0.969538	0.027327
C25	C	0.302390	-0.989069	0.114593
C26	C	0.697757	-0.989128	0.114579
C27	C	0.000083	-1.142175	0.108476
C28	C	0.000084	-1.235125	0.110127
C29	C	0.000074	-0.405312	0.113117
C30	C	0.000418	-0.452746	0.021565
C31	C	0.000065	-0.549436	0.023217
C32	C	0.000065	-0.572873	0.116060
C33	C	-0.087692	-0.531804	0.161212
C34	C	-0.087759	-0.435169	0.158912
C35	C	0.087007	-0.434792	0.160812
C36	C	0.088160	-0.531737	0.160790
C37	C	0.000057	-0.667570	0.117727
C38	C	0.000076	-0.310614	0.111452
C39	C	0.000071	-0.987621	-0.469192
C40	C	-0.000281	-0.896069	-0.421758
C41	C	0.000066	-0.897721	-0.325068
C42	C	0.000069	-0.990564	-0.301631
C43	C	0.087831	-1.035701	-0.342705
C44	C	0.087904	-1.033401	-0.439340
C45	C	-0.086861	-1.035330	-0.439707
C46	C	-0.088021	-1.035309	-0.342762
C47	C	0.000071	-0.992231	-0.206934
C48	C	0.000075	-0.985956	-0.563890
C49	C	0.000072	-0.982980	0.267671
C50	C	0.000071	-0.984631	0.360621
H51	H	0.420349	-0.855314	0.172016
H52	H	0.578728	-1.021872	-0.024275
C53	C	0.085038	-0.587833	-0.024737
H54	H	0.084937	-0.647112	-0.023788
H55	H	0.082863	-0.575339	-0.081363
H56	H	0.139743	-0.564740	0.001366
C57	C	0.093304	-1.124198	-0.482909
H58	H	0.095451	-1.162324	-0.441525
H59	H	0.040388	-1.135760	-0.517429
H60	H	0.147426	-1.130526	-0.516639
C61	C	0.588537	-0.832082	0.168042
H62	H	0.627289	-0.836634	0.119801
H63	H	0.537299	-0.796995	0.159292
H64	H	0.622540	-0.808322	0.215724
H65	H	0.579154	-1.129018	0.086196
H66	H	-0.063217	-0.859490	-0.440293
H67	H	0.153082	-0.559040	0.127830
H68	H	0.578220	-1.091540	0.198219
H69	H	-0.062951	-0.577308	-0.012521
C70	C	0.411977	-0.882724	0.007753
H71	H	0.435799	-0.871262	-0.045109
H72	H	0.346372	-0.882633	0.005874
H73	H	0.432616	-0.840712	0.050419
C74	C	0.085433	-0.427702	-0.027871
H75	H	0.121478	-0.388089	0.006876
H76	H	0.121566	-0.476277	-0.044703
H77	H	0.065700	-0.403269	-0.076280
C78	C	-0.084123	-0.426294	-0.027655
H79	H	-0.119630	-0.386471	0.007348
H80	H	-0.063941	-0.401747	-0.075851
H81	H	-0.120966	-0.474349	-0.044813
H82	H	-0.093317	-1.103014	-0.327400
C83	C	0.409876	-1.097868	0.219223
H84	H	0.433765	-1.150855	0.230207
H85	H	0.429201	-1.055718	0.262311
H86	H	0.344295	-1.100260	0.217926
H87	H	0.420643	-1.129029	0.085068
C88	C	-0.084919	-0.849791	-0.286668
H89	H	-0.084824	-0.850743	-0.227389
H90	H	-0.082755	-0.793163	-0.299158
H91	H	-0.139616	-0.875911	-0.309761
H92	H	0.091097	-1.103909	-0.328579
H93	H	0.580461	-0.909219	0.008392
H94	H	0.580608	-0.931159	0.247952
C95	C	0.410120	-1.033039	-0.044821
H96	H	0.370602	-1.072480	-0.022569
H97	H	0.376676	-1.003986	-0.083693
H98	H	0.460790	-1.061847	-0.072703
C99	C	0.176059	-0.993317	-0.304371
H100	H	0.228801	-1.021082	-0.329632
H101	H	0.176845	-0.935895	-0.314342
H102	H	0.176968	-0.996836	-0.245486
H103	H	-0.153359	-0.416874	0.125979
C104	C	-0.093163	-0.391601	0.249708
H105	H	-0.095315	-0.432985	0.287835
H106	H	-0.040248	-0.357073	0.261269
H107	H	-0.147285	-0.357877	0.256038
C108	C	-0.176725	-0.994919	-0.467453
H109	H	-0.228339	-1.024650	-0.449035
H110	H	-0.179424	-0.937884	-0.443391
H111	H	-0.177852	-0.997301	-0.527060
H112	H	0.062299	-0.859626	-0.441349
H113	H	0.420976	-0.931473	0.248569
H114	H	-0.090955	-0.545930	0.229421
H115	H	-0.153002	-0.560193	0.129845
C116	C	0.176867	-0.407034	0.120386
H117	H	0.162204	-0.377204	0.074035
H118	H	0.211129	-0.371555	0.160790
H119	H	0.212696	-0.455223	0.101372
C120	C	0.095325	-0.552488	0.252253
H121	H	0.044452	-0.586657	0.264413
H122	H	0.151336	-0.581828	0.259342
H123	H	0.094584	-0.501775	0.289436
C124	C	0.087810	-0.391891	0.251999
H125	H	0.035456	-0.356180	0.260994
H126	H	0.085880	-0.433560	0.289819
H127	H	0.142582	-0.359448	0.261432
H128	H	0.063079	-0.861973	-0.297200
H129	H	0.153505	-1.000459	-0.457639
H130	H	-0.152945	-1.002307	-0.315516
C131	C	-0.087665	-1.126514	-0.482618
H132	H	-0.035310	-1.135499	-0.518334
H133	H	-0.085738	-1.164341	-0.440956
H134	H	-0.142436	-1.135946	-0.515057
