data_functionalizedCrystal
_audit_creation_method	'MofGen! by Chris Wilmer'
_symmetry_space_group_name_H-M	'P1'
_symmetry_Int_Tables_number	1
_symmetry_cell_setting	triclinic
loop_
_symmetry_equiv_pos_as_xyz
  x,y,z
_cell_length_a	16.109302
_cell_length_b	14.586319
_cell_length_c	16.109301
_cell_angle_alpha	89.994230
_cell_angle_beta	96.538369
_cell_angle_gamma	90.006080
loop_
_atom_site_label
_atom_site_type_symbol
_atom_site_fract_x
_atom_site_fract_y
_atom_site_fract_z
O1	O	1.103131	0.076284	-0.106870
O2	O	0.861069	0.076278	-0.120168
O3	O	0.988750	0.076272	0.007512
O4	O	0.975451	0.076290	-0.234550
O5	O	0.988740	-0.076209	0.007515
O6	O	0.861059	-0.076203	-0.120165
O7	O	1.103121	-0.076196	-0.106867
Cu8	Cu	0.982089	-0.090122	-0.113516
Cu9	Cu	0.982101	0.090204	-0.113519
O10	O	0.975440	-0.076191	-0.234547
C11	C	0.830089	0.000036	-0.119628
C12	C	0.737794	0.000033	-0.118013
N13	N	0.982087	-0.216954	-0.113513
C14	C	1.038646	-0.547951	-0.056994
C15	C	1.038643	-0.451969	-0.056995
C16	C	0.925548	-0.451975	-0.170040
C17	C	0.925555	-0.547954	-0.170043
C18	C	0.982103	-0.595940	-0.113515
C19	C	0.982094	-0.403979	-0.113513
C20	C	0.982091	-0.299912	-0.113514
C21	C	0.982107	-0.700014	-0.113515
C22	C	0.525447	-0.083075	-0.114276
C23	C	0.438727	-0.083072	-0.112749
C24	C	0.438749	0.083171	-0.112757
C25	C	0.525468	0.083167	-0.114277
C26	C	0.568815	0.000041	-0.115041
C27	C	0.395375	0.000048	-0.111994
C28	C	0.301350	0.000052	-0.110338
C29	C	0.662847	0.000037	-0.116695
C30	C	1.134101	0.000047	-0.107407
C31	C	1.226396	0.000056	-0.109022
C32	C	0.988206	0.000031	0.038488
C33	C	0.986591	0.000030	0.130784
N34	N	0.982110	0.217035	-0.113516
C35	C	0.975984	0.000052	-0.265523
C36	C	0.977599	0.000060	-0.357819
C37	C	1.058599	0.000046	0.353056
C38	C	1.057074	0.000054	0.439776
C39	C	0.905586	0.000046	0.419902
C40	C	0.907111	0.000045	0.333184
C41	C	0.983620	0.000040	0.299763
C42	C	0.980571	0.000049	0.473202
C43	C	0.978918	0.000057	0.567228
C44	C	0.985273	0.000034	0.205731
H45	H	1.084691	-0.587018	-0.010967
O46	O	0.391987	0.172819	-0.111938
H47	H	0.416057	0.212668	-0.055593
H48	H	1.118130	0.000060	0.483165
H49	H	0.843295	0.000048	0.447124
O50	O	0.826237	0.000028	0.275693
H51	H	0.772780	0.000015	0.313500
H52	H	0.560738	-0.150762	-0.114898
O53	O	0.572253	0.172817	-0.115106
H54	H	0.527542	0.230621	-0.114332
H55	H	1.084687	-0.412899	-0.010971
H56	H	0.879511	-0.587030	-0.216073
O57	O	0.864536	-0.400221	-0.230985
H58	H	0.874017	-0.325417	-0.221476
H59	H	0.403422	-0.150754	-0.112126
O60	O	1.141114	0.000060	0.317004
H61	H	1.192995	0.000077	0.368635
