data_functionalizedCrystal
_audit_creation_method	'MofGen! by Chris Wilmer'
_symmetry_space_group_name_H-M	'P1'
_symmetry_Int_Tables_number	1
_symmetry_cell_setting	triclinic
loop_
_symmetry_equiv_pos_as_xyz
  x,y,z
_cell_length_a	15.538191
_cell_length_b	10.654550
_cell_length_c	9.130313
_cell_angle_alpha	90.000276
_cell_angle_beta	89.998786
_cell_angle_gamma	114.121488
loop_
_atom_site_label
_atom_site_type_symbol
_atom_site_fract_x
_atom_site_fract_y
_atom_site_fract_z
O1	O	0.131916	-1.606172	-0.121678
O2	O	0.144484	-1.234818	-0.121704
O3	O	0.001542	-1.492782	-0.121693
O4	O	0.274857	-1.348208	-0.121689
O5	O	0.001538	-1.492771	0.121906
O6	O	0.144479	-1.234807	0.121895
O7	O	0.131911	-1.606161	0.121921
Cu8	Cu	0.138195	-1.420483	0.144150
Cu9	Cu	0.138200	-1.420496	-0.143934
O10	O	0.274853	-1.348197	0.121910
C11	C	0.143559	-1.188446	0.000092
C12	C	0.140798	-1.050293	0.000082
C13	C	-0.033456	-1.507903	0.000102
C14	C	-0.137736	-1.552959	0.000091
C15	C	0.132836	-1.652533	0.000121
C16	C	0.135597	-1.790685	0.000122
C17	C	-0.428451	-1.105338	0.000091
C18	C	-0.526440	-1.147707	0.000098
C19	C	-0.547326	-1.386021	0.000114
C20	C	-0.449336	-1.343672	0.000100
C21	C	-0.389906	-1.203329	0.000091
C22	C	-0.410792	-1.441663	0.000099
C23	C	-0.312811	-1.399317	0.000094
C24	C	-0.253375	-1.258980	0.000089
C25	C	-0.291926	-1.160983	0.000085
C26	C	-0.470224	-1.582005	0.000119
C27	C	-0.431679	-1.679996	0.000119
C28	C	-0.333697	-1.637651	0.000102
C29	C	-0.274261	-1.497314	0.000097
C30	C	-0.295147	-1.735648	0.000106
C31	C	-0.197166	-1.693302	0.000100
C32	C	-0.176280	-1.454968	0.000092
C33	C	0.309851	-1.333076	0.000111
C34	C	0.414131	-1.288020	0.000113
N35	N	0.138191	-1.420483	0.346773
C36	C	0.224959	-0.931464	0.000087
C37	C	0.222359	-0.801659	0.000112
C38	C	0.051429	-0.909528	0.000121
C39	C	0.054030	-1.039330	0.000106
N40	N	0.138197	-1.420509	-0.346556
C41	C	0.074924	-1.534726	0.423429
C42	C	0.074924	-1.534738	0.576766
C43	C	0.201467	-1.306256	0.576776
C44	C	0.201462	-1.306242	0.423442
H45	H	-0.127888	-1.340687	0.000073
C46	C	-0.227343	-1.008628	-0.000236
C47	C	-0.170501	-0.977370	-0.125584
C48	C	-0.111005	-0.837040	-0.125939
H49	H	-0.188598	-0.986991	0.084610
H50	H	-0.264294	-0.956271	-0.000321
H51	H	-0.133553	-1.029709	-0.125486
H52	H	-0.209221	-0.998973	-0.210451
H53	H	-0.147956	-0.784683	-0.126024
H54	H	-0.072266	-0.815416	-0.041087
H55	H	-0.072436	-0.815811	-0.210992
H56	H	-0.380059	-0.991057	0.000073
H57	H	0.023403	-1.627747	0.361009
H58	H	0.252982	-1.213244	0.639216
C59	C	0.006193	-1.658936	0.659729
C60	C	-0.049198	-1.758986	0.559760
C61	C	-0.112518	-1.873427	0.636130
H62	H	-0.033309	-1.631930	0.719559
H63	H	0.040324	-1.695722	0.719503
H64	H	-0.083326	-1.722205	0.500011
H65	H	-0.009721	-1.786031	0.499926
H66	H	-0.078387	-1.910213	0.695904
H67	H	-0.152014	-1.846407	0.695958
H68	H	-0.150102	-1.941329	0.568313
H69	H	0.252982	-1.213205	0.361024
H70	H	-0.557817	-1.067900	0.000119
H71	H	0.295611	-0.940383	0.000078
C72	C	-0.576598	-1.627911	-0.000184
C73	C	-0.603330	-1.577036	-0.125540
C74	C	-0.701314	-1.619313	-0.125882
H75	H	-0.595026	-1.593496	0.084657
H76	H	-0.606506	-1.725526	-0.000251
H77	H	-0.573433	-1.479441	-0.125460
H78	H	-0.584926	-1.611445	-0.210401
H79	H	-0.731222	-1.716928	-0.125949
H80	H	-0.719733	-1.584896	-0.041036
H81	H	-0.719465	-1.584812	-0.210940
H82	H	-0.480080	-1.794264	0.000132
H83	H	-0.173593	-1.224505	0.000092
H84	H	0.290892	-0.704908	0.000120
H85	H	-0.595727	-1.500288	0.000127
H86	H	-0.343549	-1.849915	0.000128
H87	H	-0.165783	-1.773096	0.000102
H88	H	-0.014509	-1.136092	0.000106
H89	H	-0.019214	-0.900584	0.000150
