data_functionalizedCrystal
_audit_creation_method	'MofGen! by Chris Wilmer'
_symmetry_space_group_name_H-M	'P1'
_symmetry_Int_Tables_number	1
_symmetry_cell_setting	triclinic
loop_
_symmetry_equiv_pos_as_xyz
  x,y,z
_cell_length_a	15.944493
_cell_length_b	15.944551
_cell_length_c	14.421503
_cell_angle_alpha	89.996859
_cell_angle_beta	89.989835
_cell_angle_gamma	96.513109
loop_
_atom_site_label
_atom_site_type_symbol
_atom_site_fract_x
_atom_site_fract_y
_atom_site_fract_z
O1	O	0.108323	-1.114507	0.077003
O2	O	0.121680	-0.869954	0.077024
O3	O	-0.007276	-0.998934	0.077021
O4	O	0.237280	-0.985527	0.077006
O5	O	-0.007257	-0.998913	-0.077203
O6	O	0.121699	-0.869933	-0.077199
O7	O	0.108343	-1.114485	-0.077221
Cu8	Cu	0.115023	-0.992207	-0.091292
Cu9	Cu	0.115000	-0.992232	0.091095
O10	O	0.237299	-0.985506	-0.077217
C11	C	-0.038562	-0.998375	-0.000087
C12	C	-0.131810	-0.996733	-0.000075
C13	C	0.121135	-0.838650	-0.000084
C14	C	0.119473	-0.745404	-0.000076
C15	C	0.108888	-1.145790	-0.000110
C16	C	0.110550	-1.239036	-0.000113
C17	C	-0.367570	-1.072653	-0.000099
C18	C	-0.418148	-1.031722	0.075944
C19	C	-0.302531	-0.993688	-0.000086
C20	C	-0.418105	-1.031683	-0.076108
C21	C	-0.467441	-0.990754	-0.000101
C22	C	-0.351881	-0.952779	0.076020
C23	C	-0.351834	-0.952751	-0.076101
C24	C	-0.402379	-0.911763	-0.000039
C25	C	-0.207531	-0.995381	-0.000077
C26	C	-0.562438	-0.989055	-0.000104
C27	C	0.268584	-0.986064	-0.000107
C28	C	0.361833	-0.987707	-0.000113
N29	N	0.115038	-0.992196	-0.219573
C30	C	0.035566	-0.530565	-0.000089
C31	C	0.074520	-0.469547	0.075949
C32	C	0.116465	-0.574679	-0.000086
C33	C	0.074558	-0.469548	-0.076103
C34	C	0.113555	-0.409767	-0.000101
C35	C	0.155442	-0.514889	0.076014
C36	C	0.155468	-0.514897	-0.076106
C37	C	0.194481	-0.453897	-0.000050
C38	C	0.118140	-0.669681	-0.000077
C39	C	0.111886	-0.314766	-0.000103
C40	C	0.174641	-0.932545	-0.469225
C41	C	0.190949	-1.008441	-0.531036
C42	C	0.115018	-0.992216	-0.408734
C43	C	0.098730	-0.916339	-0.531018
C44	C	0.115001	-0.992229	-0.591456
C45	C	0.131364	-1.068151	-0.469184
C46	C	0.039112	-0.975998	-0.469161
C47	C	0.055388	-1.051950	-0.530944
C48	C	0.115030	-0.992207	-0.303473
C49	C	0.114988	-0.992246	-0.696715
N50	N	0.114978	-0.992251	0.219377
H51	H	-0.351942	-1.140671	-0.000029
H52	H	0.255133	-1.022171	-0.558213
C53	C	-0.423287	-0.819809	0.000021
C54	C	-0.392030	-0.759927	-0.079635
C55	C	-0.412943	-0.667976	-0.079571
C56	C	-0.465113	-0.635907	0.000150
C57	C	-0.496373	-0.695790	0.079812
C58	C	-0.475460	-0.787741	0.079747
H59	H	-0.353408	-0.783665	-0.138655
H60	H	-0.389802	-0.623646	-0.138542
H61	H	-0.480594	-0.567839	0.000198
H62	H	-0.534995	-0.672052	0.138831
H63	H	-0.498601	-0.832071	0.138719
C64	C	0.201615	-0.541886	0.162960
C65	C	0.237717	-0.475075	0.233810
C66	C	0.283887	-0.502074	0.320755
C67	C	0.293954	-0.595884	0.336849
C68	C	0.257852	-0.662701	0.265997
C69	C	0.211682	-0.635702	0.179052
H70	H	0.230265	-0.405625	0.221898
H71	H	0.310613	-0.452611	0.373204
H72	H	0.328132	-0.615870	0.401211
H73	H	0.265303	-0.732151	0.277909
H74	H	0.184956	-0.685165	0.126602
H75	H	-0.025052	-0.962246	-0.441962
H76	H	-0.447028	-1.065038	-0.140393
H77	H	-0.323069	-0.919459	0.140377
H78	H	0.040334	-0.449460	-0.140385
H79	H	-0.322866	-0.919423	-0.140387
H80	H	-0.031574	-0.563912	0.000009
C81	C	-0.457266	-1.076779	0.162788
C82	C	-0.447502	-1.170570	0.179489
C83	C	-0.486616	-1.215632	0.266330
C84	C	-0.535494	-1.166903	0.336470
C85	C	-0.545261	-1.073108	0.319772
C86	C	-0.506147	-1.028046	0.232930
H87	H	-0.411317	-1.206646	0.127565
H88	H	-0.479386	-1.285065	0.278691
H89	H	-0.564449	-1.200261	0.400755
H90	H	-0.581445	-1.037031	0.371696
H91	H	-0.513377	-0.958612	0.220569
C92	C	0.242805	-0.864445	-0.432603
C93	C	0.336259	-0.868614	-0.457056
C94	C	0.404424	-0.800520	-0.420432
C95	C	0.379135	-0.728256	-0.359356
C96	C	0.285677	-0.724084	-0.334900
C97	C	0.217512	-0.792179	-0.371523
H98	H	0.354983	-0.922111	-0.502271
H99	H	0.473608	-0.803609	-0.438536
H100	H	0.429595	-0.677849	-0.332245
H101	H	0.266952	-0.670588	-0.289685
H102	H	0.148327	-0.789090	-0.353419
H103	H	0.040295	-0.449453	0.140238
C104	C	0.150075	-1.154863	-0.432653
C105	C	0.233722	-1.188972	-0.457892
C106	C	0.252438	-1.275681	-0.421358
C107	C	0.187508	-1.328280	-0.359586
C108	C	0.103856	-1.294172	-0.334344
C109	C	0.085140	-1.207464	-0.370878
H110	H	0.281791	-1.150034	-0.503622
H111	H	0.314363	-1.300929	-0.440044
H112	H	0.201363	-1.392467	-0.332541
H113	H	0.055786	-1.333110	-0.288614
H114	H	0.023215	-1.182215	-0.352192
C115	C	0.285268	-0.409064	0.000005
C116	C	0.345439	-0.423469	0.080507
C117	C	0.436222	-0.378630	0.080570
C118	C	0.466835	-0.319386	0.000129
C119	C	0.406663	-0.304979	-0.080380
C120	C	0.315880	-0.349818	-0.080442
H121	H	0.322778	-0.467327	0.140060
H122	H	0.480765	-0.389295	0.140168
H123	H	0.534038	-0.286194	0.000175
H124	H	0.429323	-0.261121	-0.139932
H125	H	0.271337	-0.339152	-0.140041
C126	C	0.201662	-0.542088	-0.162957
C127	C	0.167713	-0.524512	-0.260163
C128	C	0.213897	-0.551708	-0.347022
C129	C	0.294032	-0.596480	-0.336675
C130	C	0.327986	-0.614058	-0.239466
C131	C	0.281801	-0.586862	-0.152606
H132	H	0.108388	-0.491367	-0.267825
H133	H	0.188762	-0.538696	-0.418983
H134	H	0.328221	-0.616613	-0.400974
H135	H	0.387311	-0.647203	-0.231803
H136	H	0.306937	-0.599875	-0.080645
C137	C	-0.012742	-1.120197	-0.567333
C138	C	-0.008528	-1.213599	-0.542687
C139	C	-0.076653	-1.281847	-0.579079
C140	C	-0.148994	-1.256694	-0.640117
C141	C	-0.153211	-1.163287	-0.664767
C142	C	-0.085086	-1.095039	-0.628375
H143	H	0.045026	-1.232223	-0.497500
H144	H	-0.073530	-1.350993	-0.560831
H145	H	-0.199424	-1.307215	-0.667056
H146	H	-0.206765	-1.144663	-0.709954
H147	H	-0.088208	-1.025893	-0.646623
C148	C	0.080120	-0.829648	-0.567709
C149	C	0.139677	-0.749815	-0.543350
C150	C	0.121075	-0.663122	-0.580038
C151	C	0.042916	-0.656262	-0.641086
C152	C	-0.016646	-0.736097	-0.665449
C153	C	0.001956	-0.822790	-0.628760
H154	H	0.197539	-0.754890	-0.498156
H155	H	0.165167	-0.604022	-0.562003
H156	H	0.029146	-0.592086	-0.668245
H157	H	-0.074509	-0.731022	-0.710643
H158	H	-0.042136	-0.881890	-0.646795
