data_functionalizedCrystal
_audit_creation_method	'MofGen! by Chris Wilmer'
_symmetry_space_group_name_H-M	'P1'
_symmetry_Int_Tables_number	1
_symmetry_cell_setting	triclinic
loop_
_symmetry_equiv_pos_as_xyz
  x,y,z
_cell_length_a	19.077105
_cell_length_b	21.295417
_cell_length_c	19.076919
_cell_angle_alpha	87.732301
_cell_angle_beta	89.923776
_cell_angle_gamma	87.725910
loop_
_atom_site_label
_atom_site_type_symbol
_atom_site_fract_x
_atom_site_fract_y
_atom_site_fract_z
Zn1	Zn	1.058240	-0.304535	0.440394
Zn2	Zn	1.391573	0.028798	0.773727
Zn3	Zn	1.724907	0.362132	1.107060
Zn4	Zn	1.062870	-0.405748	0.322879
Zn5	Zn	1.396203	-0.072415	0.656212
Zn6	Zn	1.729537	0.260919	0.989545
Zn7	Zn	0.945459	-0.296102	0.318188
Zn8	Zn	1.278792	0.037231	0.651521
Zn9	Zn	1.612125	0.370564	0.984854
Zn10	Zn	0.940692	-0.405368	0.435631
Zn11	Zn	1.274025	-0.072035	0.768965
Zn12	Zn	1.607358	0.261298	1.102298
O13	O	1.001815	-0.352938	0.379273
O14	O	1.335148	-0.019605	0.712606
O15	O	1.668482	0.313728	1.045939
O16	O	1.157186	-0.321649	0.428761
O17	O	1.490519	0.011684	0.762095
O18	O	1.823852	0.345018	1.095428
O19	O	1.051228	-0.387833	0.223925
O20	O	1.384561	-0.054500	0.557259
O21	O	1.717894	0.278834	0.890592
O22	O	0.960477	-0.209135	0.334428
O23	O	1.293810	0.124199	0.667762
O24	O	1.627144	0.457532	1.001095
O25	O	1.160587	-0.396010	0.342424
O26	O	1.493921	-0.062676	0.675757
O27	O	1.827254	0.270657	1.009090
O28	O	1.043337	-0.215330	0.424212
O29	O	1.376670	0.118003	0.757546
O30	O	1.710003	0.451337	1.090879
O31	O	0.964966	-0.307277	0.220479
O32	O	1.298300	0.026057	0.553812
O33	O	1.631633	0.359390	0.887146
O34	O	0.846495	-0.306909	0.329811
O35	O	1.179828	0.026425	0.663144
O36	O	1.513162	0.359758	0.996477
O37	O	0.952352	-0.395363	0.534594
O38	O	1.285685	-0.062029	0.867927
O39	O	1.619019	0.271304	1.201261
O40	O	0.842993	-0.387186	0.416096
O41	O	1.176326	-0.053853	0.749429
O42	O	1.509659	0.279481	1.082763
O43	O	1.038714	-0.321281	0.538093
O44	O	1.372048	0.012052	0.871426
O45	O	1.705381	0.345386	1.204760
O46	O	1.046605	-0.493784	0.337806
O47	O	1.379939	-0.160450	0.671139
O48	O	1.713272	0.172883	1.004472
O49	O	0.956842	-0.493505	0.420645
O50	O	1.290175	-0.160172	0.753978
O51	O	1.623508	0.173162	1.087311
C52	C	0.819248	-0.346091	0.371928
C53	C	1.152581	-0.012758	0.705261
C54	C	1.485914	0.320575	1.038594
C55	C	0.741144	-0.343178	0.368802
C56	C	1.074477	-0.009845	0.702136
C57	C	1.407810	0.323489	1.035469
C58	C	0.702648	-0.383664	0.412187
C59	C	1.035981	-0.050330	0.745521
C60	C	1.369315	0.283003	1.078854
C61	C	0.629261	-0.380918	0.409254
C62	C	0.962594	-0.047585	0.742587
C63	C	1.295928	0.285749	1.075921
C64	C	0.594371	-0.337690	0.362931
C65	C	0.927704	-0.004356	0.696265
C66	C	1.261038	0.328977	1.029598
C67	C	0.632872	-0.297200	0.319544
C68	C	0.966205	0.036134	0.652878
C69	C	1.299539	0.369467	0.986211
C70	C	0.706257	-0.299943	0.322482
C71	C	1.039591	0.033391	0.655815
C72	C	1.372924	0.366724	0.989149
C73	C	0.375085	-0.324995	0.349340
C74	C	0.708418	0.008339	0.682673
C75	C	1.041752	0.341672	1.016006
C76	C	0.301694	-0.322256	0.346404
C77	C	0.635028	0.011077	0.679737
C78	C	0.968361	0.344411	1.013071
C79	C	0.298089	-0.405974	0.436115
C80	C	0.631422	-0.072641	0.769448
C81	C	0.964755	0.260692	1.102782
C82	C	0.371476	-0.408716	0.439045
C83	C	0.704809	-0.075383	0.772379
C84	C	1.038142	0.257951	1.105712
C85	C	0.409970	-0.368224	0.395661
C86	C	0.743303	-0.034890	0.728994
C87	C	1.076637	0.298443	1.062328
N88	N	0.519358	-0.334883	0.359930
N89	N	0.852691	-0.001550	0.693264
N90	N	1.186025	0.331783	1.026597
N91	N	0.484982	-0.371027	0.398666
N92	N	0.818315	-0.037694	0.732000
N93	N	1.151648	0.295639	1.065333
C94	C	1.001727	-0.516485	0.379234
C95	C	1.335060	-0.183152	0.712567
C96	C	1.668394	0.150181	1.045900
C97	C	1.001753	-0.586455	0.379243
C98	C	1.335086	-0.253121	0.712576
C99	C	1.668419	0.080212	1.045910
C100	C	1.044871	-0.622490	0.426025
C101	C	1.378204	-0.289157	0.759358
C102	C	1.711538	0.044176	1.092691
C103	C	1.044895	-0.688234	0.426043
C104	C	1.378228	-0.354901	0.759376
C105	C	1.711562	-0.021568	1.092710
C106	C	1.001809	-0.717940	0.379267
C107	C	1.335142	-0.384607	0.712601
C108	C	1.668475	-0.051273	1.045934
C109	C	0.958682	-0.681896	0.332482
C110	C	1.292015	-0.348563	0.665815
C111	C	1.625349	-0.015229	0.999149
C112	C	0.958654	-0.616153	0.332470
C113	C	1.291987	-0.282820	0.665803
C114	C	1.625321	0.050513	0.999137
N115	N	0.998975	-0.818882	0.317559
N116	N	1.332308	-0.485549	0.650892
N117	N	1.665642	-0.152215	0.984226
N118	N	0.999006	-0.881335	0.317573
N119	N	1.332339	-0.548002	0.650906
N120	N	1.665672	-0.214668	0.984239
C121	C	1.001890	-0.916019	0.379302
C122	C	1.335223	-0.582686	0.712636
C123	C	1.668556	-0.249352	1.045969
N124	N	1.004755	-0.885891	0.441020
N125	N	1.338089	-0.552558	0.774353
N126	N	1.671422	-0.219224	1.107686
N127	N	1.004728	-0.823432	0.441005
N128	N	1.338062	-0.490099	0.774339
N129	N	1.671395	-0.156766	1.107672
C130	C	1.001834	-0.789227	0.379276
C131	C	1.335167	-0.455893	0.712609
C132	C	1.668501	-0.122560	1.045942
C133	C	1.045036	-1.023342	0.426108
C134	C	1.378369	-0.690009	0.759441
C135	C	1.711703	-0.356675	1.092775
C136	C	1.045055	-1.089087	0.426127
C137	C	1.378389	-0.755754	0.759461
C138	C	1.711722	-0.422420	1.092794
C139	C	0.958846	-1.082748	0.332560
C140	C	1.292180	-0.749414	0.665894
C141	C	1.625513	-0.416081	0.999227
C142	C	0.958823	-1.017004	0.332547
C143	C	1.292156	-0.683670	0.665880
C144	C	1.625490	-0.350337	0.999214
C145	C	1.001922	-0.987305	0.379320
C146	C	1.335255	-0.653972	0.712653
C147	C	1.668589	-0.320638	1.045987
C148	C	1.185096	-0.359812	0.386647
C149	C	1.518429	-0.026479	0.719980
C150	C	1.851762	0.306854	1.053314
C151	C	1.263199	-0.362742	0.389789
C152	C	1.596532	-0.029408	0.723123
C153	C	1.929865	0.303925	1.056456
C154	C	0.994485	-0.359220	0.562552
C155	C	1.327818	-0.025887	0.895886
C156	C	1.661152	0.307447	1.229219
C157	C	0.991361	-0.361897	0.640655
C158	C	1.324695	-0.028564	0.973989
C159	C	1.658028	0.304770	1.307322
C160	C	1.001922	-0.188754	0.379328
C161	C	1.335255	0.144579	0.712662
C162	C	1.668589	0.477913	1.045995
C163	C	1.001968	-0.118788	0.379352
C164	C	1.335301	0.214545	0.712685
C165	C	1.668634	0.547878	1.046019
C166	C	1.009157	-0.346637	0.196708
C167	C	1.342490	-0.013304	0.530041
C168	C	1.675824	0.320030	0.863374
C169	C	1.012417	-0.343788	0.118611
C170	C	1.345750	-0.010455	0.451944
C171	C	1.679084	0.322879	0.785277
C172	C	1.034856	-0.324586	0.679171
C173	C	1.368189	0.008747	1.012504
C174	C	1.701523	0.342081	1.345838
C175	C	1.031912	-0.327098	0.752557
C176	C	1.365246	0.006235	1.085890
C177	C	1.698579	0.339568	1.419223
C178	C	0.985477	-0.366926	0.787425
C179	C	1.318811	-0.033593	1.120759
C180	C	1.652144	0.299741	1.454092
C181	C	0.941978	-0.404238	0.748904
C182	C	1.275312	-0.070905	1.082238
C183	C	1.608645	0.262428	1.415571
C184	C	0.944919	-0.401722	0.675520
C185	C	1.278252	-0.068389	1.008853
C186	C	1.611585	0.264945	1.342187
C187	C	0.971858	-0.378584	1.006706
C188	C	1.305192	-0.045251	1.340039
C189	C	1.638525	0.288083	1.673372
C190	C	0.968923	-0.381099	1.080095
C191	C	1.302256	-0.047766	1.413429
C192	C	1.635589	0.285568	1.746762
C193	C	1.058856	-0.303958	1.083742
C194	C	1.392189	0.029375	1.417076
C195	C	1.725523	0.362709	1.750409
C196	C	1.061795	-0.301448	1.010356
C197	C	1.395129	0.031885	1.343690
C198	C	1.728462	0.365219	1.677023
C199	C	1.018294	-0.338758	0.971842
C200	C	1.351627	-0.005425	1.305175
C201	C	1.684960	0.327909	1.638508
N202	N	0.982469	-0.369496	0.862437
N203	N	1.315802	-0.036163	1.195771
N204	N	1.649136	0.297170	1.529104
N205	N	1.021299	-0.336184	0.896831
N206	N	1.354632	-0.002850	1.230164
N207	N	1.687966	0.330483	1.563498
H208	H	0.266739	-0.438940	0.471437
H209	H	0.600072	-0.105606	0.804770
H210	H	0.933405	0.227727	1.138104
H211	H	0.904167	-0.436664	0.777300
H212	H	1.237501	-0.103331	1.110634
H213	H	1.570834	0.230002	1.443967
H214	H	0.931107	-0.413533	1.108483
H215	H	1.264441	-0.080199	1.441816
H216	H	1.597774	0.253134	1.775150
O217	O	0.747784	-0.256284	0.275681
O218	O	1.081117	0.077050	0.609014
O219	O	1.414450	0.410383	0.942347
H220	H	0.711196	-0.225769	0.242969
H221	H	1.044529	0.107565	0.576302
H222	H	1.377862	0.440898	0.909635
H223	H	0.923599	-0.706087	0.294399
H224	H	1.256933	-0.372753	0.627732
H225	H	1.590266	-0.039420	0.961065
H226	H	1.094272	-0.273581	1.115109
H227	H	1.427605	0.059752	1.448442
H228	H	1.760938	0.393085	1.781775
H229	H	1.099610	-0.269018	0.981971
H230	H	1.432943	0.064315	1.315305
H231	H	1.766276	0.397649	1.648638
O232	O	1.084946	-0.281633	0.641565
O233	O	1.418279	0.051700	0.974899
O234	O	1.751612	0.385033	1.308232
H235	H	1.054859	-0.247284	0.606869
H236	H	1.388193	0.086049	0.940202
H237	H	1.721526	0.419382	1.273535
O238	O	0.587743	-0.424700	0.455912
O239	O	0.921077	-0.091367	0.789246
O240	O	1.254410	0.241967	1.122579
H241	H	0.624336	-0.455267	0.488561
H242	H	0.957669	-0.121934	0.821894
H243	H	1.291002	0.211399	1.155228
O244	O	0.595234	-0.250589	0.269570
O245	O	0.928568	0.082744	0.602903
O246	O	1.261901	0.416077	0.936236
H247	H	0.560548	-0.218440	0.299737
H248	H	0.893882	0.114893	0.633070
H249	H	1.227215	0.448226	0.966403
O250	O	0.416590	-0.281335	0.302525
O251	O	0.749923	0.051998	0.635858
O252	O	1.083257	0.385332	0.969191
H253	H	0.402041	-0.231835	0.314098
H254	H	0.735374	0.101498	0.647431
H255	H	1.068707	0.434831	0.980764
O256	O	0.912156	-0.577280	0.282002
O257	O	1.245489	-0.243947	0.615335
O258	O	1.578823	0.089387	0.948669
H259	H	0.882202	-0.608978	0.249473
H260	H	1.215535	-0.275645	0.582807
H261	H	1.548869	0.057689	0.916140
H262	H	1.080001	-0.717580	0.464146
H263	H	1.413334	-0.384247	0.797480
H264	H	1.746667	-0.050914	1.130813
O265	O	1.091350	-0.590452	0.476470
O266	O	1.424683	-0.257119	0.809803
O267	O	1.758017	0.076214	1.143137
H268	H	1.128367	-0.560750	0.446473
H269	H	1.461701	-0.227417	0.779806
H270	H	1.795034	0.105916	1.113140
H271	H	0.399878	-0.443919	0.476765
H272	H	0.733211	-0.110585	0.810098
H273	H	1.066545	0.222748	1.143431
O274	O	0.924905	-0.418790	0.965167
O275	O	1.258239	-0.085457	1.298500
O276	O	1.591572	0.247877	1.631833
H277	H	0.892115	-0.446898	1.001744
H278	H	1.225448	-0.113564	1.335077
H279	H	1.558782	0.219769	1.668411
O280	O	1.091512	-0.991302	0.476558
O281	O	1.424845	-0.657968	0.809891
O282	O	1.758178	-0.324635	1.143224
H283	H	1.121492	-1.027408	0.509100
H284	H	1.454825	-0.694075	0.842433
H285	H	1.788158	-0.360741	1.175767
H286	H	0.273289	-0.287047	0.308687
H287	H	0.606622	0.046286	0.642020
H288	H	0.939956	0.379620	0.975354
O289	O	0.897998	-0.441962	0.633981
O290	O	1.231332	-0.108629	0.967314
O291	O	1.564665	0.224704	1.300648
H292	H	0.930758	-0.474021	0.601794
H293	H	1.264091	-0.140688	0.935128
H294	H	1.597424	0.192645	1.268461
O295	O	0.740279	-0.430287	0.462153
O296	O	1.073612	-0.096953	0.795486
O297	O	1.406945	0.236380	1.128819
H298	H	0.701178	-0.457972	0.491834
H299	H	1.034511	-0.124639	0.825167
H300	H	1.367844	0.208694	1.158500
O301	O	1.091562	-1.127959	0.476588
O302	O	1.424895	-0.794626	0.809921
O303	O	1.758229	-0.461293	1.143255
H304	H	1.121529	-1.096260	0.509103
H305	H	1.454862	-0.762927	0.842437
H306	H	1.788195	-0.429593	1.175770
H307	H	0.923760	-1.106933	0.294479
H308	H	1.257093	-0.773600	0.627812
H309	H	1.590427	-0.440267	0.961145
H310	H	1.067332	-0.296717	0.783913
H311	H	1.400665	0.036616	1.117246
H312	H	1.733998	0.369949	1.450580
H313	H	0.923715	-0.987661	0.294450
H314	H	1.257049	-0.654328	0.627783
H315	H	1.590382	-0.320995	0.961117
