data_functionalizedCrystal
_audit_creation_method	'MofGen! by Chris Wilmer'
_symmetry_space_group_name_H-M	'P1'
_symmetry_Int_Tables_number	1
_symmetry_cell_setting	triclinic
loop_
_symmetry_equiv_pos_as_xyz
  x,y,z
_cell_length_a	29.839134
_cell_length_b	12.759394
_cell_length_c	12.759387
_cell_angle_alpha	89.968340
_cell_angle_beta	90.032625
_cell_angle_gamma	89.990301
loop_
_atom_site_label
_atom_site_type_symbol
_atom_site_fract_x
_atom_site_fract_y
_atom_site_fract_z
Zn1	Zn	0.686850	0.418355	0.594338
Zn2	Zn	0.686803	0.594072	0.418656
Zn3	Zn	0.611719	0.418392	0.418638
Zn4	Zn	0.611715	0.593977	0.594258
O5	O	0.649272	0.506199	0.506473
O6	O	0.749711	0.441689	0.571075
O7	O	0.676825	0.570823	0.271633
O8	O	0.621706	0.271366	0.441971
O9	O	0.749676	0.570787	0.442002
O10	O	0.676905	0.271339	0.571057
O11	O	0.621661	0.441751	0.271619
O12	O	0.548851	0.441659	0.441893
O13	O	0.621700	0.570625	0.741290
O14	O	0.548849	0.570661	0.570921
O15	O	0.676901	0.441596	0.741349
O16	O	0.676821	0.741080	0.441924
O17	O	0.621655	0.741011	0.570938
C18	C	0.649245	0.779166	0.506447
C19	C	0.649274	0.895943	0.506472
C20	C	0.532549	0.506154	0.506397
C21	C	0.482615	0.506161	0.506389
C22	C	0.649306	0.506096	0.780506
C23	C	0.649320	0.506052	0.897283
C24	C	0.172979	0.573469	0.573575
C25	C	-0.014694	0.573499	0.573622
O26	O	-0.038951	0.630678	0.630700
N27	N	-0.038170	0.506237	0.506552
C28	C	-0.014726	0.438959	0.439470
O29	O	-0.039001	0.381742	0.382432
C30	C	0.172946	0.438925	0.439430
C31	C	0.196421	0.506198	0.506496
C32	C	0.196454	0.640737	0.640637
C33	C	0.243369	0.640732	0.640620
C34	C	0.266810	0.573461	0.573542
C35	C	0.243336	0.506194	0.506480
C36	C	0.196390	0.371642	0.372355
C37	C	0.243311	0.371637	0.372352
C38	C	0.266785	0.438911	0.439419
C39	C	0.313692	0.438919	0.439385
N40	N	0.337169	0.506180	0.506455
C41	C	0.313728	0.573452	0.573533
C42	C	-0.113257	0.438983	0.439495
C43	C	-0.160175	0.438993	0.439504
C44	C	-0.160139	0.573532	0.573656
C45	C	-0.113220	0.573526	0.573642
C46	C	-0.089780	0.506244	0.506565
C47	C	0.412254	0.573439	0.573493
C48	C	0.459174	0.573432	0.573468
C49	C	0.459134	0.438889	0.439319
C50	C	0.412218	0.438900	0.439340
C51	C	0.388780	0.506178	0.506436
O52	O	0.337979	0.381762	0.382345
O53	O	0.338011	0.630644	0.630580
C54	C	0.126064	0.573473	0.573591
C55	C	0.102590	0.506206	0.506529
C56	C	0.126031	0.438935	0.439451
C57	C	0.055672	0.506216	0.506538
C58	C	0.032231	0.573487	0.573616
C59	C	0.055708	0.640749	0.640686
C60	C	0.102623	0.640745	0.640670
C61	C	0.102554	0.371673	0.372381
C62	C	0.055638	0.371684	0.372402
C63	C	0.032197	0.438955	0.439481
C64	C	0.766450	0.506244	0.506549
C65	C	0.816384	0.506264	0.506582
C66	C	0.649311	0.232165	0.506521
C67	C	0.649328	0.115389	0.506542
C68	C	0.706762	0.895963	0.372230
C69	C	0.735518	0.950833	0.305122
C70	C	0.735544	1.060555	0.305150
C71	C	0.706813	1.115408	0.372297
C72	C	0.678057	1.060538	0.439405
C73	C	0.678033	0.950814	0.439367
C74	C	0.620572	1.060518	0.573650
C75	C	0.620543	0.950797	0.573618
C76	C	0.591840	1.115372	0.640797
C77	C	0.563082	1.060501	0.707901
C78	C	0.563056	0.950773	0.707869
C79	C	0.591787	0.895926	0.640726
C80	C	0.649264	0.506226	0.233505
C81	C	0.649336	0.505974	0.116729
C82	C	0.706805	0.371703	0.897364
C83	C	0.735553	0.304513	0.952266
C84	C	0.735564	0.304475	1.061987
C85	C	0.706823	0.371632	1.116810
C86	C	0.678074	0.438822	1.061909
C87	C	0.678067	0.438855	0.952185
C88	C	0.620588	0.573164	1.061828
C89	C	0.620578	0.573209	0.952106
C90	C	0.591846	0.640320	1.116650
C91	C	0.563099	0.707517	1.061749
C92	C	0.563089	0.707554	0.952021
C93	C	0.591830	0.640399	0.897204
H94	H	0.478284	0.628218	0.628082
H95	H	0.591866	1.204713	0.640820
Br96	Br	0.134359	0.280363	0.281341
H97	H	0.706803	0.371738	0.808023
Br98	Br	0.774572	0.213268	1.136501
H99	H	0.591766	0.806585	0.640687
Br100	Br	0.524032	0.876315	0.798959
Br101	Br	0.774545	0.213346	0.877860
H102	H	0.478228	0.384122	0.384703
Br103	Br	0.164650	0.732045	0.731686
H104	H	0.177285	0.316863	0.317739
Br105	Br	0.591859	0.640268	1.265560
H106	H	0.539697	0.762185	1.106394
H107	H	-0.179232	0.628306	0.628274
H108	H	0.706738	0.806621	0.372186
Br109	Br	0.774512	0.876386	0.214007
H110	H	0.758962	1.105230	0.250510
H111	H	0.539674	0.762257	0.907326
Br112	Br	0.706833	0.371566	1.265719
H113	H	-0.179283	0.384222	0.384881
H114	H	0.036614	0.695526	0.695301
H115	H	0.539693	1.105172	0.762571
Br116	Br	0.706639	1.264316	0.371842
H117	H	0.393176	0.628221	0.628131
Br118	Br	0.275220	0.732033	0.731649
Br119	Br	-0.081367	0.664829	0.664664
Br120	Br	0.591822	0.640450	0.748295
H121	H	0.262393	0.316840	0.317735
Br122	Br	0.380359	0.347620	0.348301
Br123	Br	0.023786	0.280380	0.281369
H124	H	-0.094176	0.384193	0.384868
H125	H	0.121732	0.695525	0.695283
