data_functionalizedCrystal
_audit_creation_method	'MofGen! by Chris Wilmer'
_symmetry_space_group_name_H-M	'P1'
_symmetry_Int_Tables_number	1
_symmetry_cell_setting	triclinic
loop_
_symmetry_equiv_pos_as_xyz
  x,y,z
_cell_length_a	14.519709
_cell_length_b	10.723024
_cell_length_c	9.198806
_cell_angle_alpha	90.003648
_cell_angle_beta	89.995869
_cell_angle_gamma	95.925993
loop_
_atom_site_label
_atom_site_type_symbol
_atom_site_fract_x
_atom_site_fract_y
_atom_site_fract_z
O1	O	0.129347	-1.655978	-0.120886
O2	O	0.141728	-1.292710	-0.120892
O3	O	0.001349	-1.483976	-0.120876
O4	O	0.269727	-1.464713	-0.120902
O5	O	0.001348	-1.483960	0.120909
O6	O	0.141728	-1.292695	0.120893
O7	O	0.129347	-1.655963	0.120899
Cu8	Cu	0.135538	-1.474328	0.142973
Cu9	Cu	0.135538	-1.474345	-0.142966
O10	O	0.269727	-1.464697	0.120883
C11	C	-0.033016	-1.483070	0.000017
C12	C	-0.135411	-1.480380	0.000018
C13	C	0.140827	-1.246211	0.000000
C14	C	0.138132	-1.107682	-0.000001
C15	C	0.130248	-1.702462	0.000003
C16	C	0.132944	-1.840991	-0.000005
C17	C	-0.510357	-1.470476	-0.000020
C18	C	-0.406035	-1.473227	-0.000009
C19	C	-0.322887	-1.475428	0.000000
C20	C	-0.218559	-1.478179	0.000008
C21	C	0.304091	-1.465603	-0.000013
C22	C	0.406486	-1.468293	-0.000024
N23	N	0.135537	-1.474324	0.344087
C24	C	0.216681	-1.031965	-0.000010
C25	C	0.213896	-0.888788	-0.000012
N26	N	0.135532	-1.474359	-0.344080
C27	C	0.076335	-1.554633	0.416290
C28	C	0.076332	-1.554653	0.583703
H29	H	0.285991	-1.073139	-0.000009
H30	H	0.281141	-0.823726	-0.000025
N31	N	0.199135	-1.388097	0.578071
N32	N	0.284371	-1.390303	0.594956
H33	H	0.329293	-1.329380	0.539968
H34	H	0.186216	-1.405578	0.406209
H35	H	0.065696	-0.906045	-0.000006
H36	H	0.068822	-1.066508	-0.000032
N37	N	0.012750	-1.640856	0.338349
N38	N	0.012840	-1.640714	0.202465
H39	H	-0.032069	-1.701610	0.147419
N40	N	0.012749	-1.640901	0.661608
N41	N	0.012834	-1.640791	0.797492
H42	H	-0.032076	-1.701703	0.852518
