data_functionalizedCrystal
_audit_creation_method	'MofGen! by Chris Wilmer'
_symmetry_space_group_name_H-M	'P1'
_symmetry_Int_Tables_number	1
_symmetry_cell_setting	triclinic
loop_
_symmetry_equiv_pos_as_xyz
  x,y,z
_cell_length_a	17.077404
_cell_length_b	25.639239
_cell_length_c	17.077396
_cell_angle_alpha	89.968926
_cell_angle_beta	89.980499
_cell_angle_gamma	90.038911
loop_
_atom_site_label
_atom_site_type_symbol
_atom_site_fract_x
_atom_site_fract_y
_atom_site_fract_z
Zn1	Zn	1.199968	-0.208148	-0.443829
Zn2	Zn	1.199839	-0.295585	-0.312557
Zn3	Zn	1.068700	-0.208166	-0.312576
Zn4	Zn	1.068632	-0.295554	-0.443780
O5	O	1.134285	-0.251863	-0.378185
O6	O	1.309798	-0.219752	-0.426427
O7	O	1.182418	-0.284010	-0.202712
O8	O	1.086196	-0.134998	-0.330016
O9	O	1.309703	-0.283992	-0.329982
O10	O	1.182638	-0.134985	-0.426446
O11	O	1.086071	-0.219783	-0.202727
O12	O	0.958844	-0.219753	-0.329969
O13	O	1.086080	-0.283939	-0.553634
O14	O	0.958794	-0.283957	-0.426364
O15	O	1.182572	-0.219722	-0.553669
O16	O	1.182352	-0.368746	-0.329935
O17	O	1.085954	-0.368724	-0.426345
C18	C	0.930337	-0.251854	-0.378164
C19	C	0.843087	-0.251862	-0.378173
C20	C	0.802092	-0.285344	-0.428285
C21	C	0.720111	-0.285345	-0.428298
C22	C	0.679128	-0.251867	-0.378194
C23	C	0.720129	-0.218382	-0.328079
C24	C	0.802108	-0.218378	-0.328071
C25	C	0.549259	-0.218392	-0.328098
C26	C	0.467275	-0.218396	-0.328105
C27	C	0.467262	-0.285358	-0.428325
C28	C	0.549241	-0.285355	-0.428317
C29	C	0.590237	-0.251871	-0.378201
C30	C	1.134153	-0.387706	-0.378150
C31	C	1.134168	-0.445820	-0.378160
C32	C	1.184610	-0.806182	-0.328071
C33	C	1.184641	-0.860787	-0.328081
O34	O	1.227391	-0.889023	-0.285454
N35	N	1.134423	-0.888102	-0.378237
C36	C	1.084177	-0.860811	-0.428392
O37	O	1.041467	-0.889059	-0.471056
C38	C	1.084151	-0.806208	-0.428385
C39	C	1.134367	-0.778895	-0.378220
C40	C	1.234822	-0.778869	-0.277910
C41	C	1.234790	-0.724269	-0.277899
C42	C	1.184547	-0.696981	-0.328048
C43	C	1.134335	-0.724294	-0.378209
C44	C	1.033910	-0.778917	-0.478543
C45	C	1.033889	-0.724310	-0.478532
C46	C	1.084104	-0.696997	-0.428367
C47	C	1.084060	-0.642406	-0.428346
N48	N	1.134278	-0.615090	-0.378190
C49	C	1.184521	-0.642378	-0.328041
C50	C	1.084236	-0.975482	-0.428404
C51	C	1.084258	-1.030084	-0.428408
C52	C	1.184722	-1.030056	-0.328098
C53	C	1.184696	-0.975452	-0.328091
C54	C	1.134454	-0.948166	-0.378248
C55	C	1.184450	-0.527713	-0.328020
C56	C	1.184412	-0.473107	-0.328011
C57	C	1.083951	-0.473140	-0.428324
C58	C	1.083986	-0.527741	-0.428331
C59	C	1.134242	-0.555026	-0.378176
O60	O	1.041334	-0.614135	-0.470954
O61	O	1.227232	-0.614123	-0.285392
C62	C	1.339029	-0.251873	-0.378208
C63	C	1.426279	-0.251877	-0.378217
C64	C	1.134333	-0.251825	-0.582930
C65	C	1.134353	-0.251808	-0.670180
C66	C	1.134439	-0.115490	-0.378239
C67	C	1.134505	-0.057376	-0.378261
C68	C	1.184598	-0.218368	-0.711190
C69	C	1.184608	-0.218350	-0.793170
C70	C	1.134375	-0.251777	-0.834139
C71	C	1.084124	-0.285219	-0.793123
C72	C	1.084111	-0.285233	-0.711144
C73	C	1.084156	-0.285187	-0.963994
C74	C	1.084169	-0.285174	-1.045978
C75	C	1.184652	-0.218304	-1.046019
C76	C	1.184639	-0.218319	-0.964040
C77	C	1.134389	-0.251762	-0.923030
C78	C	1.134283	-0.251864	-0.174238
C79	C	1.134415	-0.251733	-0.086988
H80	H	0.582607	-0.312619	-0.469112
O81	O	1.233083	-0.446553	-0.279196
C82	C	1.243677	-0.384925	-0.173239
C83	C	1.188470	-0.414972	-0.228457
H84	H	1.207631	-0.359377	-0.132213
H85	H	1.279579	-0.413788	-0.137344
H86	H	1.284704	-0.359339	-0.209325
H87	H	1.147396	-0.440559	-0.192431
H88	H	1.152623	-0.386081	-0.264354
O89	O	1.035180	-0.554195	-0.477131
C90	C	0.935505	-0.548454	-0.576598
C91	C	0.990742	-0.518435	-0.521376
H92	H	0.899550	-0.519555	-0.612372
H93	H	0.971502	-0.573954	-0.617736
H94	H	0.894529	-0.574082	-0.540521
H95	H	1.031729	-0.492779	-0.557390
H96	H	0.954696	-0.492967	-0.480235
H97	H	0.433879	-0.312621	-0.469133
H98	H	0.835486	-0.191112	-0.287269
O99	O	1.233290	-0.554131	-0.279224
C100	C	1.332957	-0.548326	-0.179755
C101	C	1.277679	-0.518343	-0.234967
H102	H	1.368871	-0.519404	-0.143970
H103	H	1.296995	-0.573918	-0.138626
H104	H	1.373968	-0.573860	-0.215841
H105	H	1.236656	-0.492780	-0.198944
H106	H	1.313690	-0.492784	-0.276098
O107	O	0.680257	-0.317798	-0.477059
C108	C	0.587716	-0.324939	-0.583006
C109	C	0.632812	-0.288124	-0.527842
H110	H	0.549333	-0.300963	-0.624067
H111	H	0.631059	-0.348857	-0.618865
H112	H	0.549329	-0.352258	-0.546878
H113	H	0.671200	-0.260773	-0.563909
H114	H	0.589427	-0.264242	-0.491980
O115	O	1.233460	-0.185801	-0.924363
C116	C	1.333159	-0.119495	-0.933050
C117	C	1.277898	-0.156288	-0.978082
H118	H	1.369113	-0.095632	-0.976462
H119	H	1.297181	-0.092128	-0.894695
H120	H	1.374134	-0.143519	-0.894645
H121	H	1.236912	-0.132306	-1.016529
H122	H	1.313925	-0.183657	-1.016386
H123	H	0.835454	-0.312607	-0.469084
O124	O	0.589051	-0.185925	-0.279300
C125	C	0.614067	-0.160423	-0.145839
C126	C	0.568966	-0.197226	-0.201015
H127	H	0.597833	-0.169539	-0.082535
H128	H	0.679707	-0.166175	-0.154373
H129	H	0.598009	-0.118277	-0.159773
H130	H	0.584959	-0.239386	-0.187116
H131	H	0.503337	-0.191429	-0.192472
O132	O	1.233382	-0.185827	-1.085973
C133	C	1.277951	-0.156177	-1.212285
C134	C	1.222717	-0.192974	-1.167131
H135	H	1.269359	-0.161950	-1.277909
H136	H	1.264205	-0.114011	-1.196231
H137	H	1.341228	-0.165355	-1.196134
H138	H	1.159421	-0.183842	-1.183258
H139	H	1.236531	-0.235129	-1.183189
H140	H	0.433908	-0.191129	-0.287315
H141	H	1.043188	-0.312459	-0.677755
O142	O	1.233420	-0.185848	-0.671517
C143	C	1.333115	-0.119540	-0.680220
C144	C	1.277852	-0.156336	-0.725243
H145	H	1.369065	-0.095679	-0.723638
H146	H	1.297139	-0.092172	-0.641866
H147	H	1.374095	-0.143561	-0.641816
H148	H	1.236862	-0.132358	-0.763690
H149	H	1.313877	-0.183707	-0.763548
H150	H	1.225524	-0.191121	-0.826557
O151	O	0.680358	-0.185785	-0.279491
C152	C	0.655381	-0.096818	-0.241600
C153	C	0.700453	-0.133674	-0.296691
H154	H	0.671624	-0.054679	-0.255475
H155	H	0.589737	-0.102525	-0.250212
H156	H	0.671458	-0.105972	-0.178284
H157	H	0.684442	-0.124543	-0.360028
H158	H	0.766087	-0.127960	-0.288011
H159	H	1.043360	-1.052318	-0.469250
H160	H	1.275682	-0.702034	-0.237052
H161	H	1.043264	-0.312391	-1.079333
H162	H	1.043221	-0.312433	-0.826487
H163	H	1.043225	-0.312412	-0.930606
H164	H	1.225586	-0.953217	-0.287242
O165	O	1.283656	-0.805290	-0.229115
C166	C	1.383321	-0.799481	-0.129644
C167	C	1.328046	-0.769500	-0.184862
H168	H	1.419236	-0.770558	-0.093863
H169	H	1.347356	-0.825069	-0.088512
H170	H	1.424331	-0.825018	-0.165726
H171	H	1.287024	-0.743934	-0.148843
H172	H	1.364059	-0.743945	-0.225996
O173	O	1.233669	-1.056492	-0.279426
C174	C	1.367254	-1.073099	-0.241526
C175	C	1.311900	-1.043129	-0.296678
H176	H	1.430516	-1.062314	-0.255465
H177	H	1.353582	-1.062386	-0.178201
H178	H	1.358639	-1.116818	-0.250118
H179	H	1.320484	-0.999402	-0.288155
H180	H	1.325586	-1.053885	-0.359983
O181	O	1.035346	-0.949058	-0.477149
C182	C	0.935735	-0.954861	-0.576674
C183	C	0.991047	-0.984846	-0.521498
H184	H	0.899916	-0.983781	-0.612556
H185	H	0.894642	-0.929354	-0.540634
H186	H	0.971745	-0.929241	-0.617720
H187	H	0.955100	-1.010493	-0.480441
H188	H	1.032141	-1.010319	-0.557587
H189	H	0.992977	-0.702096	-0.519379
O190	O	0.985108	-0.805360	-0.527351
C191	C	0.885441	-0.799601	-0.626824
C192	C	0.940684	-0.769592	-0.571596
H193	H	0.849497	-0.770696	-0.662598
H194	H	0.921432	-0.825106	-0.667961
H195	H	0.844454	-0.825224	-0.590750
H196	H	0.981681	-0.743941	-0.607607
H197	H	0.904644	-0.744119	-0.530457
O198	O	1.035221	-0.446547	-0.477013
C199	C	0.990639	-0.362433	-0.521417
C200	C	1.045872	-0.392486	-0.466245
H201	H	0.999219	-0.318720	-0.512719
H202	H	1.004399	-0.373091	-0.584745
H203	H	0.927362	-0.373246	-0.507593
H204	H	1.109167	-0.381690	-0.479999
H205	H	1.032044	-0.381826	-0.402934
