data_functionalizedCrystal
_audit_creation_method	'MofGen! by Chris Wilmer'
_symmetry_space_group_name_H-M	'P1'
_symmetry_Int_Tables_number	1
_symmetry_cell_setting	triclinic
loop_
_symmetry_equiv_pos_as_xyz
  x,y,z
_cell_length_a	25.639239
_cell_length_b	21.295420
_cell_length_c	21.295411
_cell_angle_alpha	90.025759
_cell_angle_beta	89.980474
_cell_angle_gamma	89.967272
loop_
_atom_site_label
_atom_site_type_symbol
_atom_site_fract_x
_atom_site_fract_y
_atom_site_fract_z
Zn1	Zn	-0.208293	-0.962319	-0.355941
Zn2	Zn	-0.295713	-0.962207	-0.250670
Zn3	Zn	-0.208285	-0.857043	-0.250684
Zn4	Zn	-0.295691	-0.856997	-0.355900
O5	O	-0.251996	-0.909642	-0.303298
O6	O	-0.219903	-1.050394	-0.341988
O7	O	-0.284122	-0.948229	-0.162582
O8	O	-0.135121	-0.871074	-0.264669
O9	O	-0.284130	-1.050311	-0.264646
O10	O	-0.135127	-0.948421	-0.342001
O11	O	-0.219888	-0.870965	-0.162592
O12	O	-0.219866	-0.768947	-0.264629
O13	O	-0.284091	-0.870996	-0.443994
O14	O	-0.284083	-0.768914	-0.341931
O15	O	-0.219881	-0.948376	-0.444025
O16	O	-0.368876	-0.948184	-0.264606
O17	O	-0.368859	-0.870887	-0.341918
C18	C	-0.251971	-0.746090	-0.303277
C19	C	-0.251974	-0.676122	-0.303283
C20	C	-0.218613	-0.176706	-0.343630
C21	C	-0.218611	-0.242449	-0.343632
C22	C	-0.251995	-0.275282	-0.303300
C23	C	-0.285395	-0.242368	-0.262976
C24	C	-0.285400	-0.176627	-0.262980
N25	N	-0.255931	-0.378472	-0.248183
N26	N	-0.255924	-0.440923	-0.248180
C27	C	-0.251983	-0.473357	-0.303286
N28	N	-0.248041	-0.440981	-0.358395
N29	N	-0.248046	-0.378523	-0.358396
C30	C	-0.251994	-0.346568	-0.303291
C31	C	-0.218587	-0.577549	-0.343612
C32	C	-0.218588	-0.643293	-0.343614
C33	C	-0.285369	-0.643211	-0.262953
C34	C	-0.285370	-0.577468	-0.262956
C35	C	-0.251976	-0.544641	-0.303285
C36	C	-0.387838	-0.909536	-0.303270
C37	C	-0.445952	-0.909548	-0.303278
C38	C	-0.806311	-0.949995	-0.263111
C39	C	-0.860916	-0.950020	-0.263119
O40	O	-0.889149	-0.984300	-0.228936
N41	N	-0.888235	-0.909752	-0.303340
C42	C	-0.860946	-0.869462	-0.343560
O43	O	-0.889197	-0.835214	-0.377772
C44	C	-0.806343	-0.869441	-0.343554
C45	C	-0.779027	-0.909707	-0.303326
C46	C	-0.778995	-0.990258	-0.222887
C47	C	-0.724395	-0.990233	-0.222878
C48	C	-0.697110	-0.949944	-0.263093
C49	C	-0.724426	-0.909682	-0.303317
C50	C	-0.779056	-0.829155	-0.383776
C51	C	-0.724449	-0.829138	-0.383768
C52	C	-0.697133	-0.869404	-0.343540
C53	C	-0.642542	-0.869368	-0.343523
N54	N	-0.615223	-0.909636	-0.303302
C55	C	-0.642507	-0.949924	-0.263087
C56	C	-0.975617	-0.869510	-0.343569
C57	C	-1.030219	-0.869527	-0.343573
C58	C	-1.030185	-0.950085	-0.263133
C59	C	-0.975582	-0.950064	-0.263127
C60	C	-0.948298	-0.909777	-0.303349
C61	C	-0.527842	-0.949867	-0.263071
C62	C	-0.473237	-0.949836	-0.263063
C63	C	-0.473276	-0.869280	-0.343505
C64	C	-0.527876	-0.869309	-0.343510
C65	C	-0.555158	-0.909607	-0.303291
O66	O	-0.614273	-0.835108	-0.377691
O67	O	-0.614250	-0.984172	-0.228886
C68	C	-0.115623	-0.909765	-0.303341
C69	C	-0.057508	-0.909818	-0.303359
C70	C	-0.251985	-0.909694	-0.467489
C71	C	-0.251980	-0.909716	-0.537457
C72	C	-0.252014	-0.073832	-0.303315
C73	C	-0.252005	-0.143800	-0.303309
C74	C	-0.218544	-0.950006	-0.570340
C75	C	-0.218521	-0.950005	-0.636083
C76	C	-0.251944	-0.909721	-0.668940
C77	C	-0.285382	-0.869423	-0.636048
C78	C	-0.285400	-0.869421	-0.570307
N79	N	-0.297682	-0.904856	-0.772157
N80	N	-0.297663	-0.904862	-0.834608
C81	C	-0.251891	-0.909725	-0.867014
N82	N	-0.206137	-0.914594	-0.834610
N83	N	-0.206156	-0.914591	-0.772152
C84	C	-0.251928	-0.909719	-0.740225
C85	C	-0.218428	-0.950016	-0.971183
C86	C	-0.218404	-0.950011	-1.036927
C87	C	-0.285269	-0.869432	-1.036891
C88	C	-0.285288	-0.869434	-0.971149
C89	C	-0.251868	-0.909729	-0.938299
C90	C	-0.251969	-0.909626	-0.139747
C91	C	-0.251826	-0.909726	-0.069779
H92	H	-0.312578	-0.269105	-0.230139
C93	C	-0.181883	-0.140601	-0.387999
N94	N	-0.154219	-0.113405	-0.421419
H95	H	-0.312593	-0.836621	-0.662804
C96	C	-0.181619	-0.994334	-1.073099
N97	N	-0.153912	-1.027720	-1.100344
H98	H	-0.450997	-0.982625	-0.230303
H99	H	-0.702157	-1.023022	-0.190122
C100	C	-0.181660	-0.994336	-0.935046
N101	N	-0.153966	-1.027717	-0.907829
C102	C	-0.322035	-0.825119	-1.073030
N103	N	-0.349728	-0.791741	-1.100252
C104	C	-0.322185	-0.825098	-0.534134
N105	N	-0.349893	-0.791714	-0.506888
C106	C	-0.322073	-0.825114	-0.934975
N107	N	-0.349780	-0.791728	-0.907730
C108	C	-0.809000	-1.034579	-0.178639
N109	N	-0.831595	-1.067960	-0.145305
H110	H	-0.801287	-0.796364	-0.416531
H111	H	-0.550048	-0.982683	-0.230322
C112	C	-0.322131	-0.140429	-0.218616
N113	N	-0.349796	-0.113163	-0.185198
C114	C	-0.181858	-0.541437	-0.387980
N115	N	-0.154195	-0.514240	-0.421400
C116	C	-0.181850	-0.679490	-0.387972
N117	N	-0.154178	-0.706754	-0.421382
H118	H	-0.312556	-0.669943	-0.230119
C119	C	-0.181872	-0.278653	-0.387987
N120	N	-0.154199	-0.305920	-0.421394
H121	H	-0.312560	-0.550676	-0.230119
H122	H	-0.953344	-0.982852	-0.230370
H123	H	-1.052410	-0.982892	-0.230389
C124	C	-1.060261	-0.825225	-0.387820
N125	N	-1.082886	-0.791859	-0.421152
H126	H	-0.953405	-0.836698	-0.376321
H127	H	-0.550118	-0.836523	-0.376269
C128	C	-0.694440	-0.784818	-0.428016
N129	N	-0.671839	-0.751435	-0.461343
H130	H	-0.191330	-0.982817	-0.543598
C131	C	-0.443253	-0.824968	-0.387742
N132	N	-0.420637	-0.791596	-0.421066
C133	C	-0.181741	-0.994333	-0.672262
N134	N	-0.154039	-1.027722	-0.699510
