data_functionalizedCrystal
_audit_creation_method	'MofGen! by Chris Wilmer'
_symmetry_space_group_name_H-M	'P1'
_symmetry_Int_Tables_number	1
_symmetry_cell_setting	triclinic
loop_
_symmetry_equiv_pos_as_xyz
  x,y,z
_cell_length_a	15.944551
_cell_length_b	17.038272
_cell_length_c	15.021413
_cell_angle_alpha	90.004029
_cell_angle_beta	89.997174
_cell_angle_gamma	87.305147
loop_
_atom_site_label
_atom_site_type_symbol
_atom_site_fract_x
_atom_site_fract_y
_atom_site_fract_z
O1	O	1.121728	0.100827	-0.073940
O2	O	0.878066	0.113259	-0.073962
O3	O	0.998449	-0.006773	-0.073944
O4	O	1.001345	0.220859	-0.073958
O5	O	0.998429	-0.006755	0.074120
O6	O	0.878046	0.113277	0.074102
O7	O	1.121708	0.100844	0.074125
Zn8	Zn	0.999874	0.107063	0.097622
Zn9	Zn	0.999900	0.107041	-0.097459
O10	O	1.001326	0.220876	0.074107
C11	C	0.846725	0.112752	0.000067
C12	C	0.753369	0.111205	0.000059
C13	C	0.532936	0.033105	0.000081
C14	C	0.474515	0.069363	-0.072924
C15	C	0.582443	0.108405	0.000070
C16	C	0.474519	0.069398	0.073055
C17	C	0.417337	0.105696	0.000084
C18	C	0.525252	0.144684	-0.072996
C19	C	0.525262	0.144709	0.073049
C20	C	0.466862	0.181022	0.000026
C21	C	0.677557	0.109964	0.000061
C22	C	0.322225	0.104143	0.000087
C23	C	0.995805	-0.035893	0.000088
C24	C	0.987945	-0.122688	0.000087
C25	C	1.060103	-0.172781	0.000094
C26	C	1.052713	-0.254334	0.000085
C27	C	0.973165	-0.285792	0.000075
C28	C	0.901002	-0.235693	0.000065
C29	C	0.908393	-0.154142	0.000068
C30	C	0.947056	-0.531558	0.000061
C31	C	0.939671	-0.613115	0.000060
C32	C	1.091383	-0.631751	0.000079
C33	C	1.098766	-0.550197	0.000087
C34	C	1.026603	-0.500105	0.000072
C35	C	0.965610	-0.369152	0.000069
C36	C	1.034159	-0.416747	0.000073
C37	C	1.153049	0.101352	0.000093
C38	C	1.246405	0.102899	0.000096
C39	C	1.003969	0.249997	0.000073
C40	C	1.011829	0.336792	0.000068
N41	N	0.999863	0.107078	0.230759
N42	N	0.999917	0.107019	-0.230597
C43	C	0.944187	0.162555	0.470434
C44	C	1.021171	0.177734	0.529775
C45	C	0.999883	0.107059	0.412366
C46	C	0.922921	0.091897	0.529768
C47	C	0.999896	0.107041	0.587790
C48	C	1.076908	0.122273	0.470400
C49	C	0.978606	0.036405	0.470388
C50	C	1.055643	0.051554	0.529702
C51	C	0.999875	0.107070	0.311309
C52	C	0.999913	0.107029	0.688846
H53	H	0.452150	0.037542	0.134774
H54	H	1.163543	-0.524590	0.000096
H55	H	1.039179	0.237476	0.555860
H56	H	1.150134	-0.672544	0.000090
C57	C	0.834993	0.074574	0.564997
H58	H	0.838338	0.027969	0.599787
H59	H	0.798070	0.067811	0.516255
H60	H	0.814332	0.117260	0.600700
H61	H	1.102803	0.004613	0.555561
H62	H	0.547520	0.176503	-0.134784
H63	H	0.874891	-0.638725	0.000067
C64	C	1.164864	0.139691	0.435327
H65	H	1.164315	0.139620	0.372085
H66	H	1.204469	0.100499	0.456092
H67	H	1.180063	0.189717	0.456156
C68	C	0.555527	0.187705	0.156425
H69	H	0.538263	0.160880	0.208250
H70	H	0.531962	0.239956	0.156947
H71	H	0.615037	0.188786	0.155526
C72	C	0.954248	-0.044272	0.435111
H73	H	0.899515	-0.054959	0.455401
H74	H	0.993257	-0.083804	0.456285
H75	H	0.954924	-0.043817	0.371874
C76	C	0.880636	0.226002	0.435267
H77	H	0.895900	0.276165	0.455601
H78	H	0.826102	0.215732	0.456464
H79	H	0.880717	0.225259	0.372029
H80	H	1.124879	-0.147175	0.000108
H81	H	1.111472	-0.295117	0.000093
C82	C	0.571932	-0.051318	-0.000024
H83	H	0.554619	-0.077951	-0.051963
H84	H	0.553841	-0.078346	0.051308
H85	H	0.631408	-0.049734	0.000494
H86	H	0.836233	-0.261313	0.000051
C87	C	0.867680	-0.476467	0.000060
H88	H	0.819248	-0.506885	0.000066
H89	H	0.867408	-0.444266	-0.051571
H90	H	0.867405	-0.444267	0.051702
C91	C	0.829020	-0.099040	0.000062
H92	H	0.780585	-0.129454	0.000063
H93	H	0.828757	-0.066842	-0.051571
H94	H	0.828742	-0.066837	0.051702
H95	H	0.452139	0.037507	-0.134642
H96	H	0.438170	0.243580	-0.000019
H97	H	1.098927	-0.391130	0.000061
H98	H	0.900842	-0.394774	0.000062
