data_functionalizedCrystal
_audit_creation_method	'MofGen! by Chris Wilmer'
_symmetry_space_group_name_H-M	'P1'
_symmetry_Int_Tables_number	1
_symmetry_cell_setting	triclinic
loop_
_symmetry_equiv_pos_as_xyz
  x,y,z
_cell_length_a	12.594516
_cell_length_b	12.759401
_cell_length_c	12.759393
_cell_angle_alpha	90.017895
_cell_angle_beta	90.033764
_cell_angle_gamma	90.016467
loop_
_atom_site_label
_atom_site_type_symbol
_atom_site_fract_x
_atom_site_fract_y
_atom_site_fract_z
Zn1	Zn	-0.423596	1.606264	0.593948
Zn2	Zn	-0.601615	1.606162	0.418262
Zn3	Zn	-0.423660	1.430566	0.418290
Zn4	Zn	-0.601542	1.430558	0.593905
O5	O	-0.512603	1.518388	0.506101
O6	O	-0.447214	1.753271	0.570650
O7	O	-0.578067	1.582829	0.271244
O8	O	-0.274706	1.453919	0.441621
O9	O	-0.578004	1.753196	0.441574
O10	O	-0.274658	1.583003	0.570677
O11	O	-0.447324	1.453820	0.271265
O12	O	-0.447253	1.283544	0.441579
O13	O	-0.577879	1.453905	0.740932
O14	O	-0.577942	1.283538	0.570603
O15	O	-0.447143	1.582996	0.740964
O16	O	-0.750551	1.582822	0.441532
O17	O	-0.750497	1.453806	0.570576
C18	C	-0.512597	1.245420	0.506090
C19	C	-0.512620	1.128644	0.506110
C20	C	-0.789144	1.518331	0.506069
C21	C	-0.907450	1.518403	0.506090
C22	C	-0.512496	1.518461	0.780135
C23	C	-0.512450	1.518492	0.896912
C24	C	-1.047457	1.588703	0.436025
C25	C	-0.976779	1.492827	0.410211
C26	C	-0.976556	1.614266	0.531856
C27	C	-1.047557	1.422585	0.480318
C28	C	-1.047341	1.544088	0.602007
C29	C	-0.976694	1.448147	0.576230
C30	C	-0.234982	1.518473	0.506157
C31	C	-0.116677	1.518510	0.506180
C32	C	-0.512610	1.792421	0.506113
C33	C	-0.512613	1.909197	0.506119
C34	C	-0.444517	1.964100	0.573315
C35	C	-0.444523	2.073824	0.573314
C36	C	-0.580724	2.073733	0.438910
C37	C	-0.580723	1.964011	0.438918
C38	C	-0.376407	1.909286	0.640516
C39	C	-0.308305	1.964189	0.707718
C40	C	-0.308310	2.073913	0.707716
C41	C	-0.376419	2.128735	0.640514
C42	C	-0.512633	1.518375	0.233134
C43	C	-0.512379	1.518547	0.116358
C44	C	-0.444369	1.585719	0.951792
C45	C	-0.444331	1.585744	1.061516
C46	C	-0.580463	1.451313	1.061470
C47	C	-0.580495	1.451283	0.951748
C48	C	-0.376324	1.652928	0.896956
C49	C	-0.308238	1.720161	0.951836
C50	C	-0.308200	1.720186	1.061560
C51	C	-0.376247	1.652978	1.116404
H52	H	-1.078527	1.648034	0.376690
H53	H	-0.945821	1.388673	0.635520
H54	H	-0.252859	1.919547	0.762437
C55	C	-0.376357	1.652903	0.776257
N56	N	-0.376382	1.652883	0.685347
C57	C	-0.233386	1.794080	0.891506
N58	N	-0.177005	1.849758	0.846067
C59	C	-0.233302	1.794138	1.121926
N60	N	-0.176890	1.849846	1.167391
H61	H	-0.636174	2.118377	0.384197
H62	H	-0.635863	1.396595	1.106132
C63	C	-0.376195	1.653004	1.237105
N64	N	-0.376159	1.653028	1.328015
C65	C	-0.655393	1.377336	0.891376
N66	N	-0.711808	1.321636	0.845904
C67	C	-0.655631	1.903615	0.364996
N68	N	-0.712056	1.858124	0.309319
C69	C	-1.089262	1.573430	0.711504
N70	N	-1.120842	1.595543	0.793977
C71	C	-0.934883	1.463539	0.300683
N72	N	-0.903325	1.441489	0.218185
C73	C	-0.376425	2.249435	0.640520
N74	N	-0.376425	2.340345	0.640523
H75	H	-1.078611	1.341536	0.458472
H76	H	-0.945370	1.695291	0.553610
H77	H	-0.376390	1.819944	0.640520
H78	H	-0.252865	2.118612	0.762442
