data_functionalizedCrystal
_audit_creation_method	'MofGen! by Chris Wilmer'
_symmetry_space_group_name_H-M	'P1'
_symmetry_Int_Tables_number	1
_symmetry_cell_setting	triclinic
loop_
_symmetry_equiv_pos_as_xyz
  x,y,z
_cell_length_a	19.805407
_cell_length_b	19.805405
_cell_length_c	17.077396
_cell_angle_alpha	89.968350
_cell_angle_beta	89.979457
_cell_angle_gamma	90.026410
loop_
_atom_site_label
_atom_site_type_symbol
_atom_site_fract_x
_atom_site_fract_y
_atom_site_fract_z
Zn1	Zn	1.034742	-0.269463	-0.443847
Zn2	Zn	1.034655	-0.382656	-0.312574
Zn3	Zn	0.921555	-0.269486	-0.312593
Zn4	Zn	0.921520	-0.382616	-0.443795
O5	O	0.978118	-0.326055	-0.378202
O6	O	1.129447	-0.284486	-0.426447
O7	O	1.019630	-0.367671	-0.202729
O8	O	0.936620	-0.174767	-0.330034
O9	O	1.129383	-0.367648	-0.330002
O10	O	1.019779	-0.174750	-0.426466
O11	O	0.936536	-0.284525	-0.202743
O12	O	0.826834	-0.284486	-0.329983
O13	O	0.936561	-0.367579	-0.553649
O14	O	0.826808	-0.367602	-0.426377
O15	O	1.019745	-0.284446	-0.553687
O16	O	1.019597	-0.477367	-0.329951
O17	O	0.936477	-0.477338	-0.426359
C18	C	0.802262	-0.326042	-0.378177
C19	C	0.727030	-0.326053	-0.378185
C20	C	0.691690	-0.369397	-0.428296
C21	C	0.621002	-0.369398	-0.428307
C22	C	0.585655	-0.326058	-0.378202
C23	C	0.620999	-0.282710	-0.328089
C24	C	0.691686	-0.282706	-0.328083
C25	C	0.335926	-0.282725	-0.328115
C26	C	0.265234	-0.282734	-0.328124
C27	C	0.265242	-0.369417	-0.428339
C28	C	0.335929	-0.369413	-0.428333
C29	C	0.371267	-0.326062	-0.378223
C30	C	0.447916	-0.326061	-0.378212
C31	C	0.509007	-0.326063	-0.378208
C32	C	0.978042	-0.501911	-0.378164
C33	C	0.978071	-0.577143	-0.378174
C34	C	1.021394	-0.612481	-0.328027
C35	C	1.021422	-0.683169	-0.328045
C36	C	0.978125	-0.718519	-0.378206
C37	C	0.934801	-0.683177	-0.428358
C38	C	0.934776	-0.612490	-0.428344
C39	C	0.934900	-0.968250	-0.428416
C40	C	0.934927	-1.038942	-0.428425
C41	C	1.021547	-1.038929	-0.328117
C42	C	1.021522	-0.968242	-0.328103
C43	C	0.978201	-0.932906	-0.378258
C44	C	0.978171	-0.856258	-0.378240
C45	C	0.978151	-0.795166	-0.378221
C46	C	1.154661	-0.326069	-0.378228
C47	C	1.229893	-0.326075	-0.378239
C48	C	0.978159	-0.326005	-0.582947
C49	C	0.978177	-0.325984	-0.670197
C50	C	0.978213	-0.149513	-0.378258
C51	C	0.978253	-0.074281	-0.378281
C52	C	1.021492	-0.282694	-0.711208
C53	C	1.021500	-0.282671	-0.793188
C54	C	0.978196	-0.325943	-0.834156
C55	C	0.934876	-0.369236	-0.793139
C56	C	0.934865	-0.369254	-0.711160
C57	C	0.934903	-0.369195	-0.964009
C58	C	0.934915	-0.369178	-1.045994
C59	C	1.021538	-0.282612	-1.046038
C60	C	1.021527	-0.282630	-0.964059
C61	C	0.978208	-0.325924	-0.923047
C62	C	0.978116	-0.326056	-0.174254
C63	C	0.978230	-0.325887	-0.087005
H64	H	0.364705	-0.404706	-0.469130
O65	O	0.729800	-0.235958	-0.274026
H66	H	0.762027	-0.201553	-0.309228
O67	O	1.068096	-0.574354	-0.273928
H68	H	1.098231	-0.610805	-0.239068
O69	O	1.068144	-0.721285	-0.273954
H70	H	1.098240	-0.684829	-0.239063
O71	O	0.888050	-0.574371	-0.482431
H72	H	0.853625	-0.542210	-0.447253
H73	H	0.720465	-0.404691	-0.469094
O74	O	1.068256	-0.235912	-1.090272
H75	H	1.121370	-0.247536	-1.074555
H76	H	0.236460	-0.404712	-0.469144
H77	H	1.056757	-0.247458	-0.677858
O78	O	0.582956	-0.416210	-0.482349
H79	H	0.550769	-0.386035	-0.522417
O80	O	0.582874	-0.235964	-0.274050
H81	H	0.619326	-0.205818	-0.239210
H82	H	1.056773	-0.247421	-0.826576
O83	O	0.888225	-1.077066	-0.482535
H84	H	0.853811	-1.109313	-0.447369
O85	O	0.227104	-0.235982	-0.274087
H86	H	0.263552	-0.205831	-0.239248
H87	H	0.364690	-0.247432	-0.287306
H88	H	1.056777	-0.939463	-0.287255
H89	H	1.056824	-1.067708	-0.287281
H90	H	0.899625	-0.939485	-0.469253
O91	O	1.068235	-0.235963	-0.919867
H92	H	1.098357	-0.205852	-0.962155
O93	O	0.888091	-0.721299	-0.482454
H94	H	0.895378	-0.776389	-0.474031
H95	H	0.899651	-0.404412	-1.079347
O96	O	0.888177	-0.415885	-0.919770
H97	H	0.858069	-0.445975	-0.962029
H98	H	0.899614	-0.404466	-0.826501
H99	H	0.899586	-0.404499	-0.677770
