data_functionalizedCrystal
_audit_creation_method	'MofGen! by Chris Wilmer'
_symmetry_space_group_name_H-M	'P1'
_symmetry_Int_Tables_number	1
_symmetry_cell_setting	triclinic
loop_
_symmetry_equiv_pos_as_xyz
  x,y,z
_cell_length_a	15.944551
_cell_length_b	15.944493
_cell_length_c	14.421503
_cell_angle_alpha	89.989835
_cell_angle_beta	90.003141
_cell_angle_gamma	83.486891
loop_
_atom_site_label
_atom_site_type_symbol
_atom_site_fract_x
_atom_site_fract_y
_atom_site_fract_z
O1	O	1.114507	0.108323	0.077003
O2	O	0.869954	0.121680	0.077024
O3	O	0.998934	-0.007276	0.077021
O4	O	0.985527	0.237280	0.077006
O5	O	0.998913	-0.007257	-0.077203
O6	O	0.869933	0.121699	-0.077199
O7	O	1.114485	0.108343	-0.077221
Cu8	Cu	0.992207	0.115023	-0.091292
Cu9	Cu	0.992232	0.115000	0.091095
O10	O	0.985506	0.237299	-0.077217
C11	C	0.838650	0.121135	-0.000084
C12	C	0.745404	0.119473	-0.000076
C13	C	0.530565	0.035566	-0.000089
C14	C	0.469547	0.074520	0.075949
C15	C	0.574679	0.116465	-0.000086
C16	C	0.469548	0.074558	-0.076103
C17	C	0.409767	0.113555	-0.000101
C18	C	0.514889	0.155442	0.076014
C19	C	0.514897	0.155468	-0.076106
C20	C	0.453897	0.194481	-0.000050
C21	C	0.669681	0.118140	-0.000077
C22	C	0.314766	0.111886	-0.000103
C23	C	0.998375	-0.038562	-0.000087
C24	C	0.996733	-0.131810	-0.000075
C25	C	1.072653	-0.367570	-0.000099
C26	C	1.031722	-0.418148	0.075944
C27	C	0.993688	-0.302531	-0.000086
C28	C	1.031683	-0.418105	-0.076108
C29	C	0.990754	-0.467441	-0.000101
C30	C	0.952779	-0.351881	0.076020
C31	C	0.952751	-0.351834	-0.076101
C32	C	0.911763	-0.402379	-0.000039
C33	C	0.995381	-0.207531	-0.000077
C34	C	0.989055	-0.562438	-0.000104
C35	C	1.145790	0.108888	-0.000110
C36	C	1.239036	0.110550	-0.000113
C37	C	0.986064	0.268584	-0.000107
C38	C	0.987707	0.361833	-0.000113
N39	N	0.992196	0.115038	-0.219573
C40	C	0.932545	0.174641	-0.469225
C41	C	1.008441	0.190949	-0.531036
C42	C	0.992216	0.115018	-0.408734
C43	C	0.916339	0.098730	-0.531018
C44	C	0.992229	0.115001	-0.591456
C45	C	1.068151	0.131364	-0.469184
C46	C	0.975998	0.039112	-0.469161
C47	C	1.051950	0.055388	-0.530944
C48	C	0.992207	0.115030	-0.303473
C49	C	0.992246	0.114988	-0.696715
N50	N	0.992251	0.114978	0.219377
H51	H	0.535012	0.189665	-0.140398
O52	O	0.541348	0.200717	0.161270
H53	H	0.522751	0.167314	0.224241
H54	H	1.065079	-0.447101	0.140228
O55	O	0.442916	0.029185	0.161100
H56	H	0.499477	0.007295	0.203185
H57	H	0.852166	0.084961	-0.558181
H58	H	1.140671	-0.351942	-0.000029
H59	H	0.882134	0.225102	-0.442126
O60	O	0.957784	-0.045882	-0.433132
H61	H	1.011930	-0.074070	-0.390794
H62	H	1.102473	0.004956	-0.557873
O63	O	0.574670	-0.053395	-0.000022
H64	H	0.556618	-0.086790	0.063188
H65	H	0.919423	-0.322866	-0.140387
O66	O	1.026628	0.275966	-0.567040
H67	H	1.085139	0.268140	-0.609353
O68	O	1.075851	-0.456397	-0.161278
H69	H	1.073689	-0.525731	-0.160853
O70	O	1.153179	0.149704	-0.433373
H71	H	1.145245	0.207908	-0.390565
O72	O	0.908652	-0.313730	0.161279
H73	H	0.910269	-0.244321	0.160635
O74	O	0.409964	0.283510	-0.000009
H75	H	0.369488	0.293264	0.062550
O76	O	0.442947	0.029234	-0.161261
H77	H	0.410891	-0.025922	-0.139841
O78	O	0.821591	-0.422850	-0.000001
H79	H	0.789023	-0.396070	0.063175
