data_functionalizedCrystal
_audit_creation_method	'MofGen! by Chris Wilmer'
_symmetry_space_group_name_H-M	'P1'
_symmetry_Int_Tables_number	1
_symmetry_cell_setting	triclinic
loop_
_symmetry_equiv_pos_as_xyz
  x,y,z
_cell_length_a	6.817900
_cell_length_b	10.943624
_cell_length_c	9.108949
_cell_angle_alpha	97.377688
_cell_angle_beta	111.764586
_cell_angle_gamma	108.838799
loop_
_atom_site_label
_atom_site_type_symbol
_atom_site_fract_x
_atom_site_fract_y
_atom_site_fract_z
V1	V	-4.147510	-0.427524	-0.225322
O2	O	-4.071659	-0.393683	0.010872
O3	O	-4.156931	-0.449319	-0.446818
O4	O	-4.124977	-0.602704	-0.221837
O5	O	-4.103834	-0.239237	-0.215667
V6	V	-4.620293	-0.402000	-0.197073
O7	O	-4.432325	-0.483512	-0.287289
O8	O	-4.785675	-0.346012	-0.135106
O9	O	-4.387666	-0.380205	0.024423
O10	O	-4.813540	-0.435841	-0.433267
O11	O	-4.781365	-0.590287	-0.206728
O12	O	-4.419619	-0.226820	-0.200558
C13	C	-4.015161	-0.448953	-0.500815
C14	C	-4.104323	-0.467941	-0.681890
C15	C	-3.974399	-0.644609	-0.213827
C16	C	-4.037642	-0.787982	-0.212443
C17	C	-3.881148	-0.864097	-0.203123
C18	C	-4.090160	-0.985418	-0.341453
C19	C	-3.941346	-0.922130	-0.071662
C20	C	-4.245884	-0.907441	-0.350903
C21	C	-4.096972	-0.844116	-0.080989
C22	C	-4.306127	-0.965412	-0.219359
C23	C	-4.192779	-0.380568	0.078411
C24	C	-4.082857	-0.361589	0.259485
C25	C	-4.233540	-0.184909	-0.208574
C26	C	-4.149533	-0.041534	-0.209949
H27	H	-4.190915	-0.573517	-0.770227
Cl28	Cl	-3.743534	-0.933922	0.110548
Cl29	Cl	-3.949184	-0.198575	-0.604127
H30	H	-4.374053	-0.899991	-0.469047
Cl31	Cl	-3.603012	-0.795862	-0.192806
H32	H	-4.087944	-1.046571	-0.451568
H33	H	-4.486421	-1.009421	-0.226256
Cl34	Cl	-4.100257	-0.749637	0.089028
