data_functionalizedCrystal
_audit_creation_method	'MofGen! by Chris Wilmer'
_symmetry_space_group_name_H-M	'P1'
_symmetry_Int_Tables_number	1
_symmetry_cell_setting	triclinic
loop_
_symmetry_equiv_pos_as_xyz
  x,y,z
_cell_length_a	10.654550
_cell_length_b	11.026607
_cell_length_c	9.730223
_cell_angle_alpha	90.003535
_cell_angle_beta	90.006678
_cell_angle_gamma	96.535460
loop_
_atom_site_label
_atom_site_type_symbol
_atom_site_fract_x
_atom_site_fract_y
_atom_site_fract_z
O1	O	-1.704907	-0.170769	-0.114401
O2	O	-1.342961	-0.187038	-0.114379
O3	O	-1.493936	-0.001998	-0.114383
O4	O	-1.553932	-0.355809	-0.114397
O5	O	-1.493923	-0.001989	0.114196
O6	O	-1.342947	-0.187030	0.114201
O7	O	-1.704894	-0.170760	0.114179
Zn8	Zn	-1.523918	-0.178893	0.150482
Zn9	Zn	-1.523936	-0.178905	-0.150682
O10	O	-1.553918	-0.355800	0.114183
C11	C	-1.295897	-0.185839	-0.000086
C12	C	-1.155678	-0.182265	-0.000078
C13	C	-1.482861	0.043310	-0.000094
C14	C	-1.449867	0.178302	-0.000097
C15	C	-1.751958	-0.171959	-0.000117
C16	C	-1.892177	-0.175533	-0.000135
C17	C	-1.099841	-0.291214	-0.000102
C18	C	-0.968090	-0.287849	-0.000126
C19	C	-0.948022	-0.066576	-0.000107
C20	C	-1.079771	-0.069943	-0.000073
C21	C	-1.175748	-0.403537	-0.000107
C22	C	-1.119912	-0.512495	-0.000133
C23	C	-0.988161	-0.509129	-0.000156
C24	C	-0.912245	-0.396806	-0.000154
C25	C	-1.564993	-0.401109	-0.000109
C26	C	-1.597988	-0.536100	-0.000115
N27	N	-1.523915	-0.178885	0.356018
C28	C	-1.540970	0.251341	-0.000105
C29	C	-1.506871	0.390862	-0.000108
N30	N	-1.523947	-0.178904	-0.356219
C31	C	-1.430955	-0.104476	0.571879
C32	C	-1.430941	-0.104462	0.427996
C33	C	-1.616917	-0.253316	0.427930
C34	C	-1.616935	-0.253323	0.571810
C35	C	-1.337967	-0.030057	0.643850
C36	C	-1.244966	0.044376	0.571948
C37	C	-1.244952	0.044390	0.428065
C38	C	-1.337939	-0.030030	0.356084
H39	H	-1.181731	-0.603944	-0.000123
H40	H	-1.337926	-0.030007	0.238925
H41	H	-1.283028	-0.406290	-0.000094
N42	N	-0.770141	-0.393167	-0.000180
H43	H	-0.734445	-0.348915	0.084551
H44	H	-0.746386	-0.479263	-0.000242
N45	N	-1.370106	0.444836	-0.000083
H46	H	-1.313993	0.376925	-0.000074
H47	H	-1.352459	0.496881	-0.084819
H48	H	-1.125233	0.018773	-0.000057
N49	N	-0.866135	0.054558	-0.000119
H50	H	-0.884703	0.102338	-0.084845
H51	H	-0.884678	0.102248	0.084680
H52	H	-1.644212	0.210581	-0.000103
N53	N	-1.144682	0.124641	0.649579
H54	H	-1.085773	0.171798	0.582192
H55	H	-1.186122	0.183580	0.709274
H56	H	-1.701236	0.423147	-0.000225
H57	H	-0.942704	-0.597848	-0.000163
H58	H	-1.346625	0.219062	-0.000100
N59	N	-1.717231	-0.333596	0.649374
H60	H	-1.776129	-0.380747	0.581951
H61	H	-1.675804	-0.392541	0.709077
N62	N	-1.337987	-0.030058	0.799036
H63	H	-1.411010	-0.088500	0.833666
H64	H	-1.255958	-0.056511	0.833602
N65	N	-1.144663	0.124679	0.350509
H66	H	-1.085764	0.171819	0.417940
H67	H	-1.095126	0.072224	0.290814
N68	N	-1.717205	-0.333579	0.350301
H69	H	-1.703081	-0.322281	0.248243
H70	H	-1.712334	-0.421784	0.375441
