data_functionalizedCrystal
_audit_creation_method	'MofGen! by Chris Wilmer'
_symmetry_space_group_name_H-M	'P1'
_symmetry_Int_Tables_number	1
_symmetry_cell_setting	triclinic
loop_
_symmetry_equiv_pos_as_xyz
  x,y,z
_cell_length_a	12.759401
_cell_length_b	18.101395
_cell_length_c	12.759393
_cell_angle_alpha	89.966555
_cell_angle_beta	89.981504
_cell_angle_gamma	90.031265
loop_
_atom_site_label
_atom_site_type_symbol
_atom_site_fract_x
_atom_site_fract_y
_atom_site_fract_z
Zn1	Zn	1.606136	-0.294783	-0.593968
Zn2	Zn	1.605980	-0.418644	-0.418282
Zn3	Zn	1.430438	-0.294822	-0.418307
Zn4	Zn	1.430376	-0.418587	-0.593923
O5	O	1.518232	-0.356709	-0.506120
O6	O	1.753136	-0.311221	-0.570671
O7	O	1.582654	-0.402259	-0.271264
O8	O	1.453835	-0.191183	-0.441638
O9	O	1.753021	-0.402221	-0.441595
O10	O	1.582920	-0.191155	-0.570695
O11	O	1.453684	-0.311287	-0.271283
O12	O	1.283408	-0.311232	-0.441595
O13	O	1.453730	-0.402124	-0.740950
O14	O	1.283363	-0.402162	-0.570619
O15	O	1.582860	-0.311166	-0.740983
O16	O	1.582594	-0.522270	-0.441552
O17	O	1.453579	-0.522228	-0.570595
C18	C	1.245265	-0.356695	-0.506106
C19	C	1.128488	-0.356707	-0.506125
C20	C	1.073630	-0.404131	-0.573197
C21	C	0.963906	-0.404140	-0.573208
C22	C	0.963908	-0.309301	-0.439066
C23	C	1.073630	-0.309288	-0.439061
C24	C	1.128488	-0.451550	-0.640260
C25	C	1.073630	-0.498977	-0.707337
C26	C	0.963906	-0.498987	-0.707348
C27	C	0.909040	-0.451568	-0.640283
C28	C	1.518092	-0.549120	-0.506089
C29	C	1.518128	-0.631434	-0.506111
C30	C	1.518358	-0.930525	-0.506168
C31	C	1.437374	-0.899204	-0.587559
C32	C	1.436989	-0.813586	-0.587305
C33	C	1.518244	-0.782142	-0.506140
C34	C	1.488263	-0.813302	-0.395415
C35	C	1.487741	-0.898947	-0.395903
C36	C	1.629501	-0.898866	-0.534526
C37	C	1.628847	-0.813215	-0.536954
C38	C	1.518181	-0.698283	-0.506118
C39	C	1.518418	-1.014384	-0.506182
C40	C	1.792265	-0.356723	-0.506135
C41	C	1.909042	-0.356729	-0.506141
C42	C	1.518306	-0.356634	-0.780153
C43	C	1.518337	-0.356602	-0.896930
C44	C	1.518402	-0.163547	-0.506174
C45	C	1.518474	-0.081233	-0.506197
C46	C	1.585584	-0.309236	-0.951811
C47	C	1.585609	-0.309209	-1.061535
C48	C	1.451137	-0.403922	-1.061488
C49	C	1.451108	-0.403944	-0.951766
C50	C	1.652814	-0.261894	-0.896975
C51	C	1.720068	-0.214524	-0.951856
C52	C	1.720092	-0.214497	-1.061580
C53	C	1.652864	-0.261840	-1.116423
C54	C	1.518219	-0.356730	-0.233153
C55	C	1.518392	-0.356553	-0.116376
H56	H	0.919243	-0.537599	-0.761972
C57	C	1.377140	-0.456046	-0.891388
H58	H	1.386745	-0.449272	-0.818189
H59	H	1.392470	-0.505803	-0.909346
H60	H	1.306561	-0.445192	-0.909370
C61	C	1.379669	-0.784428	-0.362375
H62	H	1.362223	-0.803590	-0.295263
H63	H	1.328710	-0.799879	-0.412011
H64	H	1.381084	-0.731996	-0.359453
C65	C	1.377989	-0.926034	-0.363461
H66	H	1.376704	-0.978511	-0.363468
H67	H	1.327466	-0.907916	-0.411709
H68	H	1.362095	-0.908391	-0.295177
C69	C	0.903563	-0.257149	-0.365295
H70	H	0.951950	-0.228898	-0.325353
H71	H	0.860727	-0.285444	-0.319450
H72	H	0.860794	-0.224918	-0.405575
C73	C	1.133972	-0.551131	-0.781108
H74	H	1.085583	-0.579370	-0.821064
H75	H	1.176741	-0.583361	-0.740836
H76	H	1.176809	-0.522831	-0.826957
H77	H	1.396402	-0.442466	-1.106150
C78	C	1.133978	-0.257121	-0.365288
H79	H	1.085594	-0.228888	-0.325340
H80	H	1.176810	-0.224886	-0.405566
H81	H	1.176751	-0.285407	-0.319433
H82	H	1.544168	-0.919669	-0.333192
H83	H	1.455746	-0.792516	-0.669407
C84	C	1.249180	-0.451538	-0.640256
H85	H	1.273997	-0.486565	-0.689807
H86	H	1.273970	-0.464279	-0.572423
H87	H	1.274032	-0.403758	-0.658555
H88	H	0.819695	-0.451573	-0.640307
C89	C	1.565429	-0.785788	-0.311252
H90	H	1.616736	-0.754976	-0.342969
H91	H	1.598830	-0.826900	-0.279243
H92	H	1.528324	-0.758496	-0.259628
C93	C	1.462359	-0.927043	-0.698809
H94	H	1.522410	-0.958011	-0.696622
H95	H	1.475737	-0.886088	-0.743442
H96	H	1.404317	-0.954251	-0.724984
C97	C	1.326757	-0.928357	-0.562503
H98	H	1.329713	-0.959532	-0.502652
H99	H	1.300947	-0.955597	-0.620647
H100	H	1.281370	-0.887923	-0.548727
C101	C	1.794010	-0.162449	-0.891533
H102	H	1.784372	-0.169253	-0.818326
H103	H	1.778687	-0.112686	-0.909530
H104	H	1.864598	-0.173295	-0.909519
C105	C	1.666425	-0.927960	-0.641741
H106	H	1.614396	-0.959690	-0.670215
H107	H	1.729985	-0.954596	-0.633235
H108	H	1.677646	-0.887540	-0.687931
C109	C	1.710989	-0.926153	-0.454375
H110	H	1.677501	-0.956700	-0.403880
H111	H	1.741957	-0.884924	-0.420294
H112	H	1.763762	-0.953665	-0.489482
C113	C	1.325705	-0.785993	-0.561915
H114	H	1.280558	-0.827126	-0.551707
H115	H	1.300468	-0.756840	-0.618449
H116	H	1.327431	-0.756997	-0.499903
H117	H	1.651456	-0.792845	-0.618442
C118	C	1.714672	-0.784310	-0.462696
H119	H	1.684036	-0.752775	-0.411697
H120	H	1.765341	-0.757505	-0.501869
H121	H	1.747573	-0.824825	-0.428683
C122	C	1.794070	-0.162399	-1.121951
H123	H	1.784457	-0.169160	-1.195152
H124	H	1.864642	-0.173253	-1.103966
H125	H	1.778739	-0.112639	-1.103990
C126	C	1.652894	-0.261811	-1.237118
H127	H	1.702576	-0.226823	-1.261951
H128	H	1.585114	-0.248997	-1.261943
H129	H	1.671034	-0.309600	-1.261917
C130	C	1.652786	-0.261918	-0.776283
H131	H	1.702449	-0.226937	-0.751483
H132	H	1.670897	-0.309716	-0.751444
H133	H	1.584990	-0.249104	-0.751463
