data_functionalizedCrystal
_audit_creation_method	'MofGen! by Chris Wilmer'
_symmetry_space_group_name_H-M	'P1'
_symmetry_Int_Tables_number	1
_symmetry_cell_setting	triclinic
loop_
_symmetry_equiv_pos_as_xyz
  x,y,z
_cell_length_a	14.446369
_cell_length_b	19.377372
_cell_length_c	19.377369
_cell_angle_alpha	82.773744
_cell_angle_beta	48.635090
_cell_angle_gamma	89.998519
loop_
_atom_site_label
_atom_site_type_symbol
_atom_site_fract_x
_atom_site_fract_y
_atom_site_fract_z
Zr1	Zr	0.692791	0.044231	0.795997
O2	O	0.534922	-0.033366	0.916290
O3	O	0.771075	0.051096	0.649863
O4	O	0.771144	-0.057767	0.758726
O5	O	0.500799	0.180621	0.845838
O6	O	0.923482	-0.057764	0.758720
O7	O	0.534852	0.075497	0.807427
O8	O	0.923358	0.136971	0.563984
O9	O	0.500923	-0.014115	1.040574
O10	O	0.882040	0.074472	0.719536
O11	O	0.742938	0.152922	0.748206
O12	O	0.743020	0.024750	0.876378
O13	O	0.603918	0.103201	0.905048
Zr14	Zr	0.881441	0.211896	0.857249
Zr15	Zr	0.935752	0.044236	0.795988
Zr16	Zr	0.638480	0.211892	0.857258
Zr17	Zr	0.638567	0.074934	0.994215
Zr18	Zr	0.935665	0.181193	0.659031
O19	O	0.803157	0.205032	1.003383
O20	O	0.880381	-0.033360	0.916278
O21	O	0.457698	0.205026	1.003395
O22	O	1.039311	0.289494	0.736956
O23	O	1.116535	0.051102	0.649851
O24	O	0.693851	0.289487	0.736968
O25	O	1.073434	0.075507	0.807408
O26	O	0.803088	0.313895	0.894520
O27	O	0.650750	0.313892	0.894526
O28	O	1.039380	0.180631	0.845819
O29	O	0.694045	-0.014111	1.040567
O30	O	0.880188	0.270239	0.612679
O31	O	1.073310	0.270243	0.612672
O32	O	1.116480	0.136975	0.563978
O33	O	0.457753	0.119153	1.089268
O34	O	0.650874	0.119156	1.089262
O35	O	0.831213	0.231377	0.776868
O36	O	0.970314	0.152927	0.748198
O37	O	0.831294	0.103205	0.905040
O38	O	0.692193	0.181656	0.933710
C39	C	0.483209	0.128058	0.826634
C40	C	0.380066	0.128056	0.826637
C41	C	0.854942	0.089659	0.578682
C42	C	0.877962	0.076625	0.494533
C43	C	0.719181	0.337781	0.903251
C44	C	0.696125	0.408958	0.929258
C45	C	0.145642	0.096945	0.925636
C46	C	0.252942	0.096680	0.925614
C47	C	0.404331	0.082963	0.755335
C48	C	0.296476	0.082717	0.755946
C49	C	0.259031	0.204184	0.798055
C50	C	0.364440	0.204391	0.800211
C51	C	1.091024	0.128069	0.826612
C52	C	1.194167	0.128071	0.826609
C53	C	0.855051	-0.081654	0.749995
C54	C	0.878108	-0.152830	0.723988
C55	C	0.983165	0.772814	0.605453
C56	C	0.961490	0.839689	0.629912
C57	C	0.816363	0.787774	0.793642
C58	C	0.838022	0.720894	0.769197
C59	C	0.921425	0.713421	0.675101
C60	C	0.776282	0.661500	0.838845
C61	C	0.797944	0.594626	0.814401
C62	C	0.881346	0.587146	0.720309
C63	C	0.943087	0.646547	0.650657
C64	C	0.692886	0.668975	0.932941
C65	C	0.631146	0.609581	1.002589
C66	C	0.652801	0.542706	0.978146
C67	C	0.736203	0.535226	0.884054
C68	C	0.591060	0.483305	1.047799
C69	C	0.612721	0.416431	1.023355
C70	C	0.757864	0.468352	0.859610
C71	C	0.591033	0.238731	0.292376
C72	C	0.612800	0.226539	0.213235
C73	C	0.758012	0.144643	0.183315
C74	C	0.736261	0.156830	0.262453
C75	C	0.652769	0.203874	0.316978
C76	C	0.797997	0.121974	0.287055
C77	C	0.776243	0.134158	0.366189
C78	C	0.692752	0.181198	0.420720
C79	C	0.631014	0.216058	0.396112
C80	C	0.881482	0.074926	0.232532
C81	C	0.943218	0.040069	0.257134
C82	C	0.921471	0.052257	0.336265
C83	C	0.837980	0.099297	0.390797
C84	C	0.983208	0.017396	0.360874
C85	C	0.961454	0.029580	0.440007
C86	C	0.816226	0.111481	0.469930
C87	C	0.719290	0.166469	1.074564
C88	C	0.696271	0.179503	1.158713
C89	C	1.158850	0.089665	0.578671
C90	C	1.285013	0.076632	0.494518
C91	C	0.787007	0.299377	0.655310
C92	C	0.786970	0.357519	0.597168
C93	C	1.090915	0.299382	0.655299
C94	C	1.194021	0.357526	0.597154
C95	C	0.483318	-0.043255	0.997947
C96	C	0.380212	-0.101399	1.056092
C97	C	0.415383	0.166463	1.074575
C98	C	0.289220	0.179495	1.158728
C99	C	0.787225	-0.043249	0.997936
C100	C	0.787262	-0.101391	1.056078
C101	C	1.298184	0.029553	0.440036
C102	C	1.416720	0.017293	0.360971
C103	C	1.522084	0.052118	0.336386
C104	C	1.508907	0.099201	0.390877
C105	C	1.390373	0.111455	0.469944
C106	C	0.833029	0.425782	0.584828
C107	C	0.832985	0.480421	0.530210
C108	C	0.786889	0.466794	0.487929
C109	C	0.740824	0.398523	0.500274
C110	C	0.740861	0.343887	0.554896
C111	C	1.315061	0.343881	0.554882
C112	C	1.411948	0.398508	0.500257
C113	C	1.387795	0.466780	0.487899
C114	C	1.266743	0.480425	0.530177
C115	C	1.169856	0.425799	0.584807
C116	C	0.259169	-0.087752	1.098373
C117	C	0.162275	-0.142375	1.153023
C118	C	0.186427	-0.210647	1.165386
C119	C	0.307481	-0.224293	1.123102
C120	C	0.404371	-0.169668	1.068459
C121	C	0.276048	0.226569	1.213216
C122	C	0.157512	0.238814	1.292296
C123	C	0.052149	0.203987	1.316883
C124	C	0.065325	0.156907	1.262389
C125	C	0.183860	0.144660	1.183314
C126	C	0.833368	-0.087742	1.098343
C127	C	0.833426	-0.142368	1.152966
C128	C	0.787369	-0.210641	1.165327
C129	C	0.741264	-0.224290	1.123054
C130	C	0.741214	-0.169665	1.068428
H131	H	0.230864	0.127800	0.980220
H132	H	0.361827	0.254937	1.193207
H133	H	0.703665	-0.180787	1.034020
Br134	Br	0.226359	0.004896	1.081607
H135	H	0.146808	0.277152	1.336654
Br136	Br	1.372519	0.175357	0.543874
Br137	Br	0.678749	-0.316949	1.139849
Br138	Br	0.021760	0.148945	1.016863
Br139	Br	1.155210	-0.017722	0.473382
Br140	Br	0.477733	0.302584	0.366375
Br141	Br	1.005590	0.444330	0.642166
H142	H	0.870501	0.536005	0.520167
Br143	Br	0.787443	-0.284767	1.239469
H144	H	1.618595	0.042134	0.272001
Br145	Br	0.477893	0.493458	1.175495
H146	H	0.563243	0.615676	1.079202
H147	H	0.870871	-0.032155	1.088290
H148	H	1.011769	0.888049	0.573189
H149	H	0.562446	0.368070	1.080069
H150	H	0.825988	0.106337	0.138914
H151	H	1.466698	0.511254	0.443413
H152	H	1.247094	0.536019	0.520106
Br153	Br	0.066952	0.004419	0.963702
H154	H	0.258345	0.040814	0.948480
Br155	Br	0.517715	0.279912	0.470111
H156	H	0.748239	0.149790	0.514329
Br157	Br	1.056517	-0.023778	0.183134
H158	H	0.899184	0.065003	0.168101
H159	H	-0.044362	0.213966	1.381273
H160	H	0.255183	0.026296	0.774293
H161	H	0.063716	-0.131252	1.187443
Br162	Br	1.056262	0.636398	0.522953
Br163	Br	0.678352	0.251244	0.571631
Br164	Br	1.651914	0.146460	0.357497
Br165	Br	0.361924	0.116466	0.633278
Br166	Br	1.096495	-0.046457	0.286878
Br167	Br	0.555589	0.117652	0.632662
H168	H	0.870967	-0.131242	1.187382
H169	H	0.327132	-0.279885	1.133175
Br170	Br	0.423081	-0.010325	0.784714
Br171	Br	-0.077681	0.109649	1.295768
H172	H	0.194568	0.106330	1.138951
Br173	Br	0.786848	0.540953	0.413802
Br174	Br	0.142301	0.264107	0.878814
Br175	Br	0.513822	0.248646	0.682070
Br176	Br	0.329729	0.260278	0.887241
Br177	Br	0.663217	0.197729	0.528123
Br178	Br	1.434572	-0.046604	0.287033
Br179	Br	0.895602	0.444295	0.642195
Br180	Br	0.324190	0.243377	0.676819
H181	H	0.825768	0.462268	0.782987
H182	H	0.703294	0.387438	0.465841
Br183	Br	0.528997	0.273845	0.179854
H184	H	1.334750	0.288294	0.564934
H185	H	0.898987	0.532692	0.700409
H186	H	1.051068	0.766731	0.528830
Br187	Br	1.576221	0.379974	0.442887
Br188	Br	0.054917	-0.284773	1.239549
Br189	Br	0.568643	-0.188203	1.011077
Br190	Br	0.703183	0.797924	0.921340
Br191	Br	1.045234	-0.017728	0.473404
H192	H	0.675253	0.723430	0.952840
