data_functionalizedCrystal
_audit_creation_method	'MofGen! by Chris Wilmer'
_symmetry_space_group_name_H-M	'P1'
_symmetry_Int_Tables_number	1
_symmetry_cell_setting	triclinic
loop_
_symmetry_equiv_pos_as_xyz
  x,y,z
_cell_length_a	10.654550
_cell_length_b	6.394989
_cell_length_c	9.130313
_cell_angle_alpha	89.998359
_cell_angle_beta	89.996220
_cell_angle_gamma	94.508693
loop_
_atom_site_label
_atom_site_type_symbol
_atom_site_fract_x
_atom_site_fract_y
_atom_site_fract_z
O1	O	1.670942	-0.293432	-0.121910
O2	O	1.305759	-0.321389	-0.121885
O3	O	1.493534	-0.003422	-0.121899
O4	O	1.483167	-0.611400	-0.121896
O5	O	1.493532	-0.003430	0.121700
O6	O	1.305757	-0.321398	0.121713
O7	O	1.670940	-0.293441	0.121689
Cu8	Cu	1.488348	-0.307420	0.143944
Cu9	Cu	1.488351	-0.307410	-0.144140
O10	O	1.483165	-0.611408	0.121703
C11	C	1.258939	-0.319341	-0.000083
C12	C	1.119430	-0.313199	-0.000074
C13	C	1.041927	-0.500414	-0.000094
C14	C	0.910845	-0.494630	-0.000120
C15	C	0.934782	-0.114402	-0.000110
C16	C	1.065861	-0.120188	-0.000074
C17	C	1.028107	-0.719936	-0.000106
C18	C	0.897025	-0.714152	-0.000132
C19	C	1.717760	-0.295489	-0.000117
C20	C	1.857269	-0.301631	-0.000135
C21	C	1.491483	0.074425	-0.000105
C22	C	1.485219	0.310751	-0.000106
N23	N	1.488355	-0.307426	0.346566
N24	N	1.488353	-0.307388	-0.346763
C25	C	1.571524	-0.166678	0.423212
C26	C	1.571521	-0.166653	0.576549
C27	C	1.405175	-0.448142	0.576581
C28	C	1.405174	-0.448155	0.423247
C29	C	1.667567	-0.004169	0.423195
C30	C	1.667563	-0.004143	0.576532
H31	H	0.852055	-0.780498	0.105037
H32	H	1.759289	-0.055053	0.375631
C33	C	0.962604	-0.900320	0.220969
C34	C	1.068943	-0.835826	0.137523
H35	H	0.987819	-0.971848	0.305938
H36	H	0.907325	-0.991744	0.164320
H37	H	0.920562	-0.781094	0.249262
H38	H	1.110980	-0.955054	0.109221
H39	H	1.124243	-0.744396	0.194184
H40	H	1.635443	0.147607	0.624081
C41	C	0.710755	-0.819996	-0.137763
C42	C	0.841858	-0.825785	-0.137763
H43	H	0.676700	-0.888920	-0.222725
H44	H	0.689960	-0.678266	-0.137765
H45	H	0.676692	-0.888912	-0.052808
H46	H	0.875922	-0.756856	-0.222713
H47	H	0.862663	-0.967542	-0.137775
H48	H	1.064504	-0.789831	-0.105278
C49	C	1.240742	-0.726375	0.438686
C50	C	1.313744	-0.602857	0.338996
H51	H	1.184300	-0.821891	0.386670
H52	H	1.194198	-0.638692	0.498487
H53	H	1.294221	-0.802339	0.498494
H54	H	1.260265	-0.526881	0.279194
H55	H	1.360291	-0.690551	0.279170
H56	H	1.337450	-0.562719	0.639030
C57	C	1.617350	0.344083	0.486277
C58	C	1.636313	0.212597	0.366996
H59	H	1.598048	0.477894	0.451578
H60	H	1.691647	0.358838	0.544059
H61	H	1.549480	0.284698	0.544077
H62	H	1.704190	0.271974	0.309202
H63	H	1.562008	0.197848	0.309190
H64	H	1.764454	-0.039940	0.618143
H65	H	0.891149	0.042742	-0.000133
H66	H	1.128960	0.032261	-0.000037
