data_functionalizedCrystal
_audit_creation_method	'MofGen! by Chris Wilmer'
_symmetry_space_group_name_H-M	'P1'
_symmetry_Int_Tables_number	1
_symmetry_cell_setting	triclinic
loop_
_symmetry_equiv_pos_as_xyz
  x,y,z
_cell_length_a	11.169417
_cell_length_b	17.077402
_cell_length_c	17.077396
_cell_angle_alpha	90.030619
_cell_angle_beta	89.986007
_cell_angle_gamma	89.976238
loop_
_atom_site_label
_atom_site_type_symbol
_atom_site_fract_x
_atom_site_fract_y
_atom_site_fract_z
Zn1	Zn	1.834789	0.312483	-0.443768
Zn2	Zn	2.334789	0.812483	0.056232
Zn3	Zn	1.834654	0.443760	-0.312499
Zn4	Zn	2.334654	0.943760	0.187501
Zn5	Zn	1.634095	0.312514	-0.312523
Zn6	Zn	2.134095	0.812514	0.187477
Zn7	Zn	1.634038	0.443713	-0.443730
Zn8	Zn	2.134038	0.943713	0.056270
O9	O	1.734394	0.378118	-0.378130
O10	O	2.234394	0.878118	0.121870
O11	O	2.002721	0.329904	-0.426360
O12	O	2.502721	0.829904	0.073640
O13	O	1.808017	0.426383	-0.202655
O14	O	2.308017	0.926383	0.297345
O15	O	1.660797	0.202663	-0.329959
O16	O	2.160797	0.702663	0.170041
O17	O	2.002622	0.426353	-0.329917
O18	O	2.502622	0.926353	0.170083
O19	O	1.808246	0.202640	-0.426384
O20	O	2.308246	0.702640	0.073616
O21	O	1.660667	0.329957	-0.202673
O22	O	2.160667	0.829957	0.297327
O23	O	1.466138	0.329911	-0.329922
O24	O	1.966138	0.829911	0.170078
O25	O	1.660700	0.426273	-0.553582
O26	O	2.160700	0.926273	-0.053582
O27	O	1.466096	0.426303	-0.426319
O28	O	1.966096	0.926303	0.073681
O29	O	1.808191	0.329859	-0.553609
O30	O	2.308191	0.829859	-0.053609
O31	O	1.807962	0.553601	-0.329881
O32	O	2.307962	1.053601	0.170119
O33	O	1.660570	0.553566	-0.426295
O34	O	2.160570	1.053566	0.073705
C35	C	1.734278	0.582066	-0.378098
C36	C	2.234278	1.082066	0.121902
C37	C	1.734338	0.669315	-0.378111
C38	C	2.234338	1.169315	0.121889
C39	C	1.422569	0.378106	-0.378120
C40	C	1.922569	0.878106	0.121880
C41	C	1.289169	0.378120	-0.378134
C42	C	1.789169	0.878120	0.121866
C43	C	1.734454	0.378057	-0.582874
C44	C	2.234454	0.878057	-0.082874
C45	C	1.734480	0.378031	-0.670124
C46	C	2.234480	0.878031	-0.170124
C47	C	2.047436	0.378130	-0.378140
C48	C	2.547436	0.878130	0.121860
C49	C	2.180836	0.378136	-0.378145
C50	C	2.680836	0.878136	0.121855
C51	C	1.734543	0.173373	-0.378178
C52	C	2.234543	0.673373	0.121822
C53	C	1.734607	0.086124	-0.378199
C54	C	2.234607	0.586124	0.121801
C55	C	1.811164	0.710297	-0.327962
C56	C	2.311164	1.210297	0.172038
C57	C	1.811223	0.792278	-0.327982
C58	C	2.311223	1.292278	0.172018
C59	C	1.734449	0.833275	-0.378148
C60	C	2.234449	1.333275	0.121852
C61	C	1.657620	0.792287	-0.428303
C62	C	2.157620	1.292287	0.071697
C63	C	1.657568	0.710308	-0.428286
C64	C	2.157568	1.210308	0.071714
C65	C	1.657731	0.963157	-0.428332
C66	C	2.157731	1.463157	0.071668
C67	C	1.657781	1.045142	-0.428348
C68	C	2.157781	1.545142	0.071652
C69	C	1.811385	1.045127	-0.328028
C70	C	2.311385	1.545127	0.171972
C71	C	1.811334	0.963148	-0.328012
C72	C	2.311334	1.463148	0.171988
C73	C	1.734503	0.922166	-0.378166
C74	C	2.234503	1.422166	0.121834
C75	C	1.657778	0.327816	-0.711123
C76	C	2.157778	0.827816	-0.211123
C77	C	1.657798	0.327798	-0.793103
C78	C	2.157798	0.827798	-0.293103
C79	C	1.734526	0.377992	-0.834083
C80	C	2.234526	0.877992	-0.334083
C81	C	1.811231	0.428212	-0.793079
C82	C	2.311231	0.928212	-0.293079
C83	C	1.811205	0.428234	-0.711100
C84	C	2.311205	0.928234	-0.211100
C85	C	1.811283	0.428163	-0.963949
C86	C	2.311283	0.928163	-0.463949
C87	C	1.811312	0.428141	-1.045934
C88	C	2.311312	0.928141	-0.545934
C89	C	1.657876	0.327728	-1.045952
C90	C	2.157876	0.827728	-0.545952
C91	C	1.657850	0.327749	-0.963973
C92	C	2.157850	0.827749	-0.463973
C93	C	1.734557	0.377969	-0.922974
C94	C	2.234557	0.877969	-0.422974
C95	C	1.734403	0.378122	-0.174182
C96	C	2.234403	0.878122	0.325818
C97	C	1.734610	0.377926	-0.086932
C98	C	2.234610	0.877926	0.413068
H99	H	1.873676	0.676923	-0.287108
H100	H	2.373676	1.176923	0.212892
C101	C	1.573490	0.272490	-1.091053
C102	C	2.073490	0.772490	-0.591053
N103	N	1.509935	0.230886	-1.125026
N104	N	2.009935	0.730886	-0.625026
H105	H	1.873781	0.825642	-0.287145
H106	H	2.373781	1.325642	0.212855
C107	C	1.573164	0.837386	-0.483483
C108	C	2.073164	1.337386	0.016517
N109	N	1.509545	0.871355	-0.525043
N110	N	2.009545	1.371355	-0.025043
C111	C	1.895708	0.483362	-1.091010
C112	C	2.395708	0.983362	-0.591010
N113	N	1.959275	0.524957	-1.124962
N114	N	2.459275	1.024957	-0.624962
C115	C	1.573432	0.272550	-0.838198
C116	C	2.073432	0.772550	-0.338198
N117	N	1.509887	0.230932	-0.872163
N118	N	2.009887	0.730932	-0.372163
C119	C	1.895769	0.918053	-0.272814
C120	C	2.395769	1.418053	0.227186
N121	N	1.959365	0.884087	-0.231236
N122	N	2.459365	1.384087	0.268764
H123	H	1.873757	0.469051	-0.930570
H124	H	2.373757	0.969051	-0.430570
H125	H	1.873948	1.078498	-0.287194
H126	H	2.373948	1.578498	0.212806
C127	C	1.895361	0.483604	-0.838160
C128	C	2.395361	0.983604	-0.338160
N129	N	1.958634	0.525387	-0.872114
N130	N	2.458634	1.025387	-0.372114
C131	C	1.573339	1.090237	-0.483542
C132	C	2.073339	1.590237	0.016458
N133	N	1.509739	1.124202	-0.525117
N134	N	2.009739	1.624202	-0.025117
H135	H	1.595172	0.929792	-0.469176
H136	H	2.095172	1.429792	0.030824
H137	H	1.595011	0.676941	-0.469124
H138	H	2.095011	1.176941	0.030876
C139	C	1.573369	0.272598	-0.666052
C140	C	2.073369	0.772598	-0.166052
N141	N	1.509785	0.231009	-0.632107
N142	N	2.009785	0.731009	-0.132107
H143	H	1.595376	0.286874	-0.930610
H144	H	2.095376	0.786874	-0.430610
C145	C	1.895588	0.483470	-0.666001
C146	C	2.395588	0.983470	-0.166001
N147	N	1.959148	0.525077	-0.632034
N148	N	2.459148	1.025077	-0.132034
