data_functionalizedCrystal
_audit_creation_method	'MofGen! by Chris Wilmer'
_symmetry_space_group_name_H-M	'P1'
_symmetry_Int_Tables_number	1
_symmetry_cell_setting	triclinic
loop_
_symmetry_equiv_pos_as_xyz
  x,y,z
_cell_length_a	16.120530
_cell_length_b	18.215405
_cell_length_c	18.215399
_cell_angle_alpha	90.030551
_cell_angle_beta	92.916648
_cell_angle_gamma	87.120245
loop_
_atom_site_label
_atom_site_type_symbol
_atom_site_fract_x
_atom_site_fract_y
_atom_site_fract_z
Zn1	Zn	1.274537	-0.350119	0.473077
Zn2	Zn	1.524537	-0.100119	0.723077
Zn3	Zn	1.774537	0.149881	0.973077
Zn4	Zn	2.024537	0.399881	1.223077
Zn5	Zn	1.274433	-0.473185	0.350000
Zn6	Zn	1.524433	-0.223185	0.600000
Zn7	Zn	1.774433	0.026815	0.850000
Zn8	Zn	2.024433	0.276815	1.100000
Zn9	Zn	1.135120	-0.343893	0.343792
Zn10	Zn	1.385120	-0.093893	0.593792
Zn11	Zn	1.635120	0.156107	0.843792
Zn12	Zn	1.885120	0.406107	1.093792
Zn13	Zn	1.135081	-0.466897	0.466796
Zn14	Zn	1.385081	-0.216897	0.716796
Zn15	Zn	1.635081	0.033103	0.966796
Zn16	Zn	1.885081	0.283103	1.216796
O17	O	1.204793	-0.408524	0.408416
O18	O	1.454793	-0.158524	0.658416
O19	O	1.704793	0.091476	0.908416
O20	O	1.954793	0.341476	1.158416
O21	O	1.391189	-0.371681	0.461977
O22	O	1.641189	-0.121681	0.711977
O23	O	1.891189	0.128319	0.961977
O24	O	2.141189	0.378319	1.211977
O25	O	1.255925	-0.456060	0.246191
O26	O	1.505925	-0.206060	0.496191
O27	O	1.755925	0.043940	0.746191
O28	O	2.005925	0.293940	0.996191
O29	O	1.153673	-0.241737	0.360972
O30	O	1.403673	0.008263	0.610972
O31	O	1.653673	0.258263	0.860972
O32	O	1.903673	0.508263	1.110972
O33	O	1.391112	-0.462097	0.371553
O34	O	1.641112	-0.212097	0.621553
O35	O	1.891112	0.037903	0.871553
O36	O	2.141112	0.287903	1.121553
O37	O	1.256102	-0.246311	0.455957
O38	O	1.506102	0.003689	0.705957
O39	O	1.756102	0.253689	0.955957
O40	O	2.006102	0.503689	1.205957
O41	O	1.153573	-0.361070	0.241630
O42	O	1.403573	-0.111070	0.491630
O43	O	1.653573	0.138930	0.741630
O44	O	1.903573	0.388930	0.991630
O45	O	1.018449	-0.354973	0.354882
O46	O	1.268449	-0.104973	0.604882
O47	O	1.518449	0.145027	0.854882
O48	O	1.768449	0.395027	1.104882
O49	O	1.153608	-0.451381	0.570615
O50	O	1.403608	-0.201381	0.820615
O51	O	1.653608	0.048619	1.070615
O52	O	1.903608	0.298619	1.320615
O53	O	1.018421	-0.445344	0.445252
O54	O	1.268421	-0.195344	0.695252
O55	O	1.518421	0.054656	0.945252
O56	O	1.768421	0.304656	1.195252
O57	O	1.256065	-0.365584	0.575229
O58	O	1.506065	-0.115584	0.825229
O59	O	1.756065	0.134416	1.075229
O60	O	2.006065	0.384416	1.325229
O61	O	1.255888	-0.575333	0.365463
O62	O	1.505888	-0.325333	0.615463
O63	O	1.755888	-0.075333	0.865463
O64	O	2.005888	0.174667	1.115463
O65	O	1.153507	-0.570713	0.451272
O66	O	1.403507	-0.320713	0.701272
O67	O	1.653507	-0.070713	0.951272
O68	O	1.903507	0.179287	1.201272
C69	C	1.204705	-0.599726	0.408377
C70	C	1.454705	-0.349726	0.658377
C71	C	1.704705	-0.099726	0.908377
C72	C	1.954705	0.150274	1.158377
C73	C	1.204743	-0.681527	0.408388
C74	C	1.454743	-0.431527	0.658388
C75	C	1.704743	-0.181527	0.908388
C76	C	1.954743	0.068473	1.158388
C77	C	0.988185	-0.398801	0.398712
C78	C	1.238185	-0.148801	0.648712
C79	C	1.488185	0.101199	0.898712
C80	C	1.738185	0.351199	1.148712
C81	C	0.895519	-0.394659	0.394578
C82	C	1.145519	-0.144659	0.644578
C83	C	1.395519	0.105341	0.894578
C84	C	1.645519	0.355341	1.144578
C85	C	1.258178	-0.872107	0.363799
C86	C	1.508178	-0.622107	0.613799
C87	C	1.758178	-0.372107	0.863799
C88	C	2.008178	-0.122107	1.113799
C89	C	1.258216	-0.948968	0.363819
C90	C	1.508216	-0.698968	0.613819
C91	C	1.758216	-0.448968	0.863819
C92	C	2.008216	-0.198968	1.113819
C93	C	1.151514	-0.944193	0.453091
C94	C	1.401514	-0.694193	0.703091
C95	C	1.651514	-0.444193	0.953091
C96	C	1.901514	-0.194193	1.203091
C97	C	1.151481	-0.867334	0.453075
C98	C	1.401481	-0.617334	0.703075
C99	C	1.651481	-0.367334	0.953075
C100	C	1.901481	-0.117334	1.203075
C101	C	1.204812	-0.831293	0.408425
C102	C	1.454812	-0.581293	0.658425
C103	C	1.704812	-0.331293	0.908425
C104	C	1.954812	-0.081293	1.158425
C105	C	1.204882	-0.985012	0.408460
C106	C	1.454882	-0.735012	0.658460
C107	C	1.704882	-0.485012	0.908460
C108	C	1.954882	-0.235012	1.158460
C109	C	1.204922	-1.068348	0.408482
C110	C	1.454922	-0.818348	0.658482
C111	C	1.704922	-0.568348	0.908482
C112	C	1.954922	-0.318348	1.158482
C113	C	1.204774	-0.747952	0.408404
C114	C	1.454774	-0.497952	0.658404
C115	C	1.704774	-0.247952	0.908404
C116	C	1.954774	0.002048	1.158404
C117	C	0.725858	-0.387080	0.387037
C118	C	0.975858	-0.137080	0.637037
C119	C	1.225858	0.112920	0.887037
C120	C	1.475858	0.362920	1.137037
C121	C	0.684568	-0.430021	0.429849
C122	C	0.934568	-0.180021	0.679849
C123	C	1.184568	0.069979	0.929849
C124	C	1.434568	0.319979	1.179849
C125	C	0.590163	-0.425804	0.425653
C126	C	0.840163	-0.175804	0.675653
C127	C	1.090163	0.074196	0.925653
C128	C	1.340163	0.324196	1.175653
C129	C	0.820272	-0.391296	0.391232
C130	C	1.070272	-0.141296	0.641232
C131	C	1.320272	0.108704	0.891232
C132	C	1.570272	0.358704	1.141232
C133	C	1.422246	-0.418285	0.418158
C134	C	1.672246	-0.168285	0.668158
C135	C	1.922246	0.081715	0.918158
C136	C	2.172246	0.331715	1.168158
C137	C	1.514912	-0.422445	0.422310
C138	C	1.764912	-0.172445	0.672310
C139	C	2.014912	0.077555	0.922310
C140	C	2.264912	0.327555	1.172310
C141	C	1.204843	-0.408475	0.600371
C142	C	1.454843	-0.158475	0.850371
C143	C	1.704843	0.091525	1.100371
C144	C	1.954843	0.341525	1.350371
C145	C	1.204865	-0.408455	0.682171
C146	C	1.454865	-0.158455	0.932171
C147	C	1.704865	0.091545	1.182171
C148	C	1.954865	0.341545	1.432171
C149	C	1.204904	-0.216576	0.408473
C150	C	1.454904	0.033424	0.658473
C151	C	1.704904	0.283424	0.908473
C152	C	1.954904	0.533424	1.158473
C153	C	1.204951	-0.134779	0.408497
C154	C	1.454951	0.115221	0.658497
C155	C	1.704951	0.365221	0.908497
C156	C	1.954951	0.615221	1.158497
C157	C	1.204790	-0.408521	0.217210
C158	C	1.454790	-0.158521	0.467210
C159	C	1.704790	0.091479	0.717210
C160	C	1.954790	0.341479	0.967210
C161	C	1.204930	-0.408342	0.135418
C162	C	1.454930	-0.158342	0.385418
C163	C	1.704930	0.091658	0.635418
C164	C	1.954930	0.341658	0.885418
C165	C	1.258234	-0.363737	0.872770
C166	C	1.508234	-0.113737	1.122770
C167	C	1.758234	0.136263	1.372770
C168	C	2.008234	0.386263	1.622770
C169	C	1.258244	-0.363716	0.949629
C170	C	1.508244	-0.113716	1.199629
C171	C	1.758244	0.136284	1.449629
C172	C	2.008244	0.386284	1.699629
C173	C	1.151555	-0.453061	0.944813
C174	C	1.401555	-0.203061	1.194813
C175	C	1.651555	0.046939	1.444813
C176	C	1.901555	0.296939	1.694813
C177	C	1.151542	-0.453077	0.867955
C178	C	1.401542	-0.203077	1.117955
C179	C	1.651542	0.046923	1.367955
C180	C	1.901542	0.296923	1.617955
C181	C	1.204886	-0.408417	0.831936
C182	C	1.454886	-0.158417	1.081936
C183	C	1.704886	0.091583	1.331936
C184	C	1.954886	0.341583	1.581936
C185	C	1.204909	-0.408379	0.985653
C186	C	1.454909	-0.158379	1.235653
C187	C	1.704909	0.091621	1.485653
C188	C	1.954909	0.341621	1.735653
C189	C	1.204920	-0.408357	1.068987
C190	C	1.454920	-0.158357	1.318987
C191	C	1.704920	0.091643	1.568987
C192	C	1.954920	0.341643	1.818987
C193	C	1.204875	-0.408438	0.748596
C194	C	1.454875	-0.158438	0.998596
C195	C	1.704875	0.091562	1.248596
C196	C	1.954875	0.341562	1.498596
H197	H	1.301605	-0.842765	0.327444
H198	H	1.551605	-0.592765	0.577444
H199	H	1.801605	-0.342765	0.827444
H200	H	2.051605	-0.092765	1.077444
Cl201	Cl	0.739454	-0.491666	0.491308
Cl202	Cl	0.989454	-0.241666	0.741308
Cl203	Cl	1.239454	0.008334	0.991308
Cl204	Cl	1.489454	0.258334	1.241308
H205	H	1.301673	-0.982195	0.327482
H206	H	1.551673	-0.732195	0.577482
H207	H	1.801673	-0.482195	0.827482
H208	H	2.051673	-0.232195	1.077482
H209	H	1.301684	-0.327332	0.982874
H210	H	1.551684	-0.077332	1.232874
H211	H	1.801684	0.172668	1.482874
H212	H	2.051684	0.422668	1.732874
Cl213	Cl	1.325291	-0.307589	0.827491
Cl214	Cl	1.575291	-0.057589	1.077491
Cl215	Cl	1.825291	0.192411	1.327491
Cl216	Cl	2.075291	0.442411	1.577491
Cl217	Cl	1.084392	-0.816021	0.509184
Cl218	Cl	1.334392	-0.566021	0.759184
Cl219	Cl	1.584392	-0.316021	1.009184
Cl220	Cl	1.834392	-0.066021	1.259184
Cl221	Cl	1.084470	-0.989507	0.509216
Cl222	Cl	1.334470	-0.739507	0.759216
Cl223	Cl	1.584470	-0.489507	1.009216
Cl224	Cl	1.834470	-0.239507	1.259216
Cl225	Cl	0.670971	-0.325436	0.325586
Cl226	Cl	0.920971	-0.075436	0.575586
Cl227	Cl	1.170971	0.174564	0.825586
Cl228	Cl	1.420971	0.424564	1.075586
Cl229	Cl	1.084503	-0.509207	0.990100
Cl230	Cl	1.334503	-0.259207	1.240100
Cl231	Cl	1.584503	-0.009207	1.490100
Cl232	Cl	1.834503	0.240793	1.740100
Cl233	Cl	1.084465	-0.509247	0.816616
Cl234	Cl	1.334465	-0.259247	1.066616
Cl235	Cl	1.584465	-0.009247	1.316616
Cl236	Cl	1.834465	0.240753	1.566616
