data_functionalizedCrystal
_audit_creation_method	'MofGen! by Chris Wilmer'
_symmetry_space_group_name_H-M	'P1'
_symmetry_Int_Tables_number	1
_symmetry_cell_setting	triclinic
loop_
_symmetry_equiv_pos_as_xyz
  x,y,z
_cell_length_a	12.759395
_cell_length_b	25.639240
_cell_length_c	12.759387
_cell_angle_alpha	90.043601
_cell_angle_beta	90.020509
_cell_angle_gamma	90.034295
loop_
_atom_site_label
_atom_site_type_symbol
_atom_site_fract_x
_atom_site_fract_y
_atom_site_fract_z
Zn1	Zn	1.606137	-0.208102	0.593912
Zn2	Zn	1.605972	-0.295548	0.418193
Zn3	Zn	1.430435	-0.208130	0.418248
Zn4	Zn	1.430372	-0.295510	0.593832
O5	O	1.518229	-0.251823	0.506046
O6	O	1.753136	-0.219705	0.570612
O7	O	1.582644	-0.283979	0.271179
O8	O	1.453838	-0.134961	0.441607
O9	O	1.753015	-0.283951	0.441512
O10	O	1.582925	-0.134940	0.570666
O11	O	1.453678	-0.219754	0.271220
O12	O	1.283406	-0.219718	0.441530
O13	O	1.453730	-0.283888	0.740864
O14	O	1.283359	-0.283916	0.570530
O15	O	1.582864	-0.219669	0.740922
O16	O	1.582583	-0.368708	0.441435
O17	O	1.453570	-0.368681	0.570476
C18	C	1.245262	-0.251816	0.506028
C19	C	1.128485	-0.251826	0.506045
C20	C	1.128475	-0.318783	0.640156
C21	C	1.073609	-0.352266	0.707214
C22	C	0.963888	-0.352272	0.707227
C23	C	0.909029	-0.318791	0.640177
C24	C	0.963895	-0.285309	0.573118
C25	C	1.073619	-0.285307	0.573111
C26	C	0.963905	-0.218349	0.439015
C27	C	1.073626	-0.218345	0.438995
C28	C	0.909046	-0.184868	0.371964
C29	C	0.963912	-0.151387	0.304899
C30	C	1.073640	-0.151383	0.304888
C31	C	1.128492	-0.184862	0.371936
C32	C	1.518081	-0.387665	0.505964
C33	C	1.518113	-0.445779	0.505964
C34	C	1.585478	-0.806093	0.573368
C35	C	1.585509	-0.860697	0.573390
O36	O	1.642609	-0.888892	0.630615
N37	N	1.518375	-0.888062	0.506148
C38	C	1.451197	-0.860819	0.438887
O39	O	1.394097	-0.889108	0.381696
C40	C	1.451162	-0.806216	0.438872
C41	C	1.518308	-0.778854	0.506111
C42	C	1.652618	-0.778731	0.640603
C43	C	1.652588	-0.724131	0.640580
C44	C	1.585418	-0.696892	0.573322
C45	C	1.518278	-0.724253	0.506088
C46	C	1.383980	-0.778974	0.371618
C47	C	1.383950	-0.724367	0.371609
C48	C	1.451096	-0.697005	0.438848
C49	C	1.451079	-0.642414	0.438808
N50	N	1.518213	-0.615050	0.506050
C51	C	1.585383	-0.642288	0.573307
C52	C	1.451276	-0.975489	0.438926
C53	C	1.451316	-1.030092	0.438935
C54	C	1.585626	-1.029966	0.573439
C55	C	1.585591	-0.975363	0.573424
C56	C	1.518410	-0.948125	0.506168
C57	C	1.585316	-0.527623	0.573253
C58	C	1.585283	-0.473018	0.573221
C59	C	1.450969	-0.473148	0.438722
C60	C	1.451005	-0.527749	0.438749
C61	C	1.518182	-0.554985	0.506024
O62	O	1.394005	-0.614185	0.381615
O63	O	1.642464	-0.613992	0.630499
C64	C	1.792262	-0.251829	0.506065
C65	C	1.909039	-0.251832	0.506073
C66	C	1.518308	-0.251771	0.780080
C67	C	1.518342	-0.251749	0.896857
C68	C	1.518407	-0.115449	0.506152
C69	C	1.518482	-0.057335	0.506197
C70	C	1.518210	-0.251836	0.233079
C71	C	1.518380	-0.251710	0.116303
C72	C	1.652818	-0.184883	0.896937
C73	C	1.720071	-0.151442	0.951839
C74	C	1.720096	-0.151423	1.061560
C75	C	1.652860	-0.184847	1.116383
C76	C	1.585607	-0.218288	1.061482
C77	C	1.585591	-0.218305	0.951758
C78	C	1.451128	-0.285151	1.061401
C79	C	1.451106	-0.285174	0.951680
C80	C	1.383891	-0.318576	1.116224
C81	C	1.316642	-0.352021	1.061323
C82	C	1.316620	-0.352039	0.951595
C83	C	1.383853	-0.318615	0.896778
H84	H	1.639965	-0.450742	0.627975
H85	H	1.217833	-0.184863	0.371931
C86	C	1.377084	-0.443179	0.364749
H87	H	1.386679	-0.406741	0.374381
H88	H	1.392489	-0.452149	0.294171
H89	H	1.306487	-0.452150	0.380081
C90	C	1.794070	-0.114640	1.121959
H91	H	1.784446	-0.119416	1.195156
H92	H	1.864646	-0.122298	1.103983
H93	H	1.778736	-0.079510	1.104010
C94	C	1.652798	-0.184905	0.776247
H95	H	1.702467	-0.160208	0.751460
H96	H	1.670905	-0.218650	0.751400
H97	H	1.585005	-0.175857	0.751422
C98	C	1.242641	-0.388823	0.891207
H99	H	1.252248	-0.384047	0.818008
H100	H	1.257961	-0.423950	0.909164
H101	H	1.172063	-0.381156	0.909185
C102	C	0.903573	-0.114561	0.231155
H103	H	0.951960	-0.094618	0.191216
H104	H	0.860720	-0.134532	0.185307
H105	H	0.860821	-0.091804	0.271455
H106	H	0.819688	-0.318795	0.640202
C107	C	1.794029	-0.114680	0.891532
H108	H	1.784393	-0.119482	0.818323
H109	H	1.778716	-0.079545	0.909541
H110	H	1.864614	-0.122339	0.909521
H111	H	1.383846	-0.318629	0.807437
C112	C	0.788356	-0.184877	0.371973
H113	H	0.763535	-0.209617	0.421504
H114	H	0.763570	-0.151151	0.390279
H115	H	0.763504	-0.193880	0.304132
H116	H	1.396650	-1.052365	0.384171
C117	C	1.242694	-0.388783	1.121628
H118	H	1.252343	-0.383983	1.194836
H119	H	1.172111	-0.381133	1.103640
H120	H	1.258026	-0.423919	1.103625
C121	C	1.652883	-0.184823	1.237074
H122	H	1.702567	-0.160121	1.261919
H123	H	1.585103	-0.175774	1.261891
H124	H	1.671015	-0.218562	1.261870
H125	H	1.640010	-0.549793	0.628041
H126	H	1.383913	-0.318556	1.205566
C127	C	1.133989	-0.114551	0.231127
H128	H	1.207193	-0.119339	0.240723
H129	H	1.115964	-0.122155	0.160507
H130	H	1.116050	-0.079431	0.246662
C131	C	1.249166	-0.318776	0.640149
H132	H	1.273979	-0.343507	0.689690
H133	H	1.273956	-0.327769	0.572313
H134	H	1.274021	-0.285043	0.658466
H135	H	1.329240	-0.702192	0.316842
C136	C	0.903533	-0.389079	0.781035
H137	H	0.951915	-0.409013	0.820976
H138	H	0.860793	-0.369088	0.826878
H139	H	0.860668	-0.411846	0.740790
H140	H	1.707261	-0.701856	0.695334
H141	H	1.707316	-0.800903	0.695378
H142	H	1.640267	-0.953088	0.628176
C143	C	1.659507	-1.059936	0.647428
H144	H	1.649899	-1.096374	0.637809
H145	H	1.730103	-1.050966	0.632118
H146	H	1.644079	-1.050963	0.718006
C147	C	1.377386	-0.945532	0.364926
H148	H	1.337420	-0.969654	0.324879
H149	H	1.331568	-0.924233	0.405058
H150	H	1.417593	-0.924236	0.319172
H151	H	1.118287	-0.379525	0.761807
C152	C	1.310105	-0.809062	0.297670
H153	H	1.319735	-0.845485	0.307300
H154	H	1.239510	-0.800130	0.312999
H155	H	1.325505	-0.800139	0.227083
C156	C	1.377149	-0.557848	0.364787
H157	H	1.337138	-0.533803	0.324732
H158	H	1.417364	-0.579158	0.319055
H159	H	1.331356	-0.579144	0.404958
