data_functionalizedCrystal
_audit_creation_method	'MofGen! by Chris Wilmer'
_symmetry_space_group_name_H-M	'P1'
_symmetry_Int_Tables_number	1
_symmetry_cell_setting	triclinic
loop_
_symmetry_equiv_pos_as_xyz
  x,y,z
_cell_length_a	18.050589
_cell_length_b	13.897449
_cell_length_c	13.897441
_cell_angle_alpha	90.022859
_cell_angle_beta	89.972127
_cell_angle_gamma	89.971946
loop_
_atom_site_label
_atom_site_type_symbol
_atom_site_fract_x
_atom_site_fract_y
_atom_site_fract_z
Zn1	Zn	-0.295639	-1.474632	-0.545454
Zn2	Zn	-0.419843	-1.474496	-0.384163
Zn3	Zn	-0.295671	-1.313321	-0.384166
Zn4	Zn	-0.419791	-1.313273	-0.545410
O5	O	-0.357736	-1.393931	-0.464798
O6	O	-0.312123	-1.609596	-0.524076
O7	O	-0.403407	-1.453079	-0.249182
O8	O	-0.191742	-1.334796	-0.405582
O9	O	-0.403376	-1.609496	-0.405576
O10	O	-0.191719	-1.453311	-0.524079
O11	O	-0.312178	-1.334665	-0.249184
O12	O	-0.312128	-1.178333	-0.405539
O13	O	-0.403287	-1.334715	-0.680397
O14	O	-0.403318	-1.178298	-0.524003
O15	O	-0.312073	-1.453264	-0.680430
O16	O	-0.523761	-1.453033	-0.405533
O17	O	-0.523723	-1.334583	-0.524000
C18	C	-0.357721	-1.143316	-0.464767
C19	C	-0.357733	-1.036102	-0.464777
C20	C	-0.550688	-1.393814	-0.464782
C21	C	-0.633234	-1.393853	-0.464808
C22	C	-0.357732	-0.839807	-0.464795
C23	C	-0.357730	-0.949040	-0.464782
C24	C	-0.832691	-1.329503	-0.529208
C25	C	-0.882136	-1.305986	-0.441188
C26	C	-0.784365	-1.393947	-0.464820
C27	C	-0.882001	-1.417512	-0.552850
C28	C	-0.930350	-1.394037	-0.464840
C29	C	-0.832723	-1.370384	-0.376754
C30	C	-0.832583	-1.481951	-0.488475
C31	C	-0.882006	-1.458467	-0.400395
C32	C	-0.700266	-1.393893	-0.464810
C33	C	-1.014446	-1.394092	-0.464841
C34	C	-0.164031	-1.394074	-0.464836
C35	C	-0.081485	-1.394135	-0.464851
C36	C	-0.357671	-1.393999	-0.716392
C37	C	-0.357643	-1.394028	-0.823606
C38	C	-0.357747	-0.645524	-0.464821
C39	C	-0.357739	-0.752738	-0.464807
C40	C	-0.357592	-1.394055	-1.019901
C41	C	-0.357622	-1.394037	-0.910668
C42	C	-0.357748	-1.393918	-0.214184
C43	C	-0.357567	-1.394076	-0.106971
H44	H	-0.811037	-1.274924	-0.583581
O45	O	-0.910511	-1.530709	-0.328201
H46	H	-0.944292	-1.585779	-0.365864
O47	O	-0.910970	-1.207461	-0.414679
H48	H	-0.891224	-1.154055	-0.468218
O49	O	-0.804179	-1.343909	-0.278124
H50	H	-0.742691	-1.344041	-0.278900
O51	O	-0.803892	-1.580564	-0.514895
H52	H	-0.823653	-1.599968	-0.587986
O53	O	-0.910672	-1.443874	-0.651449
H54	H	-0.890920	-1.390226	-0.704741
