data_functionalizedCrystal
_audit_creation_method	'MofGen! by Chris Wilmer'
_symmetry_space_group_name_H-M	'P1'
_symmetry_Int_Tables_number	1
_symmetry_cell_setting	triclinic
loop_
_symmetry_equiv_pos_as_xyz
  x,y,z
_cell_length_a	13.596369
_cell_length_b	14.519731
_cell_length_c	8.559648
_cell_angle_alpha	76.733759
_cell_angle_beta	90.010964
_cell_angle_gamma	89.992959
loop_
_atom_site_label
_atom_site_type_symbol
_atom_site_fract_x
_atom_site_fract_y
_atom_site_fract_z
O1	O	0.081789	-1.208816	-0.209563
O2	O	0.331789	-0.958816	0.040437
O3	O	0.581789	-0.708816	0.290437
O4	O	0.831789	-0.458816	0.540437
O5	O	0.081782	-0.938574	-0.234188
O6	O	0.331782	-0.688574	0.015812
O7	O	0.581782	-0.438574	0.265812
O8	O	0.831782	-0.188574	0.515812
O9	O	0.081810	-1.097504	0.010655
O10	O	0.331810	-0.847504	0.260655
O11	O	0.581810	-0.597504	0.510655
O12	O	0.831810	-0.347504	0.760655
O13	O	0.081760	-1.049887	-0.454406
O14	O	0.331760	-0.799887	-0.204406
O15	O	0.581760	-0.549887	0.045594
O16	O	0.831760	-0.299887	0.295594
O17	O	-0.081773	-1.097485	0.010642
O18	O	0.168227	-0.847485	0.260642
O19	O	0.418227	-0.597485	0.510642
O20	O	0.668227	-0.347485	0.760642
O21	O	-0.081801	-0.938556	-0.234202
O22	O	0.168199	-0.688556	0.015798
O23	O	0.418199	-0.438556	0.265798
O24	O	0.668199	-0.188556	0.515798
O25	O	-0.081794	-1.208798	-0.209576
O26	O	0.168206	-0.958798	0.040424
O27	O	0.418206	-0.708798	0.290424
O28	O	0.668206	-0.458798	0.540424
Zn29	Zn	-0.107770	-1.073674	-0.221891
Zn30	Zn	0.142230	-0.823674	0.028109
Zn31	Zn	0.392230	-0.573674	0.278109
Zn32	Zn	0.642230	-0.323674	0.528109
Zn33	Zn	0.107758	-1.073698	-0.221873
Zn34	Zn	0.357758	-0.823698	0.028127
Zn35	Zn	0.607758	-0.573698	0.278127
Zn36	Zn	0.857758	-0.323698	0.528127
O37	O	-0.081822	-1.049868	-0.454420
O38	O	0.168178	-0.799868	-0.204420
O39	O	0.418178	-0.549868	0.045580
O40	O	0.668178	-0.299868	0.295580
C41	C	-0.000010	-0.904289	-0.233041
C42	C	0.249990	-0.654289	0.016959
C43	C	0.499990	-0.404289	0.266959
C44	C	0.749990	-0.154289	0.516959
C45	C	-0.000011	-0.802157	-0.229583
C46	C	0.249989	-0.552157	0.020417
C47	C	0.499989	-0.302157	0.270417
C48	C	0.749989	-0.052157	0.520417
N49	N	-0.254862	-1.073664	-0.221902
N50	N	-0.004862	-0.823664	0.028098
N51	N	0.245138	-0.573664	0.278098
N52	N	0.495138	-0.323664	0.528098
C53	C	0.000027	-1.101103	0.070168
C54	C	0.250027	-0.851103	0.320168
C55	C	0.500027	-0.601103	0.570168
C56	C	0.750027	-0.351103	0.820168
C57	C	0.000052	-1.111845	0.247516
C58	C	0.250052	-0.861845	0.497516
C59	C	0.500052	-0.611845	0.747516
C60	C	0.750052	-0.361845	0.997516
C61	C	-0.343860	-1.073669	-0.221906
C62	C	-0.093860	-0.823669	0.028094
C63	C	0.156140	-0.573669	0.278094
C64	C	0.406140	-0.323669	0.528094
C65	C	-0.455511	-1.073678	-0.221895
C66	C	-0.205511	-0.823678	0.028105
C67	C	0.044489	-0.573678	0.278105
C68	C	0.294489	-0.323678	0.528105
C69	C	-0.544502	-1.073692	-0.221877
C70	C	-0.294502	-0.823692	0.028123
C71	C	-0.044502	-0.573692	0.278123
C72	C	0.205498	-0.323692	0.528123
C73	C	-0.656160	-1.073703	-0.221867
C74	C	-0.406160	-0.823703	0.028133
C75	C	-0.156160	-0.573703	0.278133
C76	C	0.093840	-0.323703	0.528133
N77	N	0.254849	-1.073716	-0.221849
N78	N	0.504849	-0.823716	0.028151
N79	N	0.754849	-0.573716	0.278151
N80	N	1.004849	-0.323716	0.528151
C81	C	-0.000008	-0.719214	-0.226774
C82	C	0.249992	-0.469214	0.023226
C83	C	0.499992	-0.219214	0.273226
C84	C	0.749992	0.030786	0.523226
C85	C	-0.000010	-0.615157	-0.223263
C86	C	0.249990	-0.365157	0.026737
C87	C	0.499990	-0.115157	0.276737
C88	C	0.749990	0.134843	0.526737
C89	C	-0.000011	-0.532218	-0.220477
C90	C	0.249989	-0.282218	0.029523
C91	C	0.499989	-0.032218	0.279523
C92	C	0.749989	0.217782	0.529523
C93	C	-0.000010	-0.428155	-0.216967
C94	C	0.249990	-0.178155	0.033033
C95	C	0.499990	0.071845	0.283033
C96	C	0.749990	0.321845	0.533033
C97	C	-0.000005	-0.243084	-0.210723
C98	C	0.249995	0.006916	0.039277
C99	C	0.499995	0.256916	0.289277
C100	C	0.749995	0.506916	0.539277
C101	C	-0.000012	-0.345216	-0.214181
C102	C	0.249988	-0.095216	0.035819
C103	C	0.499988	0.154784	0.285819
C104	C	0.749988	0.404784	0.535819
C105	C	-0.000010	-1.046269	0.486068
C106	C	0.249990	-0.796269	0.736068
C107	C	0.499990	-0.546269	0.986068
C108	C	0.749990	-0.296269	1.236068
C109	C	0.000053	-1.035528	0.308720
C110	C	0.250053	-0.785528	0.558720
C111	C	0.500053	-0.535528	0.808720
C112	C	0.750053	-0.285528	1.058720
H113	H	0.000040	-0.961972	0.225443
H114	H	0.250040	-0.711972	0.475443
H115	H	0.500040	-0.461972	0.725443
H116	H	0.750040	-0.211972	0.975443
Br117	Br	0.000051	-1.234453	0.386318
Br118	Br	0.250051	-0.984453	0.636318
Br119	Br	0.500051	-0.734453	0.886318
Br120	Br	0.750051	-0.484453	1.136318
