data_functionalizedCrystal
_audit_creation_method	'MofGen! by Chris Wilmer'
_symmetry_space_group_name_H-M	'P1'
_symmetry_Int_Tables_number	1
_symmetry_cell_setting	triclinic
loop_
_symmetry_equiv_pos_as_xyz
  x,y,z
_cell_length_a	13.897449
_cell_length_b	12.645330
_cell_length_c	12.645323
_cell_angle_alpha	89.973156
_cell_angle_beta	89.979555
_cell_angle_gamma	90.018972
loop_
_atom_site_label
_atom_site_type_symbol
_atom_site_fract_x
_atom_site_fract_y
_atom_site_fract_z
Zn1	Zn	1.474700	-0.421974	-0.599408
Zn2	Zn	1.474595	-0.599268	-0.422148
Zn3	Zn	1.313390	-0.422023	-0.422157
Zn4	Zn	1.313371	-0.599200	-0.599368
O5	O	1.394014	-0.510616	-0.510770
O6	O	1.609668	-0.445501	-0.575908
O7	O	1.453174	-0.575805	-0.273802
O8	O	1.334840	-0.273669	-0.445690
O9	O	1.609590	-0.575758	-0.445676
O10	O	1.453354	-0.273633	-0.575916
O11	O	1.334738	-0.445584	-0.273808
O12	O	1.178406	-0.445518	-0.445651
O13	O	1.334807	-0.575641	-0.747721
O14	O	1.178392	-0.575689	-0.575847
O15	O	1.453335	-0.445434	-0.747750
O16	O	1.453156	-0.747606	-0.445636
O17	O	1.334705	-0.747556	-0.575839
C18	C	1.143399	-0.510602	-0.510746
C19	C	1.036186	-0.510622	-0.510761
C20	C	1.393943	-0.786046	-0.510755
C21	C	1.394002	-0.903876	-0.510785
C22	C	0.839890	-0.510625	-0.510789
C23	C	0.949123	-0.510620	-0.510770
C24	C	1.319792	-1.071453	-0.592947
C25	C	1.319412	-0.948893	-0.592683
C26	C	1.366483	-0.948475	-0.399063
C27	C	1.366030	-1.071073	-0.399562
C28	C	1.496184	-1.070962	-0.539437
C29	C	1.495558	-0.948355	-0.541880
C30	C	1.645607	-0.510631	-0.510795
C31	C	1.752821	-0.510638	-0.510806
C32	C	1.394081	-0.510525	-0.787276
C33	C	1.394110	-0.510486	-0.905106
C34	C	1.394111	-0.234111	-0.510808
C35	C	1.394152	-0.116281	-0.510825
C36	C	1.319548	-0.592382	-0.949969
C37	C	1.319286	-0.592074	-1.072529
C38	C	1.366931	-0.398588	-1.073009
C39	C	1.366361	-0.399128	-0.950410
C40	C	1.496099	-0.539371	-0.950294
C41	C	1.495582	-0.541769	-1.072900
C42	C	1.394002	-0.510631	-0.235341
C43	C	1.394161	-0.510371	-0.117511
H44	H	1.336629	-0.918736	-0.675524
H45	H	1.516119	-0.624038	-1.101984
C46	C	1.342214	-0.704744	-0.910138
N47	N	1.359285	-0.789376	-0.880126
H48	H	1.551647	-0.479718	-0.921288
C49	C	1.218237	-1.113187	-0.567659
N50	N	1.141746	-1.144618	-0.548605
C51	C	1.437325	-0.909078	-0.314137
N52	N	1.490682	-0.879399	-0.250172
C53	C	1.265265	-1.109840	-0.366824
N54	N	1.189366	-1.139034	-0.342169
H55	H	1.418325	-0.336005	-0.920732
H56	H	1.243770	-0.919661	-0.573728
H57	H	1.417840	-1.100731	-0.336288
C58	C	1.571029	-1.110131	-0.458637
N59	N	1.627395	-1.139640	-0.397777
H60	H	1.292674	-0.917866	-0.374386
H61	H	1.521287	-1.101802	-0.619519
H62	H	1.516311	-0.919201	-0.624101
C63	C	1.267357	-0.364953	-1.114487
N64	N	1.192355	-0.339623	-1.145729
C65	C	1.574348	-0.906953	-0.466955
N66	N	1.633690	-0.875771	-0.410512
C67	C	1.218031	-0.566825	-0.908359
N68	N	1.141568	-0.547569	-0.877019
H69	H	1.336285	-0.674953	-1.102619
H70	H	1.243728	-0.572896	-1.101857
H71	H	1.520935	-0.619534	-0.919378
C72	C	1.438045	-0.313844	-1.112403
N73	N	1.491601	-0.250014	-1.142089
C74	C	1.574632	-0.467049	-1.114253
N75	N	1.634170	-0.410759	-1.145395
H76	H	1.336851	-1.100861	-0.676060
C77	C	1.265658	-0.366117	-0.911775
N78	N	1.189805	-0.341256	-0.882680
