data_functionalizedCrystal
_audit_creation_method	'MofGen! by Chris Wilmer'
_symmetry_space_group_name_H-M	'P1'
_symmetry_Int_Tables_number	1
_symmetry_cell_setting	triclinic
loop_
_symmetry_equiv_pos_as_xyz
  x,y,z
_cell_length_a	12.645035
_cell_length_b	13.032831
_cell_length_c	13.032268
_cell_angle_alpha	90.886977
_cell_angle_beta	82.719845
_cell_angle_gamma	97.027649
loop_
_atom_site_label
_atom_site_type_symbol
_atom_site_fract_x
_atom_site_fract_y
_atom_site_fract_z
Zn1	Zn	0.715917	1.496651	-0.782433
Zn2	Zn	0.873861	1.517990	-0.610805
Zn3	Zn	0.671633	1.346622	-0.588575
Zn4	Zn	0.868129	1.324252	-0.760918
O5	O	0.782385	1.421379	-0.685683
O6	O	0.757801	1.643349	-0.777974
O7	O	0.830900	1.513550	-0.463904
O8	O	0.529173	1.366955	-0.613991
O9	O	0.873841	1.659026	-0.651880
O10	O	0.561708	1.477181	-0.756418
O11	O	0.682324	1.387647	-0.447571
O12	O	0.676766	1.199788	-0.593129
O13	O	0.864072	1.328829	-0.907725
O14	O	0.821132	1.183353	-0.719748
O15	O	0.752243	1.455490	-0.923532
O16	O	1.021435	1.491859	-0.631017
O17	O	1.017224	1.349521	-0.741304
C18	C	0.743522	1.154267	-0.651692
C19	C	0.726925	1.039992	-0.637176
C20	C	0.505904	1.422183	-0.685125
C21	C	0.388084	1.422526	-0.684887
C22	C	0.791047	0.980952	-0.693259
C23	C	0.773895	0.862843	-0.678257
C24	C	0.240955	1.489859	-0.776052
C25	C	0.363551	1.491450	-0.774893
C26	C	0.334041	1.465263	-0.580593
C27	C	0.211553	1.464530	-0.582094
C28	C	0.209777	1.308512	-0.700028
C29	C	0.332781	1.310032	-0.701529
C30	C	1.057797	1.420603	-0.686265
C31	C	1.175638	1.420361	-0.686560
C32	C	0.812458	1.387284	-0.953997
C33	C	0.825274	1.372754	-1.068337
C34	C	0.821400	1.689534	-0.719806
C35	C	0.838026	1.803805	-0.734348
C36	C	0.775656	1.428946	-1.127134
C37	C	0.788900	1.413931	-1.245310
C38	C	0.752361	1.455401	-0.418420
C39	C	0.739276	1.470130	-0.304105
H40	H	0.858640	1.017845	-0.752384
Br41	Br	0.614248	0.978511	-0.538640
H42	H	0.401159	1.463081	-0.852666
H43	H	0.686981	1.529352	-1.266960
H44	H	0.841180	1.354696	-1.282455
H45	H	0.368817	1.278009	-0.778241
Br46	Br	0.137114	1.385125	-0.468339
H47	H	0.723367	1.488166	-1.089983
Br48	Br	0.357570	1.385544	-0.466610
Br49	Br	0.661213	0.801367	-0.579717
H50	H	0.905622	0.840692	-0.793480
H51	H	0.372264	1.547264	-0.566498
Br52	Br	0.204472	1.441938	-0.906967
Br53	Br	0.203639	1.626748	-0.763324
Br54	Br	0.426560	1.630176	-0.761090
Br55	Br	0.176680	1.601559	-0.560252
Br56	Br	0.168359	1.246912	-0.824218
Br57	Br	0.358786	1.218386	-0.598102
Br58	Br	0.136301	1.222000	-0.591057
Br59	Br	0.912411	1.274031	-1.130244
