data_functionalizedCrystal
_audit_creation_method	'MofGen! by Chris Wilmer'
_symmetry_space_group_name_H-M	'P1'
_symmetry_Int_Tables_number	1
_symmetry_cell_setting	triclinic
loop_
_symmetry_equiv_pos_as_xyz
  x,y,z
_cell_length_a	14.908783
_cell_length_b	14.908520
_cell_length_c	13.032268
_cell_angle_alpha	99.985811
_cell_angle_beta	93.464427
_cell_angle_gamma	96.791586
loop_
_atom_site_label
_atom_site_type_symbol
_atom_site_fract_x
_atom_site_fract_y
_atom_site_fract_z
Zn1	Zn	1.281471	-0.362110	-0.700819
Zn2	Zn	1.781471	0.137890	-0.200819
Zn3	Zn	1.291862	-0.494278	-0.535602
Zn4	Zn	1.791862	0.005722	-0.035602
Zn5	Zn	1.151547	-0.349436	-0.516551
Zn6	Zn	1.651547	0.150564	-0.016551
Zn7	Zn	1.121341	-0.522146	-0.700736
Zn8	Zn	1.621341	-0.022146	-0.200736
O9	O	1.211555	-0.431992	-0.613427
O10	O	1.711555	0.068008	-0.113427
O11	O	1.408587	-0.373284	-0.686910
O12	O	1.908587	0.126716	-0.186910
O13	O	1.290238	-0.458098	-0.386849
O14	O	1.790238	0.041902	0.113151
O15	O	1.177075	-0.223524	-0.533057
O16	O	1.677075	0.276476	-0.033057
O17	O	1.416221	-0.470387	-0.565526
O18	O	1.916221	0.029613	-0.065526
O19	O	1.272530	-0.232836	-0.668438
O20	O	1.772530	0.267164	-0.168438
O21	O	1.187150	-0.351683	-0.372853
O22	O	1.687150	0.148317	0.127147
O23	O	1.021803	-0.378705	-0.532976
O24	O	1.521803	0.121295	-0.032976
O25	O	1.125593	-0.517884	-0.846973
O26	O	1.625593	-0.017884	-0.346973
O27	O	0.999611	-0.505594	-0.668296
O28	O	1.499611	-0.005594	-0.168296
O29	O	1.243240	-0.400306	-0.847034
O30	O	1.743240	0.099694	-0.347034
O31	O	1.260949	-0.625567	-0.565445
O32	O	1.760949	-0.125567	-0.065445
O33	O	1.135668	-0.646042	-0.686769
O34	O	1.635668	-0.146042	-0.186769
C35	C	0.978105	-0.443799	-0.598561
C36	C	1.478105	0.056201	-0.098561
C37	C	0.878229	-0.448874	-0.592227
C38	C	1.378229	0.051126	-0.092227
C39	C	0.682567	-0.357482	-0.706937
C40	C	1.182567	0.142518	-0.206937
C41	C	0.588725	-0.362248	-0.700989
C42	C	1.088725	0.137752	-0.200989
C43	C	0.596702	-0.463167	-0.574378
C44	C	1.096702	0.036833	-0.074378
C45	C	0.690544	-0.458401	-0.580326
C46	C	1.190544	0.041599	-0.080326
C47	C	0.733473	-0.405558	-0.646609
C48	C	1.233473	0.094442	-0.146609
C49	C	0.827316	-0.400797	-0.652562
C50	C	1.327316	0.099203	-0.152562
C51	C	0.835292	-0.501711	-0.525946
C52	C	1.335292	-0.001711	-0.025946
C53	C	0.741450	-0.506477	-0.519998
C54	C	1.241450	-0.006477	-0.019998
C55	C	1.196180	-0.668889	-0.628189
C56	C	1.696180	-0.168889	-0.128189
C57	C	1.189681	-0.770235	-0.634545
C58	C	1.689681	-0.270235	-0.134545
C59	C	1.308028	-0.939299	-0.520269
C60	C	1.808028	-0.439299	-0.020269
C61	C	1.301924	-1.034522	-0.526237
C62	C	1.801924	-0.534522	-0.026237
C63	C	1.171375	-1.055904	-0.652455
C64	C	1.671375	-0.555904	-0.152455
C65	C	1.177478	-0.960682	-0.646487
C66	C	1.677478	-0.460682	-0.146487
C67	C	1.245806	-0.902382	-0.580390
C68	C	1.745806	-0.402382	-0.080390
C69	C	1.251905	-0.807157	-0.574417
C70	C	1.751905	-0.307157	-0.074417
C71	C	1.121360	-0.828542	-0.700639
C72	C	1.621360	-0.328542	-0.200639
C73	C	1.115257	-0.923765	-0.706608
C74	C	1.615257	-0.423765	-0.206608
C75	C	1.445918	-0.420141	-0.628352
C76	C	1.945918	0.079859	-0.128352
C77	C	1.545789	-0.415090	-0.634713
C78	C	2.045789	0.084910	-0.134713
C79	C	1.179888	-0.463617	-0.885979
C80	C	1.679888	0.036383	-0.385979
C81	C	1.166394	-0.477094	-1.002124
C82	C	1.666394	0.022906	-0.502124
C83	C	1.227013	-0.194172	-0.598632
C84	C	1.727013	0.305828	-0.098632
C85	C	1.233599	-0.092827	-0.592327
C86	C	1.733599	0.407173	-0.092327
C87	C	1.218587	-0.424927	-1.053935
C88	C	1.718587	0.075073	-0.553935
C89	C	1.204640	-0.438854	-1.173977
C90	C	1.704640	0.061146	-0.673977
C91	C	1.243155	-0.400422	-0.341935
C92	C	1.743155	0.099578	0.158065
C93	C	1.256841	-0.386680	-0.225786
C94	C	1.756841	0.113320	0.274214
H95	H	0.717520	-0.314459	-0.760912
H96	H	1.217520	0.185541	-0.260912
C97	C	1.292901	-0.350656	-0.993805
C98	C	1.792901	0.149344	-0.493805
N99	N	1.348877	-0.294714	-0.948516
N100	N	1.848877	0.205286	-0.448516
H101	H	1.111379	-0.532061	-1.046636
H102	H	1.611379	-0.032061	-0.546636
C103	C	1.130317	-0.513123	-1.234103
C104	C	1.630317	-0.013123	-0.734103
N105	N	1.074337	-0.569061	-1.279391
N106	N	1.574337	-0.069061	-0.779391
C107	C	0.694217	-0.564603	-0.447092
C108	C	1.194217	-0.064603	0.052908
N109	N	0.658641	-0.608387	-0.392180
N110	N	1.158641	-0.108387	0.107820
H111	H	0.862267	-0.357770	-0.706533
H112	H	1.362267	0.142230	-0.206533
C113	C	0.532731	-0.309364	-0.767358
C114	C	1.032731	0.190636	-0.267358
N115	N	0.490557	-0.269529	-0.817350
N116	N	0.990557	0.230471	-0.317350
C117	C	1.331163	-0.312409	-1.165662
C118	C	1.831163	0.187591	-0.665662
N119	N	1.387143	-0.256470	-1.120376
N120	N	1.887143	0.243530	-0.620376
H121	H	0.876748	-0.540866	-0.476831
H122	H	1.376748	-0.040866	0.023169
C123	C	0.549465	-0.521282	-0.501464
C124	C	1.049465	-0.021282	-0.001464
N125	N	0.513885	-0.565054	-0.446544
N126	N	1.013885	-0.065054	0.053456
C127	C	1.327067	-0.743029	-0.501710
C128	C	1.827067	-0.243029	-0.001710
N129	N	1.383682	-0.694730	-0.446948
N130	N	1.883682	-0.194730	0.053052
H131	H	1.363658	-0.891830	-0.466443
H132	H	1.863658	-0.391830	0.033557
H133	H	1.070693	-0.798474	-0.749591
H134	H	1.570693	-0.298474	-0.249591
H135	H	1.352593	-1.064575	-0.477282
H136	H	1.852593	-0.564575	0.022718
H137	H	1.115751	-1.103388	-0.706274
H138	H	1.615751	-0.603388	-0.206274
H139	H	1.059628	-0.971245	-0.760424
H140	H	1.559628	-0.471245	-0.260424
