data_functionalizedCrystal
_audit_creation_method	'MofGen! by Chris Wilmer'
_symmetry_space_group_name_H-M	'P1'
_symmetry_Int_Tables_number	1
_symmetry_cell_setting	triclinic
loop_
_symmetry_equiv_pos_as_xyz
  x,y,z
_cell_length_a	19.805405
_cell_length_b	19.805407
_cell_length_c	11.169409
_cell_angle_alpha	89.976258
_cell_angle_beta	90.039857
_cell_angle_gamma	89.977440
loop_
_atom_site_label
_atom_site_type_symbol
_atom_site_fract_x
_atom_site_fract_y
_atom_site_fract_z
Zn1	Zn	-0.269478	-1.034766	0.678605
Zn2	Zn	0.230522	-0.534766	1.178605
Zn3	Zn	-0.382687	-1.034672	0.477896
Zn4	Zn	0.117313	-0.534672	0.977896
Zn5	Zn	-0.269510	-0.921572	0.477926
Zn6	Zn	0.230490	-0.421572	0.977926
Zn7	Zn	-0.382623	-0.921544	0.678527
Zn8	Zn	0.117377	-0.421544	1.178527
O9	O	-0.326074	-0.978138	0.578239
O10	O	0.173926	-0.478138	1.078239
O11	O	-0.284509	-1.129470	0.652001
O12	O	0.215491	-0.629470	1.152001
O13	O	-0.367714	-1.019641	0.309950
O14	O	0.132286	-0.519641	0.809950
O15	O	-0.174789	-0.936638	0.504592
O16	O	0.325211	-0.436638	1.004592
O17	O	-0.367683	-1.129401	0.504541
O18	O	0.132317	-0.629401	1.004541
O19	O	-0.174766	-1.019801	0.652030
O20	O	0.325234	-0.519801	1.152030
O21	O	-0.284563	-0.936547	0.309972
O22	O	0.215437	-0.436547	0.809972
O23	O	-0.284501	-0.826851	0.504516
O24	O	0.215499	-0.326851	1.004516
O25	O	-0.367573	-0.936591	0.846487
O26	O	0.132427	-0.436591	1.346487
O27	O	-0.367604	-0.826831	0.651897
O28	O	0.132396	-0.326831	1.151897
O29	O	-0.284446	-1.019775	0.846545
O30	O	0.215554	-0.519775	1.346545
O31	O	-0.477395	-1.019614	0.504465
O32	O	0.022605	-0.519614	1.004465
O33	O	-0.477348	-0.936500	0.651868
O34	O	0.022652	-0.436500	1.151868
C35	C	-0.326050	-0.802282	0.578202
C36	C	0.173950	-0.302282	1.078202
C37	C	-0.326055	-0.727050	0.578215
C38	C	0.173945	-0.227050	1.078215
C39	C	-0.282822	-0.691743	0.655112
C40	C	0.217178	-0.191743	1.155112
C41	C	-0.282824	-0.621055	0.655114
C42	C	0.217176	-0.121055	1.155114
C43	C	-0.326063	-0.585675	0.578223
C44	C	0.173937	-0.085675	1.078223
C45	C	-0.369298	-0.620987	0.501317
C46	C	0.130702	-0.120987	1.001317
C47	C	-0.369292	-0.691674	0.501310
C48	C	0.130708	-0.191674	1.001310
C49	C	-0.369323	-0.335914	0.501341
C50	C	0.130677	0.164086	1.001341
C51	C	-0.369327	-0.265222	0.501356
C52	C	0.130673	0.234778	1.001356
C53	C	-0.282855	-0.265294	0.655145
C54	C	0.217145	0.234706	1.155145
C55	C	-0.282849	-0.335981	0.655139
C56	C	0.217151	0.164019	1.155139
C57	C	-0.326081	-0.371287	0.578228
C58	C	0.173919	0.128713	1.078228
C59	C	-0.326077	-0.447936	0.578226
C60	C	0.173923	0.052064	1.078226
C61	C	-0.326071	-0.509028	0.578231
C62	C	0.173929	-0.009028	1.078231
C63	C	-0.501930	-0.978062	0.578181
C64	C	-0.001930	-0.478062	1.078181
C65	C	-0.577162	-0.978092	0.578196
C66	C	-0.077162	-0.478092	1.078196
C67	C	-0.612509	-1.021411	0.501524
C68	C	-0.112509	-0.521411	1.001524
C69	C	-0.683197	-1.021440	0.501550
C70	C	-0.183197	-0.521440	1.001550
C71	C	-0.718538	-0.978145	0.578244
C72	C	-0.218538	-0.478145	1.078244
C73	C	-0.683187	-0.934824	0.654924
C74	C	-0.183187	-0.434824	1.154924
C75	C	-0.612500	-0.934799	0.654903
C76	C	-0.112500	-0.434799	1.154903
C77	C	-0.968260	-0.934923	0.655013
C78	C	-0.468260	-0.434923	1.155013
C79	C	-1.038952	-0.934950	0.655026
C80	C	-0.538952	-0.434950	1.155026
C81	C	-1.038957	-1.021565	0.501660
C82	C	-0.538957	-0.521565	1.001660
C83	C	-0.968270	-1.021540	0.501639
C84	C	-0.468270	-0.521540	1.001639
C85	C	-0.932925	-0.978221	0.578324
C86	C	-0.432925	-0.478221	1.078324
C87	C	-0.856277	-0.978191	0.578296
C88	C	-0.356277	-0.478191	1.078296
C89	C	-0.795185	-0.978171	0.578267
C90	C	-0.295185	-0.478171	1.078267
C91	C	-0.149532	-0.978233	0.578323
C92	C	0.350468	-0.478233	1.078323
C93	C	-0.074300	-0.978274	0.578359
C94	C	0.425700	-0.478274	1.078359
C95	C	-0.325999	-0.978190	0.891281
C96	C	0.174001	-0.478190	1.391281
C97	C	-0.325967	-0.978213	1.024681
C98	C	0.174033	-0.478213	1.524681
C99	C	-0.326095	-0.154681	0.578265
C100	C	0.173905	0.345319	1.078265
C101	C	-0.326090	-0.229913	0.578249
C102	C	0.173910	0.270087	1.078249
C103	C	-0.326100	-0.978126	0.266414
C104	C	0.173900	-0.478126	0.766414
C105	C	-0.325942	-0.978235	0.133014
C106	C	0.174058	-0.478235	0.633014
H107	H	-0.247614	-0.720544	0.717729
H108	H	0.252386	-0.220544	1.217729
H109	H	-0.247651	-0.236539	0.717765
H110	H	0.252349	0.263461	1.217765
C111	C	-0.573640	-1.069038	0.417150
C112	C	-0.073640	-0.569038	0.917150
N113	N	-0.544367	-1.104914	0.353600
N114	N	-0.044367	-0.604914	0.853600
H115	H	-0.939498	-1.056792	0.439184
H116	H	-0.439498	-0.556792	0.939184
H117	H	-0.711973	-1.056715	0.439115
H118	H	-0.211973	-0.556715	0.939115
C119	C	-0.416890	-0.226306	0.416756
C120	C	0.083110	0.273694	0.916756
N121	N	-0.452712	-0.196994	0.353037
N122	N	0.047288	0.303006	0.853037
H123	H	-0.404526	-0.364652	0.438717
H124	H	0.095474	0.135348	0.938717
H125	H	-1.067725	-0.899695	0.717488
H126	H	-0.567725	-0.399695	1.217488
C127	C	-0.416861	-0.582067	0.416734
C128	C	0.083139	-0.082067	0.916734
N129	N	-0.452688	-0.552753	0.353027
N130	N	0.047312	-0.052753	0.853027
C131	C	-0.929389	-0.887306	0.739430
C132	C	-0.429389	-0.387306	1.239430
N133	N	-0.900110	-0.851451	0.803040
N134	N	-0.400110	-0.351451	1.303040
H135	H	-0.404497	-0.720421	0.438691
H136	H	0.095503	-0.220421	0.938691
H137	H	-1.067744	-1.056840	0.439224
H138	H	-0.567744	-0.556840	0.939224
C139	C	-0.722064	-0.887196	0.739285
C140	C	-0.222064	-0.387196	1.239285
N141	N	-0.751346	-0.851320	0.802821
N142	N	-0.251346	-0.351320	1.302821
C143	C	-0.573619	-0.887144	0.739249
C144	C	-0.073619	-0.387144	1.239249
N145	N	-0.544335	-0.851251	0.802785
N146	N	-0.044335	-0.351251	1.302785
C147	C	-0.235280	-0.374895	0.739720
C148	C	0.264720	0.125105	1.239720
N149	N	-0.199447	-0.404204	0.803424
N150	N	0.300553	0.095796	1.303424
C151	C	-0.235267	-0.582219	0.739712
C152	C	0.264733	-0.082219	1.239712
N153	N	-0.199444	-0.552969	0.803435
N154	N	0.300556	-0.052969	1.303435
