data_functionalizedCrystal
_audit_creation_method	'MofGen! by Chris Wilmer'
_symmetry_space_group_name_H-M	'P1'
_symmetry_Int_Tables_number	1
_symmetry_cell_setting	triclinic
loop_
_symmetry_equiv_pos_as_xyz
  x,y,z
_cell_length_a	19.288865
_cell_length_b	10.654550
_cell_length_c	9.130313
_cell_angle_alpha	90.000276
_cell_angle_beta	89.990258
_cell_angle_gamma	96.189411
loop_
_atom_site_label
_atom_site_type_symbol
_atom_site_fract_x
_atom_site_fract_y
_atom_site_fract_z
O1	O	0.097555	-1.665751	-0.121709
O2	O	0.597555	-1.165751	0.378291
O3	O	0.106849	-1.300074	-0.121738
O4	O	0.606849	-0.800074	0.378262
O5	O	0.001141	-1.493479	-0.121693
O6	O	0.501141	-0.993479	0.378307
O7	O	0.203263	-1.472346	-0.121753
O8	O	0.703263	-0.972346	0.378247
O9	O	0.001138	-1.493466	0.121905
O10	O	0.501138	-0.993466	0.621905
O11	O	0.106846	-1.300061	0.121861
O12	O	0.606846	-0.800061	0.621861
O13	O	0.097552	-1.665738	0.121890
O14	O	0.597552	-1.165738	0.621890
Cu15	Cu	0.102198	-1.482898	0.144118
Cu16	Cu	0.602198	-0.982898	0.644118
Cu17	Cu	0.102202	-1.482914	-0.143966
Cu18	Cu	0.602202	-0.982914	0.356034
O19	O	0.203260	-1.472333	0.121846
O20	O	0.703260	-0.972333	0.621846
C21	C	0.106165	-1.253284	0.000059
C22	C	0.606165	-0.753284	0.500059
C23	C	0.104123	-1.113884	0.000049
C24	C	0.604123	-0.613884	0.500049
C25	C	-0.024742	-1.492792	0.000110
C26	C	0.475258	-0.992792	0.500110
C27	C	-0.101859	-1.490751	0.000123
C28	C	0.398141	-0.990751	0.500123
C29	C	0.098236	-1.712528	0.000090
C30	C	0.598236	-1.212528	0.500090
C31	C	0.100277	-1.851928	0.000091
C32	C	0.600277	-1.351928	0.500091
C33	C	-0.145812	-1.604232	0.000139
C34	C	0.354188	-1.104232	0.500139
C35	C	-0.218272	-1.602315	0.000116
C36	C	0.281728	-1.102315	0.500116
C37	C	-0.246775	-1.486909	0.000106
C38	C	0.253225	-0.986909	0.500106
C39	C	-0.202812	-1.373413	0.000081
C40	C	0.297188	-0.873413	0.500081
C41	C	-0.130354	-1.375334	0.000090
C42	C	0.369646	-0.875334	0.500090
C43	C	-0.355657	-1.396183	0.085426
C44	C	0.144343	-0.896183	0.585426
C45	C	-0.428114	-1.394266	0.085426
C46	C	0.071886	-0.894266	0.585426
C47	C	-0.470259	-1.480980	0.000073
C48	C	0.029741	-0.980980	0.500073
C49	C	-0.439940	-1.569631	-0.085263
C50	C	0.060060	-1.069631	0.414737
C51	C	-0.367482	-1.571552	-0.085254
C52	C	0.132518	-1.071552	0.414746
C53	C	-0.325343	-1.484814	0.000095
C54	C	0.174657	-0.984814	0.500095
C55	C	-0.592782	-1.592390	0.000061
C56	C	-0.092782	-1.092390	0.500061
C57	C	-0.665243	-1.590467	0.000029
C58	C	-0.165243	-1.090467	0.500029
C59	C	-0.649781	-1.361562	0.000009
C60	C	-0.149781	-0.861562	0.500009
C61	C	-0.577322	-1.363488	0.000027
C62	C	-0.077322	-0.863488	0.500027
C63	C	-0.548827	-1.478905	0.000060
C64	C	-0.048827	-0.978905	0.500060
C65	C	0.229142	-1.473020	0.000039
C66	C	0.729142	-0.973020	0.500039
C67	C	0.306259	-1.475061	0.000016
C68	C	0.806259	-0.975061	0.500016
N69	N	0.102195	-1.482896	0.346741
N70	N	0.602195	-0.982896	0.846741
C71	C	0.166363	-1.033066	0.000035
C72	C	0.666363	-0.533066	0.500035
C73	C	0.164440	-0.902087	0.000061
C74	C	0.664440	-0.402087	0.500061
C75	C	0.038033	-0.932756	0.000109
C76	C	0.538033	-0.432756	0.500109
C77	C	0.039956	-1.063733	0.000094
C78	C	0.539956	-0.563733	0.500094
N79	N	0.102200	-1.482925	-0.346588
N80	N	0.602200	-0.982925	0.153412
C81	C	0.055408	-1.568565	0.423412
C82	C	0.555408	-1.068565	0.923412
C83	C	0.055408	-1.568577	0.576749
C84	C	0.555408	-1.068577	1.076749
C85	C	0.148990	-1.397248	0.576729
C86	C	0.648990	-0.897248	1.076729
C87	C	0.148986	-1.397231	0.423395
C88	C	0.648986	-0.897231	0.923395
H89	H	-0.254065	-1.694728	0.000123
H90	H	0.245935	-1.194728	0.500123
C91	C	-0.032546	-0.877590	0.000140
C92	C	0.467454	-0.377590	0.500140
H93	H	-0.069338	-0.944485	0.000159
H94	H	0.430662	-0.444485	0.500159
H95	H	-0.035923	-0.827128	-0.084802
H96	H	0.464077	-0.327128	0.415198
H97	H	-0.035924	-0.827140	0.085105
H98	H	0.464076	-0.327140	0.585105
H99	H	-0.569580	-1.686369	0.000081
H100	H	-0.069580	-1.186369	0.500081
C101	C	0.232901	-0.813187	0.000038
C102	C	0.732901	-0.313187	0.500038
H103	H	0.222569	-0.727997	0.000068
H104	H	0.722569	-0.227997	0.500068
H105	H	0.259184	-0.828343	-0.084925
H106	H	0.759184	-0.328343	0.415075
H107	H	0.259186	-0.828362	0.084983
H108	H	0.759186	-0.328362	0.584983
H109	H	0.017308	-1.638334	0.639171
H110	H	0.517308	-1.138334	1.139171
C111	C	0.200461	-1.303036	0.661054
C112	C	0.700461	-0.803036	1.161054
H113	H	0.193768	-1.315323	0.763356
H114	H	0.693768	-0.815323	1.263356
H115	H	0.192488	-1.219269	0.635947
H116	H	0.692488	-0.719269	1.135947
H117	H	0.246888	-1.316414	0.635895
H118	H	0.746888	-0.816414	1.135895
H119	H	0.187086	-1.327464	0.360965
H120	H	0.687086	-0.827464	0.860965
H121	H	-0.321348	-1.325567	0.154939
H122	H	0.178652	-0.825567	0.654939
H123	H	-0.010730	-1.129539	0.000109
H124	H	0.489270	-0.629539	0.500109
H125	H	-0.342798	-1.643732	-0.154740
H126	H	0.157202	-1.143732	0.345260
C127	C	-0.114467	-1.731182	0.000170
C128	C	0.385533	-1.231182	0.500170
H129	H	-0.065018	-1.716078	0.000186
H130	H	0.434982	-1.216078	0.500186
H131	H	-0.129510	-1.777906	-0.084769
H132	H	0.370490	-1.277906	0.415231
H133	H	-0.129528	-1.777876	0.085138
H134	H	0.370472	-1.277876	0.585138
C135	C	-0.486289	-1.665014	-0.179167
C136	C	0.013711	-1.165014	0.320833
H137	H	-0.533784	-1.651166	-0.166970
H138	H	-0.033784	-1.151166	0.333030
H139	H	-0.480032	-1.748415	-0.149159
H140	H	0.019968	-1.248415	0.350841
H141	H	-0.473652	-1.654285	-0.279316
H142	H	0.026348	-1.154285	0.220684
C143	C	0.003942	-1.662789	0.339090
C144	C	0.503942	-1.162789	0.839090
H145	H	0.010645	-1.650523	0.236787
H146	H	0.510645	-1.150523	0.736787
H147	H	-0.042485	-1.649432	0.364239
H148	H	0.457515	-1.149432	0.864239
H149	H	0.011927	-1.746555	0.364209
H150	H	0.511927	-1.246555	0.864209
C151	C	-0.681126	-1.234618	-0.000006
C152	C	-0.181126	-0.734618	0.499994
H153	H	-0.730575	-1.249725	-0.000003
H154	H	-0.230575	-0.749725	0.499997
H155	H	-0.666065	-1.187913	-0.084957
H156	H	-0.166065	-0.687913	0.415043
H157	H	-0.666086	-1.187905	0.084951
H158	H	-0.166086	-0.687905	0.584951
C159	C	-0.713592	-1.715303	0.000049
C160	C	-0.213592	-1.215303	0.500049
H161	H	-0.686241	-1.784311	0.000084
H162	H	-0.186241	-1.284311	0.500084
H163	H	-0.742170	-1.719328	-0.084902
H164	H	-0.242170	-1.219328	0.415098
H165	H	-0.742187	-1.719296	0.085005
H166	H	-0.242187	-1.219296	0.585005
H167	H	-0.541534	-1.271079	0.000022
H168	H	-0.041534	-0.771079	0.500022
H169	H	-0.452794	-1.322076	0.154903
H170	H	0.047206	-0.822076	0.654903
C171	C	-0.234162	-1.246471	0.000076
C172	C	0.265838	-0.746471	0.500076
H173	H	-0.283611	-1.261579	0.000088
H174	H	0.216389	-0.761579	0.500088
H175	H	-0.219105	-1.199764	-0.084875
H176	H	0.280895	-0.699764	0.415125
H177	H	-0.219119	-1.199759	0.085032
H178	H	0.280881	-0.699759	0.585032
H179	H	-0.094566	-1.282921	0.000077
H180	H	0.405434	-0.782921	0.500077
C181	C	0.236942	-1.088230	0.000001
C182	C	0.736942	-0.588230	0.500001
H183	H	0.273734	-1.021334	0.000010
H184	H	0.773734	-0.521334	0.500010
H185	H	0.240323	-1.138680	-0.084953
H186	H	0.740323	-0.638680	0.415047
H187	H	0.240319	-1.138692	0.084954
H188	H	0.740319	-0.638692	0.584954
