data_functionalizedCrystal
_audit_creation_method	'MofGen! by Chris Wilmer'
_symmetry_space_group_name_H-M	'P1'
_symmetry_Int_Tables_number	1
_symmetry_cell_setting	triclinic
loop_
_symmetry_equiv_pos_as_xyz
  x,y,z
_cell_length_a	15.995350
_cell_length_b	15.995292
_cell_length_c	10.268362
_cell_angle_alpha	89.997908
_cell_angle_beta	89.999062
_cell_angle_gamma	83.480495
loop_
_atom_site_label
_atom_site_type_symbol
_atom_site_fract_x
_atom_site_fract_y
_atom_site_fract_z
O1	O	1.110963	0.107930	-0.108181
O2	O	0.867185	0.121258	-0.108206
O3	O	0.995763	-0.007297	-0.108195
O4	O	0.982385	0.236485	-0.108192
O5	O	0.995752	-0.007302	0.108406
O6	O	0.867174	0.121253	0.108394
O7	O	1.110952	0.107925	0.108420
Cu8	Cu	0.989062	0.114588	0.128185
Cu9	Cu	0.989075	0.114595	-0.127971
O10	O	0.982374	0.236480	0.108409
C11	C	0.835985	0.120704	0.000091
C12	C	0.743035	0.119053	0.000080
C13	C	0.405288	0.113120	0.000108
C14	C	0.452742	0.021566	0.000590
C15	C	0.549431	0.023218	0.000093
C16	C	0.572848	0.116063	0.000095
C17	C	0.531758	0.161224	-0.123589
C18	C	0.435123	0.158924	-0.123684
C19	C	0.434771	0.160809	0.122632
C20	C	0.531716	0.160787	0.124258
C21	C	0.667546	0.117731	0.000083
C22	C	0.310591	0.111455	0.000110
C23	C	0.995213	-0.038495	0.000102
C24	C	0.993581	-0.131448	0.000092
C25	C	0.987580	-0.469186	0.000104
C26	C	1.080384	-0.445874	0.000597
C27	C	1.082148	-0.349199	0.000105
C28	C	0.990557	-0.301631	0.000099
C29	C	0.944166	-0.330729	-0.123592
C30	C	0.943049	-0.427519	-0.123691
C31	C	0.941141	-0.427382	0.122625
C32	C	0.944580	-0.330890	0.124255
C33	C	0.992235	-0.206934	0.000092
C34	C	0.985899	-0.563882	0.000102
C35	C	1.142152	0.108479	0.000120
C36	C	1.235102	0.110130	0.000122
C37	C	0.982924	0.267678	0.000109
C38	C	0.984556	0.360631	0.000110
N39	N	0.989059	0.114583	0.308350
N40	N	0.989085	0.114593	-0.308137
C41	C	0.989071	0.114593	0.574021
C42	C	0.989061	0.114590	0.426183
H43	H	0.433160	-0.014860	-0.087620
N44	N	0.569342	0.119688	-0.245534
H45	H	0.631948	0.123405	-0.246953
H46	H	0.558705	0.058650	-0.246690
H47	H	0.876768	-0.298861	-0.128194
N48	N	0.550455	0.251573	-0.129704
H49	H	0.585826	0.264129	-0.052170
H50	H	0.582105	0.260855	-0.212605
N51	N	0.428208	-0.026908	0.118086
H52	H	0.365608	-0.030648	0.116388
H53	H	0.459412	-0.085446	0.116452
N54	N	0.586359	-0.024117	-0.117549
H55	H	0.539816	-0.046133	-0.169291
H56	H	0.616201	0.014957	-0.173817
N57	N	0.567896	0.117120	0.245466
H58	H	0.541204	0.146167	0.325000
H59	H	0.556015	0.056444	0.244558
N60	N	0.985632	-0.463048	-0.246143
H61	H	0.954453	-0.437686	-0.324825
H62	H	1.045636	-0.449097	-0.248092
H63	H	0.875004	-0.442069	-0.129299
N64	N	0.552042	0.250473	0.134166
H65	H	0.588361	0.263442	0.057965
H66	H	0.498097	0.289971	0.133112
H67	H	1.115961	-0.474890	-0.087602
H68	H	0.976391	-0.310666	-0.215637
H69	H	0.414237	0.130876	0.216382
H70	H	0.872830	-0.441373	0.123453
N71	N	0.587111	-0.023814	0.117514
H72	H	0.617191	0.015393	0.173183
H73	H	0.540872	-0.045807	0.169977
N74	N	0.392687	0.250224	0.123751
H75	H	0.354706	0.259832	0.045321
H76	H	0.358244	0.260223	0.205864
H77	H	0.402861	0.226141	-0.129295
H78	H	1.118704	-0.330792	-0.088709
N79	N	0.979636	-0.464813	0.246815
H80	H	1.027573	-0.509255	0.224908
H81	H	1.001516	-0.419059	0.300487
H82	H	1.118481	-0.330176	0.088769
H83	H	1.116150	-0.473874	0.089301
N84	N	0.989315	-0.306298	0.245472
H85	H	1.039155	-0.276328	0.220084
H86	H	0.949255	-0.267664	0.300342
H87	H	0.877728	-0.297920	0.131721
H88	H	0.416826	0.125995	-0.216142
