data_functionalizedCrystal
_audit_creation_method	'MofGen! by Chris Wilmer'
_symmetry_space_group_name_H-M	'P1'
_symmetry_Int_Tables_number	1
_symmetry_cell_setting	triclinic
loop_
_symmetry_equiv_pos_as_xyz
  x,y,z
_cell_length_a	13.897448
_cell_length_b	13.897449
_cell_length_c	19.076919
_cell_angle_alpha	87.717932
_cell_angle_beta	87.727045
_cell_angle_gamma	90.018972
loop_
_atom_site_label
_atom_site_type_symbol
_atom_site_fract_x
_atom_site_fract_y
_atom_site_fract_z
Zn1	Zn	-0.405914	1.452747	0.397937
Zn2	Zn	-0.560740	1.459134	0.280245
Zn3	Zn	-0.399465	1.297929	0.280258
Zn4	Zn	-0.567170	1.291420	0.397903
O5	O	-0.483322	1.375308	0.339086
O6	O	-0.426460	1.588575	0.382333
O7	O	-0.533957	1.443148	0.181758
O8	O	-0.265340	1.318517	0.295887
O9	O	-0.540210	1.593268	0.295866
O10	O	-0.270078	1.432261	0.382345
O11	O	-0.415468	1.324710	0.181767
O12	O	-0.421704	1.162084	0.295855
O13	O	-0.551169	1.307423	0.496397
O14	O	-0.544916	1.157302	0.382288
O15	O	-0.432695	1.425949	0.496421
O16	O	-0.696574	1.436836	0.295834
O17	O	-0.701298	1.313617	0.382276
C18	C	-0.483309	1.124694	0.339070
C19	C	-0.483327	1.017480	0.339079
C20	C	-0.733936	1.375238	0.339065
C21	C	-0.841150	1.375296	0.339080
C22	C	-0.483331	0.821183	0.339098
C23	C	-0.483326	0.930417	0.339086
C24	C	-1.037448	1.375394	0.339124
C25	C	-0.928214	1.375337	0.339102
C26	C	-0.231731	1.375403	0.339121
C27	C	-0.124518	1.375443	0.339137
C28	C	-0.493369	1.365248	0.522660
C29	C	-0.497650	1.360961	0.600889
C30	C	-0.483337	1.626900	0.339102
C31	C	-0.483343	1.734113	0.339109
C32	C	-0.473245	1.385384	0.156225
C33	C	-0.468692	1.389858	0.077997
C34	C	-0.437981	1.420654	0.637655
C35	C	-0.442000	1.416614	0.711159
C36	C	-0.505693	1.352885	0.747895
C37	C	-0.565365	1.293185	0.711124
C38	C	-0.561341	1.297221	0.637622
C39	C	-0.524339	1.334194	0.967723
C40	C	-0.528362	1.330165	1.041231
C41	C	-0.404994	1.453592	1.041260
C42	C	-0.400980	1.457626	0.967756
C43	C	-0.460648	1.397923	0.930992
N44	N	-0.509805	1.348756	0.823028
N45	N	-0.456530	1.402048	0.855860
H46	H	-0.393413	1.465225	0.741090
O47	O	-0.619171	1.239136	0.601878
C48	C	-0.561929	1.179203	0.559348
H49	H	-0.487169	1.172057	0.581506
H50	H	-0.596768	1.105004	0.558505
H51	H	-0.555563	1.212081	0.503645
H52	H	-0.572940	1.285593	0.937798
H53	H	-0.349116	1.509524	0.937850
H54	H	-0.617222	1.241292	0.741041
H55	H	-0.580231	1.278266	1.071140
H56	H	-0.386117	1.472552	0.607749
O57	O	-0.347067	1.511481	1.077083
C58	C	-0.364290	1.494274	1.149836
H59	H	-0.396429	1.419273	1.159863
H60	H	-0.293567	1.499308	1.177781
H61	H	-0.416798	1.550327	1.170694
