data_functionalizedCrystal
_audit_creation_method	'MofGen! by Chris Wilmer'
_symmetry_space_group_name_H-M	'P1'
_symmetry_Int_Tables_number	1
_symmetry_cell_setting	triclinic
loop_
_symmetry_equiv_pos_as_xyz
  x,y,z
_cell_length_a	29.839134
_cell_length_b	29.839131
_cell_length_c	25.639234
_cell_angle_alpha	89.974256
_cell_angle_beta	89.979476
_cell_angle_gamma	90.021992
loop_
_atom_site_label
_atom_site_type_symbol
_atom_site_fract_x
_atom_site_fract_y
_atom_site_fract_z
Zn1	Zn	0.686756	-0.179114	-0.295616
Zn2	Zn	0.936756	0.070886	-0.045616
Zn3	Zn	1.186756	0.320886	0.204384
Zn4	Zn	1.436756	0.570886	0.454384
Zn5	Zn	0.686678	-0.254236	-0.208179
Zn6	Zn	0.936678	-0.004236	0.041821
Zn7	Zn	1.186678	0.245764	0.291821
Zn8	Zn	1.436678	0.495764	0.541821
Zn9	Zn	0.611628	-0.179095	-0.208194
Zn10	Zn	0.861628	0.070905	0.041806
Zn11	Zn	1.111628	0.320905	0.291806
Zn12	Zn	1.361628	0.570905	0.541806
Zn13	Zn	0.611587	-0.254192	-0.295582
Zn14	Zn	0.861587	-0.004192	-0.045582
Zn15	Zn	1.111587	0.245808	0.204418
Zn16	Zn	1.361587	0.495808	0.454418
O17	O	0.649162	-0.216659	-0.251893
O18	O	0.899162	0.033341	-0.001893
O19	O	1.149162	0.283341	0.248107
O20	O	1.399162	0.533341	0.498107
O21	O	0.749613	-0.189105	-0.284025
O22	O	0.999613	0.060895	-0.034025
O23	O	1.249613	0.310895	0.215975
O24	O	1.499613	0.560895	0.465975
O25	O	0.676707	-0.244280	-0.135016
O26	O	0.926707	0.005720	0.114984
O27	O	1.176707	0.255720	0.364984
O28	O	1.426707	0.505720	0.614984
O29	O	0.621644	-0.116231	-0.219810
O30	O	0.871644	0.133769	0.030190
O31	O	1.121644	0.383769	0.280190
O32	O	1.371644	0.633769	0.530190
O33	O	0.749555	-0.244297	-0.219786
O34	O	0.999555	0.005703	0.030214
O35	O	1.249555	0.255703	0.280214
O36	O	1.499555	0.505703	0.530214
O37	O	0.676841	-0.116244	-0.284039
O38	O	0.926841	0.133756	-0.034039
O39	O	1.176841	0.383756	0.215961
O40	O	1.426841	0.633756	0.465961
O41	O	0.621568	-0.189074	-0.135026
O42	O	0.871568	0.060926	0.114974
O43	O	1.121568	0.310926	0.364974
O44	O	1.371568	0.560926	0.614974
O45	O	0.548756	-0.189031	-0.219778
O46	O	0.798756	0.060969	0.030222
O47	O	1.048756	0.310969	0.280222
O48	O	1.298756	0.560969	0.530222
O49	O	0.621574	-0.244222	-0.368752
O50	O	0.871574	0.005778	-0.118752
O51	O	1.121574	0.255778	0.131248
O52	O	1.371574	0.505778	0.381248
O53	O	0.548725	-0.244204	-0.283982
O54	O	0.798725	0.005796	-0.033982
O55	O	1.048725	0.255796	0.216018
O56	O	1.298725	0.505796	0.466018
O57	O	0.676801	-0.189062	-0.368777
O58	O	0.926801	0.060938	-0.118777
O59	O	1.176801	0.310938	0.131223
O60	O	1.426801	0.560938	0.381223
O61	O	0.676666	-0.317097	-0.219753
O62	O	0.926666	-0.067097	0.030247
O63	O	1.176666	0.182903	0.280247
O64	O	1.426666	0.432903	0.530247
O65	O	0.621498	-0.317065	-0.283968
O66	O	0.871498	-0.067065	-0.033968
O67	O	1.121498	0.182935	0.216032
O68	O	1.371498	0.432935	0.466032
C69	C	0.532440	-0.216611	-0.251878
C70	C	0.782440	0.033389	-0.001878
C71	C	1.032440	0.283389	0.248122
C72	C	1.282440	0.533389	0.498122
C73	C	0.482505	-0.216601	-0.251884
C74	C	0.732505	0.033399	-0.001884
C75	C	0.982505	0.283399	0.248116
C76	C	1.232505	0.533399	0.498116
C77	C	0.125944	-0.187981	-0.285408
C78	C	0.375944	0.062019	-0.035408
C79	C	0.625944	0.312019	0.214592
C80	C	0.875944	0.562019	0.464592
C81	C	0.313617	-0.187944	-0.285396
C82	C	0.563617	0.062056	-0.035396
C83	C	0.813617	0.312056	0.214604
C84	C	1.063617	0.562056	0.464604
O85	O	0.337904	-0.163553	-0.313897
O86	O	0.587904	0.086447	-0.063897
O87	O	0.837904	0.336447	0.186103
O88	O	1.087904	0.586447	0.436103
N89	N	0.337060	-0.216631	-0.251897
N90	N	0.587060	0.033369	-0.001897
N91	N	0.837060	0.283369	0.248103
N92	N	1.087060	0.533369	0.498103
C93	C	0.313582	-0.245330	-0.218400
C94	C	0.563582	0.004670	0.031600
C95	C	0.813582	0.254670	0.281600
C96	C	1.063582	0.504670	0.531600
O97	O	0.337828	-0.269732	-0.189911
O98	O	0.587828	-0.019732	0.060089
O99	O	0.837828	0.230268	0.310089
O100	O	1.087828	0.480268	0.560089
C101	C	0.125910	-0.245368	-0.218416
C102	C	0.375910	0.004632	0.031584
C103	C	0.625910	0.254632	0.281584
C104	C	0.875910	0.504632	0.531584
C105	C	0.102469	-0.216677	-0.251913
C106	C	0.352469	0.033323	-0.001913
C107	C	0.602469	0.283323	0.248087
C108	C	0.852469	0.533323	0.498087
C109	C	0.102504	-0.159292	-0.318903
C110	C	0.352504	0.090708	-0.068903
C111	C	0.602504	0.340708	0.181097
C112	C	0.852504	0.590708	0.431097
C113	C	0.055588	-0.159299	-0.318904
C114	C	0.305588	0.090701	-0.068904
C115	C	0.555588	0.340701	0.181096
C116	C	0.805588	0.590701	0.431096
C117	C	0.032113	-0.187996	-0.285409
C118	C	0.282113	0.062004	-0.035409
C119	C	0.532113	0.312004	0.214591
C120	C	0.782113	0.562004	0.464591
C121	C	0.055554	-0.216684	-0.251914
C122	C	0.305554	0.033316	-0.001914
C123	C	0.555554	0.283316	0.248086
C124	C	0.805554	0.533316	0.498086
C125	C	0.102432	-0.274070	-0.184922
C126	C	0.352432	-0.024070	0.065078
C127	C	0.602432	0.225930	0.315078
C128	C	0.852432	0.475930	0.565078
C129	C	0.055511	-0.274077	-0.184930
C130	C	0.305511	-0.024077	0.065070
C131	C	0.555511	0.225923	0.315070
C132	C	0.805511	0.475923	0.565070
C133	C	0.032071	-0.245386	-0.218428
C134	C	0.282071	0.004614	0.031572
C135	C	0.532071	0.254614	0.281572
C136	C	0.782071	0.504614	0.531572
C137	C	-0.014837	-0.245388	-0.218420
C138	C	0.235163	0.004612	0.031580
C139	C	0.485163	0.254612	0.281580
C140	C	0.735163	0.504612	0.531580
N141	N	-0.038279	-0.216702	-0.251919
N142	N	0.211721	0.033298	-0.001919
N143	N	0.461721	0.283298	0.248081
N144	N	0.711721	0.533298	0.498081
C145	C	-0.014805	-0.188006	-0.285414
C146	C	0.235195	0.061994	-0.035414
C147	C	0.485195	0.311994	0.214586
C148	C	0.735195	0.561994	0.464586
C149	C	0.412113	-0.245308	-0.218394
C150	C	0.662113	0.004692	0.031606
C151	C	0.912113	0.254692	0.281606
C152	C	1.162113	0.504692	0.531606
C153	C	0.459031	-0.245298	-0.218390
C154	C	0.709031	0.004702	0.031610
C155	C	0.959031	0.254702	0.281610
C156	C	1.209031	0.504702	0.531610
C157	C	0.459063	-0.187912	-0.285386
C158	C	0.709063	0.062088	-0.035386
C159	C	0.959063	0.312088	0.214614
C160	C	1.209063	0.562088	0.464614
C161	C	0.412144	-0.187920	-0.285388
C162	C	0.662144	0.062080	-0.035388
C163	C	0.912144	0.312080	0.214612
C164	C	1.162144	0.562080	0.464612
C165	C	0.388670	-0.216621	-0.251893
C166	C	0.638670	0.033379	-0.001893
C167	C	0.888670	0.283379	0.248107
C168	C	1.138670	0.533379	0.498107
C169	C	-0.113330	-0.188024	-0.285412
C170	C	0.136670	0.061976	-0.035412
C171	C	0.386670	0.311976	0.214588
C172	C	0.636670	0.561976	0.464588
C173	C	-0.160250	-0.188032	-0.285409
C174	C	0.089750	0.061968	-0.035409
C175	C	0.339750	0.311968	0.214591
C176	C	0.589750	0.561968	0.464591
C177	C	-0.160278	-0.245419	-0.218414
C178	C	0.089722	0.004581	0.031586
C179	C	0.339722	0.254581	0.281586
C180	C	0.589722	0.504581	0.531586
C181	C	-0.113362	-0.245409	-0.218416
C182	C	0.136638	0.004591	0.031584
C183	C	0.386638	0.254591	0.281584
C184	C	0.636638	0.504591	0.531584
C185	C	-0.089890	-0.216710	-0.251919
C186	C	0.160110	0.033290	-0.001919
C187	C	0.410110	0.283290	0.248081
C188	C	0.660110	0.533290	0.498081
O189	O	-0.039152	-0.269771	-0.189938
O190	O	0.210848	-0.019771	0.060062
O191	O	0.460848	0.230229	0.310062
O192	O	0.710848	0.480229	0.560062
O193	O	-0.039059	-0.163615	-0.313908
O194	O	0.210941	0.086385	-0.063908
O195	O	0.460941	0.336385	0.186092
O196	O	0.710941	0.586385	0.436092
C197	C	0.172860	-0.187973	-0.285407
C198	C	0.422860	0.062027	-0.035407
C199	C	0.672860	0.312027	0.214593
C200	C	0.922860	0.562027	0.464593
C201	C	0.196300	-0.216662	-0.251912
C202	C	0.446300	0.033338	-0.001912
C203	C	0.696300	0.283338	0.248088
C204	C	0.946300	0.533338	0.498088
C205	C	0.172825	-0.245358	-0.218417
C206	C	0.422825	0.004642	0.031583
C207	C	0.672825	0.254642	0.281583
C208	C	0.922825	0.504642	0.531583
C209	C	0.243218	-0.216652	-0.251907
C210	C	0.493218	0.033348	-0.001907
C211	C	0.743218	0.283348	0.248093
C212	C	0.993218	0.533348	0.498093
C213	C	0.266693	-0.187955	-0.285402
C214	C	0.516693	0.062045	-0.035402
C215	C	0.766693	0.312045	0.214598
C216	C	1.016693	0.562045	0.464598
C217	C	0.243250	-0.159269	-0.318901
C218	C	0.493250	0.090731	-0.068901
C219	C	0.743250	0.340731	0.181099
C220	C	0.993250	0.590731	0.431099
C221	C	0.196335	-0.159277	-0.318902
C222	C	0.446335	0.090723	-0.068902
C223	C	0.696335	0.340723	0.181098
C224	C	0.946335	0.590723	0.431098
C225	C	0.196268	-0.274044	-0.184918
C226	C	0.446268	-0.024044	0.065082
C227	C	0.696268	0.225956	0.315082
C228	C	0.946268	0.475956	0.565082
C229	C	0.243184	-0.274034	-0.184920
C230	C	0.493184	-0.024034	0.065080
C231	C	0.743184	0.225966	0.315080
C232	C	0.993184	0.475966	0.565080
C233	C	0.266659	-0.245338	-0.218414
C234	C	0.516659	0.004662	0.031586
C235	C	0.766659	0.254662	0.281586
C236	C	1.016659	0.504662	0.531586
C237	C	0.649081	-0.333382	-0.251867
C238	C	0.899081	-0.083382	-0.001867
C239	C	1.149081	0.166618	0.248133
C240	C	1.399081	0.416618	0.498133
C241	C	0.649088	-0.383316	-0.251873
C242	C	0.899088	-0.133316	-0.001873
C243	C	1.149088	0.116684	0.248127
C244	C	1.399088	0.366684	0.498127
C245	C	0.677941	-0.692964	-0.218505
C246	C	0.927941	-0.442964	0.031495
C247	C	1.177941	-0.192964	0.281495
C248	C	1.427941	0.057036	0.531495
C249	C	0.677996	-0.880637	-0.218525
C250	C	0.927996	-0.630637	0.031475
C251	C	1.177996	-0.380637	0.281475
C252	C	1.427996	-0.130637	0.531475
O253	O	0.702464	-0.904905	-0.190134
O254	O	0.952464	-0.654905	0.059866
O255	O	1.202464	-0.404905	0.309866
O256	O	1.452464	-0.154905	0.559866
N257	N	0.649256	-0.904101	-0.251932
N258	N	0.899256	-0.654101	-0.001932
N259	N	1.149256	-0.404101	0.248068
N260	N	1.399256	-0.154101	0.498068
C261	C	0.620501	-0.880644	-0.285339
C262	C	0.870501	-0.630644	-0.035339
C263	C	1.120501	-0.380644	0.214661
C264	C	1.370501	-0.130644	0.464661
O265	O	0.596059	-0.904909	-0.313758
O266	O	0.846059	-0.654909	-0.063758
O267	O	1.096059	-0.404909	0.186242
O268	O	1.346059	-0.154909	0.436242
C269	C	0.620448	-0.692972	-0.285321
C270	C	0.870448	-0.442972	-0.035321
C271	C	1.120448	-0.192972	0.214679
C272	C	1.370448	0.057028	0.464679
C273	C	0.649187	-0.669510	-0.251908
C274	C	0.899187	-0.419510	-0.001908
C275	C	1.149187	-0.169510	0.248092
C276	C	1.399187	0.080490	0.498092
C277	C	0.706679	-0.669502	-0.185095
C278	C	0.956679	-0.419502	0.064905
C279	C	1.206679	-0.169502	0.314905
C280	C	1.456679	0.080498	0.564905
C281	C	0.706663	-0.622587	-0.185088
C282	C	0.956663	-0.372587	0.064912
C283	C	1.206663	-0.122587	0.314912
C284	C	1.456663	0.127413	0.564912
C285	C	0.677909	-0.599133	-0.218491
C286	C	0.927909	-0.349133	0.031509
C287	C	1.177909	-0.099133	0.281509
C288	C	1.427909	0.150867	0.531509
C289	C	0.649172	-0.622595	-0.251901
C290	C	0.899172	-0.372595	-0.001901
C291	C	1.149172	-0.122595	0.248099
C292	C	1.399172	0.127405	0.498099
C293	C	0.591696	-0.669516	-0.318730
C294	C	0.841696	-0.419516	-0.068730
C295	C	1.091696	-0.169516	0.181270
C296	C	1.341696	0.080484	0.431270
C297	C	0.591686	-0.622595	-0.318723
C298	C	0.841686	-0.372595	-0.068723
C299	C	1.091686	-0.122595	0.181277
C300	C	1.341686	0.127405	0.431277
C301	C	0.620425	-0.599133	-0.285310
C302	C	0.870425	-0.349133	-0.035310
C303	C	1.120425	-0.099133	0.214690
C304	C	1.370425	0.150867	0.464690
C305	C	0.620402	-0.552226	-0.285297
C306	C	0.870402	-0.302226	-0.035297
C307	C	1.120402	-0.052226	0.214703
C308	C	1.370402	0.197774	0.464703
N309	N	0.649143	-0.528762	-0.251890
N310	N	0.899143	-0.278762	-0.001890
N311	N	1.149143	-0.028762	0.248110
N312	N	1.399143	0.221238	0.498110
C313	C	0.677897	-0.552215	-0.218487
C314	C	0.927897	-0.302215	0.031513
C315	C	1.177897	-0.052215	0.281513
C316	C	1.427897	0.197785	0.531513
C317	C	0.620530	-0.979175	-0.285345
C318	C	0.870530	-0.729175	-0.035345
C319	C	1.120530	-0.479175	0.214655
C320	C	1.370530	-0.229175	0.464655
C321	C	0.620542	-1.026093	-0.285349
C322	C	0.870542	-0.776093	-0.035349
C323	C	1.120542	-0.526093	0.214651
C324	C	1.370542	-0.276093	0.464651
C325	C	0.678039	-1.026082	-0.218536
C326	C	0.928039	-0.776082	0.031464
C327	C	1.178039	-0.526082	0.281464
C328	C	1.428039	-0.276082	0.531464
C329	C	0.678024	-0.979163	-0.218530
C330	C	0.928024	-0.729163	0.031470
C331	C	1.178024	-0.479163	0.281470
C332	C	1.428024	-0.229163	0.531470
C333	C	0.649271	-0.955711	-0.251938
C334	C	0.899271	-0.705711	-0.001938
C335	C	1.149271	-0.455711	0.248062
C336	C	1.399271	-0.205711	0.498062
C337	C	0.677861	-0.453689	-0.218475
C338	C	0.927861	-0.203689	0.031525
C339	C	1.177861	0.046311	0.281525
C340	C	1.427861	0.296311	0.531525
C341	C	0.677841	-0.406770	-0.218470
C342	C	0.927841	-0.156770	0.031530
C343	C	1.177841	0.093230	0.281530
C344	C	1.427841	0.343230	0.531530
C345	C	0.620347	-0.406785	-0.285285
C346	C	0.870347	-0.156785	-0.035285
C347	C	1.120347	0.093215	0.214715
C348	C	1.370347	0.343215	0.464715
C349	C	0.620364	-0.453700	-0.285289
C350	C	0.870364	-0.203700	-0.035289
C351	C	1.120364	0.046300	0.214711
C352	C	1.370364	0.296300	0.464711
C353	C	0.649125	-0.477151	-0.251882
C354	C	0.899125	-0.227151	-0.001882
C355	C	1.149125	0.022849	0.248118
C356	C	1.399125	0.272849	0.498118
O357	O	0.595951	-0.527929	-0.313678
O358	O	0.845951	-0.277929	-0.063678
O359	O	1.095951	-0.027929	0.186322
O360	O	1.345951	0.222071	0.436322
O361	O	0.702341	-0.527943	-0.190081
O362	O	0.952341	-0.277943	0.059919
O363	O	1.202341	-0.027943	0.309919
O364	O	1.452341	0.222057	0.559919
C365	C	0.677957	-0.739879	-0.218512
C366	C	0.927957	-0.489879	0.031488
C367	C	1.177957	-0.239879	0.281488
C368	C	1.427957	0.010121	0.531488
C369	C	0.649219	-0.763341	-0.251921
C370	C	0.899219	-0.513341	-0.001921
C371	C	1.149219	-0.263341	0.248079
C372	C	1.399219	-0.013341	0.498079
C373	C	0.620466	-0.739888	-0.285324
C374	C	0.870466	-0.489888	-0.035324
C375	C	1.120466	-0.239888	0.214676
C376	C	1.370466	0.010112	0.464676
C377	C	0.649232	-0.810259	-0.251925
C378	C	0.899232	-0.560259	-0.001925
C379	C	1.149232	-0.310259	0.248075
C380	C	1.399232	-0.060259	0.498075
C381	C	0.677985	-0.833713	-0.218522
C382	C	0.927985	-0.583713	0.031478
C383	C	1.177985	-0.333713	0.281478
C384	C	1.427985	-0.083713	0.531478
C385	C	0.706726	-0.810248	-0.185115
C386	C	0.956726	-0.560248	0.064885
C387	C	1.206726	-0.310248	0.314885
C388	C	1.456726	-0.060248	0.564885
C389	C	0.706710	-0.763333	-0.185109
C390	C	0.956710	-0.513333	0.064891
C391	C	1.206710	-0.263333	0.314891
C392	C	1.456710	-0.013333	0.564891
C393	C	0.591725	-0.763352	-0.318731
C394	C	0.841725	-0.513352	-0.068731
C395	C	1.091725	-0.263352	0.181269
C396	C	1.341725	-0.013352	0.431269
C397	C	0.591743	-0.810268	-0.318735
C398	C	0.841743	-0.560268	-0.068735
C399	C	1.091743	-0.310268	0.181265
C400	C	1.341743	-0.060268	0.431265
C401	C	0.620496	-0.833721	-0.285332
C402	C	0.870496	-0.583721	-0.035332
C403	C	1.120496	-0.333721	0.214668
C404	C	1.370496	-0.083721	0.464668
C405	C	0.766341	-0.216708	-0.251908
C406	C	1.016341	0.033292	-0.001908
C407	C	1.266341	0.283292	0.248092
C408	C	1.516341	0.533292	0.498092
C409	C	0.816275	-0.216729	-0.251914
C410	C	1.066275	0.033271	-0.001914
C411	C	1.316275	0.283271	0.248086
C412	C	1.566275	0.533271	0.498086
C413	C	0.649192	-0.216639	-0.388266
C414	C	0.899192	0.033361	-0.138266
C415	C	1.149192	0.283361	0.111734
C416	C	1.399192	0.533361	0.361734
C417	C	0.649204	-0.216630	-0.446380
C418	C	0.899204	0.033370	-0.196380
C419	C	1.149204	0.283370	0.053620
C420	C	1.399204	0.533370	0.303620
C421	C	0.649256	-0.099481	-0.251930
C422	C	0.899256	0.150519	-0.001930
C423	C	1.149256	0.400519	0.248070
C424	C	1.399256	0.650519	0.498070
C425	C	0.649296	-0.049546	-0.251946
C426	C	0.899296	0.200454	-0.001946
C427	C	1.149296	0.450454	0.248054
C428	C	1.399296	0.700454	0.498054
C429	C	0.620506	-0.187831	-0.806754
C430	C	0.870506	0.062169	-0.556754
C431	C	1.120506	0.312169	-0.306754
C432	C	1.370506	0.562169	-0.056754
C433	C	0.620508	-0.187823	-0.861358
C434	C	0.870508	0.062177	-0.611358
C435	C	1.120508	0.312177	-0.361358
C436	C	1.370508	0.562177	-0.111358
O437	O	0.596086	-0.163386	-0.889605
O438	O	0.846086	0.086614	-0.639605
O439	O	1.096086	0.336614	-0.389605
O440	O	1.346086	0.586614	-0.139605
N441	N	0.649219	-0.216560	-0.888663
N442	N	0.899219	0.033440	-0.638663
N443	N	1.149219	0.283440	-0.388663
N444	N	1.399219	0.533440	-0.138663
C445	C	0.677926	-0.245309	-0.861359
C446	C	0.927926	0.004691	-0.611359
C447	C	1.177926	0.254691	-0.361359
C448	C	1.427926	0.504691	-0.111359
O449	O	0.702346	-0.269752	-0.889598
O450	O	0.952346	-0.019752	-0.639598
O451	O	1.202346	0.230248	-0.389598
O452	O	1.452346	0.480248	-0.139598
C453	C	0.677921	-0.245320	-0.806756
C454	C	0.927921	0.004680	-0.556756
C455	C	1.177921	0.254680	-0.306756
C456	C	1.427921	0.504680	-0.056756
C457	C	0.649211	-0.216578	-0.779455
C458	C	0.899211	0.033422	-0.529455
C459	C	1.149211	0.283422	-0.279455
C460	C	1.399211	0.533422	-0.029455
C461	C	0.591799	-0.159092	-0.779453
C462	C	0.841799	0.090908	-0.529453
C463	C	1.091799	0.340908	-0.279453
C464	C	1.341799	0.590908	-0.029453
C465	C	0.591797	-0.159100	-0.724852
C466	C	0.841797	0.090900	-0.474852
C467	C	1.091797	0.340900	-0.224852
C468	C	1.341797	0.590900	0.025148
C469	C	0.620503	-0.187846	-0.697553
C470	C	0.870503	0.062154	-0.447553
C471	C	1.120503	0.312154	-0.197553
C472	C	1.370503	0.562154	0.052447
C473	C	0.649210	-0.216585	-0.724854
C474	C	0.899210	0.033415	-0.474854
C475	C	1.149210	0.283415	-0.224854
C476	C	1.399210	0.533415	0.025146
C477	C	0.706625	-0.274071	-0.779454
C478	C	0.956625	-0.024071	-0.529454
C479	C	1.206625	0.225929	-0.279454
C480	C	1.456625	0.475929	-0.029454
C481	C	0.706617	-0.274079	-0.724847
C482	C	0.956617	-0.024079	-0.474847
C483	C	1.206617	0.225921	-0.224847
C484	C	1.456617	0.475921	0.025153
C485	C	0.677908	-0.245337	-0.697546
C486	C	0.927908	0.004663	-0.447546
C487	C	1.177908	0.254663	-0.197546
C488	C	1.427908	0.504663	0.052454
C489	C	0.677913	-0.245340	-0.642954
C490	C	0.927913	0.004660	-0.392954
C491	C	1.177913	0.254660	-0.142954
C492	C	1.427913	0.504660	0.107046
N493	N	0.649203	-0.216603	-0.615650
N494	N	0.899203	0.033397	-0.365650
N495	N	1.149203	0.283397	-0.115650
N496	N	1.399203	0.533397	0.134350
C497	C	0.620498	-0.187856	-0.642950
C498	C	0.870498	0.062144	-0.392950
C499	C	1.120498	0.312144	-0.142950
C500	C	1.370498	0.562144	0.107050
C501	C	0.677933	-0.245287	-0.976030
C502	C	0.927933	0.004713	-0.726030
C503	C	1.177933	0.254713	-0.476030
C504	C	1.427933	0.504713	-0.226030
C505	C	0.677941	-0.245275	-1.030632
C506	C	0.927941	0.004725	-0.780632
C507	C	1.177941	0.254725	-0.530632
C508	C	1.427941	0.504725	-0.280632
C509	C	0.620523	-0.187789	-1.030628
C510	C	0.870523	0.062211	-0.780628
C511	C	1.120523	0.312211	-0.530628
C512	C	1.370523	0.562211	-0.280628
C513	C	0.620518	-0.187799	-0.976024
C514	C	0.870518	0.062201	-0.726024
C515	C	1.120518	0.312201	-0.476024
C516	C	1.370518	0.562201	-0.226024
C517	C	0.649223	-0.216550	-0.948726
C518	C	0.899223	0.033450	-0.698726
C519	C	1.149223	0.283450	-0.448726
C520	C	1.399223	0.533450	-0.198726
C521	C	0.620496	-0.187874	-0.528284
C522	C	0.870496	0.062126	-0.278284
C523	C	1.120496	0.312126	-0.028284
C524	C	1.370496	0.562126	0.221716
C525	C	0.620499	-0.187883	-0.473679
C526	C	0.870499	0.062117	-0.223679
C527	C	1.120499	0.312117	0.026321
C528	C	1.370499	0.562117	0.276321
C529	C	0.677915	-0.245371	-0.473689
C530	C	0.927915	0.004629	-0.223689
C531	C	1.177915	0.254629	0.026311
C532	C	1.427915	0.504629	0.276311
C533	C	0.677914	-0.245361	-0.528289
C534	C	0.927914	0.004639	-0.278289
C535	C	1.177914	0.254639	-0.028289
C536	C	1.427914	0.504639	0.221711
C537	C	0.649202	-0.216611	-0.555586
C538	C	0.899202	0.033389	-0.305586
C539	C	1.149202	0.283389	-0.055586
C540	C	1.399202	0.533389	0.194414
O541	O	0.702322	-0.269765	-0.614674
O542	O	0.952322	-0.019765	-0.364674
O543	O	1.202322	0.230235	-0.114674
O544	O	1.452322	0.480235	0.135326
O545	O	0.596077	-0.163422	-0.614705
O546	O	0.846077	0.086578	-0.364705
O547	O	1.096077	0.336578	-0.114705
O548	O	1.346077	0.586578	0.135295
C549	C	0.649159	-0.216647	-0.116050
C550	C	0.899159	0.033353	0.133950
C551	C	1.149159	0.283353	0.383950
C552	C	1.399159	0.533353	0.633950
C553	C	0.649234	-0.216529	-0.057936
C554	C	0.899234	0.033471	0.192064
C555	C	1.149234	0.283471	0.442064
C556	C	1.399234	0.533471	0.692064
H557	H	0.121612	-0.135924	-0.346182
H558	H	0.371612	0.114076	-0.096182
H559	H	0.621612	0.364076	0.153818
H560	H	0.871612	0.614076	0.403818
H561	H	0.597116	-0.164463	-0.550503
H562	H	0.847116	0.085537	-0.300503
H563	H	1.097116	0.335537	-0.050503
H564	H	1.347116	0.585537	0.199497
O565	O	0.268462	-0.304982	-0.148785
O566	O	0.518462	-0.054982	0.101215
O567	O	0.768462	0.195018	0.351215
O568	O	1.018462	0.445018	0.601215
H569	H	0.289831	-0.284844	-0.122220
H570	H	0.539831	-0.034844	0.127780
H571	H	0.789831	0.215156	0.377780
H572	H	1.039831	0.465156	0.627780
H573	H	0.701287	-0.268774	-0.451452
H574	H	0.951287	-0.018774	-0.201452
H575	H	1.201287	0.231226	0.048548
H576	H	1.451287	0.481226	0.298548
O577	O	0.560841	-0.128077	-0.808891
O578	O	0.810841	0.121923	-0.558891
O579	O	1.060841	0.371923	-0.308891
O580	O	1.310841	0.621923	-0.058891
H581	H	0.537962	-0.148161	-0.833756
H582	H	0.787962	0.101839	-0.583756
H583	H	1.037962	0.351839	-0.333756
H584	H	1.287962	0.601839	-0.083756
O585	O	0.737580	-0.305091	-0.695407
O586	O	0.987580	-0.055091	-0.445407
O587	O	1.237580	0.194909	-0.195407
O588	O	1.487580	0.444909	0.054593
H589	H	0.732755	-0.300274	-0.652850
H590	H	0.982755	-0.050274	-0.402850
H591	H	1.232755	0.199726	-0.152850
H592	H	1.482755	0.449726	0.097150
H593	H	0.597141	-0.164394	-0.953799
H594	H	0.847141	0.085606	-0.703799
H595	H	1.097141	0.335606	-0.453799
H596	H	1.347141	0.585606	-0.203799
H597	H	0.701324	-0.268674	-1.052857
H598	H	0.951324	-0.018674	-0.802857
H599	H	1.201324	0.231326	-0.552857
H600	H	1.451324	0.481326	-0.302857
O601	O	0.560701	-0.738058	-0.354749
O602	O	0.810701	-0.488058	-0.104749
O603	O	1.060701	-0.238058	0.145251
O604	O	1.310701	0.011942	0.395251
H605	H	0.540716	-0.762261	-0.377971
H606	H	0.790716	-0.512261	-0.127971
H607	H	1.040716	-0.262261	0.122029
H608	H	1.290716	-0.012261	0.372029
H609	H	0.730137	-0.829352	-0.157916
H610	H	0.980137	-0.579352	0.092084
H611	H	1.230137	-0.329352	0.342084
H612	H	1.480137	-0.079352	0.592084
H613	H	0.596934	-0.387681	-0.312480
H614	H	0.846934	-0.137681	-0.062480
H615	H	1.096934	0.112319	0.187520
H616	H	1.346934	0.362319	0.437520
O617	O	0.708882	-0.276356	-0.557739
O618	O	0.958882	-0.026356	-0.307739
O619	O	1.208882	0.223644	-0.057739
O620	O	1.458882	0.473644	0.192261
H621	H	0.688756	-0.299200	-0.582601
H622	H	0.938756	-0.049200	-0.332601
H623	H	1.188756	0.200800	-0.082601
H624	H	1.438756	0.450800	0.167399
O625	O	0.708900	-0.276294	-0.946587
O626	O	0.958900	-0.026294	-0.696587
O627	O	1.208900	0.223706	-0.446587
O628	O	1.458900	0.473706	-0.196587
H629	H	0.731768	-0.256200	-0.921720
H630	H	0.981768	-0.006200	-0.671720
H631	H	1.231768	0.243800	-0.421720
H632	H	1.481768	0.493800	-0.171720
H633	H	-0.094225	-0.164654	-0.312694
H634	H	0.155775	0.085346	-0.062694
H635	H	0.405775	0.335346	0.187306
H636	H	0.655775	0.585346	0.437306
O637	O	0.589560	-0.156782	-1.060076
O638	O	0.839560	0.093218	-0.810076
O639	O	1.089560	0.343218	-0.560076
O640	O	1.339560	0.593218	-0.310076
H641	H	0.594387	-0.161608	-1.102631
H642	H	0.844387	0.088392	-0.852631
H643	H	1.094387	0.338392	-0.602631
H644	H	1.344387	0.588392	-0.352631
H645	H	0.730002	-0.297476	-0.801673
H646	H	0.980002	-0.047476	-0.551673
H647	H	1.230002	0.202524	-0.301673
H648	H	1.480002	0.452524	-0.051673
H649	H	-0.179333	-0.164666	-0.312686
H650	H	0.070667	0.085334	-0.062686
H651	H	0.320667	0.335334	0.187314
H652	H	0.570667	0.585334	0.437314
H653	H	0.177160	-0.297413	-0.157642
H654	H	0.427160	-0.047413	0.092358
H655	H	0.677160	0.202587	0.342358
H656	H	0.927160	0.452587	0.592358
O657	O	0.708847	-0.381467	-0.182435
O658	O	0.958847	-0.131467	0.067565
O659	O	1.208847	0.118533	0.317565
O660	O	1.458847	0.368533	0.567565
H661	H	0.704006	-0.344901	-0.188038
H662	H	0.954006	-0.094901	0.061962
H663	H	1.204006	0.155099	0.311962
H664	H	1.454006	0.405099	0.561962
H665	H	0.262371	-0.135902	-0.346172
H666	H	0.512371	0.114098	-0.096172
H667	H	0.762371	0.364098	0.153828
H668	H	1.012371	0.614098	0.403828
H669	H	0.036507	-0.135938	-0.346184
H670	H	0.286507	0.114062	-0.096184
H671	H	0.536507	0.364062	0.153816
H672	H	0.786507	0.614062	0.403816
O673	O	0.709059	-1.051387	-0.182518
O674	O	0.959059	-0.801387	0.067482
O675	O	1.209059	-0.551387	0.317482
O676	O	1.459059	-0.301387	0.567482
H677	H	0.688975	-1.072795	-0.155900
H678	H	0.938975	-0.822795	0.094100
H679	H	1.188975	-0.572795	0.344100
H680	H	1.438975	-0.322795	0.594100
H681	H	0.036401	-0.297451	-0.157656
H682	H	0.286401	-0.047451	0.092344
H683	H	0.536401	0.202549	0.342344
H684	H	0.786401	0.452549	0.592344
H685	H	0.701282	-0.472778	-0.191274
H686	H	0.951282	-0.222778	0.058726
H687	H	1.201282	0.027222	0.308726
H688	H	1.451282	0.277222	0.558726
H689	H	0.393062	-0.164557	-0.312664
H690	H	0.643062	0.085443	-0.062664
H691	H	0.893062	0.335443	0.187336
H692	H	1.143062	0.585443	0.437336
H693	H	0.568417	-0.135697	-0.702628
H694	H	0.818417	0.114303	-0.452628
H695	H	1.068417	0.364303	-0.202628
H696	H	1.318417	0.614303	0.047372
O697	O	0.589535	-0.156880	-0.444231
O698	O	0.839535	0.093120	-0.194231
O699	O	1.089535	0.343120	0.055769
O700	O	1.339535	0.593120	0.305769
H701	H	0.569573	-0.136892	-0.472391
H702	H	0.819573	0.113108	-0.222391
H703	H	1.069573	0.363108	0.027609
H704	H	1.319573	0.613108	0.277609
H705	H	0.730096	-0.688593	-0.157894
H706	H	0.980096	-0.438593	0.092106
H707	H	1.230096	-0.188593	0.342106
H708	H	1.480096	0.061407	0.592106
H709	H	0.730066	-0.603487	-0.157882
H710	H	0.980066	-0.353487	0.092118
H711	H	1.230066	-0.103487	0.342118
H712	H	1.480066	0.146513	0.592118
H713	H	0.568336	-0.829366	-0.345943
H714	H	0.818336	-0.579366	-0.095943
H715	H	1.068336	-0.329366	0.154057
H716	H	1.318336	-0.079366	0.404057
O717	O	0.484384	-0.156960	-0.321515
O718	O	0.734384	0.093040	-0.071515
O719	O	0.984384	0.343040	0.178485
O720	O	1.234384	0.593040	0.428485
H721	H	0.505763	-0.177098	-0.348071
H722	H	0.755763	0.072902	-0.098071
H723	H	1.005763	0.322902	0.151929
H724	H	1.255763	0.572902	0.401929
O725	O	0.484312	-0.276237	-0.182254
O726	O	0.734312	-0.026237	0.067746
O727	O	0.984312	0.223763	0.317746
O728	O	1.234312	0.473763	0.567746
H729	H	0.460101	-0.296194	-0.158969
H730	H	0.710101	-0.046194	0.091031
H731	H	0.960101	0.203806	0.341031
H732	H	1.210101	0.453806	0.591031
H733	H	0.393004	-0.268680	-0.191117
H734	H	0.643004	-0.018680	0.058883
H735	H	0.893004	0.231320	0.308883
H736	H	1.143004	0.481320	0.558883
H737	H	0.597136	-1.045192	-0.312552
H738	H	0.847136	-0.795192	-0.062552
H739	H	1.097136	-0.545192	0.187448
H740	H	1.347136	-0.295192	0.437448
O741	O	0.737713	-0.738030	-0.149076
O742	O	0.987713	-0.488030	0.100924
O743	O	1.237713	-0.238030	0.350924
O744	O	1.487713	0.011970	0.600924
H745	H	0.757710	-0.762227	-0.125857
H746	H	1.007710	-0.512227	0.124143
H747	H	1.257710	-0.262227	0.374143
H748	H	1.507710	-0.012227	0.624143
H749	H	0.121510	-0.297433	-0.157645
H750	H	0.371510	-0.047433	0.092355
H751	H	0.621510	0.202567	0.342355
H752	H	0.871510	0.452567	0.592355
O753	O	0.560701	-0.694815	-0.354772
O754	O	0.810701	-0.444815	-0.104772
O755	O	1.060701	-0.194815	0.145228
O756	O	1.310701	0.055185	0.395228
H757	H	0.540712	-0.670617	-0.378000
H758	H	0.790712	-0.420617	-0.128000
H759	H	1.040712	-0.170617	0.122000
H760	H	1.290712	0.079383	0.372000
H761	H	-0.179400	-0.268781	-0.191142
H762	H	0.070600	-0.018781	0.058858
H763	H	0.320600	0.231219	0.308858
H764	H	0.570600	0.481219	0.558858
O765	O	-0.088074	-0.276349	-0.182285
O766	O	0.161926	-0.026349	0.067715
O767	O	0.411926	0.223651	0.317715
O768	O	0.661926	0.473651	0.567715
H769	H	-0.097083	-0.311620	-0.191182
H770	H	0.152917	-0.061620	0.058818
H771	H	0.402917	0.188380	0.308818
H772	H	0.652917	0.438380	0.558818
O773	O	0.171054	-0.128333	-0.355034
O774	O	0.421054	0.121667	-0.105034
O775	O	0.671054	0.371667	0.144966
O776	O	0.921054	0.621667	0.394966
H777	H	0.195267	-0.108383	-0.378325
H778	H	0.445267	0.141617	-0.128325
H779	H	0.695267	0.391617	0.121675
H780	H	0.945267	0.641617	0.371675
H781	H	0.701426	-0.960064	-0.191323
H782	H	0.951426	-0.710064	0.058677
H783	H	1.201426	-0.460064	0.308677
H784	H	1.451426	-0.210064	0.558677
O785	O	0.589505	-0.953881	-0.321368
O786	O	0.839505	-0.703881	-0.071368
O787	O	1.089505	-0.453881	0.178632
O788	O	1.339505	-0.203881	0.428632
H789	H	0.569519	-0.978084	-0.344588
H790	H	0.819519	-0.728084	-0.094588
H791	H	1.069519	-0.478084	0.155412
H792	H	1.319519	-0.228084	0.405412
H793	H	0.568272	-0.603502	-0.345930
H794	H	0.818272	-0.353502	-0.095930
H795	H	1.068272	-0.103502	0.154070
H796	H	1.318272	0.146498	0.404070
H797	H	0.596964	-0.472804	-0.312498
H798	H	0.846964	-0.222804	-0.062498
H799	H	1.096964	0.027196	0.187502
H800	H	1.346964	0.277196	0.437502
