data_functionalizedCrystal
_audit_creation_method	'MofGen! by Chris Wilmer'
_symmetry_space_group_name_H-M	'P1'
_symmetry_Int_Tables_number	1
_symmetry_cell_setting	triclinic
loop_
_symmetry_equiv_pos_as_xyz
  x,y,z
_cell_length_a	11.792254
_cell_length_b	10.723024
_cell_length_c	9.198806
_cell_angle_alpha	90.003648
_cell_angle_beta	89.996642
_cell_angle_gamma	95.666766
loop_
_atom_site_label
_atom_site_type_symbol
_atom_site_fract_x
_atom_site_fract_y
_atom_site_fract_z
O1	O	0.159191	-1.656774	-0.120884
O2	O	0.174429	-1.293583	-0.120889
O3	O	0.001660	-1.483984	-0.120876
O4	O	0.331960	-1.466373	-0.120897
O5	O	0.001659	-1.483969	0.120909
O6	O	0.174429	-1.293567	0.120896
O7	O	0.159191	-1.656759	0.120901
Cu8	Cu	0.166810	-1.475162	0.142976
Cu9	Cu	0.166810	-1.475180	-0.142963
O10	O	0.331960	-1.466358	0.120888
C11	C	0.173320	-1.247078	0.000003
C12	C	0.170002	-1.108533	0.000001
C13	C	-0.040634	-1.482867	0.000016
C14	C	-0.166654	-1.479546	0.000015
C15	C	0.160300	-1.703264	0.000006
C16	C	0.163618	-1.841809	-0.000002
C17	C	-0.268996	-1.476849	0.000010
C18	C	-0.397390	-1.473475	-0.000004
C19	C	0.374253	-1.467475	-0.000007
C20	C	0.500274	-1.470795	-0.000015
N21	N	0.166809	-1.475158	0.344090
C22	C	0.266675	-1.033299	-0.000006
C23	C	0.263248	-0.890105	-0.000007
N24	N	0.166802	-1.475193	-0.344077
C25	C	0.093948	-1.555103	0.416292
C26	C	0.093944	-1.555123	0.583704
H27	H	0.351977	-1.074900	-0.000003
H28	H	0.229189	-1.406750	0.593841
H29	H	0.346007	-0.825457	-0.000019
H30	H	0.031569	-1.623572	0.645795
O31	O	0.249455	-1.384517	0.426350
H32	H	0.201303	-1.323441	0.495727
O33	O	0.053981	-0.927425	0.000021
H34	H	0.050527	-0.987424	-0.098517
O35	O	0.057006	-1.053437	0.000020
H36	H	-0.013289	-1.130329	0.000039
O37	O	0.011284	-1.645718	0.334022
H38	H	0.024247	-1.631469	0.215440
