data_functionalizedCrystal
_audit_creation_method	'MofGen! by Chris Wilmer'
_symmetry_space_group_name_H-M	'P1'
_symmetry_Int_Tables_number	1
_symmetry_cell_setting	triclinic
loop_
_symmetry_equiv_pos_as_xyz
  x,y,z
_cell_length_a	16.959455
_cell_length_b	21.295417
_cell_length_c	16.959447
_cell_angle_alpha	89.966081
_cell_angle_beta	89.982031
_cell_angle_gamma	90.027454
loop_
_atom_site_label
_atom_site_type_symbol
_atom_site_fract_x
_atom_site_fract_y
_atom_site_fract_z
Zn1	Zn	1.208355	-0.250656	-0.446882
Zn2	Zn	1.208245	-0.355930	-0.314692
Zn3	Zn	1.076175	-0.250673	-0.314719
Zn4	Zn	1.076124	-0.355886	-0.446831
O5	O	1.142225	-0.303286	-0.380781
O6	O	1.318951	-0.264632	-0.429357
O7	O	1.190701	-0.341994	-0.204085
O8	O	1.093776	-0.162582	-0.332284
O9	O	1.318870	-0.341977	-0.332237
O10	O	1.190888	-0.162569	-0.429383
O11	O	1.093670	-0.264662	-0.204105
O12	O	0.965557	-0.264619	-0.332234
O13	O	1.093689	-0.341901	-0.557448
O14	O	0.965520	-0.341918	-0.429296
O15	O	1.190839	-0.264589	-0.557486
O16	O	1.190651	-0.444014	-0.332188
O17	O	1.093583	-0.443981	-0.429269
C18	C	0.936858	-0.303266	-0.380763
C19	C	0.849002	-0.303272	-0.380774
C20	C	1.142121	-0.466838	-0.380737
C21	C	1.142149	-0.536806	-0.380745
C22	C	0.477521	-0.263004	-0.330347
C23	C	0.477531	-0.343621	-0.431261
C24	C	0.560077	-0.343612	-0.431256
C25	C	0.601349	-0.303299	-0.380795
C26	C	0.560075	-0.262995	-0.330339
C27	C	0.601357	-0.383919	-0.481705
C28	C	0.683908	-0.383912	-0.481702
C29	C	0.725181	-0.343596	-0.431244
C30	C	0.683902	-0.303290	-0.380787
C31	C	0.725174	-0.262977	-0.330326
C32	C	0.683897	-0.222667	-0.279871
C33	C	0.601348	-0.222678	-0.279881
C34	C	0.807730	-0.343585	-0.431235
C35	C	0.807728	-0.262968	-0.330318
C36	C	1.192738	-0.569669	-0.330246
C37	C	1.192775	-0.635411	-0.330264
C38	C	1.142209	-0.668289	-0.380772
C39	C	1.091617	-0.635418	-0.431281
C40	C	1.091587	-0.569677	-0.431267
N41	N	1.073063	-0.771551	-0.386792
N42	N	1.073093	-0.834003	-0.386800
C43	C	1.142298	-0.866363	-0.380818
N44	N	1.211471	-0.833913	-0.374811
N45	N	1.211440	-0.771456	-0.374798
C46	C	1.142236	-0.739574	-0.380793
C47	C	1.192931	-0.970512	-0.330335
C48	C	1.192969	-1.036255	-0.330359
C49	C	1.091804	-1.036260	-0.431371
C50	C	1.091773	-0.970518	-0.431352
C51	C	1.142335	-0.937648	-0.380830
C52	C	1.348393	-0.303308	-0.380800
C53	C	1.436249	-0.303317	-0.380808
C54	C	1.142271	-0.303238	-0.586949
C55	C	1.142290	-0.303217	-0.674806
C56	C	1.142350	-0.139096	-0.380842
C57	C	1.142404	-0.069128	-0.380868
C58	C	1.192820	-0.343470	-0.716071
C59	C	1.091774	-0.262949	-0.716094
C60	C	1.091788	-0.262930	-0.798640
C61	C	1.142317	-0.303183	-0.839906
C62	C	1.192834	-0.343454	-0.798625
C63	C	1.041267	-0.222664	-0.839927
C64	C	1.041278	-0.222645	-0.922478
C65	C	1.091812	-0.262895	-0.963745
C66	C	1.142331	-0.303167	-0.922459
C67	C	1.192861	-0.343420	-0.963724
C68	C	1.243384	-0.383689	-0.922440
C69	C	1.243368	-0.383704	-0.839891
C70	C	1.091828	-0.262880	-1.046293
C71	C	1.192874	-0.343404	-1.046278
C72	C	1.142224	-0.303289	-0.175415
C73	C	1.142358	-0.303133	-0.087559
H74	H	0.841326	-0.230136	-0.289230
Cl75	Cl	0.425632	-0.212328	-0.266926
H76	H	0.567733	-0.189861	-0.238803
Cl77	Cl	1.256337	-0.394088	-0.664174
Cl78	Cl	0.735792	-0.434584	-0.545131
H79	H	1.284523	-0.416465	-0.956049
Cl80	Cl	0.735791	-0.171994	-0.216433
H81	H	1.000139	-0.189855	-0.956085
Cl82	Cl	1.256405	-0.394007	-1.098147
Cl83	Cl	1.256492	-0.929186	-0.266823
H84	H	0.567748	-0.416744	-0.522782
H85	H	1.284500	-0.416490	-0.806270
Cl86	Cl	1.028271	-0.212335	-0.664217
H87	H	1.000123	-0.189897	-0.806323
H88	H	1.234169	-1.063011	-0.289238
H89	H	1.050636	-1.063028	-0.472499
H90	H	1.050692	-0.230094	-1.079903
H91	H	1.233910	-0.542908	-0.289110
Cl92	Cl	1.027984	-0.528361	-0.494756
Cl93	Cl	1.028168	-0.929202	-0.494836
Cl94	Cl	0.425646	-0.394310	-0.494677
Cl95	Cl	1.256375	-0.676733	-0.266774
Cl96	Cl	0.859618	-0.394259	-0.494653
H97	H	1.050447	-0.662191	-0.472406
