data_functionalizedCrystal
_audit_creation_method	'MofGen! by Chris Wilmer'
_symmetry_space_group_name_H-M	'P1'
_symmetry_Int_Tables_number	1
_symmetry_cell_setting	triclinic
loop_
_symmetry_equiv_pos_as_xyz
  x,y,z
_cell_length_a	11.169417
_cell_length_b	16.625545
_cell_length_c	11.169409
_cell_angle_alpha	90.036134
_cell_angle_beta	90.019513
_cell_angle_gamma	90.026807
loop_
_atom_site_label
_atom_site_type_symbol
_atom_site_fract_x
_atom_site_fract_y
_atom_site_fract_z
Zn1	Zn	1.834835	-0.320909	0.678501
Zn2	Zn	2.334835	0.179091	1.178501
Zn3	Zn	1.834671	-0.455771	0.477805
Zn4	Zn	2.334671	0.044229	0.977805
Zn5	Zn	1.634121	-0.320959	0.477837
Zn6	Zn	2.134121	0.179041	0.977837
Zn7	Zn	1.634076	-0.455707	0.678451
Zn8	Zn	2.134076	0.044293	1.178451
O9	O	1.734426	-0.388337	0.578148
O10	O	2.234426	0.111663	1.078148
O11	O	2.002763	-0.338805	0.651886
O12	O	2.502763	0.161195	1.151886
O13	O	1.808019	-0.437936	0.309859
O14	O	2.308019	0.062064	0.809859
O15	O	1.660834	-0.208120	0.504490
O16	O	2.160834	0.291880	1.004490
O17	O	2.002643	-0.437888	0.504435
O18	O	2.502643	0.062112	1.004435
O19	O	1.808298	-0.208084	0.651917
O20	O	2.308298	0.291916	1.151917
O21	O	1.660675	-0.338891	0.309882
O22	O	2.160675	0.161109	0.809882
O23	O	1.466166	-0.338828	0.504441
O24	O	1.966166	0.161172	1.004441
O25	O	1.660756	-0.437778	0.846407
O26	O	2.160756	0.062222	1.346407
O27	O	1.466132	-0.437826	0.651831
O28	O	1.966132	0.062174	1.151831
O29	O	1.808254	-0.338743	0.846444
O30	O	2.308254	0.161257	1.346444
O31	O	1.807974	-0.568595	0.504386
O32	O	2.307974	-0.068595	1.004386
O33	O	1.660597	-0.568548	0.651800
O34	O	2.160597	-0.068548	1.151800
C35	C	1.422601	-0.388326	0.578135
C36	C	1.922601	0.111674	1.078135
C37	C	1.289201	-0.388341	0.578157
C38	C	1.789201	0.111659	1.078157
C39	C	1.734296	-0.597828	0.578110
C40	C	2.234296	-0.097828	1.078110
C41	C	1.734350	-0.687449	0.578134
C42	C	2.234350	-0.187449	1.078134
C43	C	1.734396	-0.760231	0.578158
C44	C	2.234396	-0.260231	1.078158
C45	C	1.734466	-0.851540	0.578185
C46	C	2.234466	-0.351540	1.078185
C47	C	1.734528	-0.924316	0.578200
C48	C	2.234528	-0.424316	1.078200
C49	C	1.734597	-1.015630	0.578225
C50	C	2.234597	-0.515630	1.078225
C51	C	2.047468	-0.388348	0.578163
C52	C	2.547468	0.111652	1.078163
C53	C	2.180868	-0.388353	0.578169
C54	C	2.680868	0.111647	1.078169
C55	C	1.734518	-0.388247	0.891191
C56	C	2.234518	0.111753	1.391191
C57	C	1.734557	-0.388209	1.024591
C58	C	2.234557	0.111791	1.524591
C59	C	1.734590	-0.178028	0.578212
C60	C	2.234590	0.321972	1.078212
C61	C	1.734659	-0.088407	0.578240
C62	C	2.234659	0.411593	1.078240
C63	C	1.734403	-0.388368	0.266323
C64	C	2.234403	0.111632	0.766323
C65	C	1.734596	-0.388179	0.132924
C66	C	2.234596	0.111821	0.632924
