data_functionalizedCrystal
_audit_creation_method	'MofGen! by Chris Wilmer'
_symmetry_space_group_name_H-M	'P1'
_symmetry_Int_Tables_number	1
_symmetry_cell_setting	triclinic
loop_
_symmetry_equiv_pos_as_xyz
  x,y,z
_cell_length_a	19.121102
_cell_length_b	19.121449
_cell_length_c	18.215399
_cell_angle_alpha	92.467880
_cell_angle_beta	92.458396
_cell_angle_gamma	85.039789
loop_
_atom_site_label
_atom_site_type_symbol
_atom_site_fract_x
_atom_site_fract_y
_atom_site_fract_z
Zn1	Zn	1.087630	-0.326089	0.450102
Zn2	Zn	1.337630	-0.076089	0.700102
Zn3	Zn	1.587630	0.173911	0.950102
Zn4	Zn	1.837630	0.423911	1.200102
Zn5	Zn	1.092558	-0.443752	0.321999
Zn6	Zn	1.342558	-0.193752	0.571999
Zn7	Zn	1.592558	0.056248	0.821999
Zn8	Zn	1.842558	0.306248	1.071999
Zn9	Zn	0.969965	-0.321083	0.322020
Zn10	Zn	1.219965	-0.071083	0.572020
Zn11	Zn	1.469965	0.178917	0.822020
Zn12	Zn	1.719965	0.428917	1.072020
Zn13	Zn	0.974946	-0.438687	0.440000
Zn14	Zn	1.224946	-0.188687	0.690000
Zn15	Zn	1.474946	0.061313	0.940000
Zn16	Zn	1.724946	0.311313	1.190000
O17	O	1.031275	-0.382403	0.383530
O18	O	1.281275	-0.132403	0.633530
O19	O	1.531275	0.117597	0.883530
O20	O	1.781275	0.367597	1.133530
O21	O	1.186747	-0.345912	0.437328
O22	O	1.436747	-0.095912	0.687328
O23	O	1.686747	0.154088	0.937328
O24	O	1.936747	0.404088	1.187328
O25	O	1.076274	-0.427505	0.219016
O26	O	1.326274	-0.177505	0.469016
O27	O	1.576274	0.072495	0.719016
O28	O	1.826274	0.322495	0.969016
O29	O	0.981426	-0.223287	0.343247
O30	O	1.231426	0.026713	0.593247
O31	O	1.481426	0.276713	0.843247
O32	O	1.731426	0.526713	1.093247
O33	O	1.190369	-0.432359	0.343211
O34	O	1.440369	-0.182359	0.593211
O35	O	1.690369	0.067641	0.843211
O36	O	1.940369	0.317641	1.093211
O37	O	1.067874	-0.226965	0.437348
O38	O	1.317874	0.023035	0.687348
O39	O	1.567874	0.273035	0.937348
O40	O	1.817874	0.523035	1.187348
O41	O	0.986205	-0.337381	0.219031
O42	O	1.236205	-0.087381	0.469031
O43	O	1.486205	0.162619	0.719031
O44	O	1.736205	0.412619	0.969031
O45	O	0.872162	-0.332469	0.333452
O46	O	1.122162	-0.082469	0.583452
O47	O	1.372162	0.167531	0.833452
O48	O	1.622162	0.417531	1.083452
O49	O	0.989916	-0.423726	0.544327
O50	O	1.239916	-0.173726	0.794327
O51	O	1.489916	0.076274	1.044327
O52	O	1.739916	0.326274	1.294327
O53	O	0.875821	-0.418872	0.420131
O54	O	1.125821	-0.168872	0.670131
O55	O	1.375821	0.081128	0.920131
O56	O	1.625821	0.331128	1.170131
O57	O	1.072704	-0.341000	0.551748
O58	O	1.322704	-0.091000	0.801748
O59	O	1.572704	0.159000	1.051748
O60	O	1.822704	0.409000	1.301748
O61	O	1.081104	-0.541541	0.333416
O62	O	1.331104	-0.291541	0.583416
O63	O	1.581104	-0.041541	0.833416
O64	O	1.831104	0.208459	1.083416
O65	O	0.994695	-0.537819	0.420110
O66	O	1.244695	-0.287819	0.670110
O67	O	1.494695	-0.037819	0.920110
O68	O	1.744695	0.212181	1.170110
C69	C	0.848461	-0.374578	0.375698
C70	C	1.098461	-0.124578	0.625698
C71	C	1.348461	0.125422	0.875698
C72	C	1.598461	0.375422	1.125698
C73	C	0.770253	-0.371248	0.372364
C74	C	1.020253	-0.121248	0.622364
C75	C	1.270253	0.128752	0.872364
C76	C	1.520253	0.378752	1.122364
C77	C	0.735437	-0.414736	0.415850
C78	C	0.985437	-0.164736	0.665850
C79	C	1.235437	0.085264	0.915850
C80	C	1.485437	0.335264	1.165850
C81	C	0.661952	-0.411598	0.412721
C82	C	0.911952	-0.161598	0.662721
C83	C	1.161952	0.088402	0.912721
C84	C	1.411952	0.338402	1.162721
C85	C	0.623284	-0.364973	0.366101
C86	C	0.873284	-0.114973	0.616101
C87	C	1.123284	0.135027	0.866101
C88	C	1.373284	0.385027	1.116101
C89	C	0.658105	-0.321480	0.322614
C90	C	0.908105	-0.071480	0.572614
C91	C	1.158105	0.178520	0.822614
C92	C	1.408105	0.428520	1.072614
C93	C	0.731589	-0.324616	0.325747
C94	C	0.981589	-0.074616	0.575747
C95	C	1.231589	0.175384	0.825747
C96	C	1.481589	0.425384	1.075747
C97	C	0.401315	-0.353249	0.354391
C98	C	0.651315	-0.103249	0.604391
C99	C	0.901315	0.146751	0.854391
C100	C	1.151315	0.396751	1.104391
C101	C	0.327827	-0.350118	0.351259
C102	C	0.577827	-0.100118	0.601259
C103	C	0.827827	0.149882	0.851259
C104	C	1.077827	0.399882	1.101259
C105	C	0.331679	-0.440235	0.441368
C106	C	0.581679	-0.190235	0.691368
C107	C	0.831679	0.059765	0.941368
C108	C	1.081679	0.309765	1.191368
C109	C	0.405164	-0.443369	0.444493
C110	C	0.655164	-0.193369	0.694493
C111	C	0.905164	0.056631	0.944493
C112	C	1.155164	0.306631	1.194493
C113	C	0.439978	-0.399873	0.401009
C114	C	0.689978	-0.149873	0.651009
C115	C	0.939978	0.100127	0.901009
C116	C	1.189978	0.350127	1.151009
C117	C	0.548171	-0.361766	0.362900
C118	C	0.798171	-0.111766	0.612900
C119	C	1.048171	0.138234	0.862900
C120	C	1.298171	0.388234	1.112900
C121	C	0.515090	-0.403078	0.404214
C122	C	0.765090	-0.153078	0.654214
C123	C	1.015090	0.096922	0.904214
C124	C	1.265090	0.346922	1.154214
C125	C	1.038994	-0.565210	0.375682
C126	C	1.288994	-0.315210	0.625682
C127	C	1.538994	-0.065210	0.875682
C128	C	1.788994	0.184790	1.125682
C129	C	1.042361	-0.643419	0.372351
C130	C	1.292361	-0.393419	0.622351
C131	C	1.542361	-0.143419	0.872351
C132	C	1.792361	0.106581	1.122351
C133	C	0.998923	-0.678248	0.415883
C134	C	1.248923	-0.428248	0.665883
C135	C	1.498923	-0.178248	0.915883
C136	C	1.748923	0.071752	1.165883
C137	C	1.002089	-0.751733	0.412751
C138	C	1.252089	-0.501733	0.662751
C139	C	1.502089	-0.251733	0.912751
C140	C	1.752089	-0.001733	1.162751
C141	C	1.048698	-0.790388	0.366090
C142	C	1.298698	-0.540388	0.616090
C143	C	1.548698	-0.290388	0.866090
C144	C	1.798698	-0.040388	1.116090
C145	C	1.092137	-0.755554	0.322553
C146	C	1.342137	-0.505554	0.572553
C147	C	1.592137	-0.255554	0.822553
C148	C	1.842137	-0.005554	1.072553
C149	C	1.088967	-0.682070	0.325682
C150	C	1.338967	-0.432070	0.575682
C151	C	1.588967	-0.182070	0.825682
C152	C	1.838967	0.067930	1.075682
C153	C	1.060519	-1.012359	0.354384
C154	C	1.310519	-0.762359	0.604384
C155	C	1.560519	-0.512359	0.854384
C156	C	1.810519	-0.262359	1.104384
C157	C	1.063688	-1.085848	0.351260
C158	C	1.313688	-0.835848	0.601260
C159	C	1.563688	-0.585848	0.851260
C160	C	1.813688	-0.335848	1.101260
C161	C	0.973639	-1.082022	0.441457
C162	C	1.223639	-0.832022	0.691457
C163	C	1.473639	-0.582022	0.941457
C164	C	1.723639	-0.332022	1.191457
C165	C	0.970476	-1.008537	0.444585
C166	C	1.220476	-0.758537	0.694585
C167	C	1.470476	-0.508537	0.944585
C168	C	1.720476	-0.258537	1.194585
C169	C	1.013913	-0.973709	0.401045
C170	C	1.263913	-0.723709	0.651045
C171	C	1.513913	-0.473709	0.901045
C172	C	1.763913	-0.223709	1.151045
C173	C	1.051937	-0.865502	0.362889
C174	C	1.301937	-0.615502	0.612889
C175	C	1.551937	-0.365502	0.862889
C176	C	1.801937	-0.115502	1.112889
C177	C	1.010669	-0.898596	0.404243
C178	C	1.260669	-0.648596	0.654243
C179	C	1.510669	-0.398596	0.904243
C180	C	1.760669	-0.148596	1.154243
C181	C	1.214803	-0.390259	0.391394
C182	C	1.464803	-0.140259	0.641394
C183	C	1.714803	0.109741	0.891394
C184	C	1.964803	0.359741	1.141394
C185	C	1.293011	-0.393607	0.394745
C186	C	1.543011	-0.143607	0.644745
C187	C	1.793011	0.106393	0.894745
C188	C	2.043011	0.356393	1.144745
C189	C	1.031316	-0.382356	0.575487
C190	C	1.281316	-0.132356	0.825487
C191	C	1.531316	0.117644	1.075487
C192	C	1.781316	0.367644	1.325487
C193	C	1.031333	-0.382336	0.657288
C194	C	1.281333	-0.132336	0.907288
C195	C	1.531333	0.117664	1.157288
C196	C	1.781333	0.367664	1.407288
C197	C	1.023545	-0.198883	0.391427
C198	C	1.273545	0.051117	0.641427
C199	C	1.523545	0.301117	0.891427
C200	C	1.773545	0.551117	1.141427
C201	C	1.020250	-0.120677	0.394792
C202	C	1.270250	0.129323	0.644792
C203	C	1.520250	0.379323	0.894792
C204	C	1.770250	0.629323	1.144792
C205	C	1.031272	-0.382400	0.192324
C206	C	1.281272	-0.132400	0.442324
C207	C	1.531272	0.117600	0.692324
C208	C	1.781272	0.367600	0.942324
C209	C	1.031383	-0.382228	0.110538
C210	C	1.281383	-0.132228	0.360538
C211	C	1.531383	0.117772	0.610538
C212	C	1.781383	0.367772	0.860538
C213	C	1.074455	-0.339220	0.849350
C214	C	1.324455	-0.089220	1.099350
C215	C	1.574455	0.160780	1.349350
C216	C	1.824455	0.410780	1.599350
C217	C	1.074463	-0.339200	0.926210
C218	C	1.324463	-0.089200	1.176210
C219	C	1.574463	0.160800	1.426210
C220	C	1.824463	0.410800	1.676210
C221	C	0.988256	-0.425346	0.918470
C222	C	1.238256	-0.175346	1.168470
C223	C	1.488256	0.074654	1.418470
C224	C	1.738256	0.324654	1.668470
C225	C	0.988245	-0.425362	0.841612
C226	C	1.238245	-0.175362	1.091612
C227	C	1.488245	0.074638	1.341612
C228	C	1.738245	0.324638	1.591612
C229	C	1.031349	-0.382300	0.807054
C230	C	1.281349	-0.132300	1.057054
C231	C	1.531349	0.117700	1.307054
C232	C	1.781349	0.367700	1.557054
C233	C	1.031367	-0.382264	0.960772
C234	C	1.281367	-0.132264	1.210772
C235	C	1.531367	0.117736	1.460772
C236	C	1.781367	0.367736	1.710772
C237	C	1.031375	-0.382243	1.044107
C238	C	1.281375	-0.132243	1.294107
C239	C	1.531375	0.117757	1.544107
C240	C	1.781375	0.367757	1.794107
C241	C	1.031340	-0.382321	0.723714
C242	C	1.281340	-0.132321	0.973714
C243	C	1.531340	0.117679	1.223714
C244	C	1.781340	0.367679	1.473714
H245	H	0.303326	-0.475646	0.476771
H246	H	0.553326	-0.225646	0.726771
H247	H	0.803326	0.024354	0.976771
H248	H	1.053326	0.274354	1.226771
F249	F	1.120328	-0.293388	0.812574
F250	F	1.370328	-0.043388	1.062574
F251	F	1.620328	0.206612	1.312574
F252	F	1.870328	0.456612	1.562574
F253	F	0.920871	-0.967403	0.494251
F254	F	1.170871	-0.717403	0.744251
F255	F	1.420871	-0.467403	0.994251
F256	F	1.670871	-0.217403	1.244251
F257	F	0.942360	-0.471213	0.796594
F258	F	1.192360	-0.221213	1.046594
F259	F	1.442360	0.028787	1.296594
F260	F	1.692360	0.278787	1.546594
H261	H	0.766916	-0.452705	0.453809
H262	H	1.016916	-0.202705	0.703809
H263	H	1.266916	0.047295	0.953809
H264	H	1.516916	0.297295	1.203809
H265	H	0.953164	-0.460407	0.946617
H266	H	1.203164	-0.210407	1.196617
H267	H	1.453164	0.039593	1.446617
H268	H	1.703164	0.289593	1.696617
H269	H	0.633609	-0.447011	0.448131
H270	H	0.883609	-0.197011	0.698131
H271	H	1.133609	0.052989	0.948131
H272	H	1.383609	0.302989	1.198131
H273	H	1.109563	-0.304118	0.960645
H274	H	1.359563	-0.054118	1.210645
H275	H	1.609563	0.195882	1.460645
H276	H	1.859563	0.445882	1.710645
F277	F	1.106758	-0.975302	0.308054
F278	F	1.356758	-0.725302	0.558054
F279	F	1.606758	-0.475302	0.808054
F280	F	1.856758	-0.225302	1.058054
F281	F	1.135196	-0.645003	0.279345
F282	F	1.385196	-0.395003	0.529345
F283	F	1.635196	-0.145003	0.779345
F284	F	1.885196	0.104997	1.029345
F285	F	0.446312	-0.492995	0.494110
F286	F	0.696312	-0.242995	0.744110
F287	F	0.946312	0.007005	0.994110
F288	F	1.196312	0.257005	1.244110
H289	H	0.429652	-0.317837	0.318977
H290	H	0.679652	-0.067837	0.568977
H291	H	0.929652	0.182163	0.818977
H292	H	1.179652	0.432163	1.068977
F293	F	0.616950	-0.271855	0.273003
F294	F	0.866950	-0.021855	0.523003
F295	F	1.116950	0.228145	0.773003
F296	F	1.366950	0.478145	1.023003
F297	F	0.286675	-0.300496	0.301634
F298	F	0.536675	-0.050496	0.551634
F299	F	0.786675	0.199504	0.801634
F300	F	1.036675	0.449504	1.051634
F301	F	0.768641	-0.278328	0.279465
F302	F	1.018641	-0.028328	0.529465
F303	F	1.268641	0.221672	0.779465
F304	F	1.518641	0.471672	1.029465
H305	H	0.546576	-0.441036	0.442174
H306	H	0.796576	-0.191036	0.692174
H307	H	1.046576	0.058964	0.942174
H308	H	1.296576	0.308964	1.192174
F309	F	1.113297	-1.126986	0.301594
F310	F	1.363297	-0.876986	0.551594
F311	F	1.613297	-0.626986	0.801594
F312	F	1.863297	-0.376986	1.051594
F313	F	0.927413	-1.119094	0.487791
F314	F	1.177413	-0.869094	0.737791
F315	F	1.427413	-0.619094	0.987791
F316	F	1.677413	-0.369094	1.237791
H317	H	0.960973	-0.646780	0.453883
H318	H	1.210973	-0.396780	0.703883
H319	H	1.460973	-0.146780	0.953883
H320	H	1.710973	0.103220	1.203883
F321	F	0.955863	-0.788798	0.459091
F322	F	1.205863	-0.538798	0.709091
F323	F	1.455863	-0.288798	0.959091
F324	F	1.705863	-0.038798	1.209091
H325	H	1.130083	-0.787033	0.284557
H326	H	1.380083	-0.537033	0.534557
H327	H	1.630083	-0.287033	0.784557
H328	H	1.880083	-0.037033	1.034557
F329	F	0.507011	-0.312146	0.313286
F330	F	0.757011	-0.062146	0.563286
F331	F	1.007011	0.187854	0.813286
F332	F	1.257011	0.437854	1.063286
H333	H	1.089886	-0.896983	0.324898
H334	H	1.339886	-0.646983	0.574898
H335	H	1.589886	-0.396983	0.824898
H336	H	1.839886	-0.146983	1.074898
F337	F	0.961065	-0.857455	0.453899
F338	F	1.211065	-0.607455	0.703899
F339	F	1.461065	-0.357455	0.953899
F340	F	1.711065	-0.107455	1.203899
