data_functionalizedCrystal
_audit_creation_method	'MofGen! by Chris Wilmer'
_symmetry_space_group_name_H-M	'P1'
_symmetry_Int_Tables_number	1
_symmetry_cell_setting	triclinic
loop_
_symmetry_equiv_pos_as_xyz
  x,y,z
_cell_length_a	17.077404
_cell_length_b	13.897448
_cell_length_c	17.077396
_cell_angle_alpha	89.971798
_cell_angle_beta	89.982756
_cell_angle_gamma	90.017917
loop_
_atom_site_label
_atom_site_type_symbol
_atom_site_fract_x
_atom_site_fract_y
_atom_site_fract_z
Zn1	Zn	1.200065	-0.384001	-0.443849
Zn2	Zn	1.199990	-0.545316	-0.312585
Zn3	Zn	1.068802	-0.384037	-0.312597
Zn4	Zn	1.068777	-0.545257	-0.443809
O5	O	1.134409	-0.464653	-0.378210
O6	O	1.309902	-0.405410	-0.426448
O7	O	1.182566	-0.523962	-0.202740
O8	O	1.086257	-0.249051	-0.330029
O9	O	1.309847	-0.523927	-0.330010
O10	O	1.182695	-0.249024	-0.426459
O11	O	1.086184	-0.405471	-0.202748
O12	O	0.958952	-0.405414	-0.329990
O13	O	1.086214	-0.523826	-0.553661
O14	O	0.958934	-0.523861	-0.426391
O15	O	1.182671	-0.405352	-0.553690
O16	O	1.182542	-0.680290	-0.329971
O17	O	1.086140	-0.680246	-0.426380
C18	C	0.930461	-0.464635	-0.378188
C19	C	0.843211	-0.464651	-0.378198
C20	C	1.134351	-0.715267	-0.378187
C21	C	1.134399	-0.822481	-0.378204
C22	C	0.802232	-0.526419	-0.428313
C23	C	0.720251	-0.526422	-0.428326
C24	C	0.679252	-0.464659	-0.378218
C25	C	0.720237	-0.402884	-0.328100
C26	C	0.802216	-0.402878	-0.328092
C27	C	0.549367	-0.402903	-0.328119
C28	C	0.467382	-0.402910	-0.328126
C29	C	0.467402	-0.526447	-0.428353
C30	C	0.549381	-0.526441	-0.428345
C31	C	0.590361	-0.464666	-0.378226
C32	C	1.134481	-1.018776	-0.378253
C33	C	1.134433	-0.909544	-0.378228
C34	C	1.339153	-0.464671	-0.378232
C35	C	1.426403	-0.464679	-0.378242
C36	C	1.134448	-0.464578	-0.582954
C37	C	1.134465	-0.464546	-0.670204
C38	C	1.134488	-0.213060	-0.378250
C39	C	1.134521	-0.105846	-0.378267
C40	C	1.084294	-0.402841	-0.711198
C41	C	1.084307	-0.402819	-0.793179
C42	C	1.134495	-0.464498	-0.834164
C43	C	1.184668	-0.526211	-0.793164
C44	C	1.184651	-0.526237	-0.711185
C45	C	1.184702	-0.526150	-0.964034
C46	C	1.184721	-0.526123	-1.046019
C47	C	1.084358	-0.402732	-1.046028
C48	C	1.084341	-0.402758	-0.964049
C49	C	1.134515	-0.464470	-0.923055
C50	C	1.134415	-0.464658	-0.174262
C51	C	1.134550	-0.464418	-0.087013
H52	H	0.835608	-0.576717	-0.469114
H53	H	0.434033	-0.576743	-0.469164
H54	H	1.225589	-0.576348	-1.079387
C55	C	1.283868	-0.648182	-0.784915
C56	C	1.239837	-0.594012	-0.838212
H57	H	1.317925	-0.690043	-0.812726
H58	H	1.313899	-0.606170	-0.752951
H59	H	1.249639	-0.685084	-0.752930
H60	H	1.274066	-0.557105	-0.870193
H61	H	1.209804	-0.636030	-0.870189
H62	H	0.835580	-0.352575	-0.287287
C63	C	0.728506	-0.648556	-0.527370
C64	C	0.675207	-0.594335	-0.483402
H65	H	0.700696	-0.690491	-0.561367
H66	H	0.760496	-0.606581	-0.557462
H67	H	0.760464	-0.685382	-0.493098
H68	H	0.643252	-0.557504	-0.517674
H69	H	0.643204	-0.636316	-0.453308
H70	H	1.043476	-0.352529	-0.930681
H71	H	0.434002	-0.352607	-0.287334
H72	H	1.043505	-0.352484	-1.079409
H73	H	0.582761	-0.576738	-0.469142
C74	C	0.541116	-0.280810	-0.229032
C75	C	0.594413	-0.335011	-0.273019
H76	H	0.568928	-0.238907	-0.195010
H77	H	0.509169	-0.243959	-0.263285
H78	H	0.509115	-0.322807	-0.198959
H79	H	0.626410	-0.293014	-0.303097
H80	H	0.626373	-0.371864	-0.238762
C81	C	1.195490	-0.656017	-0.618973
C82	C	1.239800	-0.594066	-0.666120
H83	H	1.229536	-0.697898	-0.591157
H84	H	1.165604	-0.619285	-0.582838
H85	H	1.161287	-0.692894	-0.650955
H86	H	1.273999	-0.557183	-0.634138
H87	H	1.269699	-0.630801	-0.702260
H88	H	1.043429	-0.352608	-0.677834
C89	C	0.978722	-0.389391	-0.885337
C90	C	1.029144	-0.334997	-0.838230
H91	H	0.944658	-0.347521	-0.913142
H92	H	1.008611	-0.426105	-0.921482
H93	H	0.948692	-0.431428	-0.853329
H94	H	1.059178	-0.292965	-0.870238
H95	H	0.999251	-0.298267	-0.802081
H96	H	0.686848	-0.352592	-0.287305
H97	H	1.225567	-0.576394	-0.930659
