data_functionalizedCrystal
_audit_creation_method	'MofGen! by Chris Wilmer'
_symmetry_space_group_name_H-M	'P1'
_symmetry_Int_Tables_number	1
_symmetry_cell_setting	triclinic
loop_
_symmetry_equiv_pos_as_xyz
  x,y,z
_cell_length_a	27.440280
_cell_length_b	14.446369
_cell_length_c	14.446369
_cell_angle_alpha	60.000250
_cell_angle_beta	89.996616
_cell_angle_gamma	59.995166
loop_
_atom_site_label
_atom_site_type_symbol
_atom_site_fract_x
_atom_site_fract_y
_atom_site_fract_z
Zr1	Zr	0.469502	1.013148	-0.121552
O2	O	0.391684	1.206274	-0.269357
O3	O	0.493356	0.820027	-0.076236
O4	O	0.493357	1.013136	-0.269355
O5	O	0.391683	1.013173	0.076091
O6	O	0.573559	1.013121	-0.269361
O7	O	0.391683	1.013165	-0.076238
O8	O	0.573557	0.667685	0.076094
O9	O	0.391685	1.358609	-0.269364
O10	O	0.563384	0.899448	-0.056921
O11	O	0.503531	0.899465	0.056765
O12	O	0.503532	1.126826	-0.170608
O13	O	0.443678	1.126843	-0.056923
Zr14	Zr	0.597414	1.013138	0.121386
Zr15	Zr	0.597415	1.013124	-0.121561
Zr16	Zr	0.469501	1.013161	0.121394
Zr17	Zr	0.469503	1.256106	-0.121563
Zr18	Zr	0.597413	0.770180	0.121397
O19	O	0.573560	1.206259	0.076069
O20	O	0.573560	1.206240	-0.269370
O21	O	0.391684	1.206293	0.076082
O22	O	0.675232	0.820012	0.269190
O23	O	0.675232	0.819993	-0.076249
O24	O	0.493356	0.820046	0.269203
O25	O	0.675233	1.013113	-0.076258
O26	O	0.573559	1.013150	0.269189
O27	O	0.493357	1.013165	0.269194
O28	O	0.675233	1.013121	0.076071
O29	O	0.493359	1.358591	-0.269371
O30	O	0.573557	0.667695	0.269204
O31	O	0.675231	0.667677	0.269197
O32	O	0.675231	0.667666	0.076087
O33	O	0.391685	1.358620	-0.076254
O34	O	0.493359	1.358601	-0.076261
O35	O	0.563384	0.899460	0.170442
O36	O	0.623238	0.899443	0.056756
O37	O	0.563386	1.126821	-0.056931
O38	O	0.503532	1.126838	0.056754
C39	C	0.533457	0.709240	-0.000069
C40	C	0.533456	0.606098	-0.000065
C41	C	0.495887	0.459099	0.071965
C42	C	0.495683	0.566719	0.071674
C43	C	0.505918	0.655092	-0.123598
C44	C	0.505636	0.547859	-0.123224
C45	C	0.598590	0.372630	0.050376
C46	C	0.598494	0.478781	0.052896
C47	C	0.373458	1.013173	-0.000072
C48	C	0.319156	1.013183	-0.000069
C49	C	-0.017542	1.013109	-0.084004
C50	C	-0.068559	1.013100	-0.084005
O51	O	-0.094934	1.013047	-0.155351
N52	N	-0.094077	1.013107	-0.000087
C53	C	-0.068571	1.013110	0.083844
O54	O	-0.094960	1.013114	0.155223
C55	C	-0.017552	1.013110	0.083848
C56	C	0.007960	1.013116	-0.000082
C57	C	0.007971	1.013114	-0.167927
C58	C	0.058984	1.013126	-0.167927
C59	C	0.084486	1.013133	-0.084005
C60	C	0.058974	1.013128	-0.000082
C61	C	0.007956	1.013104	0.167782
C62	C	0.058979	1.013102	0.167780
C63	C	0.084491	1.013109	0.083850
C64	C	0.135489	1.013147	0.083840
N65	N	0.161007	1.013140	-0.000078
C66	C	0.135505	1.013133	-0.084000
C67	C	-0.175715	1.013108	0.083829
C68	C	-0.226736	1.013117	0.083821
C69	C	-0.226720	1.013105	-0.084026
C70	C	-0.175700	1.013105	-0.084022
C71	C	-0.150197	1.013101	-0.000089
C72	C	0.242638	1.013159	-0.083995
C73	C	0.293655	1.013176	-0.083991
C74	C	0.293636	1.013181	0.083860
C75	C	0.242622	1.013171	0.083852
C76	C	0.217125	1.013155	-0.000080
O77	O	0.161898	1.013194	0.155152
O78	O	0.161905	1.013112	-0.155359
C79	C	0.693458	1.013113	-0.000094
C80	C	0.747760	1.013103	-0.000098
C81	C	0.533458	1.013126	-0.303973
C82	C	0.533458	1.013121	-0.407110
C83	C	0.533459	1.317046	-0.000097
C84	C	0.533460	1.420188	-0.000102
C85	C	0.571395	0.869729	-0.482089
C86	C	0.571231	0.869632	-0.374760
C87	C	0.468423	1.084360	-0.481669
C88	C	0.468631	1.083450	-0.588527
C89	C	0.560031	1.086386	-0.590107
C90	C	0.561347	1.083684	-0.481436
C91	C	0.533458	1.013160	0.303806
C92	C	0.533458	1.013165	0.406943
C93	C	0.693456	0.709210	-0.000080
C94	C	0.747758	0.606058	-0.000079
C95	C	0.533456	0.709256	0.303820
C96	C	0.533456	0.606120	0.406962
C97	C	0.693456	0.709227	0.303809
C98	C	0.747758	0.606080	0.406947
C99	C	0.373460	1.317059	-0.303976
C100	C	0.319158	1.420206	-0.407114
C101	C	0.373460	1.317076	-0.000086
C102	C	0.319158	1.420228	-0.000087
C103	C	0.533460	1.317030	-0.303987
C104	C	0.533460	1.420166	-0.407129
C105	C	0.742016	0.557619	-0.059427
C106	C	0.793033	0.460710	-0.059449
C107	C	0.849792	0.412235	-0.000116
C108	C	0.855534	0.460684	0.059234
C109	C	0.804517	0.557597	0.059249
C110	C	0.804507	0.557633	0.396039
C111	C	0.855534	0.460729	0.492940
C112	C	0.849811	0.412268	0.600746
C113	C	0.793056	0.460726	0.611652
C114	C	0.742030	0.557634	0.514753
C115	C	0.262409	1.468665	-0.396206
C116	C	0.211382	1.565599	-0.493106
C117	C	0.217105	1.614064	-0.600913
C118	C	0.273860	1.565601	-0.611819
C119	C	0.324886	1.468676	-0.514920
C120	C	0.324900	1.468677	0.059251
C121	C	0.273883	1.565613	0.059246
C122	C	0.217124	1.614091	-0.000091
C123	C	0.211382	1.565638	-0.059436
C124	C	0.262399	1.468711	-0.059437
C125	C	0.495523	0.459813	0.481954
C126	C	0.495684	0.566733	0.374620
C127	C	0.598492	0.479255	0.481517
C128	C	0.598288	0.371880	0.588381
C129	C	0.506889	0.546870	0.589965
C130	C	0.505569	0.655340	0.481289
H131	H	0.457709	0.588564	-0.163633
Br132	Br	-0.026629	1.013102	-0.281834
H133	H	0.079743	1.013095	0.236132
Br134	Br	0.638647	1.009875	-0.596973
H135	H	0.788405	0.421255	0.699441
H136	H	0.531970	0.683869	-0.179614
H137	H	0.809201	0.597024	0.107583
Br138	Br	0.134347	1.631441	-0.139957
Br139	Br	0.433173	0.999090	-0.588079
Br140	Br	0.525953	0.310361	0.480229
H141	H	0.695824	0.597068	0.523650
H142	H	0.531235	0.525883	-0.179836
Br143	Br	0.636925	0.216428	0.199684
Br144	Br	0.919067	0.280748	0.732243
Br145	Br	-0.141083	1.013113	-0.197931
H146	H	0.457656	0.745841	0.429868
H147	H	-0.247492	1.013096	-0.152359
H148	H	0.371112	1.429213	0.107577
H149	H	0.446999	1.034892	-0.430062
Br150	Br	0.207993	1.013188	0.197748
Br151	Br	0.093604	1.013124	-0.281831
H152	H	0.278569	1.605047	0.107576
H153	H	0.627986	0.501498	0.508745
Br154	Br	0.281618	1.631387	-0.758137
Br155	Br	0.415494	0.521897	0.478058
H156	H	0.175587	1.693015	-0.000081
Br157	Br	0.546834	0.708898	0.523814
H158	H	0.257738	1.429210	-0.308433
Br159	Br	0.328252	1.013196	0.197748
H160	H	0.257716	1.429266	-0.107754
H161	H	0.447793	0.656090	0.320352
H162	H	0.619410	0.813427	-0.479750
H163	H	-0.247509	1.013133	0.152154
H164	H	0.371093	1.429221	-0.523814
H165	H	0.514117	0.529261	0.320835
H166	H	0.553133	0.813718	-0.481051
Br167	Br	0.540463	0.775987	-0.285148
H168	H	0.891329	0.333321	-0.000136
Br169	Br	0.651052	0.776459	-0.284289
H170	H	0.901754	0.421201	0.107541
Br171	Br	0.812291	0.623386	0.249742
Br172	Br	0.134365	1.631347	-0.478279
Br173	Br	0.932551	0.394983	0.478112
H174	H	0.619562	0.281123	0.588109
H175	H	0.175552	1.692987	-0.679805
H176	H	0.534391	0.522078	0.668179
Br177	Br	0.418958	1.258848	-0.719507
Br178	Br	0.647967	0.321933	0.719353
H179	H	0.619915	0.440691	0.429910
H180	H	0.532520	1.192062	-0.668309
H181	H	0.459721	0.586451	0.594083
Br182	Br	0.785228	0.394977	-0.139998
Br183	Br	-0.026656	1.013094	0.281692
Br184	Br	0.526523	0.310993	0.223974
Br185	Br	0.526558	0.505463	0.223279
Br186	Br	0.419260	1.260208	-0.527065
H187	H	0.448129	0.494868	0.037263
H188	H	0.447641	0.655527	0.036680
H189	H	0.619067	0.439181	0.143904
H190	H	0.628847	0.500275	0.005866
Br191	Br	0.426801	0.808955	-0.191417
H192	H	0.695804	0.597087	-0.107758
H193	H	0.626716	0.346647	-0.001865
H194	H	0.221885	1.013143	-0.152340
Br195	Br	-0.141111	1.013115	0.197743
Br196	Br	0.328273	1.013192	-0.197907
H197	H	0.609263	1.031730	-0.430019
H198	H	0.536588	1.188365	-0.506954
