data_functionalizedCrystal
_audit_creation_method	'MofGen! by Chris Wilmer'
_symmetry_space_group_name_H-M	'P1'
_symmetry_Int_Tables_number	1
_symmetry_cell_setting	triclinic
loop_
_symmetry_equiv_pos_as_xyz
  x,y,z
_cell_length_a	12.759399
_cell_length_b	11.169417
_cell_length_c	11.169409
_cell_angle_alpha	90.019824
_cell_angle_beta	90.034210
_cell_angle_gamma	90.015995
loop_
_atom_site_label
_atom_site_type_symbol
_atom_site_fract_x
_atom_site_fract_y
_atom_site_fract_z
Zn1	Zn	-0.418157	1.834922	0.678527
Zn2	Zn	-0.593882	1.834795	0.477837
Zn3	Zn	-0.418221	1.634208	0.477861
Zn4	Zn	-0.593797	1.634199	0.678482
O5	O	-0.506014	1.734531	0.578177
O6	O	-0.441476	2.002855	0.651914
O7	O	-0.570643	1.808137	0.309891
O8	O	-0.271191	1.660891	0.504509
O9	O	-0.570581	2.002762	0.504468
O10	O	-0.271144	1.808354	0.651937
O11	O	-0.441585	1.660767	0.309908
O12	O	-0.441502	1.466257	0.504466
O13	O	-0.570435	1.660875	0.846438
O14	O	-0.570497	1.466251	0.651861
O15	O	-0.441393	1.808346	0.846471
O16	O	-0.740892	1.808128	0.504425
O17	O	-0.740829	1.660751	0.651838
C18	C	-0.505998	1.422707	0.578162
C19	C	-0.506017	1.289307	0.578184
C20	C	-0.778981	1.734458	0.578150
C21	C	-0.895758	1.734536	0.578178
C22	C	-0.950618	1.811363	0.501508
C23	C	-1.060342	1.811440	0.501548
C24	C	-1.060337	1.657853	0.654933
C25	C	-0.950615	1.657783	0.654898
C26	C	-1.210221	1.953101	0.458834
C27	C	-1.265084	2.029917	0.382145
C28	C	-1.229550	2.048380	0.265042
C29	C	-1.139154	1.990009	0.224604
C30	C	-1.084296	1.913184	0.301287
C31	C	-1.119829	1.894744	0.418407
C32	C	-0.800734	1.516120	0.697599
C33	C	-0.745874	1.439288	0.774277
C34	C	-0.781406	1.420813	0.891382
C35	C	-0.871806	1.479163	0.931815
C36	C	-0.926666	1.555995	0.855137
C37	C	-0.891126	1.574472	0.738033
C38	C	-0.231981	1.734638	0.578231
C39	C	-0.115204	1.734683	0.578254
C40	C	-0.505897	1.734623	0.891220
C41	C	-0.505848	1.734663	1.024620
C42	C	-0.506031	2.047574	0.578193
C43	C	-0.506038	2.180974	0.578200
C44	C	-0.506054	1.734509	0.266352
C45	C	-0.505808	1.734702	0.132953
H46	H	-0.905956	1.873862	0.439040
O47	O	-0.728245	1.346208	0.966021
C48	C	-0.778967	1.342469	1.078071
H49	H	-0.864648	1.369027	1.066616
H50	H	-0.738994	1.407480	1.142214
C51	C	-0.667396	1.182071	1.143364
C52	C	-0.772633	1.214680	1.129293
H53	H	-0.663486	1.103247	1.174964
H54	H	-0.633220	1.184592	1.067876
H55	H	-0.634097	1.236257	1.196814
H56	H	-0.805927	1.160504	1.075833
H57	H	-0.806815	1.212147	1.204774
O58	O	-1.244591	1.935303	0.572673
C59	C	-1.166278	1.971294	0.654211
H60	H	-1.111895	2.038515	0.609092
H61	H	-1.119165	1.889797	0.683832
C62	C	-1.284630	1.947330	0.819628
C63	C	-1.217842	2.029900	0.764215
H64	H	-1.316436	1.983476	0.887487
H65	H	-1.337391	1.923078	0.764695
H66	H	-1.245359	1.879422	0.844301
H67	H	-1.257115	2.097799	0.739530
H68	H	-1.165089	2.054165	0.819146
O69	O	-0.996484	1.856620	0.261847
C70	C	-0.976899	1.889354	0.142026
H71	H	-1.016065	1.978932	0.122315
H72	H	-1.010001	1.817968	0.079581
C73	C	-0.809779	1.790517	0.146330
C74	C	-0.857876	1.900543	0.122123
H75	H	-0.736361	1.797413	0.134050
H76	H	-0.822975	1.768458	0.227054
H77	H	-0.837376	1.731040	0.094289
H78	H	-0.830289	1.960014	0.174174
H79	H	-0.844673	1.922611	0.041407
H80	H	-1.105014	1.595362	0.717393
O81	O	-1.014413	1.612880	0.894324
C82	C	-0.999555	1.737763	0.887186
H83	H	-0.936316	1.758371	0.818141
H84	H	-0.974240	1.773491	0.978351
C85	C	-1.180621	1.772768	0.934310
C86	C	-1.102956	1.798079	0.849500
H87	H	-1.244404	1.809976	0.911069
H88	H	-1.190631	1.688632	0.939124
H89	H	-1.159512	1.802542	1.010274
H90	H	-1.124060	1.768292	0.773542
H91	H	-1.092952	1.882212	0.844673
H92	H	-1.274227	2.110927	0.202601
H93	H	-0.771788	1.531166	0.602245
H94	H	-1.338685	2.077444	0.415081
O95	O	-0.657966	1.382665	0.735185
C96	C	-0.572127	1.416308	0.807291
H97	H	-0.601803	1.448522	0.897998
H98	H	-0.526953	1.491581	0.761621
C99	C	-0.462852	1.268294	0.713813
C100	C	-0.499299	1.307851	0.825224
H101	H	-0.417925	1.201395	0.724871
H102	H	-0.520681	1.245631	0.665230
H103	H	-0.425213	1.331031	0.675766
H104	H	-0.536948	1.245119	0.863263
H105	H	-0.441474	1.330501	0.873814
O106	O	-0.906353	1.461442	1.045598
C107	C	-0.907705	1.571593	1.107270
H108	H	-0.912852	1.648128	1.040029
H109	H	-0.832852	1.581085	1.162248
C110	C	-0.997021	1.481705	1.273787
C111	C	-1.003352	1.575707	1.191201
H112	H	-1.056017	1.484242	1.325565
H113	H	-0.996107	1.407493	1.232241
H114	H	-0.934639	1.489626	1.319590
H115	H	-1.065725	1.567776	1.145390
H116	H	-1.004278	1.649918	1.232743
H117	H	-1.110235	2.005038	0.129242
