data_functionalizedCrystal
_audit_creation_method	'MofGen! by Chris Wilmer'
_symmetry_space_group_name_H-M	'P1'
_symmetry_Int_Tables_number	1
_symmetry_cell_setting	triclinic
loop_
_symmetry_equiv_pos_as_xyz
  x,y,z
_cell_length_a	12.503572
_cell_length_b	14.044220
_cell_length_c	14.044220
_cell_angle_alpha	93.188878
_cell_angle_beta	93.843168
_cell_angle_gamma	86.164750
loop_
_atom_site_label
_atom_site_type_symbol
_atom_site_fract_x
_atom_site_fract_y
_atom_site_fract_z
O1	O	0.089210	-1.282200	-0.225116
O2	O	0.589210	-0.782200	0.274884
O3	O	0.089237	-1.005530	-0.216809
O4	O	0.589237	-0.505530	0.283191
O5	O	0.089213	-1.139712	-0.082627
O6	O	0.589213	-0.639712	0.417373
O7	O	0.089234	-1.148019	-0.359298
O8	O	0.589234	-0.648019	0.140702
O9	O	-0.089427	-1.129622	-0.092737
O10	O	0.410573	-0.629622	0.407263
O11	O	-0.089403	-0.995440	-0.226918
O12	O	0.410597	-0.495440	0.273082
O13	O	-0.089430	-1.272110	-0.235226
O14	O	0.410570	-0.772110	0.264774
Cu15	Cu	-0.105728	-1.132854	-0.231995
Cu16	Cu	0.394272	-0.632854	0.268005
Cu17	Cu	0.105535	-1.144786	-0.220040
Cu18	Cu	0.605535	-0.644786	0.279960
O19	O	-0.089406	-1.137929	-0.369407
O20	O	0.410594	-0.637929	0.130593
C21	C	-0.000080	-0.964864	-0.218228
C22	C	0.499920	-0.464864	0.281772
C23	C	-0.000070	-0.858721	-0.207383
C24	C	0.499930	-0.358721	0.292617
N25	N	-0.254319	-1.124469	-0.240404
N26	N	0.245681	-0.624469	0.259596
C27	C	-0.000107	-1.131031	-0.052060
C28	C	0.499893	-0.631031	0.447940
C29	C	-0.000107	-1.120187	0.054082
C30	C	0.499893	-0.620187	0.554082
C31	C	-0.473432	-1.112134	-0.252782
C32	C	0.026568	-0.612134	0.247218
C33	C	-0.526768	-1.165511	-0.199249
C34	C	-0.026768	-0.665511	0.300751
C35	C	-0.648690	-1.158648	-0.206136
C36	C	-0.148690	-0.658648	0.293864
C37	C	-0.351499	-1.118996	-0.245896
C38	C	0.148501	-0.618996	0.254104
N39	N	0.254126	-1.153179	-0.211624
N40	N	0.754126	-0.653179	0.288376
C41	C	-0.000111	-1.312777	-0.233807
C42	C	0.499889	-0.812777	0.266193
C43	C	-0.000114	-1.418920	-0.244651
C44	C	0.499886	-0.918920	0.255349
C45	C	-0.000092	-0.664382	-0.187558
C46	C	0.499908	-0.164382	0.312442
C47	C	-0.000091	-0.613253	-0.264472
C48	C	0.499909	-0.113253	0.235528
C49	C	-0.000104	-0.505116	-0.253441
C50	C	0.499896	-0.005116	0.246559
C51	C	-0.000080	-0.772529	-0.198587
C52	C	0.499920	-0.272529	0.301413
C53	C	-0.000084	-1.146609	-0.399974
C54	C	0.499916	-0.646609	0.100026
C55	C	-0.000077	-1.157454	-0.506117
C56	C	0.499923	-0.657454	-0.006117
C57	C	-0.000090	-1.100361	0.248421
C58	C	0.499910	-0.600361	0.748421
C59	C	-0.000094	-1.177275	0.299551
C60	C	0.499906	-0.677275	0.799551
C61	C	-0.000084	-1.166244	0.407687
C62	C	0.499916	-0.666244	0.907687
C63	C	-0.000099	-1.111391	0.140274
C64	C	0.499901	-0.611391	0.640274
H65	H	-0.480864	-1.216364	-0.148245
H66	H	0.019136	-0.716364	0.351755
F67	F	-0.000112	-1.274173	0.250617
F68	F	0.499888	-0.774173	0.750617
F69	F	-0.000075	-1.003470	0.297355
F70	F	0.499925	-0.503470	0.797355
H71	H	-0.000081	-0.650692	-0.338605
H72	H	0.499919	-0.150692	0.161395
F73	F	-0.533425	-1.045671	-0.319446
F74	F	-0.033425	-0.545671	0.180554
F75	F	-0.000103	-0.615449	-0.090667
F76	F	0.499897	-0.115449	0.409333
