data_functionalizedCrystal
_audit_creation_method	'MofGen! by Chris Wilmer'
_symmetry_space_group_name_H-M	'P1'
_symmetry_Int_Tables_number	1
_symmetry_cell_setting	triclinic
loop_
_symmetry_equiv_pos_as_xyz
  x,y,z
_cell_length_a	18.215407
_cell_length_b	12.594516
_cell_length_c	18.215399
_cell_angle_alpha	89.975485
_cell_angle_beta	89.983176
_cell_angle_gamma	90.016501
loop_
_atom_site_label
_atom_site_type_symbol
_atom_site_fract_x
_atom_site_fract_y
_atom_site_fract_z
Zn1	Zn	1.125095	-0.423715	-0.416146
Zn2	Zn	1.125029	-0.601720	-0.293092
Zn3	Zn	1.002034	-0.423757	-0.293093
Zn4	Zn	1.002013	-0.601653	-0.416117
O5	O	1.063543	-0.512711	-0.354612
O6	O	1.228071	-0.447338	-0.399834
O7	O	1.108695	-0.578158	-0.190108
O8	O	1.018395	-0.274806	-0.309429
O9	O	1.228022	-0.578117	-0.309427
O10	O	1.108808	-0.274775	-0.399835
O11	O	1.018331	-0.447410	-0.190109
O12	O	0.899047	-0.447345	-0.309401
O13	O	1.018359	-0.578004	-0.519105
O14	O	0.899031	-0.578045	-0.399786
O15	O	1.108787	-0.447273	-0.519126
O16	O	1.108674	-0.750657	-0.309399
O17	O	1.018294	-0.750608	-0.399785
C18	C	0.872337	-0.512693	-0.354591
C19	C	0.790538	-0.512711	-0.354599
C20	C	0.602355	-0.580873	-0.401604
C21	C	0.525496	-0.580877	-0.401613
C22	C	0.525483	-0.444569	-0.307636
C23	C	0.602340	-0.444561	-0.307631
C24	C	0.640774	-0.512719	-0.354614
C25	C	0.487058	-0.512730	-0.354628
C26	C	0.403724	-0.512734	-0.354638
C27	C	0.724113	-0.512715	-0.354606
C28	C	1.063495	-0.789252	-0.354605
C29	C	1.063541	-0.907558	-0.354626
C30	C	1.014379	-0.976823	-0.403753
C31	C	0.996453	-1.047686	-0.336600
C32	C	1.081534	-1.047494	-0.421791
C33	C	1.045580	-0.976862	-0.287438
C34	C	1.130692	-0.976664	-0.372674
C35	C	1.112792	-1.047495	-0.305475
C36	C	1.255496	-0.512730	-0.354634
C37	C	1.337295	-0.512739	-0.354643
C38	C	1.063578	-0.512626	-0.546565
C39	C	1.063592	-0.512590	-0.628364
C40	C	1.063611	-0.235091	-0.354635
C41	C	1.063640	-0.116785	-0.354645
C42	C	1.016580	-0.444463	-0.816559
C43	C	1.016593	-0.444442	-0.893418
C44	C	1.110693	-0.580590	-0.893406
C45	C	1.110676	-0.580616	-0.816549
C46	C	1.063620	-0.512547	-0.778127
C47	C	1.063650	-0.512499	-0.931844
C48	C	1.063664	-0.512476	-1.015177
C49	C	1.063605	-0.512571	-0.694788
C50	C	1.063551	-0.512719	-0.163406
C51	C	1.063678	-0.512456	-0.081607
H52	H	0.494181	-0.389079	-0.269384
C53	C	0.483878	-0.654815	-0.452749
C54	C	0.502621	-0.631787	-0.525586
C55	C	0.464305	-0.699888	-0.572715
H56	H	0.432588	-0.645127	-0.446127
H57	H	0.496474	-0.726327	-0.441938
H58	H	0.490020	-0.560292	-0.536394
H59	H	0.553904	-0.641481	-0.532231
H60	H	0.476901	-0.771400	-0.561904
H61	H	0.413017	-0.690195	-0.566087
H62	H	0.477022	-0.684279	-0.622140
C63	C	0.965637	-0.370465	-0.935241
C64	C	1.007326	-0.302253	-0.979398
C65	C	0.960407	-0.234102	-1.017944
H66	H	0.937592	-0.329831	-0.901436
H67	H	0.933581	-0.411148	-0.965254
H68	H	1.039369	-0.261574	-0.949388
H69	H	1.035369	-0.342857	-1.013217
H70	H	0.928351	-0.274784	-1.047956
H71	H	0.932364	-0.193476	-0.984133
H72	H	0.988685	-0.187819	-1.047913
C73	C	0.958914	-0.935227	-0.459058
C74	C	0.960049	-0.824070	-0.458808
C75	C	0.908972	-0.785714	-0.509749
H76	H	0.911223	-0.959435	-0.446186
H77	H	0.971199	-0.960391	-0.506663
H78	H	0.947760	-0.798916	-0.411214
H79	H	1.007729	-0.799833	-0.471689
H80	H	0.921256	-0.810877	-0.557354
H81	H	0.861284	-0.809929	-0.496871
H82	H	0.909740	-0.710291	-0.509591
H83	H	1.149005	-0.636009	-0.924699
H84	H	0.633645	-0.636369	-0.439862
C85	C	1.161710	-0.654712	-0.774911
C86	C	1.145678	-0.760014	-0.793605
C87	C	1.192677	-0.828299	-0.755271
H88	H	1.155005	-0.645125	-0.723624
H89	H	1.211177	-0.639198	-0.787526
H90	H	1.096224	-0.775523	-0.780986
H91	H	1.152388	-0.769635	-0.844886
H92	H	1.242144	-0.812785	-0.767885
H93	H	1.185968	-0.818703	-0.703985
H94	H	1.181811	-0.899754	-0.767954
C95	C	0.643926	-0.370521	-0.256529
C96	C	0.593819	-0.310859	-0.215367
C97	C	0.632101	-0.242654	-0.168282
H98	H	0.673928	-0.324098	-0.284651
H99	H	0.673875	-0.411156	-0.224378
H100	H	0.563882	-0.270227	-0.247514
H101	H	0.563816	-0.357253	-0.187230
H102	H	0.662050	-0.283289	-0.136130
H103	H	0.662101	-0.196238	-0.196410
H104	H	0.598109	-0.202172	-0.140342
C105	C	0.920799	-1.089435	-0.316368
C106	C	0.893796	-1.152134	-0.373790
C107	C	0.824109	-1.190617	-0.355180
H108	H	0.888487	-1.031447	-0.308191
H109	H	0.924162	-1.131018	-0.272971
H110	H	0.890429	-1.110552	-0.417174
H111	H	0.926087	-1.210138	-0.381975
H112	H	0.827471	-1.232200	-0.311783
H113	H	0.791803	-1.132622	-0.347004
H114	H	0.805781	-1.233170	-0.394135
C115	C	1.025227	-0.935466	-0.211750
C116	C	1.025363	-0.824304	-0.212636
C117	C	1.006605	-0.786131	-0.142931
H118	H	1.059935	-0.960116	-0.176769
H119	H	0.977690	-0.960316	-0.198851
H120	H	1.072893	-0.799464	-0.225526
H121	H	0.990654	-0.799626	-0.247602
H122	H	0.959068	-0.810981	-0.130032
H123	H	1.041316	-0.810788	-0.107956
H124	H	1.006688	-0.710704	-0.143525
H125	H	1.154409	-1.078331	-0.263891
C126	C	1.206308	-0.935088	-0.393198
C127	C	1.224811	-0.970788	-0.463594
C128	C	1.294458	-0.932495	-0.482538
H129	H	1.241464	-0.960312	-0.358866
H130	H	1.205839	-0.859661	-0.392641
H131	H	1.225285	-1.046198	-0.464146
H132	H	1.189674	-0.945566	-0.497942
H133	H	1.293990	-0.857068	-0.481981
H134	H	1.329608	-0.957721	-0.448202
H135	H	1.307019	-0.956703	-0.530306
C136	C	1.101730	-1.089074	-0.497473
C137	C	1.102144	-1.200229	-0.496317
C138	C	1.120729	-1.238565	-0.566026
H139	H	1.149069	-1.063826	-0.510693
H140	H	1.066706	-1.064937	-0.532324
H141	H	1.137167	-1.224356	-0.461478
H142	H	1.054813	-1.225505	-0.483110
H143	H	1.085705	-1.214428	-0.600877
H144	H	1.168067	-1.213310	-0.579240
H145	H	1.121006	-1.313987	-0.565253
C146	C	0.965405	-0.370533	-0.774976
C147	C	0.924196	-0.310927	-0.825088
C148	C	0.877036	-0.242823	-0.786811
H149	H	0.993474	-0.324070	-0.744999
H150	H	0.933285	-0.411238	-0.745003
H151	H	0.956312	-0.270224	-0.855048
H152	H	0.896112	-0.357361	-0.855067
H153	H	0.844916	-0.283528	-0.756838
H154	H	0.905111	-0.196367	-0.756835
H155	H	0.849065	-0.202379	-0.820805
