data_functionalizedCrystal
_audit_creation_method	'MofGen! by Chris Wilmer'
_symmetry_space_group_name_H-M	'P1'
_symmetry_Int_Tables_number	1
_symmetry_cell_setting	triclinic
loop_
_symmetry_equiv_pos_as_xyz
  x,y,z
_cell_length_a	13.635800
_cell_length_b	16.389951
_cell_length_c	12.908943
_cell_angle_alpha	93.698541
_cell_angle_beta	100.860631
_cell_angle_gamma	129.354854
loop_
_atom_site_label
_atom_site_type_symbol
_atom_site_fract_x
_atom_site_fract_y
_atom_site_fract_z
V1	V	2.080770	0.147492	0.343109
O2	O	1.987408	-0.008469	0.321597
O3	O	2.138621	0.293781	0.355171
O4	O	2.048297	0.144617	0.486178
O5	O	2.078358	0.141727	0.189683
V6	V	2.313024	0.128909	0.323008
O7	O	2.232255	0.188256	0.387203
O8	O	2.386638	0.088145	0.278914
O9	O	2.143570	-0.017380	0.310946
O10	O	2.465084	0.284870	0.344521
O11	O	2.374135	0.134674	0.476434
O12	O	2.233894	0.131784	0.179940
V13	V	2.580770	0.147492	0.343109
O14	O	2.487408	-0.008469	0.321597
O15	O	2.638621	0.293781	0.355171
O16	O	2.548297	0.144617	0.486178
O17	O	2.578358	0.141727	0.189683
V18	V	2.813024	0.128909	0.323008
O19	O	2.732255	0.188256	0.387203
O20	O	2.886638	0.088145	0.278914
O21	O	2.643570	-0.017380	0.310946
O22	O	2.965084	0.284870	0.344521
O23	O	2.874135	0.134674	0.476434
O24	O	2.733894	0.131784	0.179940
C25	C	2.081350	0.329462	0.353476
C26	C	2.169239	0.449050	0.364292
C27	C	2.532515	-0.053055	0.312639
C28	C	2.434246	-0.172643	0.301830
C29	C	2.286355	0.643836	0.188591
C30	C	2.368932	0.756200	0.198748
C31	C	2.416981	0.786144	0.394763
C32	C	2.334403	0.673780	0.384606
C33	C	2.269090	0.602630	0.281516
C34	C	2.186504	0.490264	0.271360
C35	C	2.234561	0.520210	0.467374
C36	C	2.317139	0.632574	0.477531
C37	C	1.966132	0.139187	0.520587
C38	C	1.980766	0.137804	0.637640
C39	C	2.032515	-0.053055	0.312639
C40	C	1.934246	-0.172643	0.301830
C41	C	2.147733	0.137217	0.145526
C42	C	2.122714	0.138594	0.028470
C43	C	2.581350	0.329462	0.353476
C44	C	2.669239	0.449050	0.364292
C45	C	2.195879	0.145881	0.869377
C46	C	2.209634	0.144583	0.979360
C47	C	2.022028	0.133901	0.967589
C48	C	2.008273	0.135199	0.857606
C49	C	2.095203	0.141192	0.808505
C50	C	2.081452	0.142498	0.698522
C51	C	1.893842	0.131808	0.686751
C52	C	1.907597	0.130510	0.796734
C53	C	2.466132	0.139187	0.520587
C54	C	2.480766	0.137804	0.637640
C55	C	2.647733	0.137217	0.145526
C56	C	2.622714	0.138594	0.028470
C57	C	1.971583	-0.234266	0.290952
C58	C	1.879256	-0.346635	0.280779
C59	C	1.749595	-0.397378	0.281491
C60	C	1.712257	-0.335747	0.292366
C61	C	1.804581	-0.223381	0.302532
C62	C	2.804396	0.510674	0.375173
C63	C	2.886995	0.623044	0.385351
C64	C	2.834432	0.673787	0.384642
C65	C	2.699263	0.612155	0.373763
C66	C	2.616668	0.499789	0.363592
C67	C	2.562230	0.235614	0.717305
C68	C	2.576007	0.234332	0.827294
C69	C	2.508313	0.135238	0.857616
C70	C	2.426845	0.037421	0.777943
C71	C	2.413076	0.038705	0.667956
C72	C	2.695270	0.237701	-0.001820
C73	C	2.671764	0.239012	-0.111800
C74	C	2.575709	0.141216	-0.191490
C75	C	2.503146	0.042101	-0.161194
C76	C	2.526645	0.040792	-0.051215
H77	H	2.133319	0.432333	0.187418
H78	H	2.077154	-0.192967	0.290372
C79	C	2.488823	0.864426	0.508151
N80	N	2.542927	0.923390	0.593556
H81	H	2.370331	0.690519	0.561463
C82	C	2.636716	0.344634	0.683975
N83	N	2.692833	0.426753	0.658880
C84	C	2.751611	0.348049	-0.145103
N85	N	2.811755	0.430176	-0.170183
H86	H	2.266670	0.150772	0.829401
C87	C	2.323439	-0.068902	0.580333
N88	N	2.255917	-0.149957	0.514338
H89	H	2.773487	0.317343	0.063054
H90	H	1.674432	-0.488874	0.273212
H91	H	2.220494	0.486649	0.543040
C92	C	2.665607	0.341942	0.914916
N93	N	2.733087	0.422994	0.980909
C94	C	2.397492	-0.065469	-0.248869
N95	N	2.317919	-0.146491	-0.314909
H96	H	1.909683	-0.396800	0.271926
C97	C	2.925305	0.797394	0.395824
N98	N	2.993756	0.890495	0.404242
H99	H	2.152240	0.147381	0.658547
H100	H	1.606676	-0.377079	0.292943
H101	H	1.774165	-0.173214	0.311398
C102	C	2.862247	0.454880	0.375963
N103	N	2.905833	0.412865	0.376567
H104	H	2.556586	0.142297	-0.281039
C105	C	2.523460	0.133843	0.978610
N106	N	2.534867	0.132799	1.069743
C107	C	2.387914	0.801522	0.096522
N108	N	2.402209	0.835657	0.019521
C109	C	2.352372	-0.071577	0.811315
N110	N	2.296269	-0.153674	0.836454
H111	H	2.997051	0.673209	0.394205
C112	C	2.641459	0.667987	0.372966
N113	N	2.597921	0.710041	0.372354
H114	H	2.291613	0.148402	1.028919
H115	H	1.951253	0.129015	1.007585
C116	C	1.783089	0.126647	0.619782
N117	N	1.699673	0.122762	0.569340
H118	H	2.506615	0.449621	0.354728
H119	H	2.233161	0.585903	0.104650
H120	H	1.836821	0.125627	0.836726
H121	H	2.467562	-0.039916	-0.026565
