data_functionalizedCrystal
_audit_creation_method	'MofGen! by Chris Wilmer'
_symmetry_space_group_name_H-M	'P1'
_symmetry_Int_Tables_number	1
_symmetry_cell_setting	triclinic
loop_
_symmetry_equiv_pos_as_xyz
  x,y,z
_cell_length_a	14.044220
_cell_length_b	14.044220
_cell_length_c	13.101039
_cell_angle_alpha	86.332523
_cell_angle_beta	86.340132
_cell_angle_gamma	86.811122
loop_
_atom_site_label
_atom_site_type_symbol
_atom_site_fract_x
_atom_site_fract_y
_atom_site_fract_z
O1	O	1.281968	-0.225348	-0.085109
O2	O	1.781968	0.274652	0.414891
O3	O	1.005298	-0.217041	-0.085135
O4	O	1.505298	0.282959	0.414865
O5	O	1.139480	-0.082860	-0.085112
O6	O	1.639480	0.417140	0.414888
O7	O	1.147787	-0.359530	-0.085132
O8	O	1.647787	0.140470	0.414868
O9	O	1.129854	-0.092504	0.085316
O10	O	1.629854	0.407496	0.585316
O11	O	0.995673	-0.226686	0.085293
O12	O	1.495673	0.273314	0.585293
O13	O	1.272343	-0.234993	0.085319
O14	O	1.772343	0.265007	0.585319
Zn15	Zn	1.132479	-0.232371	0.112365
Zn16	Zn	1.632479	0.267629	0.612365
Zn17	Zn	1.145162	-0.219663	-0.112181
Zn18	Zn	1.645162	0.280337	0.387819
O19	O	1.138161	-0.369175	0.085296
O20	O	1.638161	0.130825	0.585296
C21	C	0.964864	-0.218228	0.000076
C22	C	1.464864	0.281772	0.500076
C23	C	0.858722	-0.207383	0.000066
C24	C	1.358722	0.292617	0.500066
C25	C	0.664383	-0.187558	0.000088
C26	C	1.164383	0.312442	0.500088
C27	C	0.613253	-0.264472	0.000087
C28	C	1.113253	0.235528	0.500087
C29	C	0.505116	-0.253441	0.000099
C30	C	1.005116	0.246559	0.500099
C31	C	0.772529	-0.198587	0.000076
C32	C	1.272529	0.301413	0.500076
C33	C	1.131031	-0.052060	0.000102
C34	C	1.631031	0.447940	0.500102
C35	C	1.120187	0.054083	0.000102
C36	C	1.620187	0.554083	0.500102
C37	C	1.312777	-0.233806	0.000106
C38	C	1.812777	0.266194	0.500106
C39	C	1.418920	-0.244651	0.000109
C40	C	1.918920	0.255349	0.500109
C41	C	1.146610	-0.399974	0.000080
C42	C	1.646610	0.100026	0.500080
C43	C	1.157455	-0.506116	0.000073
C44	C	1.657455	-0.006116	0.500073
N45	N	1.123831	-0.241043	0.265612
N46	N	1.623831	0.258957	0.765612
C47	C	1.100362	0.248421	0.000086
C48	C	1.600362	0.748421	0.500086
C49	C	1.177276	0.299551	0.000090
C50	C	1.677276	0.799551	0.500090
C51	C	1.166245	0.407688	0.000080
C52	C	1.666245	0.907688	0.500080
C53	C	1.111391	0.140275	0.000095
C54	C	1.611391	0.640275	0.500095
N55	N	1.153817	-0.210984	-0.265428
N56	N	1.653817	0.289016	0.234572
C57	C	1.112065	-0.252851	0.474653
C58	C	1.612065	0.247149	0.974653
C59	C	1.165580	-0.199179	0.525538
C60	C	1.665580	0.300821	1.025538
C61	C	1.159034	-0.205749	0.641855
C62	C	1.659034	0.294251	1.141855
C63	C	1.118610	-0.246282	0.358325
C64	C	1.618610	0.253718	0.858325
H65	H	0.650693	-0.338605	0.000077
H66	H	1.150693	0.161395	0.500077
C67	C	0.561679	-0.071517	-0.087521
C68	C	1.061679	0.428483	0.412479
C69	C	0.613850	-0.087484	0.000088
C70	C	1.113850	0.412516	0.500088
H71	H	0.530480	-0.009734	-0.087525
H72	H	1.030480	0.490266	0.412475
H73	H	0.515396	-0.118325	-0.087507
H74	H	1.015396	0.381675	0.412493
H75	H	0.603786	-0.075650	-0.146947
H76	H	1.103786	0.424350	0.353053
H77	H	0.571741	-0.083359	0.059515
H78	H	1.071741	0.416641	0.559515
H79	H	0.660138	-0.040663	0.000084
H80	H	1.160138	0.459337	0.500084
C81	C	1.050286	-0.314846	0.639219
C82	C	1.550286	0.185154	1.139219
C83	C	1.043589	-0.321550	0.533764
C84	C	1.543589	0.178450	1.033764
H85	H	1.008018	-0.357264	0.675719
H86	H	1.508018	0.142736	1.175719
H87	H	1.033444	-0.251249	0.656738
H88	H	1.533444	0.248751	1.156738
H89	H	1.113937	-0.331494	0.656720
H90	H	1.613937	0.168506	1.156720
H91	H	0.979939	-0.304895	0.516262
H92	H	1.479939	0.195105	1.016262
H93	H	1.060425	-0.385161	0.516238
H94	H	1.560425	0.114839	1.016238
C95	C	1.322059	0.270539	0.087732
C96	C	1.822059	0.770539	0.587732
C97	C	1.277355	0.249017	0.000114
C98	C	1.777355	0.749017	0.500114
H99	H	1.383843	0.239342	0.087744
H100	H	1.883843	0.739342	0.587744
H101	H	1.284995	0.249237	0.147146
H102	H	1.784995	0.749237	0.647146
H103	H	1.327671	0.337635	0.087714
H104	H	1.827671	0.837635	0.587714
H105	H	1.271737	0.181921	0.000135
H106	H	1.771737	0.681921	0.500135
H107	H	1.314428	0.270313	-0.059316
H108	H	1.814428	0.770313	0.440684
C109	C	0.994215	0.361022	-0.087528
C110	C	1.494215	0.861022	0.412472
C111	C	1.000290	0.298959	0.000082
C112	C	1.500290	0.798959	0.500082
H113	H	0.932437	0.392234	-0.087522
H114	H	1.432437	0.892234	0.412478
H115	H	1.005045	0.325630	-0.146948
H116	H	1.505045	0.825630	0.353052
H117	H	1.041034	0.407303	-0.087520
H118	H	1.541034	0.907303	0.412480
H119	H	0.953475	0.252673	0.000070
H120	H	1.453475	0.752673	0.500070
H121	H	0.989449	0.334352	0.059517
H122	H	1.489449	0.834352	0.559517
C123	C	1.227062	-0.136867	0.360970
C124	C	1.727062	0.363133	0.860970
C125	C	1.233848	-0.130263	0.466426
C126	C	1.733848	0.369737	0.966426
H127	H	1.269144	-0.094260	0.324477
H128	H	1.769144	0.405740	0.824477
H129	H	1.163352	-0.120418	0.343581
H130	H	1.663352	0.379582	0.843581
H131	H	1.244105	-0.200400	0.343331
H132	H	1.744105	0.299600	0.843331
H133	H	1.216797	-0.066732	0.484067
H134	H	1.716797	0.433268	0.984067
H135	H	1.297572	-0.146706	0.483822
H136	H	1.797572	0.353294	0.983822
