data_functionalizedCrystal
_audit_creation_method	'MofGen! by Chris Wilmer'
_symmetry_space_group_name_H-M	'P1'
_symmetry_Int_Tables_number	1
_symmetry_cell_setting	triclinic
loop_
_symmetry_equiv_pos_as_xyz
  x,y,z
_cell_length_a	16.992695
_cell_length_b	16.109301
_cell_length_c	14.586319
_cell_angle_alpha	90.005214
_cell_angle_beta	89.998424
_cell_angle_gamma	92.935148
loop_
_atom_site_label
_atom_site_type_symbol
_atom_site_fract_x
_atom_site_fract_y
_atom_site_fract_z
O1	O	1.040345	-0.176288	-0.076209
O2	O	0.812060	-0.174354	-0.076219
O3	O	0.932474	-0.054709	-0.076204
O4	O	0.919932	-0.295934	-0.076223
O5	O	0.932466	-0.054706	0.076277
O6	O	0.812052	-0.174352	0.076262
O7	O	1.040337	-0.176286	0.076272
Cu8	Cu	0.926194	-0.175318	0.090190
Cu9	Cu	0.926204	-0.175321	-0.090136
O10	O	0.919923	-0.295931	0.076257
C11	C	0.782844	-0.171865	0.000021
C12	C	0.695802	-0.164441	0.000017
C13	C	0.931962	-0.023699	0.000037
C14	C	0.930439	0.068698	0.000038
C15	C	1.069553	-0.178775	0.000031
C16	C	1.156595	-0.186198	0.000028
C17	C	1.206854	-0.114572	0.000031
C18	C	1.288639	-0.121552	0.000033
C19	C	1.320163	-0.200159	0.000027
C20	C	1.269898	-0.271791	0.000027
C21	C	1.188115	-0.264810	0.000031
C22	C	1.563754	-0.229092	0.000021
C23	C	1.645543	-0.236067	0.000015
C24	C	1.664278	-0.085828	0.000023
C25	C	1.582493	-0.078854	0.000021
C26	C	1.532235	-0.150486	0.000026
N27	N	1.403760	-0.207296	0.000027
N28	N	1.448639	-0.143349	0.000032
C29	C	0.920435	-0.326941	0.000015
C30	C	0.921959	-0.419338	0.000007
N31	N	0.926192	-0.175316	0.217021
C32	C	0.998348	0.286439	0.000026
C33	C	0.996911	0.373256	0.000019
C34	C	0.854044	0.362915	0.000016
C35	C	0.855482	0.276100	0.000017
C36	C	0.927636	0.237865	0.000027
C37	C	0.924761	0.411496	0.000018
C38	C	0.923202	0.505626	0.000010
C39	C	0.929196	0.143729	0.000033
N40	N	0.926211	-0.175317	-0.216968
C41	C	0.979529	-0.122357	0.452034
C42	C	0.979531	-0.122355	0.548016
C43	C	0.872869	-0.228278	0.548012
C44	C	0.872863	-0.228276	0.452033
C45	C	0.926198	-0.175316	0.404046
C46	C	0.926206	-0.175317	0.596007
C47	C	0.926208	-0.175316	0.700074
C48	C	0.926195	-0.175316	0.299972
H49	H	1.329557	-0.063227	0.000039
H50	H	0.795298	0.394057	0.000010
C51	C	1.086205	-0.111405	0.344038
C52	C	1.038112	-0.064117	0.399263
H53	H	1.122362	-0.075439	0.311460
H54	H	1.054442	-0.142958	0.301742
H55	H	1.114437	-0.147881	0.381466
H56	H	1.009875	-0.027646	0.361834
H57	H	1.069879	-0.032550	0.441564
H58	H	1.054491	0.412802	0.000016
H59	H	1.022958	-0.079231	0.587085
H60	H	0.797897	0.236549	0.000015
C61	C	0.766172	-0.239172	0.655970
C62	C	0.814252	-0.286494	0.600767
H63	H	0.729989	-0.275115	0.688541
H64	H	0.737975	-0.202682	0.618536
H65	H	0.797945	-0.207634	0.698282
H66	H	0.782479	-0.318027	0.558450
H67	H	0.842451	-0.322998	0.638204
C68	C	1.233596	0.033229	0.000046
C69	C	1.172207	-0.028164	0.000039
H70	H	1.212206	0.086574	0.000059
H71	H	1.265102	0.027382	-0.053126
H72	H	1.265105	0.027374	0.053222
H73	H	1.140701	-0.022313	-0.053141
H74	H	1.140687	-0.022314	0.053216
C75	C	1.609230	0.068950	0.000049
C76	C	1.547844	0.007553	0.000040
H77	H	1.587837	0.122293	0.000066
H78	H	1.640735	0.063107	-0.053125
H79	H	1.640741	0.063094	0.053223
H80	H	1.516336	0.013405	-0.053137
H81	H	1.516325	0.013399	0.053219
C82	C	1.797965	-0.029817	0.000029
C83	C	1.719524	-0.007095	0.000030
H84	H	1.832069	0.018794	0.000041
H85	H	1.807516	-0.061816	-0.053146
H86	H	1.807510	-0.061827	0.053201
H87	H	1.709977	0.024910	-0.053147
H88	H	1.709969	0.024919	0.053210
H89	H	0.829431	-0.271401	0.412958
H90	H	1.522843	-0.287420	0.000021
C91	C	1.654762	-0.366288	-0.078362
C92	C	1.680201	-0.322476	0.000016
H93	H	1.676158	-0.419631	-0.078356
H94	H	1.672011	-0.336572	-0.131528
H95	H	1.598862	-0.372386	-0.078347
H96	H	1.736102	-0.316373	-0.000002
H97	H	1.662956	-0.352199	0.053196
C98	C	1.386945	-0.349201	0.000013
C99	C	1.304548	-0.358198	0.000021
H100	H	1.408333	-0.402548	0.000002
H101	H	1.404194	-0.319485	0.053184
H102	H	1.404189	-0.319481	-0.053163
H103	H	1.287304	-0.387913	0.053201
H104	H	1.287292	-0.387927	-0.053155
C105	C	1.082855	0.194821	0.078413
C106	C	1.077660	0.244412	0.000027
H107	H	1.131823	0.168883	0.078412
H108	H	1.040955	0.153467	0.078409
H109	H	1.079323	0.228488	0.131580
H110	H	1.081185	0.210745	-0.053140
H111	H	1.119571	0.285771	0.000023
C112	C	1.177805	-0.414014	0.000009
C113	C	1.132867	-0.343543	0.000021
H114	H	1.143696	-0.462621	-0.000001
H115	H	1.210092	-0.413613	0.053178
H116	H	1.210096	-0.413606	-0.053170
H117	H	1.100581	-0.343948	0.053203
H118	H	1.100567	-0.343945	-0.053154
