data_functionalizedCrystal
_audit_creation_method	'MofGen! by Chris Wilmer'
_symmetry_space_group_name_H-M	'P1'
_symmetry_Int_Tables_number	1
_symmetry_cell_setting	triclinic
loop_
_symmetry_equiv_pos_as_xyz
  x,y,z
_cell_length_a	19.077236
_cell_length_b	21.295417
_cell_length_c	19.076919
_cell_angle_alpha	87.732301
_cell_angle_beta	90.112677
_cell_angle_gamma	92.322335
loop_
_atom_site_label
_atom_site_type_symbol
_atom_site_fract_x
_atom_site_fract_y
_atom_site_fract_z
Zn1	Zn	1.058269	-0.228507	0.440524
Zn2	Zn	1.558269	0.271493	0.940524
Zn3	Zn	1.062899	-0.329387	0.323010
Zn4	Zn	1.562899	0.170613	0.823010
Zn5	Zn	0.945484	-0.228177	0.318305
Zn6	Zn	1.445484	0.271823	0.818305
Zn7	Zn	0.940717	-0.337786	0.435748
Zn8	Zn	1.440717	0.162214	0.935748
O9	O	1.001842	-0.280964	0.379397
O10	O	1.501842	0.219036	0.879397
O11	O	1.157217	-0.238513	0.428904
O12	O	1.657217	0.261487	0.928904
O13	O	1.051256	-0.312309	0.224055
O14	O	1.551256	0.187691	0.724055
O15	O	0.960503	-0.140130	0.334547
O16	O	1.460503	0.359870	0.834547
O17	O	1.160619	-0.312629	0.342567
O18	O	1.660619	0.187371	0.842567
O19	O	1.043365	-0.140373	0.424342
O20	O	1.543365	0.359627	0.924342
O21	O	0.964992	-0.237950	0.220598
O22	O	1.464992	0.262050	0.720598
O23	O	0.846518	-0.246093	0.329915
O24	O	1.346518	0.253907	0.829915
O25	O	0.952378	-0.326942	0.534712
O26	O	1.452378	0.173058	1.034712
O27	O	0.843015	-0.326622	0.416200
O28	O	1.343015	0.173378	0.916200
O29	O	1.038742	-0.246656	0.538221
O30	O	1.538742	0.253344	1.038221
O31	O	1.046634	-0.418592	0.337935
O32	O	1.546634	0.081408	0.837935
O33	O	0.956867	-0.424762	0.420763
O34	O	1.456867	0.075238	0.920763
C35	C	0.819270	-0.287234	0.372029
C36	C	1.319270	0.212766	0.872029
C37	C	0.741164	-0.289932	0.368894
C38	C	1.241164	0.210068	0.868894
C39	C	0.702696	-0.252677	0.412441
C40	C	1.202696	0.247323	0.912441
C41	C	0.629308	-0.255209	0.409489
C42	C	1.129308	0.244791	0.909489
C43	C	0.594388	-0.294999	0.362993
C44	C	1.094388	0.205001	0.862993
C45	C	0.632861	-0.332255	0.319442
C46	C	1.132861	0.167745	0.819442
C47	C	0.706248	-0.329719	0.322390
C48	C	1.206248	0.170281	0.822390
C49	C	0.375093	-0.306709	0.349343
C50	C	0.875093	0.193291	0.849343
C51	C	0.301700	-0.309243	0.346399
C52	C	0.801700	0.190757	0.846399
C53	C	0.298153	-0.232196	0.436445
C54	C	0.798153	0.267804	0.936445
C55	C	0.371541	-0.229667	0.439393
C56	C	0.871541	0.270333	0.939393
C57	C	0.410008	-0.266921	0.395839
C58	C	0.910008	0.233079	0.895839
N59	N	0.519373	-0.297589	0.359976
N60	N	1.019373	0.202411	0.859976
N61	N	0.485022	-0.264327	0.398853
N62	N	0.985022	0.235673	0.898853
C63	C	1.001754	-0.444518	0.379358
C64	C	1.501754	0.055482	0.879358
C65	C	1.001780	-0.514485	0.379367
C66	C	1.501780	-0.014485	0.879367
C67	C	1.044899	-0.547423	0.426154
C68	C	1.544899	-0.047423	0.926154
C69	C	1.044923	-0.613165	0.426172
C70	C	1.544923	-0.113165	0.926172
C71	C	1.001836	-0.645967	0.379391
C72	C	1.501836	-0.145967	0.879391
C73	C	0.958708	-0.613021	0.332601
C74	C	1.458708	-0.113021	0.832601
C75	C	0.958680	-0.547280	0.332589
C76	C	1.458680	-0.047280	0.832589
N77	N	0.999002	-0.747112	0.317682
N78	N	1.499002	-0.247112	0.817682
N79	N	0.999033	-0.809563	0.317696
N80	N	1.499033	-0.309563	0.817696
C81	C	1.001917	-0.844040	0.379426
C82	C	1.501917	-0.344040	0.879426
N83	N	1.004782	-0.813706	0.441144
N84	N	1.504782	-0.313706	0.941144
N85	N	1.004755	-0.751249	0.441130
N86	N	1.504755	-0.251249	0.941130
C87	C	1.001861	-0.717251	0.379400
C88	C	1.501861	-0.217251	0.879400
C89	C	1.045064	-0.948263	0.426237
C90	C	1.545064	-0.448263	0.926237
C91	C	1.045083	-1.014006	0.426256
C92	C	1.545083	-0.514006	0.926256
C93	C	0.958872	-1.013861	0.332679
C94	C	1.458872	-0.513861	0.832679
C95	C	0.958849	-0.948118	0.332666
C96	C	1.458849	-0.448118	0.832666
C97	C	1.001949	-0.915323	0.379444
C98	C	1.501949	-0.415323	0.879444
C99	C	1.185128	-0.274671	0.386793
C100	C	1.685128	0.225329	0.886793
C101	C	1.263233	-0.271989	0.389946
C102	C	1.763233	0.228011	0.889946
C103	C	0.994512	-0.287773	0.562676
C104	C	1.494512	0.212227	1.062676
C105	C	0.991388	-0.290674	0.640778
C106	C	1.491388	0.209326	1.140778
C107	C	1.001949	-0.116772	0.379452
C108	C	1.501949	0.383228	0.879452
C109	C	1.001995	-0.046803	0.379476
C110	C	1.501995	0.453197	0.879476
C111	C	1.009184	-0.274136	0.196833
C112	C	1.509184	0.225864	0.696833
C113	C	1.012444	-0.271052	0.118736
C114	C	1.512444	0.228948	0.618736
C115	C	1.034884	-0.250238	0.679299
C116	C	1.534884	0.249762	1.179299
C117	C	1.031940	-0.252962	0.752684
C118	C	1.531940	0.247038	1.252684
C119	C	0.985504	-0.296126	0.787547
C120	C	1.485504	0.203874	1.287547
C121	C	0.942004	-0.336563	0.749021
C122	C	1.442004	0.163437	1.249021
C123	C	0.944944	-0.333836	0.675637
C124	C	1.444944	0.166164	1.175637
C125	C	0.971884	-0.308762	1.006826
C126	C	1.471884	0.191238	1.506826
C127	C	0.968949	-0.311488	1.080215
C128	C	1.468949	0.188512	1.580215
C129	C	1.058885	-0.227886	1.083873
C130	C	1.558885	0.272114	1.583873
C131	C	1.061824	-0.225165	1.010488
C132	C	1.561824	0.274835	1.510488
C133	C	1.018321	-0.265600	0.971968
C134	C	1.518321	0.234400	1.471968
N135	N	0.982496	-0.298912	0.862559
N136	N	1.482496	0.201088	1.362559
N137	N	1.021327	-0.262810	0.896957
N138	N	1.521327	0.237190	1.396957
H139	H	0.406404	-0.337044	0.313879
H140	H	0.906404	0.162956	0.813879
H141	H	0.604423	-0.364649	0.281580
H142	H	1.104423	0.135351	0.781580
H143	H	1.067361	-0.220036	0.784045
H144	H	1.567361	0.279964	1.284045
Br145	Br	0.900325	-0.903414	0.269167
Br146	Br	1.400325	-0.403414	0.769167
H147	H	1.080196	-1.040823	0.464359
H148	H	1.580196	-0.540823	0.964359
Br149	Br	1.124849	-0.166586	0.963179
Br150	Br	1.624849	0.333414	1.463179
Br151	Br	0.900391	-1.058370	0.269193
Br152	Br	1.400391	-0.558370	0.769193
H153	H	0.931133	-0.346639	1.108598
H154	H	1.431133	0.153361	1.608598
Br155	Br	1.097913	-0.191661	0.631992
Br156	Br	1.597913	0.308339	1.131992
Br157	Br	1.103387	-0.502918	0.489642
Br158	Br	1.603387	-0.002918	0.989642
H159	H	1.094301	-0.194965	1.115244
H160	H	1.594301	0.305035	1.615244
Br161	Br	0.912843	-0.363638	0.954558
Br162	Br	1.412843	0.136362	1.454558
H163	H	1.080157	-0.921560	0.464329
H164	H	1.580157	-0.421560	0.964329
Br165	Br	0.878978	-0.395139	0.796334
Br166	Br	1.378978	0.104861	1.296334
H167	H	0.909518	-0.366757	0.644274
H168	H	1.409518	0.133243	1.144274
H169	H	0.923566	-0.520462	0.294488
H170	H	1.423566	-0.020462	0.794488
H171	H	0.737567	-0.360055	0.286929
H172	H	1.237567	0.139945	0.786929
H173	H	0.597990	-0.224874	0.444951
H174	H	1.097990	0.275126	0.944951
Br175	Br	0.750080	-0.198678	0.475550
Br176	Br	1.250080	0.301322	0.975550
H177	H	0.399968	-0.197268	0.477258
H178	H	0.899968	0.302732	0.977258
Br179	Br	0.254308	-0.363266	0.283313
Br180	Br	0.754308	0.136734	0.783313
Br181	Br	1.103450	-0.657876	0.489670
Br182	Br	1.603450	-0.157876	0.989670
Br183	Br	0.900225	-0.657535	0.269118
Br184	Br	1.400225	-0.157535	0.769118
Br185	Br	0.245945	-0.181641	0.495551
Br186	Br	0.745945	0.318359	0.995551
