data_functionalizedCrystal
_audit_creation_method	'MofGen! by Chris Wilmer'
_symmetry_space_group_name_H-M	'P1'
_symmetry_Int_Tables_number	1
_symmetry_cell_setting	triclinic
loop_
_symmetry_equiv_pos_as_xyz
  x,y,z
_cell_length_a	12.827893
_cell_length_b	12.827892
_cell_length_c	21.395355
_cell_angle_alpha	90.013138
_cell_angle_beta	90.022562
_cell_angle_gamma	90.015553
loop_
_atom_site_label
_atom_site_type_symbol
_atom_site_fract_x
_atom_site_fract_y
_atom_site_fract_z
Zn1	Zn	1.597703	-0.416150	0.354252
Zn2	Zn	2.097703	0.083850	0.854252
Zn3	Zn	1.597588	-0.590876	0.249484
Zn4	Zn	2.097588	-0.090876	0.749484
Zn5	Zn	1.422935	-0.416150	0.249492
Zn6	Zn	1.922935	0.083850	0.749492
Zn7	Zn	1.422930	-0.590850	0.354228
Zn8	Zn	1.922930	-0.090850	0.854228
O9	O	1.510289	-0.503506	0.301864
O10	O	2.010289	-0.003506	0.801864
O11	O	1.743924	-0.439338	0.340361
O12	O	2.243924	0.060662	0.840361
O13	O	1.574373	-0.567710	0.161807
O14	O	2.074373	-0.067710	0.661807
O15	O	1.446169	-0.269914	0.263402
O16	O	1.946169	0.230086	0.763402
O17	O	1.743839	-0.567709	0.263388
O18	O	2.243839	-0.067709	0.763388
O19	O	1.574571	-0.269914	0.340368
O20	O	2.074571	0.230086	0.840368
O21	O	1.446056	-0.439339	0.161813
O22	O	1.946056	0.060661	0.661813
O23	O	1.276698	-0.439314	0.263379
O24	O	1.776698	0.060686	0.763379
O25	O	1.446161	-0.567664	0.441909
O26	O	1.946161	-0.067664	0.941909
O27	O	1.276695	-0.567665	0.340328
O28	O	1.776695	-0.067665	0.840328
O29	O	1.574566	-0.439313	0.441926
O30	O	2.074566	0.060687	0.941926
O31	O	1.574368	-0.737109	0.263365
O32	O	2.074368	-0.237109	0.763365
O33	O	1.446048	-0.737089	0.340320
O34	O	1.946048	-0.237089	0.840320
C35	C	1.238779	-0.503487	0.301852
C36	C	1.738779	-0.003487	0.801852
C37	C	1.122626	-0.503504	0.301862
C38	C	1.622626	-0.003504	0.801862
C39	C	1.070883	-0.440095	0.340009
C40	C	1.570883	0.059905	0.840009
C41	C	0.950833	-0.440111	0.340020
C42	C	1.450833	0.059889	0.840020
C43	C	1.510224	-0.775016	0.301853
C44	C	2.010224	-0.275016	0.801853
C45	C	1.510291	-0.891170	0.301869
C46	C	2.010291	-0.391170	0.801869
C47	C	1.573864	-0.942929	0.263832
C48	C	2.073864	-0.442929	0.763832
C49	C	1.573935	-1.062980	0.263847
C50	C	2.073935	-0.562980	0.763847
C51	C	1.782859	-0.503527	0.301876
C52	C	2.282859	-0.003527	0.801876
C53	C	1.899012	-0.503535	0.301881
C54	C	2.399012	-0.003535	0.801881
C55	C	1.510376	-0.503485	0.465287
C56	C	2.010376	-0.003485	0.965287
C57	C	1.510413	-0.503476	0.534928
C58	C	2.010413	-0.003476	1.034928
C59	C	1.510383	-0.230936	0.301889
C60	C	2.010383	0.269064	0.801889
C61	C	1.510423	-0.114783	0.301899
C62	C	2.010423	0.385217	0.801899
C63	C	1.510263	-0.503452	0.139076
C64	C	2.010263	-0.003452	0.639076
C65	C	1.510428	-0.503167	0.069435
C66	C	2.010428	-0.003167	0.569435
C67	C	1.577270	-0.436641	0.567652
C68	C	2.077270	0.063359	1.067652
C69	C	1.577269	-0.436596	0.633087
C70	C	2.077269	0.063404	1.133087
C71	C	1.510421	-0.503405	0.665797
C72	C	2.010421	-0.003405	1.165797
C73	C	1.443550	-0.570245	0.633066
C74	C	1.943550	-0.070245	1.133066
C75	C	1.443546	-0.570281	0.567631
C76	C	1.943546	-0.070281	1.067631
C77	C	1.502147	-0.597499	0.769468
C78	C	2.002147	-0.097499	1.269468
C79	C	1.502158	-0.597465	0.834901
C80	C	2.002158	-0.097465	1.334901
C81	C	1.510427	-0.503295	0.867618
C82	C	2.010427	-0.003295	1.367618
C83	C	1.518707	-0.409155	0.834893
C84	C	2.018707	0.090845	1.334893
C85	C	1.518703	-0.409191	0.769459
C86	C	2.018703	0.090809	1.269459
C87	C	1.510417	-0.503373	0.736749
C88	C	2.010417	-0.003373	1.236749
C89	C	1.577287	-0.436405	0.971293
C90	C	2.077287	0.063595	1.471293
C91	C	1.577278	-0.436358	1.036730
C92	C	2.077278	0.063642	1.536730
C93	C	1.443565	-0.570017	1.036707
C94	C	1.943565	-0.070017	1.536707
C95	C	1.443568	-0.570054	0.971272
C96	C	1.943568	-0.070054	1.471272
C97	C	1.510435	-0.503250	0.938569
C98	C	2.010435	-0.003250	1.438569
H99	H	0.906335	-0.385827	0.372682
H100	H	1.406335	0.114173	0.872682
F101	F	1.648453	-0.365231	1.071557
F102	F	2.148453	0.134769	1.571557
H103	H	1.389098	-0.624705	0.540989
H104	H	1.889098	-0.124705	1.040989
H105	H	1.455922	-0.935733	0.334448
H106	H	1.955922	-0.435733	0.834448
H107	H	1.115461	-0.385792	0.372659
H108	H	1.615461	0.114208	0.872659
H109	H	1.631717	-0.382242	0.541029
H110	H	2.131717	0.117758	1.041029
H111	H	1.631710	-0.382165	0.659736
H112	H	2.131710	0.117835	1.159736
H113	H	0.943503	-0.557831	0.269224
H114	H	1.443503	-0.057831	0.769224
H115	H	1.628359	-1.107492	0.231281
H116	H	2.128359	-0.607492	0.731281
H117	H	1.078048	-0.557801	0.269209
H118	H	1.578048	-0.057801	0.769209
H119	H	1.628242	-0.898368	0.231256
H120	H	2.128242	-0.398368	0.731256
F121	F	1.439273	-1.056613	0.344464
F122	F	1.939273	-0.556613	0.844464
F123	F	1.527509	-0.309004	0.734634
F124	F	2.027509	0.190996	1.234634
H125	H	1.525442	-0.332473	0.861530
H126	H	2.025442	0.167527	1.361530
F127	F	1.648447	-0.365303	0.936486
F128	F	2.148447	0.134697	1.436486
H129	H	1.389125	-0.624404	1.063339
H130	H	1.889125	-0.124404	1.563339
H131	H	1.389132	-0.624485	0.944628
H132	H	1.889132	-0.124485	1.444628
F133	F	1.493355	-0.697656	0.869722
F134	F	1.993355	-0.197656	1.369722
F135	F	1.493369	-0.697737	0.734654
F136	F	1.993369	-0.197737	1.234654
F137	F	1.372402	-0.641345	0.667878
F138	F	1.872402	-0.141345	1.167878
