data_functionalizedCrystal
_audit_creation_method	'MofGen! by Chris Wilmer'
_symmetry_space_group_name_H-M	'P1'
_symmetry_Int_Tables_number	1
_symmetry_cell_setting	triclinic
loop_
_symmetry_equiv_pos_as_xyz
  x,y,z
_cell_length_a	19.188905
_cell_length_b	14.519731
_cell_length_c	13.596369
_cell_angle_alpha	89.993029
_cell_angle_beta	89.987547
_cell_angle_gamma	83.411704
loop_
_atom_site_label
_atom_site_type_symbol
_atom_site_fract_x
_atom_site_fract_y
_atom_site_fract_z
O1	O	0.926573	0.115026	-0.081956
O2	O	0.723315	0.130549	-0.081922
O3	O	0.830325	-0.011484	-0.081931
O4	O	0.819563	0.257059	-0.081947
O5	O	0.830315	-0.011491	0.081652
O6	O	0.723305	0.130542	0.081661
O7	O	0.926562	0.115018	0.081627
Zn8	Zn	0.824932	0.122779	0.107616
Zn9	Zn	0.824946	0.122789	-0.107911
O10	O	0.819552	0.257051	0.081636
C11	C	0.697297	0.130046	-0.000127
C12	C	0.619786	0.128549	-0.000114
C13	C	0.829816	-0.045844	-0.000139
C14	C	0.828305	-0.148214	-0.000138
C15	C	0.583397	0.127834	-0.089285
C16	C	0.510569	0.126416	-0.089297
C17	C	0.474133	0.125696	-0.000133
C18	C	0.510530	0.126416	0.089051
C19	C	0.583356	0.127843	0.089060
N20	N	0.364910	0.070972	0.066227
N21	N	0.295729	0.069615	0.066212
C22	C	0.254711	0.121400	-0.000156
N23	N	0.285490	0.174581	-0.066524
N24	N	0.354678	0.175934	-0.066511
C25	C	0.395165	0.124150	-0.000133
C26	C	0.139353	0.119149	-0.089347
C27	C	0.066522	0.117737	-0.089356
C28	C	0.066486	0.117728	0.088995
C29	C	0.139314	0.119149	0.089001
C30	C	0.175744	0.119855	-0.000173
C31	C	0.952581	0.115521	-0.000171
C32	C	1.030092	0.117018	-0.000190
C33	C	0.827077	-0.231351	-0.000140
C34	C	0.825542	-0.335650	-0.000148
C35	C	0.824325	-0.418781	-0.000154
C36	C	0.822791	-0.523087	-0.000159
C37	C	0.820062	0.291411	-0.000158
C38	C	0.821573	0.393782	-0.000165
N39	N	0.824927	0.122771	0.254708
N40	N	0.824956	0.122788	-0.255003
C41	C	0.824945	0.122790	0.655999
C42	C	0.824938	0.122788	0.544348
C43	C	0.824936	0.122781	0.455357
C44	C	0.824929	0.122778	0.343699
H45	H	0.613054	0.128409	-0.161898
C46	C	0.026417	0.116937	0.187080
C47	C	-0.031488	0.196019	0.211596
C48	C	-0.071560	0.195233	0.309686
C49	C	-0.053727	0.115364	0.383259
C50	C	0.004182	0.036276	0.358744
C51	C	0.044254	0.037063	0.260655
H52	H	-0.044692	0.255148	0.157132
H53	H	-0.114428	0.253779	0.327832
H54	H	-0.083390	0.114782	0.455870
H55	H	0.017386	-0.022852	0.413209
H56	H	0.087122	-0.021484	0.242508
H57	H	0.612983	0.128426	0.161677
H58	H	0.169014	0.119734	-0.161958
H59	H	0.480859	0.125832	0.161649
H60	H	0.036895	0.117161	-0.161973
H61	H	0.168943	0.119725	0.161614
H62	H	0.480935	0.125835	-0.161914
