data_functionalizedCrystal
_audit_creation_method	'MofGen! by Chris Wilmer'
_symmetry_space_group_name_H-M	'P1'
_symmetry_Int_Tables_number	1
_symmetry_cell_setting	triclinic
loop_
_symmetry_equiv_pos_as_xyz
  x,y,z
_cell_length_a	11.792241
_cell_length_b	10.654545
_cell_length_c	9.730223
_cell_angle_alpha	89.997167
_cell_angle_beta	89.999420
_cell_angle_gamma	95.661753
loop_
_atom_site_label
_atom_site_type_symbol
_atom_site_fract_x
_atom_site_fract_y
_atom_site_fract_z
O1	O	-0.159395	1.667391	-0.114260
O2	O	-0.174589	1.301869	-0.114264
O3	O	-0.001842	1.493501	-0.114270
O4	O	-0.332142	1.475760	-0.114253
O5	O	-0.001837	1.493488	0.114310
O6	O	-0.174584	1.301857	0.114316
O7	O	-0.159390	1.667379	0.114320
Zn8	Zn	-0.166987	1.484616	0.150610
Zn9	Zn	-0.166993	1.484632	-0.150554
O10	O	-0.332138	1.475748	0.114326
C11	C	-0.173472	1.255068	0.000025
C12	C	-0.170138	1.115634	0.000023
C13	C	-0.168565	1.050127	0.124623
C14	C	-0.165413	0.919117	0.124623
C15	C	-0.165411	0.919131	-0.124588
C16	C	-0.168555	1.050140	-0.124586
C17	C	-0.374433	1.476868	0.000039
C18	C	-0.500455	1.480204	0.000045
C19	C	-0.731181	1.486337	0.000010
C20	C	-0.602788	1.482929	0.000029
C21	C	0.040454	1.492380	0.000015
C22	C	0.166475	1.489045	0.000000
C23	C	-0.160507	1.714180	0.000028
C24	C	-0.163842	1.853614	0.000022
N25	N	-0.166982	1.484614	0.356147
N26	N	-0.166989	1.484644	-0.356090
C27	C	-0.090522	1.569497	0.428070
C28	C	-0.090522	1.569510	0.571953
C29	C	-0.243452	1.399752	0.571977
C30	C	-0.243446	1.399734	0.428096
H31	H	-0.164133	0.865787	0.226084
H32	H	-0.305709	1.330606	0.369532
H33	H	-0.305709	1.330646	0.630572
H34	H	-0.169832	1.103478	-0.226056
N35	N	-0.170197	1.117007	0.251915
N36	N	-0.168801	1.058496	0.363155
H37	H	-0.169956	1.105725	0.453060
H38	H	-0.028259	1.638610	0.369492
N39	N	-0.012397	1.656201	0.645407
N40	N	0.092529	1.653762	0.629321
H41	H	0.147715	1.714989	0.681193
N42	N	-0.163793	0.852208	-0.251854
N43	N	-0.160987	0.735237	-0.251841
H44	H	-0.159846	0.687973	-0.341725
