data_functionalizedCrystal
_audit_creation_method	'MofGen! by Chris Wilmer'
_symmetry_space_group_name_H-M	'P1'
_symmetry_Int_Tables_number	1
_symmetry_cell_setting	triclinic
loop_
_symmetry_equiv_pos_as_xyz
  x,y,z
_cell_length_a	25.639242
_cell_length_b	25.639239
_cell_length_c	25.639233
_cell_angle_alpha	89.981253
_cell_angle_beta	90.014348
_cell_angle_gamma	89.969010
loop_
_atom_site_label
_atom_site_type_symbol
_atom_site_fract_x
_atom_site_fract_y
_atom_site_fract_z
Zn1	Zn	0.799225	0.208322	0.295633
Zn2	Zn	1.299225	0.708322	0.795633
Zn3	Zn	0.799148	0.295741	0.208198
Zn4	Zn	1.299148	0.795741	0.708198
Zn5	Zn	0.711801	0.208309	0.208209
Zn6	Zn	1.211801	0.708309	0.708209
Zn7	Zn	0.711746	0.295716	0.295599
Zn8	Zn	1.211746	0.795716	0.795599
O9	O	0.755480	0.252022	0.251910
O10	O	1.255480	0.752022	0.751910
O11	O	0.872380	0.219933	0.284044
O12	O	1.372380	0.719933	0.784044
O13	O	0.787553	0.284148	0.135034
O14	O	1.287553	0.784148	0.635034
O15	O	0.723453	0.135146	0.219825
O16	O	1.223453	0.635146	0.719825
O17	O	0.872324	0.284160	0.219805
O18	O	1.372324	0.784160	0.719805
O19	O	0.787683	0.135155	0.284055
O20	O	1.287683	0.635155	0.784055
O21	O	0.723379	0.219912	0.135042
O22	O	1.223379	0.719912	0.635042
O23	O	0.638629	0.219889	0.219792
O24	O	1.138629	0.719889	0.719792
O25	O	0.723360	0.284118	0.368769
O26	O	1.223360	0.784118	0.868769
O27	O	0.638589	0.284106	0.283998
O28	O	1.138589	0.784106	0.783998
O29	O	0.787630	0.219910	0.368794
O30	O	1.287630	0.719910	0.868794
O31	O	0.787499	0.368903	0.219773
O32	O	1.287499	0.868903	0.719773
O33	O	0.723285	0.368885	0.283986
O34	O	1.223285	0.868885	0.783986
C35	C	0.619638	0.251994	0.251893
C36	C	1.119638	0.751994	0.751893
C37	C	0.561524	0.251994	0.251898
C38	C	1.061524	0.751994	0.751898
C39	C	0.310368	0.218639	0.285420
C40	C	0.810368	0.718639	0.785420
C41	C	0.364972	0.218634	0.285417
C42	C	0.864972	0.718634	0.785417
O43	O	0.393240	0.190251	0.313915
O44	O	0.893240	0.690251	0.813915
N45	N	0.392250	0.252016	0.251916
N46	N	0.892250	0.752016	0.751916
C47	C	0.364921	0.285409	0.218419
C48	C	0.864921	0.785409	0.718419
O49	O	0.393137	0.313803	0.189924
O50	O	0.893137	0.813803	0.689924
C51	C	0.310317	0.285417	0.218425
C52	C	0.810317	0.785417	0.718425
C53	C	0.283042	0.252028	0.251925
C54	C	0.783042	0.752028	0.751925
C55	C	0.283092	0.185254	0.318917
C56	C	0.783092	0.685254	0.818917
C57	C	0.228492	0.185258	0.318919
C58	C	0.728492	0.685258	0.818919
C59	C	0.201166	0.218648	0.285424
C60	C	0.701166	0.718648	0.785424
C61	C	0.228442	0.252033	0.251927
C62	C	0.728442	0.752033	0.751927
C63	C	0.282989	0.318812	0.184932
C64	C	0.782989	0.818812	0.684932
C65	C	0.228382	0.318817	0.184941
C66	C	0.728382	0.818817	0.684941
C67	C	0.201107	0.285429	0.218440
C68	C	0.701107	0.785429	0.718440
C69	C	0.146516	0.285427	0.218434
C70	C	0.646516	0.785427	0.718434
N71	N	0.119238	0.252045	0.251935
N72	N	0.619238	0.752045	0.751935
C73	C	0.146563	0.218655	0.285430
C74	C	0.646563	0.718655	0.785430
C75	C	0.479591	0.285392	0.218410
C76	C	0.979591	0.785392	0.718410
C77	C	0.534194	0.285382	0.218401
C78	C	1.034194	0.785382	0.718401
C79	C	0.534241	0.218607	0.285399
C80	C	1.034241	0.718607	0.785399
C81	C	0.479638	0.218614	0.285405
C82	C	0.979638	0.718614	0.785405
C83	C	0.452313	0.252010	0.251911
C84	C	0.952313	0.752010	0.751911
C85	C	0.031898	0.218667	0.285432
C86	C	0.531898	0.718667	0.785432
C87	C	-0.022707	0.218673	0.285430
C88	C	0.477293	0.718673	0.785430
C89	C	-0.022750	0.285450	0.218433
C90	C	0.477250	0.785450	0.718433
C91	C	0.031851	0.285442	0.218433
C92	C	0.531851	0.785442	0.718433
C93	C	0.059173	0.252049	0.251937
C94	C	0.559173	0.752049	0.751937
O95	O	0.118213	0.313797	0.189952
O96	O	0.618213	0.813797	0.689952
O97	O	0.118341	0.190271	0.313925
O98	O	0.618341	0.690271	0.813925
C99	C	0.755392	0.387865	0.251886
C100	C	1.255392	0.887865	0.751886
C101	C	0.755403	0.445979	0.251893
C102	C	1.255403	0.945979	0.751893
C103	C	0.755497	0.252013	0.388283
C104	C	1.255497	0.752013	0.888283
C105	C	0.755504	0.252009	0.446397
C106	C	1.255504	0.752009	0.946397
C107	C	0.891853	0.252051	0.251927
C108	C	1.391853	0.752051	0.751927
C109	C	0.949967	0.252063	0.251934
C110	C	1.449967	0.752063	0.751934
C111	C	0.755583	0.115649	0.251945
C112	C	1.255583	0.615649	0.751945
C113	C	0.755626	0.057535	0.251960
C114	C	1.255626	0.557535	0.751960
C115	C	0.789004	0.806338	0.218531
C116	C	1.289004	1.306338	0.718531
C117	C	0.789024	0.860943	0.218538
C118	C	1.289024	1.360943	0.718538
O119	O	0.817502	0.889177	0.190145
O120	O	1.317502	1.389177	0.690145
N121	N	0.755572	0.888261	0.251944
N122	N	1.255572	1.388261	0.751944
C123	C	0.722102	0.860972	0.285350
C124	C	1.222102	1.360972	0.785350
O125	O	0.693651	0.889223	0.313766
O126	O	1.193651	1.389223	0.813766
C127	C	0.722084	0.806369	0.285345
C128	C	1.222084	1.306369	0.785345
C129	C	0.755535	0.779053	0.251933
C130	C	1.255535	1.279053	0.751933
C131	C	0.822452	0.779023	0.185121
C132	C	1.322452	1.279023	0.685121
C133	C	0.822431	0.724422	0.185114
C134	C	1.322431	1.224422	0.685114
C135	C	0.788962	0.697137	0.218516
C136	C	1.288962	1.197137	0.718516
C137	C	0.755514	0.724453	0.251925
C138	C	1.255514	1.224453	0.751925
C139	C	0.688617	0.779081	0.318753
C140	C	1.188617	1.279081	0.818753
C141	C	0.688603	0.724474	0.318746
C142	C	1.188603	1.224474	0.818746
C143	C	0.722053	0.697159	0.285333
C144	C	1.222053	1.197159	0.785333
C145	C	0.722024	0.642567	0.285320
C146	C	1.222024	1.142567	0.785320
N147	N	0.755475	0.615249	0.251913
N148	N	1.255475	1.115249	0.751913
C149	C	0.788944	0.642534	0.218511
C150	C	1.288944	1.142534	0.718511
C151	C	0.722141	0.975643	0.285358
C152	C	1.222141	1.475643	0.785358
C153	C	0.722155	1.030245	0.285361
C154	C	1.222155	1.530245	0.785361
C155	C	0.789078	1.030212	0.218549
C156	C	1.289078	1.530212	0.718549
C157	C	0.789061	0.975608	0.218544
C158	C	1.289061	1.475608	0.718544
C159	C	0.755593	0.948324	0.251951
C160	C	1.255593	1.448324	0.751951
C161	C	0.788897	0.527869	0.218497
C162	C	1.288897	1.027869	0.718497
C163	C	0.788872	0.473264	0.218491
C164	C	1.288872	0.973264	0.718491
C165	C	0.721951	0.473302	0.285305
C166	C	1.221951	0.973302	0.785305
C167	C	0.721974	0.527902	0.285309
C168	C	1.221974	1.027902	0.785309
C169	C	0.755452	0.555185	0.251904
C170	C	1.255452	1.055185	0.751904
O171	O	0.693562	0.614299	0.313699
O172	O	1.193562	1.114299	0.813699
O173	O	0.817396	0.614277	0.190104
O174	O	1.317396	1.114277	0.690104
C175	C	0.755494	0.251993	0.116067
C176	C	1.255494	0.751993	0.616067
C177	C	0.755588	0.251850	0.057954
C178	C	1.255588	0.751850	0.557954
C179	C	0.789012	0.218476	0.806779
C180	C	1.289012	0.718476	1.306779
C181	C	0.789019	0.218462	0.861383
C182	C	1.289019	0.718462	1.361383
O183	O	0.817466	0.190013	0.889636
O184	O	1.317466	0.690013	1.389636
N185	N	0.755562	0.251886	0.888680
N186	N	1.255562	0.751886	1.388680
C187	C	0.722093	0.285324	0.861369
C188	C	1.222093	0.785324	1.361369
O189	O	0.693636	0.313752	0.889601
O190	O	1.193636	0.813752	1.389601
C191	C	0.722084	0.285335	0.806766
C192	C	1.222084	0.785335	1.306766
C193	C	0.755547	0.251912	0.779472
C194	C	1.255547	0.751912	1.279472
C195	C	0.822472	0.185056	0.779485
C196	C	1.322472	0.685056	1.279485
C197	C	0.822466	0.185071	0.724884
C198	C	1.322466	0.685071	1.224884
C199	C	0.789000	0.218507	0.697578
C200	C	1.289000	0.718507	1.197578
C201	C	0.755541	0.251927	0.724871
C202	C	1.255541	0.751927	1.224871
C203	C	0.688613	0.318770	0.779456
C204	C	1.188613	0.818770	1.279456
C205	C	0.688607	0.318778	0.724849
C206	C	1.188607	0.818778	1.224849
C207	C	0.722069	0.285355	0.697555
C208	C	1.222069	0.785355	1.197555
C209	C	0.722070	0.285379	0.642964
C210	C	1.222070	0.785379	1.142964
N211	N	0.755526	0.251954	0.615667
N212	N	1.255526	0.751954	1.115667
C213	C	0.788992	0.218518	0.642974
C214	C	1.288992	0.718518	1.142974
C215	C	0.722113	0.285297	0.976040
C216	C	1.222113	0.785297	1.476040
C217	C	0.722124	0.285288	1.030642
C218	C	1.222124	0.785288	1.530642
C219	C	0.789049	0.218425	1.030652
C220	C	1.289049	0.718425	1.530652
C221	C	0.789041	0.218437	0.976049
C222	C	1.289041	0.718437	1.476049
C223	C	0.755570	0.251872	0.948743
C224	C	1.255570	0.751872	1.448743
C225	C	0.788977	0.218553	0.528309
C226	C	1.288977	0.718553	1.028309
C227	C	0.788970	0.218573	0.473704
C228	C	1.288970	0.718573	0.973704
C229	C	0.722043	0.285434	0.473698
C230	C	1.222043	0.785434	0.973698
C231	C	0.722052	0.285416	0.528299
C232	C	1.222052	0.785416	1.028299
C233	C	0.755521	0.251971	0.555603
C234	C	1.255521	0.751971	1.055603
O235	O	0.693635	0.313812	0.614677
O236	O	1.193635	0.813812	1.114677
O237	O	0.817439	0.190090	0.614736
O238	O	1.317439	0.690090	1.114736
H239	H	-0.044912	0.191482	0.312709
H240	H	0.455088	0.691482	0.812709
H241	H	0.305335	0.158064	0.346196
H242	H	0.805335	0.658064	0.846196
N243	N	0.654437	0.352924	0.807319
N244	N	1.154437	0.852924	1.307319
N245	N	0.624566	0.382774	0.782921
N246	N	1.124566	0.882774	1.282921
H247	H	0.600429	0.406901	0.802597
H248	H	1.100429	0.906901	1.302597
H249	H	0.661345	0.346000	0.702619
H250	H	1.161345	0.846000	1.202619
H251	H	0.816111	0.451025	0.191281
H252	H	1.316111	0.951025	0.691281
H253	H	0.661350	0.702262	0.345952
H254	H	1.161350	1.202262	0.845952
N255	N	0.687858	0.319592	0.445809
N256	N	1.187858	0.819592	0.945809
N257	N	0.691284	0.367837	0.451901
N258	N	1.191284	0.867837	0.951901
H259	H	0.667139	0.391960	0.432204
H260	H	1.167139	0.891960	0.932204
H261	H	0.305187	0.346001	0.157653
H262	H	0.805187	0.846001	0.657653
N263	N	0.200480	0.352928	0.150717
N264	N	0.700480	0.852928	0.650717
N265	N	0.206570	0.349389	0.102479
N266	N	0.706570	0.849389	0.602479
H267	H	0.186866	0.373479	0.078307
H268	H	0.686866	0.873479	0.578307
N269	N	0.059712	0.319552	0.184219
N270	N	0.559712	0.819552	0.684219
N271	N	0.090166	0.352899	0.202555
N272	N	0.590166	0.852899	0.702555
H273	H	0.109839	0.376994	0.178395
H274	H	0.609839	0.876994	0.678395
H275	H	-0.045008	0.312633	0.191160
H276	H	0.454992	0.812633	0.691160
N277	N	0.823095	0.555724	0.184371
N278	N	1.323095	1.055724	0.684371
N279	N	0.852953	0.531320	0.154544
N280	N	1.352953	1.031320	0.654544
H281	H	0.877103	0.550991	0.130439
H282	H	1.377103	1.050991	0.630439
H283	H	0.694738	0.550144	0.312518
H284	H	1.194738	1.050144	0.812518
N285	N	0.562059	0.319476	0.184177
N286	N	1.062059	0.819476	0.684177
N287	N	0.592526	0.301028	0.150890
N288	N	1.092526	0.801028	0.650890
H289	H	0.612205	0.325109	0.126720
H290	H	1.112205	0.825109	0.626720
H291	H	0.457347	0.312585	0.191130
H292	H	0.957347	0.812585	0.691130
N293	N	0.856604	0.696532	0.150980
N294	N	1.356604	1.196532	0.650980
N295	N	0.886482	0.720910	0.121163
N296	N	1.386482	1.220910	0.621163
H297	H	0.910620	0.701216	0.097056
H298	H	1.410620	1.201216	0.597056
H299	H	0.849714	0.157853	0.702667
H300	H	1.349714	0.657853	1.202667
H301	H	0.054138	0.191475	0.312713
H302	H	0.554138	0.691475	0.812713
H303	H	0.816333	1.052437	0.191353
H304	H	1.316333	1.552437	0.691353
H305	H	0.694883	0.953431	0.312561
H306	H	1.194883	1.453431	0.812561
N307	N	0.856648	0.806880	0.150998
N308	N	1.356648	1.306880	0.650998
N309	N	0.886508	0.782474	0.121175
N310	N	1.386508	1.282474	0.621175
H311	H	0.910660	0.802144	0.097071
H312	H	1.410660	1.302144	0.597071
H313	H	0.661376	0.801312	0.345959
H314	H	1.161376	1.301312	0.845959
H315	H	0.694857	0.312526	0.953811
H316	H	1.194857	0.812526	1.453811
N317	N	0.687772	0.445415	0.319422
N318	N	1.187772	0.945415	0.819422
N319	N	0.706142	0.414913	0.352747
N320	N	1.206142	0.914913	0.852747
H321	H	0.682006	0.395216	0.376845
H322	H	1.182006	0.895216	0.876845
N323	N	0.856661	0.150907	0.807381
N324	N	1.356661	0.650907	1.307381
N325	N	0.856675	0.150896	0.856133
N326	N	1.356675	0.650896	1.356133
H327	H	0.880826	0.126779	0.875832
H328	H	1.380826	0.626779	1.375832
N329	N	0.687946	0.319425	1.058526
N330	N	1.187946	0.819425	1.558526
N331	N	0.687949	0.319411	1.107279
N332	N	1.187949	0.819411	1.607279
H333	H	0.663808	0.343519	1.126972
H334	H	1.163808	0.843519	1.626972
H335	H	0.206289	0.158072	0.346200
H336	H	0.706289	0.658072	0.846200
H337	H	0.816299	0.953371	0.191337
H338	H	1.316299	1.453371	0.691337
H339	H	0.694912	1.052481	0.312564
H340	H	1.194912	1.552481	0.812564
N341	N	0.823159	0.184430	0.445833
N342	N	1.323159	0.684430	0.945833
N343	N	0.853035	0.154579	0.470225
N344	N	1.353035	0.654579	0.970225
H345	H	0.877180	0.130466	0.450543
H346	H	1.377180	0.630466	0.950543
N347	N	0.823165	0.184385	0.556186
N348	N	1.323165	0.684385	1.056186
N349	N	0.853033	0.154549	0.531802
N350	N	1.353033	0.654549	1.031802
H351	H	0.877180	0.130419	0.551489
H352	H	1.377180	0.630419	1.051489
N353	N	0.823225	0.184293	0.948180
N354	N	1.323225	0.684293	1.448180
N355	N	0.853103	0.154446	0.972574
N356	N	1.353103	0.654446	1.472574
H357	H	0.877247	0.130330	0.952894
H358	H	1.377247	0.630330	1.452894
N359	N	0.823224	0.184266	1.058559
N360	N	1.323224	0.684266	1.558559
N361	N	0.804850	0.150942	1.089030
N362	N	1.304850	0.650942	1.589030
H363	H	0.828983	0.126819	1.108741
H364	H	1.328983	0.626819	1.608741
N365	N	0.451787	0.184510	0.319631
N366	N	0.951787	0.684510	0.819631
N367	N	0.476198	0.154703	0.349534
N368	N	0.976198	0.654703	0.849534
H369	H	0.456532	0.130618	0.373711
H370	H	0.956532	0.630618	0.873711
N371	N	0.562167	0.184501	0.319610
N372	N	1.062167	0.684501	0.819610
N373	N	0.610920	0.184504	0.319597
N374	N	1.110920	0.684504	0.819597
H375	H	0.630645	0.160418	0.343756
H376	H	1.130645	0.660418	0.843756
H377	H	0.694809	0.312636	0.550523
H378	H	1.194809	0.812636	1.050523
