data_functionalizedCrystal
_audit_creation_method	'MofGen! by Chris Wilmer'
_symmetry_space_group_name_H-M	'P1'
_symmetry_Int_Tables_number	1
_symmetry_cell_setting	triclinic
loop_
_symmetry_equiv_pos_as_xyz
  x,y,z
_cell_length_a	21.606444
_cell_length_b	14.560438
_cell_length_c	14.560438
_cell_angle_alpha	60.000905
_cell_angle_beta	90.001828
_cell_angle_gamma	60.000244
loop_
_atom_site_label
_atom_site_type_symbol
_atom_site_fract_x
_atom_site_fract_y
_atom_site_fract_z
Zr1	Zr	0.596234	1.005276	-0.120494
O2	O	0.497407	1.196879	-0.267141
O3	O	0.626529	0.813674	-0.075541
O4	O	0.626526	1.005278	-0.267141
O5	O	0.497412	1.005273	0.075601
O6	O	0.728378	1.005278	-0.267139
O7	O	0.497410	1.005275	-0.075540
O8	O	0.728383	0.662534	0.075600
O9	O	0.497407	1.348017	-0.267138
O10	O	0.715461	0.892482	-0.056364
O11	O	0.639452	0.892480	0.056429
O12	O	0.639448	1.118069	-0.169156
O13	O	0.563439	1.118067	-0.056363
Zr14	Zr	0.758680	1.005272	0.120562
Zr15	Zr	0.758676	1.005276	-0.120490
Zr16	Zr	0.596238	1.005272	0.120559
Zr17	Zr	0.596234	1.246323	-0.120489
Zr18	Zr	0.758679	0.764224	0.120558
O19	O	0.728384	1.196873	0.075610
O20	O	0.728378	1.196879	-0.267136
O21	O	0.497412	1.196873	0.075604
O22	O	0.857507	0.813668	0.267210
O23	O	0.857501	0.813674	-0.075535
O24	O	0.626535	0.813669	0.267204
O25	O	0.857501	1.005275	-0.075532
O26	O	0.728387	1.005269	0.267210
O27	O	0.626535	1.005269	0.267208
O28	O	0.857504	1.005272	0.075609
O29	O	0.626527	1.348017	-0.267135
O30	O	0.728387	0.662530	0.267204
O31	O	0.857507	0.662530	0.267207
O32	O	0.857503	0.662533	0.075602
O33	O	0.497410	1.348014	-0.075534
O34	O	0.626530	1.348014	-0.075531
O35	O	0.715465	0.892478	0.169225
O36	O	0.791474	0.892480	0.056432
O37	O	0.715461	1.118067	-0.056360
O38	O	0.639452	1.118065	0.056433
C39	C	0.677456	0.703760	0.000029
C40	C	0.677456	0.601429	0.000027
C41	C	0.717131	0.553354	-0.058850
C42	C	0.717133	0.457194	-0.058840
C43	C	0.637782	0.457198	0.058926
C44	C	0.637784	0.553349	0.058922
C45	C	0.474266	1.005274	0.000030
C46	C	0.405305	1.005274	0.000028
C47	C	0.372906	1.005279	-0.083240
C48	C	0.308112	1.005273	-0.083236
C49	C	0.275716	1.005270	0.000033
C50	C	0.308121	1.005261	0.083309
C51	C	0.372917	1.005259	0.083308
C52	C	0.046807	1.005271	0.083313
C53	C	-0.017994	1.005277	0.083305
C54	C	-0.017998	1.005285	-0.083231
C55	C	0.046798	1.005282	-0.083231
C56	C	0.079200	1.005266	0.000047
C57	C	0.149458	1.005271	0.000043
C58	C	0.205456	1.005275	0.000033
C59	C	0.880647	1.005273	0.000039
C60	C	0.949608	1.005273	0.000041
C61	C	0.677451	1.005279	-0.301485
C62	C	0.677450	1.005281	-0.403818
C63	C	0.677457	1.306788	0.000040
C64	C	0.677457	1.409119	0.000042
C65	C	0.637773	1.123033	-0.510771
C66	C	0.637782	1.123026	-0.606919
C67	C	0.717146	0.887506	-0.489149
C68	C	0.717141	0.887513	-0.393003
C69	C	0.677462	1.005269	0.301554
C70	C	0.677464	1.005267	0.403887
C71	C	0.880647	0.703760	0.000033
C72	C	0.949607	0.601428	0.000033
C73	C	0.677461	0.703755	0.301548
C74	C	0.677463	0.601422	0.403879
C75	C	0.880652	0.703755	0.301553
C76	C	0.949614	0.601422	0.403885
C77	C	0.474262	1.306793	-0.301484
C78	C	0.405299	1.409126	-0.403817
C79	C	0.474267	1.306788	0.000035
C80	C	0.405306	1.409119	0.000036
C81	C	0.677452	1.306793	-0.301479
C82	C	0.677450	1.409125	-0.403810
C83	C	0.942314	0.553374	-0.058856
C84	C	1.007104	0.457236	-0.058879
C85	C	1.079186	0.409148	-0.000005
C86	C	1.086478	0.457213	0.058885
C87	C	1.021689	0.553355	0.058901
C88	C	1.021683	0.553366	0.393065
C89	C	1.086487	0.457227	0.489208
C90	C	1.079220	0.409138	0.596171
C91	C	1.007145	0.457204	0.606989
C92	C	0.942342	0.553348	0.510847
C93	C	0.333231	1.457193	-0.392996
C94	C	0.268427	1.553362	-0.489140
C95	C	0.275693	1.601456	-0.596102
C96	C	0.347769	1.553384	-0.606920
C97	C	0.412571	1.457224	-0.510778
C98	C	0.412599	1.457184	0.058915
C99	C	0.347809	1.553348	0.058911
C100	C	0.275727	1.601439	0.000034
C101	C	0.268435	1.553370	-0.058852
C102	C	0.333224	1.457214	-0.058854
C103	C	0.717141	0.553343	0.510833
C104	C	0.717134	0.457199	0.606980
C105	C	0.637770	0.457219	0.489206
C106	C	0.637773	0.553367	0.393061
H107	H	0.605475	0.592490	0.106871
C108	C	0.491883	1.404301	0.123677
H109	H	0.529432	1.340141	0.115259
H110	H	0.497565	1.473329	0.094595
H111	H	0.497567	1.366791	0.201143
H112	H	0.605454	1.218926	-0.519583
C113	C	0.594167	0.404278	0.123740
H114	H	0.570552	0.446662	0.158826
H115	H	0.556613	0.420008	0.072955
H116	H	0.628441	0.313499	0.179456
C117	C	1.150447	0.303383	-0.000020
H118	H	1.135773	0.281647	-0.043517
H119	H	1.179767	0.334882	-0.031541
H120	H	1.179758	0.228351	0.074998
C121	C	0.189143	1.606270	-0.123601
H122	H	0.151607	1.670408	-0.115149
H123	H	0.183443	1.643787	-0.201066
H124	H	0.183455	1.537242	-0.094510
H125	H	0.399297	1.005252	0.151114
C126	C	0.594125	0.606263	0.275402
H127	H	0.599806	0.670418	0.219694
H128	H	0.613713	0.537247	0.266956
H129	H	0.541921	0.643787	0.266966
C130	C	0.355844	1.606194	0.123700
H131	H	0.408054	1.563758	0.158778
H132	H	0.332228	1.696967	0.072894
H133	H	0.332217	1.590429	0.179421
H134	H	0.883663	0.592462	0.519672
H135	H	0.327275	1.418083	-0.106797
C136	C	1.165760	0.404360	0.477289
H137	H	1.160800	0.446757	0.399814
H138	H	1.192694	0.420123	0.512332
H139	H	1.192686	0.313578	0.512350
C140	C	0.204466	1.707204	0.000049
H141	H	0.219140	1.728927	0.043559
H142	H	0.175148	1.782232	-0.074960
H143	H	0.175154	1.675686	0.031585
H144	H	1.001240	0.418036	0.694090
C145	C	0.760786	0.606219	0.522733
H146	H	0.784408	0.563822	0.600204
H147	H	0.798335	0.590464	0.487678
H148	H	0.726530	0.697000	0.487674
C149	C	0.189153	1.606212	-0.477220
H150	H	0.194113	1.563775	-0.399746
H151	H	0.162222	1.696985	-0.512260
H152	H	0.162225	1.590452	-0.512285
C153	C	0.082433	1.005279	-0.174823
H154	H	0.053860	1.005268	-0.224408
H155	H	0.082330	1.080606	-0.215952
H156	H	0.133094	0.929932	-0.140607
H157	H	-0.044385	1.005292	-0.151039
C158	C	0.760767	0.757983	-0.275346
H159	H	0.755080	0.774857	-0.219635
H160	H	0.741165	0.709615	-0.266927
H161	H	0.812975	0.709578	-0.266884
C162	C	-0.053626	1.005264	0.174909
H163	H	-0.025044	1.005242	0.224514
H164	H	-0.104285	1.080598	0.140708
H165	H	-0.053517	0.929924	0.216031
C166	C	1.029721	0.606190	0.123698
H167	H	1.081931	0.563764	0.158764
H168	H	1.006097	0.696967	0.072899
H169	H	1.006103	0.590404	0.179428
H170	H	1.027613	0.592505	0.305980
C171	C	0.491844	1.404309	-0.522688
H172	H	0.529403	1.340144	-0.450117
H173	H	0.497492	1.366820	-0.562648
H174	H	0.497545	1.473319	-0.562640
C175	C	0.760783	0.404311	0.724626
H176	H	0.784424	0.446697	0.717293
H177	H	0.726538	0.420072	0.764583
H178	H	0.798331	0.313528	0.764577
C179	C	0.594118	0.404353	0.477308
H180	H	0.570481	0.446769	0.399837
H181	H	0.628362	0.313577	0.512365
H182	H	0.556567	0.420123	0.512366
C183	C	0.272471	1.005290	-0.174836
H184	H	0.301038	1.005310	-0.224436
H185	H	0.272576	0.929960	-0.140641
H186	H	0.221808	1.080634	-0.215962
C187	C	1.150507	0.303372	0.701917
H188	H	1.194467	0.281636	0.680143
H189	H	1.150523	0.334871	0.745425
H190	H	1.150518	0.228340	0.745410
H191	H	0.073183	1.005261	0.151120
H192	H	0.605474	1.218912	-0.694002
H193	H	0.327300	1.418041	-0.305911
C194	C	0.760793	0.757973	-0.477261
H195	H	0.755108	0.774831	-0.549840
H196	H	0.812994	0.709586	-0.437307
H197	H	0.741192	0.709595	-0.437313
H198	H	0.883627	0.592526	-0.106811
C199	C	0.204406	1.707212	-0.701848
H200	H	0.160447	1.728932	-0.680075
H201	H	0.204388	1.782244	-0.745359
H202	H	0.204398	1.675683	-0.745338
C203	C	0.999070	0.404369	-0.123647
H204	H	0.946860	0.446766	-0.158686
H205	H	1.022684	0.420134	-0.179378
H206	H	1.022699	0.313587	-0.072820
H207	H	0.353676	1.592554	-0.694020
H208	H	0.749436	0.592496	-0.106804
H209	H	0.399276	1.005289	-0.151050
C210	C	0.272486	1.005262	0.174900
H211	H	0.229251	1.005278	0.162969
H212	H	0.308487	0.929930	0.246781
H213	H	0.257722	1.080603	0.171439
C214	C	0.760778	0.404305	-0.123596
H215	H	0.755106	0.340142	-0.115148
H216	H	0.741186	0.473322	-0.201059
H217	H	0.812982	0.366793	-0.094509
H218	H	1.145176	0.418045	0.106817
