data_functionalizedCrystal
_audit_creation_method	'MofGen! by Chris Wilmer'
_symmetry_space_group_name_H-M	'P1'
_symmetry_Int_Tables_number	1
_symmetry_cell_setting	triclinic
loop_
_symmetry_equiv_pos_as_xyz
  x,y,z
_cell_length_a	11.792241
_cell_length_b	15.995350
_cell_length_c	10.268362
_cell_angle_alpha	89.996947
_cell_angle_beta	89.999626
_cell_angle_gamma	83.842895
loop_
_atom_site_label
_atom_site_type_symbol
_atom_site_fract_x
_atom_site_fract_y
_atom_site_fract_z
O1	O	1.505952	0.114763	-0.108167
O2	O	1.175512	0.126591	-0.108197
O3	O	1.349764	-0.001170	-0.108180
O4	O	1.331699	0.242524	-0.108184
O5	O	1.349749	-0.001175	0.108421
O6	O	1.175497	0.126586	0.108404
O7	O	1.505936	0.114758	0.108434
Cu8	Cu	1.340715	0.120671	0.128196
Cu9	Cu	1.340733	0.120678	-0.127959
O10	O	1.331684	0.242518	0.108417
C11	C	1.133220	0.125845	0.000100
C12	C	1.007224	0.123621	0.000088
C13	C	0.776546	0.119532	0.000126
C14	C	0.904913	0.121804	0.000105
C15	C	1.349010	-0.032370	0.000118
C16	C	1.346771	-0.125331	0.000111
C17	C	1.338730	-0.463115	0.000114
C18	C	1.214630	-0.416244	-0.000383
C19	C	1.216870	-0.319544	0.000106
C20	C	1.342718	-0.295536	0.000112
C21	C	1.403920	-0.336339	0.123804
C22	C	1.400803	-0.432989	0.123908
C23	C	1.403383	-0.433329	-0.122408
C24	C	1.403354	-0.336384	-0.124042
C25	C	1.344979	-0.200829	0.000115
C26	C	1.336473	-0.557823	0.000120
C27	C	1.548229	0.115504	0.000134
C28	C	1.674224	0.117727	0.000137
C29	C	1.332438	0.273719	0.000116
C30	C	1.334677	0.366680	0.000115
N31	N	1.340711	0.120666	0.308362
N32	N	1.340746	0.120676	-0.308125
C33	C	1.340727	0.120676	0.574033
C34	C	1.340715	0.120673	0.426195
H35	H	1.168761	-0.291338	-0.088562
H36	H	1.495129	-0.320605	-0.131506
C37	C	1.346478	-0.298273	0.248156
C38	C	1.244122	-0.230220	0.237722
C39	C	1.186672	-0.192155	0.362070
C40	C	1.231577	-0.222144	0.496853
C41	C	1.333938	-0.290201	0.507292
C42	C	1.391389	-0.328265	0.382944
H43	H	1.210876	-0.208017	0.137944
H44	H	1.110898	-0.141775	0.354342
H45	H	1.189049	-0.193967	0.588902
H46	H	1.367185	-0.312404	0.607071
H47	H	1.467163	-0.378646	0.390673
H48	H	1.362816	-0.454051	-0.216159
H49	H	1.491914	-0.464823	0.129524
C50	C	1.526993	-0.475669	-0.123530
C51	C	1.569112	-0.536967	-0.013871
C52	C	1.692717	-0.579308	-0.014978
C53	C	1.774204	-0.560350	-0.125744
C54	C	1.732086	-0.499048	-0.235411
C55	C	1.608481	-0.456708	-0.234304
H56	H	1.508789	-0.551004	0.068131
H57	H	1.723895	-0.624687	0.066205
H58	H	1.865704	-0.591693	-0.126563
H59	H	1.792409	-0.485012	-0.317413
H60	H	1.577303	-0.411328	-0.315487
H61	H	1.165243	-0.436065	0.087817
C62	C	1.147625	-0.441567	-0.120222
C63	C	1.204768	-0.505117	-0.219100
C64	C	1.137766	-0.530439	-0.338952
C65	C	1.013621	-0.492211	-0.359925
C66	C	0.956471	-0.428657	-0.261044
C67	C	1.023474	-0.403334	-0.141193
H68	H	1.296674	-0.533419	-0.203577
H69	H	1.180072	-0.577487	-0.412150
H70	H	0.964022	-0.510956	-0.448646
H71	H	0.864566	-0.400354	-0.276567
H72	H	0.981167	-0.356287	-0.067995
H73	H	1.358608	-0.309336	-0.215547
H74	H	1.356161	-0.451495	0.216366
H75	H	1.496377	-0.321794	0.128409
C76	C	1.151472	-0.282279	0.120169
C77	C	1.191307	-0.309883	0.257905
C78	C	1.125927	-0.272661	0.378015
C79	C	1.020712	-0.207833	0.360388
C80	C	0.980872	-0.180225	0.222646
C81	C	1.046252	-0.217448	0.102536
H82	H	1.269199	-0.357875	0.270959
H83	H	1.155420	-0.293098	0.479981
H84	H	0.972314	-0.180279	0.449301
H85	H	0.902980	-0.132233	0.209593
H86	H	1.016759	-0.197011	0.000571
