data_functionalizedCrystal
_audit_creation_method	'MofGen! by Chris Wilmer'
_symmetry_space_group_name_H-M	'P1'
_symmetry_Int_Tables_number	1
_symmetry_cell_setting	triclinic
loop_
_symmetry_equiv_pos_as_xyz
  x,y,z
_cell_length_a	14.971486
_cell_length_b	10.268362
_cell_length_c	14.971494
_cell_angle_alpha	90.003567
_cell_angle_beta	83.615843
_cell_angle_gamma	89.999627
loop_
_atom_site_label
_atom_site_type_symbol
_atom_site_fract_x
_atom_site_fract_y
_atom_site_fract_z
O1	O	1.186948	0.108145	0.116563
O2	O	0.926549	0.108180	0.130522
O3	O	1.063724	0.108159	-0.006657
O4	O	1.049773	0.108167	0.253742
O5	O	1.063712	-0.108442	-0.006663
O6	O	0.926537	-0.108420	0.130516
O7	O	1.186936	-0.108455	0.116557
Cu8	Cu	1.056735	-0.128215	0.123536
Cu9	Cu	1.056749	0.127940	0.123543
O10	O	1.049761	-0.108434	0.253736
C11	C	0.893218	-0.000116	0.129895
C12	C	0.793921	-0.000102	0.128024
N13	N	1.056732	-0.308381	0.123531
C14	C	0.736698	-0.000102	0.208613
C15	C	0.643398	-0.000121	0.206850
C16	C	0.607323	-0.000132	0.124497
C17	C	0.664554	-0.000136	0.043902
C18	C	0.757851	-0.000126	0.045666
C19	C	0.470091	-0.000154	0.040231
C20	C	0.376787	-0.000162	0.038466
C21	C	0.355638	-0.000149	0.201415
C22	C	0.448936	-0.000139	0.203179
C23	C	0.506160	-0.000141	0.122583
C24	C	1.056745	-0.574052	0.123541
C25	C	1.056735	-0.426214	0.123538
C26	C	1.220267	-0.000157	0.117184
C27	C	1.319564	-0.000161	0.119055
C28	C	1.063093	-0.000139	-0.039985
C29	C	1.061219	-0.000133	-0.139281
N30	N	1.056760	0.308106	0.123541
C31	C	1.060347	0.117938	-0.185923
C32	C	1.058581	0.117939	-0.279222
C33	C	1.057693	-0.000131	-0.325879
C34	C	1.058562	-0.118210	-0.279230
C35	C	1.060322	-0.118211	-0.185932
C36	C	1.054896	-0.118201	-0.473693
C37	C	1.053138	-0.118201	-0.566998
C38	C	1.053155	0.117949	-0.566983
C39	C	1.054915	0.117949	-0.473685
C40	C	1.055786	-0.000131	-0.427043
C41	C	1.050392	-0.000133	0.287064
C42	C	1.052266	-0.000131	0.386360
H43	H	0.766062	-0.000092	0.275674
Br44	Br	0.547752	-0.000163	-0.069150
Br45	Br	0.565741	-0.000116	0.316225
H46	H	0.804442	-0.000126	-0.019958
H47	H	1.055645	0.214092	-0.435701
Br48	Br	1.061562	0.278185	-0.122614
H49	H	1.052407	-0.214344	-0.604982
Br50	Br	0.615596	-0.000164	-0.067865
H51	H	0.478304	-0.000118	0.270238
Br52	Br	0.277979	-0.000145	0.310795
H53	H	1.057875	0.214084	-0.317194
H54	H	1.052444	0.214094	-0.604963
H55	H	0.347418	-0.000172	-0.028593
Br56	Br	1.056079	-0.278454	-0.410394
H57	H	1.057833	-0.214345	-0.317225
Br58	Br	1.061500	-0.278456	-0.122630
