data_functionalizedCrystal
_audit_creation_method	'MofGen! by Chris Wilmer'
_symmetry_space_group_name_H-M	'P1'
_symmetry_Int_Tables_number	1
_symmetry_cell_setting	triclinic
loop_
_symmetry_equiv_pos_as_xyz
  x,y,z
_cell_length_a	19.077105
_cell_length_b	10.686285
_cell_length_c	19.077174
_cell_angle_alpha	87.730334
_cell_angle_beta	85.483752
_cell_angle_gamma	83.162422
loop_
_atom_site_label
_atom_site_type_symbol
_atom_site_fract_x
_atom_site_fract_y
_atom_site_fract_z
Zn1	Zn	1.119037	-0.613109	-0.416696
Zn2	Zn	1.122575	-0.815290	-0.290516
Zn3	Zn	0.995693	-0.595470	-0.294817
Zn4	Zn	1.009466	-0.815208	-0.403637
O5	O	1.061693	-0.709769	-0.351417
O6	O	1.218463	-0.647346	-0.403623
O7	O	1.101461	-0.778783	-0.192738
O8	O	1.004810	-0.421236	-0.318250
O9	O	1.221062	-0.795887	-0.310919
O10	O	1.095431	-0.434195	-0.407794
O11	O	1.008241	-0.617282	-0.195898
O12	O	0.898564	-0.617202	-0.305587
O13	O	1.028284	-0.795746	-0.503718
O14	O	0.908682	-0.778642	-0.385537
O15	O	1.108785	-0.647266	-0.513312
O16	O	1.114815	-0.991854	-0.298257
O17	O	1.031714	-0.991793	-0.381366
C18	C	0.877965	-0.696000	-0.344612
C19	C	0.799367	-0.690141	-0.341717
C20	C	0.767730	-0.771559	-0.381906
C21	C	0.693879	-0.766037	-0.379189
C22	C	0.651665	-0.679104	-0.336279
C23	C	0.683307	-0.597678	-0.296088
C24	C	0.757157	-0.603194	-0.298809
C25	C	0.430230	-0.653574	-0.323690
C26	C	0.356375	-0.648067	-0.320970
C27	C	0.366952	-0.816425	-0.404073
C28	C	0.440803	-0.821939	-0.406787
C29	C	0.472438	-0.740509	-0.366599
N30	N	0.576177	-0.673461	-0.333500
N31	N	0.547925	-0.746147	-0.369382
C32	C	1.075163	-1.037610	-0.337944
C33	C	1.080992	-1.177868	-0.332206
C34	C	1.246138	-0.723593	-0.358248
C35	C	1.324738	-0.729484	-0.361160
C36	C	1.069676	-0.723464	-0.534729
C37	C	1.073078	-0.729300	-0.612846
C38	C	1.048189	-0.380651	-0.364959
C39	C	1.042435	-0.240401	-0.370730
C40	C	1.026144	-0.647959	-0.651190
C41	C	1.029338	-0.653453	-0.724588
C42	C	1.079470	-0.740283	-0.759641
C43	C	1.126407	-0.821633	-0.721292
C44	C	1.123208	-0.816144	-0.647894
C45	C	1.094236	-0.765720	-0.978979
C46	C	1.097432	-0.771200	-1.052382
C47	C	1.000362	-0.603021	-1.055674
C48	C	0.997171	-0.597535	-0.982275
C49	C	1.044105	-0.678889	-0.943931
N50	N	1.082738	-0.745898	-0.834667
N51	N	1.040834	-0.673279	-0.868907
C52	C	1.053777	-0.696040	-0.168823
C53	C	1.050498	-0.689859	-0.090727
H54	H	0.802095	-0.842353	-0.416846
C55	C	1.196866	-0.802057	-1.137730
C56	C	1.152533	-0.866660	-1.090918
H57	H	1.230882	-0.860989	-1.161518
H58	H	1.169371	-0.754395	-1.171063
H59	H	1.220420	-0.746987	-1.112353
H60	H	1.128975	-0.921724	-1.116295
H61	H	1.180032	-0.914343	-1.057581
C62	C	1.030562	-1.098325	-0.470898
C63	C	0.991858	-1.167832	-0.421190
H64	H	0.999336	-1.053525	-0.502052
H65	H	1.053962	-1.040309	-0.447497
H66	H	1.064628	-1.154009	-0.496865
H67	H	0.957795	-1.112146	-0.395219
H68	H	0.968446	-1.225854	-0.444593
C69	C	0.325865	-0.575635	-0.203726
C70	C	0.309962	-0.552496	-0.273811
H71	H	0.297211	-0.516632	-0.174617
H72	H	0.316796	-0.658699	-0.189433
H73	H	0.374373	-0.567244	-0.199595
H74	H	0.261455	-0.560896	-0.277943
H75	H	0.319026	-0.469412	-0.288108
C76	C	0.976788	-0.420904	-0.906354
C77	C	0.942063	-0.502095	-0.943743
H78	H	0.942766	-0.361979	-0.882570
H79	H	1.004278	-0.468566	-0.873019
H80	H	1.006860	-0.377088	-0.938123
H81	H	0.911994	-0.545918	-0.911974
H82	H	0.914560	-0.454428	-0.977082
H83	H	0.455978	-0.587277	-0.290960
H84	H	0.341186	-0.882719	-0.436792
H85	H	1.167222	-0.892338	-0.749838
H86	H	0.648931	-0.526890	-0.261153
H87	H	0.668124	-0.832337	-0.411915
C88	C	1.200950	-1.224886	-0.300870
C89	C	1.131585	-1.250416	-0.281746
H90	H	1.232184	-1.269662	-0.269716
H91	H	1.214191	-1.250698	-0.347603
H92	H	1.203518	-1.136981	-0.298248
H93	H	1.129016	-1.338321	-0.284373
H94	H	1.118340	-1.224611	-0.235001
H95	H	0.985324	-0.577246	-0.622655
H96	H	0.782914	-0.536889	-0.266087
H97	H	1.132446	-0.831978	-0.947768
H98	H	0.962151	-0.536788	-1.086901
C99	C	0.933079	-0.486649	-0.720470
C100	C	0.977751	-0.564031	-0.766737
H101	H	0.901233	-0.431438	-0.746493
H102	H	0.907036	-0.537452	-0.688579
H103	H	0.960673	-0.438562	-0.694969
H104	H	0.950156	-0.612125	-0.792234
H105	H	1.003796	-0.513222	-0.798640
C106	C	1.165432	-1.030698	-0.617779
C107	C	1.174799	-0.905558	-0.605743
H108	H	1.197284	-1.085902	-0.591759
H109	H	1.118157	-1.044689	-0.603231
H110	H	1.174515	-1.046376	-0.666510
H111	H	1.165711	-0.889877	-0.557013
H112	H	1.222085	-0.891561	-0.620287
C113	C	0.443836	-0.987793	-0.488662
C114	C	0.487201	-0.917496	-0.453957
H115	H	0.472483	-1.046783	-0.517784
H116	H	0.415672	-1.031527	-0.454956
H117	H	0.413953	-0.932740	-0.516791
H118	H	0.517082	-0.972548	-0.425824
H119	H	0.515378	-0.873759	-0.487667
