data_functionalizedCrystal
_audit_creation_method	'MofGen! by Chris Wilmer'
_symmetry_space_group_name_H-M	'P1'
_symmetry_Int_Tables_number	1
_symmetry_cell_setting	triclinic
loop_
_symmetry_equiv_pos_as_xyz
  x,y,z
_cell_length_a	19.805404
_cell_length_b	19.805407
_cell_length_c	19.805399
_cell_angle_alpha	90.018378
_cell_angle_beta	89.971482
_cell_angle_gamma	89.971422
loop_
_atom_site_label
_atom_site_type_symbol
_atom_site_fract_x
_atom_site_fract_y
_atom_site_fract_z
Zn1	Zn	-0.269488	-1.034703	-0.382749
Zn2	Zn	-0.382679	-1.034617	-0.269561
Zn3	Zn	-0.269507	-0.921523	-0.269570
Zn4	Zn	-0.382638	-0.921475	-0.382705
O5	O	-0.326078	-0.978079	-0.326146
O6	O	-0.284512	-1.129408	-0.367749
O7	O	-0.367692	-1.019599	-0.174846
O8	O	-0.174788	-0.936592	-0.284606
O9	O	-0.367673	-1.129345	-0.284590
O10	O	-0.174774	-1.019745	-0.367757
O11	O	-0.284545	-0.936509	-0.174853
O12	O	-0.284505	-0.826800	-0.284564
O13	O	-0.367603	-0.936511	-0.477428
O14	O	-0.367622	-0.826764	-0.367683
O15	O	-0.284472	-1.019699	-0.477460
O16	O	-0.477390	-1.019552	-0.284548
O17	O	-0.477360	-0.936427	-0.367675
C18	C	-0.326062	-0.802223	-0.326120
C19	C	-0.326071	-0.726991	-0.326125
C20	C	-0.369415	-0.691646	-0.369334
C21	C	-0.369415	-0.620958	-0.369342
C22	C	-0.326074	-0.585616	-0.326136
C23	C	-0.282726	-0.620965	-0.282925
C24	C	-0.282723	-0.691653	-0.282921
C25	C	-0.282736	-0.335892	-0.282940
C26	C	-0.282743	-0.265200	-0.282946
C27	C	-0.369428	-0.265197	-0.369361
C28	C	-0.369425	-0.335885	-0.369357
C29	C	-0.326074	-0.371228	-0.326148
C30	C	-0.326074	-0.447877	-0.326141
C31	C	-0.326077	-0.508968	-0.326139
C32	C	-0.501934	-0.977993	-0.326120
C33	C	-0.577166	-0.978018	-0.326132
C34	C	-1.038950	-1.021529	-0.282957
C35	C	-0.968262	-1.021497	-0.282944
C36	C	-0.932928	-0.978168	-0.326182
C37	C	-0.968286	-0.934863	-0.369432
C38	C	-1.038973	-0.934892	-0.369441
C39	C	-0.683213	-0.934745	-0.369395
C40	C	-0.612521	-0.934721	-0.369383
C41	C	-0.612501	-1.021350	-0.282898
C42	C	-0.683188	-1.021379	-0.282907
C43	C	-0.718540	-0.978072	-0.326154
C44	C	-0.795189	-0.978106	-0.326166
C45	C	-0.856281	-0.978137	-0.326173
C46	C	-0.149535	-0.978184	-0.326187
C47	C	-0.074303	-0.978228	-0.326205
C48	C	-0.326031	-0.978109	-0.502689
C49	C	-0.326011	-0.978122	-0.577921
C50	C	-0.326090	-0.154622	-0.326167
C51	C	-0.326084	-0.229854	-0.326159
C52	C	-0.282712	-0.934869	-0.613268
C53	C	-0.282699	-0.934878	-0.683957
C54	C	-0.325982	-0.978144	-0.719297
C55	C	-0.369285	-1.021398	-0.683945
C56	C	-0.369301	-1.021385	-0.613258
C57	C	-0.369222	-1.021452	-0.969018
C58	C	-0.369201	-1.021463	-1.039711
C59	C	-0.282620	-0.934945	-1.039717
C60	C	-0.282636	-0.934932	-0.969030
C61	C	-0.325942	-0.978184	-0.933684
C62	C	-0.325956	-0.978172	-0.857036
C63	C	-0.325964	-0.978160	-0.795944
C64	C	-0.326076	-0.978089	-0.150290
C65	C	-0.325905	-0.978207	-0.075059
H66	H	-1.067714	-1.056816	-0.247751
H67	H	-0.404530	-1.056623	-0.712724
H68	H	-0.939477	-1.056755	-0.247728
H69	H	-0.711954	-1.056664	-0.247700
C70	C	-0.416601	-0.226860	-0.416200
C71	C	-0.483550	-0.244005	-0.401330
C72	C	-0.527024	-0.208699	-0.444457
H73	H	-0.406842	-0.238443	-0.461717
H74	H	-0.410442	-0.179693	-0.410016
H75	H	-0.489706	-0.291162	-0.407520
H76	H	-0.493331	-0.232420	-0.355821
H77	H	-0.520866	-0.161531	-0.438272
H78	H	-0.517259	-0.220284	-0.489971
H79	H	-0.572454	-0.220321	-0.434369
H80	H	-0.247463	-0.899641	-0.584500
H81	H	-0.583710	-1.056611	-0.247682
C82	C	-0.235728	-0.887843	-0.930698
C83	C	-0.250470	-0.820869	-0.947867
C84	C	-0.207279	-0.777469	-0.912563
H85	H	-0.190224	-0.897686	-0.942266
H86	H	-0.241944	-0.893984	-0.883530
H87	H	-0.244248	-0.814731	-0.995024
H88	H	-0.295966	-0.811005	-0.936297
H89	H	-0.213496	-0.783610	-0.865395
H90	H	-0.161778	-0.787318	-0.924133
H91	H	-0.217280	-0.732022	-0.924202
H92	H	-0.711988	-0.899477	-0.404603
H93	H	-0.404450	-1.056697	-1.068482
H94	H	-0.247360	-0.899726	-1.068505
C95	C	-0.574278	-0.887599	-0.416354
C96	C	-0.620367	-0.849665	-0.454217
C97	C	-0.585163	-0.806248	-0.497485
H98	H	-0.546661	-0.913386	-0.445928
H99	H	-0.546758	-0.858082	-0.390442
H100	H	-0.647875	-0.879179	-0.480127
H101	H	-0.647986	-0.823865	-0.424661
H102	H	-0.557643	-0.776730	-0.471573
H103	H	-0.557546	-0.832039	-0.527055
H104	H	-0.616428	-0.780500	-0.523176
H105	H	-0.404554	-1.056611	-0.584479
H106	H	-0.939513	-0.899580	-0.404635
C107	C	-0.235607	-0.226949	-0.236012
C108	C	-0.197627	-0.273030	-0.198184
C109	C	-0.154196	-0.237817	-0.154951
H110	H	-0.261385	-0.199349	-0.206414
H111	H	-0.206119	-0.199410	-0.261948
H112	H	-0.227112	-0.300557	-0.172250
H113	H	-0.171835	-0.300631	-0.227764
H114	H	-0.124708	-0.210279	-0.180887
H115	H	-0.179979	-0.210219	-0.125358
H116	H	-0.128417	-0.269078	-0.129284
C117	C	-1.077237	-0.887856	-0.416472
C118	C	-1.031166	-0.849917	-0.454351
C119	C	-1.066389	-0.806585	-0.497689
H120	H	-1.104858	-0.858333	-0.390631
H121	H	-1.104756	-0.913725	-0.446029
H122	H	-1.003659	-0.824050	-0.424798
H123	H	-1.003544	-0.879423	-0.480206
H124	H	-1.093907	-0.832454	-0.527245
H125	H	-1.094008	-0.777066	-0.471842
H126	H	-1.035135	-0.780843	-0.523399
H127	H	-0.404491	-1.056663	-0.940248
C128	C	-0.416387	-0.729979	-0.416359
C129	C	-0.401721	-0.712829	-0.483354
C130	C	-0.444972	-0.748132	-0.526695
H131	H	-0.461877	-0.718399	-0.406464
H132	H	-0.410174	-0.777147	-0.410214
H133	H	-0.407940	-0.665672	-0.489495
H134	H	-0.356240	-0.724411	-0.493270
H135	H	-0.438759	-0.795300	-0.520551
H136	H	-0.490459	-0.736549	-0.516794
H137	H	-0.435023	-0.736505	-0.572156
C138	C	-0.416367	-0.582552	-0.416338
C139	C	-0.378107	-0.542019	-0.459811
C140	C	-0.421338	-0.506640	-0.503121
H141	H	-0.445839	-0.554898	-0.390474
H142	H	-0.442168	-0.613707	-0.442103
H143	H	-0.352318	-0.510868	-0.434048
H144	H	-0.348637	-0.569657	-0.485690
H145	H	-0.447139	-0.537795	-0.528887
H146	H	-0.450808	-0.478989	-0.477252
H147	H	-0.395385	-0.479139	-0.532627
C148	C	-0.235612	-0.887895	-0.722212
C149	C	-0.197694	-0.850019	-0.676133
C150	C	-0.154302	-0.806736	-0.711348
H151	H	-0.261416	-0.858330	-0.749777
H152	H	-0.206083	-0.913797	-0.749784
H153	H	-0.227219	-0.824119	-0.648572
H154	H	-0.171876	-0.879566	-0.648566
H155	H	-0.124773	-0.832637	-0.738921
H156	H	-0.180111	-0.777175	-0.738912
H157	H	-0.128565	-0.781036	-0.680089
H158	H	-0.247442	-0.364660	-0.247752
C159	C	-0.235643	-0.729908	-0.235929
C160	C	-0.197701	-0.683829	-0.198077
C161	C	-0.154328	-0.719044	-0.154774
H162	H	-0.206123	-0.757509	-0.261794
H163	H	-0.261483	-0.757444	-0.206355
H164	H	-0.171863	-0.656304	-0.227647
H165	H	-0.227203	-0.656226	-0.172198
H166	H	-0.180168	-0.746580	-0.125200
H167	H	-0.124813	-0.746644	-0.180645
H168	H	-0.128584	-0.687785	-0.129082
C169	C	-0.235739	-0.582474	-0.236044
C170	C	-0.245030	-0.513004	-0.245282
C171	C	-0.201763	-0.477526	-0.202100
H172	H	-0.190248	-0.594002	-0.245991
H173	H	-0.245589	-0.593997	-0.190533
H174	H	-0.235175	-0.501485	-0.290783
H175	H	-0.290512	-0.501455	-0.235330
H176	H	-0.211613	-0.489050	-0.156589
H177	H	-0.156274	-0.489060	-0.212051
H178	H	-0.208065	-0.430387	-0.208358
C179	C	-0.416396	-0.374219	-0.416381
C180	C	-0.401730	-0.357068	-0.483377
C181	C	-0.444979	-0.392374	-0.526718
H182	H	-0.461886	-0.362640	-0.406487
H183	H	-0.410181	-0.421387	-0.410237
H184	H	-0.407950	-0.309911	-0.489518
H185	H	-0.356248	-0.368649	-0.493292
H186	H	-0.438764	-0.439541	-0.520573
H187	H	-0.490466	-0.380792	-0.516817
H188	H	-0.435030	-0.380747	-0.572179
