data_functionalizedCrystal
_audit_creation_method	'MofGen! by Chris Wilmer'
_symmetry_space_group_name_H-M	'P1'
_symmetry_Int_Tables_number	1
_symmetry_cell_setting	triclinic
loop_
_symmetry_equiv_pos_as_xyz
  x,y,z
_cell_length_a	16.974800
_cell_length_b	15.944493
_cell_length_c	15.455313
_cell_angle_alpha	92.670512
_cell_angle_beta	90.973911
_cell_angle_gamma	83.432052
loop_
_atom_site_label
_atom_site_type_symbol
_atom_site_fract_x
_atom_site_fract_y
_atom_site_fract_z
O1	O	1.049059	0.107079	0.001549
O2	O	0.819624	0.119907	-0.014563
O3	O	0.940631	-0.008771	-0.006073
O4	O	0.928052	0.235757	-0.006942
O5	O	0.933711	-0.001443	0.137704
O6	O	0.812704	0.127235	0.129214
O7	O	1.042139	0.114407	0.145326
Cu8	Cu	0.926790	0.121490	0.150397
Cu9	Cu	0.934973	0.112824	-0.019635
O10	O	0.921132	0.243085	0.136835
C11	C	0.786805	0.122949	0.055263
C12	C	0.699324	0.121085	0.049119
C13	C	0.654458	0.124201	0.124607
C14	C	0.572261	0.122437	0.118837
C15	C	0.534932	0.117561	0.037578
C16	C	0.579804	0.114442	-0.037916
C17	C	0.662000	0.116200	-0.032145
C18	C	0.289508	0.111867	0.011913
C19	C	0.207306	0.110112	0.006147
C20	C	0.199769	0.118105	0.162901
C21	C	0.281966	0.119869	0.168665
C22	C	0.326832	0.116744	0.093172
N23	N	0.450913	0.115760	0.031677
N24	N	0.410849	0.118540	0.099073
C25	C	0.936657	-0.036404	0.065776
C26	C	0.935116	-0.129656	0.065657
C27	C	1.006343	-0.365251	0.070675
C28	C	0.971344	-0.419521	-0.002911
C29	C	0.932260	-0.300383	0.065467
C30	C	0.964505	-0.412272	0.138840
C31	C	0.929506	-0.465299	0.065287
C32	C	0.897284	-0.353428	-0.008177
C33	C	0.890453	-0.346172	0.133639
C34	C	0.855401	-0.400410	0.060032
C35	C	0.933849	-0.205380	0.065569
C36	C	0.927912	-0.560299	0.065178
C37	C	1.074958	0.111365	0.075497
C38	C	1.162440	0.113228	0.081636
C39	C	0.925106	0.270717	0.064985
C40	C	0.926647	0.363969	0.065098
N41	N	0.921040	0.127585	0.269990
N42	N	0.940729	0.106722	-0.139227
C43	C	0.972466	0.072938	0.318992
C44	C	0.968124	0.077555	0.409495
C45	C	0.912361	0.136823	0.450995
C46	C	0.860930	0.191472	0.401986
C47	C	0.865268	0.186851	0.311484
C48	C	0.893636	0.156750	0.721262
C49	C	0.889304	0.161369	0.811771
C50	C	0.996498	0.047450	0.819274
C51	C	1.000834	0.042837	0.728771
C52	C	0.949401	0.097483	0.679769
N53	N	0.907924	0.141546	0.543504
N54	N	0.953834	0.092756	0.587262
H55	H	0.312354	0.123835	0.234836
H56	H	1.017878	0.024679	0.285210
H57	H	0.815521	0.239727	0.435779
H58	H	1.038373	0.002958	0.859179
O59	O	0.528576	0.125566	0.192101
C60	C	0.471869	0.197473	0.192840
H61	H	0.459851	0.217977	0.123721
H62	H	0.495415	0.251018	0.233312
C63	C	0.409113	0.150810	0.317241
C64	C	0.394348	0.175989	0.232346
H65	H	0.361295	0.137559	0.341613
H66	H	0.447320	0.102366	0.316745
H67	H	0.428737	0.195435	0.350956
H68	H	0.374734	0.131360	0.198629
H69	H	0.356136	0.224425	0.232837
H70	H	1.009999	0.033057	0.449393
O71	O	0.843755	0.209957	0.673719
C72	C	0.855482	0.294275	0.696748
H73	H	0.917384	0.296137	0.726033
H74	H	0.809289	0.321496	0.746231
C75	C	0.771043	0.344805	0.579529
C76	C	0.847075	0.347093	0.615492
H77	H	0.765854	0.377388	0.529409
H78	H	0.763140	0.288000	0.564016
H79	H	0.732558	0.367488	0.620774
H80	H	0.885558	0.324401	0.574251
H81	H	0.854984	0.403896	0.630996
H82	H	0.684844	0.128178	0.190778
O83	O	1.055024	-0.014814	0.688597
C84	C	1.099498	-0.062044	0.751257
H85	H	1.064100	-0.059797	0.813509
H86	H	1.157569	-0.034103	0.764975
C87	C	1.160928	-0.157176	0.640617
C88	C	1.117448	-0.154422	0.717075
H89	H	1.172004	-0.214158	0.619533
H90	H	1.130968	-0.125355	0.598402
H91	H	1.209316	-0.133887	0.652060
H92	H	1.069057	-0.177701	0.705629
H93	H	1.147400	-0.186249	0.759289
O94	O	0.835020	0.218852	0.852042
C95	C	0.758078	0.203836	0.824462
H96	H	0.758907	0.135313	0.799554
H97	H	0.737428	0.247647	0.770313
C98	C	0.699788	0.304976	0.931718
C99	C	0.700805	0.220813	0.901133
H100	H	0.664458	0.315452	0.979011
H101	H	0.751625	0.315096	0.950298
H102	H	0.682582	0.341476	0.886587
H103	H	0.718020	0.184316	0.946261
H104	H	0.648970	0.210688	0.882563
H105	H	0.856309	-0.314229	0.191378
H106	H	0.163231	0.120647	0.224364
H107	H	1.005515	-0.451449	-0.060646
O108	O	0.171172	0.105342	-0.072861
C109	C	0.228393	0.102987	-0.138258
H110	H	0.289148	0.078831	-0.110947
H111	H	0.230019	0.169273	-0.162316
C112	C	0.132012	0.073169	-0.247631
C113	C	0.206631	0.043494	-0.214090
H114	H	0.118588	0.036475	-0.294410
H115	H	0.093460	0.074759	-0.203573
H116	H	0.133377	0.128408	-0.267673
H117	H	0.205263	-0.011738	-0.194039
H118	H	0.245183	0.041894	-0.258146
O119	O	0.333149	0.108959	-0.061361
C120	C	0.371965	0.182427	-0.063352
H121	H	0.378034	0.210388	0.005352
H122	H	0.335882	0.230675	-0.104683
C123	C	0.447454	0.125394	-0.186888
C124	C	0.454914	0.159731	-0.102503
H125	H	0.498619	0.111396	-0.211042
H126	H	0.421301	0.075897	-0.185550
H127	H	0.417382	0.165606	-0.221320
H128	H	0.484977	0.119516	-0.068071
H129	H	0.481074	0.209220	-0.103838
H130	H	0.549405	0.110466	-0.104079
H131	H	0.791540	-0.416025	0.055508
O132	O	1.082483	-0.346446	0.075769
C133	C	1.124864	-0.384101	0.003608
H134	H	1.081599	-0.396194	-0.051569
H135	H	1.159011	-0.446564	0.022231
C136	C	1.236616	-0.309666	0.041932
C137	C	1.183477	-0.324512	-0.025840
H138	H	1.272774	-0.272912	0.023769
H139	H	1.208064	-0.284299	0.090550
H140	H	1.265064	-0.361723	0.057445
H141	H	1.155024	-0.272457	-0.041344
H142	H	1.212026	-0.349869	-0.074462
H143	H	0.868903	-0.327738	-0.070368
O144	O	0.998511	-0.442969	0.212942
C145	C	1.078046	-0.425447	0.218240
H146	H	1.085774	-0.369474	0.177143
H147	H	1.118558	-0.483178	0.193321
C148	C	1.090271	-0.472677	0.363683
C149	C	1.099761	-0.403926	0.313212
H150	H	1.103668	-0.459406	0.422265
H151	H	1.036688	-0.484486	0.360113
H152	H	1.124032	-0.520780	0.342907
H153	H	1.065994	-0.355828	0.333981
H154	H	1.153340	-0.392109	0.316787
O155	O	0.815279	0.240025	0.264012
C156	C	0.765117	0.293315	0.320044
H157	H	0.794332	0.297657	0.386817
H158	H	0.706123	0.266356	0.325576
C159	C	0.714665	0.376747	0.201564
C160	C	0.750551	0.382085	0.283575
H161	H	0.705677	0.431503	0.179068
H162	H	0.748458	0.340843	0.163814
H163	H	0.665508	0.354277	0.206186
H164	H	0.799712	0.404544	0.278951
H165	H	0.716767	0.417995	0.321324
H166	H	0.698529	0.113664	-0.093616
