data_functionalizedCrystal
_audit_creation_method	'MofGen! by Chris Wilmer'
_symmetry_space_group_name_H-M	'P1'
_symmetry_Int_Tables_number	1
_symmetry_cell_setting	triclinic
loop_
_symmetry_equiv_pos_as_xyz
  x,y,z
_cell_length_a	10.654562
_cell_length_b	14.519731
_cell_length_c	9.130313
_cell_angle_alpha	89.997760
_cell_angle_beta	89.996930
_cell_angle_gamma	84.089478
loop_
_atom_site_label
_atom_site_type_symbol
_atom_site_fract_x
_atom_site_fract_y
_atom_site_fract_z
O1	O	1.666592	0.129583	-0.121899
O2	O	1.300999	0.141911	-0.121881
O3	O	1.493475	0.001560	-0.121878
O4	O	1.474116	0.269934	-0.121903
O5	O	1.493472	0.001564	0.121721
O6	O	1.300996	0.141915	0.121717
O7	O	1.666590	0.129586	0.121700
Cu8	Cu	1.483793	0.135751	0.143951
Cu9	Cu	1.483796	0.135747	-0.144133
O10	O	1.474114	0.269937	0.121696
C11	C	1.254208	0.141006	-0.000080
C12	C	1.114792	0.138290	-0.000072
C13	C	1.049272	0.137025	0.132702
C14	C	0.918274	0.134481	0.132678
C15	C	0.918326	0.134470	-0.132907
C16	C	1.049323	0.137008	-0.132881
C17	C	1.114740	0.138308	0.265511
C18	C	1.049220	0.137044	0.398296
C19	C	0.918222	0.134500	0.398272
C20	C	0.852744	0.133219	0.265462
C21	C	1.492566	-0.032802	-0.000078
C22	C	1.489848	-0.135196	-0.000077
C23	C	1.487640	-0.218352	-0.000080
C24	C	1.484880	-0.322675	-0.000091
C25	C	1.482690	-0.405826	-0.000100
C26	C	1.479930	-0.510155	-0.000109
C27	C	1.713380	0.130492	-0.000106
C28	C	1.852797	0.133208	-0.000122
C29	C	1.475022	0.304300	-0.000107
C30	C	1.477740	0.406694	-0.000118
N31	N	1.483800	0.135754	0.346574
N32	N	1.483798	0.135737	-0.346756
C33	C	1.569050	0.073628	0.423227
C34	C	1.569047	0.073617	0.576564
C35	C	1.398539	0.197866	0.576580
C36	C	1.398537	0.197872	0.423246
C37	C	1.654313	0.011510	0.346555
C38	C	1.739571	-0.050621	0.423209
C39	C	1.739567	-0.050632	0.576546
C40	C	1.654306	0.011488	0.653229
H41	H	1.102670	0.138042	-0.240998
C42	C	1.815217	-0.105827	0.188150
C43	C	1.833233	-0.118939	0.338925
H44	H	1.873031	-0.148014	0.136122
H45	H	1.731375	-0.116382	0.163063
H46	H	1.829047	-0.044193	0.163010
H47	H	1.819393	-0.180572	0.364067
H48	H	1.917094	-0.108391	0.364022
C49	C	1.908111	-0.173440	0.561121
C50	C	1.833278	-0.118924	0.660806
H51	H	1.965972	-0.215596	0.613141
H52	H	1.855768	-0.206972	0.501318
H53	H	1.953360	-0.134724	0.501313
H54	H	1.788021	-0.157641	0.720607
H55	H	1.885627	-0.085391	0.720633
C56	C	1.628764	-0.075600	0.872869
C57	C	1.654294	0.011471	0.821780
H58	H	1.628765	-0.075608	0.976923
H59	H	1.548482	-0.088760	0.838180
H60	H	1.691745	-0.121481	0.838168
H61	H	1.591307	0.057351	0.856473
H62	H	1.734586	0.024642	0.856484
H63	H	0.865004	0.133429	-0.241034
H64	H	1.654326	0.011515	0.221700
C65	C	1.181267	0.250519	0.623827
C66	C	1.304830	0.266146	0.660871
H67	H	1.123418	0.292671	0.675873
H68	H	1.169069	0.259420	0.521550
H69	H	1.167510	0.188870	0.648960
H70	H	1.318590	0.327793	0.635728
H71	H	1.317033	0.257252	0.763171
H72	H	0.864880	0.133464	0.506392
C73	C	1.325162	0.357024	0.376021
C74	C	1.304838	0.266164	0.338970
H75	H	1.267317	0.399181	0.323983
H76	H	1.312952	0.365910	0.478300
H77	H	1.408999	0.367603	0.350883
H78	H	1.221003	0.255582	0.364118
H79	H	1.317038	0.257274	0.236669
H80	H	1.102542	0.138080	0.506424
C81	C	0.651174	0.208687	0.193096
C82	C	0.708751	0.130405	0.265419
H83	H	0.562281	0.206944	0.193060
H84	H	0.671334	0.262940	0.242149
H85	H	0.680845	0.209255	0.095018
H86	H	0.679086	0.129840	0.363500
H87	H	0.688580	0.076138	0.216368
C88	C	1.316321	0.062796	0.193273
C89	C	1.258736	0.141093	0.265544
H90	H	1.405217	0.064519	0.193287
H91	H	1.296113	0.008553	0.242329
H92	H	1.286700	0.062225	0.095179
H93	H	1.288350	0.141661	0.363642
H94	H	1.278955	0.195350	0.216491
