data_functionalizedCrystal
_audit_creation_method	'MofGen! by Chris Wilmer'
_symmetry_space_group_name_H-M	'P1'
_symmetry_Int_Tables_number	1
_symmetry_cell_setting	triclinic
loop_
_symmetry_equiv_pos_as_xyz
  x,y,z
_cell_length_a	8.597213
_cell_length_b	10.654550
_cell_length_c	9.130313
_cell_angle_alpha	90.000110
_cell_angle_beta	82.298078
_cell_angle_gamma	95.090338
loop_
_atom_site_label
_atom_site_type_symbol
_atom_site_fract_x
_atom_site_fract_y
_atom_site_fract_z
O1	O	2.084484	-0.187450	-0.384837
O2	O	1.627704	-0.201833	-0.327199
O3	O	1.866596	-0.011958	-0.357338
O4	O	1.845592	-0.377325	-0.354698
O5	O	1.866593	-0.011963	-0.113739
O6	O	1.627701	-0.201838	-0.083599
O7	O	2.084481	-0.187455	-0.141238
Cu8	Cu	1.856091	-0.194647	-0.090176
Cu9	Cu	1.856094	-0.194641	-0.378261
O10	O	1.845589	-0.377330	-0.111099
C11	C	1.569213	-0.200291	-0.198019
C12	C	1.394935	-0.195675	-0.176027
C13	C	1.865053	0.034846	-0.235345
C14	C	1.860438	0.174314	-0.234768
C15	C	2.142972	-0.188996	-0.270422
C16	C	2.317250	-0.193613	-0.292422
C17	C	1.847132	-0.424134	-0.233095
C18	C	1.851747	-0.563601	-0.233681
N19	N	1.856100	-0.194651	0.112445
C20	C	2.001094	0.253053	-0.252513
C21	C	1.996749	0.384097	-0.251975
C22	C	1.711080	0.357649	-0.215940
C23	C	1.715426	0.226608	-0.216489
C24	C	2.166024	0.268324	-0.273310
C25	C	2.161679	0.399368	-0.272772
N26	N	1.856098	-0.194627	-0.580884
C27	C	1.961909	-0.110603	0.175748
C28	C	1.961904	-0.110588	0.329085
C29	C	1.750277	-0.278679	0.355804
C30	C	1.750275	-0.278687	0.202470
C31	C	2.084095	-0.013560	0.160323
C32	C	2.084091	-0.013545	0.313660
H33	H	1.600890	0.162501	-0.202060
H34	H	1.593016	0.400243	-0.201059
H35	H	1.664117	-0.347098	0.429119
C36	C	1.998906	0.190941	0.274391
C37	C	2.032680	0.109891	0.384353
H38	H	1.967192	0.267150	0.318036
H39	H	1.916311	0.151790	0.226287
H40	H	2.090324	0.208867	0.204286
H41	H	1.941258	0.091958	0.454453
H42	H	2.115281	0.149050	0.432481
H43	H	1.384067	-0.195389	-0.408892
H44	H	2.230535	0.238626	-0.383389
C45	C	1.660430	-0.494944	0.166622
C46	C	1.633959	-0.371070	0.132891
H47	H	1.588621	-0.551978	0.123660
H48	H	1.645286	-0.506953	0.270815
H49	H	1.765331	-0.509915	0.128244
H50	H	1.529060	-0.356095	0.171279
H51	H	1.649089	-0.359056	0.028677
C52	C	2.278403	0.321589	-0.051987
C53	C	2.236475	0.219796	-0.140029
H54	H	2.321767	0.291613	0.030364
H55	H	2.187555	0.363477	-0.018060
H56	H	2.354344	0.378700	-0.108554
H57	H	2.160524	0.162689	-0.083464
H58	H	2.327334	0.177888	-0.173955
H59	H	2.198058	-0.044753	0.098383
H60	H	1.328108	-0.193913	-0.059550
C61	C	2.277615	0.367235	-0.522609
C62	C	2.228983	0.460645	-0.423238
H63	H	2.319174	0.405070	-0.615493
H64	H	2.190098	0.308947	-0.534399
H65	H	2.356578	0.324351	-0.485336
H66	H	2.150012	0.503523	-0.460507
H67	H	2.316511	0.518955	-0.411452
H68	H	2.204712	-0.035704	0.340055
H69	H	2.223820	0.440796	-0.178670
H70	H	2.057295	0.083114	0.122087
