data_functionalizedCrystal
_audit_creation_method	'MofGen! by Chris Wilmer'
_symmetry_space_group_name_H-M	'P1'
_symmetry_Int_Tables_number	1
_symmetry_cell_setting	triclinic
loop_
_symmetry_equiv_pos_as_xyz
  x,y,z
_cell_length_a	18.215407
_cell_length_b	12.594516
_cell_length_c	18.215399
_cell_angle_alpha	89.976218
_cell_angle_beta	89.983101
_cell_angle_gamma	90.009275
loop_
_atom_site_label
_atom_site_type_symbol
_atom_site_fract_x
_atom_site_fract_y
_atom_site_fract_z
Zn1	Zn	1.125139	-0.423825	-0.416080
Zn2	Zn	1.375139	-0.173825	-0.166080
Zn3	Zn	1.625139	0.076175	0.083920
Zn4	Zn	1.875139	0.326175	0.333920
Zn5	Zn	1.125075	-0.601823	-0.293022
Zn6	Zn	1.375075	-0.351823	-0.043022
Zn7	Zn	1.625075	-0.101823	0.206978
Zn8	Zn	1.875075	0.148177	0.456978
Zn9	Zn	1.002071	-0.423851	-0.293033
Zn10	Zn	1.252071	-0.173851	-0.043033
Zn11	Zn	1.502071	0.076149	0.206967
Zn12	Zn	1.752071	0.326149	0.456967
Zn13	Zn	1.002065	-0.601754	-0.416053
Zn14	Zn	1.252065	-0.351754	-0.166053
Zn15	Zn	1.502065	-0.101754	0.083947
Zn16	Zn	1.752065	0.148246	0.333947
O17	O	1.063588	-0.512813	-0.354547
O18	O	1.313588	-0.262813	-0.104547
O19	O	1.563588	-0.012813	0.145453
O20	O	1.813588	0.237187	0.395453
O21	O	1.228115	-0.447455	-0.399762
O22	O	1.478115	-0.197455	-0.149762
O23	O	1.728115	0.052545	0.100238
O24	O	1.978115	0.302545	0.350238
O25	O	1.108734	-0.578254	-0.190039
O26	O	1.358734	-0.328254	0.059961
O27	O	1.608734	-0.078254	0.309961
O28	O	1.858734	0.171746	0.559961
O29	O	1.018426	-0.274902	-0.309371
O30	O	1.268426	-0.024902	-0.059371
O31	O	1.518426	0.225098	0.190629
O32	O	1.768426	0.475098	0.440629
O33	O	1.228068	-0.578229	-0.309352
O34	O	1.478068	-0.328229	-0.059352
O35	O	1.728068	-0.078229	0.190648
O36	O	1.978068	0.171771	0.440648
O37	O	1.108843	-0.274883	-0.399773
O38	O	1.358843	-0.024883	-0.149773
O39	O	1.608843	0.225117	0.100227
O40	O	1.858843	0.475117	0.350227
O41	O	1.018364	-0.447498	-0.190047
O42	O	1.268364	-0.197498	0.059953
O43	O	1.518364	0.052502	0.309953
O44	O	1.768364	0.302502	0.559953
O45	O	0.899086	-0.447432	-0.309346
O46	O	1.149086	-0.197432	-0.059346
O47	O	1.399086	0.052568	0.190654
O48	O	1.649086	0.302568	0.440654
O49	O	1.018415	-0.578112	-0.519041
O50	O	1.268415	-0.328112	-0.269041
O51	O	1.518415	-0.078112	-0.019041
O52	O	1.768415	0.171888	0.230959
O53	O	0.899082	-0.578137	-0.399728
O54	O	1.149082	-0.328137	-0.149728
O55	O	1.399082	-0.078137	0.100272
O56	O	1.649082	0.171863	0.350272
O57	O	1.108837	-0.447388	-0.519060
O58	O	1.358837	-0.197388	-0.269060
O59	O	1.608837	0.052612	-0.019060
O60	O	1.858837	0.302612	0.230940
O61	O	1.108729	-0.750759	-0.309327
O62	O	1.358729	-0.500759	-0.059327
O63	O	1.608729	-0.250759	0.190673
O64	O	1.858729	-0.000759	0.440673
O65	O	1.018354	-0.750709	-0.399718
O66	O	1.268354	-0.500709	-0.149718
O67	O	1.518354	-0.250709	0.100282
O68	O	1.768354	-0.000709	0.350282
C69	C	0.872381	-0.512781	-0.354536
C70	C	1.122381	-0.262781	-0.104536
C71	C	1.372381	-0.012781	0.145464
C72	C	1.622381	0.237219	0.395464
C73	C	0.790583	-0.512792	-0.354548
C74	C	1.040583	-0.262792	-0.104548
C75	C	1.290583	-0.012792	0.145452
C76	C	1.540583	0.237208	0.395452
C77	C	1.063554	-0.789354	-0.354534
C78	C	1.313554	-0.539354	-0.104534
C79	C	1.563554	-0.289354	0.145466
C80	C	1.813554	-0.039354	0.395466
C81	C	1.063606	-0.907660	-0.354553
C82	C	1.313606	-0.657660	-0.104553
C83	C	1.563606	-0.407660	0.145447
C84	C	1.813606	-0.157660	0.395447
C85	C	0.525542	-0.580983	-0.401545
C86	C	0.775542	-0.330983	-0.151545
C87	C	1.025542	-0.080983	0.098455
C88	C	1.275542	0.169017	0.348455
C89	C	0.602401	-0.580974	-0.401541
C90	C	0.852401	-0.330974	-0.151541
C91	C	1.102401	-0.080974	0.098459
C92	C	1.352401	0.169026	0.348459
C93	C	0.602375	-0.444667	-0.307563
C94	C	0.852375	-0.194667	-0.057563
C95	C	1.102375	0.055333	0.192437
C96	C	1.352375	0.305333	0.442437
C97	C	0.525517	-0.444683	-0.307563
C98	C	0.775517	-0.194683	-0.057563
C99	C	1.025517	0.055317	0.192437
C100	C	1.275517	0.305317	0.442437
C101	C	0.487103	-0.512839	-0.354558
C102	C	0.737103	-0.262839	-0.104558
C103	C	0.987103	-0.012839	0.145442
C104	C	1.237103	0.237161	0.395442
C105	C	0.640819	-0.512814	-0.354554
C106	C	0.890819	-0.262814	-0.104554
C107	C	1.140819	-0.012814	0.145446
C108	C	1.390819	0.237186	0.395446
C109	C	0.724153	-0.512804	-0.354550
C110	C	0.974153	-0.262804	-0.104550
C111	C	1.224153	-0.012804	0.145450
C112	C	1.474153	0.237196	0.395450
C113	C	0.403764	-0.512851	-0.354562
C114	C	0.653764	-0.262851	-0.104562
C115	C	0.903764	-0.012851	0.145438
C116	C	1.153764	0.237149	0.395438
C117	C	1.112818	-0.976901	-0.305442
C118	C	1.362818	-0.726901	-0.055442
C119	C	1.612818	-0.476901	0.194558
C120	C	1.862818	-0.226901	0.444558
C121	C	1.130801	-1.047606	-0.372613
C122	C	1.380801	-0.797606	-0.122613
C123	C	1.630801	-0.547606	0.127387
C124	C	1.880801	-0.297606	0.377387
C125	C	1.045716	-1.047754	-0.287426
C126	C	1.295716	-0.797754	-0.037426
C127	C	1.545716	-0.547754	0.212574
C128	C	1.795716	-0.297754	0.462574
C129	C	1.081623	-0.976806	-0.421759
C130	C	1.331623	-0.726806	-0.171759
C131	C	1.581623	-0.476806	0.078241
C132	C	1.831623	-0.226806	0.328241
C133	C	0.996507	-0.976948	-0.336527
C134	C	1.246507	-0.726948	-0.086527
C135	C	1.496507	-0.476948	0.163473
C136	C	1.746507	-0.226948	0.413473
C137	C	1.014464	-1.047620	-0.403743
C138	C	1.264464	-0.797620	-0.153743
C139	C	1.514464	-0.547620	0.096257
C140	C	1.764464	-0.297620	0.346257
C141	C	1.255541	-0.512847	-0.354559
C142	C	1.505541	-0.262847	-0.104559
C143	C	1.755541	-0.012847	0.145441
C144	C	2.005541	0.237153	0.395441
C145	C	1.337339	-0.512861	-0.354564
C146	C	1.587339	-0.262861	-0.104564
C147	C	1.837339	-0.012861	0.145436
C148	C	2.087339	0.237139	0.395436
C149	C	1.063632	-0.512740	-0.546500
C150	C	1.313632	-0.262740	-0.296500
C151	C	1.563632	-0.012740	-0.046500
C152	C	1.813632	0.237260	0.203500
C153	C	1.063652	-0.512709	-0.628299
C154	C	1.313652	-0.262709	-0.378299
C155	C	1.563652	-0.012709	-0.128299
C156	C	1.813652	0.237291	0.121701
C157	C	1.063642	-0.235192	-0.354576
C158	C	1.313642	0.014808	-0.104576
C159	C	1.563642	0.264808	0.145424
C160	C	1.813642	0.514808	0.395424
C161	C	1.063665	-0.116887	-0.354588
C162	C	1.313665	0.133113	-0.104588
C163	C	1.563665	0.383113	0.145412
C164	C	1.813665	0.633113	0.395412
C165	C	1.110751	-0.444577	-0.816504
C166	C	1.360751	-0.194577	-0.566504
C167	C	1.610751	0.055423	-0.316504
C168	C	1.860751	0.305423	-0.066504
C169	C	1.110760	-0.444546	-0.893363
C170	C	1.360760	-0.194546	-0.643363
C171	C	1.610760	0.055454	-0.393363
C172	C	1.860760	0.305454	-0.143363
C173	C	1.016604	-0.580675	-0.893332
C174	C	1.266604	-0.330675	-0.643332
C175	C	1.516604	-0.080675	-0.393332
C176	C	1.766604	0.169325	-0.143332
C177	C	1.016592	-0.580700	-0.816474
C178	C	1.266592	-0.330700	-0.566474
C179	C	1.516592	-0.080700	-0.316474
C180	C	1.766592	0.169300	-0.066474
C181	C	1.063670	-0.512653	-0.778063
C182	C	1.313670	-0.262653	-0.528063
C183	C	1.563670	-0.012653	-0.278063
C184	C	1.813670	0.237347	-0.028063
C185	C	1.063691	-0.512597	-0.931779
C186	C	1.313691	-0.262597	-0.681779
C187	C	1.563691	-0.012597	-0.431779
C188	C	1.813691	0.237403	-0.181779
C189	C	1.063700	-0.512564	-1.015113
C190	C	1.313700	-0.262564	-0.765113
C191	C	1.563700	-0.012564	-0.515113
C192	C	1.813700	0.237436	-0.265113
C193	C	1.063660	-0.512684	-0.694724
C194	C	1.313660	-0.262684	-0.444724
C195	C	1.563660	-0.012684	-0.194724
C196	C	1.813660	0.237316	0.055276
C197	C	1.063585	-0.512809	-0.163341
C198	C	1.313585	-0.262809	0.086659
C199	C	1.563585	-0.012809	0.336659
C200	C	1.813585	0.237191	0.586659
C201	C	1.063709	-0.512541	-0.081542
C202	C	1.313709	-0.262541	0.168458
C203	C	1.563709	-0.012541	0.418458
C204	C	1.813709	0.237459	0.668458
H205	H	0.494267	-0.636481	-0.439811
H206	H	0.744267	-0.386481	-0.189811
H207	H	0.994267	-0.136481	0.060189
H208	H	1.244267	0.113519	0.310189
H209	H	0.978248	-0.636135	-0.785174
H210	H	1.228248	-0.386135	-0.535174
H211	H	1.478248	-0.136135	-0.285174
H212	H	1.728248	0.113865	-0.035174
H213	H	1.149083	-0.389165	-0.785232
H214	H	1.399083	-0.139165	-0.535232
H215	H	1.649083	0.110835	-0.285232
H216	H	1.899083	0.360835	-0.035232
O217	O	0.643863	-0.654464	-0.452224
O218	O	0.893863	-0.404464	-0.202224
O219	O	1.143863	-0.154464	0.047776
O220	O	1.393863	0.095536	0.297776
H221	H	0.604236	-0.701849	-0.484905
H222	H	0.854236	-0.451849	-0.234905
H223	H	1.104236	-0.201849	0.015095
H224	H	1.354236	0.048151	0.265095
H225	H	0.633661	-0.389175	-0.269302
H226	H	0.883661	-0.139175	-0.019302
H227	H	1.133661	0.110825	0.230698
H228	H	1.383661	0.360825	0.480698
H229	H	0.939753	-0.945885	-0.321240
H230	H	1.189753	-0.695885	-0.071240
H231	H	1.439753	-0.445885	0.178760
H232	H	1.689753	-0.195885	0.428760
O233	O	0.484049	-0.371177	-0.256885
O234	O	0.734049	-0.121177	-0.006885
O235	O	0.984049	0.128823	0.243115
O236	O	1.234049	0.378823	0.493115
H237	H	0.523672	-0.323769	-0.224215
H238	H	0.773672	-0.073769	0.025785
H239	H	1.023672	0.176231	0.275785
H240	H	1.273672	0.426231	0.525785
O241	O	1.167946	-0.935752	-0.250479
O242	O	1.417946	-0.685752	-0.000479
O243	O	1.667946	-0.435752	0.249521
O244	O	1.917946	-0.185752	0.499521
H245	H	1.223627	-0.964048	-0.265637
H246	H	1.473627	-0.714048	-0.015637
H247	H	1.723627	-0.464048	0.234363
H248	H	1.973627	-0.214048	0.484363
O249	O	1.161544	-0.371129	-0.934828
O250	O	1.411544	-0.121129	-0.684828
O251	O	1.661544	0.128871	-0.434828
O252	O	1.911544	0.378871	-0.184828
H253	H	1.194280	-0.323825	-0.895203
H254	H	1.444280	-0.073825	-0.645203
H255	H	1.694280	0.176175	-0.395203
H256	H	1.944280	0.426175	-0.145203
H257	H	1.096723	-0.945774	-0.478591
H258	H	1.346723	-0.695774	-0.228591
H259	H	1.596723	-0.445774	0.021409
H260	H	1.846723	-0.195774	0.271409
O261	O	1.205998	-1.088724	-0.392837
O262	O	1.455998	-0.838724	-0.142837
O263	O	1.705998	-0.588724	0.107163
O264	O	1.955998	-0.338724	0.357163
H265	H	1.202034	-1.137142	-0.443582
H266	H	1.452034	-0.887142	-0.193582
H267	H	1.702034	-0.637142	0.056418
H268	H	1.952034	-0.387142	0.306418
O269	O	0.965830	-0.654070	-0.934760
O270	O	1.215830	-0.404070	-0.684760
O271	O	1.465830	-0.154070	-0.434760
O272	O	1.715830	0.095930	-0.184760
H273	H	0.973751	-0.642623	-0.994663
H274	H	1.223751	-0.392623	-0.744663
H275	H	1.473751	-0.142623	-0.494663
H276	H	1.723751	0.107377	-0.244663
O277	O	0.959367	-1.088501	-0.458832
O278	O	1.209367	-0.838501	-0.208832
O279	O	1.459367	-0.588501	0.041168
O280	O	1.709367	-0.338501	0.291168
H281	H	0.974415	-1.059928	-0.514489
H282	H	1.224415	-0.809928	-0.264489
H283	H	1.474415	-0.559928	-0.014489
H284	H	1.724415	-0.309928	0.235511
H285	H	1.030559	-1.078917	-0.230643
H286	H	1.280559	-0.828917	0.019357
H287	H	1.530559	-0.578917	0.269357
H288	H	1.780559	-0.328917	0.519357
