data_functionalizedCrystal
_audit_creation_method	'MofGen! by Chris Wilmer'
_symmetry_space_group_name_H-M	'P1'
_symmetry_Int_Tables_number	1
_symmetry_cell_setting	triclinic
loop_
_symmetry_equiv_pos_as_xyz
  x,y,z
_cell_length_a	6.817900
_cell_length_b	12.840946
_cell_length_c	10.773893
_cell_angle_alpha	82.065363
_cell_angle_beta	82.583035
_cell_angle_gamma	88.344365
loop_
_atom_site_label
_atom_site_type_symbol
_atom_site_fract_x
_atom_site_fract_y
_atom_site_fract_z
V1	V	-3.865460	0.282168	0.175535
O2	O	-3.889328	0.320348	-0.005393
O3	O	-3.786068	0.238353	0.345130
O4	O	-3.761315	0.424341	0.174170
O5	O	-3.914253	0.133072	0.166751
V6	V	-4.360327	0.269423	0.153736
O7	O	-4.101834	0.310125	0.223352
O8	O	-4.574150	0.241466	0.105919
O9	O	-4.216512	0.313239	-0.015859
O10	O	-4.453855	0.231244	0.334664
O11	O	-4.428930	0.418519	0.162520
O12	O	-4.241266	0.127251	0.155101
C13	C	-3.625333	0.223094	0.386432
C14	C	-3.641337	0.188217	0.525087
C15	C	-3.827726	0.175479	0.596608
C16	C	-3.842790	0.142724	0.726893
C17	C	-3.671463	0.122700	0.785652
C18	C	-3.485059	0.135443	0.714122
C19	C	-3.469997	0.168205	0.583841
C20	C	-3.593771	0.460340	0.168349
C21	C	-3.589622	0.578471	0.168353
C22	C	-4.055170	-0.026889	0.160970
C23	C	-4.072176	0.091246	0.160942
V24	V	-3.848424	0.768327	0.175571
O25	O	-3.886609	0.921684	0.166802
O26	O	-3.754415	0.621481	0.174190
O27	O	-3.767495	0.768140	0.345166
O28	O	-3.873439	0.774010	-0.005357
V29	V	-4.341345	0.811116	0.153783
O30	O	-4.086733	0.741073	0.223389
O31	O	-4.552439	0.861053	0.105972
O32	O	-4.212541	0.946715	0.155159
O33	O	-4.420349	0.663674	0.162553
O34	O	-4.433520	0.811348	0.334713
O35	O	-4.199461	0.800056	-0.015817
C36	C	-4.040589	0.328494	-0.057154
C37	C	-4.003821	0.363377	-0.195808
C38	C	-3.606313	0.765548	0.386459
C39	C	-3.620983	0.768536	0.525114
C40	C	-4.024579	0.785683	-0.057123
C41	C	-3.989185	0.781658	-0.195780
C42	C	-3.797491	0.773553	0.593015
C43	C	-3.812657	0.776642	0.736322
C44	C	-4.162418	0.376117	-0.267328
C45	C	-4.127895	0.408878	-0.397612
C46	C	-3.934775	0.428903	-0.456372
C47	C	-3.776166	0.416157	-0.384842
C48	C	-3.810689	0.383391	-0.254562
H49	H	-3.318214	0.178568	0.525617
H50	H	-4.129087	0.783670	0.756264
N51	N	-3.982803	0.776224	0.529498
H52	H	-3.945701	0.773642	0.436127
H53	H	-4.067143	0.713648	0.567703
H54	H	-3.906691	0.455583	-0.562455
N55	N	-3.627424	0.773926	0.799932
H56	H	-3.542909	0.836482	0.761900
H57	H	-3.664847	0.776459	0.893284
N58	N	-3.435683	0.765679	0.588667
H59	H	-3.472789	0.768195	0.682052
H60	H	-3.359178	0.698671	0.575791
N61	N	-3.567885	0.437778	-0.448228
H62	H	-3.472633	0.424740	-0.383159
H63	H	-3.533321	0.389692	-0.514713
N64	N	-3.639617	0.369673	-0.177429
H65	H	-3.690767	0.345879	-0.085977
H66	H	-3.544206	0.315148	-0.210117
H67	H	-4.257065	0.419252	-0.455834
N68	N	-4.012529	0.197073	0.533248
H69	H	-4.132878	0.184034	0.598343
H70	H	-4.013410	0.272673	0.492175
N71	N	-4.043845	0.128981	0.804026
H72	H	-4.150082	0.146628	0.747023
H73	H	-4.058542	0.053700	0.845662
H74	H	-4.319680	0.359817	-0.219504
H75	H	-3.683756	0.096024	0.891736
H76	H	-3.345573	0.119135	0.761984
