data_functionalizedCrystal
_audit_creation_method	'MofGen! by Chris Wilmer'
_symmetry_space_group_name_H-M	'P1'
_symmetry_Int_Tables_number	1
_symmetry_cell_setting	triclinic
loop_
_symmetry_equiv_pos_as_xyz
  x,y,z
_cell_length_a	20.299480
_cell_length_b	20.298645
_cell_length_c	20.294903
_cell_angle_alpha	60.007695
_cell_angle_beta	60.015306
_cell_angle_gamma	59.991039
loop_
_atom_site_label
_atom_site_type_symbol
_atom_site_fract_x
_atom_site_fract_y
_atom_site_fract_z
O1	O	0.091305	-0.962534	0.804873
O2	O	0.591305	-0.462534	1.304873
O3	O	0.034397	-0.749399	0.648508
O4	O	0.534397	-0.249399	1.148508
O5	O	0.169355	-0.884263	0.648401
O6	O	0.669355	-0.384263	1.148401
O7	O	-0.043654	-0.827670	0.804979
O8	O	0.456346	-0.327670	1.304979
O9	O	0.214132	-0.839502	0.693072
O10	O	0.714132	-0.339502	1.193072
O11	O	0.079173	-0.704639	0.693178
O12	O	0.579173	-0.204639	1.193178
O13	O	0.136081	-0.917774	0.849544
O14	O	0.636081	-0.417774	1.349544
Zn15	Zn	0.114736	-0.804099	0.778453
Zn16	Zn	0.614736	-0.304099	1.278453
Zn17	Zn	0.055742	-0.863073	0.719598
Zn18	Zn	0.555742	-0.363073	1.219598
O19	O	0.001122	-0.782910	0.849650
O20	O	0.501122	-0.282910	1.349650
N21	N	0.155000	-0.763857	0.818624
N22	N	0.655000	-0.263857	1.318624
N23	N	0.015485	-0.903322	0.679427
N24	N	0.515485	-0.403322	1.179427
C25	C	0.179343	-0.615641	0.842971
C26	C	0.679343	-0.115641	1.342971
C27	C	0.179443	-0.739552	0.966834
C28	C	0.679443	-0.239552	1.466834
C29	C	0.303264	-0.739536	0.842917
C30	C	0.803264	-0.239536	1.342917
C31	C	0.179356	-0.739528	0.842952
C32	C	0.679356	-0.239528	1.342952
C33	C	0.210353	-0.708565	0.873918
C34	C	0.710353	-0.208565	1.373918
C35	C	-0.132622	-0.927446	0.654695
C36	C	0.367378	-0.427446	1.154695
C37	C	-0.008595	-0.927622	0.530981
C38	C	0.491405	-0.427622	1.030981
C39	C	-0.008820	-1.051459	0.654914
C40	C	0.491180	-0.551459	1.154914
C41	C	-0.008800	-0.927618	0.654995
C42	C	0.491200	-0.427618	1.154995
C43	C	-0.039709	-0.958538	0.623897
C44	C	0.460291	-0.458538	1.123897
N45	N	0.376268	-0.763873	0.818558
N46	N	0.876268	-0.263873	1.318558
O47	O	0.652281	-0.777347	0.619856
O48	O	1.152281	-0.277347	1.119856
O49	O	0.652556	-0.934198	0.832777
O50	O	1.152556	-0.434198	1.332777
O51	O	0.652445	-0.933836	0.697731
O52	O	1.152445	-0.433836	1.197731
O53	O	0.652392	-0.777709	0.754902
O54	O	1.152392	-0.277709	1.254902
O55	O	0.518259	-0.889182	0.742556
O56	O	1.018259	-0.389182	1.242556
O57	O	0.518369	-0.889544	0.877602
O58	O	1.018369	-0.389544	1.377602
O59	O	0.518095	-0.732693	0.664680
O60	O	1.018095	-0.232693	1.164680
Zn61	Zn	0.496927	-0.804029	0.778258
Zn62	Zn	0.996927	-0.304029	1.278258
Zn63	Zn	0.673724	-0.862862	0.719200
Zn64	Zn	1.173724	-0.362862	1.219200
O65	O	0.518205	-0.733055	0.799726
O66	O	1.018205	-0.233055	1.299726
N67	N	0.794383	-0.903019	0.678891
N68	N	1.294383	-0.403019	1.178891
N69	N	0.154981	-0.542636	0.818657
N70	N	0.654981	-0.042636	1.318657
O71	O	-0.043628	-0.266455	0.805024
O72	O	0.456372	0.233545	1.305024
O73	O	0.169291	-0.266451	0.648191
O74	O	0.669291	0.233549	1.148191
O75	O	0.034217	-0.266468	0.648577
O76	O	0.534217	0.233532	1.148577
O77	O	0.091446	-0.266438	0.804638
O78	O	0.591446	0.233562	1.304638
O79	O	0.078998	-0.400670	0.693303
O80	O	0.578998	0.099330	1.193303
O81	O	0.214071	-0.400653	0.692918
O82	O	0.714071	0.099347	1.192918
O83	O	0.001152	-0.400657	0.849750
O84	O	0.501152	0.099343	1.349750
Zn85	Zn	0.114722	-0.421963	0.778435
Zn86	Zn	0.614722	0.078037	1.278435
Zn87	Zn	0.055722	-0.245145	0.719506
Zn88	Zn	0.555722	0.254855	1.219506
O89	O	0.136226	-0.400640	0.849364
O90	O	0.636226	0.099360	1.349364
N91	N	0.015453	-0.124472	0.679286
N92	N	0.515453	0.375528	1.179286
N93	N	0.155155	-0.763898	1.039838
N94	N	0.655155	-0.263898	1.539838
O95	O	0.141555	-0.962488	1.315987
O96	O	0.641555	-0.462488	1.815987
O97	O	-0.015254	-0.749480	1.316022
O98	O	0.484746	-0.249480	1.816022
O99	O	-0.014890	-0.884527	1.315962
O100	O	0.485110	-0.384527	1.815962
O101	O	0.141192	-0.827441	1.316047
O102	O	0.641192	-0.327441	1.816047
O103	O	0.029815	-0.839777	1.181768
O104	O	0.529815	-0.339777	1.681768
O105	O	0.029452	-0.704730	1.181828
O106	O	0.529452	-0.204730	1.681828
O107	O	0.186261	-0.917739	1.181793
O108	O	0.686261	-0.417739	1.681793
Zn109	Zn	0.114954	-0.804130	1.160504
Zn110	Zn	0.614954	-0.304130	1.660504
Zn111	Zn	0.056053	-0.863089	1.337311
Zn112	Zn	0.556053	-0.363089	1.837311
O113	O	0.185897	-0.782692	1.181853
O114	O	0.685897	-0.282692	1.681853
N115	N	0.015850	-0.903330	1.457977
N116	N	0.515850	-0.403330	1.957977
C117	C	0.051451	-0.700162	0.649301
C118	C	0.551451	-0.200162	1.149301
C119	C	0.218580	-0.867175	0.649169
C120	C	0.718580	-0.367175	1.149169
C121	C	0.119026	-0.967011	0.848750
C122	C	0.619026	-0.467011	1.348750
C123	C	-0.048103	-0.799998	0.848882
C124	C	0.451897	-0.299998	1.348882
C125	C	0.585495	-0.933471	0.882014
C126	C	1.085495	-0.433471	1.382014
C127	C	0.585361	-0.933023	0.714775
C128	C	1.085361	-0.433023	1.214775
C129	C	0.585151	-0.733419	0.615444
C130	C	1.085151	-0.233419	1.115444
C131	C	0.585291	-0.733869	0.782682
C132	C	1.085291	-0.233869	1.282682
C133	C	0.218449	-0.333386	0.648902
C134	C	0.718449	0.166614	1.148902
C135	C	0.051232	-0.333573	0.649435
C136	C	0.551232	0.166427	1.149435
C137	C	-0.048061	-0.333556	0.848984
C138	C	0.451939	0.166444	1.348984
C139	C	0.119212	-0.333537	0.848507
C140	C	0.619212	0.166463	1.348507
C141	C	-0.014496	-0.700269	1.248929
C142	C	0.485504	-0.200269	1.748929
C143	C	-0.014037	-0.867500	1.248828
C144	C	0.485963	-0.367500	1.748828
C145	C	0.185503	-0.966949	1.248886
C146	C	0.685503	-0.466949	1.748886
C147	C	0.185054	-0.799709	1.248957
C148	C	0.685054	-0.299709	1.748957
H149	H	0.039295	-0.638935	0.600193
H150	H	0.539295	-0.138935	1.100193
H151	H	0.585279	-0.684826	0.794916
H152	H	1.085279	-0.184826	1.294916
H153	H	0.585062	-0.684173	0.554297
H154	H	1.085062	-0.184173	1.054297
H155	H	-0.063051	-0.879692	1.248749
H156	H	0.436949	-0.379692	1.748749
C157	C	-0.081005	-0.617629	1.248943
C158	C	0.418995	-0.117629	1.748943
H159	H	-0.061521	-0.583735	1.248972
H160	H	0.438479	-0.083735	1.748972
H161	H	-0.095675	-0.593476	1.202141
H162	H	0.404325	-0.093476	1.702141
H163	H	-0.126849	-0.624693	1.295740
H164	H	0.373151	-0.124693	1.795740
C165	C	0.301223	-0.883464	0.582738
C166	C	0.801223	-0.383464	1.082738
H167	H	0.301351	-0.836752	0.535847
H168	H	0.801351	-0.336752	1.035847
H169	H	0.342269	-0.896235	0.601261
H170	H	0.842269	-0.396235	1.101261
H171	H	0.311025	-0.927449	0.570112
H172	H	0.811025	-0.427449	1.070112
C173	C	0.252012	-1.049589	1.248871
C174	C	0.752012	-0.549589	1.748871
H175	H	0.232525	-1.083486	1.248852
H176	H	0.732525	-0.583486	1.748852
H177	H	0.297858	-1.042528	1.202082
H178	H	0.797858	-0.542528	1.702082
H179	H	0.266676	-1.073744	1.295681
H180	H	0.766676	-0.573744	1.795681
C181	C	0.135440	-1.049721	0.915093
C182	C	0.635440	-0.549721	1.415093
H183	H	0.188853	-1.083521	0.895449
H184	H	0.688853	-0.583521	1.395449
H185	H	0.129414	-1.042736	0.960960
H186	H	0.629414	-0.542736	1.460960
H187	H	0.098183	-1.073940	0.929787
H188	H	0.598183	-0.573940	1.429787
H189	H	0.131466	-0.333527	0.897533
H190	H	0.631466	0.166473	1.397533
C191	C	0.251301	-0.783215	1.248974
C192	C	0.751301	-0.283215	1.748974
H193	H	0.231584	-0.729779	1.248981
H194	H	0.731584	-0.229779	1.748981
H195	H	0.266012	-0.820445	1.295767
H196	H	0.766012	-0.320445	1.795767
H197	H	0.297177	-0.789233	1.202168
H198	H	0.797177	-0.289233	1.702168
C199	C	0.585386	-0.999284	0.698256
C200	C	1.085386	-0.499284	1.198256
H201	H	0.585459	-1.046261	0.744882
H202	H	1.085459	-0.546261	1.244882
H203	H	0.538568	-0.980667	0.685480
H204	H	1.038568	-0.480667	1.185480
H205	H	0.632162	-1.011816	0.654219
H206	H	1.132162	-0.511816	1.154219
H207	H	0.038975	-0.333574	0.600406
H208	H	0.538975	0.166426	1.100406
C209	C	-0.130750	-0.783708	0.915307
C210	C	0.369250	-0.283708	1.415307
H211	H	-0.164604	-0.730294	0.895737
H212	H	0.335396	-0.230294	1.395737
H213	H	-0.154932	-0.820995	0.930005
H214	H	0.345068	-0.320995	1.430005
H215	H	-0.123700	-0.789773	0.961158
H216	H	0.376300	-0.289773	1.461158
C217	C	-0.130663	-0.333557	0.915501
C218	C	0.369337	0.166443	1.415501
H219	H	-0.164584	-0.333559	0.896021
H220	H	0.335416	0.166441	1.396021
H221	H	-0.123570	-0.380352	0.961354
H222	H	0.376430	0.119648	1.461354
H223	H	-0.154804	-0.286747	0.930155
H224	H	0.345196	0.213253	1.430155
C225	C	0.300879	-0.332874	0.582216
C226	C	0.800879	0.167126	1.082216
H227	H	0.334760	-0.332756	0.601658
H228	H	0.834760	0.167244	1.101658
H229	H	0.325211	-0.379569	0.567336
H230	H	0.825211	0.120431	1.067336
H231	H	0.293517	-0.285966	0.536514
H232	H	0.793517	0.214034	1.036514
H233	H	0.585565	-0.982710	0.943168
H234	H	1.085565	-0.482710	1.443168
