data_functionalizedCrystal
_audit_creation_method	'MofGen! by Chris Wilmer'
_symmetry_space_group_name_H-M	'P1'
_symmetry_Int_Tables_number	1
_symmetry_cell_setting	triclinic
loop_
_symmetry_equiv_pos_as_xyz
  x,y,z
_cell_length_a	12.827893
_cell_length_b	12.827885
_cell_length_c	12.827892
_cell_angle_alpha	89.970214
_cell_angle_beta	90.015363
_cell_angle_gamma	89.980919
loop_
_atom_site_label
_atom_site_type_symbol
_atom_site_fract_x
_atom_site_fract_y
_atom_site_fract_z
Zn1	Zn	1.597670	-0.590843	-0.415983
Zn2	Zn	1.931003	-0.257510	-0.082650
Zn3	Zn	2.264336	0.075823	0.250683
Zn4	Zn	1.597564	-0.416104	-0.590761
Zn5	Zn	1.930897	-0.082770	-0.257427
Zn6	Zn	2.264230	0.250563	0.075906
Zn7	Zn	1.422911	-0.416118	-0.416034
Zn8	Zn	1.756244	-0.082784	-0.082701
Zn9	Zn	2.089578	0.250549	0.250633
Zn10	Zn	1.422896	-0.590804	-0.590683
Zn11	Zn	1.756230	-0.257471	-0.257350
Zn12	Zn	2.089563	0.075862	0.075984
O13	O	1.510260	-0.503467	-0.503365
O14	O	1.843593	-0.170134	-0.170032
O15	O	2.176927	0.163199	0.163301
O16	O	1.743892	-0.567674	-0.439179
O17	O	2.077225	-0.234341	-0.105846
O18	O	2.410558	0.098992	0.227488
O19	O	1.574357	-0.269869	-0.567637
O20	O	1.907691	0.063464	-0.234303
O21	O	2.241024	0.396797	0.099030
O22	O	1.446144	-0.439318	-0.269791
O23	O	1.779477	-0.105984	0.063542
O24	O	2.112810	0.227349	0.396875
O25	O	1.743814	-0.439294	-0.567587
O26	O	2.077147	-0.105960	-0.234254
O27	O	2.410480	0.227373	0.099079
O28	O	1.574538	-0.567688	-0.269754
O29	O	1.907871	-0.234354	0.063579
O30	O	2.241205	0.098979	0.396913
O31	O	1.446041	-0.269880	-0.439266
O32	O	1.779374	0.063454	-0.105932
O33	O	2.112708	0.396787	0.227401
O34	O	1.276673	-0.439280	-0.439190
O35	O	1.610006	-0.105946	-0.105857
O36	O	1.943340	0.227387	0.227476
O37	O	1.446118	-0.737046	-0.567455
O38	O	1.779452	-0.403712	-0.234121
O39	O	2.112785	-0.070379	0.099212
O40	O	1.276662	-0.567621	-0.567504
O41	O	1.609996	-0.234288	-0.234171
O42	O	1.943329	0.099046	0.099163
O43	O	1.574524	-0.737074	-0.439104
O44	O	1.907857	-0.403741	-0.105770
O45	O	2.241190	-0.070408	0.227563
O46	O	1.574343	-0.439256	-0.736986
O47	O	1.907677	-0.105923	-0.403653
O48	O	2.241010	0.227411	-0.070320
O49	O	1.446016	-0.567608	-0.736929
O50	O	1.779349	-0.234274	-0.403596
O51	O	2.112682	0.099059	-0.070263
C52	C	1.238750	-0.503448	-0.503345
C53	C	1.572084	-0.170115	-0.170012
C54	C	1.905417	0.163218	0.163322
C55	C	1.122597	-0.503465	-0.503362
C56	C	1.455930	-0.170132	-0.170028
C57	C	1.789264	0.163202	0.163305
C58	C	1.070774	-0.439854	-0.566804
C59	C	1.404107	-0.106520	-0.233471
C60	C	1.737441	0.226813	0.099862
C61	C	0.950724	-0.439870	-0.566823
C62	C	1.284057	-0.106536	-0.233490
C63	C	1.617390	0.226797	0.099844
C64	C	1.510331	-0.776038	-0.503265
C65	C	1.843665	-0.442704	-0.169932
C66	C	2.176998	-0.109371	0.163402
C67	C	1.510362	-0.892191	-0.503222
C68	C	1.843695	-0.558857	-0.169889
C69	C	2.177028	-0.225524	0.163445
C70	C	1.573907	-0.943990	-0.439697
C71	C	1.907241	-0.610656	-0.106364
C72	C	2.240574	-0.277323	0.226969
C73	C	1.573940	-1.064040	-0.439652
C74	C	1.907274	-0.730707	-0.106319
C75	C	2.240607	-0.397373	0.227015
C76	C	1.782830	-0.503487	-0.503386
C77	C	2.116164	-0.170154	-0.170053
C78	C	2.449497	0.163180	0.163280
C79	C	1.898983	-0.503495	-0.503395
C80	C	2.232317	-0.170162	-0.170062
C81	C	2.565650	0.163171	0.163272
C82	C	1.510195	-0.503449	-0.774875
C83	C	1.843528	-0.170115	-0.441542
C84	C	2.176861	0.163218	-0.108208
C85	C	1.510262	-0.503476	-0.891028
C86	C	1.843596	-0.170142	-0.557695
C87	C	2.176929	0.163191	-0.224362
C88	C	1.510249	-0.231957	-0.503390
C89	C	1.843583	0.101376	-0.170056
C90	C	2.176916	0.434709	0.163277
C91	C	1.510422	-0.115805	-0.503138
C92	C	1.843755	0.217529	-0.169805
C93	C	2.177088	0.550862	0.163529
C94	C	1.573838	-0.440034	-0.942807
C95	C	1.907172	-0.106700	-0.609473
C96	C	2.240505	0.226633	-0.276140
C97	C	1.573910	-0.440060	-1.062857
C98	C	1.907243	-0.106727	-0.729524
C99	C	2.240576	0.226606	-0.396190
C100	C	1.510354	-0.503509	-0.230795
C101	C	1.843688	-0.170175	0.102538
C102	C	2.177021	0.163158	0.435872
C103	C	1.510394	-0.503526	-0.114642
C104	C	1.843728	-0.170193	0.218691
C105	C	2.177061	0.163140	0.552025
H106	H	0.943543	-0.557953	-0.449072
H107	H	1.276876	-0.224620	-0.115739
H108	H	1.610210	0.108713	0.217595
Cl109	Cl	1.426346	-0.587386	-1.045907
Cl110	Cl	1.759679	-0.254053	-0.712573
Cl111	Cl	2.093012	0.079281	-0.379240
Cl112	Cl	1.657944	-0.356192	-1.131599
Cl113	Cl	1.991277	-0.022858	-0.798266
Cl114	Cl	2.324611	0.310475	-0.464932
Cl115	Cl	1.426310	-0.587375	-0.959797
Cl116	Cl	1.759643	-0.254041	-0.626464
Cl117	Cl	2.092977	0.079292	-0.293130
H118	H	1.115283	-0.385386	-0.621110
H119	H	1.448617	-0.052053	-0.287776
H120	H	1.781950	0.281281	0.045557
Cl121	Cl	1.657844	-0.875248	-0.355752
Cl122	Cl	1.991177	-0.541915	-0.022418
Cl123	Cl	2.324511	-0.208581	0.310915
H124	H	0.906157	-0.385408	-0.621136
H125	H	1.239491	-0.052074	-0.287803
H126	H	1.572824	0.281259	0.045530
H127	H	1.078088	-0.557940	-0.449063
H128	H	1.411421	-0.224606	-0.115730
H129	H	1.744755	0.108727	0.217603
H130	H	1.456019	-1.071266	-0.557531
H131	H	1.789352	-0.737932	-0.224197
H132	H	2.122685	-0.404599	0.109136
Cl133	Cl	1.657946	-1.132809	-0.355685
Cl134	Cl	1.991280	-0.799476	-0.022352
Cl135	Cl	2.324613	-0.466143	0.310981
H136	H	1.455975	-0.936721	-0.557567
H137	H	1.789309	-0.603387	-0.224234
H138	H	2.122642	-0.270054	0.109099
Cl139	Cl	1.657803	-0.356147	-0.874038
Cl140	Cl	1.991136	-0.022814	-0.540705
Cl141	Cl	2.324470	0.310519	-0.207371
