data_functionalizedCrystal
_audit_creation_method	'MofGen! by Chris Wilmer'
_symmetry_space_group_name_H-M	'P1'
_symmetry_Int_Tables_number	1
_symmetry_cell_setting	triclinic
loop_
_symmetry_equiv_pos_as_xyz
  x,y,z
_cell_length_a	27.732066
_cell_length_b	18.266242
_cell_length_c	19.188930
_cell_angle_alpha	89.988525
_cell_angle_beta	97.102558
_cell_angle_gamma	90.000403
loop_
_atom_site_label
_atom_site_type_symbol
_atom_site_fract_x
_atom_site_fract_y
_atom_site_fract_z
O1	O	-0.641179	-0.060741	0.083140
O2	O	-0.141179	0.439259	0.583140
O3	O	-0.500425	-0.060776	0.095758
O4	O	-0.000425	0.439224	0.595758
O5	O	-0.574864	-0.060744	-0.012232
O6	O	-0.074864	0.439256	0.487768
O7	O	-0.566740	-0.060774	0.191130
O8	O	-0.066740	0.439226	0.691130
O9	O	-0.574851	0.061018	-0.012238
O10	O	-0.074851	0.561018	0.487762
O11	O	-0.500412	0.060986	0.095753
O12	O	-0.000412	0.560986	0.595753
O13	O	-0.641166	0.061021	0.083134
O14	O	-0.141166	0.561021	0.583134
Zn15	Zn	-0.570787	0.080336	0.089443
Zn16	Zn	-0.070787	0.580336	0.589443
Zn17	Zn	-0.570804	-0.080091	0.089450
Zn18	Zn	-0.070804	0.419909	0.589450
O19	O	-0.566727	0.060988	0.191125
O20	O	-0.066727	0.560988	0.691125
C21	C	-0.482411	0.000100	0.095489
C22	C	0.017589	0.500100	0.595489
C23	C	-0.428754	0.000088	0.094685
C24	C	0.071246	0.500088	0.594685
C25	C	-0.051470	0.000130	0.025398
C26	C	0.448530	0.500130	0.525398
C27	C	-0.253139	0.000116	0.028355
C28	C	0.246861	0.500116	0.528355
O29	O	-0.284227	0.000152	-0.025407
O30	O	0.215773	0.500152	0.474593
N31	N	-0.272462	0.000103	0.092392
N32	N	0.227538	0.500103	0.592392
C33	C	-0.241365	0.000099	0.155694
C34	C	0.258635	0.500099	0.655694
O35	O	-0.262428	0.000096	0.210230
O36	O	0.237572	0.500096	0.710230
C37	C	-0.039697	0.000119	0.152736
C38	C	0.460303	0.500119	0.652736
C39	C	-0.020376	0.000124	0.088695
C40	C	0.479624	0.500124	0.588695
C41	C	-0.032149	0.000135	-0.038638
C42	C	0.467851	0.500135	0.461362
C43	C	0.018265	0.000135	-0.039377
C44	C	0.518265	0.500135	0.460623
C45	C	0.049359	0.000129	0.023921
C46	C	0.549359	0.500129	0.523921
C47	C	0.030038	0.000123	0.087957
C48	C	0.530038	0.500123	0.587957
C49	C	-0.008600	0.000120	0.216038
C50	C	0.491400	0.500120	0.716038
C51	C	0.041820	0.000127	0.215292
C52	C	0.541820	0.500127	0.715292
C53	C	0.061140	0.000131	0.151251
C54	C	0.561140	0.500131	0.651251
C55	C	0.111546	0.000116	0.150515
C56	C	0.611546	0.500116	0.650515
N57	N	0.130869	0.000129	0.086478
N58	N	0.630869	0.500129	0.586478
C59	C	0.099775	0.000135	0.023181
C60	C	0.599775	0.500135	0.523181
C61	C	-0.347244	0.000088	0.157243
C62	C	0.152756	0.500088	0.657243
C63	C	-0.397661	0.000082	0.157983
C64	C	0.102339	0.500082	0.657983
C65	C	-0.409432	0.000099	0.030643
C66	C	0.090568	0.500099	0.530643
C67	C	-0.359014	0.000100	0.029904
C68	C	0.140986	0.500100	0.529904
C69	C	-0.327921	0.000100	0.093206
C70	C	0.172079	0.500100	0.593206
C71	C	0.205650	0.000133	0.021635
C72	C	0.705650	0.500133	0.521635
C73	C	0.256069	0.000130	0.020902
C74	C	0.756069	0.500130	0.520902
C75	C	0.267835	0.000116	0.148240
C76	C	0.767835	0.500116	0.648240
C77	C	0.217420	0.000116	0.148974
C78	C	0.717420	0.500116	0.648974
C79	C	0.186328	0.000127	0.085665
C80	C	0.686328	0.500127	0.585665
O81	O	0.142662	0.000088	0.204248
O82	O	0.642662	0.500088	0.704248
O83	O	0.120848	0.000154	-0.031346
O84	O	0.620848	0.500154	0.468654
C85	C	-0.101884	0.000130	0.026137
C86	C	0.398116	0.500130	0.526137
C87	C	-0.121205	0.000124	0.090173
C88	C	0.378795	0.500124	0.590173
C89	C	-0.090112	0.000118	0.153470
C90	C	0.409888	0.500118	0.653470
C91	C	-0.171622	0.000118	0.090912
C92	C	0.328378	0.500118	0.590912
C93	C	-0.202715	0.000124	0.027615
C94	C	0.297285	0.500124	0.527615
C95	C	-0.183392	0.000137	-0.036422
C96	C	0.316608	0.500137	0.463578
C97	C	-0.132978	0.000136	-0.037161
C98	C	0.367022	0.500136	0.462839
C99	C	-0.109435	0.000106	0.217507
C100	C	0.390565	0.500106	0.717507
C101	C	-0.159850	0.000106	0.218240
C102	C	0.340150	0.500106	0.718240
C103	C	-0.190943	0.000112	0.154943
C104	C	0.309057	0.500112	0.654943
N105	N	-0.570779	0.189822	0.089437
N106	N	-0.070779	0.689822	0.589437
C107	C	-0.574594	0.000140	-0.038244
C108	C	-0.074594	0.500140	0.461756
C109	C	-0.573805	0.000146	-0.115744
C110	C	-0.073805	0.500146	0.384256
C111	C	0.340820	0.000136	0.083402
C112	C	0.840820	0.500136	0.583402
C113	C	0.287162	0.000124	0.084199
C114	C	0.787162	0.500124	0.584199
N115	N	-0.570815	-0.189578	0.089450
N116	N	-0.070815	0.310422	0.589450
C117	C	-0.603752	0.228146	0.041642
C118	C	-0.103752	0.728146	0.541642
C119	C	-0.603755	0.304791	0.041639
C120	C	-0.103755	0.804791	0.541639
C121	C	-0.570790	0.343109	0.089443
C122	C	-0.070790	0.843109	0.589443
C123	C	-0.537812	0.304777	0.137242
C124	C	-0.037812	0.804777	0.637242
C125	C	-0.537806	0.228133	0.137239
C126	C	-0.037806	0.728133	0.637239
N127	N	-0.564507	0.463431	0.151290
N128	N	-0.064507	0.963431	0.651290
N129	N	-0.564515	0.536240	0.151290
N130	N	-0.064515	1.036240	0.651290
C131	C	-0.570804	0.574032	0.089453
C132	C	-0.070804	1.074032	0.589453
N133	N	-0.577094	0.536265	0.027613
N134	N	-0.077094	1.036265	0.527613
N135	N	-0.577088	0.463451	0.027613
N136	N	-0.077088	0.963451	0.527613
C137	C	-0.570792	0.426216	0.089451
C138	C	-0.070792	0.926216	0.589451
C139	C	-0.603781	0.695462	0.041650
C140	C	-0.103781	1.195462	0.541650
C141	C	-0.603781	0.772109	0.041646
C142	C	-0.103781	1.272109	0.541646
C143	C	-0.537840	0.772093	0.137255
C144	C	-0.037840	1.272093	0.637255
C145	C	-0.537838	0.695448	0.137253
C146	C	-0.037838	1.195448	0.637253
C147	C	-0.570811	0.657137	0.089451
C148	C	-0.070811	1.157137	0.589451
C149	C	-0.617483	0.000160	-0.160942
C150	C	-0.117483	0.500160	0.339058
C151	C	-0.616741	0.000148	-0.233761
C152	C	-0.116741	0.500148	0.266239
C153	C	-0.572318	0.000137	-0.261379
C154	C	-0.072318	0.500137	0.238621
C155	C	-0.528634	0.000118	-0.216170
C156	C	-0.028634	0.500118	0.283830
C157	C	-0.529377	0.000123	-0.143353
C158	C	-0.029377	0.500123	0.356647
N159	N	-0.538358	0.041566	-0.369172
N160	N	-0.038358	0.541566	0.130828
N161	N	-0.537655	0.041563	-0.438346
N162	N	-0.037655	0.541563	0.061654
C163	C	-0.570076	0.000121	-0.480773
C164	C	-0.070076	0.500121	0.019227
N165	N	-0.603235	-0.041309	-0.451414
N166	N	-0.103235	0.458691	0.048586
N167	N	-0.603939	-0.041303	-0.382234
N168	N	-0.103939	0.458697	0.117766
C169	C	-0.571507	0.000131	-0.340336
C170	C	-0.071507	0.500131	0.159664
C171	C	-0.612953	0.000122	-0.604931
C172	C	-0.112953	0.500122	-0.104931
C173	C	-0.612209	0.000105	-0.677751
C174	C	-0.112209	0.500105	-0.177751
C175	C	-0.524102	0.000082	-0.660159
C176	C	-0.024102	0.500082	-0.160159
C177	C	-0.524847	0.000091	-0.587340
C178	C	-0.024847	0.500091	-0.087340
C179	C	-0.569274	0.000115	-0.559731
C180	C	-0.069274	0.500115	-0.059731
C181	C	-0.566997	0.000103	0.217137
C182	C	-0.066997	0.500103	0.717137
C183	C	-0.567786	0.000092	0.294636
C184	C	-0.067786	0.500092	0.794636
H185	H	-0.057461	0.000143	-0.090185
H186	H	0.442539	0.500143	0.409815
H187	H	-0.343287	0.000105	-0.022244
H188	H	0.156713	0.500105	0.477756
H189	H	-0.492465	0.000107	-0.238661
H190	H	0.007535	0.500107	0.261339
H191	H	-0.630599	0.196955	0.002718
H192	H	-0.130599	0.696955	0.502718
H193	H	-0.652310	0.000157	-0.270569
H194	H	-0.152310	0.500157	0.229431
H195	H	-0.487932	0.000069	-0.682644
H196	H	0.012068	0.500069	-0.182644
F197	F	-0.482887	0.000107	-0.095247
F198	F	0.017113	0.500107	0.404753
F199	F	-0.664766	0.000169	-0.131563
F200	F	-0.164766	0.500169	0.368437
H201	H	-0.647779	0.000113	-0.714552
H202	H	-0.147779	0.500113	-0.214552
H203	H	-0.510956	0.196930	0.176160
H204	H	-0.010956	0.696930	0.676160
H205	H	-0.649128	0.000137	-0.582451
H206	H	-0.149128	0.500137	-0.082451
F207	F	0.276628	0.000130	-0.047263
F208	F	0.776628	0.500130	0.452737
H209	H	-0.510971	0.335980	0.176163
H210	H	-0.010971	0.835980	0.676163
F211	F	-0.418217	0.000062	0.226144
F212	F	0.081783	0.500062	0.726144
H213	H	-0.510991	0.664243	0.176175
H214	H	-0.010991	1.164243	0.676175
F215	F	-0.638872	0.654688	-0.009227
F216	F	-0.138872	1.154688	0.490773
H217	H	-0.489279	0.000084	-0.550538
H218	H	0.010721	0.500084	-0.050538
F219	F	0.300936	0.000105	0.215602
F220	F	0.800936	0.500105	0.715602
H221	H	-0.630629	0.803312	0.002722
H222	H	-0.130629	1.303312	0.502722
F223	F	-0.180405	0.000095	0.286406
F224	F	0.319595	0.500095	0.786406
F225	F	-0.216493	0.000140	-0.103788
F226	F	0.283507	0.500140	0.396212
H227	H	-0.510998	0.803291	0.176175
H228	H	-0.010998	1.303291	0.676175
F229	F	0.172566	0.000145	-0.045746
F230	F	0.672566	0.500145	0.454254
H231	H	0.033991	0.000142	-0.091525
H232	H	0.533991	0.500142	0.408475
H233	H	-0.321932	0.000087	0.208794
H234	H	0.178068	0.500087	0.708794
F235	F	-0.029151	0.000114	0.284200
F236	F	0.470849	0.500114	0.784200
F237	F	0.074909	0.000130	0.282669
F238	F	0.574909	0.500130	0.782669
F239	F	0.196858	0.000101	0.217133
F240	F	0.696858	0.500101	0.717133
F241	F	-0.112423	0.000139	-0.105322
F242	F	0.387577	0.500139	0.394678
F243	F	-0.076349	0.000097	0.284880
F244	F	0.423651	0.500097	0.784880
F245	F	-0.442532	0.000104	-0.036723
F246	F	0.057468	0.500104	0.463277
F247	F	-0.638850	0.345584	-0.009233
F248	F	-0.138850	0.845584	0.490767
