data_functionalizedCrystal
_audit_creation_method	'MofGen! by Chris Wilmer'
_symmetry_space_group_name_H-M	'P1'
_symmetry_Int_Tables_number	1
_symmetry_cell_setting	triclinic
loop_
_symmetry_equiv_pos_as_xyz
  x,y,z
_cell_length_a	10.654550
_cell_length_b	9.730223
_cell_length_c	10.654550
_cell_angle_alpha	90.004131
_cell_angle_beta	84.484903
_cell_angle_gamma	90.004202
loop_
_atom_site_label
_atom_site_type_symbol
_atom_site_fract_x
_atom_site_fract_y
_atom_site_fract_z
O1	O	1.667834	0.114399	0.176400
O2	O	1.302356	0.114377	0.193206
O3	O	1.493498	0.114383	0.002064
O4	O	1.476692	0.114393	0.367543
O5	O	1.493495	-0.114197	0.002055
O6	O	1.302353	-0.114203	0.193197
O7	O	1.667832	-0.114181	0.176391
Zn8	Zn	1.485092	-0.150484	0.184792
Zn9	Zn	1.485095	0.150680	0.184805
O10	O	1.476689	-0.114187	0.367533
C11	C	1.255556	0.000084	0.191968
C12	C	1.116113	0.000075	0.188276
C13	C	1.036627	0.000098	0.300817
C14	C	0.905607	0.000122	0.297341
C15	C	0.933570	0.000106	0.068771
C16	C	1.064588	0.000072	0.072249
C17	C	1.020482	0.000114	0.432780
C18	C	0.889461	0.000137	0.429304
C19	C	1.492263	0.000095	-0.044739
C20	C	1.488571	0.000100	-0.184182
C21	C	1.714631	0.000115	0.177630
C22	C	1.854074	0.000133	0.181321
N23	N	1.485098	0.356216	0.184804
N24	N	1.485099	-0.356020	0.184783
C25	C	1.569895	0.428145	0.100333
C26	C	1.569899	0.572028	0.100325
C27	C	1.400298	0.572041	0.269264
C28	C	1.400301	0.428160	0.269277
C29	C	1.667809	0.428140	0.002794
C30	C	1.667813	0.572023	0.002786
C31	C	1.601112	0.000102	-0.263668
C32	C	1.597636	0.000112	-0.394688
C33	C	1.369066	0.000110	-0.366725
C34	C	1.372544	0.000110	-0.235707
C35	C	1.733075	0.000097	-0.279813
C36	C	1.729599	0.000107	-0.410834
C37	C	1.477925	0.000104	0.414336
C38	C	1.481616	0.000109	0.553779
H39	H	0.843789	-0.098546	0.469180
C40	C	1.789845	-0.133222	-0.231672
C41	C	1.909078	-0.127166	-0.160826
C42	C	1.965844	-0.260486	-0.112681
C43	C	1.903377	-0.399862	-0.135381
C44	C	1.784137	-0.405923	-0.206230
C45	C	1.727371	-0.272603	-0.254375
H46	H	1.955327	-0.023987	-0.144020
H47	H	2.054114	-0.255999	-0.060234
H48	H	1.945398	-0.498554	-0.099741
H49	H	1.737889	-0.509102	-0.223037
H50	H	1.639101	-0.277090	-0.306822
C51	C	1.060119	-0.129117	0.502493
C52	C	0.959699	-0.233273	0.555175
C53	C	0.999337	-0.362500	0.624885
C54	C	1.139396	-0.387572	0.641914
C55	C	1.239826	-0.283414	0.589231
C56	C	1.200187	-0.154187	0.519521
H57	H	0.856011	-0.214715	0.542570
H58	H	0.924992	-0.439605	0.663884
H59	H	1.168739	-0.483234	0.693517
H60	H	1.343514	-0.301971	0.601836
H61	H	1.274533	-0.077082	0.480522
H62	H	1.769481	0.098804	-0.456473
H63	H	1.129302	0.000034	-0.019393
H64	H	1.331264	0.369597	0.338071
C65	C	1.798110	0.375399	0.032108
C66	C	1.876744	0.284407	-0.064097
C67	C	2.007040	0.231666	-0.034784
C68	C	2.058702	0.269918	0.090735
C69	C	1.980067	0.360914	0.186948
C70	C	1.849770	0.413655	0.157635
H71	H	1.838502	0.256087	-0.157021
H72	H	2.065251	0.164305	-0.106008
H73	H	2.155155	0.230876	0.112435
H74	H	2.018309	0.389234	0.279872
H75	H	1.791559	0.481017	0.228859
H76	H	0.847729	0.095806	0.479029
H77	H	0.891602	0.000124	-0.025694
H78	H	1.779319	-0.095548	-0.452598
H79	H	1.274601	0.000120	-0.408693
H80	H	1.331259	0.630633	0.338040
H81	H	1.056138	0.098802	0.474803
H82	H	1.637463	0.383491	-0.088486
H83	H	1.758932	0.616662	0.033534
H84	H	1.646544	0.611052	-0.093807
H85	H	1.280902	0.000127	-0.170993
H86	H	1.784692	0.095754	-0.250451
