data_functionalizedCrystal
_audit_creation_method	'MofGen! by Chris Wilmer'
_symmetry_space_group_name_H-M	'P1'
_symmetry_Int_Tables_number	1
_symmetry_cell_setting	triclinic
loop_
_symmetry_equiv_pos_as_xyz
  x,y,z
_cell_length_a	28.938199
_cell_length_b	28.937346
_cell_length_c	28.934044
_cell_angle_alpha	60.005004
_cell_angle_beta	60.009897
_cell_angle_gamma	59.994060
loop_
_atom_site_label
_atom_site_type_symbol
_atom_site_fract_x
_atom_site_fract_y
_atom_site_fract_z
O1	O	0.064043	-0.675186	0.564597
O2	O	0.564043	-0.175186	1.064597
O3	O	0.024124	-0.525682	0.454913
O4	O	0.524124	-0.025682	0.954913
O5	O	0.118795	-0.620275	0.454833
O6	O	0.618795	-0.120275	0.954833
O7	O	-0.030629	-0.580593	0.564678
O8	O	0.469371	-0.080593	1.064678
O9	O	0.150204	-0.588870	0.486157
O10	O	0.650204	-0.088870	0.986157
O11	O	0.055533	-0.494276	0.486238
O12	O	0.555533	0.005724	0.986238
O13	O	0.095452	-0.643780	0.595921
O14	O	0.595452	-0.143780	1.095921
Cu15	Cu	0.078360	-0.566161	0.543940
Cu16	Cu	0.578360	-0.066161	1.043940
Cu17	Cu	0.041215	-0.603301	0.506895
Cu18	Cu	0.541215	-0.103301	1.006895
O19	O	0.000780	-0.549187	0.596002
O20	O	0.500780	-0.049187	1.096002
N21	N	0.104487	-0.540042	0.569998
N22	N	0.604487	-0.040042	1.069998
N23	N	0.015094	-0.629425	0.480837
N24	N	0.515094	-0.129425	0.980837
C25	C	0.165467	-0.323909	0.630915
C26	C	0.665467	0.176091	1.130915
C27	C	0.165587	-0.479117	0.786068
C28	C	0.665587	0.020883	1.286068
C29	C	0.165481	-0.479095	0.630906
C30	C	0.665481	0.020905	1.130906
C31	C	0.320696	-0.479083	0.630835
C32	C	0.820696	0.020917	1.130835
C33	C	0.182557	-0.375118	0.647971
C34	C	0.682557	0.124882	1.147971
C35	C	0.182626	-0.462038	0.734858
C36	C	0.682626	0.037962	1.234858
C37	C	0.269485	-0.462018	0.647928
C38	C	0.769485	0.037982	1.147928
C39	C	0.182566	-0.462025	0.647966
C40	C	0.682566	0.037975	1.147966
C41	C	0.143714	-0.258726	0.609206
C42	C	0.643714	0.241274	1.109206
C43	C	0.143738	-0.500820	0.609192
C44	C	0.643738	-0.000820	1.109192
C45	C	0.204309	-0.440300	0.669680
C46	C	0.704309	0.059700	1.169680
C47	C	0.415481	-0.462740	0.580919
C48	C	0.915481	0.037260	1.080919
C49	C	0.474732	-0.482485	0.561145
C50	C	0.974732	0.017515	1.061145
C51	C	0.474757	-0.578356	0.597704
C52	C	0.974757	-0.078356	1.097704
C53	C	0.415508	-0.558609	0.617479
C54	C	0.915508	-0.058609	1.117479
C55	C	0.157989	-0.229089	0.550957
C56	C	0.657989	0.270911	1.050957
C57	C	0.138212	-0.169834	0.531225
C58	C	0.638212	0.330166	1.031225
C59	C	0.089890	-0.169857	0.627992
C60	C	0.589890	0.330143	1.127992
C61	C	0.109667	-0.229112	0.647725
C62	C	0.609667	0.270888	1.147725
C63	C	0.085482	-0.486515	0.623535
C64	C	0.585482	0.013485	1.123535
C65	C	0.065722	-0.506265	0.603789
C66	C	0.565722	-0.006265	1.103789
C67	C	0.162467	-0.554625	0.555370
C68	C	0.662467	-0.054625	1.055370
C69	C	0.182230	-0.534875	0.575110
C70	C	0.682230	-0.034875	1.075110
C71	C	0.085661	-0.486557	0.880902
C72	C	0.585661	0.013443	1.380902
C73	C	0.065952	-0.506323	0.940155
C74	C	0.565952	-0.006323	1.440155
C75	C	0.162734	-0.554693	0.940102
C76	C	0.662734	-0.054693	1.440102
C77	C	0.182441	-0.534928	0.880847
C78	C	0.682441	-0.034928	1.380847
C79	C	0.143904	-0.500859	0.851249
C80	C	0.643904	-0.000859	1.351249
C81	C	0.385871	-0.500801	0.609083
C82	C	0.885871	-0.000801	1.109083
C83	C	-0.110907	-0.668480	0.441278
C84	C	0.389093	-0.168480	0.941278
C85	C	-0.024049	-0.668588	0.441475
C86	C	0.475951	-0.168588	0.941475
C87	C	-0.045729	-0.690282	0.419668
C88	C	0.454271	-0.190282	0.919668
C89	C	-0.062146	-0.785032	0.469507
C90	C	0.437854	-0.285032	0.969507
C91	C	-0.042446	-0.844287	0.489286
C92	C	0.457554	-0.344287	0.989286
C93	C	0.053426	-0.844399	0.452899
C94	C	0.553426	-0.344399	0.952899
C95	C	0.033725	-0.785144	0.433120
C96	C	0.533725	-0.285144	0.933120
C97	C	-0.140617	-0.682751	0.499509
C98	C	0.359383	-0.182751	0.999509
C99	C	-0.199867	-0.662928	0.519152
C100	C	0.300133	-0.162928	1.019152
C101	C	-0.199694	-0.614571	0.422330
C102	C	0.300306	-0.114571	0.922330
C103	C	-0.140443	-0.634393	0.402687
C104	C	0.359557	-0.134393	0.902687
C105	C	-0.038320	-0.610337	0.427144
C106	C	0.461680	-0.110337	0.927144
C107	C	-0.018610	-0.590621	0.446974
C108	C	0.481390	-0.090621	0.946974
C109	C	0.029642	-0.687402	0.495454
C110	C	0.529642	-0.187402	0.995454
C111	C	0.009933	-0.707121	0.475630
C112	C	0.509933	-0.207121	0.975630
C113	C	-0.038148	-0.610347	0.324832
C114	C	0.461852	-0.110347	0.824832
C115	C	-0.018301	-0.590634	0.265579
C116	C	0.481699	-0.090634	0.765579
C117	C	0.030035	-0.687421	0.265643
C118	C	0.530035	-0.187421	0.765643
C119	C	0.010190	-0.707133	0.324897
C120	C	0.510190	-0.207133	0.824897
C121	C	-0.023903	-0.668595	0.354491
C122	C	0.476097	-0.168595	0.854491
C123	C	-0.024062	-0.755463	0.441426
C124	C	0.475938	-0.255463	0.941426
N125	N	0.503527	-0.540005	0.569810
N126	N	1.003527	-0.040005	1.069810
O127	O	0.684453	-0.545211	0.434650
O128	O	1.184453	-0.045211	0.934650
O129	O	0.684643	-0.655237	0.584005
O130	O	1.184643	-0.155237	1.084005
O131	O	0.684567	-0.654986	0.489282
O132	O	1.184567	-0.154986	0.989282
O133	O	0.684529	-0.545462	0.529373
O134	O	1.184529	-0.045462	1.029373
O135	O	0.590438	-0.623674	0.520735
O136	O	1.090438	-0.123674	1.020735
O137	O	0.590513	-0.623924	0.615457
O138	O	1.090513	-0.123924	1.115457
O139	O	0.590323	-0.513899	0.466102
O140	O	1.090323	-0.013899	0.966102
Cu141	Cu	0.581823	-0.566053	0.543652
Cu142	Cu	1.081823	-0.066053	1.043652
Cu143	Cu	0.693143	-0.603083	0.506456
Cu144	Cu	1.193143	-0.103083	1.006456
O145	O	0.590399	-0.514149	0.560825
O146	O	1.090399	-0.014149	1.060825
N147	N	0.771439	-0.629131	0.480292
N148	N	1.271439	-0.129131	0.980292
N149	N	0.104456	-0.141061	0.570015
N150	N	0.604456	0.358939	1.070015
O151	O	-0.030629	0.039964	0.564688
O152	O	0.469371	0.539964	1.064688
O153	O	0.118732	0.039984	0.454661
O154	O	0.618732	0.539984	0.954661
O155	O	0.023980	0.039958	0.454946
O156	O	0.523980	0.539958	0.954946
O157	O	0.064123	0.039990	0.564403
O158	O	0.564123	0.539990	1.064403
O159	O	0.055392	-0.054179	0.486321
O160	O	0.555392	0.445821	0.986321
O161	O	0.150144	-0.054153	0.486036
O162	O	0.650144	0.445847	0.986036
O163	O	0.000784	-0.054173	0.596063
O164	O	0.500784	0.445827	1.096063
Cu165	Cu	0.078332	-0.062759	0.543914
Cu166	Cu	0.578332	0.437241	1.043914
Cu167	Cu	0.041183	0.048570	0.506810
Cu168	Cu	0.541183	0.548570	1.006810
O169	O	0.095535	-0.054147	0.595778
O170	O	0.595535	0.445853	1.095778
N171	N	0.015053	0.126872	0.480710
N172	N	0.515053	0.626872	0.980710
N173	N	0.104760	-0.540096	0.968910
N174	N	0.604760	-0.040096	1.468910
O175	O	0.099447	-0.675167	1.149923
O176	O	0.599447	-0.175167	1.649923
O177	O	-0.010552	-0.525757	1.149951
O178	O	0.489448	-0.025757	1.649951
O179	O	-0.010297	-0.620493	1.149918
O180	O	0.489703	-0.120493	1.649918
O181	O	0.099192	-0.580431	1.149956
O182	O	0.599192	-0.080431	1.649956
O183	O	0.021064	-0.589100	1.055785
O184	O	0.521064	-0.089100	1.555785
O185	O	0.020809	-0.494365	1.055818
O186	O	0.520809	0.005635	1.555818
O187	O	0.130808	-0.643774	1.055790
O188	O	0.630808	-0.143774	1.555790
Cu189	Cu	0.078672	-0.566203	1.047209
Cu190	Cu	0.578672	-0.066203	1.547209
Cu191	Cu	0.041584	-0.603328	1.158532
Cu192	Cu	0.541584	-0.103328	1.658532
O193	O	0.130553	-0.549038	1.055823
O194	O	0.630553	-0.049038	1.555823
N195	N	0.015495	-0.629442	1.236831
N196	N	0.515495	-0.129442	1.736831
C197	C	0.036087	-0.491140	0.455465
C198	C	0.536087	0.008860	0.955465
C199	C	0.153325	-0.608283	0.455364
C200	C	0.653325	-0.108283	0.955364
C201	C	0.083488	-0.678322	0.595370
C202	C	0.583488	-0.178322	1.095370
C203	C	-0.033750	-0.561180	0.595470
C204	C	0.466250	-0.061180	1.095470
C205	C	0.637601	-0.654732	0.618548
C206	C	1.137601	-0.154732	1.118548
C207	C	0.637509	-0.654422	0.501245
C208	C	1.137509	-0.154422	1.001245
C209	C	0.637362	-0.514403	0.431560
C210	C	1.137362	-0.014403	0.931560
C211	C	0.637458	-0.514713	0.548862
C212	C	1.137458	-0.014713	1.048862
C213	C	0.153215	-0.006966	0.455158
C214	C	0.653215	0.493034	0.955158
C215	C	0.035916	-0.007114	0.455550
C216	C	0.535916	0.492886	0.955550
C217	C	-0.033739	-0.007106	0.595527
C218	C	0.466261	0.492894	1.095527
C219	C	0.083600	-0.007076	0.595174
C220	C	0.583600	0.492924	1.095174
C221	C	-0.010020	-0.491238	1.102888
C222	C	0.489980	0.008762	1.602888
C223	C	-0.009698	-0.608550	1.102828
C224	C	0.490302	-0.108550	1.602828
C225	C	0.130276	-0.678293	1.102853
C226	C	0.630276	-0.178293	1.602853
C227	C	0.129961	-0.560974	1.102892
C228	C	0.629961	-0.060974	1.602892
H229	H	0.054276	-0.458811	0.856808
H230	H	0.554276	0.041189	1.356808
H231	H	-0.044080	-0.617108	1.102779
H232	H	0.455920	-0.117108	1.602779
N233	N	0.637525	-0.700002	0.489890
N234	N	1.137525	-0.200002	0.989890
H235	H	0.672447	-0.734221	0.494342
H236	H	1.172447	-0.234221	0.994342
H237	H	0.637462	-0.685270	0.450059
H238	H	1.137462	-0.185270	0.950059
H239	H	0.637450	-0.480310	0.557440
H240	H	1.137450	0.019690	1.057440
H241	H	0.164813	-0.721202	1.102837
H242	H	0.664813	-0.221202	1.602837
N243	N	-0.055765	-0.434399	1.102897
N244	N	0.444235	0.065601	1.602897
H245	H	-0.089970	-0.439644	1.137789
H246	H	0.410030	0.060356	1.637789
H247	H	-0.066670	-0.416401	1.067976
H248	H	0.433330	0.083599	1.567976
H249	H	0.092017	-0.721269	0.629819
H250	H	0.592017	-0.221269	1.129819
H251	H	0.637300	-0.479859	0.388668
H252	H	1.137300	0.020141	0.888668
H253	H	0.196022	-0.006699	0.420530
H254	H	0.696022	0.493301	0.920530
N255	N	0.175526	-0.549628	1.102905
N256	N	0.675526	-0.049628	1.602905
H257	H	0.160843	-0.509784	1.102915
H258	H	0.660843	-0.009784	1.602915
H259	H	0.209740	-0.554142	1.068006
H260	H	0.709740	-0.054142	1.568006
N261	N	0.210170	-0.619476	0.409666
N262	N	0.710170	-0.119476	0.909666
H263	H	0.217507	-0.652281	0.400237
H264	H	0.717507	-0.152281	0.900237
H265	H	0.240760	-0.628971	0.423492
H266	H	0.740760	-0.128971	0.923492
N267	N	0.637666	-0.700488	0.675367
N268	N	1.137666	-0.200488	1.175367
H269	H	0.637675	-0.685974	0.700669
H270	H	1.137675	-0.185974	1.200669
H271	H	0.672579	-0.734667	0.670045
H272	H	1.172579	-0.234667	1.170045
N273	N	0.194713	-0.261025	0.509408
N274	N	0.694713	0.238975	1.009408
H275	H	0.173337	-0.250713	0.484837
H276	H	0.673337	0.249287	0.984837
H277	H	0.205072	-0.303050	0.530786
H278	H	0.705072	0.196950	1.030786
N279	N	0.024565	-0.007209	0.410025
N280	N	0.524565	0.492791	0.910025
H281	H	-0.015265	-0.007247	0.424728
H282	H	0.484735	0.492753	0.924728
H283	H	0.052372	-0.042137	0.399127
H284	H	0.552372	0.457863	0.899127
H285	H	0.092195	-0.007066	0.629560
H286	H	0.592195	0.492934	1.129560
N287	N	0.003131	-0.490891	0.972134
N288	N	0.503131	0.009109	1.472134
H289	H	-0.018288	-0.466307	0.944390
H290	H	0.481712	0.033693	1.444390
H291	H	-0.007156	-0.469546	0.996723
H292	H	0.492844	0.030454	1.496723
N293	N	0.204298	-0.591427	0.972026
N294	N	0.704298	-0.091427	1.472026
H295	H	0.244186	-0.597486	0.944250
H296	H	0.744186	-0.097486	1.444250
H297	H	0.198234	-0.629176	0.996607
H298	H	0.698234	-0.129176	1.496607
N299	N	0.245264	-0.550356	0.848864
N300	N	0.745264	-0.050356	1.348864
H301	H	0.266684	-0.574934	0.876607
H302	H	0.766684	-0.074934	1.376607
H303	H	0.255545	-0.514715	0.824281
H304	H	0.755545	-0.014715	1.324281
N305	N	-0.090553	-0.007117	0.641287
N306	N	0.409447	0.492883	1.141287
H307	H	-0.115868	-0.007127	0.626790
H308	H	0.384132	0.492873	1.126790
H309	H	-0.108527	0.027783	0.652217
H310	H	0.391473	0.527783	1.152217
H311	H	-0.076669	-0.552723	0.629962
H312	H	0.423331	-0.052723	1.129962
N313	N	0.043966	-0.449775	0.660282
N314	N	0.543966	0.050225	1.160282
H315	H	0.019393	-0.471130	0.695916
H316	H	0.519393	0.028870	1.195916
H317	H	0.019403	-0.414152	0.638891
H318	H	0.519403	0.085848	1.138891
N319	N	0.002889	-0.490841	0.619256
N320	N	0.502889	0.009159	1.119256
H321	H	-0.014795	-0.505337	0.661761
H322	H	0.485205	-0.005337	1.161761
H323	H	-0.003739	-0.508520	0.601537
H324	H	0.496261	-0.008520	1.101537
N325	N	0.203988	-0.591364	0.518618
N326	N	0.703988	-0.091364	1.018618
H327	H	0.243889	-0.597196	0.512299
H328	H	0.743889	-0.097196	1.012299
H329	H	0.197689	-0.572246	0.480988
H330	H	0.697689	-0.072246	0.980988
N331	N	0.245063	-0.550298	0.559640
N332	N	0.745063	-0.050298	1.059640
H333	H	0.266449	-0.574868	0.535054
H334	H	0.766449	-0.074868	1.035054
H335	H	0.255394	-0.571656	0.595263
H336	H	0.755394	-0.071656	1.095263
H337	H	0.498884	-0.625426	0.604536
H338	H	0.998884	-0.125426	1.104536
N339	N	0.383573	-0.599663	0.647860
N340	N	0.883573	-0.099663	1.147860
H341	H	0.411342	-0.639279	0.650173
H342	H	0.911342	-0.139279	1.150173
H343	H	0.358970	-0.589093	0.626405
H344	H	0.858970	-0.089093	1.126405
H345	H	0.391352	-0.415667	0.574082
H346	H	0.891352	0.084333	1.074082
N347	N	0.506668	-0.441430	0.530769
N348	N	1.006668	0.058570	1.030769
H349	H	0.496332	-0.412572	0.495763
H350	H	0.996332	0.087428	0.995763
H351	H	0.548690	-0.462754	0.519555
H352	H	1.048690	0.037246	1.019555
N353	N	0.153603	-0.137858	0.468398
N354	N	0.653603	0.362142	0.968398
H355	H	0.139112	-0.148169	0.450692
H356	H	0.639112	0.351831	0.950692
H357	H	0.196104	-0.148169	0.450711
H358	H	0.696104	0.351831	0.950711
N359	N	0.053178	-0.137917	0.669540
N360	N	0.553178	0.362083	1.169540
H361	H	0.017562	-0.148240	0.694147
H362	H	0.517562	0.351760	1.194147
H363	H	0.042856	-0.095892	0.648163
H364	H	0.542856	0.404108	1.148163
N365	N	0.094274	-0.261078	0.710551
N366	N	0.594274	0.238922	1.210551
H367	H	0.051774	-0.250775	0.728282
H368	H	0.551774	0.249225	1.228282
H369	H	0.108801	-0.250753	0.728208
H370	H	0.608801	0.249247	1.228208
N371	N	-0.033674	-0.527805	0.233601
N372	N	0.466326	-0.027805	0.733601
H373	H	-0.076170	-0.510049	0.243837
H374	H	0.423830	-0.010049	0.743837
H375	H	-0.015896	-0.521206	0.191584
H376	H	0.484104	-0.021206	0.691584
N377	N	-0.074922	-0.568782	0.356756
N378	N	0.425078	-0.068782	0.856756
H379	H	-0.110512	-0.544163	0.346367
H380	H	0.389488	-0.044163	0.846367
H381	H	-0.053518	-0.544265	0.346484
H382	H	0.446482	-0.044265	0.846484
N383	N	0.066795	-0.728988	0.233728
N384	N	0.566795	-0.228988	0.733728
H385	H	0.072804	-0.768879	0.261510
H386	H	0.572804	-0.268879	0.761510
H387	H	0.104561	-0.722957	0.209210
H388	H	0.604561	-0.222957	0.709210
N389	N	0.025320	-0.769947	0.491073
N390	N	0.525320	-0.269947	0.991073
H391	H	0.010775	-0.787642	0.533574
H392	H	0.510775	-0.287642	1.033574
H393	H	0.067824	-0.787662	0.476629
H394	H	0.567824	-0.287662	0.976629
N395	N	0.025562	-0.769962	0.356882
N396	N	0.525562	-0.269962	0.856882
H397	H	0.011105	-0.787654	0.346520
H398	H	0.511105	-0.287654	0.846520
H399	H	0.007820	-0.776558	0.398899
H400	H	0.507820	-0.276558	0.898899
N401	N	-0.034010	-0.527793	0.431533
N402	N	0.465990	-0.027793	0.931533
H403	H	-0.058529	-0.506373	0.406889
H404	H	0.441471	-0.006373	0.906889
H405	H	0.001639	-0.517535	0.410253
H406	H	0.501639	-0.017535	0.910253
H407	H	-0.065985	-0.578958	0.399332
H408	H	0.434015	-0.078958	0.899332
H409	H	0.027560	-0.448192	0.421017
H410	H	0.527560	0.051808	0.921017
H411	H	0.057315	-0.718782	0.523258
H412	H	0.557315	-0.218782	1.023258
H413	H	0.100481	-0.868567	0.446139
H414	H	0.600481	-0.368567	0.946139
N415	N	0.074799	-0.753246	0.402832
N416	N	0.574799	-0.253246	0.902832
H417	H	0.103697	-0.763589	0.367843
H418	H	0.603697	-0.263589	0.867843
H419	H	0.094631	-0.763586	0.428841
H420	H	0.594631	-0.263586	0.928841
N421	N	-0.083527	-0.876174	0.519566
N422	N	0.416473	-0.376174	1.019566
H423	H	-0.112424	-0.865832	0.554557
H424	H	0.387576	-0.365832	1.054557
H425	H	-0.062240	-0.918207	0.530796
H426	H	0.437760	-0.418207	1.030796
N427	N	-0.124472	-0.753020	0.478468
N428	N	0.375528	-0.253020	0.978468
H429	H	-0.145608	-0.780746	0.499259
H430	H	0.354392	-0.280746	0.999259
H431	H	-0.130225	-0.728439	0.440575
H432	H	0.369775	-0.228439	0.940575
H433	H	-0.224058	-0.674545	0.566571
H434	H	0.275942	-0.174545	1.066571
N435	N	-0.108752	-0.719514	0.541124
N436	N	0.391248	-0.219514	1.041124
H437	H	-0.119107	-0.755117	0.565696
H438	H	0.380893	-0.255117	1.065696
H439	H	-0.119104	-0.698108	0.565682
H440	H	0.380896	-0.198108	1.065682
N441	N	-0.231556	-0.577815	0.380710
N442	N	0.268444	-0.077815	0.880710
H443	H	-0.203744	-0.571790	0.340838
H444	H	0.296256	-0.071790	0.840838
H445	H	-0.256127	-0.540053	0.386760
H446	H	0.243873	-0.040053	0.886760
H447	H	-0.116252	-0.622767	0.355267
H448	H	0.383748	-0.122767	0.855267
