data_functionalizedCrystal
_audit_creation_method	'MofGen! by Chris Wilmer'
_symmetry_space_group_name_H-M	'P1'
_symmetry_Int_Tables_number	1
_symmetry_cell_setting	triclinic
loop_
_symmetry_equiv_pos_as_xyz
  x,y,z
_cell_length_a	11.169417
_cell_length_b	16.959454
_cell_length_c	11.169409
_cell_angle_alpha	89.967057
_cell_angle_beta	89.980487
_cell_angle_gamma	90.021324
loop_
_atom_site_label
_atom_site_type_symbol
_atom_site_fract_x
_atom_site_fract_y
_atom_site_fract_z
Zn1	Zn	1.834881	-0.314591	-0.678528
Zn2	Zn	1.834736	-0.446798	-0.477842
Zn3	Zn	1.634167	-0.314640	-0.477863
Zn4	Zn	1.634140	-0.446734	-0.678488
O5	O	1.734481	-0.380691	-0.578180
O6	O	2.002812	-0.332135	-0.651914
O7	O	1.808081	-0.429314	-0.309895
O8	O	1.660864	-0.204023	-0.504507
O9	O	2.002705	-0.429266	-0.504472
O10	O	1.808328	-0.203987	-0.651934
O11	O	1.660724	-0.332218	-0.309911
O12	O	1.466214	-0.332157	-0.504469
O13	O	1.660819	-0.429158	-0.846443
O14	O	1.466194	-0.429206	-0.651867
O15	O	1.808302	-0.332073	-0.846472
O16	O	1.808055	-0.557400	-0.504434
O17	O	1.660678	-0.557354	-0.651847
C18	C	1.422657	-0.380680	-0.578167
C19	C	1.289257	-0.380695	-0.578189
C20	C	1.734381	-0.586057	-0.578160
C21	C	1.734447	-0.673914	-0.578191
C22	C	1.657853	-1.045395	-0.654931
C23	C	1.811443	-1.045384	-0.501553
C24	C	1.811401	-0.962838	-0.501542
C25	C	1.734583	-0.921567	-0.578225
C26	C	1.657807	-0.962842	-0.654919
C27	C	1.888168	-0.921557	-0.424840
C28	C	1.888128	-0.839006	-0.424825
C29	C	1.811315	-0.797733	-0.501515
C30	C	1.734536	-0.839013	-0.578214
C31	C	1.657718	-0.797742	-0.654897
C32	C	1.580944	-0.839021	-0.731602
C33	C	1.580993	-0.921569	-0.731610
C34	C	1.811266	-0.715185	-0.501508
C35	C	1.657671	-0.715189	-0.654886
C36	C	2.047524	-0.380702	-0.578195
C37	C	2.180924	-0.380707	-0.578201
C38	C	1.734573	-0.380603	-0.891223
C39	C	1.734613	-0.380566	-1.024623
C40	C	1.734615	-0.174523	-0.578227
C41	C	1.734672	-0.086666	-0.578247
C42	C	1.734459	-0.380721	-0.266356
C43	C	1.734652	-0.380536	-0.132956
H44	H	1.595120	-0.681591	-0.717336
H45	H	1.518393	-0.805408	-0.794033
F46	F	1.499292	-0.965505	-0.813236
F47	F	1.576155	-1.089326	-0.736567
F48	F	1.969844	-0.795082	-0.343197
H49	H	1.873768	-0.681580	-0.439050
F50	F	1.893193	-1.089309	-0.419945
H51	H	1.950700	-0.955166	-0.362400
