data_functionalizedCrystal
_audit_creation_method	'MofGen! by Chris Wilmer'
_symmetry_space_group_name_H-M	'P1'
_symmetry_Int_Tables_number	1
_symmetry_cell_setting	triclinic
loop_
_symmetry_equiv_pos_as_xyz
  x,y,z
_cell_length_a	19.805405
_cell_length_b	18.215407
_cell_length_c	18.215399
_cell_angle_alpha	90.017368
_cell_angle_beta	90.030610
_cell_angle_gamma	90.023854
loop_
_atom_site_label
_atom_site_type_symbol
_atom_site_fract_x
_atom_site_fract_y
_atom_site_fract_z
Zn1	Zn	-0.269516	1.125064	0.416054
Zn2	Zn	0.063817	1.458397	0.749387
Zn3	Zn	0.397150	1.791731	1.082721
Zn4	Zn	-0.382707	1.124969	0.292982
Zn5	Zn	-0.049374	1.458303	0.626315
Zn6	Zn	0.283959	1.791636	0.959648
Zn7	Zn	-0.269533	1.001997	0.293006
Zn8	Zn	0.063801	1.335330	0.626340
Zn9	Zn	0.397134	1.668663	0.959673
Zn10	Zn	-0.382664	1.001959	0.416012
Zn11	Zn	-0.049330	1.335293	0.749345
Zn12	Zn	0.284003	1.668626	1.082679
O13	O	-0.326105	1.063497	0.354514
O14	O	0.007228	1.396831	0.687847
O15	O	0.340562	1.730164	1.021180
O16	O	-0.284543	1.228036	0.399735
O17	O	0.048791	1.561369	0.733069
O18	O	0.382124	1.894702	1.066402
O19	O	-0.367719	1.108633	0.190001
O20	O	-0.034386	1.441966	0.523334
O21	O	0.298947	1.775299	0.856667
O22	O	-0.174814	1.018377	0.309357
O23	O	0.158520	1.351711	0.642690
O24	O	0.491853	1.685044	0.976023
O25	O	-0.367704	1.227966	0.309315
O26	O	-0.034370	1.561299	0.642648
O27	O	0.298963	1.894633	0.975981
O28	O	-0.174802	1.108794	0.399759
O29	O	0.158531	1.442128	0.733092
O30	O	0.491865	1.775461	1.066426
O31	O	-0.284570	1.018285	0.190019
O32	O	0.048763	1.351619	0.523352
O33	O	0.382096	1.684952	0.856686
O34	O	-0.284528	0.899007	0.309316
O35	O	0.048805	1.232341	0.642650
O36	O	0.382139	1.565674	0.975983
O37	O	-0.367629	1.018313	0.519002
O38	O	-0.034296	1.351647	0.852335
O39	O	0.299037	1.684980	1.185669
O40	O	-0.367645	0.898980	0.399688
O41	O	-0.034312	1.232313	0.733021
O42	O	0.299022	1.565647	1.066355
O43	O	-0.284501	1.108758	0.519033
O44	O	0.048833	1.442091	0.852366
O45	O	0.382166	1.775425	1.185699
O46	O	-0.477418	1.108596	0.309274
O47	O	-0.144085	1.441930	0.642608
O48	O	0.189249	1.775263	0.975941
O49	O	-0.477386	1.018221	0.399664
O50	O	-0.144053	1.351555	0.732997
O51	O	0.189281	1.684888	1.066331
C52	C	-0.326084	0.872291	0.354501
C53	C	0.007249	1.205624	0.687834
C54	C	0.340583	1.538958	1.021167
C55	C	-0.326092	0.790492	0.354513
C56	C	0.007242	1.123826	0.687846
C57	C	0.340575	1.457159	1.021179
C58	C	-0.282879	0.602334	0.401669
C59	C	0.050455	0.935667	0.735002
C60	C	0.383788	1.269000	1.068336
C61	C	-0.282885	0.525475	0.401671
C62	C	0.050449	0.858808	0.735005
C63	C	0.383782	1.192141	1.068338
C64	C	-0.369350	0.525413	0.307371
C65	C	-0.036017	0.858746	0.640704
C66	C	0.297317	1.192080	0.974038
C67	C	-0.369340	0.602270	0.307365
C68	C	-0.036007	0.935604	0.640699
C69	C	0.297326	1.268937	0.974032
C70	C	-0.326106	0.640729	0.354519
C71	C	0.007228	0.974062	0.687852
C72	C	0.340561	1.307395	1.021185
C73	C	-0.326121	0.487013	0.354527
C74	C	0.007212	0.820346	0.687860
C75	C	0.340545	1.153679	1.021193
C76	C	-0.326128	0.403679	0.354529
C77	C	0.007205	0.737012	0.687862
C78	C	0.340539	1.070346	1.021196
C79	C	-0.326098	0.724068	0.354515
C80	C	0.007235	1.057401	0.687849
C81	C	0.340569	1.390734	1.021182
C82	C	-0.501961	1.063415	0.354478
C83	C	-0.168628	1.396748	0.687811
C84	C	0.164706	1.730081	1.021145
C85	C	-0.577193	1.063446	0.354487
C86	C	-0.243860	1.396780	0.687821
C87	C	0.089474	1.730113	1.021154
C88	C	-0.612531	1.110550	0.307471
C89	C	-0.279198	1.443884	0.640804
C90	C	0.054135	1.777217	0.974137
C91	C	-0.683220	1.110582	0.307487
C92	C	-0.349886	1.443915	0.640820
C93	C	-0.016553	1.777248	0.974154
C94	C	-0.718569	1.063505	0.354517
C95	C	-0.385235	1.396838	0.687850
C96	C	-0.051902	1.730171	1.021183
C97	C	-0.683225	1.016399	0.401539
C98	C	-0.349892	1.349732	0.734872
C99	C	-0.016559	1.683065	1.068205
C100	C	-0.612538	1.016372	0.401525
C101	C	-0.279205	1.349705	0.734859
C102	C	0.054129	1.683038	1.068192
C103	C	-0.968298	1.016507	0.401593
C104	C	-0.634965	1.349841	0.734926
C105	C	-0.301632	1.683174	1.068260
C106	C	-1.038991	1.016536	0.401601
C107	C	-0.705657	1.349870	0.734934
C108	C	-0.372324	1.683203	1.068268
C109	C	-1.038980	1.110717	0.307555
C110	C	-0.705647	1.444050	0.640888
C111	C	-0.372313	1.777384	0.974221
C112	C	-0.968293	1.110690	0.307541
C113	C	-0.634960	1.444023	0.640875
C114	C	-0.301626	1.777357	0.974208
C115	C	-0.932956	1.063587	0.354566
C116	C	-0.599623	1.396921	0.687899
C117	C	-0.266289	1.730254	1.021232
C118	C	-0.856307	1.063555	0.354548
C119	C	-0.522974	1.396888	0.687882
C120	C	-0.189641	1.730222	1.021215
C121	C	-0.795216	1.063533	0.354531
C122	C	-0.461882	1.396866	0.687864
C123	C	-0.128549	1.730199	1.021197
C124	C	-0.149562	1.063601	0.354565
C125	C	0.183771	1.396934	0.687899
C126	C	0.517104	1.730267	1.021232
C127	C	-0.074330	1.063644	0.354587
C128	C	0.259003	1.396978	0.687921
C129	C	0.592336	1.730311	1.021254
C130	C	-0.326058	1.063542	0.546467
C131	C	0.007275	1.396875	0.879800
C132	C	0.340608	1.730209	1.213133
C133	C	-0.326038	1.063561	0.628265
C134	C	0.007295	1.396895	0.961599
C135	C	0.340628	1.730228	1.294932
C136	C	-0.326126	1.255450	0.354527
C137	C	0.007207	1.588784	0.687860
C138	C	0.340540	1.922117	1.021194
C139	C	-0.326135	1.337249	0.354533
C140	C	0.007198	1.670582	0.687866
C141	C	0.340531	2.003916	1.021199
C142	C	-0.326103	1.063495	0.163307
C143	C	0.007231	1.396828	0.496641
C144	C	0.340564	1.730162	0.829974
C145	C	-0.325932	1.063619	0.081509
C146	C	0.007402	1.396952	0.414842
C147	C	0.340735	1.730285	0.748175
C148	C	-0.282713	1.110673	0.816477
C149	C	0.050621	1.444006	1.149810
C150	C	0.383954	1.777339	1.483143
C151	C	-0.282693	1.110681	0.893335
C152	C	0.050640	1.444015	1.226669
C153	C	0.383974	1.777348	1.560002
C154	C	-0.369259	1.016502	0.893292
C155	C	-0.035926	1.349835	1.226626
C156	C	0.297407	1.683169	1.559959
C157	C	-0.369275	1.016490	0.816435
C158	C	-0.035942	1.349823	1.149768
C159	C	0.297391	1.683157	1.483102
C160	C	-0.326003	1.063580	0.778029
C161	C	0.007330	1.396913	1.111362
C162	C	0.340664	1.730246	1.444696
C163	C	-0.325967	1.063600	0.931745
C164	C	0.007366	1.396934	1.265079
C165	C	0.340699	1.730267	1.598412
C166	C	-0.325946	1.063609	1.015079
C167	C	0.007387	1.396943	1.348412
C168	C	0.340720	1.730276	1.681746
C169	C	-0.326023	1.063570	0.694690
C170	C	0.007310	1.396903	1.028023
C171	C	0.340644	1.730236	1.361357
H172	H	-0.404542	0.633533	0.268966
H173	H	-0.071208	0.966866	0.602299
H174	H	0.262125	1.300199	0.935633
Br175	Br	-0.223944	1.174602	0.945512
Br176	Br	0.109389	1.507935	1.278845
Br177	Br	0.442722	1.841269	1.612179
Br178	Br	-0.564578	0.952447	0.465341
Br179	Br	-0.231244	1.285781	0.798674
Br180	Br	0.102089	1.619114	1.132008
H181	H	-0.404551	0.494091	0.268982
H182	H	-0.071218	0.827424	0.602315
H183	H	0.262116	1.160758	0.935648
Br184	Br	-0.224202	0.654525	0.465660
Br185	Br	0.109131	0.987858	0.798993
Br186	Br	0.442465	1.321191	1.132327
Br187	Br	-0.920350	0.952582	0.465412
Br188	Br	-0.587016	1.285915	0.798745
Br189	Br	-0.253683	1.619249	1.132079
Br190	Br	-0.427986	0.952600	0.945419
Br191	Br	-0.094652	1.285934	1.278752
Br192	Br	0.238681	1.619267	1.612086
H193	H	-0.583755	1.148882	0.269170
H194	H	-0.250422	1.482216	0.602504
H195	H	0.082912	1.815549	0.935837
H196	H	-0.404527	0.978136	0.785130
H197	H	-0.071193	1.311469	1.118463
H198	H	0.262140	1.644802	1.451797
H199	H	-1.067760	1.149073	0.269268
H200	H	-0.734427	1.482407	0.602601
H201	H	-0.401093	1.815740	0.935935
H202	H	-0.247684	0.494217	0.440065
H203	H	0.085650	0.827550	0.773398
H204	H	0.418983	1.160883	1.106731
H205	H	-0.711989	1.148938	0.269201
H206	H	-0.378656	1.482271	0.602534
H207	H	-0.045322	1.815604	0.935867
H208	H	-1.067770	0.978201	0.439904
H209	H	-0.734436	1.311535	0.773237
H210	H	-0.401103	1.644868	1.106570
Br211	Br	-0.920323	1.174581	0.243712
Br212	Br	-0.586990	1.507914	0.577045
Br213	Br	-0.253656	1.841248	0.910379
Br214	Br	-0.731198	0.952514	0.465372
Br215	Br	-0.397864	1.285847	0.798705
Br216	Br	-0.064531	1.619181	1.132039
H217	H	-0.247476	1.149014	0.785209
H218	H	0.085858	1.482347	1.118542
H219	H	0.419191	1.815681	1.451876
