data_functionalizedCrystal
_audit_creation_method	'MofGen! by Chris Wilmer'
_symmetry_space_group_name_H-M	'P1'
_symmetry_Int_Tables_number	1
_symmetry_cell_setting	triclinic
loop_
_symmetry_equiv_pos_as_xyz
  x,y,z
_cell_length_a	16.120484
_cell_length_b	16.959455
_cell_length_c	16.959447
_cell_angle_alpha	89.985678
_cell_angle_beta	87.133462
_cell_angle_gamma	87.077546
loop_
_atom_site_label
_atom_site_type_symbol
_atom_site_fract_x
_atom_site_fract_y
_atom_site_fract_z
Zn1	Zn	-0.331957	-1.192394	0.462851
Zn2	Zn	-0.471386	-1.185600	0.337369
Zn3	Zn	-0.331984	-1.060221	0.330690
Zn4	Zn	-0.471323	-1.053474	0.469504
O5	O	-0.401662	-1.122922	0.400103
O6	O	-0.350468	-1.302103	0.446216
O7	O	-0.452931	-1.168949	0.225874
O8	O	-0.215315	-1.083421	0.342642
O9	O	-0.452905	-1.297112	0.354025
O10	O	-0.215296	-1.180528	0.439740
O11	O	-0.350513	-1.076833	0.220967
O12	O	-0.350452	-0.948716	0.349093
O13	O	-0.452799	-1.071921	0.579231
O14	O	-0.452824	-0.943759	0.451079
O15	O	-0.350408	-1.173985	0.574343
O16	O	-0.588043	-1.162407	0.360476
O17	O	-0.587997	-1.065334	0.457556
C18	C	-0.401635	-0.917557	0.400084
C19	C	-0.401643	-0.829700	0.400095
C20	C	-0.401593	-1.122959	0.606268
C21	C	-0.401564	-1.122974	0.694124
C22	C	-0.618270	-1.112422	0.410480
C23	C	-0.710935	-1.108003	0.414945
C24	C	-0.880596	-1.099938	0.423114
C25	C	-0.921888	-1.146048	0.377106
C26	C	-1.016293	-1.141561	0.381651
C27	C	-0.786182	-1.104424	0.418570
C28	C	-0.184209	-1.133485	0.389704
C29	C	-0.091544	-1.137986	0.385272
C30	C	-0.401691	-1.329089	0.400123
C31	C	-0.401703	-1.416945	0.400132
C32	C	-0.348314	-0.460783	0.347103
C33	C	-0.455080	-0.455662	0.453153
C34	C	-0.455068	-0.538208	0.453147
C35	C	-0.401679	-0.582046	0.400118
C36	C	-0.348302	-0.543337	0.347094
C37	C	-0.508450	-0.576923	0.506165
C38	C	-0.508441	-0.659474	0.506161
C39	C	-0.455047	-0.703314	0.453135
C40	C	-0.401667	-0.664600	0.400109
C41	C	-0.348278	-0.708437	0.347080
C42	C	-0.294893	-0.669725	0.294058
C43	C	-0.294908	-0.587176	0.294068
C44	C	-0.455032	-0.785863	0.453125
C45	C	-0.348266	-0.790991	0.347071
C46	C	-0.401671	-1.122935	0.194738
C47	C	-0.401466	-1.123084	0.106872
C48	C	-0.454787	-1.069933	1.068143
C49	C	-0.348166	-1.176213	1.063048
C50	C	-0.348183	-1.176191	0.980503
C51	C	-0.401504	-1.123040	0.941774
C52	C	-0.454808	-1.069911	0.985590
C53	C	-0.294887	-1.229324	0.936681
C54	C	-0.294903	-1.229305	0.854130
C55	C	-0.348221	-1.176150	0.815400
C56	C	-0.401525	-1.123018	0.859221
C57	C	-0.454846	-1.069867	0.820492
C58	C	-0.508148	-1.016731	0.864312
C59	C	-0.508125	-1.016755	0.946860
C60	C	-0.348243	-1.176125	0.732853
C61	C	-0.454867	-1.069845	0.737940
H62	H	-0.916143	-1.057096	0.465913
O63	O	-0.879449	-1.197047	0.325948
C64	C	-0.781055	-1.212319	0.214621
C65	C	-0.829083	-1.154481	0.272493
H66	H	-0.740309	-1.177929	0.171399
H67	H	-0.827002	-1.246315	0.180633
H68	H	-0.740254	-1.255546	0.249031
H69	H	-0.869886	-1.111206	0.238144
H70	H	-0.783091	-1.120543	0.306482
H71	H	-0.551910	-0.690987	0.549336
O72	O	-0.296346	-1.227916	1.100542
C73	C	-0.190551	-1.333293	1.086782
C74	C	-0.249213	-1.274793	1.044216
H75	H	-0.152416	-1.371197	1.041260
H76	H	-0.228783	-1.372832	1.127231
H77	H	-0.146984	-1.299114	1.123372
H78	H	-0.292792	-1.308908	1.007583
H79	H	-0.210930	-1.235255	1.003814
H80	H	-0.498552	-0.419964	0.496322
H81	H	-0.498500	-0.817378	0.496292
H82	H	-0.251446	-0.555649	0.250899
H83	H	-0.304847	-0.429260	0.303935
O84	O	-0.296377	-0.833451	0.295480
C85	C	-0.190444	-0.829820	0.190324
C86	C	-0.249177	-0.781639	0.248697
H87	H	-0.152255	-0.787951	0.152496
H88	H	-0.228623	-0.866582	0.150704
H89	H	-0.146931	-0.870609	0.224603
H90	H	-0.292702	-0.740807	0.214482
H91	H	-0.210946	-0.744929	0.288317
H92	H	-0.251427	-0.705428	0.250878
H93	H	-0.498281	-1.026555	0.706413
H94	H	-0.551923	-0.541224	0.549333
O95	O	-0.296594	-1.227815	0.690258
C96	C	-0.285422	-1.335020	0.596488
C97	C	-0.344014	-1.276535	0.644693
H98	H	-0.323737	-1.374415	0.559624
H99	H	-0.247329	-1.373072	0.638314
H100	H	-0.241813	-1.300826	0.555795
H101	H	-0.387674	-1.310666	0.685390
H102	H	-0.382049	-1.238483	0.602821
H103	H	-0.551565	-0.973458	0.832769
H104	H	-0.551523	-0.973497	0.982545
O105	O	-0.506535	-1.018394	1.110824
C106	C	-0.553719	-0.971281	1.240245
C107	C	-0.495087	-1.029703	1.192006
H108	H	-0.544471	-0.980392	1.305889
H109	H	-0.620969	-0.981892	1.227287
H110	H	-0.539082	-0.908262	1.223263
H111	H	-0.509649	-1.092744	1.208960
H112	H	-0.427855	-1.019023	1.204969
H113	H	-0.251481	-1.272602	0.968220
H114	H	-0.251501	-1.272571	0.818459
