data_functionalizedCrystal
_audit_creation_method	'MofGen! by Chris Wilmer'
_symmetry_space_group_name_H-M	'P1'
_symmetry_Int_Tables_number	1
_symmetry_cell_setting	triclinic
loop_
_symmetry_equiv_pos_as_xyz
  x,y,z
_cell_length_a	8.597340
_cell_length_b	7.088929
_cell_length_c	8.559649
_cell_angle_alpha	95.344185
_cell_angle_beta	77.625043
_cell_angle_gamma	76.045281
loop_
_atom_site_label
_atom_site_type_symbol
_atom_site_fract_x
_atom_site_fract_y
_atom_site_fract_z
O1	O	2.074465	-0.182749	0.219480
O2	O	2.574465	0.317251	0.719480
O3	O	1.606585	-0.105672	0.245569
O4	O	2.106585	0.394328	0.745569
O5	O	1.881746	-0.151003	-0.000135
O6	O	2.381746	0.348997	0.499865
O7	O	1.799304	-0.137418	0.465184
O8	O	2.299304	0.362582	0.965184
O9	O	1.918527	-0.475038	-0.033046
O10	O	2.418527	0.024962	0.466954
O11	O	1.643366	-0.429707	0.212659
O12	O	2.143366	0.070293	0.712659
O13	O	2.111247	-0.506784	0.186570
O14	O	2.611247	-0.006784	0.686570
Cu15	Cu	1.880665	-0.497833	0.196609
Cu16	Cu	2.380665	0.002167	0.696609
Cu17	Cu	1.837167	-0.114624	0.235529
Cu18	Cu	2.337167	0.385376	0.735529
O19	O	1.836086	-0.461453	0.432274
O20	O	2.336086	0.038547	0.932274
C21	C	1.565631	-0.257914	0.228145
C22	C	2.065631	0.242086	0.728145
C23	C	1.388806	-0.228784	0.225241
C24	C	1.888806	0.271216	0.725241
N25	N	1.911271	-0.767363	0.169234
N26	N	2.411271	-0.267363	0.669234
C27	C	2.152200	-0.354539	0.203994
C28	C	2.652200	0.145461	0.703994
C29	C	2.329024	-0.383656	0.206900
C30	C	2.829024	0.116344	0.706900
C31	C	1.906384	-0.314046	-0.076129
C32	C	2.406384	0.185954	0.423871
C33	C	1.924980	-0.317099	-0.253534
C34	C	2.424980	0.182901	0.246466
N35	N	1.806574	0.154904	0.262892
N36	N	2.306574	0.654904	0.762892
C37	C	1.811447	-0.298406	0.508268
C38	C	2.311447	0.201594	1.008268
C39	C	1.792850	-0.295340	0.685674
C40	C	2.292850	0.204660	1.185674
H41	H	1.413123	-0.538542	0.193407
H42	H	1.913123	-0.038542	0.693407
Cl43	Cl	2.121618	-0.349518	-0.382728
Cl44	Cl	2.621618	0.150482	0.117272
Cl45	Cl	1.639045	-0.691444	0.412743
Cl46	Cl	2.139045	-0.191444	0.912743
H47	H	1.304701	-0.073888	0.238722
H48	H	1.804701	0.426112	0.738722
H49	H	2.019794	-0.866897	0.072183
H50	H	2.519794	-0.366897	0.572183
H51	H	1.665501	-0.274367	-0.230651
H52	H	2.165501	0.225633	0.269349
