data_functionalizedCrystal
_audit_creation_method	'MofGen! by Chris Wilmer'
_symmetry_space_group_name_H-M	'P1'
_symmetry_Int_Tables_number	1
_symmetry_cell_setting	triclinic
loop_
_symmetry_equiv_pos_as_xyz
  x,y,z
_cell_length_a	12.837943
_cell_length_b	15.944551
_cell_length_c	11.295483
_cell_angle_alpha	94.094426
_cell_angle_beta	85.461227
_cell_angle_gamma	89.163839
loop_
_atom_site_label
_atom_site_type_symbol
_atom_site_fract_x
_atom_site_fract_y
_atom_site_fract_z
O1	O	1.382450	0.213265	-0.099009
O2	O	1.882450	0.713265	0.400991
O3	O	1.080644	0.202478	-0.099016
O4	O	1.580644	0.702478	0.400984
O5	O	1.239788	0.086257	-0.099002
O6	O	1.739788	0.586257	0.400998
O7	O	1.223306	0.329487	-0.099023
O8	O	1.723306	0.829487	0.400977
O9	O	1.225810	0.096448	0.099048
O10	O	1.725810	0.596448	0.599048
O11	O	1.066666	0.212669	0.099034
O12	O	1.566666	0.712669	0.599034
O13	O	1.368472	0.223456	0.099040
O14	O	1.868472	0.723456	0.599040
Cu15	Cu	1.216293	0.218993	0.117121
Cu16	Cu	1.716293	0.718993	0.617121
Cu17	Cu	1.232823	0.206941	-0.117096
Cu18	Cu	1.732823	0.706941	0.382904
O19	O	1.209328	0.339677	0.099026
O20	O	1.709328	0.839677	0.599026
C21	C	1.035034	0.203930	0.000008
C22	C	1.535034	0.703930	0.500008
C23	C	0.919957	0.193062	0.000006
C24	C	1.419957	0.693062	0.500006
C25	C	0.679007	0.323714	0.000011
C26	C	1.179007	0.823714	0.500011
C27	C	0.570881	0.313507	0.000010
C28	C	1.070881	0.813507	0.500010
C29	C	0.595575	0.162440	0.000011
C30	C	1.095575	0.662440	0.500011
C31	C	0.703701	0.172648	0.000012
C32	C	1.203701	0.672648	0.500012
C33	C	0.745413	0.253287	0.000011
C34	C	1.245413	0.753287	0.500011
C35	C	0.853542	0.263494	0.000003
C36	C	1.353542	0.763494	0.500003
C37	C	0.878234	0.112428	0.000013
C38	C	1.378234	0.612428	0.500013
C39	C	0.770107	0.102221	0.000011
C40	C	1.270107	0.602221	0.500011
C41	C	1.232115	0.060004	0.000023
C42	C	1.732115	0.560004	0.500023
C43	C	1.230063	-0.033407	0.000024
C44	C	1.730063	0.466593	0.500024
C45	C	1.126515	-0.256548	0.000005
C46	C	1.626515	0.243452	0.500005
C47	C	1.167708	-0.308694	0.097657
C48	C	1.667708	0.191306	0.597657
C49	C	1.226352	-0.204430	0.000015
C50	C	1.726352	0.295570	0.500015
C51	C	1.181513	-0.318722	-0.097604
C52	C	1.681513	0.181278	0.402396
C53	C	1.222761	-0.369631	0.000001
C54	C	1.722761	0.130369	0.500001
C55	C	1.267567	-0.255341	0.097747
C56	C	1.767567	0.244659	0.597747
C57	C	1.281364	-0.265369	-0.097602
C58	C	1.781364	0.234631	0.402398
C59	C	1.322627	-0.317491	0.000073
C60	C	1.822627	0.182509	0.500073
C61	C	1.228418	-0.109262	0.000024
C62	C	1.728418	0.390738	0.500024
C63	C	1.220702	-0.464796	0.000000
C64	C	1.720702	0.035204	0.500000
C65	C	1.414082	0.222005	0.000014
C66	C	1.914082	0.722005	0.500014
C67	C	1.529160	0.232872	0.000008
C68	C	2.029160	0.732872	0.500008
C69	C	1.217002	0.365931	-0.000001
C70	C	1.717002	0.865931	0.499999
C71	C	1.219054	0.459340	-0.000010
C72	C	1.719054	0.959340	0.499990
N73	N	1.204674	0.227469	0.281856
N74	N	1.704674	0.727469	0.781856
N75	N	1.244451	0.198459	-0.281831
N76	N	1.744451	0.698459	0.218169
C77	C	1.328092	0.137394	0.531156
C78	C	1.828092	0.637394	1.031156
C79	C	1.319318	0.143806	0.655819
C80	C	1.819318	0.643806	1.155819
C81	C	1.178349	0.246701	0.655847
C82	C	1.678349	0.746701	1.155847
C83	C	1.187123	0.240289	0.531184
C84	C	1.687123	0.740289	1.031184
C85	C	1.261997	0.185634	0.468843
C86	C	1.761997	0.685634	0.968843
C87	C	1.270775	0.179227	0.344178
C88	C	1.770775	0.679227	0.844178
C89	C	1.129802	0.282117	0.344208
C90	C	1.629802	0.782117	0.844208
C91	C	1.121028	0.288530	0.468871
C92	C	1.621028	0.788530	0.968871
H93	H	0.887502	0.329155	0.000004
H94	H	1.387502	0.829155	0.500004
H95	H	0.712969	0.389374	0.000008
H96	H	1.212969	0.889374	0.500008
H97	H	1.329382	-0.246112	-0.180161
H98	H	1.829382	0.253888	0.319839
N99	N	1.390615	0.091782	0.723027
N100	N	1.890615	0.591782	1.223027
H101	H	1.432870	0.130238	0.774735
H102	H	1.932870	0.630238	1.274735
H103	H	1.347294	0.054068	0.774696
H104	H	1.847294	0.554068	1.274696
H105	H	1.119654	-0.327932	0.180211
H106	H	1.619654	0.172068	0.680211
H107	H	0.561586	0.096792	0.000111
H108	H	1.061586	0.596792	0.500111
H109	H	1.145100	-0.346426	-0.180167
H110	H	1.645100	0.153574	0.319833
N111	N	1.016743	-0.221194	0.000121
N112	N	1.516743	0.278806	0.500121
H113	H	0.983779	-0.245180	-0.072874
H114	H	1.483779	0.254820	0.427126
H115	H	0.974037	-0.236787	0.074002
H116	H	1.474037	0.263213	0.574002
N117	N	0.499259	0.389468	-0.000005
N118	N	0.999259	0.889468	0.499995
H119	H	0.424431	0.370768	-0.000006
H120	H	0.924431	0.870768	0.499994
H121	H	0.507585	0.428012	0.073414
H122	H	1.007585	0.928012	0.573414
H123	H	1.331744	0.134727	0.293421
H124	H	1.831744	0.634727	0.793421
N125	N	0.725114	0.015250	0.000028
N126	N	1.225114	0.515250	0.500028
H127	H	0.646539	0.019469	0.000033
H128	H	1.146539	0.519469	0.500033
H129	H	0.754582	-0.019727	-0.073390
H130	H	1.254582	0.480273	0.426610
H131	H	0.932315	0.055081	0.000004
H132	H	1.432315	0.555081	0.500004
N133	N	1.097595	0.305635	0.723112
N134	N	1.597595	0.805635	1.223112
H135	H	1.133572	0.348669	0.774829
H136	H	1.633572	0.848669	1.274829
H137	H	1.057069	0.335170	0.664658
H138	H	1.557069	0.835170	1.164658
H139	H	1.389064	0.092898	0.480398
H140	H	1.889064	0.592898	0.980398
H141	H	1.303925	-0.227723	0.180394
H142	H	1.803925	0.272277	0.680394
N143	N	1.432485	-0.352626	0.000137
N144	N	1.932485	0.147374	0.500137
H145	H	1.464842	-0.329352	0.073926
H146	H	1.964842	0.170648	0.573926
H147	H	1.430475	-0.415959	-0.000609
H148	H	1.930475	0.084041	0.499391
H149	H	1.060064	0.333026	0.519643
H150	H	1.560064	0.833026	1.019643
N151	N	1.058515	0.334160	0.277000
N152	N	1.558515	0.834160	0.777000
H153	H	1.075434	0.321808	0.188566
H154	H	1.575434	0.821808	0.688566
H155	H	0.983442	0.319664	0.298803
H156	H	1.483442	0.819664	0.798803
