data_functionalizedCrystal
_audit_creation_method	'MofGen! by Chris Wilmer'
_symmetry_space_group_name_H-M	'P1'
_symmetry_Int_Tables_number	1
_symmetry_cell_setting	triclinic
loop_
_symmetry_equiv_pos_as_xyz
  x,y,z
_cell_length_a	21.395364
_cell_length_b	21.295417
_cell_length_c	21.395355
_cell_angle_alpha	89.979596
_cell_angle_beta	89.975484
_cell_angle_gamma	90.025467
loop_
_atom_site_label
_atom_site_type_symbol
_atom_site_fract_x
_atom_site_fract_y
_atom_site_fract_z
Zn1	Zn	0.957863	-0.250753	-0.354253
Zn2	Zn	1.291197	0.082580	-0.020919
Zn3	Zn	1.624530	0.415913	0.312414
Zn4	Zn	0.957768	-0.356005	-0.249472
Zn5	Zn	1.291101	-0.022671	0.083862
Zn6	Zn	1.624434	0.310662	0.417195
Zn7	Zn	0.853078	-0.250746	-0.249489
Zn8	Zn	1.186412	0.082588	0.083844
Zn9	Zn	1.519745	0.415921	0.417177
Zn10	Zn	0.853049	-0.355981	-0.354212
Zn11	Zn	1.186383	-0.022647	-0.020879
Zn12	Zn	1.519716	0.310686	0.312455
O13	O	0.905440	-0.303371	-0.301856
O14	O	1.238773	0.029962	0.031477
O15	O	1.572106	0.363296	0.364810
O16	O	1.045529	-0.264728	-0.340363
O17	O	1.378862	0.068605	-0.007029
O18	O	1.712195	0.401938	0.326304
O19	O	0.943853	-0.342049	-0.161796
O20	O	1.277186	-0.008715	0.171537
O21	O	1.610519	0.324618	0.504871
O22	O	0.867030	-0.162657	-0.263411
O23	O	1.200364	0.170676	0.069922
O24	O	1.533697	0.504009	0.403256
O25	O	1.045458	-0.342056	-0.263381
O26	O	1.378792	-0.008723	0.069953
O27	O	1.712125	0.324611	0.403286
O28	O	0.944016	-0.162663	-0.340380
O29	O	1.277349	0.170670	-0.007047
O30	O	1.610682	0.504004	0.326287
O31	O	0.866938	-0.264715	-0.161809
O32	O	1.200271	0.068618	0.171524
O33	O	1.533604	0.401951	0.504858
O34	O	0.765397	-0.264692	-0.263371
O35	O	1.098730	0.068641	0.069962
O36	O	1.432063	0.401975	0.403295
O37	O	0.866981	-0.342015	-0.441895
O38	O	1.200314	-0.008682	-0.108562
O39	O	1.533648	0.324651	0.224771
O40	O	0.765375	-0.342008	-0.340311
O41	O	1.098709	-0.008674	-0.006977
O42	O	1.432042	0.324659	0.326356
O43	O	0.943987	-0.264705	-0.441925
O44	O	1.277321	0.068628	-0.108592
O45	O	1.610654	0.401962	0.224742
O46	O	0.943824	-0.444091	-0.263341
O47	O	1.277158	-0.110758	0.069992
O48	O	1.610491	0.222576	0.403325
O49	O	0.866888	-0.444073	-0.340293
O50	O	1.200222	-0.110740	-0.006960
O51	O	1.533555	0.222593	0.326373
C52	C	0.742652	-0.303347	-0.301839
C53	C	1.075985	0.029986	0.031494
C54	C	1.409319	0.363320	0.364828
C55	C	0.673011	-0.303352	-0.301846
C56	C	1.006344	0.029982	0.031487
C57	C	1.339678	0.363315	0.364820
C58	C	0.905360	-0.466923	-0.301825
C59	C	1.238693	-0.133589	0.031509
C60	C	1.572027	0.199744	0.364842
C61	C	0.905383	-0.536891	-0.301832
C62	C	1.238716	-0.203557	0.031501
C63	C	1.572050	0.129776	0.364835
C64	C	0.171251	-0.263202	-0.342015
C65	C	0.504584	0.070132	-0.008682
C66	C	0.837917	0.403465	0.324652
C67	C	0.236686	-0.263197	-0.342015
C68	C	0.570019	0.070136	-0.008682
C69	C	0.903353	0.403470	0.324652
C70	C	0.269373	-0.303390	-0.301870
C71	C	0.602706	0.029943	0.031463
C72	C	0.936039	0.363276	0.364796
C73	C	0.236618	-0.343603	-0.261734
C74	C	0.569952	-0.010270	0.071599
C75	C	0.903285	0.323064	0.404932
C76	C	0.171184	-0.343611	-0.261740
C77	C	0.504517	-0.010278	0.071593
C78	C	0.837851	0.323056	0.404927
C79	C	0.373009	-0.308265	-0.245403
C80	C	0.706342	0.025068	0.087930
C81	C	1.039676	0.358402	0.421264
C82	C	0.438442	-0.308252	-0.245396
C83	C	0.771775	0.025081	0.087937
C84	C	1.105109	0.358414	0.421270
C85	C	0.471193	-0.303369	-0.301853
C86	C	0.804527	0.029964	0.031480
C87	C	1.137860	0.363297	0.364814
C88	C	0.438504	-0.298485	-0.358318
C89	C	0.771837	0.034848	-0.024985
C90	C	1.105170	0.368181	0.308348
C91	C	0.373069	-0.298493	-0.358324
C92	C	0.706403	0.034840	-0.024991
C93	C	1.039736	0.368173	0.308342
C94	C	0.340325	-0.303386	-0.301860
C95	C	0.673658	0.029947	0.031473
C96	C	1.006992	0.363280	0.364807
C97	C	0.574892	-0.263157	-0.341990
C98	C	0.908226	0.070176	-0.008656
C99	C	1.241559	0.403509	0.324677
C100	C	0.640329	-0.263157	-0.341990
C101	C	0.973662	0.070176	-0.008657
C102	C	1.306996	0.403510	0.324676
C103	C	0.640260	-0.343560	-0.261704
C104	C	0.973593	-0.010227	0.071629
C105	C	1.306926	0.323107	0.404962
C106	C	0.574824	-0.343563	-0.261709
C107	C	0.908158	-0.010230	0.071624
C108	C	1.241491	0.323103	0.404958
C109	C	0.542145	-0.303359	-0.301851
C110	C	0.875478	0.029974	0.031483
C111	C	1.208811	0.363308	0.364816
C112	C	0.945446	-0.569703	-0.341938
C113	C	1.278780	-0.236370	-0.008605
C114	C	1.612113	0.096963	0.324728
C115	C	0.945468	-0.635446	-0.341954
C116	C	1.278802	-0.302112	-0.008621
C117	C	1.612135	0.031221	0.324713
C118	C	0.905434	-0.668373	-0.301852
C119	C	1.238767	-0.335040	0.031482
C120	C	1.572101	-0.001707	0.364815
C121	C	0.865363	-0.635553	-0.261743
C122	C	1.198696	-0.302220	0.071591
C123	C	1.532030	0.031114	0.404924
C124	C	0.865337	-0.569812	-0.261733
C125	C	1.198671	-0.236478	0.071601
C126	C	1.532004	0.096855	0.404934
N127	N	0.900697	-0.771625	-0.247018
N128	N	1.234030	-0.438292	0.086315
N129	N	1.567363	-0.104958	0.419649
N130	N	0.900724	-0.834077	-0.247029
N131	N	1.234058	-0.500743	0.086304
N132	N	1.567391	-0.167410	0.419637
C133	C	0.905507	-0.866448	-0.301880
C134	C	1.238840	-0.533115	0.031453
C135	C	1.572174	-0.199781	0.364787
N136	N	0.910273	-0.834009	-0.356720
N137	N	1.243606	-0.500675	-0.023387
N138	N	1.576940	-0.167342	0.309946
N139	N	0.910248	-0.771552	-0.356709
N140	N	1.243582	-0.438218	-0.023375
N141	N	1.576915	-0.104885	0.309958
C142	C	0.905457	-0.739659	-0.301858
C143	C	1.238790	-0.406325	0.031475
C144	C	1.572123	-0.072992	0.364808
C145	C	0.945596	-0.970546	-0.342007
C146	C	1.278930	-0.637213	-0.008673
C147	C	1.612263	-0.303879	0.324660
C148	C	0.945614	-1.036290	-0.342023
C149	C	1.278947	-0.702956	-0.008690
C150	C	1.612281	-0.369623	0.324644
C151	C	0.865512	-1.036396	-0.261806
C152	C	1.198845	-0.703062	0.071527
C153	C	1.532178	-0.369729	0.404861
C154	C	0.865491	-0.970653	-0.261795
C155	C	1.198824	-0.637320	0.071538
C156	C	1.532157	-0.303987	0.404871
C157	C	0.905536	-0.937732	-0.301895
C158	C	1.238870	-0.604399	0.031439
C159	C	1.572203	-0.271066	0.364772
C160	C	1.068863	-0.303396	-0.301874
C161	C	1.402196	0.029938	0.031459
C162	C	1.735530	0.363271	0.364792
C163	C	1.138504	-0.303406	-0.301882
C164	C	1.471838	0.029927	0.031451
C165	C	1.805171	0.363260	0.364785
C166	C	0.905492	-0.303358	-0.465280
C167	C	1.238825	0.029975	-0.131946
C168	C	1.572158	0.363308	0.201387
C169	C	0.905514	-0.303353	-0.534921
C170	C	1.238847	0.029980	-0.201588
C171	C	1.572181	0.363314	0.131746
C172	C	0.905537	-0.139181	-0.301902
C173	C	1.238870	0.194153	0.031431
C174	C	1.572204	0.527486	0.364765
C175	C	0.905578	-0.069213	-0.301921
C176	C	1.238912	0.264121	0.031412
C177	C	1.572245	0.597454	0.364745
C178	C	0.945609	-0.263096	-0.567651
C179	C	1.278943	0.070238	-0.234317
C180	C	1.612276	0.403571	0.099016
C181	C	0.945609	-0.263069	-0.633086
C182	C	1.278942	0.070265	-0.299753
C183	C	1.612275	0.403598	0.033581
C184	C	0.905519	-0.303310	-0.665789
C185	C	1.238852	0.030023	-0.332456
C186	C	1.572185	0.363357	0.000877
C187	C	0.865415	-0.343570	-0.633052
C188	C	1.198749	-0.010237	-0.299718
C189	C	1.532082	0.323097	0.033615
C190	C	0.865413	-0.343591	-0.567618
C191	C	1.198746	-0.010258	-0.234284
C192	C	1.532080	0.323075	0.099049
C193	C	0.900544	-0.359990	-0.769453
C194	C	1.233877	-0.026656	-0.436120
C195	C	1.567210	0.306677	-0.102786
C196	C	0.900551	-0.359969	-0.834886
C197	C	1.233884	-0.026636	-0.501553
C198	C	1.567217	0.306697	-0.168219
C199	C	0.905523	-0.303244	-0.867610
C200	C	1.238856	0.030090	-0.534277
C201	C	1.572189	0.363423	-0.200944
C202	C	0.910501	-0.246536	-0.834893
C203	C	1.243834	0.086797	-0.501560
C204	C	1.577168	0.420130	-0.168227
C205	C	0.910499	-0.246558	-0.769459
C206	C	1.243832	0.086776	-0.436126
C207	C	1.577165	0.420109	-0.102793
C208	C	0.905517	-0.303291	-0.736742
C209	C	1.238850	0.030042	-0.403408
C210	C	1.572183	0.363376	-0.070075
C211	C	0.945619	-0.262954	-0.971293
C212	C	1.278953	0.070380	-0.637959
C213	C	1.612286	0.403713	-0.304626
C214	C	0.945614	-0.262926	-1.036729
C215	C	1.278947	0.070408	-0.703396
C216	C	1.612281	0.403741	-0.370062
C217	C	0.865424	-0.343432	-1.036694
C218	C	1.198758	-0.010099	-0.703360
C219	C	1.532091	0.323234	-0.370027
C220	C	0.865426	-0.343455	-0.971258
C221	C	1.198760	-0.010122	-0.637925
C222	C	1.532093	0.323212	-0.304592
C223	C	0.905527	-0.303216	-0.938562
C224	C	1.238860	0.030117	-0.605228
C225	C	1.572194	0.363450	-0.271895
C226	C	0.905424	-0.303338	-0.139069
C227	C	1.238757	0.029995	0.194265
C228	C	1.572091	0.363328	0.527598
C229	C	0.905523	-0.303166	-0.069428
C230	C	1.238857	0.030167	0.263905
C231	C	1.572190	0.363500	0.597239
H232	H	0.263353	-0.230454	-0.374695
H233	H	0.596687	0.102879	-0.041362
H234	H	0.930020	0.436212	0.291971
H235	H	0.896327	-0.406171	-0.742815
H236	H	1.229661	-0.072838	-0.409481
H237	H	1.562994	0.260496	-0.076148
N238	N	0.824482	-0.384589	-0.937820
N239	N	1.157815	-0.051255	-0.604487
N240	N	1.491149	0.282078	-0.271153
N241	N	0.846501	-0.424717	-0.901314
N242	N	1.179835	-0.091384	-0.567981
N243	N	1.513168	0.241950	-0.234648
H244	H	0.817582	-0.453768	-0.877698
H245	H	1.150915	-0.120435	-0.544364
H246	H	1.484248	0.212899	-0.211031
N247	N	0.824606	-1.070013	-0.220846
N248	N	1.157940	-0.736680	0.112488
N249	N	1.491273	-0.403347	0.445821
N250	N	0.766787	-1.062713	-0.224950
N251	N	1.100121	-0.729380	0.108383
N252	N	1.433454	-0.396046	0.441716
H253	H	0.737893	-1.086458	-0.196023
H254	H	1.071227	-0.753124	0.137310
H255	H	1.404560	-0.419791	0.470644
H256	H	0.666872	-0.376291	-0.229023
H257	H	1.000206	-0.042958	0.104311
H258	H	1.333539	0.290375	0.437644
N259	N	0.915572	-0.188581	-0.868301
N260	N	1.248906	0.144753	-0.534968
N261	N	1.582239	0.478086	-0.201635
N262	N	0.920013	-0.137957	-0.839084
N263	N	1.253346	0.195376	-0.505750
N264	N	1.586679	0.528710	-0.172417
H265	H	0.923595	-0.097026	-0.862679
H266	H	1.256929	0.236307	-0.529346
H267	H	1.590262	0.569640	-0.196013
H268	H	0.832772	-0.376333	-0.659683
H269	H	1.166105	-0.042999	-0.326350
H270	H	1.499439	0.290334	0.006984
N271	N	0.824406	-0.536301	-0.220761
N272	N	1.157739	-0.202968	0.112572
N273	N	1.491073	0.130366	0.445906
N274	N	0.788658	-0.565704	-0.184961
N275	N	1.121992	-0.232371	0.148372
N276	N	1.455325	0.100962	0.481705
H277	H	0.759750	-0.542037	-0.156024
H278	H	1.093083	-0.208704	0.177310
H279	H	1.426416	0.124630	0.510643
H280	H	0.832776	-0.376191	-1.063320
H281	H	1.166109	-0.042858	-0.729987
H282	H	1.499443	0.290475	-0.396653
H283	H	0.548283	-0.230420	-0.374675
H284	H	0.881616	0.102913	-0.041342
H285	H	1.214950	0.436246	0.291991
N286	N	0.824481	-0.669198	-0.220778
N287	N	1.157815	-0.335865	0.112556
N288	N	1.491148	-0.002532	0.445889
N289	N	0.846567	-0.705884	-0.180881
N290	N	1.179900	-0.372550	0.152452
N291	N	1.513234	-0.039217	0.485786
H292	H	0.817693	-0.729648	-0.151949
H293	H	1.151027	-0.396315	0.181384
H294	H	1.484360	-0.062981	0.514717
H295	H	0.978238	-1.063004	-0.374685
H296	H	1.311571	-0.729671	-0.041352
H297	H	1.644905	-0.396338	0.291981
H298	H	0.832870	-0.943936	-0.229134
H299	H	1.166204	-0.610602	0.104199
H300	H	1.499537	-0.277269	0.437533
N301	N	0.270013	-0.384660	-0.220735
N302	N	0.603346	-0.051326	0.112598
N303	N	0.936680	0.282007	0.445931
N304	N	0.328436	-0.384647	-0.220735
N305	N	0.661769	-0.051314	0.112598
N306	N	0.995102	0.282020	0.445932
H307	H	0.352022	-0.413647	-0.191780
H308	H	0.685355	-0.080313	0.141553
H309	H	1.018688	0.253020	0.474886
H310	H	0.896501	-0.406144	-0.861519
H311	H	1.229834	-0.072811	-0.528186
H312	H	1.563167	0.260523	-0.194852
H313	H	0.832760	-0.376373	-0.540969
H314	H	1.166093	-0.043039	-0.207636
H315	H	1.499426	0.290294	0.125697
N316	N	0.986397	-0.668982	-0.382912
N317	N	1.319731	-0.335649	-0.049579
N318	N	1.653064	-0.002315	0.283755
N319	N	0.986415	-0.727679	-0.382910
N320	N	1.319749	-0.394345	-0.049577
N321	N	1.653082	-0.061012	0.283757
H322	H	1.015322	-0.751363	-0.411835
H323	H	1.348656	-0.418030	-0.078502
H324	H	1.681989	-0.084697	0.254831
H325	H	0.144647	-0.230466	-0.374704
H326	H	0.477980	0.102867	-0.041371
H327	H	0.811313	0.436200	0.291962
N328	N	0.339668	-0.293545	-0.415995
N329	N	0.673001	0.039788	-0.082661
N330	N	1.006334	0.373122	0.250672
N331	N	0.281245	-0.293574	-0.415990
N332	N	0.614578	0.039759	-0.082656
N333	N	0.947912	0.373092	0.250677
H334	H	0.257654	-0.290092	-0.456721
H335	H	0.590987	0.043241	-0.123388
H336	H	0.924320	0.376575	0.209946
H337	H	0.465168	-0.294506	-0.404291
H338	H	0.798501	0.038827	-0.070957
H339	H	1.131835	0.372161	0.262376
N340	N	0.986503	-0.936923	-0.382969
N341	N	1.319836	-0.603590	-0.049636
N342	N	1.653170	-0.270256	0.283698
N343	N	1.022269	-0.966231	-0.418781
N344	N	1.355602	-0.632898	-0.085448
N345	N	1.688935	-0.299565	0.247886
H346	H	1.051160	-0.942487	-0.447711
H347	H	1.384494	-0.609154	-0.114378
H348	H	1.717827	-0.275821	0.218955
H349	H	0.978262	-0.230330	-0.541033
H350	H	1.311595	0.103004	-0.207700
H351	H	1.644929	0.436337	0.125634
H352	H	0.978258	-0.230283	-0.659740
H353	H	1.311591	0.103050	-0.326407
H354	H	1.644924	0.436384	0.006927
H355	H	0.666990	-0.230419	-0.374676
H356	H	1.000323	0.102914	-0.041343
H357	H	1.333657	0.436247	0.291990
H358	H	0.548162	-0.376300	-0.229025
H359	H	0.881495	-0.042967	0.104308
H360	H	1.214829	0.290367	0.437641
H361	H	0.465053	-0.312225	-0.199419
H362	H	0.798386	0.021108	0.133915
H363	H	1.131720	0.354441	0.467248
H364	H	0.914550	-0.200385	-0.742824
H365	H	1.247884	0.132949	-0.409490
H366	H	1.581217	0.466282	-0.076157
H367	H	0.978264	-0.230140	-1.063377
H368	H	1.311597	0.103194	-0.730043
H369	H	1.644930	0.436527	-0.396710
H370	H	0.346348	-0.312244	-0.199426
H371	H	0.679682	0.021089	0.133907
H372	H	1.013015	0.354423	0.467241
H373	H	0.978052	-0.542901	-0.374591
H374	H	1.311385	-0.209568	-0.041258
H375	H	1.644719	0.123766	0.292075
N376	N	0.137741	-0.384687	-0.220741
N377	N	0.471074	-0.051354	0.112592
N378	N	0.804407	0.281980	0.445926
N379	N	0.166929	-0.420576	-0.184903
N380	N	0.500262	-0.087243	0.148430
N381	N	0.833595	0.246090	0.481763
H382	H	0.143309	-0.449587	-0.155946
H383	H	0.476642	-0.116254	0.177387
H384	H	0.809975	0.217080	0.510721
N385	N	0.986580	-0.221847	-0.937899
N386	N	1.319914	0.111487	-0.604565
N387	N	1.653247	0.444820	-0.271232
N388	N	1.022373	-0.185899	-0.967133
N389	N	1.355706	0.147435	-0.633800
N390	N	1.689040	0.480768	-0.300466
H391	H	1.051302	-0.156865	-0.943551
H392	H	1.384635	0.176468	-0.610218
H393	H	1.717969	0.509801	-0.276884
