data_functionalizedCrystal
_audit_creation_method	'MofGen! by Chris Wilmer'
_symmetry_space_group_name_H-M	'P1'
_symmetry_Int_Tables_number	1
_symmetry_cell_setting	triclinic
loop_
_symmetry_equiv_pos_as_xyz
  x,y,z
_cell_length_a	19.077105
_cell_length_b	19.076808
_cell_length_c	21.395355
_cell_angle_alpha	92.317436
_cell_angle_beta	92.321224
_cell_angle_gamma	89.927608
loop_
_atom_site_label
_atom_site_type_symbol
_atom_site_fract_x
_atom_site_fract_y
_atom_site_fract_z
Zn1	Zn	1.063037	-0.323083	0.380673
Zn2	Zn	1.563037	0.176917	0.880673
Zn3	Zn	1.058217	-0.440575	0.271519
Zn4	Zn	1.558217	0.059425	0.771519
Zn5	Zn	0.945519	-0.318353	0.271881
Zn6	Zn	1.445519	0.181647	0.771881
Zn7	Zn	0.940775	-0.435829	0.372234
Zn8	Zn	1.440775	0.064171	0.872234
O9	O	1.001887	-0.379460	0.324077
O10	O	1.501887	0.120540	0.824077
O11	O	1.160729	-0.342634	0.369574
O12	O	1.660729	0.157366	0.869574
O13	O	1.043236	-0.424368	0.183888
O14	O	1.543236	0.075632	0.683888
O15	O	0.965110	-0.220646	0.289996
O16	O	1.465110	0.279354	0.789996
O17	O	1.157189	-0.428954	0.289379
O18	O	1.657189	0.071046	0.789379
O19	O	1.051450	-0.224121	0.369925
O20	O	1.551450	0.275879	0.869925
O21	O	0.960437	-0.334573	0.184154
O22	O	1.460437	0.165427	0.684154
O23	O	0.846557	-0.329971	0.281813
O24	O	1.346557	0.170029	0.781813
O25	O	0.957025	-0.420867	0.461033
O26	O	1.457025	0.079133	0.961033
O27	O	0.843072	-0.416281	0.355542
O28	O	1.343072	0.083719	0.855542
O29	O	1.046850	-0.338033	0.467233
O30	O	1.546850	0.161967	0.967233
O31	O	1.038636	-0.538280	0.281196
O32	O	1.538636	-0.038280	0.781196
O33	O	0.952352	-0.534793	0.355191
O34	O	1.452352	-0.034793	0.855191
C35	C	0.819318	-0.372098	0.317801
C36	C	1.319318	0.127902	0.817801
C37	C	0.741214	-0.368966	0.315131
C38	C	1.241214	0.131034	0.815131
C39	C	0.702722	-0.412498	0.352198
C40	C	1.202722	0.087502	0.852198
C41	C	0.629335	-0.409546	0.349692
C42	C	1.129335	0.090454	0.849692
C43	C	0.594442	-0.363064	0.310116
C44	C	1.094442	0.136936	0.810116
C45	C	0.632939	-0.319526	0.273048
C46	C	1.132939	0.180474	0.773048
C47	C	0.706325	-0.322476	0.275557
C48	C	1.206325	0.177524	0.775557
C49	C	0.375155	-0.349413	0.298504
C50	C	0.875155	0.150587	0.798504
C51	C	0.301764	-0.346468	0.295996
C52	C	0.801764	0.153532	0.795996
C53	C	0.298165	-0.436487	0.372641
C54	C	0.798165	0.063513	0.872641
C55	C	0.371552	-0.439436	0.375144
C56	C	0.871552	0.060564	0.875144
C57	C	0.410043	-0.395896	0.338079
C58	C	0.910043	0.104104	0.838079
N59	N	0.519428	-0.360046	0.307552
N60	N	1.019428	0.139954	0.807552
N61	N	0.485055	-0.398910	0.340646
N62	N	0.985055	0.101090	0.840646
C63	C	0.994475	-0.562034	0.317253
C64	C	1.494475	-0.062034	0.817253
C65	C	0.991369	-0.640143	0.314357
C66	C	1.491369	-0.140143	0.814357
C67	C	1.034828	-0.678586	0.354642
C68	C	1.534828	-0.178586	0.854642
C69	C	1.031907	-0.751977	0.351922
C70	C	1.531907	-0.251977	0.851922
C71	C	0.985529	-0.786924	0.308913
C72	C	1.485529	-0.286924	0.808913
C73	C	0.942064	-0.748476	0.268626
C74	C	1.442064	-0.248476	0.768626
C75	C	0.944983	-0.675086	0.271350
C76	C	1.444983	-0.175086	0.771350
C77	C	0.971980	-1.006230	0.296304
C78	C	1.471980	-0.506230	0.796304
C79	C	0.969066	-1.079625	0.293582
C80	C	1.469066	-0.579625	0.793582
C81	C	1.058908	-1.083121	0.376879
C82	C	1.558908	-0.583121	0.876879
C83	C	1.061825	-1.009730	0.379597
C84	C	1.561825	-0.509730	0.879597
C85	C	1.018358	-0.971288	0.339312
C86	C	1.518358	-0.471288	0.839312
N87	N	0.982543	-0.861942	0.306130
N88	N	1.482543	-0.361942	0.806130
N89	N	1.021341	-0.896271	0.342098
N90	N	1.521341	-0.396271	0.842098
C91	C	1.185168	-0.386851	0.330377
C92	C	1.685168	0.113149	0.830377
C93	C	1.263272	-0.390001	0.333062
C94	C	1.763272	0.109999	0.833062
C95	C	1.001946	-0.379448	0.487503
C96	C	1.501946	0.120552	0.987503
C97	C	1.001971	-0.379443	0.557145
C98	C	1.501971	0.120557	1.057145
C99	C	1.009347	-0.196174	0.330942
C100	C	1.509347	0.303826	0.830942
C101	C	1.012525	-0.118068	0.333867
C102	C	1.512525	0.381932	0.833867
C103	C	1.001871	-0.379423	0.161290
C104	C	1.501871	0.120577	0.661290
C105	C	1.001990	-0.379235	0.091660
C106	C	1.501990	0.120765	0.591660
C107	C	1.048741	-0.336310	0.593088
C108	C	1.548741	0.163690	1.093088
C109	C	1.048741	-0.336279	0.658524
C110	C	1.548741	0.163721	1.158524
C111	C	1.001978	-0.379396	0.688016
C112	C	1.501978	0.120604	1.188016
C113	C	0.955199	-0.422532	0.652065
C114	C	1.455199	0.077468	1.152065
C115	C	0.955196	-0.422556	0.586630
C116	C	1.455196	0.077444	1.086630
C117	C	0.993861	-0.442445	0.789135
C118	C	1.493861	0.057555	1.289135
C119	C	0.993870	-0.442422	0.854569
C120	C	1.493870	0.057578	1.354569
C121	C	1.001986	-0.379321	0.889839
C122	C	1.501986	0.120679	1.389839
C123	C	1.010108	-0.316242	0.859668
C124	C	1.510108	0.183758	1.359668
C125	C	1.010104	-0.316266	0.794233
C126	C	1.510104	0.183734	1.294233
C127	C	1.001977	-0.379374	0.758969
C128	C	1.501977	0.120626	1.258969
C129	C	1.048759	-0.336151	0.996736
C130	C	1.548759	0.163849	1.496736
C131	C	1.048754	-0.336120	1.062173
C132	C	1.548754	0.163880	1.562173
C133	C	0.955215	-0.422379	1.055713
C134	C	1.455215	0.077621	1.555713
C135	C	0.955217	-0.422404	0.990276
C136	C	1.455217	0.077596	1.490276
C137	C	1.001992	-0.379291	0.960792
C138	C	1.501992	0.120709	1.460792
H139	H	0.399957	-0.477288	0.407370
H140	H	0.899957	0.022712	0.907370
Br141	Br	1.117894	-1.135296	0.431550
Br142	Br	1.617894	-0.635296	0.931550
H143	H	1.086826	-0.301151	0.687794
H144	H	1.586826	0.198849	1.187794
Br145	Br	0.758566	-0.263390	0.225254
Br146	Br	1.258566	0.236610	0.725254
Br147	Br	0.885997	-0.622912	0.216677
Br148	Br	1.385997	-0.122912	0.716677
H149	H	1.016715	-0.264904	0.769670
H150	H	1.516715	0.235096	1.269670
H151	H	0.917135	-0.457533	0.961011
H152	H	1.417135	0.042467	1.461011
H153	H	0.273357	-0.308609	0.263772
H154	H	0.773357	0.191391	0.763772
Br155	Br	1.097779	-0.631165	0.413010
Br156	Br	1.597779	-0.131165	0.913010
H157	H	1.067302	-0.783275	0.384722
H158	H	1.567302	-0.283275	0.884722
Br159	Br	0.750069	-0.475590	0.405906
Br160	Br	1.250069	0.024410	0.905906
Br161	Br	0.245923	-0.495577	0.422939
Br162	Br	0.745923	0.004423	0.922939
Br163	Br	0.585586	-0.256436	0.219342
Br164	Br	1.085586	0.243564	0.719342
H165	H	0.406486	-0.313965	0.268317
H166	H	0.906486	0.186035	0.768317
H167	H	0.931296	-1.108076	0.258558
H168	H	1.431296	-0.608076	0.758558
H169	H	1.099590	-0.981277	0.414618
H170	H	1.599590	-0.481277	0.914618
Br171	Br	0.912980	-0.954067	0.241639
Br172	Br	1.412980	-0.454067	0.741639
H173	H	0.904299	-0.776936	0.233609
H174	H	1.404299	-0.276936	0.733609
H175	H	1.086828	-0.301203	0.569086
H176	H	1.586828	0.198797	1.069086
H177	H	0.917133	-0.457477	1.079724
H178	H	1.417133	0.042523	1.579724
Br179	Br	0.891716	-0.481098	0.537847
Br180	Br	1.391716	0.018902	1.037847
H181	H	1.016717	-0.264859	0.888384
H182	H	1.516717	0.235141	1.388384
H183	H	0.987261	-0.493786	0.879130
H184	H	1.487261	0.006214	1.379130
Br185	Br	0.982867	-0.528092	0.741276
Br186	Br	1.482867	-0.028092	1.241276
H187	H	0.917122	-0.457635	0.676081
H188	H	1.417122	0.042365	1.176081
H189	H	0.597997	-0.444995	0.379875
H190	H	1.097997	0.055005	0.879875
H191	H	1.086842	-0.301042	0.972728
H192	H	1.586842	0.198958	1.472728
Br193	Br	1.112244	-0.277587	1.110954
Br194	Br	1.612244	0.222413	1.610954
