data_functionalizedCrystal
_audit_creation_method	'MofGen! by Chris Wilmer'
_symmetry_space_group_name_H-M	'P1'
_symmetry_Int_Tables_number	1
_symmetry_cell_setting	triclinic
loop_
_symmetry_equiv_pos_as_xyz
  x,y,z
_cell_length_a	10.540539
_cell_length_b	17.699083
_cell_length_c	16.776229
_cell_angle_alpha	90.001114
_cell_angle_beta	89.995514
_cell_angle_gamma	96.095747
loop_
_atom_site_label
_atom_site_type_symbol
_atom_site_fract_x
_atom_site_fract_y
_atom_site_fract_z
O1	O	0.160520	-1.005122	-0.066173
O2	O	0.660520	-0.505122	0.433827
O3	O	0.181404	-0.784880	-0.066198
O4	O	0.681404	-0.284880	0.433802
O5	O	-0.013836	-0.900026	-0.066184
O6	O	0.486164	-0.400026	0.433816
O7	O	0.355761	-0.889976	-0.066187
O8	O	0.855761	-0.389976	0.433813
O9	O	-0.013848	-0.900010	0.066393
O10	O	0.486152	-0.400010	0.566393
O11	O	0.181392	-0.784864	0.066378
O12	O	0.681392	-0.284864	0.566378
O13	O	0.160508	-1.005107	0.066404
O14	O	0.660508	-0.505107	0.566404
Zn15	Zn	0.170948	-0.894983	0.087440
Zn16	Zn	0.670948	-0.394983	0.587440
Zn17	Zn	0.170964	-0.895003	-0.087235
Zn18	Zn	0.670964	-0.395003	0.412765
O19	O	0.355749	-0.889961	0.066389
O20	O	0.855749	-0.389961	0.566389
C21	C	0.180650	-0.756670	0.000087
C22	C	0.680650	-0.256670	0.500087
C23	C	0.178405	-0.672637	0.000077
C24	C	0.678405	-0.172637	0.500077
C25	C	-0.061131	-0.899264	0.000103
C26	C	0.438869	-0.399264	0.500103
C27	C	-0.202038	-0.897009	0.000098
C28	C	0.297962	-0.397009	0.500098
C29	C	0.161263	-1.033316	0.000117
C30	C	0.661263	-0.533316	0.500117
C31	C	0.163508	-1.117349	0.000122
C32	C	0.663508	-0.617349	0.500122
C33	C	-0.383885	-0.810610	-0.000209
C34	C	0.116115	-0.310610	0.499791
C35	C	-0.237308	-0.812896	0.000089
C36	C	0.262692	-0.312896	0.500089
C37	C	-0.264443	-0.937480	0.075811
C38	C	0.235557	-0.437480	0.575811
C39	C	-0.410935	-0.934609	0.075874
C40	C	0.089065	-0.434609	0.575874
C41	C	-0.411471	-0.936337	-0.074890
C42	C	0.088529	-0.436337	0.425110
C43	C	-0.264503	-0.937112	-0.075891
C44	C	0.235497	-0.437112	0.424109
C45	C	0.403044	-0.890722	0.000101
C46	C	0.903044	-0.390722	0.500101
C47	C	0.543951	-0.892977	0.000100
C48	C	1.043951	-0.392977	0.500100
N49	N	0.170937	-0.894974	0.206652
N50	N	0.670937	-0.394974	0.706652
C51	C	0.293007	-0.624761	0.000076
C52	C	0.793007	-0.124761	0.500076
C53	C	0.290890	-0.545804	0.000086
C54	C	0.790890	-0.045804	0.500086
C55	C	0.174170	-0.514725	0.000092
C56	C	0.674170	-0.014725	0.500092
C57	C	0.059559	-0.562607	0.000095
C58	C	0.559559	-0.062607	0.500095
C59	C	0.061677	-0.641562	0.000090
C60	C	0.561677	-0.141562	0.500090
C61	C	0.051014	-0.244188	0.000115
C62	C	0.551014	0.255812	0.500115
C63	C	0.048904	-0.165226	0.000117
C64	C	0.548904	0.334774	0.500117
C65	C	0.280227	-0.148430	0.000111
C66	C	0.780227	0.351570	0.500111
C67	C	0.282345	-0.227386	0.000106
C68	C	0.782345	0.272614	0.500106
C69	C	0.167735	-0.275261	0.000113
C70	C	0.667735	0.224739	0.500113
C71	C	0.170032	-0.360875	0.000104
C72	C	0.670032	0.139125	0.500104
C73	C	0.171872	-0.429112	0.000096
C74	C	0.671872	0.070888	0.500096
N75	N	0.170966	-0.895018	-0.206446
N76	N	0.670966	-0.395018	0.293554
C77	C	0.084520	-0.945977	0.248375
C78	C	0.584520	-0.445977	0.748375
C79	C	0.084519	-0.945981	0.331827
C80	C	0.584519	-0.445981	0.831827
C81	C	0.170942	-0.894986	0.373555
C82	C	0.670942	-0.394986	0.873555
C83	C	0.257363	-0.843978	0.331825
C84	C	0.757363	-0.343978	0.831825
C85	C	0.257357	-0.843971	0.248375
C86	C	0.757357	-0.343971	0.748375
C87	C	0.257388	-0.844005	0.668372
C88	C	0.757388	-0.344005	1.168372
C89	C	0.257390	-0.844018	0.751829
C90	C	0.757390	-0.344018	1.251829
C91	C	0.084550	-0.946016	0.751825
C92	C	0.584550	-0.446016	1.251825
C93	C	0.084544	-0.946009	0.668374
C94	C	0.584544	-0.446009	1.168374
C95	C	0.170960	-0.894998	0.626652
C96	C	0.670960	-0.394998	1.126652
C97	C	0.170958	-0.894993	0.536164
C98	C	0.670958	-0.394993	1.036164
C99	C	0.170950	-0.894994	0.464041
C100	C	0.670950	-0.394994	0.964041
H101	H	-0.194118	-0.781051	-0.054185
H102	H	0.305882	-0.281051	0.445815
F103	F	-0.181963	-0.770962	0.071136
F104	F	0.318037	-0.270962	0.571136
H105	H	0.327726	-0.802453	0.365804
H106	H	0.827726	-0.302453	0.865804
H107	H	0.373548	-0.109440	0.000109
H108	H	0.873548	0.390560	0.500109
F109	F	0.349331	-0.789684	0.203971
F110	F	0.849331	-0.289684	0.703971
H111	H	0.327768	-0.802489	0.785802
H112	H	0.827768	-0.302489	1.285802
H113	H	0.384211	-0.506826	0.000085
H114	H	0.884211	-0.006826	0.500085
H115	H	-0.243219	-0.999250	0.078633
H116	H	0.256781	-0.499250	0.578633
H117	H	-0.035477	-0.537295	0.000111
H118	H	0.464523	-0.037295	0.500111
F119	F	0.406574	-0.260458	0.000096
F120	F	0.906574	0.239542	0.500096
F121	F	-0.208101	-0.900719	0.149447
F122	F	0.291899	-0.400719	0.649447
F123	F	-0.070965	-0.295130	0.000122
F124	F	0.429035	0.204870	0.500122
F125	F	-0.007457	-1.000263	0.376233
F126	F	0.492543	-0.500263	0.876233
F127	F	-0.060298	-0.692515	0.000094
F128	F	0.439702	-0.192515	0.500094
F129	F	-0.234304	-1.017269	-0.081862
F130	F	0.265696	-0.517269	0.418138
H131	H	0.014150	-0.987506	0.214406
H132	H	0.514150	-0.487506	0.714406
H133	H	-0.046149	-0.139925	0.000122
H134	H	0.453851	0.360075	0.500122
F135	F	-0.007434	-1.000287	0.623969
F136	F	0.492566	-0.500287	1.123969
F137	F	-0.007427	-1.000304	0.796235
F138	F	0.492573	-0.500304	1.296235
H139	H	0.327753	-0.802472	0.634409
H140	H	0.827753	-0.302472	1.134409
H141	H	-0.459808	-0.997092	-0.075392
H142	H	0.040192	-0.497092	0.424608
F143	F	0.417239	-0.657831	0.000065
F144	F	0.917239	-0.157831	0.500065
H145	H	-0.411872	-0.777390	-0.054504
H146	H	0.088128	-0.277390	0.445496
H147	H	-0.413492	-0.777513	0.053774
H148	H	0.086508	-0.277513	0.553774
F149	F	-0.475083	-1.013675	0.080381
F150	F	0.024917	-0.513675	0.580381
H151	H	-0.442521	-0.909121	-0.132275
H152	H	0.057479	-0.409121	0.367725
F153	F	-0.447088	-0.895495	0.149839
F154	F	0.052912	-0.395495	0.649839
H155	H	-0.223098	-0.907500	-0.131901
H156	H	0.276902	-0.407500	0.368099
