data_functionalizedCrystal
_audit_creation_method	'MofGen! by Chris Wilmer'
_symmetry_space_group_name_H-M	'P1'
_symmetry_Int_Tables_number	1
_symmetry_cell_setting	triclinic
loop_
_symmetry_equiv_pos_as_xyz
  x,y,z
_cell_length_a	19.077105
_cell_length_b	16.625546
_cell_length_c	19.076919
_cell_angle_alpha	92.269917
_cell_angle_beta	90.076224
_cell_angle_gamma	87.718759
loop_
_atom_site_label
_atom_site_type_symbol
_atom_site_fract_x
_atom_site_fract_y
_atom_site_fract_z
Zn1	Zn	1.058283	-0.390077	-0.440407
Zn2	Zn	1.062927	-0.519720	-0.322896
Zn3	Zn	0.945500	-0.379275	-0.318200
Zn4	Zn	0.940748	-0.519234	-0.435649
O5	O	1.001864	-0.452076	-0.379288
O6	O	1.157231	-0.411998	-0.428775
O7	O	1.051282	-0.496773	-0.223942
O8	O	0.960506	-0.267879	-0.334437
O9	O	1.160642	-0.507246	-0.342441
O10	O	1.043367	-0.275815	-0.424222
O11	O	0.965009	-0.393589	-0.220492
O12	O	0.846538	-0.393117	-0.329824
O13	O	0.952407	-0.506418	-0.534611
O14	O	0.843047	-0.495944	-0.416113
O15	O	1.038759	-0.411527	-0.538107
O16	O	1.046674	-0.632485	-0.337827
O17	O	0.956910	-0.632127	-0.420666
C18	C	0.819296	-0.443306	-0.371943
C19	C	0.741192	-0.439575	-0.368817
C20	C	0.702702	-0.491432	-0.412204
C21	C	0.629314	-0.487916	-0.409270
C22	C	0.594418	-0.432544	-0.362946
C23	C	0.632913	-0.380681	-0.319557
C24	C	0.706299	-0.384194	-0.322495
C25	C	0.375130	-0.416284	-0.349354
C26	C	0.301739	-0.412776	-0.346418
C27	C	0.298145	-0.520010	-0.436133
C28	C	0.371533	-0.523522	-0.439063
C29	C	0.410021	-0.471655	-0.395677
N30	N	0.519405	-0.428950	-0.359945
N31	N	0.485034	-0.475247	-0.398682
C32	C	1.001799	-0.661563	-0.379256
C33	C	1.001834	-0.751186	-0.379268
C34	C	1.001954	-1.079371	-0.379346
C35	C	1.001918	-0.988060	-0.379327
C36	C	1.001894	-0.915281	-0.379307
C37	C	1.001859	-0.823965	-0.379288
C38	C	1.185146	-0.460881	-0.386662
C39	C	1.263249	-0.464634	-0.389805
C40	C	0.994535	-0.460123	-0.562568
C41	C	0.991412	-0.463552	-0.640671
C42	C	1.001948	-0.241774	-0.379336
C43	C	1.001984	-0.152155	-0.379357
C44	C	1.034901	-0.415760	-0.679185
C45	C	1.031958	-0.418978	-0.752571
C46	C	0.985529	-0.469993	-0.787441
C47	C	0.942035	-0.517786	-0.748922
C48	C	0.944975	-0.514563	-0.675537
C49	C	0.971911	-0.484926	-1.006722
C50	C	0.968976	-0.488147	-1.080112
C51	C	1.058898	-0.389338	-1.083755
C52	C	1.061837	-0.386123	-1.010369
C53	C	1.018341	-0.433913	-0.971856
N54	N	0.982521	-0.473286	-0.862453
N55	N	1.021346	-0.430616	-0.896846
C56	C	1.009205	-0.444005	-0.196723
C57	C	1.012465	-0.440356	-0.118626
H58	H	0.406459	-0.374056	-0.314021
H59	H	0.737637	-0.341962	-0.287168
H60	H	0.604495	-0.335593	-0.281842
N61	N	0.407181	-0.580074	-0.486387
N62	N	0.446361	-0.555719	-0.532846
H63	H	0.471540	-0.595662	-0.566265
N64	N	1.082337	-0.363650	-0.643580
N65	N	1.121162	-0.320982	-0.677980
H66	H	1.154664	-0.284176	-0.652836
H67	H	0.904228	-0.559320	-0.777319
N68	N	0.900553	-0.563371	-0.636183
N69	N	0.857430	-0.531048	-0.593436
H70	H	0.826053	-0.565517	-0.565640
H71	H	0.597979	-0.530145	-0.444600
N72	N	1.076386	-0.370155	-0.791901
N73	N	1.117841	-0.324614	-0.760758
H74	H	1.149221	-0.290130	-0.788534
H75	H	1.099647	-0.344584	-0.981983
H76	H	0.931165	-0.529691	-1.108501
N77	N	0.738354	-0.547984	-0.459525
N78	N	0.803877	-0.551115	-0.462144
H79	H	0.829056	-0.591054	-0.495568
N80	N	0.258819	-0.572982	-0.480442
N81	N	0.193297	-0.569842	-0.477814
H82	H	0.165521	-0.607254	-0.509110
N83	N	1.103322	-0.340531	-1.123106
N84	N	1.100694	-0.343413	-1.188628
H85	H	1.132069	-0.308940	-1.216420
N86	N	0.266104	-0.356207	-0.299092
N87	N	0.300476	-0.309902	-0.260359
H88	H	0.275308	-0.269953	-0.226936
N89	N	0.927478	-0.533746	-0.967399
N90	N	0.886029	-0.579292	-0.998545
H91	H	0.854646	-0.613775	-0.970771
