data_functionalizedCrystal
_audit_creation_method	'MofGen! by Chris Wilmer'
_symmetry_space_group_name_H-M	'P1'
_symmetry_Int_Tables_number	1
_symmetry_cell_setting	triclinic
loop_
_symmetry_equiv_pos_as_xyz
  x,y,z
_cell_length_a	14.908571
_cell_length_b	25.639240
_cell_length_c	14.908308
_cell_angle_alpha	86.744551
_cell_angle_beta	89.824947
_cell_angle_gamma	86.728305
loop_
_atom_site_label
_atom_site_type_symbol
_atom_site_fract_x
_atom_site_fract_y
_atom_site_fract_z
Zn1	Zn	1.345200	-0.272845	0.587486
Zn2	Zn	1.353751	-0.355542	0.437097
Zn3	Zn	1.203518	-0.262803	0.428487
Zn4	Zn	1.194779	-0.354921	0.578749
O5	O	1.274312	-0.311527	0.507955
O6	O	1.472158	-0.288277	0.574796
O7	O	1.341059	-0.339297	0.310132
O8	O	1.222392	-0.190974	0.449632
O9	O	1.478441	-0.349035	0.464306
O10	O	1.326484	-0.198352	0.566448
O11	O	1.230683	-0.271162	0.303806
O12	O	1.076535	-0.270560	0.441160
O13	O	1.207496	-0.347976	0.705731
O14	O	1.070114	-0.338238	0.551557
O15	O	1.318010	-0.287675	0.712150
O16	O	1.332584	-0.428620	0.455834
O17	O	1.215788	-0.428164	0.559905
C18	C	1.040699	-0.303242	0.494477
C19	C	0.940758	-0.299711	0.488732
C20	C	0.746328	-0.363648	0.592738
C21	C	0.652423	-0.360332	0.587344
C22	C	0.659043	-0.289760	0.472553
C23	C	0.752947	-0.293077	0.477948
C24	C	0.796586	-0.330022	0.538041
C25	C	0.890492	-0.333341	0.543431
C26	C	0.897110	-0.262767	0.428646
C27	C	0.803205	-0.259451	0.423251
C28	C	1.274189	-0.447363	0.507877
C29	C	1.274217	-0.505478	0.507879
C30	C	1.328536	-0.869655	0.568886
C31	C	1.328561	-0.924260	0.568906
O32	O	1.374598	-0.955732	0.620696
N33	N	1.274432	-0.947774	0.508049
C34	C	1.220267	-0.916678	0.447174
O35	O	1.174227	-0.941692	0.395413
C36	C	1.220237	-0.862073	0.447159
C37	C	1.274377	-0.838563	0.508014
C38	C	1.382670	-0.846144	0.629737
C39	C	1.382646	-0.791542	0.629716
C40	C	1.328487	-0.760450	0.568844
C41	C	1.274352	-0.783961	0.507993
C42	C	1.166068	-0.830978	0.386290
C43	C	1.166042	-0.776370	0.386281
C44	C	1.220182	-0.752860	0.447135
C45	C	1.220169	-0.698267	0.447100
N46	N	1.274298	-0.674754	0.507957
C47	C	1.328457	-0.705846	0.568829
C48	C	1.220332	-1.031352	0.447211
C49	C	1.220366	-1.085956	0.447221
C50	C	1.328659	-1.093534	0.568954
C51	C	1.328629	-1.038930	0.568939
C52	C	1.274461	-1.007839	0.508068
C53	C	1.328402	-0.591177	0.568779
C54	C	1.328376	-0.536570	0.568750
C55	C	1.220079	-0.528996	0.447021
C56	C	1.220109	-0.583598	0.447046
C57	C	1.274273	-0.614688	0.507933
O58	O	1.174153	-0.666763	0.395339
O59	O	1.374480	-0.680825	0.620589
C60	C	1.508837	-0.319845	0.521486
C61	C	1.608777	-0.323390	0.527252
C62	C	1.260824	-0.318876	0.742477
C63	C	1.255077	-0.322008	0.842417
C64	C	1.274459	-0.175163	0.508054
C65	C	1.274521	-0.117052	0.508096
C66	C	1.287799	-0.304171	0.274347
C67	C	1.293721	-0.300898	0.174419
C68	C	1.359351	-0.265089	1.036900
C69	C	1.353954	-0.268030	1.130802
C70	C	1.238880	-0.330827	1.124126
C71	C	1.244277	-0.327886	1.030223
C72	C	1.304516	-0.295017	0.986614
C73	C	1.309918	-0.292079	0.892710
C74	C	1.194840	-0.354873	0.886035
C75	C	1.189442	-0.357814	0.979937
H76	H	0.781860	-0.393734	0.641664
O77	O	0.945797	-0.230074	0.375419
C78	C	0.942447	-0.159704	0.261034
C79	C	0.887201	-0.196702	0.321246
H80	H	0.895094	-0.132706	0.217233
H81	H	0.989067	-0.183715	0.216402
H82	H	0.984086	-0.135276	0.304946
H83	H	0.845509	-0.221138	0.277403
H84	H	0.840636	-0.172660	0.365884
H85	H	0.623495	-0.259678	0.423634
H86	H	0.926022	-0.363425	0.592361
H87	H	1.398604	-0.243658	1.171742
O88	O	0.603739	-0.393051	0.640513
C89	C	0.607085	-0.463374	0.754984
C90	C	0.662329	-0.426360	0.694802
H91	H	0.654430	-0.490306	0.798905
H92	H	0.565492	-0.487866	0.711137
H93	H	0.560420	-0.439322	0.799511
H94	H	0.709043	-0.450372	0.650266
H95	H	0.703862	-0.401867	0.738702
H96	H	1.358968	-0.265316	0.857205
H97	H	1.189836	-0.357588	1.159649
O98	O	1.381400	-1.123721	0.628003
C99	C	1.531790	-1.147115	0.680646
C100	C	1.472173	-1.112906	0.613715
H101	H	1.605191	-1.138376	0.669130
H102	H	1.522581	-1.190189	0.670201
H103	H	1.511718	-1.138080	0.752209
H104	H	1.492207	-1.121896	0.542126
H105	H	1.481389	-1.069843	0.624239
O106	O	0.760670	-0.223607	0.364903
C107	C	0.618936	-0.187195	0.305765
C108	C	0.666991	-0.227821	0.371869
H109	H	0.543189	-0.190580	0.311388
H110	H	0.641476	-0.194689	0.234268
H111	H	0.636576	-0.146210	0.322748
H112	H	0.649374	-0.268821	0.354969
H113	H	0.644448	-0.220281	0.443347
O114	O	1.417748	-0.233132	0.994425
C115	C	1.436015	-0.159638	0.889187
C116	C	1.369782	-0.195799	0.937210
H117	H	1.397259	-0.129439	0.842932
H118	H	1.485517	-0.183904	0.847859
H119	H	1.474306	-0.138780	0.941276
H120	H	1.331429	-0.216665	0.885183
H121	H	1.320338	-0.171506	0.978556
H122	H	1.140396	-0.384574	1.015457
H123	H	1.372466	-0.517430	0.618306
H124	H	1.150191	-0.379244	0.845082
H125	H	1.176032	-0.602741	0.397487
H126	H	1.372501	-0.616484	0.618365
O127	O	1.435256	-0.768793	0.688921
C128	C	1.542708	-0.782093	0.809630
C129	C	1.483153	-0.807920	0.742637
H130	H	1.581462	-0.813716	0.853064
H131	H	1.498717	-0.756562	0.854287
H132	H	1.592084	-0.756877	0.771085
H133	H	1.433768	-0.833162	0.781108
H134	H	1.527200	-0.833420	0.697981
H135	H	1.372714	-1.019791	0.618493
O136	O	1.435153	-0.876363	0.688959
C137	C	1.440240	-0.942214	0.811050
C138	C	1.380684	-0.908018	0.744047
H139	H	1.396228	-0.967823	0.855594
H140	H	1.478900	-0.916046	0.854597
H141	H	1.489698	-0.968115	0.772512
H142	H	1.331176	-0.882112	0.782513
H143	H	1.342088	-0.934216	0.700501
H144	H	1.176290	-1.105093	0.397657
O145	O	1.167694	-1.001229	0.387982
C146	C	1.060249	-0.999486	0.267276
C147	C	1.119834	-1.033658	0.334287
H148	H	1.021524	-1.025691	0.223858
H149	H	1.104215	-0.973918	0.222605
H150	H	1.010847	-0.973546	0.305806
H151	H	1.169244	-1.059629	0.295830
H152	H	1.075812	-1.059192	0.378957
O153	O	1.113388	-0.853723	0.327144
C154	C	1.005996	-0.840419	0.206383
C155	C	1.065603	-0.814595	0.273333
H156	H	0.967361	-0.808796	0.162846
H157	H	0.956528	-0.865600	0.244873
H158	H	1.050029	-0.865986	0.161822
H159	H	1.021642	-0.789003	0.317911
H160	H	1.115077	-0.789445	0.234786
O161	O	1.113320	-0.746146	0.327270
C162	C	0.992639	-0.679858	0.308052
C163	C	1.052266	-0.714063	0.374979
H164	H	0.943275	-0.653902	0.346598
H165	H	0.953885	-0.706018	0.264577
H166	H	1.036665	-0.654303	0.263425
H167	H	1.008307	-0.739622	0.419664
H168	H	1.091027	-0.687872	0.418391
O169	O	1.167494	-0.498711	0.387980
C170	C	1.119502	-0.411225	0.333989
C171	C	1.179088	-0.445461	0.400908
H172	H	1.128870	-0.368166	0.344405
H173	H	1.046068	-0.419875	0.345545
H174	H	1.139505	-0.420293	0.262423
H175	H	1.159165	-0.436412	0.472500
H176	H	1.252509	-0.436806	0.389274
