data_functionalizedCrystal
_audit_creation_method	'MofGen! by Chris Wilmer'
_symmetry_space_group_name_H-M	'P1'
_symmetry_Int_Tables_number	1
_symmetry_cell_setting	triclinic
loop_
_symmetry_equiv_pos_as_xyz
  x,y,z
_cell_length_a	10.654532
_cell_length_b	10.654549
_cell_length_c	16.053802
_cell_angle_alpha	87.392791
_cell_angle_beta	87.404396
_cell_angle_gamma	95.516442
loop_
_atom_site_label
_atom_site_type_symbol
_atom_site_fract_x
_atom_site_fract_y
_atom_site_fract_z
O1	O	-0.171187	1.673085	-0.069439
O2	O	-0.187987	1.307606	-0.069436
O3	O	0.003154	1.498756	-0.069443
O4	O	-0.362327	1.481934	-0.069432
O5	O	-0.007323	1.488234	0.069416
O6	O	-0.198464	1.297084	0.069424
O7	O	-0.181664	1.662563	0.069420
Zn8	Zn	-0.191727	1.478153	0.091469
Zn9	Zn	-0.177923	1.492016	-0.091484
O10	O	-0.372804	1.471412	0.069427
C11	C	-0.191991	1.255547	-0.000006
C12	C	-0.188296	1.116104	-0.000005
C13	C	-0.409919	0.826111	-0.000021
C14	C	-0.525939	0.877643	-0.000014
C15	C	-0.529415	1.008660	-0.000003
C16	C	-0.416859	1.088150	-0.000002
C17	C	-0.300840	1.036619	-0.000009
C18	C	-0.297376	0.905597	-0.000017
C19	C	-0.072277	1.064572	-0.000012
C20	C	-0.068798	0.933555	-0.000017
C21	C	0.040279	1.144062	-0.000010
C22	C	0.156301	1.092531	-0.000011
C23	C	0.159773	0.961505	-0.000021
C24	C	0.047222	0.882023	-0.000024
C25	C	-0.414364	1.477905	-0.000001
C26	C	-0.553809	1.481591	0.000003
C27	C	-0.804371	1.500032	-0.151415
C28	C	-0.733127	1.504021	-0.227103
C29	C	-0.602111	1.500534	-0.227091
C30	C	-0.542337	1.493054	-0.151384
C31	C	-0.613581	1.489066	-0.075696
C32	C	-0.744599	1.492557	-0.075716
C33	C	-0.625052	1.477603	0.075691
C34	C	-0.756067	1.481098	0.075681
C35	C	-0.565278	1.470123	0.151398
C36	C	-0.636521	1.466144	0.227088
C37	C	-0.767544	1.469632	0.227073
C38	C	-0.827311	1.477110	0.151369
C39	C	0.044714	1.492263	-0.000017
C40	C	0.184158	1.488578	-0.000026
C41	C	-0.177660	1.714622	-0.000012
C42	C	-0.181354	1.854065	-0.000018
N43	N	-0.201148	1.468701	0.216329
N44	N	-0.168493	1.501477	-0.216345
C45	C	-0.119847	1.550066	0.260020
C46	C	-0.126448	1.543466	0.347427
C47	C	-0.214358	1.455506	0.391142
C48	C	-0.295663	1.374132	0.347445
C49	C	-0.289054	1.380727	0.260040
C50	C	-0.243189	1.426699	0.652553
C51	C	-0.249794	1.420112	0.739964
C52	C	-0.080578	1.589445	0.739940
C53	C	-0.073982	1.596037	0.652533
C54	C	-0.155282	1.514659	0.608844
N55	N	-0.221111	1.448760	0.480486
N56	N	-0.148522	1.521400	0.519502
H57	H	-0.623889	1.050616	0.000004
H58	H	-0.617579	0.812908	-0.000018
Cl59	Cl	-0.360323	1.309525	0.794914
Cl60	Cl	-0.009331	1.660656	0.205074
H61	H	-0.355256	1.314470	0.224467
Cl62	Cl	-0.561373	1.456727	0.322252
H63	H	-0.933990	1.479957	0.151350
H64	H	-0.781810	1.510109	-0.288742
Cl65	Cl	-0.421232	1.252859	-0.000004
H66	H	0.050037	0.775340	-0.000025
Cl67	Cl	0.036533	1.706618	0.597578
Cl68	Cl	-0.024238	1.645754	0.402354
Cl69	Cl	0.021627	1.691738	0.794868
Cl70	Cl	-0.345397	1.324403	0.597635
H71	H	-0.407101	0.719428	-0.000016
Cl72	Cl	0.297784	1.192464	-0.000014
Cl73	Cl	0.035910	1.308771	-0.000002
H74	H	-0.367236	1.302507	0.383043
H75	H	-0.544106	1.503770	-0.288723
Cl76	Cl	0.305636	0.896735	-0.000035
H77	H	-0.911049	1.502887	-0.151432
H78	H	-0.435658	1.490200	-0.151381
H79	H	-0.825546	1.466365	0.288708
Cl80	Cl	-0.400573	1.465727	0.151413
