data_functionalizedCrystal
_audit_creation_method	'MofGen! by Chris Wilmer'
_symmetry_space_group_name_H-M	'P1'
_symmetry_Int_Tables_number	1
_symmetry_cell_setting	triclinic
loop_
_symmetry_equiv_pos_as_xyz
  x,y,z
_cell_length_a	12.759401
_cell_length_b	12.759400
_cell_length_c	12.759393
_cell_angle_alpha	90.023884
_cell_angle_beta	89.979062
_cell_angle_gamma	89.995030
loop_
_atom_site_label
_atom_site_type_symbol
_atom_site_fract_x
_atom_site_fract_y
_atom_site_fract_z
Zn1	Zn	-1.606349	-0.418173	0.594068
Zn2	Zn	-1.106349	0.081827	1.094068
Zn3	Zn	-1.606274	-0.593888	0.418409
Zn4	Zn	-1.106274	-0.093888	0.918409
Zn5	Zn	-1.430647	-0.418229	0.418404
Zn6	Zn	-0.930647	0.081771	0.918404
Zn7	Zn	-1.430674	-0.593815	0.594046
Zn8	Zn	-0.930674	-0.093815	1.094046
O9	O	-1.518486	-0.506026	0.506232
O10	O	-1.018486	-0.006026	1.006232
O11	O	-1.753360	-0.441489	0.570778
O12	O	-1.253360	0.058511	1.070778
O13	O	-1.582935	-0.570641	0.271387
O14	O	-1.082935	-0.070641	0.771387
O15	O	-1.453975	-0.271200	0.441713
O16	O	-0.953975	0.228800	0.941713
O17	O	-1.753305	-0.570586	0.441722
O18	O	-1.253305	-0.070586	0.941722
O19	O	-1.583061	-0.271159	0.570773
O20	O	-1.083061	0.228841	1.070773
O21	O	-1.453902	-0.441584	0.271383
O22	O	-0.953902	0.058416	0.771383
O23	O	-1.283630	-0.441513	0.441691
O24	O	-0.783630	0.058487	0.941691
O25	O	-1.454019	-0.570461	0.741070
O26	O	-0.954019	-0.070461	1.241070
O27	O	-1.283649	-0.570516	0.570735
O28	O	-0.783649	-0.070516	1.070735
O29	O	-1.583087	-0.441418	0.741087
O30	O	-1.083087	0.058582	1.241087
O31	O	-1.582960	-0.740899	0.441700
O32	O	-1.082960	-0.240899	0.941700
O33	O	-1.453947	-0.740846	0.570740
O34	O	-0.953947	-0.240846	1.070740
C35	C	-1.245519	-0.506013	0.506211
C36	C	-0.745519	-0.006013	1.006211
C37	C	-1.128742	-0.506033	0.506227
C38	C	-0.628742	-0.006033	1.006227
C39	C	-1.518477	-0.778993	0.506241
C40	C	-1.018477	-0.278993	1.006241
C41	C	-1.518569	-0.895770	0.506281
C42	C	-1.018569	-0.395770	1.006281
C43	C	-1.518564	-0.505925	0.780265
C44	C	-1.018564	-0.005925	1.280265
C45	C	-1.518598	-0.505882	0.897042
C46	C	-1.018598	-0.005882	1.397042
C47	C	-1.792519	-0.506040	0.506253
C48	C	-1.292519	-0.006040	1.006253
C49	C	-1.909296	-0.506046	0.506262
C50	C	-1.409296	-0.006046	1.006262
C51	C	-1.073918	-0.573307	0.573314
C52	C	-0.573918	-0.073307	1.073314
C53	C	-0.964194	-0.573311	0.573335
C54	C	-0.464194	-0.073311	1.073335
C55	C	-0.964128	-0.438764	0.439172
C56	C	-0.464128	0.061236	0.939172
C57	C	-1.073850	-0.438756	0.439157
C58	C	-0.573850	0.061244	0.939157
C59	C	-1.518523	-0.231993	0.506245
C60	C	-1.018523	0.268007	1.006245
C61	C	-1.518539	-0.115216	0.506251
C62	C	-1.018539	0.384784	1.006251
C63	C	-1.451342	-0.060374	0.439062
C64	C	-0.951342	0.439626	0.939062
C65	C	-1.451354	0.049350	0.439079
C66	C	-0.951354	0.549350	0.939079
C67	C	-1.585770	0.049380	0.573477
C68	C	-1.085770	0.549380	1.073477
C69	C	-1.585752	-0.060342	0.573465
C70	C	-1.085752	0.439658	1.073465
C71	C	-1.518468	-0.506051	0.233264
C72	C	-1.018468	-0.006051	0.733264
C73	C	-1.518638	-0.505798	0.116488
C74	C	-1.018638	-0.005798	0.616488
C75	C	-1.585808	-0.438678	0.951914
C76	C	-1.085808	0.061322	1.451914
C77	C	-1.585826	-0.438633	1.061638
C78	C	-1.085826	0.061367	1.561638
C79	C	-1.451420	-0.573004	1.061608
C80	C	-0.951420	-0.073004	1.561608
C81	C	-1.451398	-0.573044	0.951886
C82	C	-0.951398	-0.073044	1.451886
H83	H	-1.118607	-0.628086	0.627929
H84	H	-0.618607	-0.128086	1.127929
H85	H	-1.396634	0.094000	0.384369
H86	H	-0.896634	0.594000	0.884369
N87	N	-1.133000	-0.366200	0.366795
N88	N	-0.633000	0.133800	0.866795
H89	H	-1.178543	-0.317565	0.409572
H90	H	-0.678543	0.182435	0.909572
H91	H	-1.081519	-0.323653	0.324314
H92	H	-0.581519	0.176347	0.824314
N93	N	-1.658258	0.108566	0.645971
N94	N	-1.158258	0.608566	1.145971
H95	H	-1.648075	0.186397	0.635785
H96	H	-1.148075	0.686397	1.135785
H97	H	-1.733286	0.089377	0.629629
H98	H	-1.233286	0.589377	1.129629
N99	N	-0.905060	-0.645875	0.645689
N100	N	-0.405060	-0.145875	1.145689
H101	H	-0.956487	-0.688492	0.688169
H102	H	-0.456487	-0.188492	1.188169
H103	H	-0.859515	-0.694442	0.602843
H104	H	-0.359515	-0.194442	1.102843
N105	N	-1.658326	-0.366147	1.120809
N106	N	-1.158326	0.133853	1.620809
H107	H	-1.707016	-0.408826	1.166342
H108	H	-1.207016	0.091174	1.666342
H109	H	-1.615576	-0.317445	1.166263
H110	H	-1.115576	0.182555	1.666263
H111	H	-1.396660	-0.627768	0.907208
H112	H	-0.896660	-0.127768	1.407208
N113	N	-1.378927	-0.645424	1.120762
N114	N	-0.878927	-0.145424	1.620762
H115	H	-1.389135	-0.635199	1.198597
H116	H	-0.889135	-0.135199	1.698597
H117	H	-1.395245	-0.720473	1.101589
H118	H	-0.895245	-0.220473	1.601589
H119	H	-1.640472	-0.104996	0.628185
H120	H	-1.140472	0.395004	1.128185
N121	N	-1.658285	-0.366246	0.892756
N122	N	-1.158285	0.133754	1.392756
H123	H	-1.641987	-0.291169	0.911845
H124	H	-1.141987	0.208831	1.411845
H125	H	-1.648040	-0.376565	0.814941
H126	H	-1.148040	0.123435	1.314941
N127	N	-0.904923	-0.366232	0.366808
N128	N	-0.404923	0.133768	0.866808
H129	H	-0.827095	-0.376455	0.376985
H130	H	-0.327095	0.123545	0.876985
H131	H	-0.924081	-0.382518	0.291755
H132	H	-0.424081	0.117482	0.791755
H133	H	-1.396610	-0.105049	0.384334
H134	H	-0.896610	0.394951	0.884334
