data_functionalizedCrystal
_audit_creation_method	'MofGen! by Chris Wilmer'
_symmetry_space_group_name_H-M	'P1'
_symmetry_Int_Tables_number	1
_symmetry_cell_setting	triclinic
loop_
_symmetry_equiv_pos_as_xyz
  x,y,z
_cell_length_a	16.109301
_cell_length_b	10.489741
_cell_length_c	14.586319
_cell_angle_alpha	89.996488
_cell_angle_beta	89.999213
_cell_angle_gamma	84.000327
loop_
_atom_site_label
_atom_site_type_symbol
_atom_site_fract_x
_atom_site_fract_y
_atom_site_fract_z
O1	O	1.104141	0.163947	-0.076182
O2	O	0.862205	0.184350	-0.076196
O3	O	0.988678	-0.011529	-0.076183
O4	O	0.977668	0.359826	-0.076195
O5	O	0.988670	-0.011532	0.076298
O6	O	0.862196	0.184347	0.076284
O7	O	1.104132	0.163944	0.076299
Cu8	Cu	0.983164	0.174145	0.090214
Cu9	Cu	0.983174	0.174149	-0.090112
O10	O	0.977659	0.359823	0.076286
C11	C	0.831221	0.183522	0.000042
C12	C	0.738910	0.181044	0.000037
C13	C	0.987842	-0.059050	0.000057
C14	C	0.985354	-0.200644	0.000055
C15	C	0.517319	0.291514	0.000044
C16	C	0.430584	0.289175	0.000050
C17	C	0.449026	0.056771	0.000053
C18	C	0.535759	0.059111	0.000054
C19	C	0.569903	0.176486	0.000045
C20	C	0.396435	0.171808	0.000050
C21	C	0.302393	0.169272	0.000056
C22	C	0.663950	0.179022	0.000040
C23	C	0.904883	-0.267616	0.000043
C24	C	0.942893	-0.360292	0.075226
C25	C	0.942920	-0.360264	-0.075108
C26	C	1.023397	-0.291454	0.075300
C27	C	1.023414	-0.291417	-0.075102
C28	C	1.061482	-0.384066	0.000100
C29	C	1.135117	0.164772	0.000058
C30	C	1.227427	0.167250	0.000058
C31	C	0.978495	0.407344	0.000044
C32	C	0.980983	0.548938	0.000040
N33	N	0.983162	0.174142	0.217046
N34	N	0.983182	0.174142	-0.216944
C35	C	1.039183	0.087436	0.452058
C36	C	1.039186	0.087433	0.548040
C37	C	0.927155	0.260852	0.548038
C38	C	0.927149	0.260848	0.452058
C39	C	0.983168	0.174141	0.404071
C40	C	0.983176	0.174142	0.596032
C41	C	0.983178	0.174140	0.700099
C42	C	0.983165	0.174142	0.299997
H43	H	0.387773	0.382843	0.000051
N44	N	1.068433	-0.251275	0.159604
H45	H	1.087170	-0.329366	0.197758
H46	H	1.118693	-0.207663	0.140486
N47	N	1.149197	-0.450814	0.000151
H48	H	1.179471	-0.425815	0.056964
H49	H	1.146972	-0.546674	-0.000424
H50	H	0.881530	0.331455	0.412984
H51	H	0.421215	-0.038791	0.000067
N52	N	0.554148	0.418104	0.000033
H53	H	0.507671	0.490618	0.000034
H54	H	0.589733	0.424135	0.056558
N55	N	0.592483	-0.064960	0.000065
H56	H	0.557693	-0.139672	0.000066
H57	H	0.628875	-0.069051	-0.056458
N58	N	0.866742	0.354366	0.599803
H59	H	0.898852	0.410857	0.639616
H60	H	0.831266	0.409206	0.554781
N61	N	0.817248	-0.200564	0.000130
H62	H	0.786526	-0.226636	-0.056072
H63	H	0.787027	-0.225445	0.057010
H64	H	0.908840	-0.390811	0.138784
H65	H	1.057438	-0.260864	-0.138663
N66	N	0.897811	-0.400658	-0.159299
H67	H	0.838660	-0.357859	-0.159230
H68	H	0.927676	-0.374382	-0.216036
H69	H	1.084796	0.016832	0.412990
N70	N	1.099614	-0.006068	0.599799
H71	H	1.135102	-0.060986	0.554832
H72	H	1.136654	0.042804	0.639608
