data_functionalizedCrystal
_audit_creation_method	'MofGen! by Chris Wilmer'
_symmetry_space_group_name_H-M	'P1'
_symmetry_Int_Tables_number	1
_symmetry_cell_setting	triclinic
loop_
_symmetry_equiv_pos_as_xyz
  x,y,z
_cell_length_a	10.654550
_cell_length_b	14.971482
_cell_length_c	13.448316
_cell_angle_alpha	89.993798
_cell_angle_beta	89.994587
_cell_angle_gamma	84.048756
loop_
_atom_site_label
_atom_site_type_symbol
_atom_site_fract_x
_atom_site_fract_y
_atom_site_fract_z
O1	O	0.163637	1.187840	-0.082676
O2	O	0.183240	0.927546	-0.082681
O3	O	-0.009365	1.063678	-0.082675
O4	O	0.356242	1.051708	-0.082682
O5	O	-0.009377	1.063660	0.082709
O6	O	0.183228	0.927529	0.082703
O7	O	0.163625	1.187823	0.082707
Cu8	Cu	0.173426	1.057674	0.097806
Cu9	Cu	0.173440	1.057694	-0.097780
O10	O	0.356230	1.051691	0.082701
C11	C	0.182359	0.894208	0.000010
C12	C	0.179734	0.794896	0.000009
C13	C	0.178491	0.748235	0.090160
C14	C	0.176005	0.654923	0.090162
C15	C	0.174770	0.608273	0.000010
C16	C	0.176009	0.654941	-0.090149
C17	C	0.178487	0.748252	-0.090149
C18	C	0.170849	0.460451	-0.090142
C19	C	0.168374	0.367133	-0.090143
C20	C	0.168367	0.367122	0.090168
C21	C	0.170845	0.460433	0.090168
C22	C	0.172086	0.507094	0.000009
C23	C	-0.056159	1.062790	0.000016
C24	C	-0.195574	1.060161	0.000012
C25	C	-0.275921	1.140313	0.000017
C26	C	-0.406916	1.137837	0.000010
C27	C	-0.377203	0.975050	-0.000002
C28	C	-0.246211	0.977526	-0.000002
C29	C	-0.293077	1.234297	0.000028
C30	C	-0.424071	1.231821	0.000021
C31	C	0.403025	1.052578	0.000008
C32	C	0.542440	1.055208	0.000005
C33	C	0.164507	1.221161	0.000014
C34	C	0.167132	1.320472	0.000009
N35	N	0.173415	1.057666	0.235370
N36	N	0.173440	1.057709	-0.235344
C37	C	0.088165	1.117964	0.287413
C38	C	0.088163	1.117970	0.391517
C39	C	0.173420	1.057681	0.443575
C40	C	0.258674	0.997376	0.391525
C41	C	0.258669	0.997367	0.287423
C42	C	0.258683	0.997401	0.608505
C43	C	0.258691	0.997411	0.712613
C44	C	0.088178	1.118004	0.712598
C45	C	0.088172	1.117995	0.608497
C46	C	0.173428	1.057691	0.556454
H47	H	0.171858	0.498413	0.163578
H48	H	0.174972	0.616938	0.163572
C49	C	-0.080345	1.237192	0.381045
C50	C	-0.005527	1.184266	0.448722
H51	H	-0.138178	1.278127	0.416363
H52	H	-0.125622	1.199686	0.340463
H53	H	-0.027970	1.269667	0.340422
H54	H	-0.057901	1.151785	0.489341
H55	H	0.039753	1.221776	0.489321
H56	H	-0.264109	1.271065	-0.069180
H57	H	-0.466217	1.267225	0.069233
H58	H	-0.180796	0.912259	-0.000019
C59	C	-0.564812	0.898971	-0.000010
C60	C	-0.432868	0.884221	-0.000009
H61	H	-0.599172	0.842895	-0.000007
H62	H	-0.592366	0.932008	-0.057678
H63	H	-0.592379	0.932001	0.057668
H64	H	-0.405300	0.851196	-0.057691
H65	H	-0.405303	0.851169	0.057665
H66	H	0.171860	0.498439	-0.163560
C67	C	0.178217	0.738844	0.268388
C68	C	0.179841	0.799510	0.189260
H69	H	0.179038	0.770500	0.329569
H70	H	0.250425	0.696083	0.264640
H71	H	0.104070	0.708818	0.264627
H72	H	0.253993	0.829531	0.193017
H73	H	0.107626	0.842287	0.193010
C74	C	-0.129117	1.169214	0.744641
C75	C	-0.005542	1.184295	0.769793
H76	H	-0.186967	1.210145	0.779949
H77	H	-0.142897	1.109449	0.761726
H78	H	-0.141297	1.177835	0.675189
H79	H	0.006641	1.175667	0.839244
H80	H	0.008243	1.244074	0.752715
H81	H	0.328114	0.948317	0.754994
H82	H	-0.470014	1.260232	-0.071387
C83	C	0.281112	0.540627	-0.194753
C84	C	0.174657	0.603664	-0.189247
H85	H	0.280282	0.508976	-0.255936
H86	H	0.280008	0.499487	-0.141067
H87	H	0.355244	0.570671	-0.191005
H88	H	0.100525	0.573619	-0.192986
H89	H	0.175750	0.644809	-0.242947
C90	C	0.164518	0.224087	0.170241
C91	C	0.166974	0.315839	0.189274
H92	H	0.163648	0.192427	0.231424
H93	H	0.237289	0.202424	0.133212
H94	H	0.090935	0.215186	0.133193
H95	H	0.240562	0.324741	0.226317
H96	H	0.094194	0.337509	0.226319
C97	C	0.168623	0.376512	-0.268374
C98	C	0.167020	0.315852	-0.189238
H99	H	0.167784	0.344851	-0.329550
H100	H	0.242756	0.406539	-0.264629
H101	H	0.096401	0.419275	-0.264618
H102	H	0.239247	0.273093	-0.192989
H103	H	0.092879	0.285810	-0.192985
H104	H	0.328088	0.948283	0.433916
C105	C	-0.347642	1.298320	0.159917
C106	C	-0.245364	1.274434	0.096551
H107	H	-0.318169	1.323026	0.219542
H108	H	-0.388494	1.246550	0.175167
H109	H	-0.405618	1.341598	0.128019
H110	H	-0.187392	1.231151	0.128446
H111	H	-0.204492	1.326211	0.081303
C112	C	0.427247	0.878208	0.618971
C113	C	0.352404	0.931119	0.551297
H114	H	0.485113	0.837297	0.583651
H115	H	0.374903	0.845713	0.659583
H116	H	0.472500	0.915733	0.659565
H117	H	0.307144	0.893595	0.510708
H118	H	0.404756	0.963616	0.510668
H119	H	0.179501	0.786242	-0.163560
C120	C	0.427224	0.878177	0.297888
C121	C	0.352385	0.931090	0.230214
H122	H	0.485084	0.837262	0.262567
H123	H	0.374877	0.845686	0.338503
H124	H	0.472484	0.915700	0.338479
H125	H	0.307118	0.893567	0.189627
H126	H	0.404738	0.963582	0.189581
H127	H	0.018744	1.167062	0.245034
H128	H	0.018756	1.167091	0.566111
