data_functionalizedCrystal
_audit_creation_method	'MofGen! by Chris Wilmer'
_symmetry_space_group_name_H-M	'P1'
_symmetry_Int_Tables_number	1
_symmetry_cell_setting	triclinic
loop_
_symmetry_equiv_pos_as_xyz
  x,y,z
_cell_length_a	10.489741
_cell_length_b	15.995350
_cell_length_c	9.565339
_cell_angle_alpha	90.002462
_cell_angle_beta	89.999100
_cell_angle_gamma	84.015774
loop_
_atom_site_label
_atom_site_type_symbol
_atom_site_fract_x
_atom_site_fract_y
_atom_site_fract_z
O1	O	-1.692400	-0.118125	0.116166
O2	O	-1.321049	-0.129213	0.116187
O3	O	-1.516876	-0.001843	0.116175
O4	O	-1.496573	-0.245496	0.116178
O5	O	-1.516860	-0.001851	-0.116346
O6	O	-1.321034	-0.129221	-0.116333
O7	O	-1.692385	-0.118133	-0.116354
Zn8	Zn	-1.506707	-0.123678	-0.153261
Zn9	Zn	-1.506727	-0.123668	0.153094
O10	O	-1.496558	-0.245504	-0.116342
C11	C	-1.273521	-0.128380	-0.000070
C12	C	-1.131927	-0.125874	-0.000062
C13	C	-1.516029	0.029353	-0.000083
C14	C	-1.513512	0.122319	-0.000075
C15	C	-1.739912	-0.118966	-0.000094
C16	C	-1.881507	-0.121472	-0.000093
C17	C	-1.064921	-0.044832	-0.000076
C18	C	-0.972266	-0.083112	0.114566
C19	C	-0.972285	-0.083139	-0.114681
C20	C	-1.041137	-0.164187	0.114675
C21	C	-1.041165	-0.164203	-0.114675
C22	C	-0.948537	-0.202542	-0.000005
C23	C	-1.497405	-0.276699	-0.000081
C24	C	-1.499921	-0.369665	-0.000080
N25	N	-1.506702	-0.123685	-0.362341
C26	C	-1.504476	0.460121	-0.000079
C27	C	-1.365012	0.413528	0.000451
C28	C	-1.367528	0.316822	-0.000074
C29	C	-1.508958	0.292533	-0.000076
C30	C	-1.577738	0.333191	-0.132858
C31	C	-1.574234	0.429848	-0.132969
C32	C	-1.577133	0.430198	0.131450
C33	C	-1.577100	0.333253	0.133205
C34	C	-1.511499	0.197820	-0.000079
C35	C	-1.501939	0.554834	-0.000085
C36	C	-1.416111	-0.182570	-0.453538
C37	C	-1.531371	-0.199512	-0.546723
C38	C	-1.391492	-0.106750	-0.546711
C39	C	-1.622020	-0.140665	-0.453474
C40	C	-1.482065	-0.047870	-0.453453
C41	C	-1.597408	-0.064780	-0.546597
N42	N	-1.506742	-0.123655	0.362173
H43	H	-1.115543	0.021790	0.000066
O44	O	-1.709859	0.471748	-0.140992
H45	H	-1.721037	0.511079	-0.236681
O46	O	-1.715366	0.313642	-0.139425
H47	H	-1.767157	0.338993	-0.044849
H48	H	-1.339571	-0.232413	-0.412678
H49	H	-0.898180	-0.269234	0.000059
H50	H	-1.294044	-0.092439	-0.587669
O51	O	-1.514457	0.295980	-0.263754
H52	H	-1.434031	0.248541	-0.234575
H53	H	-1.071725	-0.198469	-0.211602
O54	O	-0.931802	-0.037691	0.242943
H55	H	-0.978856	0.027762	0.242708
H56	H	-1.313086	0.289282	-0.095413
O57	O	-0.931890	-0.037711	-0.243078
H58	H	-0.883197	0.017559	-0.210791
H59	H	-1.526813	0.306311	0.231433
H60	H	-1.680237	0.317269	0.141220
H61	H	-1.071492	-0.198448	0.211705
O62	O	-1.558975	-0.284409	-0.601079
H63	H	-1.483619	-0.333193	-0.563848
O64	O	-1.713335	0.471449	0.132653
H65	H	-1.729266	0.513067	0.040082
H66	H	-1.313462	0.288729	0.095110
O67	O	-1.291155	0.438535	0.126557
H68	H	-1.353052	0.484443	0.190205
O69	O	-1.291486	0.439902	-0.124977
H70	H	-1.353842	0.486050	-0.187693
O71	O	-1.454387	0.037013	-0.399124
H72	H	-1.358635	0.050915	-0.436396
H73	H	-1.719489	-0.155053	-0.412691
H74	H	-1.524067	0.448449	-0.232223
O75	O	-1.699008	0.001200	-0.600411
H76	H	-1.794505	-0.013049	-0.562870
O77	O	-1.516790	0.457767	0.264791
H78	H	-1.415282	0.430236	0.269516
