data_functionalizedCrystal
_audit_creation_method	'MofGen! by Chris Wilmer'
_symmetry_space_group_name_H-M	'P1'
_symmetry_Int_Tables_number	1
_symmetry_cell_setting	triclinic
loop_
_symmetry_equiv_pos_as_xyz
  x,y,z
_cell_length_a	10.540510
_cell_length_b	10.540510
_cell_length_c	7.088929
_cell_angle_alpha	83.716686
_cell_angle_beta	96.265616
_cell_angle_gamma	84.513311
loop_
_atom_site_label
_atom_site_type_symbol
_atom_site_fract_x
_atom_site_fract_y
_atom_site_fract_z
O1	O	1.672975	0.191656	-0.158988
O2	O	1.303555	0.208552	-0.158988
O3	O	1.496713	0.015394	-0.158987
O4	O	1.479817	0.384814	-0.158989
O5	O	1.522526	-0.010479	0.158988
O6	O	1.329369	0.182679	0.158987
O7	O	1.698788	0.165783	0.158987
Cu8	Cu	1.516435	0.171869	0.188021
Cu9	Cu	1.485908	0.202466	-0.188022
O10	O	1.505631	0.358941	0.158986
C11	C	1.269159	0.194356	-0.000001
C12	C	1.128209	0.190589	-0.000001
C13	C	0.910680	0.324835	-0.000732
C14	C	1.057334	0.328794	-0.000004
C15	C	1.098197	0.105068	0.181574
C16	C	0.951448	0.102018	0.181715
C17	C	0.922288	0.128561	-0.179883
C18	C	1.068434	0.135311	-0.182271
C19	C	1.508360	-0.044846	-0.000004
C20	C	1.504592	-0.185794	-0.000015
C21	C	1.638837	-0.403323	0.000713
C22	C	1.642797	-0.256669	-0.000013
C23	C	1.419105	-0.215771	-0.181591
C24	C	1.416054	-0.362520	-0.181733
C25	C	1.442530	-0.391750	0.179864
C26	C	1.449280	-0.245604	0.182254
C27	C	1.733185	0.179979	-0.000005
C28	C	1.874133	0.183747	-0.000017
C29	C	1.493983	0.419181	-0.000002
C30	C	1.497750	0.560130	-0.000003
N31	N	1.537916	0.150348	0.452509
N32	N	1.464438	0.223977	-0.452510
H33	H	0.858150	0.389273	-0.130951
N34	N	1.323825	-0.185184	0.196121
N35	N	1.303489	-0.129555	0.338578
H36	H	1.214883	-0.086886	0.348387
H37	H	1.614081	0.074050	0.534165
N38	N	0.855054	0.197400	-0.352562
N39	N	0.880546	0.166986	-0.510868
H40	H	0.833062	0.215613	-0.632818
N41	N	1.466954	-0.163289	-0.351136
N42	N	1.397159	-0.081740	-0.468631
H43	H	1.430957	-0.044677	-0.588371
H44	H	0.929133	-0.002021	0.189963
N45	N	1.080874	0.411518	-0.163296
N46	N	0.988850	0.466728	-0.278593
H47	H	1.005467	0.525159	-0.393923
N48	N	1.106210	0.385440	0.163473
N49	N	1.031988	0.422157	0.277394
H50	H	1.066497	0.462204	0.392825
N51	N	1.368916	0.319699	0.445048
N52	N	1.354515	0.334121	0.266345
H53	H	1.287052	0.401727	0.193981
H54	H	0.922245	0.139323	0.317445
N55	N	0.869279	0.378764	0.161705
N56	N	0.812975	0.313741	0.277995
H57	H	0.783734	0.351824	0.392721
H58	H	1.146146	0.002776	0.188328
H59	H	1.140016	0.143206	0.316703
H60	H	1.086142	0.197716	-0.316599
N61	N	1.312494	-0.419663	0.181466
N62	N	1.250785	-0.388983	0.313488
H63	H	1.158951	-0.408705	0.314614
H64	H	1.511663	-0.227928	0.316583
N65	N	1.128905	0.009860	-0.196026
N66	N	1.217430	-0.041079	-0.071153
H67	H	1.260144	-0.129682	-0.080857
N68	N	1.511345	-0.459061	0.352506
N69	N	1.601933	-0.543326	0.345071
H70	H	1.650545	-0.590868	0.466990
N71	N	0.894420	-0.001496	-0.181370
N72	N	0.839341	-0.053453	-0.050679
H73	H	0.819667	-0.145308	-0.051703
H74	H	1.703251	-0.455879	0.130930
N75	N	1.725495	-0.233161	0.163274
N76	N	1.780686	-0.325207	0.278567
H77	H	1.839101	-0.308613	0.393892
N78	N	1.285551	-0.390536	-0.192040
N79	N	1.218868	-0.362648	-0.064001
H80	H	1.126702	-0.382433	-0.071281
N81	N	1.692798	-0.444694	-0.161723
N82	N	1.627797	-0.500977	-0.278013
H83	H	1.665902	-0.530198	-0.392738
H84	H	1.687888	-0.217660	-0.130398
H85	H	1.453385	-0.391697	-0.317464
H86	H	1.316814	-0.167822	-0.188343
