data_functionalizedCrystal
_audit_creation_method	'MofGen! by Chris Wilmer'
_symmetry_space_group_name_H-M	'P1'
_symmetry_Int_Tables_number	1
_symmetry_cell_setting	triclinic
loop_
_symmetry_equiv_pos_as_xyz
  x,y,z
_cell_length_a	10.686220
_cell_length_b	12.759400
_cell_length_c	10.686551
_cell_angle_alpha	85.594162
_cell_angle_beta	90.308082
_cell_angle_gamma	94.396325
loop_
_atom_site_label
_atom_site_type_symbol
_atom_site_fract_x
_atom_site_fract_y
_atom_site_fract_z
Zn1	Zn	1.972289	-0.256138	-0.562385
Zn2	Zn	1.956061	-0.446298	-0.352626
Zn3	Zn	1.746408	-0.283014	-0.368703
Zn4	Zn	1.762491	-0.444169	-0.578404
O5	O	1.859312	-0.357405	-0.465529
O6	O	2.145678	-0.271007	-0.521128
O7	O	1.914727	-0.436777	-0.179213
O8	O	1.776432	-0.132422	-0.394419
O9	O	2.133755	-0.410716	-0.367019
O10	O	1.942386	-0.112677	-0.536717
O11	O	1.760696	-0.316813	-0.191024
O12	O	1.572999	-0.314748	-0.409952
O13	O	1.803844	-0.407088	-0.751824
O14	O	1.584816	-0.433148	-0.564018
O15	O	1.957981	-0.268942	-0.740056
O16	O	1.930323	-0.593042	-0.382552
O17	O	1.788108	-0.591478	-0.548429
C18	C	1.533391	-0.376634	-0.490468
C19	C	1.393964	-0.384884	-0.501167
C20	C	1.859236	-0.630378	-0.465509
C21	C	1.859321	-0.747148	-0.465533
C22	C	1.933468	-0.802778	-0.379243
C23	C	1.933548	-0.912495	-0.379275
C24	C	1.785323	-0.910942	-0.551894
C25	C	1.785251	-0.801226	-0.551866
C26	C	2.007538	-0.748700	-0.292910
C27	C	2.081690	-0.804330	-0.206611
C28	C	2.081770	-0.914047	-0.206644
C29	C	2.007698	-0.968133	-0.292976
C30	C	2.186505	-0.338101	-0.440494
C31	C	2.325936	-0.329875	-0.429825
C32	C	1.884517	-0.334779	-0.792730
C33	C	1.895257	-0.325138	-0.932163
C34	C	1.859425	-0.083361	-0.465575
C35	C	1.859473	0.033420	-0.465594
C36	C	1.834278	-0.379862	-0.139596
C37	C	1.823780	-0.389193	-0.000145
H38	H	1.374361	-0.276469	-0.360559
C39	C	2.086534	-1.048188	-0.036689
C40	C	2.163331	-0.975231	-0.111875
H41	H	2.136904	-1.085971	0.021792
H42	H	2.028234	-1.012017	0.007252
H43	H	2.042398	-1.096065	-0.088124
H44	H	2.207461	-0.927348	-0.060440
H45	H	2.221653	-1.011403	-0.155819
C46	C	1.198492	-0.451486	-0.587537
C47	C	1.328595	-0.456990	-0.594679
H48	H	1.158140	-0.495996	-0.645273
H49	H	1.170575	-0.473841	-0.504854
H50	H	1.178527	-0.380888	-0.607662
H51	H	1.348561	-0.527587	-0.574545
H52	H	1.356522	-0.434641	-0.677381
C53	C	2.110788	-0.258648	-0.956502
C54	C	1.988971	-0.241141	-0.997592
H55	H	2.168639	-0.206796	-0.996904
H56	H	2.115611	-0.254321	-0.868252
H57	H	2.130734	-0.326698	-0.976505
H58	H	1.969022	-0.173094	-0.977581
H59	H	1.984144	-0.245459	-1.085862
C60	C	1.608257	-0.455697	-0.975825
C61	C	1.730076	-0.473196	-0.934733
H62	H	1.550412	-0.507565	-0.935443
H63	H	1.588298	-0.387664	-0.955814
H64	H	1.603443	-0.460014	-1.064089
H65	H	1.734892	-0.468871	-0.846470
H66	H	1.750040	-0.541246	-0.954736
H67	H	2.142005	-0.760287	-0.136329
C68	C	2.088128	-0.592376	-0.198882
C69	C	2.007457	-0.628098	-0.292876
H70	H	2.088078	-0.517921	-0.198869
H71	H	2.060269	-0.624114	-0.119589
H72	H	2.170752	-0.610853	-0.214457
H73	H	1.924830	-0.609628	-0.277295
H74	H	2.035310	-0.596349	-0.372187
H75	H	2.007780	-1.057471	-0.293004
H76	H	1.725016	-0.954988	-0.622180
H77	H	1.724875	-0.755932	-0.622133
