data_functionalizedCrystal
_audit_creation_method	'MofGen! by Chris Wilmer'
_symmetry_space_group_name_H-M	'P1'
_symmetry_Int_Tables_number	1
_symmetry_cell_setting	triclinic
loop_
_symmetry_equiv_pos_as_xyz
  x,y,z
_cell_length_a	11.169417
_cell_length_b	29.839131
_cell_length_c	11.169409
_cell_angle_alpha	90.040119
_cell_angle_beta	90.019513
_cell_angle_gamma	90.042670
loop_
_atom_site_label
_atom_site_type_symbol
_atom_site_fract_x
_atom_site_fract_y
_atom_site_fract_z
Zn1	Zn	1.834703	-0.178802	0.678468
Zn2	Zn	2.334703	0.321198	1.178468
Zn3	Zn	1.834484	-0.253943	0.477757
Zn4	Zn	2.334484	0.246057	0.977757
Zn5	Zn	1.633989	-0.178830	0.477803
Zn6	Zn	2.133989	0.321170	0.977803
Zn7	Zn	1.633888	-0.253907	0.678403
Zn8	Zn	2.133888	0.246093	1.178403
O9	O	1.734266	-0.216371	0.578108
O10	O	2.234266	0.283629	1.078108
O11	O	2.002624	-0.188773	0.651851
O12	O	2.502624	0.311227	1.151851
O13	O	1.807838	-0.244006	0.309814
O14	O	2.307838	0.255994	0.809814
O15	O	1.660748	-0.115959	0.504468
O16	O	2.160748	0.384041	1.004468
O17	O	2.002462	-0.243979	0.504390
O18	O	2.502462	0.256021	1.004390
O19	O	1.808212	-0.115939	0.651895
O20	O	2.308212	0.384061	1.151895
O21	O	1.660536	-0.188821	0.309847
O22	O	2.160536	0.311179	0.809847
O23	O	1.466026	-0.188786	0.504406
O24	O	1.966026	0.311214	1.004406
O25	O	1.660576	-0.243918	0.846362
O26	O	2.160576	0.256082	1.346362
O27	O	1.465951	-0.243945	0.651786
O28	O	1.965951	0.256055	1.151786
O29	O	1.808114	-0.188738	0.846409
O30	O	2.308114	0.311262	1.346409
O31	O	1.807740	-0.316806	0.504327
O32	O	2.307740	0.183194	1.004327
O33	O	1.660363	-0.316779	0.651741
O34	O	2.160363	0.183221	1.151741
C35	C	1.422441	-0.216365	0.578094
C36	C	1.922441	0.283635	1.078094
C37	C	1.289041	-0.216373	0.578117
C38	C	1.789041	0.283627	1.078117
C39	C	1.734049	-0.333093	0.578048
C40	C	2.234049	0.166907	1.078048
C41	C	1.734066	-0.383028	0.578063
C42	C	2.234066	0.116972	1.078063
C43	C	1.811145	-0.692672	0.501462
C44	C	2.311145	-0.192672	1.001462
C45	C	1.811293	-0.880345	0.501508
C46	C	2.311293	-0.380345	1.001508
O47	O	1.876656	-0.904611	0.436333
O48	O	2.376656	-0.404611	0.936333
N49	N	1.734515	-0.903813	0.578198
N50	N	2.234515	-0.403813	1.078198
C51	C	1.657700	-0.880359	0.654888
C52	C	2.157700	-0.380359	1.154888
O53	O	1.592407	-0.904626	0.720127
O54	O	2.092407	-0.404626	1.220127
C55	C	1.657559	-0.692687	0.654847
C56	C	2.157559	-0.192687	1.154847
C57	C	1.734333	-0.669222	0.578143
C58	C	2.234333	-0.169222	1.078143
C59	C	1.887914	-0.669207	0.424765
C60	C	2.387914	-0.169207	0.924765
C61	C	1.887871	-0.622292	0.424750
C62	C	2.387871	-0.122292	0.924750
C63	C	1.811060	-0.598841	0.501431
C64	C	2.311060	-0.098841	1.001431
C65	C	1.734291	-0.622306	0.578127
C66	C	2.234291	-0.122306	1.078127
C67	C	1.580751	-0.669234	0.731541
C68	C	2.080751	-0.169234	1.231541
C69	C	1.580724	-0.622313	0.731526
C70	C	2.080724	-0.122313	1.231526
C71	C	1.657499	-0.598848	0.654822
C72	C	2.157499	-0.098848	1.154822
C73	C	1.657437	-0.551941	0.654793
C74	C	2.157437	-0.051941	1.154793
N75	N	1.734215	-0.528473	0.578103
N76	N	2.234215	-0.028473	1.078103
C77	C	1.811026	-0.551923	0.501422
C78	C	2.311026	-0.051923	1.001422
C79	C	1.657778	-0.978890	0.654903
C80	C	2.157778	-0.478890	1.154903
C81	C	1.657811	-1.025807	0.654912
C82	C	2.157811	-0.525807	1.154912
C83	C	1.811406	-1.025790	0.501533
C84	C	2.311406	-0.525790	1.001533
C85	C	1.811366	-0.978872	0.501519
C86	C	2.311366	-0.478872	1.001519
C87	C	1.734556	-0.955422	0.578213
C88	C	2.234556	-0.455422	1.078213
C89	C	1.810931	-0.453398	0.501394
C90	C	2.310931	0.046602	1.001394
C91	C	1.810878	-0.406478	0.501382
C92	C	2.310878	0.093522	1.001382
C93	C	1.657288	-0.406499	0.654764
C94	C	2.157288	0.093501	1.154764
C95	C	1.657336	-0.453415	0.654773
C96	C	2.157336	0.046585	1.154773
C97	C	1.734167	-0.476863	0.578084
C98	C	2.234167	0.023137	1.078084
O99	O	1.592118	-0.527646	0.719943
O100	O	2.092118	-0.027646	1.219943
O101	O	1.876328	-0.527649	0.436211
O102	O	2.376328	-0.027649	0.936211
C103	C	1.811187	-0.739588	0.501477
C104	C	2.311187	-0.239588	1.001477
C105	C	1.734418	-0.763053	0.578174
C106	C	2.234418	-0.263053	1.078174
C107	C	1.657606	-0.739602	0.654855
C108	C	2.157606	-0.239602	1.154855
C109	C	1.734451	-0.809971	0.578183
C110	C	2.234451	-0.309971	1.078183
C111	C	1.811263	-0.833421	0.501502
C112	C	2.311263	-0.333421	1.001502
C113	C	1.888041	-0.809953	0.424812
C114	C	2.388041	-0.309953	0.924812
C115	C	1.887999	-0.763038	0.424796
C116	C	2.387999	-0.263038	0.924796
C117	C	1.580828	-0.763070	0.731545
C118	C	2.080828	-0.263070	1.231545
C119	C	1.580876	-0.809985	0.731553
C120	C	2.080876	-0.309985	1.231553
C121	C	1.657688	-0.833436	0.654872
C122	C	2.157688	-0.333436	1.154872
C123	C	2.047308	-0.216377	0.578122
C124	C	2.547308	0.283623	1.078122
C125	C	2.180708	-0.216380	0.578129
C126	C	2.680708	0.283620	1.078129
C127	C	1.734358	-0.216321	0.891151
C128	C	2.234358	0.283679	1.391151
C129	C	1.734397	-0.216300	1.024551
C130	C	2.234397	0.283700	1.524551
C131	C	1.734516	-0.099192	0.578194
C132	C	2.234516	0.400808	1.078194
C133	C	1.734623	-0.049258	0.578231
C134	C	2.234623	0.450742	1.078231
C135	C	1.734243	-0.216388	0.266283
C136	C	2.234243	0.283612	0.766283
C137	C	1.734436	-0.216283	0.132884
C138	C	2.234436	0.283717	0.632884
H139	H	1.873397	-0.387374	0.438917
H140	H	2.373397	0.112626	0.938917
H141	H	1.950391	-0.603189	0.362295
H142	H	2.450391	-0.103189	0.862295
C143	C	1.972407	-0.694995	0.340402
C144	C	2.472407	-0.194995	0.840402
H145	H	2.018109	-0.674295	0.294724
H146	H	2.518109	-0.174295	0.794724
H147	H	2.024700	-0.713267	0.386342
H148	H	2.524700	-0.213267	0.886342
H149	H	1.926527	-0.713327	0.288063
H150	H	2.426527	-0.213327	0.788063
C151	C	1.496306	-0.695035	0.815925
C152	C	1.996306	-0.195035	1.315925
H153	H	1.450574	-0.674343	0.861596
H154	H	1.950574	-0.174343	1.361596
H155	H	1.444039	-0.713374	0.769995
H156	H	1.944039	-0.213374	1.269995
H157	H	1.542216	-0.713302	0.868270
H158	H	2.042216	-0.213302	1.368270
H159	H	1.595227	-0.959800	0.717357
H160	H	2.095227	-0.459800	1.217357
C161	C	1.496232	-0.596521	0.815892
C162	C	1.996232	-0.096521	1.315892
H163	H	1.450514	-0.617219	0.861565
H164	H	1.950514	-0.117219	1.361565
H165	H	1.542101	-0.578184	0.868217
H166	H	2.042101	-0.078184	1.368217
H167	H	1.443935	-0.578254	0.769931
H168	H	1.943935	-0.078254	1.269931
C169	C	1.572885	-0.479227	0.739142
C170	C	2.072885	0.020773	1.239142
H171	H	1.527138	-0.458539	0.784812
H172	H	2.027138	0.041461	1.284812
H173	H	1.520632	-0.497569	0.693204
H174	H	2.020632	0.002431	1.193204
H175	H	1.618801	-0.497491	0.791488
H176	H	2.118801	0.002509	1.291488
H177	H	1.950580	-0.829055	0.362372
H178	H	2.450580	-0.329055	0.862372
H179	H	1.873882	-0.959769	0.439061
H180	H	2.373882	-0.459769	0.939061
C181	C	1.572807	-0.380698	0.739112
C182	C	2.072807	0.119302	1.239112
H183	H	1.583796	-0.349395	0.728122
H184	H	2.083796	0.150605	1.228122
H185	H	1.492178	-0.388420	0.721496
H186	H	1.992178	0.111580	1.221496
H187	H	1.590354	-0.388355	0.819772
H188	H	2.090354	0.111645	1.319772
C189	C	1.573354	-1.051616	0.739276
C190	C	2.073354	-0.551616	1.239276
H191	H	1.584362	-1.082918	0.728302
H192	H	2.084362	-0.582918	1.228302
H193	H	1.590875	-1.043894	0.819925
H194	H	2.090875	-0.543894	1.319925
H195	H	1.492714	-1.043962	0.721633
H196	H	1.992714	-0.543962	1.221633
H197	H	1.873949	-1.044892	0.439097
H198	H	2.373949	-0.544892	0.939097
C199	C	1.496421	-0.835792	0.815936
C200	C	1.996421	-0.335792	1.315936
H201	H	1.450682	-0.815102	0.861606
H202	H	1.950682	-0.315102	1.361606
H203	H	1.444160	-0.854132	0.770003
H204	H	1.944160	-0.354132	1.270003
H205	H	1.542334	-0.854056	0.868280
H206	H	2.042334	-0.354056	1.368280
H207	H	1.873496	-0.472484	0.438949
H208	H	2.373496	0.027516	0.938949
H209	H	1.950516	-0.743936	0.362337
H210	H	2.450516	-0.243936	0.862337
H211	H	1.518280	-0.743980	0.793990
H212	H	2.018280	-0.243980	1.293990
