data_functionalizedCrystal
_audit_creation_method	'MofGen! by Chris Wilmer'
_symmetry_space_group_name_H-M	'P1'
_symmetry_Int_Tables_number	1
_symmetry_cell_setting	triclinic
loop_
_symmetry_equiv_pos_as_xyz
  x,y,z
_cell_length_a	12.594517
_cell_length_b	16.994747
_cell_length_c	12.594509
_cell_angle_alpha	90.008624
_cell_angle_beta	90.021327
_cell_angle_gamma	90.010859
loop_
_atom_site_label
_atom_site_type_symbol
_atom_site_fract_x
_atom_site_fract_y
_atom_site_fract_z
Zn1	Zn	1.627304	-0.314008	0.602005
Zn2	Zn	1.627210	-0.445929	0.424087
Zn3	Zn	1.449308	-0.314042	0.424034
Zn4	Zn	1.449306	-0.445874	0.602017
O5	O	1.538282	-0.379963	0.513036
O6	O	1.776237	-0.331517	0.578421
O7	O	1.603573	-0.428471	0.275134
O8	O	1.472960	-0.203657	0.447615
O9	O	1.776169	-0.428438	0.447706
O10	O	1.603733	-0.203632	0.578369
O11	O	1.472869	-0.331574	0.275095
O12	O	1.300362	-0.331521	0.447627
O13	O	1.472956	-0.428345	0.750962
O14	O	1.300360	-0.428377	0.578390
O15	O	1.603730	-0.331464	0.750953
O16	O	1.603571	-0.556303	0.447718
O17	O	1.472865	-0.556262	0.578442
C18	C	1.261741	-0.379947	0.513005
C19	C	1.143435	-0.379960	0.513016
C20	C	1.538220	-0.584903	0.513084
C21	C	1.538228	-0.674225	0.513081
Zn22	Zn	1.449338	-0.945129	0.424004
Zn23	Zn	1.627351	-0.945073	0.601958
Zn24	Zn	1.449342	-0.813266	0.602000
Zn25	Zn	1.627230	-0.813184	0.424053
O26	O	1.538315	-0.879163	0.513004
O27	O	1.473002	-1.055503	0.447572
O28	O	1.603790	-0.927600	0.750910
O29	O	1.300396	-0.830816	0.578385
O30	O	1.603787	-1.055462	0.578315
O31	O	1.300393	-0.927694	0.447612
O32	O	1.473008	-0.830762	0.750940
O33	O	1.472890	-0.702874	0.578432
O34	O	1.603580	-0.830675	0.275100
O35	O	1.603583	-0.702814	0.447695
O36	O	1.472884	-0.927615	0.275065
O37	O	1.776281	-0.927520	0.578362
O38	O	1.776192	-0.830622	0.447655
C39	C	1.074152	-0.327208	0.442030
C40	C	1.003350	-0.399158	0.415883
C41	C	1.003439	-0.308044	0.539181
C42	C	1.074191	-0.451948	0.486819
C43	C	1.074287	-0.360785	0.610163
C44	C	1.003516	-0.432786	0.584053
C45	C	1.815903	-0.379980	0.513068
C46	C	1.934208	-0.379987	0.513082
C47	C	1.538353	-0.379894	0.790657
C48	C	1.538384	-0.379865	0.908962
C49	C	1.538349	-0.174223	0.512982
C50	C	1.538382	-0.084901	0.512959
C51	C	1.538272	-0.379975	0.236495
C52	C	1.538448	-0.379782	0.118190
C53	C	1.467278	-0.432528	0.978221
C54	C	1.564400	-0.451801	1.049020
C55	C	1.441336	-0.360544	1.048962
C56	C	1.635557	-0.399176	0.978204
C57	C	1.512428	-0.307885	0.978140
C58	C	1.609618	-0.327130	1.048907
C59	C	1.814856	-0.879058	0.513012
C60	C	1.933162	-0.879036	0.513047
C61	C	1.538218	-0.879142	0.235383
C62	C	1.538176	-0.879133	0.117077
C63	C	1.260695	-0.879270	0.512998
C64	C	1.142389	-0.879316	0.512995
C65	C	1.538337	-0.879229	0.789545
C66	C	1.538081	-0.879389	0.907850
C67	C	2.002405	-0.826292	0.442036
C68	C	2.073198	-0.807062	0.539194
C69	C	2.073167	-0.898228	0.415965
C70	C	2.002397	-0.859769	0.610256
C71	C	2.002360	-0.950969	0.486961
C72	C	2.073121	-0.931766	0.584186
C73	C	1.609217	-0.826403	0.047843
C74	C	1.635243	-0.898353	-0.022970
C75	C	1.512072	-0.807176	-0.022909
C76	C	1.564254	-0.951121	0.047822
C77	C	1.441037	-0.859895	0.047889
C78	C	1.467027	-0.931895	-0.022892
H79	H	1.105168	-0.282641	0.381924
Cl80	Cl	1.702602	-0.258317	1.096534
H81	H	2.104255	-0.914461	0.333838
Cl82	Cl	1.374188	-1.000806	-0.070544
Cl83	Cl	1.374511	-0.501391	0.930295
H84	H	1.971440	-0.843464	0.692407
Cl85	Cl	2.121230	-0.713140	0.573322
Cl86	Cl	1.121967	-0.545892	0.452545
H87	H	1.105469	-0.344529	0.692265
Cl88	Cl	0.955242	-0.424224	0.289088
H89	H	1.490046	-0.746329	-0.053982
Cl90	Cl	1.954275	-1.044863	0.452797
Cl91	Cl	2.120761	-1.000632	0.677046
Cl92	Cl	1.702119	-0.757653	0.095802
H93	H	1.717338	-0.914623	-0.054097
H94	H	0.972696	-0.477460	0.644112
H95	H	0.972305	-0.247223	0.561248
Cl96	Cl	1.314326	-0.834741	0.095987
H97	H	1.586389	-0.512638	1.080153
Cl98	Cl	1.762346	-0.424469	0.930424
Cl99	Cl	1.314585	-0.335365	1.096952
H100	H	1.586399	-1.011981	0.078762
Cl101	Cl	1.478435	-0.213984	0.930031
Cl102	Cl	1.954459	-0.757380	0.349394
