data_functionalizedCrystal
_audit_creation_method	'MofGen! by Chris Wilmer'
_symmetry_space_group_name_H-M	'P1'
_symmetry_Int_Tables_number	1
_symmetry_cell_setting	triclinic
loop_
_symmetry_equiv_pos_as_xyz
  x,y,z
_cell_length_a	21.295418
_cell_length_b	25.639239
_cell_length_c	21.295412
_cell_angle_alpha	89.971450
_cell_angle_beta	89.957310
_cell_angle_gamma	90.054499
loop_
_atom_site_label
_atom_site_type_symbol
_atom_site_fract_x
_atom_site_fract_y
_atom_site_fract_z
Zn1	Zn	0.962314	-0.207943	-0.356243
Zn2	Zn	1.295647	0.125390	-0.022910
Zn3	Zn	1.628980	0.458724	0.310424
Zn4	Zn	0.962203	-0.295377	-0.250972
Zn5	Zn	1.295536	0.037956	0.082361
Zn6	Zn	1.628870	0.371290	0.415695
Zn7	Zn	0.857039	-0.207981	-0.250953
Zn8	Zn	1.190372	0.125352	0.082381
Zn9	Zn	1.523705	0.458685	0.415714
Zn10	Zn	0.856991	-0.295373	-0.356169
Zn11	Zn	1.190324	0.037960	-0.022835
Zn12	Zn	1.523658	0.371293	0.310498
O13	O	0.909637	-0.251669	-0.303584
O14	O	1.242970	0.081665	0.029749
O15	O	1.576303	0.414998	0.363083
O16	O	1.050388	-0.219527	-0.342318
O17	O	1.383722	0.113807	-0.008984
O18	O	1.717055	0.447140	0.324349
O19	O	0.948226	-0.283801	-0.162880
O20	O	1.281560	0.049532	0.170453
O21	O	1.614893	0.382866	0.503787
O22	O	0.871070	-0.134811	-0.264943
O23	O	1.204403	0.198522	0.068391
O24	O	1.537736	0.531856	0.401724
O25	O	1.050307	-0.283764	-0.264976
O26	O	1.383640	0.049569	0.068358
O27	O	1.716974	0.382903	0.401691
O28	O	0.948415	-0.134783	-0.342299
O29	O	1.281748	0.198550	-0.008965
O30	O	1.615082	0.531884	0.324368
O31	O	0.870962	-0.219592	-0.162866
O32	O	1.204296	0.113741	0.170468
O33	O	1.537629	0.447075	0.503801
O34	O	0.768943	-0.219589	-0.264871
O35	O	1.102276	0.113745	0.068463
O36	O	1.435610	0.447078	0.401796
O37	O	0.870989	-0.283758	-0.444268
O38	O	1.204322	0.049575	-0.110935
O39	O	1.537655	0.382908	0.222399
O40	O	0.768908	-0.283795	-0.342172
O41	O	1.102241	0.049538	-0.008839
O42	O	1.435575	0.382871	0.324494
O43	O	0.948369	-0.219523	-0.444322
O44	O	1.281702	0.113810	-0.110989
O45	O	1.615035	0.447143	0.222344
O46	O	0.948180	-0.368542	-0.264904
O47	O	1.281513	-0.035208	0.068430
O48	O	1.614847	0.298125	0.401763
O49	O	0.870881	-0.368539	-0.342191
O50	O	1.204215	-0.035206	-0.008858
O51	O	1.537548	0.298128	0.324476
C52	C	0.746085	-0.251696	-0.303512
C53	C	1.079418	0.081637	0.029822
C54	C	1.412752	0.414970	0.363155
C55	C	0.676117	-0.251721	-0.303496
C56	C	1.009450	0.081613	0.029838
C57	C	1.342783	0.414946	0.363171
C58	C	0.909531	-0.387511	-0.303555
C59	C	1.242864	-0.054178	0.029778
C60	C	1.576197	0.279155	0.363111
C61	C	0.909543	-0.445625	-0.303564
C62	C	1.242876	-0.112292	0.029769
C63	C	1.576210	0.221041	0.363103
C64	C	0.643248	-0.285197	-0.343686
C65	C	0.976582	0.048136	-0.010353
C66	C	1.309915	0.381469	0.322980
C67	C	0.577506	-0.285184	-0.343715
C68	C	0.910839	0.048149	-0.010381
C69	C	1.244173	0.381482	0.322952
C70	C	0.544634	-0.251700	-0.303541
C71	C	0.877968	0.081633	0.029793
C72	C	1.211301	0.414966	0.363126
C73	C	0.577511	-0.218217	-0.263347
C74	C	0.910844	0.115116	0.069986
C75	C	1.244177	0.448450	0.403320
C76	C	0.643252	-0.218227	-0.263325
C77	C	0.976585	0.115106	0.070009
C78	C	1.309918	0.448439	0.403342
N79	N	0.441360	-0.247615	-0.248483
N80	N	0.774693	0.085718	0.084850
N81	N	1.108027	0.419052	0.418184
N82	N	0.378909	-0.247609	-0.248506
N83	N	0.712242	0.085725	0.084827
N84	N	1.045575	0.419058	0.418160
C85	C	0.346560	-0.251667	-0.303608
C86	C	0.679893	0.081666	0.029726
C87	C	1.013226	0.415000	0.363059
N88	N	0.379021	-0.255742	-0.358686
N89	N	0.712355	0.077591	-0.025353
N90	N	1.045688	0.410924	0.307981
N91	N	0.441479	-0.255752	-0.358662
N92	N	0.774812	0.077582	-0.025329
N93	N	1.108145	0.410915	0.308005
C94	C	0.473349	-0.251685	-0.303561
C95	C	0.806682	0.081648	0.029772
C96	C	1.140016	0.414981	0.363106
C97	C	0.242406	-0.285131	-0.343832
C98	C	0.575739	0.048202	-0.010499
C99	C	0.909072	0.381535	0.322834
C100	C	0.176662	-0.285115	-0.343862
C101	C	0.509995	0.048218	-0.010528
C102	C	0.843329	0.381552	0.322805
C103	C	0.176668	-0.218150	-0.263489
C104	C	0.510001	0.115183	0.069845
C105	C	0.843335	0.448516	0.403178
C106	C	0.242410	-0.218164	-0.263465
C107	C	0.575744	0.115169	0.069868
C108	C	0.909077	0.448502	0.403202
C109	C	0.275275	-0.251657	-0.303636
C110	C	0.608609	0.081676	0.029697
C111	C	0.941942	0.415009	0.363031
C112	C	0.949991	-0.805977	-0.263409
C113	C	1.283324	-0.472644	0.069924
C114	C	1.616658	-0.139310	0.403258
C115	C	0.950015	-0.860581	-0.263418
C116	C	1.283349	-0.527248	0.069916
C117	C	1.616682	-0.193915	0.403249
O118	O	0.984296	-0.888808	-0.229245
O119	O	1.317629	-0.555475	0.104088
O120	O	1.650963	-0.222142	0.437422
N121	N	0.909747	-0.887908	-0.303626
N122	N	1.243081	-0.554574	0.029708
N123	N	1.576414	-0.221241	0.363041
C124	C	0.869456	-0.860627	-0.343833
C125	C	1.202790	-0.527294	-0.010499
C126	C	1.536123	-0.193960	0.322834
O127	O	0.835208	-0.888884	-0.378034
O128	O	1.168541	-0.555551	-0.044701
O129	O	1.501875	-0.222217	0.288632
C130	C	0.869436	-0.806024	-0.343827
C131	C	1.202769	-0.472690	-0.010494
C132	C	1.536102	-0.139357	0.322840
C133	C	0.909702	-0.778700	-0.303612
C134	C	1.243035	-0.445367	0.029722
C135	C	1.576369	-0.112033	0.363055
C136	C	0.990255	-0.778653	-0.223198
C137	C	1.323588	-0.445320	0.110136
C138	C	1.656921	-0.111987	0.443469
C139	C	0.990229	-0.724053	-0.223188
C140	C	1.323562	-0.390720	0.110145
C141	C	1.656896	-0.057386	0.443478
C142	C	0.949940	-0.696776	-0.263391
C143	C	1.283274	-0.363443	0.069942
C144	C	1.616607	-0.030109	0.403276
C145	C	0.909677	-0.724100	-0.303603
C146	C	1.243010	-0.390766	0.029731
C147	C	1.576343	-0.057433	0.363064
C148	C	0.829149	-0.778744	-0.384037
C149	C	1.162482	-0.445411	-0.050703
C150	C	1.495815	-0.112077	0.282630
C151	C	0.829132	-0.724137	-0.384028
C152	C	1.162465	-0.390804	-0.050695
C153	C	1.495798	-0.057470	0.282639
C154	C	0.869398	-0.696813	-0.343812
C155	C	1.202731	-0.363480	-0.010479
C156	C	1.536065	-0.030147	0.322854
C157	C	0.869362	-0.642222	-0.343796
C158	C	1.202696	-0.308889	-0.010463
C159	C	1.536029	0.024445	0.322871
N160	N	0.909631	-0.614896	-0.303588
N161	N	1.242964	-0.281562	0.029746
N162	N	1.576297	0.051771	0.363079
C163	C	0.949919	-0.642173	-0.263385
C164	C	1.283253	-0.308839	0.069948
C165	C	1.616586	0.024494	0.403281
C166	C	0.869504	-0.975298	-0.343842
C167	C	1.202837	-0.641964	-0.010509
C168	C	1.536171	-0.308631	0.322824
C169	C	0.869521	-1.029900	-0.343845
C170	C	1.202854	-0.696567	-0.010512
C171	C	1.536188	-0.363233	0.322821
C172	C	0.950081	-1.029850	-0.263431
C173	C	1.283414	-0.696517	0.069902
C174	C	1.616748	-0.363184	0.403236
C175	C	0.950060	-0.975247	-0.263425
C176	C	1.283394	-0.641914	0.069908
C177	C	1.616727	-0.308580	0.403241
C178	C	0.909772	-0.947971	-0.303634
C179	C	1.243105	-0.614638	0.029699
C180	C	1.576439	-0.281305	0.363032
C181	C	0.949863	-0.527508	-0.263369
C182	C	1.283196	-0.194174	0.069965
C183	C	1.616529	0.139159	0.403298
C184	C	0.949832	-0.472902	-0.263361
C185	C	1.283165	-0.139569	0.069972
C186	C	1.616499	0.193764	0.403305
C187	C	0.869275	-0.472956	-0.343778
C188	C	1.202608	-0.139623	-0.010445
C189	C	1.535941	0.193710	0.322889
C190	C	0.869303	-0.527557	-0.343783
C191	C	1.202636	-0.194224	-0.010450
C192	C	1.535970	0.139110	0.322883
C193	C	0.909602	-0.554831	-0.303577
C194	C	1.242935	-0.221498	0.029757
C195	C	1.576269	0.111835	0.363090
O196	O	0.835101	-0.613960	-0.377953
O197	O	1.168434	-0.280627	-0.044620
O198	O	1.501768	0.052706	0.288714
O199	O	0.984168	-0.613909	-0.229195
O200	O	1.317501	-0.280576	0.104138
O201	O	1.650835	0.052758	0.437471
C202	C	1.073827	-0.251641	-0.303657
C203	C	1.407160	0.081692	0.029676
C204	C	1.740494	0.415025	0.363010
C205	C	1.143795	-0.251630	-0.303688
C206	C	1.477128	0.081703	0.029645
C207	C	1.810462	0.415037	0.362978
C208	C	0.909686	-0.251636	-0.467774
C209	C	1.243019	0.081697	-0.134441
C210	C	1.576352	0.415030	0.198892
C211	C	0.909707	-0.251622	-0.537743
C212	C	1.243040	0.081711	-0.204409
C213	C	1.576373	0.415044	0.128924
C214	C	0.909760	-0.115296	-0.303627
C215	C	1.243093	0.218038	0.029707
C216	C	1.576427	0.551371	0.363040
C217	C	0.909813	-0.057182	-0.303645
C218	C	1.243146	0.276152	0.029688
C219	C	1.576479	0.609485	0.363022
C220	C	0.869486	-0.218185	-0.570592
C221	C	1.202820	0.115148	-0.237258
C222	C	1.536153	0.448482	0.096075
C223	C	0.869484	-0.218175	-0.636334
C224	C	1.202817	0.115158	-0.303001
C225	C	1.536151	0.448492	0.030332
C226	C	0.909714	-0.251597	-0.669225
C227	C	1.243047	0.081736	-0.335892
C228	C	1.576380	0.415069	-0.002558
C229	C	0.949937	-0.285041	-0.636368
C230	C	1.283270	0.048292	-0.303035
C231	C	1.616604	0.381625	0.030299
C232	C	0.949934	-0.285054	-0.570627
C233	C	1.283267	0.048280	-0.237293
C234	C	1.616600	0.381613	0.096040
N235	N	0.964817	-0.255578	-0.772482
N236	N	1.298151	0.077756	-0.439149
N237	N	1.631484	0.411089	-0.105815
N238	N	0.964819	-0.255563	-0.834933
N239	N	1.298152	0.077770	-0.501600
N240	N	1.631486	0.411104	-0.168267
C241	C	0.909725	-0.251563	-0.867300
C242	C	1.243059	0.081771	-0.533967
C243	C	1.576392	0.415104	-0.200633
N244	N	0.854629	-0.247567	-0.834856
N245	N	1.187962	0.085766	-0.501522
N246	N	1.521296	0.419099	-0.168189
N247	N	0.854628	-0.247580	-0.772398
N248	N	1.187962	0.085754	-0.439065
N249	N	1.521295	0.419087	-0.105732
C250	C	0.909721	-0.251588	-0.740511
C251	C	1.243055	0.081746	-0.407177
C252	C	1.576388	0.415079	-0.073844
C253	C	0.869499	-0.218113	-0.971435
C254	C	1.202832	0.115221	-0.638101
C255	C	1.536166	0.448554	-0.304768
C256	C	0.869496	-0.218107	-1.037179
C257	C	1.202829	0.115227	-0.703845
C258	C	1.536162	0.448560	-0.370512
C259	C	0.949954	-0.284970	-1.037211
C260	C	1.283287	0.048363	-0.703877
C261	C	1.616621	0.381697	-0.370544
C262	C	0.949952	-0.284979	-0.971468
C263	C	1.283285	0.048354	-0.638135
C264	C	1.616618	0.381688	-0.304802
C265	C	0.909725	-0.251547	-0.938584
C266	C	1.243058	0.081786	-0.605251
C267	C	1.576392	0.415119	-0.271918
C268	C	0.909624	-0.251663	-0.140032
C269	C	1.242957	0.081670	0.193301
C270	C	1.576290	0.415003	0.526634
C271	C	0.909725	-0.251530	-0.070065
C272	C	1.243058	0.081803	0.263269
C273	C	1.576391	0.415137	0.596602
H274	H	0.670003	-0.312469	-0.376398
H275	H	1.003336	0.020864	-0.043064
H276	H	1.336670	0.354197	0.290269
Cl277	Cl	1.040911	-0.812935	-0.172650
Cl278	Cl	1.374244	-0.479601	0.160683
Cl279	Cl	1.707577	-0.146268	0.494016
H280	H	0.982849	-0.953004	-0.230679
H281	H	1.316182	-0.619670	0.102654
H282	H	1.649515	-0.286337	0.435988
H283	H	0.550742	-0.190953	-0.230639
H284	H	0.884076	0.142380	0.102695
H285	H	1.217409	0.475713	0.436028
H286	H	0.982889	-1.052069	-0.230698
H287	H	1.316222	-0.718736	0.102635
H288	H	1.649555	-0.385403	0.435969
Cl289	Cl	0.818910	-0.176082	-1.078476
Cl290	Cl	1.152243	0.157252	-0.745142
Cl291	Cl	1.485577	0.490585	-0.411809
H292	H	0.796325	-0.701931	-0.416773
H293	H	1.129658	-0.368598	-0.083440
H294	H	1.462992	-0.035265	0.249894
H295	H	0.982689	-0.312282	-0.543881
H296	H	1.316022	0.021051	-0.210548
H297	H	1.649355	0.354385	0.122786
H298	H	0.836733	-0.190944	-0.663086
H299	H	1.170066	0.142390	-0.329752
H300	H	1.503399	0.475723	0.003581
Cl301	Cl	1.000508	-0.327060	-0.677715
Cl302	Cl	1.333841	0.006273	-0.344382
Cl303	Cl	1.667175	0.339606	-0.011049
H304	H	0.836743	-0.190891	-0.944659
H305	H	1.170077	0.142442	-0.611326
H306	H	1.503410	0.475775	-0.277993
H307	H	0.982705	-0.312206	-0.944722
H308	H	1.316039	0.021127	-0.611389
H309	H	1.649372	0.354461	-0.278055
H310	H	0.796356	-0.800981	-0.416781
H311	H	1.129690	-0.467648	-0.083448
H312	H	1.463023	-0.134315	0.249885
Cl313	Cl	1.000524	-0.561787	-0.212821
Cl314	Cl	1.333857	-0.228453	0.120512
Cl315	Cl	1.667191	0.104880	0.453845
Cl316	Cl	0.818632	-0.438655	-0.394319
Cl317	Cl	1.151965	-0.105322	-0.060986
Cl318	Cl	1.485298	0.228011	0.272348
Cl319	Cl	0.536177	-0.327273	-0.394244
Cl320	Cl	0.869510	0.006061	-0.060911
Cl321	Cl	1.202844	0.339394	0.272423
Cl322	Cl	0.818669	-0.561908	-0.394327
Cl323	Cl	1.152002	-0.228574	-0.060994
Cl324	Cl	1.485336	0.104759	0.272339
H325	H	0.269172	-0.190906	-0.230734
H326	H	0.602506	0.142427	0.102599
H327	H	0.935839	0.475760	0.435933
H328	H	0.836726	-1.052142	-0.376587
H329	H	1.170060	-0.718809	-0.043254
H330	H	1.503393	-0.385475	0.290080
H331	H	0.982711	-0.312182	-1.063990
H332	H	1.316044	0.021151	-0.730656
H333	H	1.649378	0.354485	-0.397323
H334	H	0.149905	-0.190885	-0.230781
H335	H	0.483238	0.142449	0.102552
H336	H	0.816571	0.475782	0.435885
Cl337	Cl	0.684574	-0.176139	-0.212794
Cl338	Cl	1.017908	0.157194	0.120539
Cl339	Cl	1.351241	0.490528	0.453872
Cl340	Cl	0.818846	-0.941013	-0.394391
Cl341	Cl	1.152179	-0.607680	-0.061058
Cl342	Cl	1.485512	-0.274346	0.272276
H343	H	0.982621	-0.450657	-0.230611
H344	H	1.315955	-0.117324	0.102722
H345	H	1.649288	0.216010	0.436056
Cl346	Cl	0.818913	-0.176159	-0.529255
Cl347	Cl	1.152246	0.157174	-0.195922
Cl348	Cl	1.485579	0.490507	0.137411
H349	H	0.269166	-0.312401	-0.376545
H350	H	0.602499	0.020932	-0.043212
H351	H	0.935832	0.354266	0.290121
Cl352	Cl	1.040862	-0.689711	-0.172639
Cl353	Cl	1.374196	-0.356378	0.160695
Cl354	Cl	1.707529	-0.023045	0.494028
Cl355	Cl	0.135341	-0.327201	-0.394396
Cl356	Cl	0.468674	0.006132	-0.061063
Cl357	Cl	0.802008	0.339466	0.272271
