data_functionalizedCrystal
_audit_creation_method	'MofGen! by Chris Wilmer'
_symmetry_space_group_name_H-M	'P1'
_symmetry_Int_Tables_number	1
_symmetry_cell_setting	triclinic
loop_
_symmetry_equiv_pos_as_xyz
  x,y,z
_cell_length_a	10.686220
_cell_length_b	18.050589
_cell_length_c	10.686551
_cell_angle_alpha	94.403861
_cell_angle_beta	89.691918
_cell_angle_gamma	94.409750
loop_
_atom_site_label
_atom_site_type_symbol
_atom_site_fract_x
_atom_site_fract_y
_atom_site_fract_z
Zn1	Zn	1.972217	-0.181059	0.562396
Zn2	Zn	2.472217	0.318941	1.062396
Zn3	Zn	1.955936	-0.315479	0.352644
Zn4	Zn	2.455936	0.184521	0.852644
Zn5	Zn	1.746328	-0.200057	0.368714
Zn6	Zn	2.246328	0.299943	0.868714
Zn7	Zn	1.762366	-0.313974	0.578422
Zn8	Zn	2.262366	0.186026	1.078422
O9	O	1.859212	-0.252642	0.465544
O10	O	2.359212	0.247358	0.965544
O11	O	2.145602	-0.191569	0.521139
O12	O	2.645602	0.308431	1.021139
O13	O	1.914605	-0.308749	0.179231
O14	O	2.414605	0.191251	0.679231
O15	O	1.776395	-0.093607	0.394425
O16	O	2.276395	0.406393	0.894425
O17	O	2.133640	-0.290327	0.367036
O18	O	2.633640	0.209673	0.867036
O19	O	1.942354	-0.079649	0.536722
O20	O	2.442354	0.420351	1.036722
O21	O	1.760607	-0.223949	0.191038
O22	O	2.260607	0.276051	0.691038
O23	O	1.572911	-0.222489	0.409965
O24	O	2.072911	0.277511	0.909965
O25	O	1.803729	-0.287762	0.751841
O26	O	2.303729	0.212238	1.251841
O27	O	1.584694	-0.306184	0.564036
O28	O	2.084694	0.193816	1.064036
O29	O	1.957906	-0.190110	0.740067
O30	O	2.457906	0.309890	1.240067
O31	O	1.930156	-0.419209	0.382576
O32	O	2.430156	0.080791	0.882576
O33	O	1.787942	-0.418104	0.548454
O34	O	2.287942	0.081896	1.048454
C35	C	1.533286	-0.266235	0.490484
C36	C	2.033286	0.233765	0.990484
C37	C	1.393856	-0.272067	0.501183
C38	C	1.893856	0.227933	1.001183
C39	C	1.859059	-0.445602	0.465535
C40	C	2.359059	0.054398	0.965535
C41	C	1.859111	-0.528144	0.465564
C42	C	2.359111	-0.028144	0.965564
C43	C	1.781855	-0.727018	0.555733
C44	C	2.281855	-0.227018	1.055733
C45	C	1.742482	-0.783311	0.443604
C46	C	2.242482	-0.283311	0.943604
C47	C	1.859236	-0.679268	0.465571
C48	C	2.359236	-0.179268	0.965571
C49	C	1.898671	-0.770054	0.577708
C50	C	2.398671	-0.270054	1.077708
C51	C	1.859354	-0.825247	0.465588
C52	C	2.359354	-0.325247	0.965588
C53	C	1.819798	-0.734480	0.353387
C54	C	2.319798	-0.234480	0.853387
C55	C	1.976046	-0.721212	0.487563
C56	C	2.476046	-0.221212	0.987563
C57	C	1.936711	-0.777484	0.375352
C58	C	2.436711	-0.277484	0.875352
C59	C	1.859164	-0.595174	0.465563
C60	C	2.359164	-0.095174	0.965563
C61	C	1.859425	-0.909341	0.465583
C62	C	2.359425	-0.409341	0.965583
C63	C	2.186411	-0.238997	0.440508
C64	C	2.686411	0.261003	0.940508
C65	C	2.325843	-0.233182	0.429838
C66	C	2.825843	0.266818	0.929838
C67	C	1.884423	-0.236649	0.792743
C68	C	2.384423	0.263351	1.292743
C69	C	1.895166	-0.229833	0.932176
C70	C	2.395166	0.270167	1.432176
C71	C	1.859402	-0.058926	0.465578
C72	C	2.359402	0.441074	0.965578
C73	C	1.859483	0.023624	0.465593
C74	C	2.359483	0.523624	0.965593
C75	C	1.834171	-0.268517	0.139612
C76	C	2.334171	0.231483	0.639612
C77	C	1.823671	-0.275113	0.000161
C78	C	2.323671	0.224887	0.500161
H79	H	1.716305	-0.704886	0.631887
H80	H	2.216305	-0.204886	1.131887
F81	F	1.389155	-0.183837	0.339298
F82	F	1.889155	0.316163	0.839298
F83	F	1.330538	-0.321422	0.591716
F84	F	1.830538	0.178578	1.091716
F85	F	1.985930	-0.172348	0.995526
F86	F	2.485930	0.327652	1.495526
H87	H	1.643756	-0.810397	0.425021
H88	H	2.143756	-0.310397	0.925021
H89	H	1.786378	-0.718720	0.258543
H90	H	2.286378	-0.218720	0.758543
H91	H	2.002194	-0.799490	0.299031
H92	H	2.502194	-0.299490	0.799031
H93	H	2.074755	-0.694126	0.506203
H94	H	2.574755	-0.194126	1.006203
H95	H	1.931977	-0.785908	0.672534
H96	H	2.431977	-0.285908	1.172534
H97	H	1.754245	-0.319095	0.951696
H98	H	2.254245	0.180905	1.451696
