data_functionalizedCrystal
_audit_creation_method	'MofGen! by Chris Wilmer'
_symmetry_space_group_name_H-M	'P1'
_symmetry_Int_Tables_number	1
_symmetry_cell_setting	triclinic
loop_
_symmetry_equiv_pos_as_xyz
  x,y,z
_cell_length_a	16.793024
_cell_length_b	16.793047
_cell_length_c	33.586455
_cell_angle_alpha	113.253857
_cell_angle_beta	66.219990
_cell_angle_gamma	112.758327
loop_
_atom_site_label
_atom_site_type_symbol
_atom_site_fract_x
_atom_site_fract_y
_atom_site_fract_z
O1	O	0.005016	-0.570216	-0.583573
O2	O	-0.034529	-0.474528	-0.453458
O3	O	0.114723	-0.474535	-0.528082
O4	O	-0.144235	-0.570209	-0.508949
O5	O	0.108729	-0.346329	-0.530229
O6	O	-0.040523	-0.346322	-0.455605
O7	O	-0.000977	-0.442010	-0.585721
Zn8	Zn	-0.021701	-0.373810	-0.521004
Zn9	Zn	-0.013805	-0.542728	-0.518175
O10	O	-0.150229	-0.442003	-0.511097
C11	C	0.005100	-0.790970	-0.238461
C12	C	0.009223	-0.693065	-0.217557
C13	C	0.003804	-0.645758	-0.241627
C14	C	-0.075059	-0.538459	-0.266316
C15	C	0.049838	-0.422849	-0.250165
C16	C	-0.040584	-0.395375	-0.435637
C17	C	-0.044693	-0.353446	-0.386631
C18	C	-0.039275	-0.401741	-0.363054
C19	C	-0.040566	-0.125547	-0.300731
C20	C	-0.044689	-0.223451	-0.321635
C21	C	-0.039266	-0.270752	-0.297563
C22	C	0.039597	-0.378051	-0.272874
C23	C	-0.085304	-0.493667	-0.289026
C24	C	0.005118	-0.521142	-0.103554
C25	C	0.009231	-0.563064	-0.152559
C26	C	0.003809	-0.514775	-0.176138
C27	C	0.010758	-0.652581	-0.172822
C28	C	0.001010	-0.556371	-0.220792
C29	C	-0.008251	-0.506059	-0.245823
C30	C	-0.046224	-0.263935	-0.366370
C31	C	-0.036476	-0.360146	-0.318399
C32	C	-0.027211	-0.410451	-0.293367
C33	C	0.815184	-0.521162	-0.508596
C34	C	0.717729	-0.563083	-0.506815
C35	C	0.669923	-0.514793	-0.509201
C36	C	0.564072	-0.463272	-0.548285
C37	C	0.445555	-0.498966	-0.486078
C38	C	0.415541	-0.125553	-0.528781
C39	C	0.375032	-0.223457	-0.531493
C40	C	0.423813	-0.270761	-0.529101
C41	C	0.149318	-0.395376	-0.530584
C42	C	0.246774	-0.353455	-0.532364
C43	C	0.294574	-0.401748	-0.529976
C44	C	0.400424	-0.453269	-0.490892
C45	C	0.518948	-0.417572	-0.553101
C46	C	0.548961	-0.790984	-0.510398
C47	C	0.589464	-0.693083	-0.507684
C48	C	0.540690	-0.645776	-0.510078
C49	C	0.678399	-0.652598	-0.506649
C50	C	0.581167	-0.556389	-0.510877
C51	C	0.530434	-0.506073	-0.515170
C52	C	0.286104	-0.263940	-0.532530
C53	C	0.383336	-0.360149	-0.528302
C54	C	0.434062	-0.410467	-0.524008
C55	C	-0.040530	-0.395407	-0.935652
C56	C	-0.044651	-0.353482	-0.886645
C57	C	-0.039242	-0.401770	-0.863061
C58	C	0.039602	-0.453292	-0.810474
C59	C	-0.085288	-0.417587	-0.750981
C60	C	0.005063	-0.791004	-0.738448
C61	C	0.009186	-0.693099	-0.717543
C62	C	0.003779	-0.645796	-0.741620
C63	C	0.005077	-0.521171	-0.603544
C64	C	0.009198	-0.563096	-0.652550
C65	C	0.003786	-0.514804	-0.676131
C66	C	-0.075058	-0.463283	-0.728717
C67	C	0.049835	-0.498991	-0.788214
C68	C	-0.040516	-0.125574	-0.800747
C69	C	-0.044642	-0.223476	-0.821649
C70	C	-0.039232	-0.270782	-0.797575
C71	C	-0.046172	-0.263965	-0.866386
C72	C	-0.036447	-0.360171	-0.818406
C73	C	-0.027197	-0.410486	-0.793373
C74	C	0.010719	-0.652613	-0.672809
C75	C	0.000994	-0.556406	-0.720789
C76	C	-0.008259	-0.506089	-0.745819
O77	O	-0.000965	0.173549	-0.277957
O78	O	-0.040516	-0.085616	-0.325254
O79	O	0.108737	0.059592	-0.327284
O80	O	-0.150219	0.028341	-0.275927
O81	O	0.114753	0.055151	-0.263265
O82	O	-0.034500	-0.090057	-0.261234
O83	O	0.005051	0.169108	-0.213937
Zn84	Zn	-0.013769	0.038820	-0.227421
Zn85	Zn	-0.021696	0.044672	-0.311770
O86	O	-0.144202	0.023900	-0.211907
O87	O	-0.034458	-0.474571	0.046517
O88	O	0.005076	-0.570190	-0.083599
O89	O	-0.144170	-0.570237	-0.008972
O90	O	0.114787	-0.474523	-0.028110
O91	O	-0.150200	-0.442024	-0.011093
O92	O	-0.000954	-0.441976	-0.085720
O93	O	-0.040488	-0.346357	0.044396
Zn94	Zn	-0.021679	-0.373810	-0.020999
Zn95	Zn	-0.013734	-0.542737	-0.018204
O96	O	0.108757	-0.346309	-0.030231
C97	C	-0.850734	0.086244	-0.289716
C98	C	-0.753280	0.087165	-0.312001
C99	C	-0.705462	0.081107	-0.288506
C100	C	-0.599592	0.000085	-0.264184
C101	C	-0.481080	0.121287	-0.283645
C102	C	-0.450996	0.035117	-0.097351
C103	C	-0.410501	0.028587	-0.146852
C104	C	-0.459292	0.034683	-0.169840
C105	C	-0.184802	0.024283	-0.235878
C106	C	-0.282257	0.023363	-0.213592
C107	C	-0.330068	0.029423	-0.237088
C108	C	-0.435938	0.110445	-0.261411
C109	C	-0.554456	-0.010759	-0.241948
C110	C	-0.584541	0.075410	-0.428242
C111	C	-0.625029	0.081943	-0.378743
C112	C	-0.576244	0.075844	-0.355753
C113	C	-0.713963	0.086424	-0.357292
C114	C	-0.616708	0.075351	-0.310510
C115	C	-0.565963	0.065400	-0.286043
C116	C	-0.321573	0.024104	-0.168302
C117	C	-0.418828	0.035176	-0.215083
C118	C	-0.469568	0.045131	-0.239552
O119	O	0.585213	0.169090	-0.504004
O120	O	0.494056	-0.090076	-0.525516
O121	O	0.488081	0.055124	-0.449918
O122	O	0.591189	0.023889	-0.579602
O123	O	0.359978	0.059584	-0.452885
O124	O	0.365953	-0.085616	-0.528483
O125	O	0.457110	0.173550	-0.506971
Zn126	Zn	0.391193	0.044675	-0.518198
Zn127	Zn	0.559974	0.038798	-0.514289
O128	O	0.463086	0.028349	-0.582569
C129	C	0.815354	-0.521094	-0.008709
C130	C	0.717898	-0.563028	-0.006927
C131	C	0.670072	-0.514739	-0.009298
C132	C	0.564182	-0.463204	-0.048354
C133	C	0.445681	-0.498945	0.013847
C134	C	0.415547	-0.125494	-0.028771
C135	C	0.375059	-0.223405	-0.031498
C136	C	0.423859	-0.270708	-0.029121
C137	C	0.149365	-0.395355	-0.030599
C138	C	0.246820	-0.353421	-0.032381
C139	C	0.294640	-0.401713	-0.030008
C140	C	0.400530	-0.453248	0.009048
C141	C	0.519038	-0.417504	-0.053155
C142	C	0.549171	-0.790955	-0.010537
C143	C	0.589653	-0.693047	-0.007809
C144	C	0.540859	-0.645741	-0.010187
C145	C	0.678588	-0.652551	-0.006775
C146	C	0.581317	-0.556344	-0.010973
C147	C	0.530562	-0.506029	-0.015250
C148	C	0.286131	-0.263897	-0.032533
C149	C	0.383402	-0.360104	-0.028335
C150	C	0.434150	-0.410423	-0.024057
O151	O	-0.620614	0.089309	0.052274
O152	O	-0.529507	0.043784	-0.078544
O153	O	-0.523494	0.194833	-0.006033
O154	O	-0.626628	-0.061740	-0.020236
O155	O	-0.395386	0.185419	-0.005549
O156	O	-0.401400	0.034370	-0.078059
O157	O	-0.492507	0.079895	0.052758
Zn158	Zn	-0.426614	0.055638	-0.012574
Zn159	Zn	-0.595401	0.068041	-0.013212
O160	O	-0.498521	-0.071154	-0.019752
C161	C	-0.437537	0.048335	0.402491
C162	C	-0.397043	0.041789	0.352989
C163	C	-0.445822	0.047883	0.329994
C164	C	-0.496646	0.126653	0.277022
C165	C	-0.465894	-0.000633	0.218811
C166	C	-0.837226	0.099430	0.210091
C167	C	-0.739773	0.100339	0.187806
C168	C	-0.691967	0.094287	0.211308
C169	C	-0.571027	0.088563	0.071568
C170	C	-0.611521	0.095108	0.121070
C171	C	-0.562739	0.089011	0.144061
C172	C	-0.511915	0.010241	0.197033
C173	C	-0.542670	0.137531	0.255247
C174	C	-0.171338	0.037467	0.263967
C175	C	-0.268788	0.036555	0.286249
C176	C	-0.316597	0.042611	0.262750
C177	C	-0.308112	0.037305	0.331542
C178	C	-0.405351	0.048369	0.284750
C179	C	-0.456092	0.058317	0.260279
C180	C	-0.700452	0.099593	0.142516
C181	C	-0.603213	0.088528	0.189308
C182	C	-0.552469	0.078578	0.213776
O183	O	-0.040608	-1.085661	-0.825229
O184	O	-0.001018	-0.826491	-0.777938
O185	O	-0.150287	-0.971682	-0.775894
O186	O	0.108661	-0.940470	-0.827272
O187	O	-0.144253	-0.976123	-0.711878
O188	O	0.005016	-0.830932	-0.713922
O189	O	-0.034575	-1.090102	-0.761213
Zn190	Zn	-0.013821	-0.961222	-0.727403
Zn191	Zn	-0.021771	-0.955371	-0.811747
O192	O	0.114695	-0.944911	-0.763256
O193	O	-0.036816	-0.230509	-0.253950
C194	C	-0.111405	-0.277868	-0.225319
H195	H	-0.136412	-0.349914	-0.245937
H196	H	-0.167999	-0.243272	-0.209571
C197	C	-0.051938	-0.190524	-0.162142
C198	C	-0.082647	-0.279015	-0.187465
H199	H	-0.034201	-0.191229	-0.138790
H200	H	-0.001688	-0.158614	-0.181430
H201	H	-0.099105	-0.161704	-0.149023
H202	H	-0.035477	-0.307830	-0.200588
H203	H	-0.132889	-0.310930	-0.168178
O204	O	-0.036492	-0.230383	-0.754012
C205	C	0.044403	-0.230952	-0.750761
H206	H	0.097127	-0.237347	-0.785524
H207	H	0.031009	-0.290417	-0.738374
C208	C	0.014883	-0.134750	-0.674287
C209	C	0.079642	-0.142597	-0.716983
H210	H	0.036619	-0.080251	-0.653449
H211	H	-0.039619	-0.134369	-0.676476
H212	H	0.003727	-0.184310	-0.663970
H213	H	0.090788	-0.093044	-0.727301
H214	H	0.134147	-0.142968	-0.714795
H215	H	0.245737	-0.223998	-0.033572
O216	O	0.001421	-0.427474	-0.155928
C217	C	0.080557	-0.376168	-0.142837
H218	H	0.136327	-0.411615	-0.164359
H219	H	0.066236	-0.368673	-0.105528
C220	C	0.042514	-0.238830	-0.123428
C221	C	0.111014	-0.282363	-0.149865
H222	H	0.061300	-0.180965	-0.127761
H223	H	-0.010803	-0.273395	-0.132246
H224	H	0.030586	-0.232594	-0.092340
H225	H	0.122933	-0.288609	-0.180952
H226	H	0.164334	-0.247797	-0.141052
H227	H	-0.518563	-0.039000	0.162804
O228	O	-0.476052	0.083671	0.122766
C229	C	-0.418150	0.157331	0.145654
H230	H	-0.458419	0.184405	0.182221
H231	H	-0.387114	0.212612	0.127928
C232	C	-0.292968	0.093295	0.100292
C233	C	-0.342426	0.126543	0.145206
H234	H	-0.246256	0.074306	0.100015
H235	H	-0.331977	0.043671	0.084871
H236	H	-0.267114	0.139368	0.085526
H237	H	-0.368289	0.080467	0.159970
H238	H	-0.303420	0.176159	0.160630
H239	H	-0.037138	-0.474881	-0.380005
O240	O	0.001369	-0.686192	-0.285236
C241	C	0.080518	-0.714488	-0.311964
H242	H	0.110377	-0.723022	-0.289320
H243	H	0.131857	-0.661849	-0.329902
C244	C	0.020619	-0.794497	-0.375328
C245	C	0.057288	-0.804986	-0.347517
H246	H	0.006291	-0.850318	-0.397261
H247	H	-0.032705	-0.775431	-0.357322
H248	H	0.063407	-0.750628	-0.390273
H249	H	0.014496	-0.848846	-0.332569
H250	H	0.110604	-0.824062	-0.365522
O251	O	-0.132795	-0.468450	-0.686955
C252	C	-0.083745	-0.429834	-0.655170
H253	H	-0.017409	-0.380579	-0.668347
H254	H	-0.068899	-0.485169	-0.649945
C255	C	-0.221305	-0.439935	-0.593521
C256	C	-0.139833	-0.379433	-0.609704
H257	H	-0.255904	-0.408848	-0.565475
H258	H	-0.254352	-0.465954	-0.614935
H259	H	-0.208922	-0.486043	-0.589171
H260	H	-0.152218	-0.333333	-0.614059
H261	H	-0.106790	-0.353405	-0.588289
O262	O	0.407449	-0.539190	-0.452152
C263	C	0.325303	-0.603381	-0.457220
H264	H	0.326114	-0.625480	-0.494100
H265	H	0.266719	-0.572306	-0.434513
C266	C	0.312618	-0.658484	-0.398313
C267	C	0.313617	-0.685632	-0.443611
H268	H	0.305406	-0.709219	-0.389917
H269	H	0.367959	-0.615235	-0.394897
H270	H	0.263798	-0.632588	-0.379396
H271	H	0.362443	-0.711517	-0.462527
H272	H	0.258283	-0.728887	-0.447029
H273	H	-0.503619	0.071273	-0.373665
O274	O	-0.049465	-0.216433	-0.890142
C275	C	-0.128305	-0.258500	-0.904117
H276	H	-0.180842	-0.301284	-0.880905
H277	H	-0.111207	-0.303253	-0.940507
C278	C	-0.102025	-0.133654	-0.930092
C279	C	-0.166555	-0.186196	-0.901579
H280	H	-0.125618	-0.089056	-0.928529
H281	H	-0.048907	-0.105315	-0.920679
H282	H	-0.087782	-0.170958	-0.960414
H283	H	-0.180788	-0.148894	-0.871258
H284	H	-0.219677	-0.214528	-0.910988
O285	O	-0.532514	0.053191	0.351323
C286	C	-0.590436	-0.020436	0.328433
H287	H	-0.556928	-0.077803	0.308428
H288	H	-0.604393	0.001032	0.304179
C289	C	-0.721274	0.018091	0.387785
C290	C	-0.680122	-0.052371	0.363218
H291	H	-0.776598	-0.001606	0.409242
H292	H	-0.682251	0.067697	0.403206
H293	H	-0.732896	0.035975	0.367569
H294	H	-0.668490	-0.070246	0.383434
H295	H	-0.719145	-0.101981	0.347801
H296	H	0.718758	-0.692512	-0.505593
O297	O	-0.049243	-0.216379	-0.390196
C298	C	0.027556	-0.213514	-0.428584
H299	H	0.055411	-0.272579	-0.437727
H300	H	0.081424	-0.147628	-0.420727
C301	C	-0.033156	-0.147051	-0.457548
C302	C	0.001050	-0.219601	-0.468780
H303	H	-0.049504	-0.150802	-0.482343
H304	H	-0.084897	-0.148978	-0.431685
H305	H	0.011739	-0.092154	-0.451001
H306	H	-0.043848	-0.274496	-0.475322
H307	H	0.052783	-0.217683	-0.494646
H308	H	-0.724884	0.094041	0.248327
O309	O	-0.428162	-0.070648	0.199893
C310	C	-0.446040	-0.121929	0.158094
H311	H	-0.460314	-0.078323	0.144335
H312	H	-0.507390	-0.182024	0.163266
C313	C	-0.345883	-0.209231	0.140931
C314	C	-0.363408	-0.155671	0.124031
H315	H	-0.294914	-0.230048	0.119920
H316	H	-0.333840	-0.174685	0.169093
H317	H	-0.397014	-0.259303	0.145241
H318	H	-0.312282	-0.105594	0.119727
H319	H	-0.375440	-0.190209	0.095868
O320	O	0.013741	-0.700201	-0.149016
C321	C	-0.062937	-0.702866	-0.110564
H322	H	-0.119195	-0.691379	-0.116654
H323	H	-0.044687	-0.647943	-0.079738
C324	C	-0.026260	-0.809598	-0.094495
C325	C	-0.095359	-0.795496	-0.101976
H326	H	-0.046258	-0.866734	-0.089195
H327	H	0.025402	-0.807800	-0.120399
H328	H	-0.011058	-0.763822	-0.068807
H329	H	-0.110552	-0.841264	-0.127666
H330	H	-0.147024	-0.797304	-0.076075
O331	O	0.726878	-0.700118	-0.005592
C332	C	0.803693	-0.702979	-0.044010
H333	H	0.821201	-0.643902	-0.057536
H334	H	0.788855	-0.768856	-0.071387
C335	C	0.862492	-0.769480	-0.014108
C336	C	0.884000	-0.696916	-0.030719
H337	H	0.912028	-0.765744	-0.005910
H338	H	0.810738	-0.767555	0.011774
H339	H	0.850126	-0.824369	-0.036925
H340	H	0.896354	-0.642028	-0.007900
H341	H	0.935757	-0.698831	-0.056597
O342	O	-0.488814	0.185455	0.317864
C343	C	-0.533736	0.251172	0.330280
H344	H	-0.587065	0.223518	0.311842
H345	H	-0.482749	0.313976	0.320563
C346	C	-0.514141	0.309443	0.404521
C347	C	-0.579646	0.275475	0.381878
H348	H	-0.542458	0.324438	0.436349
H349	H	-0.483874	0.265171	0.396155
H350	H	-0.471658	0.361776	0.396418
H351	H	-0.622122	0.223138	0.389976
H352	H	-0.609922	0.319739	0.390245
O353	O	-0.545985	0.039987	-0.148507
C354	C	-0.603915	-0.033632	-0.171395
H355	H	-0.570410	-0.091000	-0.191407
H356	H	-0.617880	-0.012153	-0.195642
C357	C	-0.734742	0.004891	-0.112031
C358	C	-0.693594	-0.065572	-0.136607
H359	H	-0.790062	-0.014809	-0.090573
H360	H	-0.695714	0.054492	-0.096611
H361	H	-0.746372	0.022784	-0.132241
H362	H	-0.681955	-0.083456	-0.116398
H363	H	-0.732622	-0.115177	-0.152023
H364	H	-0.669612	-0.046576	-0.265443
H365	H	0.013347	-0.692513	-0.652885
H366	H	0.413839	-0.532573	0.042316
H367	H	-0.740818	0.102779	0.123104
H368	H	-0.142686	-0.383972	-0.734830
O369	O	0.709059	-0.427522	-0.509885
C370	C	0.646958	-0.393586	-0.512391
H371	H	0.575177	-0.434811	-0.498876
H372	H	0.660130	-0.398271	-0.549201
C373	C	0.746455	-0.243865	-0.500261
C374	C	0.658292	-0.294494	-0.483658
H375	H	0.753449	-0.182739	-0.482539
H376	H	0.788296	-0.266729	-0.498574
H377	H	0.757421	-0.247780	-0.530936
H378	H	0.647332	-0.290588	-0.452986
H379	H	0.616450	-0.271627	-0.485339
O380	O	0.097510	-0.448137	-0.852211
C381	C	0.161689	-0.495122	-0.864890
H382	H	0.133103	-0.547157	-0.845339
H383	H	0.226123	-0.445644	-0.856744
C384	C	0.218480	-0.479078	-0.940169
C385	C	0.183367	-0.542995	-0.916158
H386	H	0.231856	-0.508606	-0.971794
H387	H	0.175244	-0.447421	-0.931626
H388	H	0.272171	-0.437852	-0.933375
H389	H	0.129672	-0.584213	-0.922948
H390	H	0.226595	-0.574660	-0.924703
H391	H	-0.037104	-0.474911	-0.880014
O392	O	0.255508	-0.489014	-0.029379
C393	C	0.305626	-0.544242	-0.067051
H394	H	0.377786	-0.502319	-0.079272
H395	H	0.272955	-0.574193	-0.095544
C396	C	0.218399	-0.672233	-0.038189
C397	C	0.307030	-0.620743	-0.053198
H398	H	0.219263	-0.719425	-0.029646
H399	H	0.184632	-0.635026	-0.012810
H400	H	0.191184	-0.697183	-0.061937
H401	H	0.334240	-0.595785	-0.029449
H402	H	0.340803	-0.657948	-0.078573
O403	O	0.557076	-0.377529	-0.587097
C404	C	0.642769	-0.392854	-0.612492
H405	H	0.645721	-0.455466	-0.608072
H406	H	0.697259	-0.332247	-0.600055
C407	C	0.655152	-0.329985	-0.668432
C408	C	0.658776	-0.406891	-0.663006
H409	H	0.665029	-0.338639	-0.699591
H410	H	0.597421	-0.319657	-0.651322
H411	H	0.700561	-0.279486	-0.658065
H412	H	0.613360	-0.457385	-0.673368
H413	H	0.716500	-0.417228	-0.680119
O414	O	0.237846	-0.216325	-0.533700
C415	C	0.160910	-0.213669	-0.495340
H416	H	0.173258	-0.225153	-0.467292
H417	H	0.099992	-0.268598	-0.504829
C418	C	0.127317	-0.106946	-0.512958
C419	C	0.142485	-0.121044	-0.478507
H420	H	0.115947	-0.049813	-0.502575
H421	H	0.179147	-0.108738	-0.538802
H422	H	0.076553	-0.152727	-0.520862
H423	H	0.193254	-0.075271	-0.470607
H424	H	0.090662	-0.119243	-0.452660
O425	O	0.118194	-0.539250	-0.807496
C426	C	0.081834	-0.632604	-0.812869
H427	H	0.009238	-0.653761	-0.813772
H428	H	0.082813	-0.648941	-0.783218
C429	C	0.228023	-0.657941	-0.856463
C430	C	0.138862	-0.683929	-0.857575
H431	H	0.263202	-0.689602	-0.884039
H432	H	0.252521	-0.595047	-0.852842
H433	H	0.228826	-0.671557	-0.831752
H434	H	0.138059	-0.670303	-0.882282
H435	H	0.114365	-0.746822	-0.861202
O436	O	-0.132972	-0.620359	-0.262946
C437	C	-0.197165	-0.643984	-0.285561
H438	H	-0.168586	-0.605669	-0.311971
H439	H	-0.261589	-0.625933	-0.259947
C440	C	-0.253965	-0.792993	-0.276754
C441	C	-0.218861	-0.745939	-0.309194
H442	H	-0.267352	-0.855884	-0.291330
H443	H	-0.210719	-0.777076	-0.261516
H444	H	-0.307648	-0.777940	-0.255411
H445	H	-0.165173	-0.760984	-0.330533
H446	H	-0.262098	-0.761862	-0.324436
O447	O	0.255159	-0.488956	-0.529215
C448	C	0.178029	-0.493723	-0.491070
H449	H	0.152467	-0.432117	-0.479678
H450	H	0.196354	-0.495615	-0.462318
C451	C	0.134951	-0.655261	-0.517624
C452	C	0.103550	-0.579598	-0.503634
H453	H	0.089010	-0.708234	-0.525373
H454	H	0.186917	-0.652050	-0.543322
H455	H	0.150221	-0.656825	-0.493661
H456	H	0.088292	-0.578029	-0.527599
H457	H	0.051580	-0.582811	-0.477941
O458	O	-0.442940	0.188208	-0.304210
C459	C	-0.357267	0.236722	-0.297689
H460	H	-0.330349	0.192598	-0.290511
H461	H	-0.363453	0.299572	-0.267716
C462	C	-0.324748	0.318613	-0.349569
C463	C	-0.291684	0.264417	-0.340756
H464	H	-0.284293	0.335701	-0.376133
H465	H	-0.382469	0.285931	-0.353960
H466	H	-0.329902	0.370981	-0.324588
H467	H	-0.286541	0.212045	-0.365734
H468	H	-0.233960	0.297091	-0.336370
O469	O	0.510404	-0.230313	-0.527475
C470	C	0.512131	-0.155151	-0.488814
H471	H	0.442856	-0.163942	-0.462427
H472	H	0.529864	-0.091508	-0.498800
C473	C	0.668728	-0.136350	-0.501148
C474	C	0.583645	-0.147150	-0.468737
H475	H	0.712843	-0.131411	-0.488764
H476	H	0.667566	-0.186985	-0.527195
H477	H	0.683493	-0.083314	-0.509467
H478	H	0.568877	-0.200191	-0.460423
H479	H	0.584806	-0.096523	-0.442688
H480	H	-0.142704	-0.524425	-0.305055
O481	O	0.097545	-0.296181	-0.276264
C482	C	0.161696	-0.272536	-0.253620
H483	H	0.167349	-0.336059	-0.251394
H484	H	0.139381	-0.226738	-0.217968
C485	C	0.247339	-0.144746	-0.282788
C486	C	0.254287	-0.222767	-0.280057
H487	H	0.304452	-0.114043	-0.299093
H488	H	0.204117	-0.160674	-0.298041
H489	H	0.228739	-0.106592	-0.253076
H490	H	0.272875	-0.260925	-0.309768
H491	H	0.297514	-0.206845	-0.264809
H492	H	0.330406	-0.448859	-0.466617
H493	H	0.107243	-0.392097	-0.234140
H494	H	0.468064	-0.679625	-0.511379
O495	O	0.001098	-0.686117	-0.785195
C496	C	-0.079805	-0.685597	-0.788458
H497	H	-0.106635	-0.629158	-0.759386
H498	H	-0.132077	-0.752980	-0.786438
C499	C	-0.028370	-0.739563	-0.869730
C500	C	-0.061319	-0.670239	-0.834025
H501	H	-0.016969	-0.730094	-0.897838
H502	H	0.026135	-0.739917	-0.867532
H503	H	-0.071936	-0.795709	-0.868040
H504	H	-0.017749	-0.614096	-0.835712
H505	H	-0.115816	-0.669875	-0.836225
O506	O	0.001399	-0.427502	-0.655920
C507	C	0.080528	-0.376202	-0.642823
H508	H	0.136296	-0.411652	-0.664341
H509	H	0.066193	-0.368710	-0.605514
C510	C	0.042500	-0.238859	-0.623420
C511	C	0.110998	-0.282395	-0.649851
H512	H	0.061294	-0.180992	-0.627752
H513	H	-0.010813	-0.273420	-0.632242
H514	H	0.030561	-0.232624	-0.592331
H515	H	0.122928	-0.288639	-0.680939
H516	H	0.164314	-0.247833	-0.641034
O517	O	-0.290821	0.029578	-0.281271
C518	C	-0.265315	-0.050930	-0.307266
H519	H	-0.307875	-0.105068	-0.288962
H520	H	-0.190794	-0.038714	-0.312025
C521	C	-0.228357	-0.015746	-0.376438
C522	C	-0.280635	-0.082243	-0.353959
H523	H	-0.237803	-0.035060	-0.405242
H524	H	-0.245537	0.038495	-0.358926
H525	H	-0.166260	-0.005573	-0.380400
H526	H	-0.342731	-0.092407	-0.349993
H527	H	-0.263466	-0.136487	-0.371472
O528	O	-0.762008	0.090359	-0.380466
C529	C	-0.718322	0.167741	-0.395996
H530	H	-0.643678	0.189804	-0.398303
H531	H	-0.750734	0.224284	-0.371302
C532	C	-0.819330	0.118986	-0.440367
C533	C	-0.727649	0.146080	-0.443205
H534	H	-0.825086	0.105626	-0.469487
H535	H	-0.848765	0.066854	-0.429903
H536	H	-0.846330	0.166109	-0.419787
H537	H	-0.700654	0.098953	-0.463780
H538	H	-0.698210	0.198204	-0.453673
H539	H	0.634089	-0.467700	-0.572564
H540	H	-0.738384	0.080845	-0.251490
H541	H	-0.365918	0.157102	-0.260160
O542	O	-0.592553	-0.077748	-0.221430
C543	C	-0.678239	-0.126240	-0.227938
H544	H	-0.681213	-0.117277	-0.259187
H545	H	-0.732745	-0.099946	-0.196886
C546	C	-0.690537	-0.237846	-0.196398
C547	C	-0.694187	-0.226843	-0.234782
H548	H	-0.700377	-0.299902	-0.200618
H549	H	-0.632810	-0.205174	-0.192012
H550	H	-0.735959	-0.215928	-0.170526
H551	H	-0.648758	-0.248750	-0.260652
H552	H	-0.751907	-0.259520	-0.239172
O553	O	0.709377	-0.427441	-0.009911
C554	C	0.734837	-0.376156	0.030011
H555	H	0.743205	-0.422269	0.044612
H556	H	0.680328	-0.341704	0.055921
C557	C	0.814698	-0.247747	0.000960
C558	C	0.824983	-0.304383	0.018892
H559	H	0.870302	-0.203471	-0.005897
H560	H	0.797543	-0.282296	-0.025935
H561	H	0.769271	-0.219046	0.022555
H562	H	0.870401	-0.333091	-0.002704
H563	H	0.842148	-0.269836	0.045784
O564	O	-0.273345	0.020181	-0.145217
C565	C	-0.246160	-0.060075	-0.166555
H566	H	-0.245245	-0.085233	-0.203576
H567	H	-0.295675	-0.113277	-0.148597
C568	C	-0.151939	-0.010990	-0.118645
C569	C	-0.150807	-0.041885	-0.164115
H570	H	-0.093123	0.000228	-0.117138
H571	H	-0.170257	0.043079	-0.104267
H572	H	-0.193206	-0.055330	-0.103685
H573	H	-0.109550	0.002460	-0.179073
H574	H	-0.132481	-0.095946	-0.178495
H575	H	0.330510	-0.448858	0.033327
H576	H	0.634201	-0.467612	-0.072637
O577	O	0.454259	-0.686250	-0.011792
C578	C	0.452553	-0.761368	-0.050473
H579	H	0.515085	-0.785509	-0.061628
H580	H	0.451928	-0.741504	-0.079097
C581	C	0.290259	-0.807997	-0.025290
C582	C	0.367058	-0.837651	-0.038988
H583	H	0.237521	-0.855051	-0.018207
H584	H	0.291408	-0.757387	0.000770
H585	H	0.289751	-0.791443	-0.049145
H586	H	0.367571	-0.854193	-0.015131
H587	H	0.365908	-0.888266	-0.065044
O588	O	0.557166	-0.377290	-0.087087
C589	C	0.639275	-0.313055	-0.081990
H590	H	0.666314	-0.330726	-0.061286
H591	H	0.627293	-0.243440	-0.063722
C592	C	0.675419	-0.291355	-0.154497
C593	C	0.708632	-0.313062	-0.129071
H594	H	0.718201	-0.291355	-0.183538
H595	H	0.620099	-0.334628	-0.157930
H596	H	0.665435	-0.233343	-0.139268
H597	H	0.718605	-0.371077	-0.144297
H598	H	0.763956	-0.269798	-0.125642
O599	O	0.510451	-0.230250	-0.027496
C600	C	0.512170	-0.155105	0.011173
H601	H	0.442897	-0.163917	0.037561
H602	H	0.529884	-0.091451	0.001199
C603	C	0.668777	-0.136281	-0.001171
C604	C	0.583697	-0.147108	0.031241
H605	H	0.712900	-0.131344	0.011207
H606	H	0.667620	-0.186905	-0.027224
H607	H	0.683526	-0.083237	-0.009480
H608	H	0.568944	-0.200157	0.039544
H609	H	0.584853	-0.096492	0.057295
H610	H	-0.283673	0.042875	0.225734
O611	O	-0.259894	0.033383	0.354633
C612	C	-0.232717	-0.046877	0.333300
H613	H	-0.231794	-0.072039	0.296278
H614	H	-0.282241	-0.100074	0.351260
C615	C	-0.138511	0.002209	0.381218
C616	C	-0.137370	-0.028692	0.335746
H617	H	-0.079699	0.013423	0.382728
H618	H	-0.156823	0.056280	0.395592
H619	H	-0.179786	-0.042128	0.396179
H620	H	-0.096105	0.015648	0.320787
H621	H	-0.119048	-0.082756	0.321370
H622	H	-0.574318	0.196197	0.271049
