data_functionalizedCrystal
_audit_creation_method	'MofGen! by Chris Wilmer'
_symmetry_space_group_name_H-M	'P1'
_symmetry_Int_Tables_number	1
_symmetry_cell_setting	triclinic
loop_
_symmetry_equiv_pos_as_xyz
  x,y,z
_cell_length_a	16.109301
_cell_length_b	19.188924
_cell_length_c	15.186229
_cell_angle_alpha	89.994194
_cell_angle_beta	89.999006
_cell_angle_gamma	83.301774
loop_
_atom_site_label
_atom_site_type_symbol
_atom_site_fract_x
_atom_site_fract_y
_atom_site_fract_z
O1	O	1.102830	0.089745	-0.073184
O2	O	1.602830	0.589745	0.426816
O3	O	0.860731	0.100913	-0.073197
O4	O	1.360731	0.600913	0.426803
O5	O	0.988770	-0.006310	-0.073180
O6	O	1.488770	0.493690	0.426820
O7	O	0.974791	0.196969	-0.073201
O8	O	1.474791	0.696969	0.426799
O9	O	0.988762	-0.006312	0.073277
O10	O	1.488762	0.493688	0.573277
O11	O	0.860723	0.100912	0.073260
O12	O	1.360723	0.600912	0.573260
O13	O	1.102822	0.089744	0.073273
O14	O	1.602822	0.589744	0.573273
Zn15	Zn	0.981771	0.095327	0.096520
Zn16	Zn	1.481771	0.595327	0.596520
Zn17	Zn	0.981782	0.095329	-0.096444
Zn18	Zn	1.481782	0.595329	0.403556
O19	O	0.974783	0.196967	0.073256
O20	O	1.474783	0.696967	0.573256
C21	C	0.829754	0.100460	0.000030
C22	C	1.329754	0.600460	0.500030
C23	C	0.737463	0.099104	0.000025
C24	C	1.237463	0.599104	0.500025
C25	C	0.428267	0.158294	0.000035
C26	C	0.928267	0.658294	0.500035
C27	C	0.514983	0.159575	0.000029
C28	C	1.014983	0.659575	0.500029
C29	C	0.535281	0.032358	0.000031
C30	C	1.035281	0.532358	0.500031
C31	C	0.448567	0.031077	0.000030
C32	C	0.948567	0.531077	0.500030
C33	C	0.395061	0.094048	0.000036
C34	C	0.895061	0.594048	0.500036
C35	C	0.568492	0.096609	0.000032
C36	C	1.068492	0.596609	0.500032
C37	C	0.662513	0.097997	0.000026
C38	C	1.162513	0.597997	0.500026
C39	C	0.301034	0.092660	0.000040
C40	C	0.801034	0.592660	0.500040
C41	C	0.988314	-0.032323	0.000049
C42	C	1.488314	0.467677	0.500049
C43	C	0.986958	-0.109831	0.000052
C44	C	1.486958	0.390169	0.500052
C45	C	0.986330	-0.146231	-0.079782
C46	C	1.486330	0.353769	0.420218
C47	C	0.985044	-0.219057	-0.079789
C48	C	1.485044	0.280943	0.420211
C49	C	0.984403	-0.255482	0.000043
C50	C	1.484403	0.244518	0.500043
C51	C	0.985027	-0.219073	0.079887
C52	C	1.485027	0.280927	0.579887
C53	C	0.986304	-0.146248	0.079892
C54	C	1.486304	0.353752	0.579892
N55	N	1.029706	-0.375040	0.059462
N56	N	1.529706	0.124960	0.559462
N57	N	1.028494	-0.444221	0.059452
N58	N	1.528494	0.055779	0.559452
C59	C	0.980552	-0.474900	0.000034
C60	C	1.480552	0.025100	0.500034
N61	N	0.933878	-0.433786	-0.059388
N62	N	1.433878	0.066214	0.440612
N63	N	0.935094	-0.364598	-0.059381
N64	N	1.435094	0.135402	0.440619
C65	C	0.983017	-0.334448	0.000047
C66	C	1.483017	0.165552	0.500047
C67	C	0.978528	-0.590265	-0.079813
C68	C	1.478528	-0.090265	0.420187
C69	C	0.977237	-0.663092	-0.079816
C70	C	1.477237	-0.163092	0.420184
C71	C	0.977228	-0.663108	0.079863
C72	C	1.477228	-0.163108	0.579863
C73	C	0.978511	-0.590282	0.079864
C74	C	1.478511	-0.090282	0.579864
C75	C	0.979165	-0.553865	0.000024
C76	C	1.479165	-0.053865	0.500024
C77	C	1.133800	0.090197	0.000044
C78	C	1.633800	0.590197	0.500044
C79	C	1.226090	0.091553	0.000043
C80	C	1.726090	0.591553	0.500043
C81	C	0.975239	0.222980	0.000024
C82	C	1.475239	0.722980	0.500024
C83	C	0.976595	0.300488	0.000016
C84	C	1.476595	0.800488	0.500016
N85	N	0.981769	0.095326	0.228212
N86	N	1.481769	0.595326	0.728212
N87	N	0.981790	0.095326	-0.228137
N88	N	1.481790	0.595326	0.271863
C89	C	1.038484	0.047863	0.453943
C90	C	1.538484	0.547863	0.953943
C91	C	1.038487	0.047861	0.546133
C92	C	1.538487	0.547861	1.046133
C93	C	0.925069	0.142791	0.546126
C94	C	1.425069	0.642791	1.046126
C95	C	0.925064	0.142788	0.453938
C96	C	1.425064	0.642788	0.953938
C97	C	0.981776	0.095325	0.407849
C98	C	1.481776	0.595325	0.907849
C99	C	0.981784	0.095326	0.592227
C100	C	1.481784	0.595326	1.092227
C101	C	0.981787	0.095325	0.692183
C102	C	1.481787	0.595325	1.192183
C103	C	0.981772	0.095326	0.307887
C104	C	1.481772	0.595326	0.807887
H105	H	0.421532	-0.021243	0.000028
H106	H	0.921532	0.478757	0.500028
C107	C	0.987042	-0.106176	-0.167609
C108	C	1.487042	0.393824	0.332391
N109	N	0.987575	-0.076006	-0.233761
N110	N	1.487575	0.423994	0.266239
C111	C	0.984348	-0.259104	-0.167616
C112	C	1.484348	0.240896	0.332384
N113	N	0.983823	-0.289265	-0.233768
N114	N	1.483823	0.210735	0.266232
H115	H	0.384704	0.209569	0.000039
H116	H	0.884704	0.709569	0.500039
H117	H	0.542014	0.211891	0.000027
H118	H	1.042014	0.711891	0.500027
C119	C	0.979211	-0.550242	0.167689
C120	C	1.479211	-0.050242	0.667689
N121	N	0.979737	-0.520084	0.233843
N122	N	1.479737	-0.020084	0.733843
H123	H	0.578855	-0.018910	0.000028
H124	H	1.078855	0.481090	0.500028
C125	C	1.100862	-0.004353	0.403248
C126	C	1.600862	0.495647	0.903248
N127	N	1.147845	-0.043686	0.365067
N128	N	1.647845	0.456314	0.865067
C129	C	1.100864	-0.004357	0.596832
C130	C	1.600864	0.495643	1.096832
N131	N	1.147847	-0.043692	0.635018
N132	N	1.647847	0.456308	1.135018
H133	H	0.878897	0.181435	0.583662
H134	H	1.378897	0.681435	1.083662
C135	C	0.984320	-0.259142	0.167703
C136	C	1.484320	0.240858	0.667703
N137	N	0.983784	-0.289321	0.233848
N138	N	1.483784	0.210679	0.733848
H139	H	0.878880	0.181438	0.416406
H140	H	1.378880	0.681438	0.916406
H141	H	0.986812	-0.116611	0.144904
H142	H	1.486812	0.383389	0.644904
H143	H	0.976721	-0.692727	-0.144829
H144	H	1.476721	-0.192727	0.355171
C145	C	0.979235	-0.550203	-0.167638
C146	C	1.479235	-0.050203	0.332362
N147	N	0.979765	-0.520030	-0.233788
N148	N	1.479765	-0.020030	0.266212
C149	C	0.976523	-0.703171	0.167679
C150	C	1.476523	-0.203171	0.667679
N151	N	0.975991	-0.733350	0.233825
N152	N	1.475991	-0.233350	0.733825
