data_functionalizedCrystal
_audit_creation_method	'MofGen! by Chris Wilmer'
_symmetry_space_group_name_H-M	'P1'
_symmetry_Int_Tables_number	1
_symmetry_cell_setting	triclinic
loop_
_symmetry_equiv_pos_as_xyz
  x,y,z
_cell_length_a	19.188933
_cell_length_b	19.288865
_cell_length_c	17.766277
_cell_angle_alpha	89.989546
_cell_angle_beta	90.007983
_cell_angle_gamma	96.859092
loop_
_atom_site_label
_atom_site_type_symbol
_atom_site_fract_x
_atom_site_fract_y
_atom_site_fract_z
O1	O	0.926142	-0.086723	0.062578
O2	O	1.426142	0.413277	0.562578
O3	O	0.722830	-0.098395	0.062586
O4	O	1.222830	0.401605	0.562586
O5	O	0.830361	0.008571	0.062567
O6	O	1.330361	0.508571	0.562567
O7	O	0.818612	-0.193689	0.062597
O8	O	1.318612	0.306311	0.562597
O9	O	0.830342	0.008574	-0.062622
O10	O	1.330342	0.508574	0.437378
O11	O	0.722811	-0.098392	-0.062603
O12	O	1.222811	0.401608	0.437397
O13	O	0.926123	-0.086720	-0.062611
O14	O	1.426123	0.413280	0.437389
Cu15	Cu	0.824465	-0.092556	-0.074037
Cu16	Cu	1.324465	0.407444	0.425963
Cu17	Cu	0.824488	-0.092559	0.074013
Cu18	Cu	1.324488	0.407441	0.574013
O19	O	0.818592	-0.193686	-0.062592
O20	O	1.318592	0.306314	0.437408
C21	C	0.696810	-0.098015	-0.000008
C22	C	1.196810	0.401985	0.499992
C23	C	0.619305	-0.096880	-0.000005
C24	C	1.119305	0.403120	0.499995
C25	C	0.066061	-0.088779	0.068226
C26	C	0.566061	0.411221	0.568226
C27	C	0.138885	-0.089841	0.068229
C28	C	0.638885	0.410159	0.568229
C29	C	0.175292	-0.090374	-0.000011
C30	C	0.675292	0.409626	0.499989
C31	C	0.138870	-0.089827	-0.068259
C32	C	0.638870	0.410173	0.431741
C33	C	0.066049	-0.088757	-0.068260
C34	C	0.566049	0.411243	0.431740
N35	N	0.284301	-0.131577	-0.050799
N36	N	0.784301	0.368423	0.449201
N37	N	0.353478	-0.132595	-0.050793
N38	N	0.853478	0.367405	0.449207
C39	C	0.394700	-0.093595	-0.000012
C40	C	0.894700	0.406405	0.499988
N41	N	0.364130	-0.053549	0.050775
N42	N	0.864130	0.446451	0.550775
N43	N	0.294946	-0.052534	0.050772
N44	N	0.794946	0.447466	0.550772
C45	C	0.254255	-0.091534	-0.000017
C46	C	0.754255	0.408466	0.499983
C47	C	0.510078	-0.095290	0.068235
C48	C	1.010078	0.404710	0.568235
C49	C	0.582904	-0.096348	0.068236
C50	C	1.082904	0.403652	0.568236
C51	C	0.582887	-0.096341	-0.068254
C52	C	1.082887	0.403659	0.431746
C53	C	0.510063	-0.095275	-0.068253
C54	C	1.010063	0.404725	0.431747
C55	C	0.473662	-0.094754	-0.000006
C56	C	0.973662	0.405246	0.499994
C57	C	0.829973	0.034449	-0.000030
C58	C	1.329973	0.534449	0.499970
C59	C	0.828839	0.111552	-0.000036
C60	C	1.328839	0.611552	0.499964
C61	C	0.952144	-0.087100	-0.000016
C62	C	1.452144	0.412900	0.499984
C63	C	1.029648	-0.088235	-0.000013
C64	C	1.529648	0.411765	0.499987
C65	C	0.818980	-0.219564	0.000007
C66	C	1.318980	0.280436	0.500007
C67	C	0.820115	-0.296668	0.000018
C68	C	1.320115	0.203332	0.500018
N69	N	0.824455	-0.092553	-0.178168
N70	N	1.324455	0.407447	0.321832
C71	C	0.891933	0.156244	-0.000043
C72	C	1.391933	0.656244	0.499957
C73	C	0.890867	0.228691	-0.000031
C74	C	1.390867	0.728691	0.499969
C75	C	0.826703	0.256443	-0.000028
C76	C	1.326703	0.756443	0.499972
C77	C	0.763600	0.211742	-0.000017
C78	C	1.263600	0.711742	0.499983
C79	C	0.764668	0.139297	-0.000022
C80	C	1.264668	0.639297	0.499978
C81	C	0.776255	0.364736	-0.043876
C82	C	1.276255	0.864736	0.456124
C83	C	0.775190	0.437181	-0.043877
C84	C	1.275190	0.937181	0.456123
C85	C	0.823406	0.479889	-0.000011
C86	C	1.323406	0.979889	0.499989
C87	C	0.872699	0.450146	0.043846
C88	C	1.372699	0.950146	0.543846
C89	C	0.873767	0.377701	0.043842
C90	C	1.373767	0.877701	0.543842
C91	C	0.825537	0.334998	-0.000022
C92	C	1.325537	0.834998	0.499978
C93	C	0.885348	0.603137	-0.000003
C94	C	1.385348	1.103137	0.499997
C95	C	0.884279	0.675585	0.000014
C96	C	1.384279	1.175585	0.500014
C97	C	0.757011	0.658635	0.000020
C98	C	1.257011	1.158635	0.500020
C99	C	0.758082	0.586188	0.000011
C100	C	1.258082	1.086188	0.500011
C101	C	0.822252	0.558444	-0.000004
C102	C	1.322252	1.058444	0.499996
C103	C	0.866660	-0.134580	-0.217543
C104	C	1.366660	0.365420	0.282457
C105	C	0.866671	-0.134578	-0.296345
C106	C	1.366671	0.365422	0.203655
C107	C	0.824464	-0.092557	-0.335768
C108	C	1.324464	0.407443	0.164232
C109	C	0.782255	-0.050521	-0.296383
C110	C	1.282255	0.449479	0.203617
C111	C	0.782251	-0.050519	-0.217583
C112	C	1.282251	0.449481	0.282417
C113	C	0.761526	-0.090795	-0.460626
C114	C	1.261526	0.409205	0.039374
C115	C	0.761529	-0.090802	-0.539425
C116	C	1.261529	0.409198	-0.039425
C117	C	0.824478	-0.092559	-0.578815
C118	C	1.324478	0.407441	-0.078815
C119	C	0.887425	-0.094324	-0.539396
C120	C	1.387425	0.405676	-0.039396
C121	C	0.887421	-0.094322	-0.460596
C122	C	1.387421	0.405678	0.039404
C123	C	0.824464	-0.092554	-0.421214
C124	C	1.324464	0.407446	0.078786
C125	C	0.866699	-0.134586	-0.703636
C126	C	1.366699	0.365414	-0.203636
C127	C	0.866712	-0.134579	-0.782440
C128	C	1.366712	0.365421	-0.282440
C129	C	0.782289	-0.050526	-0.782476
C130	C	1.282289	0.449474	-0.282476
C131	C	0.782283	-0.050529	-0.703674
C132	C	1.282283	0.449471	-0.203674
C133	C	0.824487	-0.092563	-0.664259
C134	C	1.324487	0.407437	-0.164259
N135	N	0.824505	-0.092557	0.178143
N136	N	1.324505	0.407443	0.678143
H137	H	0.612551	-0.096786	0.123806
H138	H	1.112551	0.403214	0.623806
F139	F	0.924017	0.495594	0.090536
F140	F	1.424017	0.995594	0.590536
H141	H	0.747912	-0.016309	-0.671614
H142	H	1.247912	0.483691	-0.171614
F143	F	0.911639	-0.179310	-0.824346
F144	F	1.411639	0.320690	-0.324346
F145	F	0.027326	-0.088219	0.140861
F146	F	0.527326	0.411781	0.640861
F147	F	0.953643	0.573606	-0.000022
F148	F	1.453643	1.073606	0.499978
F149	F	0.951437	0.723149	0.000012
F150	F	1.451437	1.223149	0.500012
H151	H	0.710260	-0.089369	-0.428561
H152	H	1.210260	0.410631	0.071439
H153	H	0.168517	-0.090259	-0.123821
H154	H	0.668517	0.409741	0.376179
F155	F	0.737337	-0.005797	-0.338341
F156	F	1.237337	0.494203	0.161659
F157	F	0.688723	0.688166	0.000027
F158	F	1.188723	1.188166	0.500027
H159	H	0.735050	0.461391	-0.079583
H160	H	1.235050	0.961391	0.420417
F161	F	0.690928	0.538623	0.000014
F162	F	1.190928	1.038623	0.500014
H163	H	0.901029	-0.168804	-0.185457
H164	H	1.401029	0.331196	0.314543
H165	H	0.036401	-0.088317	-0.123830
H166	H	0.536401	0.411683	0.376170
F167	F	0.471336	-0.094731	0.140869
F168	F	0.971336	0.405269	0.640869
H169	H	0.612528	-0.096772	-0.123817
H170	H	1.112528	0.403228	0.376183
F171	F	0.737375	-0.005797	-0.824427
F172	F	1.237375	0.494203	-0.324427
H173	H	0.736991	0.329968	-0.079601
H174	H	1.236991	0.829968	0.420399
H175	H	0.480415	-0.094835	-0.123820
H176	H	0.980415	0.405165	0.376180
F177	F	0.958023	0.276263	-0.000036
F178	F	1.458023	0.776263	0.499964
F179	F	0.695312	0.241280	-0.000009
F180	F	1.195312	0.741280	0.499991
F181	F	0.697512	0.091731	-0.000015
F182	F	1.197512	0.591731	0.499985
F183	F	0.911595	-0.179310	-0.338260
F184	F	1.411595	0.320690	0.161740
F185	F	0.960229	0.126720	-0.000042
F186	F	1.460229	0.626720	0.499958
F187	F	0.926223	0.346048	0.090519
F188	F	1.426223	0.846048	0.590519
H189	H	0.938675	-0.095757	-0.428504
H190	H	1.438675	0.404243	0.071496
F191	F	0.177647	-0.090421	0.140861
F192	F	0.677647	0.409579	0.640861
H193	H	0.747880	-0.016295	-0.185523
H194	H	1.247880	0.483705	0.314477
F195	F	0.954426	-0.096194	-0.581311
F196	F	1.454426	0.403806	-0.081311
F197	F	0.911628	-0.179309	-0.661685
F198	F	1.411628	0.320691	-0.161685
H199	H	0.710273	-0.089369	-0.571513
H200	H	1.210273	0.410631	-0.071513
