data_functionalizedCrystal
_audit_creation_method	'MofGen! by Chris Wilmer'
_symmetry_space_group_name_H-M	'P1'
_symmetry_Int_Tables_number	1
_symmetry_cell_setting	triclinic
loop_
_symmetry_equiv_pos_as_xyz
  x,y,z
_cell_length_a	21.295420
_cell_length_b	21.295417
_cell_length_c	21.295411
_cell_angle_alpha	89.978159
_cell_angle_beta	90.024592
_cell_angle_gamma	89.968641
loop_
_atom_site_label
_atom_site_type_symbol
_atom_site_fract_x
_atom_site_fract_y
_atom_site_fract_z
Zn1	Zn	0.962333	0.250752	0.355911
Zn2	Zn	0.962226	0.356004	0.250636
Zn3	Zn	0.857056	0.250745	0.250656
Zn4	Zn	0.857016	0.355979	0.355868
O5	O	0.909658	0.303370	0.303268
O6	O	1.050408	0.264727	0.341956
O7	O	0.948247	0.342048	0.162549
O8	O	0.871083	0.162656	0.264645
O9	O	1.050330	0.342055	0.264611
O10	O	0.948429	0.162661	0.341975
O11	O	0.870979	0.264714	0.162564
O12	O	0.768962	0.264691	0.264603
O13	O	0.871015	0.342014	0.443963
O14	O	0.768932	0.342006	0.341901
O15	O	0.948391	0.264703	0.443995
O16	O	0.948208	0.444090	0.264569
O17	O	0.870911	0.444072	0.341882
C18	C	0.746106	0.303346	0.303250
C19	C	0.676138	0.303351	0.303257
C20	C	0.176721	0.263200	0.343616
C21	C	0.242463	0.263195	0.343616
C22	C	0.275299	0.303389	0.303282
C23	C	0.242387	0.343602	0.262957
C24	C	0.176645	0.343610	0.262963
N25	N	0.378488	0.308125	0.248163
N26	N	0.440940	0.308113	0.248159
C27	C	0.473374	0.303368	0.303264
N28	N	0.440997	0.298623	0.358374
N29	N	0.378540	0.298631	0.358376
C30	C	0.346584	0.303385	0.303272
C31	C	0.577563	0.263156	0.343590
C32	C	0.643307	0.263156	0.343591
C33	C	0.643229	0.343559	0.262926
C34	C	0.577487	0.343562	0.262931
C35	C	0.544658	0.303358	0.303262
C36	C	0.909561	0.466921	0.303232
C37	C	0.909577	0.536890	0.303238
C38	C	0.949825	0.569702	0.343532
C39	C	0.949840	0.635444	0.343546
C40	C	0.909615	0.668372	0.303255
C41	C	0.869359	0.635552	0.262958
C42	C	0.869340	0.569811	0.262950
N43	N	0.904845	0.771624	0.248162
N44	N	0.904866	0.834075	0.248172
C45	C	0.909668	0.866447	0.303279
N46	N	0.914460	0.834007	0.358378
N47	N	0.914441	0.771550	0.358367
C48	C	0.909630	0.739657	0.303260
C49	C	0.949935	0.970545	0.343592
C50	C	0.949946	1.036288	0.343607
C51	C	0.869468	1.036395	0.263014
C52	C	0.869453	0.970652	0.263004
C53	C	0.909690	0.937731	0.303292
C54	C	1.073848	0.303394	0.303286
C55	C	1.143816	0.303405	0.303294
C56	C	0.909710	0.303357	0.467458
C57	C	0.909733	0.303351	0.537426
C58	C	0.909747	1.139180	0.303312
C59	C	0.909719	1.069211	0.303316
C60	C	0.909642	0.303338	0.139716
C61	C	0.909742	0.303166	0.069748
C62	C	0.950020	0.263094	0.570310
C63	C	0.950019	0.263066	0.636053
C64	C	0.909737	0.303308	0.668909
C65	C	0.869442	0.343568	0.636017
C66	C	0.869439	0.343589	0.570275
N67	N	0.904876	0.358375	0.772124
N68	N	0.904882	0.358353	0.834575
C69	C	0.909741	0.303244	0.866984
N70	N	0.914607	0.248157	0.834581
N71	N	0.914604	0.248180	0.772124
C72	C	0.909735	0.303288	0.740194
C73	C	0.950030	0.262953	0.971153
C74	C	0.950025	0.262925	1.036897
C75	C	0.869451	0.343432	1.036860
C76	C	0.869453	0.343455	0.971117
C77	C	0.909746	0.303216	0.938268
H78	H	0.269259	0.230453	0.376451
O79	O	0.989087	0.223905	0.538439
C80	C	0.975376	0.161165	0.554528
H81	H	0.925088	0.157984	0.572576
H82	H	0.980820	0.130068	0.511307
H83	H	1.009132	0.144710	0.592711
O84	O	0.830332	1.068275	0.223854
C85	C	0.794817	1.025212	0.188272
H86	H	0.792613	0.978338	0.214047
H87	H	0.745228	1.044250	0.181514
H88	H	0.817891	1.018227	0.140483
H89	H	0.836606	0.662366	0.230154
O90	O	0.830294	0.938747	0.223946
C91	C	0.789618	0.900723	0.259740
H92	H	0.785709	0.920511	0.309318
H93	H	0.741185	0.900029	0.236927
H94	H	0.809066	0.850881	0.261920
O95	O	0.988943	0.938586	0.382823
C96	C	0.975162	0.954640	0.445550
H97	H	0.924877	0.972754	0.448679
H98	H	0.980552	0.911383	0.476647
H99	H	1.008914	0.992761	0.462047
O100	O	0.830260	0.382543	1.068670
C101	C	0.794714	0.418095	1.025544
H102	H	0.792552	0.392328	0.978681
H103	H	0.745112	0.424796	1.044517
H104	H	0.817732	0.465910	1.018560
H105	H	0.982587	0.542899	0.376339
O106	O	0.830344	0.382747	0.667860
C107	C	0.844066	0.445494	0.651807
H108	H	0.868261	0.446817	0.604083
H109	H	0.798615	0.473714	0.649538
H110	H	0.876417	0.466691	0.688817
H111	H	0.982610	0.662165	0.376366
O112	O	0.830393	0.382731	0.538258
C113	C	0.866207	0.423417	0.500259
H114	H	0.913928	0.401226	0.490434
H115	H	0.840563	0.431866	0.454016
H116	H	0.873090	0.470059	0.525596
H117	H	0.982836	0.230185	0.944406
O118	O	0.830409	0.382598	0.939102
C119	C	0.866219	0.423285	0.901099
H120	H	0.913938	0.401094	0.891269
H121	H	0.840570	0.431733	0.854859
H122	H	0.873104	0.469926	0.926437
H123	H	0.982831	0.230139	1.063670
O124	O	0.675342	0.224069	0.382676
C125	C	0.713361	0.183351	0.346904
H126	H	0.723175	0.205487	0.299160
H127	H	0.759607	0.174947	0.372557
H128	H	0.688044	0.136693	0.340070
O129	O	0.144861	0.224218	0.382888
C130	C	0.160969	0.238052	0.445599
H131	H	0.179020	0.288344	0.448684
H132	H	0.117756	0.232677	0.476715
H133	H	0.199154	0.204323	0.462107
O134	O	0.274253	0.382736	0.223844
C135	C	0.258159	0.445496	0.237481
H136	H	0.240111	0.448746	0.287766
H137	H	0.301378	0.476581	0.232000
H138	H	0.219975	0.461909	0.203706
O139	O	0.144652	0.382732	0.223879
C140	C	0.106611	0.423432	0.259647
H141	H	0.126445	0.427389	0.309218
H142	H	0.105830	0.471845	0.236794
H143	H	0.056797	0.403976	0.261853
H144	H	0.982825	0.230281	0.662833
O145	O	0.545766	0.224090	0.382831
C146	C	0.588909	0.188596	0.418417
H147	H	0.635762	0.214379	0.420544
H148	H	0.569942	0.181959	0.468028
H149	H	0.595911	0.140752	0.395455
O150	O	0.675215	0.382546	0.223767
C151	C	0.740297	0.373933	0.232422
H152	H	0.749309	0.325381	0.253123
H153	H	0.765258	0.378136	0.185261
H154	H	0.758951	0.411316	0.265877
H155	H	0.982720	1.063003	0.376422
H156	H	0.836565	0.543094	0.230137
O157	O	0.545617	0.382632	0.223696
C158	C	0.588694	0.418120	0.188106
H159	H	0.635567	0.392328	0.185970
H160	H	0.569671	0.424765	0.138498
H161	H	0.595676	0.465961	0.211070
