data_functionalizedCrystal
_audit_creation_method	'MofGen! by Chris Wilmer'
_symmetry_space_group_name_H-M	'P1'
_symmetry_Int_Tables_number	1
_symmetry_cell_setting	triclinic
loop_
_symmetry_equiv_pos_as_xyz
  x,y,z
_cell_length_a	27.732048
_cell_length_b	27.731994
_cell_length_c	15.186229
_cell_angle_alpha	89.999487
_cell_angle_beta	90.005234
_cell_angle_gamma	82.631595
loop_
_atom_site_label
_atom_site_type_symbol
_atom_site_fract_x
_atom_site_fract_y
_atom_site_fract_z
O1	O	0.057389	0.640946	0.073112
O2	O	0.066162	0.500148	0.073143
O3	O	-0.008622	0.574920	0.073110
O4	O	0.132173	0.566174	0.073145
O5	O	-0.008618	0.574911	-0.073347
O6	O	0.066166	0.500140	-0.073314
O7	O	0.057393	0.640937	-0.073345
Zn8	Zn	0.061780	0.570537	-0.096583
Zn9	Zn	0.061775	0.570548	0.096381
O10	O	0.132177	0.566165	-0.073312
C11	C	0.065984	0.482137	-0.000082
C12	C	0.065442	0.428480	-0.000071
C13	C	0.062028	0.095757	-0.079940
C14	C	0.059967	-0.105901	-0.079950
O15	O	0.059681	-0.131978	-0.147846
N16	N	0.059708	-0.131111	-0.000116
C17	C	0.059962	-0.105903	0.079726
O18	O	0.059690	-0.131972	0.147629
C19	C	0.062020	0.095754	0.079735
C20	C	0.062283	0.120961	-0.000104
C21	C	0.062291	0.120964	-0.159772
C22	C	0.062809	0.171375	-0.159769
C23	C	0.063064	0.196579	-0.079933
C24	C	0.062801	0.171372	-0.000100
C25	C	0.062271	0.120962	0.159576
C26	C	0.062784	0.171380	0.159572
C27	C	0.063047	0.196587	0.079733
C28	C	0.063575	0.246988	0.079739
N29	N	0.063833	0.272198	-0.000095
C30	C	0.063578	0.246994	-0.079931
C31	C	0.058882	-0.211777	0.079715
C32	C	0.058369	-0.262191	0.079713
C33	C	0.058372	-0.262185	-0.079963
C34	C	0.058890	-0.211770	-0.079960
C35	C	0.059141	-0.186566	-0.000119
C36	C	0.064666	0.352861	-0.079917
C37	C	0.065186	0.403276	-0.079907
C38	C	0.065180	0.403266	0.079769
C39	C	0.064663	0.352855	0.079759
C40	C	0.064404	0.327654	-0.000091
O41	O	0.063855	0.273096	0.147599
O42	O	0.063839	0.273073	-0.147824
C43	C	0.061510	0.045346	-0.079943
C44	C	0.061247	0.020139	-0.000111
C45	C	0.061503	0.045343	0.079725
C46	C	0.060734	-0.030275	-0.000113
C47	C	0.060478	-0.055480	-0.079949
C48	C	0.060737	-0.030270	-0.159782
C49	C	0.061255	0.020142	-0.159779
C50	C	0.061244	0.020133	0.159559
C51	C	0.060727	-0.030278	0.159549
C52	C	0.060472	-0.055482	0.079713
C53	C	-0.026627	0.574732	-0.000121
C54	C	-0.080282	0.574179	-0.000128
C55	C	-0.419105	0.614884	-0.000092
C56	C	-0.620764	0.612833	-0.000079
O57	O	-0.652027	0.650055	-0.000049
N58	N	-0.639879	0.568496	-0.000070
C59	C	-0.608576	0.524670	-0.000059
O60	O	-0.629462	0.486912	-0.000042
C61	C	-0.406918	0.526721	-0.000065
C62	C	-0.387805	0.571061	-0.000083
C63	C	-0.399992	0.659220	-0.000109
C64	C	-0.349580	0.659732	-0.000117
C65	C	-0.318281	0.615908	-0.000108
C66	C	-0.337394	0.571573	-0.000091
C67	C	-0.375615	0.482895	-0.000048
C68	C	-0.325198	0.483412	-0.000047
C69	C	-0.306086	0.527751	-0.000065
C70	C	-0.255683	0.528262	-0.000090
N71	N	-0.236567	0.572598	-0.000099
C72	C	-0.267867	0.616421	-0.000108
C73	C	-0.714450	0.523596	-0.000057
C74	C	-0.764864	0.523083	-0.000057
C75	C	-0.777049	0.611246	-0.000076
C76	C	-0.726633	0.611759	-0.000082
C77	C	-0.695335	0.567932	-0.000066
C78	C	-0.161998	0.617494	-0.000125
C79	C	-0.111581	0.618002	-0.000137
C80	C	-0.099401	0.529839	-0.000114
C81	C	-0.149813	0.529331	-0.000107
C82	C	-0.181111	0.573162	-0.000110
O83	O	-0.224391	0.491060	-0.000111
O84	O	-0.246971	0.654174	-0.000105
C85	C	-0.469517	0.614372	-0.000084
C86	C	-0.488629	0.570036	-0.000067
C87	C	-0.457330	0.526213	-0.000058
C88	C	-0.539043	0.569523	-0.000067
C89	C	-0.570343	0.613346	-0.000076
C90	C	-0.551228	0.657683	-0.000085
C91	C	-0.500816	0.658195	-0.000093
C92	C	-0.476445	0.481876	-0.000049
C93	C	-0.526857	0.481367	-0.000042
C94	C	-0.558157	0.525191	-0.000051
C95	C	0.150182	0.566353	-0.000079
C96	C	0.203837	0.566906	-0.000066
C97	C	0.057571	0.658949	-0.000118
C98	C	0.058114	0.712605	-0.000123
N99	N	0.061784	0.570532	-0.228275
C100	C	0.090887	0.599639	-0.453997
C101	C	0.090883	0.599645	-0.546187
C102	C	0.032661	0.541449	-0.546198
C103	C	0.032662	0.541446	-0.454010
C104	C	0.061778	0.570541	-0.407912
C105	C	0.061773	0.570548	-0.592290
C106	C	0.061769	0.570554	-0.692246
C107	C	0.061781	0.570536	-0.307950
N108	N	0.061767	0.570556	0.228074
H109	H	0.062056	0.100447	0.224590
H110	H	0.008957	0.517760	-0.583743
F111	F	-0.433296	0.705867	-0.000117
H112	H	0.114594	0.623330	-0.416467
H113	H	0.058162	-0.282711	0.144726
F114	F	0.001680	0.510473	-0.404960
H115	H	-0.576720	0.693365	-0.000096
H116	H	-0.096023	0.654110	-0.000154
F117	F	0.065468	0.430100	-0.164886
F118	F	0.121864	0.630616	-0.595230
H119	H	0.062082	0.100448	-0.224788
H120	H	-0.450966	0.446189	-0.000040
H121	H	-0.187475	0.653186	-0.000124
F122	F	-0.329246	0.706924	-0.000116
F123	F	0.064390	0.326047	-0.164903
H124	H	0.065390	0.423796	0.144769
H125	H	0.060516	-0.050798	0.224568
F126	F	0.063087	0.198196	-0.244745
H127	H	0.058166	-0.282715	-0.144969
F128	F	0.059151	-0.184959	0.164699
F129	F	0.063050	0.198201	0.244552
F130	F	0.059169	-0.184948	-0.164935
H131	H	-0.780420	0.486977	-0.000058
H132	H	0.061451	0.040650	0.224572
F133	F	0.064390	0.326026	0.164732
H134	H	0.060531	-0.050800	-0.224788
F135	F	-0.706298	0.658950	-0.000101
F136	F	0.061535	0.046962	-0.244755
H137	H	-0.802541	0.646929	-0.000083
H138	H	-0.688970	0.487905	-0.000044
H139	H	-0.391167	0.446789	-0.000028
H140	H	-0.299716	0.447722	-0.000033
F141	F	-0.066081	0.483202	-0.000105
F142	F	-0.170154	0.482140	-0.000104
F143	F	-0.480482	0.705387	-0.000106
F144	F	-0.547192	0.434172	-0.000029
