data_functionalizedCrystal
_audit_creation_method	'MofGen! by Chris Wilmer'
_symmetry_space_group_name_H-M	'P1'
_symmetry_Int_Tables_number	1
_symmetry_cell_setting	triclinic
loop_
_symmetry_equiv_pos_as_xyz
  x,y,z
_cell_length_a	21.295418
_cell_length_b	12.759400
_cell_length_c	12.759393
_cell_angle_alpha	89.969236
_cell_angle_beta	90.041937
_cell_angle_gamma	89.961878
loop_
_atom_site_label
_atom_site_type_symbol
_atom_site_fract_x
_atom_site_fract_y
_atom_site_fract_z
Zn1	Zn	0.962381	0.417772	0.594607
Zn2	Zn	0.962301	0.593487	0.418926
Zn3	Zn	0.857107	0.417872	0.418878
Zn4	Zn	0.857088	0.593458	0.594499
O5	O	0.909719	0.505647	0.506728
O6	O	1.050459	0.441051	0.571368
O7	O	0.948322	0.570246	0.271899
O8	O	0.871113	0.270837	0.442214
O9	O	1.050401	0.570149	0.442296
O10	O	0.948457	0.270764	0.571321
O11	O	0.871036	0.441222	0.271863
O12	O	0.769015	0.441193	0.442109
O13	O	0.871081	0.570099	0.741535
O14	O	0.769001	0.570195	0.571137
O15	O	0.948439	0.441023	0.741614
O16	O	0.948303	0.740505	0.442192
O17	O	0.871004	0.740483	0.571184
C18	C	0.746168	0.505702	0.506607
C19	C	0.676199	0.505751	0.506580
C20	C	0.909660	0.778615	0.506704
C21	C	0.909692	0.895391	0.506730
C22	C	0.949965	1.059862	0.574032
C23	C	0.949942	0.950138	0.574011
C24	C	0.869468	0.950374	0.439458
C25	C	0.869494	1.060096	0.439474
C26	C	1.024134	0.800029	0.611680
C27	C	1.064351	0.745051	0.678961
C28	C	1.073993	0.780574	0.781501
C29	C	1.043408	0.871074	0.816781
C30	C	1.003186	0.926047	0.749506
C31	C	0.993556	0.890526	0.646951
C32	C	0.795302	1.210207	0.401815
C33	C	0.755076	1.265182	0.334545
C34	C	0.745428	1.229661	0.232003
C35	C	0.776002	1.139157	0.196727
C36	C	0.816227	1.084182	0.263998
C37	C	0.825876	1.119710	0.366538
C38	C	0.643342	0.573012	0.573664
C39	C	0.577600	0.572986	0.573712
C40	C	0.544717	0.505711	0.506655
C41	C	0.577582	0.438437	0.439566
C42	C	0.643324	0.438457	0.439528
N43	N	0.441442	0.497514	0.414763
N44	N	0.378991	0.497501	0.414802
C45	C	0.346642	0.505644	0.506767
N46	N	0.379105	0.513821	0.598693
N47	N	0.441562	0.513840	0.598653
C48	C	0.473432	0.505681	0.506689
C49	C	0.242499	0.572880	0.573908
C50	C	0.176756	0.572846	0.573957
C51	C	0.176740	0.438303	0.439802
C52	C	0.242482	0.438331	0.439763
C53	C	0.275358	0.505625	0.506814
C54	C	1.073910	0.505592	0.506850
C55	C	1.143878	0.505569	0.506902
C56	C	0.909766	0.505546	0.780761
C57	C	0.909786	0.505503	0.897538
C58	C	0.909774	1.231614	0.506767
C59	C	0.909742	1.114837	0.506767
C60	C	0.909709	0.505672	0.233760
C61	C	0.909810	0.505419	0.116984
C62	C	0.950070	0.438283	0.952443
C63	C	0.950080	0.438238	1.062167
C64	C	0.869523	0.572642	1.062071
C65	C	0.869509	0.572681	0.952349
C66	C	0.972626	0.314272	1.212159
C67	C	1.012919	0.247060	1.267068
C68	C	1.074342	0.230924	1.231514
C69	C	1.095484	0.282015	1.141054
C70	C	1.055195	0.349234	1.086151
C71	C	0.993763	0.365350	1.121703
C72	C	0.846970	0.696649	0.802355
C73	C	0.806683	0.763874	0.747450
C74	C	0.745259	0.780021	0.783001
C75	C	0.724119	0.728949	0.873466
C76	C	0.764406	0.661724	0.928371
C77	C	0.825829	0.645575	0.892811
H78	H	0.978280	0.999726	0.778233
O79	O	1.155187	0.266527	1.106595
C80	C	1.187437	0.362986	1.105097
H81	H	1.164073	0.419740	1.161992
H82	H	1.185959	0.397210	1.022579
C83	C	1.284920	0.275748	1.068196
C84	C	1.256227	0.345452	1.138082
H85	H	1.327354	0.264933	1.088537
H86	H	1.263193	0.210762	1.069201
H87	H	1.283683	0.304278	0.999436
H88	H	1.257458	0.316916	1.206837
H89	H	1.277956	0.410433	1.137089
H90	H	0.674103	0.742100	0.902416
O91	O	0.274472	0.373148	0.374534
C92	C	0.312412	0.432898	0.306534
H93	H	0.322244	0.512564	0.343447
H94	H	0.287018	0.444343	0.228672
C95	C	0.362801	0.277244	0.242233
C96	C	0.374881	0.375087	0.287575
H97	H	0.401333	0.241582	0.230534
H98	H	0.337238	0.236988	0.288043
H99	H	0.341638	0.286795	0.177353
H100	H	0.396036	0.365534	0.352459
H101	H	0.400448	0.415340	0.241776
O102	O	0.988971	1.113089	0.639502
C103	C	0.953126	1.176593	0.707276
H104	H	0.903538	1.143607	0.713659
H105	H	0.950986	1.259774	0.674799
C106	C	1.044752	1.218665	0.808720
C107	C	0.983849	1.178147	0.816566
H108	H	1.063704	1.219629	0.876134
H109	H	1.068902	1.175885	0.763057
H110	H	1.042960	1.287980	0.781651
H111	H	0.985642	1.108830	0.843622
H112	H	0.959699	1.220916	0.862236
H113	H	0.836698	0.905793	0.384671
O114	O	0.545770	0.638420	0.638919
C115	C	0.588885	0.697793	0.698116
H116	H	0.635718	0.701402	0.655052
H117	H	0.595949	0.659414	0.777970
C118	C	0.505653	0.805183	0.765978
C119	C	0.563173	0.809623	0.713080
H120	H	0.489792	0.874164	0.775213
H121	H	0.476605	0.765180	0.726099
H122	H	0.511547	0.773196	0.832517
H123	H	0.557276	0.841598	0.646538
H124	H	0.592219	0.849634	0.752949
O125	O	0.804584	1.244832	0.501411
C126	C	0.768980	1.336509	0.518116
H127	H	0.728162	1.338872	0.460307
H128	H	0.800030	1.408236	0.505943
C129	C	0.793418	1.333666	0.701901
C130	C	0.743281	1.336564	0.630904
H131	H	0.777567	1.333704	0.771475
H132	H	0.817407	1.271904	0.690647
H133	H	0.819288	1.393439	0.691744
H134	H	0.717416	1.276785	0.641053
H135	H	0.719286	1.398316	0.642162
H136	H	0.982864	0.383579	0.907818
O137	O	0.274342	0.638268	0.639148
C138	C	0.231240	0.697640	0.698362
H139	H	0.184402	0.654595	0.702099
H140	H	0.224181	0.777388	0.659761
C141	C	0.314490	0.765785	0.805548
C142	C	0.256965	0.712912	0.810146
H143	H	0.330359	0.775210	0.874500
H144	H	0.343530	0.725788	0.765652
H145	H	0.308600	0.832236	0.773376
H146	H	0.262857	0.646458	0.842305
H147	H	0.227927	0.752898	0.850050
H148	H	0.823903	0.805469	0.673796
O149	O	0.545714	0.373139	0.374277
C150	C	0.561691	0.395998	0.269517
H151	H	0.609402	0.436397	0.267248
H152	H	0.524642	0.449961	0.234055
C153	C	0.506143	0.243882	0.208839
C154	C	0.564745	0.293493	0.206051
H155	H	0.508024	0.180654	0.169688
H156	H	0.495376	0.228483	0.279418
H157	H	0.475275	0.288861	0.179289
H158	H	0.595610	0.248520	0.235612
H159	H	0.575517	0.308883	0.135476
H160	H	0.995699	0.205462	1.340721
H161	H	0.712460	0.834771	0.738293
H162	H	1.107149	0.176198	1.276229
H163	H	0.670076	0.383683	0.384900
H164	H	0.841118	1.010483	0.235270
H165	H	1.051255	0.899982	0.900284
H166	H	0.150004	0.627616	0.628592
H167	H	0.768140	1.110228	0.113233
H168	H	0.149967	0.383521	0.385209
O169	O	0.830462	0.637867	1.115480
C170	C	0.839100	0.623403	1.224098
H171	H	0.887693	0.588976	1.239133
H172	H	0.801783	0.567453	1.255213
C173	C	0.773625	0.771971	1.261939
C174	C	0.833309	0.729695	1.280406
H175	H	0.770050	0.837535	1.296674
H176	H	0.767803	0.781714	1.188761
H177	H	0.742534	0.725336	1.287868
H178	H	0.864399	0.776323	1.254465
H179	H	0.839136	0.719962	1.353581
H180	H	0.712664	1.274423	0.177238
H181	H	0.922609	0.327396	1.241111
H182	H	1.072410	0.390834	1.012502
H183	H	0.670106	0.627807	0.628265
H184	H	0.747188	0.620139	1.002032
H185	H	1.106738	0.735801	0.836282
H186	H	0.896986	0.683499	0.773394
H187	H	1.089253	0.671364	0.650227
H188	H	0.730172	1.338864	0.363282
O189	O	1.014822	0.765668	0.512005
C190	C	1.033775	0.843899	0.440666
H191	H	1.069055	0.898171	0.480250
H192	H	0.991071	0.891152	0.414609
C193	C	1.021179	0.725555	0.295849
C194	C	1.064514	0.792207	0.344464
H195	H	1.040138	0.693670	0.236504
H196	H	1.008407	0.672849	0.343910
H197	H	0.985595	0.764942	0.274144
H198	H	1.100093	0.752817	0.366180
H199	H	1.077293	0.844905	0.296404
