data_functionalizedCrystal
_audit_creation_method	'MofGen! by Chris Wilmer'
_symmetry_space_group_name_H-M	'P1'
_symmetry_Int_Tables_number	1
_symmetry_cell_setting	triclinic
loop_
_symmetry_equiv_pos_as_xyz
  x,y,z
_cell_length_a	15.995350
_cell_length_b	9.065218
_cell_length_c	7.540329
_cell_angle_alpha	90.001757
_cell_angle_beta	90.000688
_cell_angle_gamma	95.745870
loop_
_atom_site_label
_atom_site_type_symbol
_atom_site_fract_x
_atom_site_fract_y
_atom_site_fract_z
O1	O	1.112426	-0.190160	-0.147325
O2	O	0.868829	-0.213643	-0.147360
O3	O	0.995662	0.012860	-0.147338
O4	O	0.985592	-0.416662	-0.147347
O5	O	0.995655	0.012862	0.147627
O6	O	0.868821	-0.213640	0.147605
O7	O	1.112418	-0.190157	0.147640
Cu8	Cu	0.990619	-0.201898	0.174555
Cu9	Cu	0.990628	-0.201902	-0.174275
O10	O	0.985585	-0.416660	0.147618
C11	C	0.837623	-0.212670	0.000117
C12	C	0.744650	-0.209760	0.000104
C13	C	0.406824	-0.199308	0.000141
C14	C	0.453034	-0.037997	0.000802
C15	C	0.549747	-0.040908	0.000125
C16	C	0.574423	-0.204492	0.000123
C17	C	0.533944	-0.284058	-0.168311
C18	C	0.437278	-0.280005	-0.168439
C19	C	0.436955	-0.283335	0.166991
C20	C	0.533900	-0.283297	0.169205
C21	C	0.669143	-0.207431	0.000108
C22	C	0.312103	-0.196374	0.000145
C23	C	0.994691	0.067825	0.000141
C24	C	0.991797	0.231600	0.000132
C25	C	1.143624	-0.191129	0.000158
C26	C	1.236597	-0.194040	0.000161
C27	C	0.986556	-0.471625	0.000135
C28	C	0.989450	-0.635400	0.000132
N29	N	0.990619	-0.201895	0.419904
N30	N	0.990635	-0.201893	-0.419624
H31	H	0.548981	-0.404239	-0.174575
O32	O	0.395747	-0.436877	-0.178567
H33	H	0.326460	-0.435161	-0.178719
H34	H	0.577698	0.021635	0.120866
H35	H	0.432957	0.026185	-0.119320
O36	O	0.427850	0.047428	0.160799
H37	H	0.382122	-0.024163	0.241556
O38	O	0.570961	-0.210858	-0.334367
H39	H	0.618178	-0.117824	-0.297360
O40	O	0.409226	-0.213474	0.336106
H41	H	0.431237	-0.274709	0.451776
O42	O	0.569491	-0.206376	0.334276
H43	H	0.615851	-0.112411	0.296077
H44	H	0.577130	0.022055	-0.120824
O45	O	0.412438	-0.203123	-0.335192
H46	H	0.469447	-0.169179	-0.414978
H47	H	0.550170	-0.402588	0.179378
H48	H	0.406096	-0.402268	0.168129
