data_functionalizedCrystal
_audit_creation_method	'MofGen! by Chris Wilmer'
_symmetry_space_group_name_H-M	'P1'
_symmetry_Int_Tables_number	1
_symmetry_cell_setting	triclinic
loop_
_symmetry_equiv_pos_as_xyz
  x,y,z
_cell_length_a	18.215407
_cell_length_b	16.625545
_cell_length_c	18.215399
_cell_angle_alpha	90.026887
_cell_angle_beta	90.019833
_cell_angle_gamma	90.026006
loop_
_atom_site_label
_atom_site_type_symbol
_atom_site_fract_x
_atom_site_fract_y
_atom_site_fract_z
Zn1	Zn	1.125069	-0.321000	0.416121
Zn2	Zn	1.458402	0.012333	0.749455
Zn3	Zn	1.791735	0.345666	1.082788
Zn4	Zn	1.124975	-0.455841	0.293057
Zn5	Zn	1.458309	-0.122507	0.626391
Zn6	Zn	1.791642	0.210826	0.959724
Zn7	Zn	1.002001	-0.321027	0.293069
Zn8	Zn	1.335334	0.012307	0.626402
Zn9	Zn	1.668668	0.345640	0.959735
Zn10	Zn	1.001966	-0.455796	0.416082
Zn11	Zn	1.335299	-0.122462	0.749416
Zn12	Zn	1.668632	0.210871	1.082749
O13	O	1.063503	-0.388416	0.354582
O14	O	1.396836	-0.055082	0.687916
O15	O	1.730169	0.278251	1.021249
O16	O	1.228040	-0.338895	0.399808
O17	O	1.561374	-0.005562	0.733142
O18	O	1.894707	0.327772	1.066475
O19	O	1.108639	-0.437987	0.190074
O20	O	1.441972	-0.104654	0.523408
O21	O	1.775305	0.228680	0.856741
O22	O	1.018380	-0.208191	0.309413
O23	O	1.351713	0.125143	0.642746
O24	O	1.685047	0.458476	0.976080
O25	O	1.227972	-0.437961	0.309394
O26	O	1.561305	-0.104628	0.642727
O27	O	1.894639	0.228705	0.976060
O28	O	1.108797	-0.208171	0.399819
O29	O	1.442131	0.125162	0.733153
O30	O	1.775464	0.458495	1.066486
O31	O	1.018290	-0.338940	0.190083
O32	O	1.351623	-0.005606	0.523416
O33	O	1.684957	0.327727	0.856750
O34	O	0.899012	-0.338896	0.309375
O35	O	1.232345	-0.005563	0.642708
O36	O	1.565679	0.327770	0.976042
O37	O	1.018319	-0.437885	0.519072
O38	O	1.351653	-0.104552	0.852405
O39	O	1.684986	0.228782	1.185738
O40	O	0.898986	-0.437910	0.399753
O41	O	1.232319	-0.104577	0.733086
O42	O	1.565653	0.228756	1.066419
O43	O	1.108763	-0.338851	0.519100
O44	O	1.442096	-0.005518	0.852434
O45	O	1.775429	0.327815	1.185767
O46	O	1.108604	-0.568667	0.309356
O47	O	1.441937	-0.235334	0.642689
O48	O	1.775271	0.098000	0.976022
O49	O	1.018229	-0.568634	0.399742
O50	O	1.351563	-0.235301	0.733075
O51	O	1.684896	0.098033	1.066408
C52	C	0.872296	-0.388402	0.354561
C53	C	1.205630	-0.055069	0.687895
C54	C	1.538963	0.278265	1.021228
C55	C	0.790497	-0.388415	0.354570
C56	C	1.123831	-0.055082	0.687903
C57	C	1.457164	0.278251	1.021236
C58	C	0.602309	-0.440053	0.401570
C59	C	0.935643	-0.106720	0.734904
C60	C	1.268976	0.226613	1.068237
C61	C	0.525450	-0.440056	0.401579
C62	C	0.858784	-0.106722	0.734913
C63	C	1.192117	0.226611	1.068246
C64	C	0.525448	-0.336793	0.307611
C65	C	0.858781	-0.003460	0.640944
C66	C	1.192115	0.329874	0.974277
C67	C	0.602305	-0.336787	0.307606
C68	C	0.935639	-0.003454	0.640939
C69	C	1.268972	0.329880	0.974272
C70	C	0.640734	-0.388422	0.354584
C71	C	0.974067	-0.055088	0.687918
C72	C	1.307401	0.278245	1.021251
C73	C	0.487018	-0.388430	0.354598
C74	C	0.820351	-0.055097	0.687932
C75	C	1.153685	0.278236	1.021265
C76	C	0.403684	-0.388433	0.354608
C77	C	0.737018	-0.055099	0.687941
C78	C	1.070351	0.278234	1.021275
C79	C	0.724073	-0.388418	0.354576
C80	C	1.057406	-0.055085	0.687909
C81	C	1.390740	0.278248	1.021243
C82	C	1.063423	-0.597907	0.354559
C83	C	1.396756	-0.264573	0.687893
C84	C	1.730089	0.068760	1.021226
C85	C	1.063456	-0.687528	0.354574
C86	C	1.396789	-0.354194	0.687907
C87	C	1.730122	-0.020861	1.021241
C88	C	1.063484	-0.760310	0.354589
C89	C	1.396818	-0.426977	0.687922
C90	C	1.730151	-0.093643	1.021255
C91	C	1.063527	-0.851619	0.354605
C92	C	1.396861	-0.518285	0.687938
C93	C	1.730194	-0.184952	1.021271
C94	C	1.063565	-0.924395	0.354614
C95	C	1.396899	-0.591062	0.687947
C96	C	1.730232	-0.257728	1.021281
C97	C	1.063608	-1.015709	0.354629
C98	C	1.396941	-0.682376	0.687963
C99	C	1.730274	-0.349043	1.021296
C100	C	1.255456	-0.388430	0.354604
C101	C	1.588789	-0.055097	0.687937
C102	C	1.922122	0.278236	1.021271
C103	C	1.337254	-0.388436	0.354613
C104	C	1.670588	-0.055103	0.687947
C105	C	2.003921	0.278230	1.021280
C106	C	1.063547	-0.388360	0.546535
C107	C	1.396881	-0.055027	0.879869
C108	C	1.730214	0.278306	1.213202
C109	C	1.063567	-0.388336	0.628334
C110	C	1.396900	-0.055003	0.961668
C111	C	1.730233	0.278330	1.295001
C112	C	1.063603	-0.178107	0.354622
C113	C	1.396936	0.155226	0.687955
C114	C	1.730270	0.488560	1.021288
C115	C	1.063646	-0.088486	0.354639
C116	C	1.396979	0.244848	0.687972
C117	C	1.730312	0.578181	1.021305
C118	C	1.063500	-0.388413	0.163376
C119	C	1.396834	-0.055080	0.496709
C120	C	1.730167	0.278254	0.830043
C121	C	1.063624	-0.388210	0.081578
C122	C	1.396957	-0.054876	0.414911
C123	C	1.730291	0.278457	0.748244
C124	C	1.110677	-0.336721	0.816544
C125	C	1.444011	-0.003388	1.149878
C126	C	1.777344	0.329945	1.483211
C127	C	1.110686	-0.336698	0.893403
C128	C	1.444019	-0.003365	1.226737
C129	C	1.777353	0.329969	1.560070
C130	C	1.016508	-0.439827	0.893362
C131	C	1.349841	-0.106493	1.226695
C132	C	1.683175	0.226840	1.560029
C133	C	1.016496	-0.439846	0.816505
C134	C	1.349829	-0.106512	1.149838
C135	C	1.683163	0.226821	1.483171
C136	C	1.063585	-0.388294	0.778098
C137	C	1.396918	-0.054961	1.111431
C138	C	1.730252	0.278373	1.444765
C139	C	1.063606	-0.388252	0.931814
C140	C	1.396939	-0.054918	1.265147
C141	C	1.730272	0.278415	1.598481
C142	C	1.063615	-0.388227	1.015148
C143	C	1.396948	-0.054893	1.348481
C144	C	1.730281	0.278440	1.681814
C145	C	1.063575	-0.388318	0.694759
C146	C	1.396908	-0.054985	1.028092
C147	C	1.730242	0.278349	1.361426
H148	H	0.633592	-0.294737	0.269344
H149	H	0.966925	0.038596	0.602677
H150	H	1.300258	0.371929	0.936011
H151	H	0.494150	-0.294755	0.269361
H152	H	0.827484	0.038578	0.602694
H153	H	1.160817	0.371912	0.936028
C154	C	1.162463	-0.280008	0.774299
C155	C	1.495797	0.053326	1.107633
C156	C	1.829130	0.386659	1.440966
H157	H	1.190505	-0.249283	0.808207
H158	H	1.523838	0.084050	1.141541
H159	H	1.857171	0.417383	1.474874
H160	H	1.194513	-0.310853	0.744314
H161	H	1.527846	0.022480	1.077647
H162	H	1.861180	0.355814	1.410980
H163	H	1.134313	-0.244881	0.744323
H164	H	1.467647	0.088452	1.077656
H165	H	1.800980	0.421786	1.410990
C166	C	0.644582	-0.496846	0.453244
C167	C	0.977915	-0.163513	0.786577
C168	C	1.311248	0.169821	1.119910
H169	H	0.695859	-0.489456	0.446507
H170	H	1.029192	-0.156123	0.779840
H171	H	1.362526	0.177211	1.113174
H172	H	0.632013	-0.485118	0.502711
H173	H	0.965346	-0.151785	0.836044
H174	H	1.298679	0.181548	1.169377
H175	H	0.631959	-0.551009	0.442381
H176	H	0.965293	-0.217676	0.775715
H177	H	1.298626	0.115658	1.109048
H178	H	0.494168	-0.482098	0.439841
H179	H	0.827502	-0.148765	0.773174
H180	H	1.160835	0.184568	1.106508
H181	H	1.149032	-0.294701	0.924703
H182	H	1.482366	0.038632	1.258036
H183	H	1.815699	0.371966	1.591370
H184	H	0.978142	-0.481842	0.785201
H185	H	1.311476	-0.148508	1.118534
H186	H	1.644809	0.184825	1.451867
C187	C	0.964721	-0.496536	0.935612
C188	C	1.298054	-0.163202	1.268945
C189	C	1.631388	0.170131	1.602278
H190	H	0.971478	-0.489145	0.986892
H191	H	1.304811	-0.155812	1.320225
H192	H	1.638144	0.177521	1.653559
H193	H	0.915277	-0.484740	0.923011
H194	H	1.248610	-0.151407	1.256344
H195	H	1.581943	0.181927	1.589678
H196	H	0.975472	-0.550716	0.923004
H197	H	1.308806	-0.217383	1.256337
H198	H	1.642139	0.115950	1.589671
