data_functionalizedCrystal
_audit_creation_method	'MofGen! by Chris Wilmer'
_symmetry_space_group_name_H-M	'P1'
_symmetry_Int_Tables_number	1
_symmetry_cell_setting	triclinic
loop_
_symmetry_equiv_pos_as_xyz
  x,y,z
_cell_length_a	10.540539
_cell_length_b	14.519709
_cell_length_c	12.996460
_cell_angle_alpha	89.999966
_cell_angle_beta	89.996006
_cell_angle_gamma	95.897182
loop_
_atom_site_label
_atom_site_type_symbol
_atom_site_fract_x
_atom_site_fract_y
_atom_site_fract_z
O1	O	0.166400	-1.224765	-0.085428
O2	O	0.666400	-0.724765	0.414572
O3	O	0.185995	-0.956394	-0.085459
O4	O	0.685995	-0.456394	0.414541
O5	O	-0.008571	-1.096702	-0.085441
O6	O	0.491429	-0.596702	0.414559
O7	O	0.360967	-1.084457	-0.085445
O8	O	0.860967	-0.584457	0.414555
O9	O	-0.008582	-1.096688	0.085693
O10	O	0.491418	-0.596688	0.585693
O11	O	0.185985	-0.956379	0.085675
O12	O	0.685985	-0.456379	0.585675
O13	O	0.166389	-1.224751	0.085706
O14	O	0.666389	-0.724751	0.585706
Cu15	Cu	0.176186	-1.090563	0.101316
Cu16	Cu	0.676186	-0.590563	0.601316
Cu17	Cu	0.176199	-1.090581	-0.101069
Cu18	Cu	0.676199	-0.590581	0.398931
O19	O	0.360956	-1.084442	0.085689
O20	O	0.860956	-0.584442	0.585689
C21	C	0.185077	-0.922022	0.000104
C22	C	0.685077	-0.422022	0.500104
C23	C	0.182340	-0.819626	0.000092
C24	C	0.682340	-0.319626	0.500092
C25	C	-0.055870	-1.095777	0.000124
C26	C	0.444130	-0.595777	0.500124
C27	C	-0.196790	-1.093029	0.000118
C28	C	0.303210	-0.593029	0.500118
N29	N	0.176176	-1.090558	0.243664
N30	N	0.676176	-0.590558	0.743664
C31	C	-0.379142	-0.987750	-0.000278
C32	C	0.120858	-0.487750	0.499722
C33	C	-0.232553	-0.990535	0.000107
C34	C	0.267447	-0.490535	0.500107
C35	C	-0.258958	-1.142346	0.097849
C36	C	0.241042	-0.642346	0.597849
C37	C	-0.405467	-1.138848	0.097931
C38	C	0.094533	-0.638848	0.597931
C39	C	-0.405994	-1.140949	-0.096680
C40	C	0.094006	-0.640949	0.403320
C41	C	-0.259021	-1.141893	-0.097972
C42	C	0.240979	-0.641893	0.402028
C43	C	0.408255	-1.085368	0.000121
C44	C	0.908255	-0.585368	0.500121
C45	C	0.549175	-1.088115	0.000120
C46	C	1.049175	-0.588115	0.500120
C47	C	0.167308	-1.259123	0.000141
C48	C	0.667308	-0.759123	0.500141
C49	C	0.170044	-1.361519	0.000146
C50	C	0.670044	-0.861519	0.500146
C51	C	0.172265	-0.444676	0.000139
C52	C	0.672265	0.055324	0.500139
C53	C	0.175063	-0.548999	0.000126
C54	C	0.675063	-0.048999	0.500126
C55	C	0.177303	-0.632148	0.000115
C56	C	0.677303	-0.132148	0.500115
C57	C	0.180101	-0.736477	0.000103
C58	C	0.680101	-0.236477	0.500103
N59	N	0.176198	-1.090594	-0.243416
N60	N	0.676198	-0.590594	0.256584
C61	C	0.176200	-1.090580	0.663478
C62	C	0.676200	-0.590580	1.163478
C63	C	0.176198	-1.090571	0.546673
C64	C	0.676198	-0.590571	1.046673
C65	C	0.176189	-1.090569	0.453574
C66	C	0.676189	-0.590569	0.953574
C67	C	0.176185	-1.090560	0.336762
C68	C	0.676185	-0.590560	0.836762
H69	H	-0.189549	-0.951730	-0.069951
H70	H	0.310451	-0.451730	0.430049
H71	H	-0.217790	-1.105809	-0.170271
H72	H	0.282210	-0.605809	0.329729
H73	H	-0.235562	-1.216620	-0.103864
H74	H	0.264438	-0.716620	0.396136
F75	F	-0.415975	-0.934834	-0.091886
F76	F	0.084025	-0.434834	0.408114
F77	F	-0.418520	-0.934898	0.090553
F78	F	0.081480	-0.434898	0.590553
H79	H	-0.453975	-1.214980	-0.097328
H80	H	0.046025	-0.714980	0.402672
F81	F	-0.446773	-1.097593	-0.193500
F82	F	0.053227	-0.597593	0.306500
F83	F	-0.202830	-1.097553	0.192902
F84	F	0.297170	-0.597553	0.692902
F85	F	-0.177452	-0.939439	0.091817
F86	F	0.322548	-0.439439	0.591817
H87	H	-0.433299	-1.102388	0.170979
H88	H	0.066701	-0.602388	0.670979
F89	F	-0.230747	-1.240728	0.102614
F90	F	0.269253	-0.740728	0.602614
F91	F	-0.469152	-1.235192	0.103748
F92	F	0.030848	-0.735192	0.603748
