data_functionalizedCrystal
_audit_creation_method	'MofGen! by Chris Wilmer'
_symmetry_space_group_name_H-M	'P1'
_symmetry_Int_Tables_number	1
_symmetry_cell_setting	triclinic
loop_
_symmetry_equiv_pos_as_xyz
  x,y,z
_cell_length_a	10.654547
_cell_length_b	10.654545
_cell_length_c	16.776229
_cell_angle_alpha	89.995723
_cell_angle_beta	89.992160
_cell_angle_gamma	84.485741
loop_
_atom_site_label
_atom_site_type_symbol
_atom_site_fract_x
_atom_site_fract_y
_atom_site_fract_z
O1	O	1.667845	0.176418	-0.066297
O2	O	1.302367	0.193221	-0.066296
O3	O	1.493509	0.002081	-0.066296
O4	O	1.476704	0.367559	-0.066297
O5	O	1.493483	0.002068	0.066281
O6	O	1.302342	0.193209	0.066281
O7	O	1.667820	0.176406	0.066279
Zn8	Zn	1.485077	0.184806	0.087329
Zn9	Zn	1.485110	0.184822	-0.087346
O10	O	1.476678	0.367547	0.066279
C11	C	1.255556	0.191980	-0.000007
C12	C	1.116113	0.188287	-0.000007
C13	C	0.854121	0.181338	-0.144556
C14	C	0.919654	0.183082	-0.216824
C15	C	1.050671	0.186562	-0.216821
C16	C	1.116160	0.188294	-0.144544
C17	C	1.050628	0.186551	-0.072276
C18	C	0.919607	0.183075	-0.072286
C19	C	1.050581	0.186544	0.072261
C20	C	0.919563	0.183073	0.072261
C21	C	1.116070	0.188276	0.144539
C22	C	1.050537	0.186542	0.216808
C23	C	0.919511	0.183063	0.216803
C24	C	0.854030	0.181329	0.144528
C25	C	1.492262	-0.044723	-0.000009
C26	C	1.488569	-0.184167	-0.000014
C27	C	1.488612	-0.184162	-0.144553
C28	C	1.486904	-0.249670	-0.216822
C29	C	1.483434	-0.380688	-0.216823
C30	C	1.481670	-0.446202	-0.144547
C31	C	1.483379	-0.380695	-0.072278
C32	C	1.486851	-0.249673	-0.072285
C33	C	1.483326	-0.380698	0.072259
C34	C	1.486805	-0.249681	0.072262
C35	C	1.481562	-0.446212	0.144535
C36	C	1.483279	-0.380706	0.216806
C37	C	1.486750	-0.249679	0.216804
C38	C	1.488513	-0.184173	0.144531
C39	C	1.714630	0.177647	-0.000011
C40	C	1.854074	0.181340	-0.000017
C41	C	1.477925	0.414351	-0.000009
C42	C	1.481618	0.553794	-0.000010
N43	N	1.485063	0.184794	0.206541
N44	N	1.485134	0.184823	-0.206557
C45	C	1.569726	0.100192	0.248257
C46	C	1.569733	0.100191	0.331710
C47	C	1.485082	0.184799	0.373443
C48	C	1.400409	0.269405	0.331721
C49	C	1.400397	0.269399	0.248270
C50	C	1.400454	0.269430	0.668268
C51	C	1.400476	0.269432	0.751724
C52	C	1.569791	0.100223	0.751708
C53	C	1.569779	0.100217	0.668257
C54	C	1.485102	0.184817	0.626541
C55	C	1.485094	0.184816	0.536053
C56	C	1.485095	0.184808	0.463930
H57	H	1.222752	0.191101	0.144535
Cl58	Cl	1.132871	0.188713	0.307660
Cl59	Cl	1.676158	-0.006173	0.195801
H60	H	0.866319	0.181666	-0.275670
Cl61	Cl	1.133059	0.188745	-0.307673
H62	H	0.866162	0.181649	0.275652
H63	H	1.491345	-0.077491	0.144523
H64	H	0.747348	0.178504	0.144517
H65	H	1.222843	0.191112	-0.144549
H66	H	1.638736	0.031332	0.785681
H67	H	1.491451	-0.077481	-0.144559
Cl68	Cl	1.489156	-0.167308	-0.307678
H69	H	1.478730	-0.552894	0.144530
Cl70	Cl	1.481276	-0.463043	-0.307676
Cl71	Cl	1.477282	-0.610910	-0.144550
H72	H	1.638714	0.031325	0.634280
Cl73	Cl	1.676168	-0.006168	0.384155
H74	H	1.481834	-0.434056	0.275648
Cl75	Cl	1.488889	-0.167337	0.307663
Cl76	Cl	1.294046	0.375803	0.804189
Cl77	Cl	1.294012	0.375787	0.615831
Cl78	Cl	1.293953	0.375756	0.195827
Cl79	Cl	0.689410	0.176987	-0.144564
Cl80	Cl	1.293981	0.375765	0.384184
