data_functionalizedCrystal
_audit_creation_method	'MofGen! by Chris Wilmer'
_symmetry_space_group_name_H-M	'P1'
_symmetry_Int_Tables_number	1
_symmetry_cell_setting	triclinic
loop_
_symmetry_equiv_pos_as_xyz
  x,y,z
_cell_length_a	19.288840
_cell_length_b	16.974885
_cell_length_c	18.366186
_cell_angle_alpha	93.647587
_cell_angle_beta	89.983729
_cell_angle_gamma	83.261670
loop_
_atom_site_label
_atom_site_type_symbol
_atom_site_fract_x
_atom_site_fract_y
_atom_site_fract_z
O1	O	0.921540	0.098542	-0.054867
O2	O	0.719301	0.111869	-0.054057
O3	O	0.826059	-0.009917	-0.061239
O4	O	0.814782	0.220328	-0.047685
O5	O	0.826041	-0.009923	0.059860
O6	O	0.719283	0.111863	0.067042
O7	O	0.921522	0.098536	0.066232
Zn8	Zn	0.820399	0.105199	0.085864
Zn9	Zn	0.820423	0.105206	-0.073689
O10	O	0.814763	0.220322	0.073414
C11	C	0.693414	0.111440	0.006471
C12	C	0.616307	0.110163	0.006405
C13	C	0.580113	0.109553	-0.059644
C14	C	0.507663	0.108344	-0.059724
C15	C	0.471414	0.107729	0.006248
C16	C	0.507617	0.108344	0.072306
C17	C	0.580063	0.109561	0.072385
C18	C	0.361992	0.059486	0.053969
C19	C	0.289547	0.058264	0.053888
C20	C	0.247963	0.103979	0.006008
C21	C	0.278834	0.150906	-0.041802
C22	C	0.351281	0.152123	-0.041724
C23	C	0.392857	0.106410	0.006170
C24	C	0.133211	0.102059	-0.060132
C25	C	0.060760	0.100855	-0.060209
C26	C	0.060716	0.100848	0.071822
C27	C	0.133164	0.102060	0.071898
C28	C	0.169408	0.102662	0.005918
C29	C	0.825621	-0.039376	-0.002424
C30	C	0.824335	-0.127147	-0.007595
C31	C	0.823720	-0.168392	0.055984
C32	C	0.822516	-0.250863	0.051119
C33	C	0.821923	-0.292086	-0.017325
C34	C	0.822541	-0.250835	-0.080909
C35	C	0.823749	-0.168367	-0.076043
C36	C	0.818314	-0.538729	-0.038955
C37	C	0.817103	-0.621203	-0.043815
C38	C	0.817079	-0.621225	0.088213
C39	C	0.818284	-0.538754	0.093072
C40	C	0.818905	-0.497511	0.029489
N41	N	0.820690	-0.376384	-0.022299
N42	N	0.820143	-0.413216	0.034464
C43	C	0.947408	0.098965	0.005703
C44	C	1.024515	0.100242	0.005763
C45	C	0.815201	0.249781	0.014598
C46	C	0.816487	0.337552	0.019764
N47	N	0.820388	0.105193	0.194755
N48	N	0.820440	0.105206	-0.182580
C49	C	0.867676	0.051292	0.229677
C50	C	0.867681	0.051289	0.305904
C51	C	0.820403	0.105199	0.347208
C52	C	0.773107	0.159104	0.312277
C53	C	0.773099	0.159100	0.236051
C54	C	0.811234	0.177244	0.472210
C55	C	0.811246	0.177248	0.548435
C56	C	0.820423	0.105209	0.582316
C57	C	0.829602	0.033163	0.539962
C58	C	0.829594	0.033159	0.463736
C59	C	0.820406	0.105208	0.429863
C60	C	0.867719	0.051301	0.699892
C61	C	0.867718	0.051296	0.776121
C62	C	0.773148	0.159118	0.782493
C63	C	0.773145	0.159115	0.706265
C64	C	0.820434	0.105208	0.664969
H65	H	0.609533	0.110059	0.126171
O66	O	0.821848	-0.295351	0.119692
H67	H	0.822453	-0.252830	0.168103
O68	O	0.816415	-0.665706	0.156791
H69	H	0.863960	-0.657094	0.188947
H70	H	0.906180	0.007396	0.196056
H71	H	0.818782	-0.505198	0.148807
H72	H	0.734641	0.203009	0.677830
H73	H	0.816613	-0.654764	-0.099553
H74	H	0.818818	-0.505159	-0.090729
O75	O	0.839517	-0.044549	0.576485
H76	H	0.797101	-0.080595	0.559747
O77	O	0.821897	-0.295291	-0.154733
H78	H	0.820944	-0.359565	-0.147437
O79	O	0.918734	-0.006837	0.813786
H80	H	0.909960	-0.068454	0.795533
O81	O	0.824406	-0.123874	-0.144616
H82	H	0.823782	-0.166390	-0.193028
O83	O	0.918693	-0.006840	0.343585
H84	H	0.951578	-0.044320	0.302063
O85	O	0.722086	0.217235	0.198383
H86	H	0.730020	0.208171	0.138440
O87	O	0.256256	0.007656	0.105457
H88	H	0.277537	-0.055595	0.094271
H89	H	0.837066	-0.025503	0.429254
H90	H	0.906222	0.007403	0.666268
H91	H	0.803777	0.235913	0.582914
H92	H	0.734651	0.203009	0.816122
O93	O	0.384634	0.202642	-0.093327
H94	H	0.412630	0.246678	-0.061470
H95	H	0.609618	0.110043	-0.113369
H96	H	0.803749	0.235911	0.444631
O97	O	0.722117	0.217256	0.356820
H98	H	0.730072	0.208210	0.415693
H99	H	0.478188	0.107848	-0.113511
H100	H	0.031201	0.100352	0.125538
H101	H	0.244977	0.188135	-0.080788
H102	H	0.162721	0.102558	-0.113856
H103	H	0.031291	0.100363	-0.113996
H104	H	0.395845	0.022257	0.092962
O105	O	0.172209	0.102730	0.143137
H106	H	0.134833	0.102101	0.189000
H107	H	0.824191	-0.134832	0.111718
O108	O	0.468482	0.108064	0.143486
H109	H	0.412008	0.107247	0.132343
