data_functionalizedCrystal
_audit_creation_method	'MofGen! by Chris Wilmer'
_symmetry_space_group_name_H-M	'P1'
_symmetry_Int_Tables_number	1
_symmetry_cell_setting	triclinic
loop_
_symmetry_equiv_pos_as_xyz
  x,y,z
_cell_length_a	16.109301
_cell_length_b	16.992695
_cell_length_c	14.586319
_cell_angle_alpha	89.987402
_cell_angle_beta	89.993431
_cell_angle_gamma	87.064903
loop_
_atom_site_label
_atom_site_type_symbol
_atom_site_fract_x
_atom_site_fract_y
_atom_site_fract_z
O1	O	1.109862	0.100794	-0.076191
O2	O	1.609862	0.600794	0.423809
O3	O	0.868637	0.113336	-0.076204
O4	O	1.368637	0.613336	0.423796
O5	O	0.988282	-0.007077	-0.076190
O6	O	1.488282	0.492923	0.423810
O7	O	0.990217	0.221208	-0.076204
O8	O	1.490217	0.721208	0.423796
O9	O	0.988261	-0.007098	0.076291
O10	O	1.488261	0.492902	0.576291
O11	O	0.868616	0.113316	0.076277
O12	O	1.368616	0.613316	0.576277
O13	O	1.109841	0.100773	0.076290
O14	O	1.609841	0.600773	0.576290
Cu15	Cu	0.989227	0.107043	0.090206
Cu16	Cu	1.489227	0.607043	0.590206
Cu17	Cu	0.989251	0.107067	-0.090120
Cu18	Cu	1.489251	0.607067	0.409880
O19	O	0.990196	0.221187	0.076276
O20	O	1.490196	0.721187	0.576276
C21	C	0.837618	0.112818	0.000035
C22	C	1.337618	0.612818	0.500035
C23	C	0.745221	0.111295	0.000030
C24	C	1.245221	0.611295	0.500030
C25	C	0.440658	0.177766	0.000042
C26	C	0.940658	0.677766	0.500042
C27	C	0.527474	0.179205	0.000037
C28	C	1.027474	0.679205	0.500037
C29	C	0.537814	0.036338	0.000034
C30	C	1.037814	0.536338	0.500034
C31	C	0.450999	0.034900	0.000032
C32	C	0.950999	0.534900	0.500032
C33	C	0.402424	0.105617	0.000041
C34	C	0.902424	0.605617	0.500041
C35	C	0.576054	0.108493	0.000037
C36	C	1.076054	0.608493	0.500037
C37	C	0.670185	0.110052	0.000031
C38	C	1.170185	0.610052	0.500031
C39	C	0.308287	0.104058	0.000045
C40	C	0.808287	0.604058	0.500045
C41	C	0.985784	-0.036299	0.000050
C42	C	1.485784	0.463701	0.500050
C43	C	0.978361	-0.123342	0.000050
C44	C	1.478361	0.376658	0.500050
C45	C	1.049987	-0.173600	0.000054
C46	C	1.549987	0.326400	0.500054
C47	C	1.043007	-0.255385	0.000045
C48	C	1.543007	0.244615	0.500045
C49	C	0.964400	-0.286910	0.000038
C50	C	1.464400	0.213090	0.500038
C51	C	0.892768	-0.236645	0.000030
C52	C	1.392768	0.263355	0.500030
C53	C	0.899749	-0.154861	0.000033
C54	C	1.399749	0.345139	0.500033
C55	C	0.935467	-0.530500	0.000024
C56	C	1.435467	-0.030500	0.500024
C57	C	0.928491	-0.612290	0.000024
C58	C	1.428491	-0.112290	0.500024
C59	C	1.078730	-0.631025	0.000037
C60	C	1.578730	-0.131025	0.500037
C61	C	1.085704	-0.549239	0.000045
C62	C	1.585704	-0.049239	0.500045
C63	C	1.014073	-0.498981	0.000033
C64	C	1.514073	0.001019	0.500033
N65	N	0.957263	-0.370507	0.000032
N66	N	1.457263	0.129493	0.500032
N67	N	1.021210	-0.415386	0.000033
N68	N	1.521210	0.084614	0.500033
C69	C	1.140860	0.101292	0.000049
C70	C	1.640860	0.601292	0.500049
C71	C	1.233257	0.102815	0.000048
C72	C	1.733257	0.602815	0.500048
C73	C	0.992694	0.250409	0.000034
C74	C	1.492694	0.750409	0.500034
C75	C	1.000117	0.337451	0.000029
C76	C	1.500117	0.837451	0.500029
N77	N	0.989215	0.107025	0.217038
N78	N	1.489215	0.607025	0.717038
C79	C	0.935657	0.059488	0.548067
C80	C	1.435657	0.559488	1.048067
C81	C	0.935651	0.059478	0.452086
C82	C	1.435651	0.559478	0.952086
C83	C	1.042822	0.154615	0.452026
C84	C	1.542822	0.654615	0.952026
C85	C	1.042832	0.154621	0.548005
C86	C	1.542832	0.654621	1.048005
C87	C	0.989245	0.107059	0.596024
C88	C	1.489245	0.607059	1.096024
C89	C	0.989229	0.107042	0.404063
C90	C	1.489229	0.607042	0.904063
C91	C	0.989222	0.107031	0.299996
C92	C	1.489222	0.607031	0.799996
C93	C	0.989252	0.107069	0.700097
C94	C	1.489252	0.607069	1.200097
N95	N	0.989258	0.107076	0.783048
N96	N	1.489258	0.607076	1.283048
H97	H	0.558601	0.237956	0.000037
H98	H	1.058601	0.737956	0.500037
H99	H	0.864477	-0.637953	0.000033
H100	H	1.364477	-0.137953	0.500033
H101	H	0.841423	-0.113941	0.000029
H102	H	1.341423	0.386059	0.500029
C103	C	0.387228	0.255556	0.000044
C104	C	0.887228	0.755556	0.500044
N105	N	0.346986	0.314150	0.000041
N106	N	0.846986	0.814150	0.500041
C107	C	0.876716	0.007163	0.600884
C108	C	1.376716	0.507163	1.100884
N109	N	0.832321	-0.032253	0.640663
N110	N	1.332321	0.467747	1.140663
H111	H	0.892015	0.020740	0.413044
H112	H	1.392015	0.520740	0.913044
C113	C	0.408939	-0.044474	0.000037
C114	C	0.908939	0.455526	0.500037
N115	N	0.377259	-0.104256	0.000041
N116	N	0.877259	0.395744	0.500041
H117	H	0.828765	-0.262318	0.000019
H118	H	1.328765	0.237682	0.500019
H119	H	0.577375	-0.021237	0.000028
H120	H	1.077375	0.478763	0.500028
C121	C	1.101765	0.206930	0.399197
C122	C	1.601765	0.706930	0.899197
N123	N	1.146162	0.246335	0.359407
N124	N	1.646162	0.746335	0.859407
H125	H	1.113997	-0.147940	0.000066
H126	H	1.613997	0.352060	0.500066
H127	H	1.101332	-0.296303	0.000051
H128	H	1.601332	0.203697	0.500051
H129	H	1.086474	0.193359	0.587052
H130	H	1.586474	0.693359	1.087052
C131	C	1.172178	-0.514569	0.000054
C132	C	1.672178	-0.014569	0.500054
N133	N	1.237311	-0.488456	0.000065
N134	N	1.737311	0.011544	0.500065
H135	H	1.137048	-0.671953	0.000046
H136	H	1.637048	-0.171953	0.500046
C137	C	0.856669	-0.475227	0.000005
C138	C	1.356669	0.024773	0.500005
N139	N	0.797315	-0.433591	-0.000012
N140	N	1.297315	0.066409	0.499988
