data_functionalizedCrystal
_audit_creation_method	'MofGen! by Chris Wilmer'
_symmetry_space_group_name_H-M	'P1'
_symmetry_Int_Tables_number	1
_symmetry_cell_setting	triclinic
loop_
_symmetry_equiv_pos_as_xyz
  x,y,z
_cell_length_a	16.992701
_cell_length_b	14.971506
_cell_length_c	14.048226
_cell_angle_alpha	90.001102
_cell_angle_beta	89.995125
_cell_angle_gamma	92.855221
loop_
_atom_site_label
_atom_site_type_symbol
_atom_site_fract_x
_atom_site_fract_y
_atom_site_fract_z
O1	O	1.040582	-0.189660	-0.079162
O2	O	1.373915	0.143674	0.254171
O3	O	1.707248	0.477007	0.587505
O4	O	0.812294	-0.187581	-0.079163
O5	O	1.145628	0.145752	0.254171
O6	O	1.478961	0.479086	0.587504
O7	O	0.932549	-0.058851	-0.079160
O8	O	1.265882	0.274483	0.254174
O9	O	1.599215	0.607816	0.587507
O10	O	0.920328	-0.318390	-0.079165
O11	O	1.253661	0.014943	0.254169
O12	O	1.586994	0.348277	0.587502
O13	O	0.932537	-0.058851	0.079161
O14	O	1.265870	0.274482	0.412495
O15	O	1.599204	0.607815	0.745828
O16	O	0.812283	-0.187582	0.079159
O17	O	1.145616	0.145752	0.412492
O18	O	1.478950	0.479085	0.745825
O19	O	1.040570	-0.189660	0.079159
O20	O	1.373904	0.143673	0.412493
O21	O	1.707237	0.477007	0.745826
Zn22	Zn	0.926425	-0.188621	0.104296
Zn23	Zn	1.259758	0.144712	0.437629
Zn24	Zn	1.593092	0.478046	0.770963
Zn25	Zn	0.926440	-0.188620	-0.104299
Zn26	Zn	1.259773	0.144713	0.229034
Zn27	Zn	1.593107	0.478046	0.562367
O28	O	0.920316	-0.318390	0.079157
O29	O	1.253650	0.014943	0.412490
O30	O	1.586983	0.348276	0.745823
C31	C	0.783073	-0.184905	-0.000002
C32	C	1.116407	0.148429	0.333331
C33	C	1.449740	0.481762	0.666665
C34	C	0.696021	-0.176919	-0.000002
C35	C	1.029355	0.156415	0.333331
C36	C	1.362688	0.489748	0.666664
C37	C	0.207008	-0.123259	-0.000005
C38	C	0.540341	0.210074	0.333329
C39	C	0.873675	0.543408	0.666662
C40	C	0.288802	-0.130770	0.000001
C41	C	0.622135	0.202564	0.333334
C42	C	0.955469	0.535897	0.666668
C43	C	0.320430	-0.215345	-0.000005
C44	C	0.653763	0.117988	0.333328
C45	C	0.987096	0.451322	0.666662
C46	C	0.270259	-0.292414	-0.000007
C47	C	0.603592	0.040919	0.333326
C48	C	0.936926	0.374253	0.666660
C49	C	0.188467	-0.284903	-0.000006
C50	C	0.521800	0.048431	0.333328
C51	C	0.855133	0.381764	0.666661
C52	C	0.564058	-0.246476	-0.000003
C53	C	0.897391	0.086857	0.333330
C54	C	1.230725	0.420190	0.666664
C55	C	0.645857	-0.253982	-0.000007
C56	C	0.979190	0.079351	0.333326
C57	C	1.312524	0.412684	0.666660
C58	C	0.664394	-0.092337	0.000003
C59	C	0.997728	0.240996	0.333336
C60	C	1.331061	0.574330	0.666669
C61	C	0.582599	-0.084833	-0.000002
C62	C	0.915933	0.248501	0.333331
C63	C	1.249266	0.581834	0.666665
C64	C	0.532436	-0.161902	0.000001
C65	C	0.865769	0.171431	0.333335
C66	C	1.199102	0.504765	0.666668
N67	N	0.404036	-0.223024	-0.000002
N68	N	0.737369	0.110309	0.333331
N69	N	1.070703	0.443643	0.666664
N70	N	0.448831	-0.154222	0.000005
N71	N	0.782164	0.179111	0.333339
N72	N	1.115498	0.512444	0.666672
C73	C	0.931993	-0.025488	-0.000001
C74	C	1.265327	0.307845	0.333333
C75	C	1.598660	0.641179	0.666666
C76	C	0.930347	0.073924	-0.000005
C77	C	1.263680	0.407257	0.333329
C78	C	1.597014	0.740590	0.666662
C79	C	1.069791	-0.192336	-0.000003
C80	C	1.403125	0.140997	0.333330
C81	C	1.736458	0.474330	0.666663
C82	C	1.156844	-0.200323	-0.000009
C83	C	1.490177	0.133011	0.333324
C84	C	1.823510	0.466344	0.666657
C85	C	0.920871	-0.351753	-0.000005
C86	C	1.254205	-0.018420	0.333329
C87	C	1.587538	0.314913	0.666662
C88	C	0.922518	-0.451165	-0.000007
C89	C	1.255851	-0.117832	0.333326
C90	C	1.589184	0.215502	0.666660
C91	C	0.994711	0.507685	-0.000004
C92	C	1.328045	0.841018	0.333329
C93	C	1.661378	1.174351	0.666663
C94	C	0.996252	0.414276	0.000002
C95	C	1.329586	0.747610	0.333335
C96	C	1.662919	1.080943	0.666669
C97	C	0.925598	0.362020	-0.000001
C98	C	1.258932	0.695353	0.333332
C99	C	1.592265	1.028686	0.666665
C100	C	0.853399	0.403176	-0.000001
C101	C	1.186732	0.736510	0.333332
C102	C	1.520066	1.069843	0.666665
C103	C	0.851859	0.496583	-0.000001
C104	C	1.185192	0.829916	0.333333
C105	C	1.518526	1.163250	0.666666
C106	C	0.856614	0.208487	-0.000005
C107	C	1.189947	0.541821	0.333328
C108	C	1.523280	0.875154	0.666662
C109	C	0.858153	0.115074	-0.000008
C110	C	1.191487	0.448407	0.333326
C111	C	1.524820	0.781741	0.666659
C112	C	1.001007	0.126181	-0.000002
C113	C	1.334340	0.459514	0.333331
C114	C	1.667674	0.792847	0.666664
C115	C	0.999467	0.219587	-0.000002
C116	C	1.332800	0.552921	0.333332
C117	C	1.666134	0.886254	0.666665
C118	C	0.927267	0.260737	-0.000003
C119	C	1.260601	0.594071	0.333330
C120	C	1.593934	0.927404	0.666663
N121	N	0.926420	-0.188621	0.246657
N122	N	1.259754	0.144712	0.579990
N123	N	1.593087	0.478046	0.913323
N124	N	0.926451	-0.188613	-0.246660
N125	N	1.259784	0.144720	0.086673
N126	N	1.593117	0.478053	0.420007
C127	C	0.878841	-0.130929	0.703525
C128	C	1.212175	0.202404	1.036858
C129	C	1.545508	0.535738	1.370192
C130	C	0.878838	-0.130926	0.603867
C131	C	1.212172	0.202407	0.937201
C132	C	1.545505	0.535741	1.270534
C133	C	0.926441	-0.188613	0.554027
C134	C	1.259774	0.144721	0.887360
C135	C	1.593108	0.478054	1.220693
C136	C	0.974056	-0.246300	0.603849
C137	C	1.307389	0.087034	0.937182
C138	C	1.640723	0.420367	1.270515
C139	C	0.974063	-0.246298	0.703504
C140	C	1.307396	0.087036	1.036838
C141	C	1.640729	0.420369	1.370171
C142	C	0.974037	-0.246302	0.396134
C143	C	1.307371	0.087031	0.729468
C144	C	1.640704	0.420365	1.062801
C145	C	0.974030	-0.246306	0.296472
C146	C	1.307363	0.087028	0.629805
C147	C	1.640696	0.420361	0.963138
C148	C	0.878813	-0.130930	0.296497
C149	C	1.212146	0.202403	0.629831
C150	C	1.545480	0.535736	0.963164
C151	C	0.878820	-0.130928	0.396153
C152	C	1.212153	0.202405	0.729486
C153	C	1.545486	0.535739	1.062820
C154	C	0.926434	-0.188617	0.445968
C155	C	1.259767	0.144717	0.779302
C156	C	1.593100	0.478050	1.112635
H157	H	0.556855	-0.015963	0.000003
H158	H	0.890188	0.317370	0.333336
H159	H	1.223521	0.650704	0.666670
H160	H	0.671604	-0.322857	0.000002
H161	H	1.004938	0.010477	0.333335
H162	H	1.338271	0.343810	0.666669
H163	H	1.012831	-0.293270	0.744063
H164	H	1.346165	0.040063	1.077396
H165	H	1.679498	0.373397	1.410729
H166	H	0.793071	0.530086	0.000005
H167	H	1.126405	0.863419	0.333338
H168	H	1.459738	1.196753	0.666671
H169	H	0.800621	0.072529	-0.000005
H170	H	1.133954	0.405862	0.333329
H171	H	1.467287	0.739196	0.666662
H172	H	1.057000	0.262133	-0.000005
H173	H	1.390333	0.595466	0.333329
H174	H	1.723666	0.928799	0.666662
H175	H	0.705246	-0.029592	0.000001
H176	H	1.038579	0.303742	0.333335
H177	H	1.371912	0.637075	0.666668
H178	H	0.296017	-0.361277	-0.000006
H179	H	0.629350	-0.027944	0.333327
H180	H	0.962683	0.305389	0.666661
H181	H	1.012790	-0.293282	0.255894
H182	H	1.346123	0.040051	0.589227
H183	H	1.679456	0.373385	0.922561
H184	H	0.181263	-0.054389	-0.000006
H185	H	0.514597	0.278944	0.333327
H186	H	0.847930	0.612278	0.666661
H187	H	1.055040	0.380776	0.000005
H188	H	1.388373	0.714110	0.333339
H189	H	1.721706	1.047443	0.666672
H190	H	1.012819	-0.293265	0.563260
H191	H	1.346152	0.040068	0.896594
H192	H	1.679485	0.373401	1.229927
H193	H	0.797821	0.241988	0.000007
H194	H	1.131154	0.575322	0.333340
H195	H	1.464488	0.908655	0.666673
H196	H	0.329643	-0.068016	0.000009
H197	H	0.662976	0.265317	0.333342
H198	H	0.996310	0.598651	0.666675
H199	H	0.523224	-0.309232	-0.000005
H200	H	0.856557	0.024101	0.333328
H201	H	1.189891	0.357434	0.666662
H202	H	0.795871	0.360622	0.000001
H203	H	1.129205	0.693955	0.333335
H204	H	1.462538	1.027288	0.666668
H205	H	0.840073	-0.083958	0.744098
H206	H	1.173406	0.249375	1.077432
H207	H	1.506740	0.582709	1.410765
H208	H	0.147623	-0.347656	-0.000006
H209	H	0.480956	-0.014323	0.333327
H210	H	0.814289	0.319010	0.666660
H211	H	1.052246	0.550226	-0.000009
H212	H	1.385580	0.883559	0.333324
H213	H	1.718913	1.216892	0.666658
H214	H	0.840053	-0.083959	0.436731
H215	H	1.173387	0.249375	0.770064
H216	H	1.506720	0.582708	1.103397
H217	H	1.059794	0.092672	-0.000089
H218	H	1.393128	0.426005	0.333245
H219	H	1.726461	0.759339	0.666578
H220	H	0.840072	-0.083951	0.563312
H221	H	1.173405	0.249382	0.896646
H222	H	1.506739	0.582716	1.229979
H223	H	0.840042	-0.083960	0.255933
H224	H	1.173376	0.249373	0.589266
H225	H	1.506709	0.582707	0.922600
H226	H	1.012812	-0.293276	0.436691
H227	H	1.346145	0.040057	0.770024
H228	H	1.679478	0.373391	1.103358
