data_functionalizedCrystal
_audit_creation_method	'MofGen! by Chris Wilmer'
_symmetry_space_group_name_H-M	'P1'
_symmetry_Int_Tables_number	1
_symmetry_cell_setting	triclinic
loop_
_symmetry_equiv_pos_as_xyz
  x,y,z
_cell_length_a	13.033293
_cell_length_b	12.594516
_cell_length_c	13.032268
_cell_angle_alpha	97.151307
_cell_angle_beta	89.079182
_cell_angle_gamma	97.181864
loop_
_atom_site_label
_atom_site_type_symbol
_atom_site_fract_x
_atom_site_fract_y
_atom_site_fract_z
Zn1	Zn	1.498493	-0.331142	-0.781499
Zn2	Zn	1.520250	-0.484098	-0.609533
Zn3	Zn	1.348353	-0.325521	-0.587674
Zn4	Zn	1.326505	-0.528469	-0.759575
O5	O	1.423400	-0.417307	-0.684570
O6	O	1.645296	-0.335215	-0.777010
O7	O	1.515696	-0.442141	-0.462724
O8	O	1.368307	-0.177319	-0.613412
O9	O	1.661281	-0.447591	-0.650668
O10	O	1.478615	-0.181449	-0.755814
O11	O	1.389404	-0.325635	-0.446664
O12	O	1.201537	-0.368659	-0.592154
O13	O	1.331071	-0.523214	-0.906393
O14	O	1.185486	-0.517764	-0.718449
O15	O	1.457430	-0.378239	-0.922500
O16	O	1.494512	-0.638931	-0.629410
O17	O	1.352168	-0.671530	-0.739645
C18	C	1.156196	-0.447417	-0.650551
C19	C	1.041881	-0.460328	-0.636022
C20	C	0.982995	-0.410596	-0.692153
C21	C	0.864844	-0.423938	-0.677138
C22	C	1.423355	-0.693851	-0.684546
C23	C	1.423425	-0.812152	-0.684582
C24	C	1.500916	-0.863638	-0.624709
C25	C	1.514122	-0.945181	-0.721767
C26	C	1.410340	-0.941402	-0.587600
C27	C	1.436673	-0.892139	-0.781696
C28	C	1.332855	-0.888349	-0.647460
C29	C	1.346017	-0.969874	-0.744579
C30	C	1.691648	-0.387081	-0.718723
C31	C	1.805960	-0.374200	-0.733277
C32	C	1.389386	-0.456303	-0.952804
C33	C	1.374892	-0.472920	-1.067109
C34	C	1.423471	-0.139684	-0.684620
C35	C	1.423501	-0.021377	-0.684642
C36	C	1.430949	-0.408598	-1.126039
C37	C	1.415970	-0.425772	-1.244180
C38	C	1.457341	-0.378380	-0.417388
C39	C	1.472035	-0.361440	-0.303108
H40	H	1.004826	-0.512780	-0.576848
O41	O	1.501567	-0.327783	-1.082030
C42	C	1.680692	-0.251669	-1.071198
C43	C	1.600821	-0.343242	-1.121129
H44	H	1.760960	-0.264148	-1.102773
H45	H	1.660087	-0.170894	-1.090007
H46	H	1.680163	-0.252212	-0.983781
H47	H	1.601308	-0.342800	-1.208554
H48	H	1.621455	-0.423976	-1.102237
O49	O	1.241422	-0.858226	-0.610118
C50	C	1.088551	-0.778716	-0.644117
C51	C	1.192059	-0.812806	-0.686559
H52	H	1.048621	-0.741966	-0.705892
H53	H	1.036816	-0.852311	-0.622115
H54	H	1.103624	-0.716561	-0.572885
H55	H	1.177082	-0.874936	-0.757818
H56	H	1.243761	-0.739157	-0.708490
O57	O	1.579217	-0.808729	-0.564500
C58	C	1.763213	-0.775289	-0.535648
C59	C	1.674639	-0.837523	-0.603927
H60	H	1.840381	-0.798562	-0.567486
H61	H	1.762086	-0.684918	-0.535611
H62	H	1.752732	-0.796368	-0.453244
H63	H	1.685061	-0.816534	-0.686362
H64	H	1.675793	-0.927877	-0.603876
O65	O	1.605527	-0.975121	-0.759410
C66	C	1.723552	-0.982759	-0.903618
C67	C	1.620018	-0.948798	-0.861114
H68	H	1.735291	-0.961512	-0.985858
H69	H	1.789553	-0.938533	-0.852534
H70	H	1.722427	-1.073456	-0.903945
H71	H	1.621041	-0.858117	-0.860785
H72	H	1.554062	-0.993102	-0.912211
O73	O	1.345558	-0.506624	-1.288490
C74	C	1.266363	-0.597392	-1.446633
C75	C	1.346151	-0.505802	-1.396588
H76	H	1.266800	-0.596743	-1.534036
H77	H	1.287050	-0.678176	-1.427934
H78	H	1.186108	-0.585014	-1.414960
H79	H	1.426434	-0.518076	-1.428233
H80	H	1.325375	-0.425051	-1.415281
O81	O	1.450065	-0.865867	-0.879545
C82	C	1.464984	-0.724205	-0.989296
C83	C	1.449830	-0.753808	-0.878435
H84	H	1.464777	-0.633609	-0.988438
H85	H	1.541981	-0.748019	-1.021095
H86	H	1.399334	-0.769096	-1.040445
H87	H	1.515420	-0.708932	-0.827206
H88	H	1.372797	-0.730018	-0.846719
H89	H	1.315802	-0.540697	-1.104119
O90	O	1.267770	-1.024662	-0.804932
C91	C	1.111235	-1.149421	-0.812963
C92	C	1.199769	-1.087415	-0.744488
H93	H	1.056244	-1.200189	-0.764127
H94	H	1.067290	-1.089703	-0.847716
H95	H	1.144675	-1.204334	-0.877767
H96	H	1.166415	-1.032500	-0.679632
H97	H	1.243701	-1.147191	-0.709812
O98	O	1.397219	-0.967489	-0.489664
C99	C	1.464106	-0.942513	-0.315867
C100	C	1.479065	-0.912864	-0.426729
H101	H	1.530278	-0.898381	-0.264958
H102	H	1.387535	-0.917936	-0.283624
H103	H	1.463461	-1.033246	-0.316967
H104	H	1.479759	-0.822139	-0.425718
H105	H	1.555623	-0.937518	-0.458928
H106	H	1.531117	-0.293647	-1.266103
H107	H	0.827794	-0.476394	-0.617960
O108	O	1.027062	-0.348106	-0.762878
C109	C	1.038037	-0.318501	-0.942083
C110	C	0.988037	-0.389346	-0.862089
H111	H	1.006522	-0.351829	-1.022316
H112	H	1.019220	-0.232399	-0.921596
H113	H	1.125451	-0.318868	-0.941559
H114	H	0.900614	-0.389069	-0.862571
H115	H	1.006937	-0.475413	-0.882604
O116	O	0.850017	-0.311701	-0.804004
C117	C	0.860980	-0.282083	-0.983206
C118	C	0.810990	-0.352937	-0.903215
H119	H	0.829463	-0.315408	-1.063439
H120	H	0.842157	-0.195983	-0.962712
H121	H	0.948395	-0.282443	-0.982686
H122	H	0.723566	-0.352667	-0.903692
H123	H	0.829896	-0.439001	-0.923737
