data_functionalizedCrystal
_audit_creation_method	'MofGen! by Chris Wilmer'
_symmetry_space_group_name_H-M	'P1'
_symmetry_Int_Tables_number	1
_symmetry_cell_setting	triclinic
loop_
_symmetry_equiv_pos_as_xyz
  x,y,z
_cell_length_a	16.992694
_cell_length_b	23.532407
_cell_length_c	15.455313
_cell_angle_alpha	92.643560
_cell_angle_beta	87.142206
_cell_angle_gamma	86.758451
loop_
_atom_site_label
_atom_site_type_symbol
_atom_site_fract_x
_atom_site_fract_y
_atom_site_fract_z
O1	O	1.042902	0.118384	-0.072037
O2	O	0.814628	0.117059	-0.072062
O3	O	0.935648	0.035132	-0.072033
O4	O	0.921882	0.200311	-0.072066
O5	O	0.928727	0.039796	0.072228
O6	O	0.807707	0.121723	0.072198
O7	O	1.035981	0.123049	0.072224
Cu8	Cu	0.921212	0.122812	0.085383
Cu9	Cu	0.929397	0.117296	-0.085222
O10	O	0.914962	0.204976	0.072194
C11	C	0.781968	0.117688	0.000065
C12	C	0.694964	0.112604	0.000056
C13	C	0.644342	0.161650	0.000047
C14	C	0.562592	0.156871	0.000060
C15	C	0.531466	0.103045	0.000076
C16	C	0.582095	0.053995	0.000088
C17	C	0.663843	0.058775	0.000081
C18	C	0.288022	0.083234	0.000103
C19	C	0.206267	0.078457	0.000107
C20	C	0.186770	0.181334	0.000081
C21	C	0.268521	0.186109	0.000069
C22	C	0.319142	0.137059	0.000085
N23	N	0.447905	0.098158	0.000086
N24	N	0.402701	0.141946	0.000081
C25	C	0.931837	0.016231	0.000100
C26	C	0.930782	-0.047038	0.000106
C27	C	0.995791	-0.442917	0.000066
C28	C	0.994812	-0.502366	0.000059
O29	O	1.055075	-0.536121	0.000034
N30	N	0.922865	-0.528562	0.000052
C31	C	0.851893	-0.495307	0.000042
O32	O	0.790607	-0.523048	0.000035
C33	C	0.852873	-0.435859	0.000043
C34	C	0.924824	-0.409666	0.000059
C35	C	1.067736	-0.416723	0.000081
C36	C	1.068714	-0.357278	0.000089
C37	C	0.997748	-0.324027	0.000083
C38	C	0.925803	-0.350221	0.000067
C39	C	0.781902	-0.402605	0.000027
C40	C	0.782889	-0.343154	0.000027
C41	C	0.854839	-0.316960	0.000043
C42	C	0.855814	-0.257525	0.000069
N43	N	0.927761	-0.231328	0.000076
C44	C	0.998728	-0.264579	0.000083
C45	C	0.849841	-0.620151	0.000040
C46	C	0.848860	-0.679598	0.000046
C47	C	0.991779	-0.686653	0.000061
C48	C	0.992759	-0.627205	0.000061
C49	C	0.921788	-0.593955	0.000047
C50	C	1.000777	-0.139740	0.000101
C51	C	1.001749	-0.080289	0.000113
C52	C	0.858831	-0.073240	0.000093
C53	C	0.857858	-0.132685	0.000086
C54	C	0.928838	-0.165934	0.000087
O55	O	0.795583	-0.223733	0.000090
O56	O	1.060004	-0.236831	0.000079
C57	C	1.068641	0.122420	0.000095
C58	C	1.155645	0.127504	0.000098
C59	C	0.918772	0.223877	0.000060
C60	C	0.919827	0.287146	0.000048
N61	N	0.915462	0.126692	0.205377
N62	N	0.935153	0.113412	-0.205216
C63	C	0.966893	0.091901	0.250784
C64	C	0.962551	0.094840	0.341591
C65	C	0.906782	0.132574	0.386989
C66	C	0.855345	0.167366	0.341576
C67	C	0.859684	0.164424	0.250771
C68	C	0.888055	0.145261	0.658566
C69	C	0.883722	0.148203	0.749378
C70	C	0.990928	0.075676	0.749386
C71	C	0.995265	0.072738	0.658579
C72	C	0.943825	0.107529	0.613174
N73	N	0.902344	0.135581	0.479808
N74	N	0.948260	0.104518	0.520356
H75	H	0.145546	0.221267	0.000069
H76	H	0.329228	0.043294	0.000117
H77	H	1.127304	-0.335957	0.000099
C78	C	1.192819	-0.443416	-0.074054
C79	C	1.145754	-0.453264	0.000093
H80	H	1.240989	-0.465970	-0.074037
H81	H	1.165719	-0.453342	-0.124358
H82	H	1.203678	-0.404258	-0.074045
H83	H	1.134889	-0.492422	0.000081
H84	H	1.172859	-0.443343	0.050410
H85	H	0.809932	0.198088	0.378545
C86	C	0.455801	0.213581	0.074204
C87	C	0.506946	0.210782	0.000042
H88	H	0.421451	0.246867	0.074193
H89	H	0.425570	0.180843	0.074214
H90	H	0.485700	0.214940	0.124503
H91	H	0.477048	0.209419	-0.050258
H92	H	0.537180	0.243528	0.000024
C93	C	0.814224	0.259959	0.222775
C94	C	0.803153	0.202669	0.200855
H95	H	0.779324	0.283569	0.191954
H96	H	0.803656	0.267109	0.283344
H97	H	0.867198	0.268055	0.207878
H98	H	0.750180	0.194572	0.215757
H99	H	0.813716	0.195516	0.140272
H100	H	0.556745	0.010169	0.000113
C101	C	0.233746	-0.022756	0.000142
C102	C	0.172052	0.019288	0.000126
H103	H	0.212620	-0.059282	0.000156
H104	H	0.267633	-0.020382	-0.050162
H105	H	0.262817	-0.017122	0.050452
H106	H	0.142985	0.013656	-0.050187
H107	H	0.138151	0.016912	0.050435
C108	C	0.674909	-0.043393	0.000092
C109	C	0.719490	0.004862	0.000083
H110	H	0.709265	-0.076677	0.000090
H111	H	0.640216	-0.041492	0.050399
H112	H	0.645022	-0.044740	-0.050215
H113	H	0.749374	0.006211	0.050394
H114	H	0.754198	0.002961	-0.050228
C115	C	0.241034	0.287318	0.000059
C116	C	0.302732	0.245276	0.000060
H117	H	0.262156	0.323845	0.000057
H118	H	0.211963	0.281689	-0.050243
H119	H	0.207147	0.284936	0.050372
H120	H	0.336615	0.247655	-0.050256
H121	H	0.331816	0.250907	0.050366
C122	C	1.079043	-0.208292	0.074262
C123	C	1.078797	-0.176283	0.000107
H124	H	1.127207	-0.230854	0.074265
H125	H	1.074037	-0.183333	0.124561
H126	H	1.036057	-0.232404	0.074242
H127	H	1.121780	-0.152167	0.000131
H128	H	1.083811	-0.201244	-0.050204
H129	H	1.060342	-0.058966	0.000129
C130	C	1.133926	-0.640163	0.000070
C131	C	1.071849	-0.598416	0.000065
H132	H	1.182755	-0.622392	0.000065
H133	H	1.128158	-0.661577	0.050377
H134	H	1.132972	-0.664829	-0.050238
H135	H	1.072800	-0.573754	0.050377
H136	H	1.077620	-0.576994	-0.050246
H137	H	1.049564	-0.713737	0.000063
C138	C	0.707692	-0.666638	0.000029
C139	C	0.769769	-0.708385	0.000035
H140	H	0.658864	-0.684411	0.000013
H141	H	0.708635	-0.641981	0.050336
H142	H	0.713471	-0.645217	-0.050278
H143	H	0.763993	-0.729804	0.050345
H144	H	0.768824	-0.733052	-0.050278
H145	H	0.792043	-0.593082	0.000036
C146	C	1.068974	0.022872	0.332478
C147	C	1.019098	0.056606	0.391502
H148	H	1.103890	-0.000728	0.363292
H149	H	1.038208	-0.000259	0.297079
H150	H	1.098660	0.046728	0.297042
H151	H	0.989408	0.032750	0.426933
H152	H	1.049868	0.079739	0.426915
H153	H	0.723313	-0.423922	0.000009
H154	H	0.669678	0.205481	0.000033
H155	H	0.725094	-0.316084	0.000014
H156	H	0.799269	-0.154012	0.000097
H157	H	0.801051	-0.046156	0.000091
C158	C	1.100789	0.001337	0.667712
C159	C	1.056564	0.031257	0.608680
H160	H	1.138631	-0.024273	0.636904
H161	H	1.127105	0.027477	0.703113
H162	H	1.066624	-0.019491	0.703144
H163	H	1.090729	0.052088	0.573251
H164	H	1.030248	0.005113	0.573263
C165	C	0.778164	0.219585	0.740254
C166	C	0.822404	0.189674	0.799282
H167	H	0.740308	0.245183	0.771065
H168	H	0.812311	0.240422	0.704828
H169	H	0.751859	0.193435	0.704846
H170	H	0.848714	0.215824	0.834686
H171	H	0.788252	0.168837	0.834723
H172	H	1.012310	0.061176	0.213826
C173	C	0.875322	0.218655	0.556439
C174	C	0.831524	0.183512	0.608668
H175	H	0.840420	0.242270	0.525630
H176	H	0.906094	0.241771	0.591853
H177	H	0.909146	0.195754	0.516403
H178	H	0.797703	0.206413	0.648708
H179	H	0.800738	0.160394	0.573251
H180	H	1.032806	0.047350	0.786363
