data_functionalizedCrystal
_audit_creation_method	'MofGen! by Chris Wilmer'
_symmetry_space_group_name_H-M	'P1'
_symmetry_Int_Tables_number	1
_symmetry_cell_setting	triclinic
loop_
_symmetry_equiv_pos_as_xyz
  x,y,z
_cell_length_a	15.298068
_cell_length_b	21.295417
_cell_length_c	15.296720
_cell_angle_alpha	99.639335
_cell_angle_beta	88.354818
_cell_angle_gamma	99.688570
loop_
_atom_site_label
_atom_site_type_symbol
_atom_site_fract_x
_atom_site_fract_y
_atom_site_fract_z
Zn1	Zn	1.253349	-0.187264	-0.727337
Zn2	Zn	1.586682	0.146069	-0.394004
Zn3	Zn	1.920015	0.479403	-0.060670
Zn4	Zn	1.278597	-0.271807	-0.580856
Zn5	Zn	1.611931	0.061526	-0.247522
Zn6	Zn	1.945264	0.394860	0.085811
Zn7	Zn	1.132230	-0.181147	-0.555505
Zn8	Zn	1.465563	0.152186	-0.222171
Zn9	Zn	1.798896	0.485519	0.111162
Zn10	Zn	1.106821	-0.307097	-0.701874
Zn11	Zn	1.440154	0.026236	-0.368541
Zn12	Zn	1.773487	0.359570	-0.035207
O13	O	1.192749	-0.236829	-0.641393
O14	O	1.526082	0.096504	-0.308059
O15	O	1.859416	0.429838	0.025274
O16	O	1.379276	-0.186270	-0.729172
O17	O	1.712609	0.147063	-0.395838
O18	O	2.045942	0.480397	-0.062505
O19	O	1.280381	-0.242452	-0.454934
O20	O	1.613715	0.090881	-0.121600
O21	O	1.947048	0.424214	0.211733
O22	O	1.148363	-0.093867	-0.578345
O23	O	1.481697	0.239466	-0.245012
O24	O	1.815030	0.572800	0.088321
O25	O	1.397826	-0.248383	-0.621553
O26	O	1.731159	0.084950	-0.288219
O27	O	2.064492	0.418283	0.045114
O28	O	1.237349	-0.098361	-0.704590
O29	O	1.570682	0.234972	-0.371256
O30	O	1.904016	0.568306	-0.037923
O31	O	1.172846	-0.175845	-0.436308
O32	O	1.506179	0.157488	-0.102975
O33	O	1.839512	0.490822	0.230358
O34	O	1.006281	-0.210064	-0.553655
O35	O	1.339615	0.123269	-0.220322
O36	O	1.672948	0.456603	0.113012
O37	O	1.105058	-0.308530	-0.827811
O38	O	1.438391	0.024804	-0.494477
O39	O	1.771724	0.358137	-0.161144
O40	O	0.987614	-0.302599	-0.661192
O41	O	1.320947	0.030735	-0.327859
O42	O	1.654280	0.364068	0.005475
O43	O	1.212711	-0.220489	-0.846518
O44	O	1.546044	0.112844	-0.513185
O45	O	1.879378	0.446178	-0.179852
O46	O	1.255744	-0.364580	-0.596862
O47	O	1.589077	-0.031247	-0.263529
O48	O	1.922410	0.302086	0.069805
O49	O	1.129540	-0.390508	-0.685774
O50	O	1.462874	-0.057174	-0.352441
O51	O	1.796207	0.276159	-0.019107
C52	C	0.965164	-0.259498	-0.601910
C53	C	1.298498	0.073836	-0.268577
C54	C	1.631831	0.407169	0.064757
C55	C	0.867799	-0.269213	-0.585040
C56	C	1.201132	0.064120	-0.251706
C57	C	1.534466	0.397453	0.081627
C58	C	0.554651	-0.167547	-0.761968
C59	C	0.887984	0.165787	-0.428635
C60	C	1.221318	0.499120	-0.095302
C61	C	0.646130	-0.158421	-0.777824
C62	C	0.979463	0.174913	-0.444490
C63	C	1.312796	0.508246	-0.111157
C64	C	0.701551	-0.186118	-0.729629
C65	C	1.034885	0.147216	-0.396295
C66	C	1.368218	0.480549	-0.062962
C67	C	0.665486	-0.222943	-0.665576
C68	C	0.998819	0.110390	-0.332243
C69	C	1.332152	0.443724	0.001090
C70	C	0.573997	-0.232074	-0.649724
C71	C	0.907330	0.101259	-0.316391
C72	C	1.240664	0.434593	0.016942
C73	C	0.720897	-0.250645	-0.617385
C74	C	1.054231	0.082688	-0.284052
C75	C	1.387564	0.416021	0.049282
C76	C	0.684832	-0.287470	-0.553332
C77	C	1.018165	0.045863	-0.219999
C78	C	1.351498	0.379196	0.113334
C79	C	0.593352	-0.296599	-0.537483
C80	C	0.926685	0.036734	-0.204149
C81	C	1.260019	0.370067	0.129184
C82	C	0.537930	-0.268902	-0.585677
C83	C	0.871263	0.064431	-0.252344
C84	C	1.204597	0.397764	0.080989
C85	C	0.812386	-0.241514	-0.633237
C86	C	1.145719	0.091819	-0.299904
C87	C	1.479053	0.425153	0.033430
C88	C	0.831732	-0.306042	-0.520993
C89	C	1.165065	0.027292	-0.187660
C90	C	1.498399	0.360625	0.145674
C91	C	0.740253	-0.315168	-0.505138
C92	C	1.073587	0.018166	-0.171804
C93	C	1.406920	0.351499	0.161529
C94	C	1.192645	-0.400385	-0.641329
C95	C	1.525978	-0.067052	-0.307996
C96	C	1.859312	0.266281	0.025338
C97	C	1.192676	-0.470352	-0.641345
C98	C	1.526009	-0.137018	-0.308012
C99	C	1.859342	0.196315	0.025322
C100	C	1.238972	-0.505510	-0.707115
C101	C	1.572305	-0.172177	-0.373782
C102	C	1.905638	0.161157	-0.040448
C103	C	1.238999	-0.571253	-0.707142
C104	C	1.572332	-0.237919	-0.373809
C105	C	1.905665	0.095414	-0.040475
C106	C	1.192742	-0.601831	-0.641385
C107	C	1.526075	-0.268498	-0.308052
C108	C	1.859409	0.064836	0.025282
C109	C	1.146436	-0.566665	-0.575609
C110	C	1.479769	-0.233332	-0.242276
C111	C	1.813103	0.100001	0.091058
C112	C	1.146403	-0.500926	-0.575589
C113	C	1.479736	-0.167592	-0.242256
C114	C	1.813069	0.165741	0.091078
N115	N	1.199402	-0.694899	-0.563593
N116	N	1.532735	-0.361566	-0.230259
N117	N	1.866069	-0.028233	0.103074
N118	N	1.199438	-0.757349	-0.563615
N119	N	1.532771	-0.424016	-0.230282
N120	N	1.866105	-0.090682	0.103052
C121	C	1.192837	-0.799901	-0.641442
C122	C	1.526171	-0.466568	-0.308109
C123	C	1.859504	-0.133234	0.025224
N124	N	1.186216	-0.777643	-0.719251
N125	N	1.519549	-0.444310	-0.385918
N126	N	1.852883	-0.110976	-0.052584
N127	N	1.186185	-0.715187	-0.719228
N128	N	1.519518	-0.381853	-0.385895
N129	N	1.852851	-0.048520	-0.052562
C130	C	1.192772	-0.673115	-0.641400
C131	C	1.526106	-0.339781	-0.308066
C132	C	1.859439	-0.006448	0.025267
C133	C	1.239165	-0.906345	-0.707247
C134	C	1.572498	-0.573012	-0.373913
C135	C	1.905831	-0.239679	-0.040580
C136	C	1.239186	-0.972090	-0.707274
C137	C	1.572519	-0.638756	-0.373941
C138	C	1.905852	-0.305423	-0.040607
C139	C	1.146629	-0.967500	-0.575734
C140	C	1.479962	-0.634167	-0.242401
C141	C	1.813295	-0.300833	0.090933
C142	C	1.146602	-0.901758	-0.575714
C143	C	1.479935	-0.568425	-0.242380
C144	C	1.813269	-0.235091	0.090953
C145	C	1.192875	-0.871184	-0.641470
C146	C	1.526208	-0.537851	-0.308136
C147	C	1.859542	-0.204518	0.025197
C148	C	1.421222	-0.214072	-0.681030
C149	C	1.754556	0.119261	-0.347697
C150	C	2.087889	0.452594	-0.014364
C151	C	1.518584	-0.204375	-0.697921
C152	C	1.851917	0.128958	-0.364588
C153	C	2.185251	0.462292	-0.031255
C154	C	1.153234	-0.269128	-0.869831
C155	C	1.486567	0.064205	-0.536498
C156	C	1.819900	0.397539	-0.203165
C157	C	1.136395	-0.282892	-0.967178
C158	C	1.469728	0.050441	-0.633845
C159	C	1.803061	0.383775	-0.300512
C160	C	1.192874	-0.072634	-0.641480
C161	C	1.526207	0.260699	-0.308147
C162	C	1.859541	0.594033	0.025187
C163	C	1.192927	-0.002664	-0.641517
C164	C	1.526260	0.330669	-0.308184
C165	C	1.859594	0.664003	0.025149
C166	C	1.313133	-0.138342	-1.280544
C167	C	1.646466	0.194991	-0.947211
C168	C	1.979800	0.528325	-0.613878
C169	C	1.328960	-0.125411	-1.189083
C170	C	1.662293	0.207923	-0.855750
C171	C	1.995626	0.541256	-0.522416
C172	C	1.280820	-0.164780	-1.133602
C173	C	1.614153	0.168554	-0.800269
C174	C	1.947486	0.501887	-0.466936
C175	C	1.216851	-0.217083	-1.169592
C176	C	1.550184	0.116251	-0.836259
C177	C	1.883517	0.449584	-0.502925
C178	C	1.201027	-0.230019	-1.261063
C179	C	1.534361	0.103315	-0.927730
C180	C	1.867694	0.436648	-0.594396
C181	C	1.168714	-0.256456	-1.114121
C182	C	1.502047	0.076877	-0.780788
C183	C	1.835381	0.410211	-0.447454
C184	C	1.104745	-0.308759	-1.150111
C185	C	1.438078	0.024574	-0.816777
C186	C	1.771411	0.357907	-0.483444
C187	C	1.088924	-0.321692	-1.241573
C188	C	1.422257	0.011641	-0.908239
C189	C	1.755591	0.344974	-0.574906
C190	C	1.137064	-0.282323	-1.297053
C191	C	1.470397	0.051010	-0.963720
C192	C	1.803731	0.384343	-0.630387
C193	C	1.184537	-0.243520	-1.022650
C194	C	1.517871	0.089813	-0.689317
C195	C	1.851204	0.423146	-0.355983
C196	C	1.072431	-0.335197	-1.003169
C197	C	1.405765	-0.001863	-0.669835
C198	C	1.739098	0.331470	-0.336502
C199	C	1.056605	-0.348128	-1.094630
C200	C	1.389938	-0.014795	-0.761297
C201	C	1.723271	0.318539	-0.427963
C202	C	1.232161	-0.204605	-0.413852
C203	C	1.565494	0.128728	-0.080518
C204	C	1.898828	0.462062	0.252815
C205	C	1.249170	-0.190647	-0.316535
C206	C	1.582503	0.142686	0.016799
C207	C	1.915836	0.476020	0.350132
H208	H	0.675487	-0.128440	-0.829978
H209	H	1.008821	0.204894	-0.496644
H210	H	1.342154	0.538227	-0.163311
H211	H	1.124181	-0.292849	-1.371530
H212	H	1.457515	0.040484	-1.038196
H213	H	1.790848	0.373817	-0.704863
F214	F	1.288214	-0.472976	-0.777102
F215	F	1.621548	-0.139643	-0.443769
F216	F	1.954881	0.193691	-0.110436
H217	H	1.236621	-0.200934	-0.993356
H218	H	1.569954	0.132399	-0.660023
H219	H	1.903287	0.465732	-0.326690
H220	H	1.036843	-0.364285	-1.270873
H221	H	1.370177	-0.030952	-0.937540
H222	H	1.703510	0.302381	-0.604207
F223	F	0.554971	-0.335791	-0.469311
F224	F	0.888304	-0.002458	-0.135978
F225	F	1.221637	0.330875	0.197355
H226	H	1.004520	-0.390714	-1.123946
H227	H	1.337854	-0.057380	-0.790612
H228	H	1.671187	0.275953	-0.457279
H229	H	0.710875	-0.345152	-0.452986
H230	H	1.044208	-0.011818	-0.119653
H231	H	1.377542	0.321515	0.213681
H232	H	0.509518	-0.145004	-0.801206
H233	H	0.842852	0.188329	-0.467873
H234	H	1.176185	0.521663	-0.134540
H235	H	1.276884	-1.000715	-0.760836
H236	H	1.610218	-0.667382	-0.427502
H237	H	1.943551	-0.334049	-0.094169
F238	F	1.364366	-0.096454	-1.339596
F239	F	1.697699	0.236880	-1.006262
F240	F	2.031033	0.570213	-0.672929
H241	H	1.108908	-0.873129	-0.522155
H242	H	1.442241	-0.539796	-0.188821
H243	H	1.775575	-0.206463	0.144512
H244	H	1.108959	-0.992398	-0.522198
H245	H	1.442292	-0.659064	-0.188865
H246	H	1.775626	-0.325731	0.144469
F247	F	0.890711	-0.335524	-0.469700
F248	F	1.224044	-0.002190	-0.136367
F249	F	1.557378	0.331143	0.196966
F250	F	1.288280	-0.608677	-0.777143
F251	F	1.621613	-0.275344	-0.443810
F252	F	1.954946	0.057990	-0.110476
H253	H	1.033233	-0.367255	-0.957996
H254	H	1.366567	-0.033922	-0.624663
H255	H	1.699900	0.299411	-0.291329
H256	H	1.108771	-0.591567	-0.522071
H257	H	1.442104	-0.258234	-0.188738
H258	H	1.775438	0.075100	0.144596
F259	F	1.297664	-0.151015	-1.036261
F260	F	1.630997	0.182319	-0.702927
F261	F	1.964331	0.515652	-0.369594
H262	H	1.108702	-0.472299	-0.522030
H263	H	1.442036	-0.138966	-0.188697
H264	H	1.775369	0.194368	0.144636
F265	F	1.288408	-0.873805	-0.777231
F266	F	1.621742	-0.540471	-0.443898
F267	F	1.955075	-0.207138	-0.110564
F268	F	0.798912	-0.176403	-0.746504
F269	F	1.132245	0.156930	-0.413171
F270	F	1.465578	0.490263	-0.079838
F271	F	0.850760	-0.202323	-0.701404
F272	F	1.184093	0.131010	-0.368071
F273	F	1.517426	0.464344	-0.034737
F274	F	0.440566	-0.278611	-0.568804
F275	F	0.773900	0.054722	-0.235470
F276	F	1.107233	0.388055	0.097863
F277	F	1.397038	-0.069749	-1.150787
F278	F	1.730371	0.263585	-0.817454
F279	F	2.063705	0.596918	-0.484120
