data_functionalizedCrystal
_audit_creation_method	'MofGen! by Chris Wilmer'
_symmetry_space_group_name_H-M	'P1'
_symmetry_Int_Tables_number	1
_symmetry_cell_setting	triclinic
loop_
_symmetry_equiv_pos_as_xyz
  x,y,z
_cell_length_a	12.645331
_cell_length_b	12.645330
_cell_length_c	11.169409
_cell_angle_alpha	90.032278
_cell_angle_beta	90.023363
_cell_angle_gamma	90.016671
loop_
_atom_site_label
_atom_site_type_symbol
_atom_site_fract_x
_atom_site_fract_y
_atom_site_fract_z
Zn1	Zn	1.620738	-0.421982	0.678657
Zn2	Zn	1.620618	-0.599293	0.477974
Zn3	Zn	1.443451	-0.422041	0.477978
Zn4	Zn	1.443435	-0.599201	0.678606
O5	O	1.532061	-0.510629	0.578304
O6	O	1.769070	-0.445517	0.652055
O7	O	1.597073	-0.575843	0.310024
O8	O	1.467026	-0.273686	0.504622
O9	O	1.768981	-0.575787	0.504614
O10	O	1.597278	-0.273643	0.652059
O11	O	1.466909	-0.445617	0.310028
O12	O	1.295102	-0.445528	0.504573
O13	O	1.466998	-0.575629	0.846563
O14	O	1.295090	-0.575686	0.651973
O15	O	1.597262	-0.445428	0.846600
O16	O	1.597057	-0.747628	0.504565
O17	O	1.466881	-0.747561	0.651969
C18	C	1.256631	-0.510604	0.578269
C19	C	1.138801	-0.510619	0.578283
C20	C	0.971209	-0.428359	0.486065
C21	C	1.093769	-0.428572	0.485658
C22	C	1.094280	-0.622297	0.543736
C23	C	0.971682	-0.621848	0.543106
C24	C	0.971653	-0.482263	0.705404
C25	C	1.094259	-0.479769	0.704698
C26	C	1.531983	-0.786059	0.578287
C27	C	1.532047	-0.903889	0.578320
C28	C	1.450491	-1.071455	0.671338
C29	C	1.450074	-0.948895	0.671039
C30	C	1.501800	-0.948497	0.451835
C31	C	1.501303	-1.071096	0.452400
C32	C	1.644348	-1.070977	0.610761
C33	C	1.643660	-0.948370	0.613527
C34	C	1.808566	-0.510655	0.578339
C35	C	1.926396	-0.510667	0.578354
C36	C	1.532142	-0.510512	0.891346
C37	C	1.532177	-0.510462	1.024746
C38	C	1.532167	-0.234124	0.578347
C39	C	1.532212	-0.116294	0.578365
C40	C	1.532040	-0.510670	0.266479
C41	C	1.532211	-0.510422	0.133080
H42	H	0.943035	-0.645933	0.450227
N43	N	0.935328	-0.557455	0.791696
N44	N	1.000463	-0.611840	0.849070
H45	H	0.974809	-0.664945	0.910010
H46	H	1.419330	-1.099789	0.424956
H47	H	1.367878	-1.102356	0.650149
N48	N	1.720717	-1.107351	0.525802
N49	N	1.692824	-1.166391	0.441726
H50	H	1.746751	-1.192084	0.381718
H51	H	1.559435	-0.919348	0.380670
H52	H	1.420683	-0.917888	0.423895
H53	H	1.366942	-0.919661	0.649576
N54	N	1.473980	-1.108339	0.789389
N55	N	1.417255	-1.080810	0.875561
H56	H	1.433842	-1.106867	0.958939
H57	H	0.940360	-0.446925	0.392470
N58	N	1.130489	-0.452125	0.367546
N59	N	1.065571	-0.468466	0.285159
H60	H	1.091503	-0.485104	0.201737
N61	N	1.130895	-0.701280	0.625408
N62	N	1.227818	-0.717792	0.636957
H63	H	1.253682	-0.773572	0.694641
N64	N	1.724081	-0.909938	0.534779
N65	N	1.799473	-0.857054	0.575553
H66	H	1.856268	-0.829912	0.519928
N67	N	1.678987	-1.109645	0.724494
N68	N	1.762382	-1.162275	0.731999
H69	H	1.786838	-1.189585	0.812326
N70	N	1.132722	-0.653013	0.428459
N71	N	1.112474	-0.597550	0.338736
H72	H	1.139622	-0.619236	0.257318
N73	N	1.131521	-0.324673	0.512787
N74	N	1.067323	-0.251496	0.532151
H75	H	1.093980	-0.178108	0.551295
N76	N	0.934233	-0.324163	0.512938
N77	N	0.874417	-0.309343	0.600417
H78	H	0.848292	-0.235752	0.619397
H79	H	1.468999	-0.918731	0.764826
H80	H	0.940756	-0.402249	0.736822
H81	H	0.942038	-0.685250	0.607395
N82	N	1.572709	-1.108303	0.362510
N83	N	1.622747	-1.043723	0.299554
H84	H	1.673165	-1.069995	0.236057
N85	N	1.130767	-0.376668	0.737365
N86	N	1.189377	-0.326040	0.667868
H87	H	1.215168	-0.253224	0.690935
H88	H	1.666470	-0.919209	0.706613
H89	H	1.124917	-0.535343	0.777138
