data_functionalizedCrystal
_audit_creation_method	'MofGen! by Chris Wilmer'
_symmetry_space_group_name_H-M	'P1'
_symmetry_Int_Tables_number	1
_symmetry_cell_setting	triclinic
loop_
_symmetry_equiv_pos_as_xyz
  x,y,z
_cell_length_a	9.065215
_cell_length_b	14.044190
_cell_length_c	8.140239
_cell_angle_alpha	89.991557
_cell_angle_beta	89.997810
_cell_angle_gamma	89.103237
loop_
_atom_site_label
_atom_site_type_symbol
_atom_site_fract_x
_atom_site_fract_y
_atom_site_fract_z
O1	O	1.975824	0.139128	-0.136616
O2	O	2.309158	0.472461	0.196717
O3	O	2.642491	0.805795	0.530051
O4	O	1.547804	0.150544	-0.136625
O5	O	1.881138	0.483877	0.196708
O6	O	2.214471	0.817210	0.530042
O7	O	1.755384	0.006796	-0.136588
O8	O	2.088718	0.340129	0.196745
O9	O	2.422051	0.673463	0.530078
O10	O	1.768244	0.282876	-0.136653
O11	O	2.101578	0.616209	0.196681
O12	O	2.434911	0.949542	0.530014
O13	O	1.755372	0.006794	0.136639
O14	O	2.088705	0.340127	0.469972
O15	O	2.422038	0.673461	0.803305
O16	O	1.547792	0.150542	0.136602
O17	O	1.881125	0.483875	0.469935
O18	O	2.214458	0.817209	0.803269
O19	O	1.975812	0.139126	0.136611
O20	O	2.309145	0.472459	0.469944
O21	O	2.642478	0.805793	0.803278
Zn22	Zn	1.761800	0.144834	0.179987
Zn23	Zn	2.095133	0.478167	0.513321
Zn24	Zn	2.428466	0.811500	0.846654
Zn25	Zn	1.761816	0.144836	-0.180001
Zn26	Zn	2.095150	0.478169	0.153332
Zn27	Zn	2.428483	0.811503	0.486665
O28	O	1.768232	0.282874	0.136574
O29	O	2.101565	0.616207	0.469908
O30	O	2.434898	0.949541	0.803241
C31	C	1.492690	0.149446	-0.000012
C32	C	1.826023	0.482780	0.333321
C33	C	2.159357	0.816113	0.666654
C34	C	1.328483	0.146168	-0.000014
C35	C	1.661817	0.479501	0.333319
C36	C	1.995150	0.812835	0.666652
C37	C	1.749752	-0.028568	0.000030
C38	C	2.083085	0.304766	0.333363
C39	C	2.416419	0.638099	0.666697
C40	C	1.732971	-0.133938	0.000044
C41	C	2.066304	0.199396	0.333377
C42	C	2.399638	0.532729	0.666710
C43	C	1.821307	-0.383466	-0.000019
C44	C	2.154641	-0.050133	0.333315
C45	C	2.487974	0.283200	0.666648
C46	C	1.702315	-0.326858	-0.000010
C47	C	2.035649	0.006475	0.333324
C48	C	2.368982	0.339809	0.666657
C49	C	1.719376	-0.219507	0.000020
C50	C	2.052710	0.113826	0.333353
C51	C	2.386043	0.447159	0.666687
C52	C	1.804249	-0.490827	-0.000048
C53	C	2.137582	-0.157494	0.333285
C54	C	2.470915	0.175840	0.666618
C55	C	2.030926	0.140224	-0.000005
C56	C	2.364259	0.473557	0.333328
C57	C	2.697593	0.806890	0.666661
C58	C	2.195133	0.143502	-0.000014
C59	C	2.528466	0.476835	0.333319
C60	C	2.861799	0.810169	0.666653
C61	C	1.773864	0.318238	-0.000048
C62	C	2.107197	0.651571	0.333286
C63	C	2.440530	0.984904	0.666619
C64	C	1.790645	0.423608	-0.000072
C65	C	2.123978	0.756941	0.333261
C66	C	2.457312	1.090274	0.666594
N67	N	1.761799	0.144832	0.425670
N68	N	2.095132	0.478165	0.759003
N69	N	2.428466	0.811498	1.092336
N70	N	1.761828	0.144831	-0.425684
N71	N	2.095161	0.478164	-0.092350
N72	N	2.428494	0.811497	0.240983
H73	H	1.587630	-0.359017	-0.000022
H74	H	1.920963	-0.025684	0.333312
H75	H	2.254297	0.307649	0.666645
H76	H	1.935983	-0.351309	0.000001
H77	H	2.269317	-0.017976	0.333334
H78	H	2.602650	0.315358	0.666667
