data_functionalizedCrystal
_audit_creation_method	'MofGen! by Chris Wilmer'
_symmetry_space_group_name_H-M	'P1'
_symmetry_Int_Tables_number	1
_symmetry_cell_setting	triclinic
loop_
_symmetry_equiv_pos_as_xyz
  x,y,z
_cell_length_a	19.805407
_cell_length_b	21.295416
_cell_length_c	19.805399
_cell_angle_alpha	90.028370
_cell_angle_beta	89.975799
_cell_angle_gamma	89.970422
loop_
_atom_site_label
_atom_site_type_symbol
_atom_site_fract_x
_atom_site_fract_y
_atom_site_fract_z
Zn1	Zn	1.034717	0.250636	-0.382799
Zn2	Zn	1.034624	0.355905	-0.269610
Zn3	Zn	0.921532	0.250652	-0.269615
Zn4	Zn	0.921488	0.355870	-0.382747
O5	O	0.978090	0.303266	-0.326193
O6	O	1.129422	0.264608	-0.367804
O7	O	1.019602	0.341964	-0.174894
O8	O	0.936604	0.162561	-0.284653
O9	O	1.129353	0.341949	-0.284644
O10	O	1.019760	0.162549	-0.367809
O11	O	0.936513	0.264636	-0.174898
O12	O	0.826809	0.264602	-0.284603
O13	O	0.936528	0.341890	-0.477471
O14	O	0.826777	0.341905	-0.367720
O15	O	1.019717	0.264575	-0.477509
O16	O	1.019559	0.443990	-0.284594
O17	O	0.936438	0.443964	-0.367715
C18	C	0.802234	0.303252	-0.326157
C19	C	0.727002	0.303261	-0.326157
C20	C	0.265212	0.343594	-0.369448
C21	C	0.335901	0.343592	-0.369433
C22	C	0.371241	0.303281	-0.326219
C23	C	0.335889	0.262973	-0.283012
C24	C	0.265201	0.262978	-0.283023
C25	C	0.620962	0.262954	-0.282964
C26	C	0.691654	0.262951	-0.282958
C27	C	0.691661	0.343568	-0.369374
C28	C	0.620974	0.343573	-0.369386
C29	C	0.585628	0.303268	-0.326176
C30	C	0.508980	0.303270	-0.326191
C31	C	0.447888	0.303275	-0.326207
C32	C	0.978002	0.466818	-0.326163
C33	C	0.978026	0.536786	-0.326173
C34	C	1.021346	0.569645	-0.282937
C35	C	1.021378	0.635387	-0.282955
C36	C	0.978078	0.668268	-0.326202
C37	C	0.934755	0.635401	-0.369446
C38	C	0.934729	0.569660	-0.369432
N39	N	0.918868	0.771533	-0.331355
N40	N	0.918895	0.833985	-0.331365
C41	C	0.978155	0.866343	-0.326250
N42	N	1.037388	0.833890	-0.321112
N43	N	1.037361	0.771433	-0.321098
C44	C	0.978102	0.739554	-0.326223
C45	C	1.021513	0.970488	-0.283032
C46	C	1.021546	1.036231	-0.283055
C47	C	0.934917	1.036244	-0.369542
C48	C	0.934890	0.970501	-0.369523
C49	C	0.978187	0.937627	-0.326264
C50	C	1.154633	0.303281	-0.326229
C51	C	1.229865	0.303287	-0.326245
C52	C	0.978128	0.303226	-0.502736
C53	C	0.978144	0.303210	-0.577968
C54	C	0.978198	1.139076	-0.326249
C55	C	0.978246	1.069108	-0.326303
C56	C	1.021462	0.262950	-0.613333
C57	C	1.021469	0.262931	-0.684021
C58	C	0.978161	0.303177	-0.719343
C59	C	0.934839	0.343438	-0.683973
C60	C	0.934829	0.343453	-0.613286
C61	C	0.934877	0.343380	-0.969047
C62	C	0.934892	0.343363	-1.039739
C63	C	1.021517	0.262858	-1.039782
C64	C	1.021507	0.262873	-0.969095
C65	C	0.978183	0.303132	-0.933731
C66	C	0.978175	0.303150	-0.857082
C67	C	0.978172	0.303162	-0.795991
C68	C	0.978091	0.303260	-0.150337
C69	C	0.978206	0.303100	-0.075105
H70	H	0.364668	0.230154	-0.247823
O71	O	1.063614	0.223805	-0.718270
C72	C	1.149515	0.143933	-0.710854
C73	C	1.101829	0.188224	-0.671983
H74	H	1.180414	0.115145	-0.673448
H75	H	1.184935	0.172802	-0.743932
H76	H	1.118458	0.111032	-0.743965
H77	H	1.132831	0.221134	-0.638835
H78	H	1.066408	0.159316	-0.638948
O79	O	0.892786	0.382371	-1.074128
C80	C	0.801392	0.390806	-1.153889
C81	C	0.849038	0.346562	-1.114997
H82	H	0.766001	0.361872	-1.186930
H83	H	0.832416	0.423707	-1.187025
H84	H	0.770454	0.419598	-1.116461
H85	H	0.879986	0.317729	-1.152376
H86	H	0.817976	0.313702	-1.081851
O87	O	1.063516	0.667351	-0.241041
C88	C	1.154874	0.741564	-0.232005
C89	C	1.107217	0.705392	-0.279556
H90	H	1.190209	0.772339	-0.263124
H91	H	1.185865	0.706812	-0.201087
H92	H	1.123791	0.772354	-0.196590
H93	H	1.138248	0.674601	-0.315011
H94	H	1.076224	0.740178	-0.310426
H95	H	0.720448	0.376389	-0.404556
H96	H	0.899609	0.376170	-0.940262
H97	H	1.056792	0.230075	-1.068584
O98	O	0.892831	0.382511	-0.718387
C99	C	0.854424	0.418143	-0.827263
C100	C	0.902043	0.373870	-0.788376
H101	H	0.861845	0.411162	-0.883855
H102	H	0.866274	0.468920	-0.813403
H103	H	0.799860	0.407092	-0.813312
H104	H	0.956623	0.384864	-0.802306
H105	H	0.890135	0.323106	-0.802239
O106	O	0.892737	0.382629	-0.579035
C107	C	0.806802	0.462469	-0.586447
C108	C	0.854446	0.418142	-0.625319
H109	H	0.775821	0.491183	-0.623852
H110	H	0.837827	0.495432	-0.553375
H111	H	0.771451	0.433569	-0.553329
H112	H	0.889807	0.446991	-0.658474
H113	H	0.823380	0.385176	-0.658349
H114	H	0.720426	0.230122	-0.247766
H115	H	0.592192	0.230137	-0.247778
H116	H	0.592203	0.376396	-0.404578
O117	O	1.063477	0.223739	-0.934714
C118	C	1.072602	0.138727	-0.854981
C119	C	1.025001	0.183025	-0.893857
H120	H	1.041512	0.105790	-0.821949
H121	H	1.107966	0.167590	-0.821837
H122	H	1.103572	0.109977	-0.892419
H123	H	0.993987	0.211785	-0.856468
H124	H	0.989681	0.154126	-0.927011
H125	H	1.056770	0.943720	-0.247810
H126	H	0.899502	0.662177	-0.404659
H127	H	1.056826	1.062984	-0.247849
H128	H	0.236443	0.376416	-0.404641
O129	O	0.892707	0.537640	-0.411408
C130	C	0.854244	0.436368	-0.449679
C131	C	0.901881	0.472553	-0.402120
H132	H	0.861634	0.383738	-0.442176
H133	H	0.866104	0.449197	-0.504288
H134	H	0.799686	0.449386	-0.437749
H135	H	0.956454	0.459554	-0.413989
H136	H	0.889962	0.459720	-0.347526
O137	O	0.370341	0.382720	-0.411343
C138	C	0.479242	0.418410	-0.449667
C139	C	0.440323	0.374077	-0.402154
H140	H	0.535829	0.411428	-0.442264
H141	H	0.465364	0.469171	-0.437693
H142	H	0.465338	0.407420	-0.504257
H143	H	0.454206	0.385010	-0.347548
H144	H	0.454205	0.323329	-0.414186
O145	O	0.230968	0.223764	-0.241036
C146	C	0.238416	0.143827	-0.155287
C147	C	0.277268	0.188192	-0.202819
H148	H	0.275833	0.115065	-0.124367
H149	H	0.205373	0.110909	-0.186397
H150	H	0.205271	0.172699	-0.119875
H151	H	0.310451	0.159370	-0.238241
H152	H	0.310269	0.221112	-0.171667
H153	H	0.899664	1.063015	-0.404758
O154	O	1.063474	0.537809	-0.240902
C155	C	1.149372	0.544738	-0.155097
C156	C	1.101706	0.580871	-0.202674
H157	H	1.180286	0.579538	-0.124166
H158	H	1.184780	0.513930	-0.186171
H159	H	1.118299	0.513988	-0.119695
H160	H	1.132725	0.611655	-0.238085
H161	H	1.066297	0.611639	-0.171558
O162	O	0.892738	0.938676	-0.411537
C163	C	0.806844	0.945628	-0.497346
C164	C	0.854537	0.981748	-0.449785
H165	H	0.775956	0.980436	-0.528292
H166	H	0.771415	0.914918	-0.466258
H167	H	0.837895	0.914783	-0.532734
H168	H	0.823540	1.012628	-0.414388
H169	H	0.889968	1.012419	-0.480915
H170	H	1.056730	0.230179	-0.584579
