data_functionalizedCrystal
_audit_creation_method	'MofGen! by Chris Wilmer'
_symmetry_space_group_name_H-M	'P1'
_symmetry_Int_Tables_number	1
_symmetry_cell_setting	triclinic
loop_
_symmetry_equiv_pos_as_xyz
  x,y,z
_cell_length_a	13.262390
_cell_length_b	10.489716
_cell_length_c	11.804365
_cell_angle_alpha	101.956103
_cell_angle_beta	62.657606
_cell_angle_gamma	84.480389
loop_
_atom_site_label
_atom_site_type_symbol
_atom_site_fract_x
_atom_site_fract_y
_atom_site_fract_z
O1	O	1.519425	0.018741	-0.591143
O2	O	1.191433	0.064929	-0.484911
O3	O	1.362908	-0.144434	-0.540454
O4	O	1.347951	0.228104	-0.535601
O5	O	1.317765	-0.089368	-0.327775
O6	O	1.146290	0.119995	-0.272233
O7	O	1.474282	0.073807	-0.378465
Cu8	Cu	1.306164	0.101929	-0.305930
Cu9	Cu	1.359551	0.036807	-0.557446
O10	O	1.302807	0.283170	-0.322922
C11	C	1.126862	0.094937	-0.364969
C12	C	1.001718	0.102298	-0.324437
C13	C	0.747400	0.002958	-0.673928
C14	C	0.864980	-0.003964	-0.712012
C15	C	0.899171	0.022601	-0.615121
C16	C	0.815769	0.056089	-0.480141
C17	C	0.698178	0.063001	-0.442053
C18	C	0.849949	0.082644	-0.383247
C19	C	0.766547	0.116132	-0.248266
C20	C	0.648968	0.123044	-0.210185
C21	C	0.614778	0.096479	-0.307075
C22	C	0.967540	0.075732	-0.421334
C23	C	0.918318	0.135775	-0.189459
C24	C	0.800738	0.142697	-0.151375
C25	C	1.339214	-0.164334	-0.433754
C26	C	1.335854	-0.305667	-0.432677
C27	C	1.441005	-0.412730	-0.466723
C28	C	1.407697	-0.512277	-0.553585
C29	C	1.363165	-0.457949	-0.343893
C30	C	1.302608	-0.403375	-0.519639
C31	C	1.258072	-0.349019	-0.309858
C32	C	1.224692	-0.448516	-0.396720
C33	C	1.538854	0.043798	-0.498410
C34	C	1.664000	0.036435	-0.538950
C35	C	1.326502	0.303069	-0.429624
C36	C	1.329864	0.444401	-0.430710
N37	N	1.268623	0.147730	-0.129029
N38	N	1.397101	-0.009005	-0.734350
C39	C	1.487252	-0.119015	0.174104
C40	C	1.515650	-0.153669	0.040243
C41	C	1.453896	-0.078322	-0.002082
C42	C	1.363738	0.031684	0.089467
C43	C	1.335342	0.066348	0.223339
C44	C	1.301986	0.107041	0.047154
C45	C	1.211829	0.217048	0.138703
C46	C	1.183437	0.251705	0.272561
C47	C	1.245192	0.176358	0.314886
C48	C	1.330382	0.072377	-0.086718
C49	C	1.178473	0.257740	-0.037482
C50	C	1.150074	0.292394	0.096378
H51	H	0.581066	0.150289	-0.100275
O52	O	1.115540	-0.467930	-0.361634
C53	C	1.084013	-0.440507	-0.454503
H54	H	1.165907	-0.451608	-0.552667
H55	H	1.030005	-0.334081	-0.414647
C56	C	0.911325	-0.525684	-0.356615
C57	C	1.011908	-0.539330	-0.477186
H58	H	0.866843	-0.586638	-0.370604
H59	H	0.932562	-0.544155	-0.294044
H60	H	0.866332	-0.436992	-0.323415
H61	H	1.056906	-0.628016	-0.510375
H62	H	0.990677	-0.520876	-0.539763
O63	O	0.714271	-0.023082	-0.768095
C64	C	0.769875	-0.154357	-0.851802
H65	H	0.796107	-0.216512	-0.797130
H66	H	0.850784	-0.151913	-0.945328
C67	C	0.653667	-0.140752	-0.957902
C68	C	0.685876	-0.217095	-0.890749
H69	H	0.601856	-0.179452	-0.981932
H70	H	0.616208	-0.052308	-0.901511
H71	H	0.721099	-0.138722	-1.035832
H72	H	0.618447	-0.219110	-0.812813
H73	H	0.723322	-0.305542	-0.947128
H74	H	0.732816	0.169963	-0.041472
H75	H	1.403788	-0.017190	-0.161246
H76	H	1.532492	-0.396251	-0.496454
O77	O	1.182848	-0.265045	-0.186882
C78	C	1.215167	-0.292404	-0.094586
H79	H	1.311343	-0.343446	-0.149132
H80	H	1.160967	-0.360945	-0.041399
C81	C	1.075642	-0.098059	0.075061
C82	C	1.193770	-0.160741	0.008068
H83	H	1.062439	-0.016845	0.138387
H84	H	1.053865	-0.079629	0.012882
H85	H	1.030489	-0.155191	0.119372
H86	H	1.238919	-0.103616	-0.036255
H87	H	1.215555	-0.179158	0.070242
H88	H	1.110035	0.341287	0.347099
O89	O	1.603045	-0.260802	-0.048378
C90	C	1.576519	-0.376848	-0.009022
H91	H	1.478430	-0.360661	0.056912
H92	H	1.622024	-0.398884	0.048768
C93	C	1.739048	-0.515589	-0.214142
C94	C	1.618573	-0.495712	-0.133170
H95	H	1.764993	-0.588912	-0.290722
H96	H	1.756922	-0.437407	-0.240656
H97	H	1.776954	-0.533946	-0.165969
H98	H	1.580668	-0.477339	-0.181338
H99	H	1.600693	-0.573894	-0.106668
H100	H	0.946154	0.157405	-0.110563
O101	O	1.483259	-0.596247	-0.676458
C102	C	1.597128	-0.578761	-0.713013
H103	H	1.602534	-0.534620	-0.619736
H104	H	1.619719	-0.508051	-0.778211
C105	C	1.677053	-0.769022	-0.905436
C106	C	1.683695	-0.714817	-0.790871
H107	H	1.730453	-0.852945	-0.953468
H108	H	1.600337	-0.780800	-0.880813
H109	H	1.695876	-0.710084	-0.959752
H110	H	1.664857	-0.773747	-0.736550
H111	H	1.760410	-0.703052	-0.815488
O112	O	1.393707	-0.487391	-0.255380
C113	C	1.389015	-0.620945	-0.254644
H114	H	1.398150	-0.679971	-0.352784
H115	H	1.302115	-0.623656	-0.168943
C116	C	1.477719	-0.610940	-0.116503
C117	C	1.488948	-0.683439	-0.237045
H118	H	1.539359	-0.649489	-0.105641
H119	H	1.480877	-0.520960	-0.116994
H120	H	1.405299	-0.613205	-0.045098
H121	H	1.561361	-0.681159	-0.308447
H122	H	1.485805	-0.773421	-0.236565
O123	O	1.062356	0.399125	0.185309
C124	C	0.957559	0.378681	0.188790
H125	H	0.964004	0.267138	0.152422
H126	H	0.941490	0.431819	0.121645
C127	C	0.848168	0.572243	0.377090
C128	C	0.856080	0.435243	0.332433
H129	H	0.785570	0.607139	0.465694
H130	H	0.918772	0.586021	0.374743
H131	H	0.834782	0.616507	0.321124
H132	H	0.869481	0.390980	0.388389
H133	H	0.785476	0.421460	0.334794
O134	O	1.481590	-0.112205	-0.132148
C135	C	1.574424	-0.225436	-0.203881
H136	H	1.577122	-0.282933	-0.132913
H137	H	1.659919	-0.192352	-0.253713
C138	C	1.553383	-0.245529	-0.397956
C139	C	1.556690	-0.316153	-0.310793
H140	H	1.542448	-0.301486	-0.463908
H141	H	1.490842	-0.169240	-0.349630
H142	H	1.624631	-0.217963	-0.439469
H143	H	1.485438	-0.343704	-0.269269
H144	H	1.619219	-0.392449	-0.359114
O145	O	1.118575	0.331123	-0.078557
C146	C	1.130944	0.464352	-0.052083
H147	H	1.213384	0.467438	-0.044532
H148	H	1.052289	0.526805	0.045768
C149	C	1.038089	0.517563	-0.174823
C150	C	1.139349	0.521352	-0.165559
H151	H	1.043268	0.552726	-0.244815
H152	H	1.029751	0.427805	-0.192655
H153	H	0.972553	0.569605	-0.093273
H154	H	1.204880	0.469296	-0.247101
H155	H	1.147698	0.611102	-0.147743
H156	H	1.277081	-0.379087	-0.594018
H157	H	1.537530	-0.180346	0.208573
H158	H	1.222067	0.204570	0.423886
H159	H	1.035435	0.048469	-0.531236
H160	H	0.932879	-0.031237	-0.821913
H161	H	0.519036	0.102118	-0.276074
H162	H	0.994911	0.016964	-0.646138
