data_functionalizedCrystal
_audit_creation_method	'MofGen! by Chris Wilmer'
_symmetry_space_group_name_H-M	'P1'
_symmetry_Int_Tables_number	1
_symmetry_cell_setting	triclinic
loop_
_symmetry_equiv_pos_as_xyz
  x,y,z
_cell_length_a	18.215407
_cell_length_b	10.685194
_cell_length_c	18.215399
_cell_angle_alpha	85.603424
_cell_angle_beta	89.983101
_cell_angle_gamma	94.374677
loop_
_atom_site_label
_atom_site_type_symbol
_atom_site_fract_x
_atom_site_fract_y
_atom_site_fract_z
Zn1	Zn	1.102695	-0.502506	-0.393598
Zn2	Zn	1.436028	-0.169172	-0.060264
Zn3	Zn	1.769362	0.164161	0.273069
Zn4	Zn	1.093205	-0.713547	-0.261098
Zn5	Zn	1.426539	-0.380214	0.072235
Zn6	Zn	1.759872	-0.046881	0.405568
Zn7	Zn	0.979626	-0.502536	-0.270550
Zn8	Zn	1.312959	-0.169203	0.062783
Zn9	Zn	1.646293	0.164131	0.396117
Zn10	Zn	0.970199	-0.713466	-0.384133
Zn11	Zn	1.303532	-0.380133	-0.050800
Zn12	Zn	1.636866	-0.046800	0.282533
O13	O	1.036431	-0.608014	-0.327345
O14	O	1.369765	-0.274681	0.005989
O15	O	1.703098	0.058653	0.339322
O16	O	1.204419	-0.530522	-0.376027
O17	O	1.537753	-0.197189	-0.042693
O18	O	1.871086	0.136144	0.290640
O19	O	1.078113	-0.685603	-0.159366
O20	O	1.411446	-0.352270	0.173968
O21	O	1.744779	-0.018936	0.507301
O22	O	1.003868	-0.325935	-0.294789
O23	O	1.337201	0.007398	0.038544
O24	O	1.670535	0.340731	0.371878
O25	O	1.197448	-0.685574	-0.278680
O26	O	1.530781	-0.352240	0.054653
O27	O	1.864114	-0.018907	0.387987
O28	O	1.094286	-0.325913	-0.385191
O29	O	1.427620	0.007420	-0.051858
O30	O	1.760953	0.340754	0.281475
O31	O	0.994667	-0.530574	-0.166310
O32	O	1.328000	-0.197241	0.167024
O33	O	1.661333	0.136093	0.500357
O34	O	0.875392	-0.530495	-0.285612
O35	O	1.208726	-0.197162	0.047722
O36	O	1.542059	0.136172	0.381055
O37	O	0.987801	-0.685435	-0.488375
O38	O	1.321134	-0.352102	-0.155042
O39	O	1.654468	-0.018769	0.178292
O40	O	0.868466	-0.685465	-0.369061
O41	O	1.201800	-0.352131	-0.035727
O42	O	1.535133	-0.018798	0.297606
O43	O	1.085145	-0.530443	-0.495329
O44	O	1.418479	-0.197110	-0.161995
O45	O	1.751812	0.136223	0.171338
O46	O	1.068972	-0.890133	-0.269503
O47	O	1.402305	-0.556800	0.063831
O48	O	1.735638	-0.223467	0.397164
O49	O	0.978600	-0.890074	-0.359896
O50	O	1.311933	-0.556740	-0.026563
O51	O	1.645266	-0.223407	0.306771
C52	C	0.845227	-0.607975	-0.327335
C53	C	1.178560	-0.274642	0.005998
C54	C	1.511894	0.058691	0.339332
C55	C	0.763427	-0.607989	-0.327347
C56	C	1.096761	-0.274656	0.005986
C57	C	1.430094	0.058678	0.339320
C58	C	0.494776	-0.688839	-0.370726
C59	C	0.828109	-0.355506	-0.037393
C60	C	1.161442	-0.022172	0.295940
C61	C	0.571635	-0.688828	-0.370723
C62	C	0.904968	-0.355495	-0.037390
C63	C	1.238302	-0.022162	0.295944
C64	C	0.578827	-0.527217	-0.283975
C65	C	0.912160	-0.193884	0.049358
C66	C	1.245494	0.139450	0.382692
C67	C	0.501969	-0.527235	-0.283975
C68	C	0.835302	-0.193902	0.049359
C69	C	1.168636	0.139432	0.382692
C70	C	0.459945	-0.608044	-0.327354
C71	C	0.793279	-0.274711	0.005979
C72	C	1.126612	0.058622	0.339312
C73	C	0.613663	-0.608015	-0.327352
C74	C	0.946996	-0.274682	0.005982
C75	C	1.280329	0.058651	0.339315
C76	C	0.696997	-0.608003	-0.327348
C77	C	1.030330	-0.274670	0.005985
C78	C	1.363664	0.058664	0.339319
C79	C	0.376606	-0.608059	-0.327357
C80	C	0.709939	-0.274725	0.005976
C81	C	1.043272	0.058608	0.339309
C82	C	1.021753	-0.935893	-0.312663
C83	C	1.355086	-0.602560	0.020671
C84	C	1.688420	-0.269226	0.354004
C85	C	1.015541	-1.076161	-0.306406
C86	C	1.348874	-0.742828	0.026927
C87	C	1.682207	-0.409494	0.360260
C88	C	1.228383	-0.608054	-0.327355
C89	C	1.561716	-0.274720	0.005979
C90	C	1.895049	0.058613	0.339312
C91	C	1.310181	-0.608071	-0.327359
C92	C	1.643514	-0.274737	0.005974
C93	C	1.976847	0.058596	0.339308
C94	C	1.036480	-0.607927	-0.519302
C95	C	1.369813	-0.274594	-0.185968
C96	C	1.703147	0.058740	0.147365
C97	C	1.036501	-0.607890	-0.601102
C98	C	1.369834	-0.274556	-0.267769
C99	C	1.703168	0.058777	0.065564
C100	C	1.051187	-0.278854	-0.342100
C101	C	1.384521	0.054479	-0.008767
C102	C	1.717854	0.387812	0.324566
C103	C	1.057475	-0.138586	-0.348388
C104	C	1.390809	0.194747	-0.015055
C105	C	1.724142	0.528080	0.318279
C106	C	1.087208	-0.527110	-0.792921
C107	C	1.420542	-0.193777	-0.459588
C108	C	1.753875	0.139557	-0.126255
C109	C	1.087219	-0.527073	-0.869782
C110	C	1.420552	-0.193740	-0.536449
C111	C	1.753885	0.139593	-0.203115
C112	C	0.985854	-0.688474	-0.862530
C113	C	1.319188	-0.355141	-0.529196
C114	C	1.652521	-0.021808	-0.195863
C115	C	0.985841	-0.688504	-0.785671
C116	C	1.319174	-0.355170	-0.452338
C117	C	1.652508	-0.021837	-0.119004
C118	C	1.036522	-0.607824	-0.750869
C119	C	1.369855	-0.274490	-0.417535
C120	C	1.703189	0.058843	-0.084202
C121	C	1.036546	-0.607757	-0.904588
C122	C	1.369879	-0.274424	-0.571255
C123	C	1.703212	0.058909	-0.237921
C124	C	1.036557	-0.607718	-0.987923
C125	C	1.369890	-0.274385	-0.654590
C126	C	1.703223	0.058949	-0.321257
C127	C	1.036510	-0.607861	-0.667528
C128	C	1.369844	-0.274527	-0.334195
C129	C	1.703177	0.058806	-0.000861
C130	C	1.036429	-0.608009	-0.136139
C131	C	1.369763	-0.274676	0.197195
C132	C	1.703096	0.058657	0.530528
C133	C	1.036567	-0.607691	-0.054354
C134	C	1.369900	-0.274358	0.278979
C135	C	1.703234	0.058976	0.612312
H136	H	0.460562	-0.754639	-0.406049
H137	H	0.793895	-0.421306	-0.072715
H138	H	1.127229	-0.087973	0.260618
H139	H	0.473610	-0.461440	-0.248653
H140	H	0.806943	-0.128107	0.084681
H141	H	1.140276	0.205226	0.418014
Br142	Br	0.635864	-0.417548	-0.225108
Br143	Br	0.969197	-0.084215	0.108225
Br144	Br	1.302530	0.249119	0.441558
H145	H	0.974877	-1.130032	-0.265678
H146	H	1.308210	-0.796699	0.067656
H147	H	1.641543	-0.463365	0.400989
H148	H	0.944561	-0.754229	-0.751430
H149	H	1.277894	-0.420896	-0.418097
H150	H	1.611228	-0.087563	-0.084764
H151	H	1.098131	-1.084723	-0.389121
H152	H	1.431464	-0.751390	-0.055787
H153	H	1.764797	-0.418056	0.277546
H154	H	0.599990	-0.754621	-0.406040
H155	H	0.933323	-0.421287	-0.072707
H156	H	1.266657	-0.087954	0.260627
Br157	Br	1.155988	-0.417614	-0.745692
Br158	Br	1.489321	-0.084281	-0.412359
Br159	Br	1.822654	0.249053	-0.079025
H160	H	1.128491	-0.461346	-0.904018
H161	H	1.461825	-0.128013	-0.570685
H162	H	1.795158	0.205320	-0.237352
H163	H	0.944593	-0.754164	-0.890875
H164	H	1.277926	-0.420831	-0.557542
H165	H	1.611260	-0.087497	-0.224208
