data_functionalizedCrystal
_audit_creation_method	'MofGen! by Chris Wilmer'
_symmetry_space_group_name_H-M	'P1'
_symmetry_Int_Tables_number	1
_symmetry_cell_setting	triclinic
loop_
_symmetry_equiv_pos_as_xyz
  x,y,z
_cell_length_a	12.759394
_cell_length_b	17.077404
_cell_length_c	17.077396
_cell_angle_alpha	89.981638
_cell_angle_beta	89.973684
_cell_angle_gamma	90.012807
loop_
_atom_site_label
_atom_site_type_symbol
_atom_site_fract_x
_atom_site_fract_y
_atom_site_fract_z
Zn1	Zn	-0.418323	1.200099	-0.443831
Zn2	Zn	0.081677	1.700099	0.056169
Zn3	Zn	-0.594024	1.200024	-0.312570
Zn4	Zn	-0.094024	1.700024	0.187430
Zn5	Zn	-0.418353	1.068830	-0.312581
Zn6	Zn	0.081647	1.568830	0.187419
Zn7	Zn	-0.593955	1.068817	-0.443796
Zn8	Zn	-0.093955	1.568817	0.056204
O9	O	-0.506164	1.134442	-0.378194
O10	O	-0.006164	1.634442	0.121806
O11	O	-0.441647	1.309936	-0.426428
O12	O	0.058353	1.809936	0.073572
O13	O	-0.570762	1.182595	-0.202724
O14	O	-0.070762	1.682595	0.297276
O15	O	-0.271328	1.086280	-0.330011
O16	O	0.228672	1.586280	0.169989
O17	O	-0.570733	1.309881	-0.329991
O18	O	-0.070733	1.809881	0.170009
O19	O	-0.271306	1.182722	-0.426440
O20	O	0.228694	1.682722	0.073560
O21	O	-0.441698	1.086208	-0.202733
O22	O	0.058302	1.586208	0.297267
O23	O	-0.441631	0.958982	-0.329977
O24	O	0.058369	1.458982	0.170023
O25	O	-0.570615	1.086257	-0.553647
O26	O	-0.070615	1.586257	-0.053647
O27	O	-0.570644	0.958972	-0.426380
O28	O	-0.070644	1.458972	0.073620
O29	O	-0.441580	1.182709	-0.553673
O30	O	0.058420	1.682709	-0.053673
O31	O	-0.741036	1.182582	-0.329958
O32	O	-0.241036	1.682582	0.170042
O33	O	-0.740985	1.086185	-0.426369
O34	O	-0.240985	1.586185	0.073631
C35	C	-0.506134	0.930495	-0.378177
C36	C	-0.006134	1.430495	0.121823
C37	C	-0.506147	0.843245	-0.378188
C38	C	-0.006147	1.343245	0.121812
C39	C	-0.439051	0.802284	-0.428479
C40	C	0.060949	1.302284	0.071521
C41	C	-0.439058	0.720303	-0.428483
C42	C	0.060942	1.220303	0.071517
C43	C	-0.506166	0.679285	-0.378198
C44	C	-0.006166	1.179285	0.121802
C45	C	-0.573265	0.720252	-0.327902
C46	C	-0.073265	1.220252	0.172098
C47	C	-0.573252	0.802231	-0.327895
C48	C	-0.073252	1.302231	0.172105
C49	C	-0.573289	0.549382	-0.327921
C50	C	-0.073289	1.049382	0.172079
C51	C	-0.573303	0.467397	-0.327929
C52	C	-0.073303	0.967397	0.172071
C53	C	-0.439094	0.467454	-0.428509
C54	C	0.060906	0.967454	0.071491
C55	C	-0.439081	0.549433	-0.428502
C56	C	0.060919	1.049433	0.071498
C57	C	-0.506182	0.590394	-0.378206
C58	C	-0.006182	1.090394	0.121794
C59	C	-0.779131	1.134395	-0.378175
C60	C	-0.279131	1.634395	0.121825
C61	C	-0.895908	1.134447	-0.378193
C62	C	-0.395908	1.634447	0.121807
C63	C	-0.895908	1.234901	-0.277876
C64	C	-0.395908	1.734901	0.222124
C65	C	-0.950768	1.285148	-0.227726
C66	C	-0.450768	1.785148	0.272274
C67	C	-1.060490	1.285194	-0.227747
C68	C	-0.560490	1.785194	0.272253
C69	C	-1.115353	1.234989	-0.277925
C70	C	-0.615353	1.734989	0.222075
C71	C	-1.060493	1.184742	-0.328075
C72	C	-0.560493	1.684742	0.171925
C73	C	-0.950769	1.184700	-0.328047
C74	C	-0.450769	1.684700	0.171953
C75	C	-1.060493	1.084293	-0.428396
C76	C	-0.560493	1.584293	0.071604
C77	C	-0.950772	1.084242	-0.428372
C78	C	-0.450772	1.584242	0.071628
C79	C	-1.115357	1.034088	-0.478574
C80	C	-0.615357	1.534088	0.021426
C81	C	-1.060496	0.983835	-0.528721
C82	C	-0.560496	1.483835	-0.028721
C83	C	-0.950768	0.983791	-0.528697
C84	C	-0.450768	1.483791	-0.028697
C85	C	-0.895911	1.033994	-0.478521
C86	C	-0.395911	1.533994	0.021479
C87	C	-0.232130	1.134511	-0.378231
C88	C	0.267870	1.634511	0.121769
C89	C	-0.115354	1.134540	-0.378246
C90	C	0.384646	1.634540	0.121754
C91	C	-0.506086	1.134490	-0.582939
C92	C	-0.006086	1.634490	-0.082939
C93	C	-0.506054	1.134510	-0.670189
C94	C	-0.006054	1.634510	-0.170189
C95	C	-0.506195	1.339187	-0.378212
C96	C	-0.006195	1.839187	0.121788
C97	C	-0.506208	1.426436	-0.378220
C98	C	-0.006208	1.926436	0.121780
C99	C	-0.438859	1.184735	-0.711193
C100	C	0.061141	1.684735	-0.211193
C101	C	-0.438824	1.184744	-0.793174
C102	C	0.061176	1.684744	-0.293174
C103	C	-0.505990	1.134532	-0.834148
C104	C	-0.005990	1.634532	-0.334148
C105	C	-0.573187	1.084302	-0.793138
C106	C	-0.073187	1.584302	-0.293138
C107	C	-0.573216	1.084290	-0.711159
C108	C	-0.073216	1.584290	-0.211159
C109	C	-0.573124	1.084334	-0.964008
C110	C	-0.073124	1.584334	-0.464008
C111	C	-0.573097	1.084348	-1.045992
C112	C	-0.073097	1.584348	-0.545992
C113	C	-0.438732	1.184788	-1.046023
C114	C	0.061268	1.684788	-0.546023
C115	C	-0.438761	1.184776	-0.964044
C116	C	0.061239	1.684776	-0.464044
C117	C	-0.505960	1.134546	-0.923039
C118	C	-0.005960	1.634546	-0.423039
C119	C	-0.506165	1.134440	-0.174246
C120	C	-0.006165	1.634440	0.325754
C121	C	-0.505902	1.134572	-0.086997
C122	C	-0.005902	1.634572	0.413003
H123	H	-0.384423	0.686957	-0.469437
H124	H	0.115577	1.186957	0.030563
Br125	Br	-0.876323	0.915600	-0.596768
Br126	Br	-0.376323	1.415600	-0.096768
Br127	Br	-0.664360	0.604972	-0.259666
Br128	Br	-0.164360	1.104972	0.240334
H129	H	-0.384442	0.582828	-0.469453
H130	H	0.115558	1.082828	0.030547
H131	H	-0.627901	0.686849	-0.286955
H132	H	-0.127901	1.186849	0.213045
Br133	Br	-0.664240	1.016195	-1.101600
Br134	Br	-0.164240	1.516195	-0.601600
Br135	Br	-0.347977	0.857943	-0.496732
Br136	Br	0.152023	1.357943	0.003268
Br137	Br	-0.664411	0.411730	-0.259708
Br138	Br	-0.164411	0.911730	0.240292
Br139	Br	-0.664335	1.016152	-0.848744
Br140	Br	-0.164335	1.516152	-0.348744
Br141	Br	-1.134948	1.353393	-0.159693
Br142	Br	-0.634948	1.853393	0.340307
H143	H	-0.627828	1.043420	-0.930624
H144	H	-0.127828	1.543420	-0.430624
H145	H	-1.204694	1.235038	-0.277945
H146	H	-0.704694	1.735038	0.222055
Br147	Br	-0.347616	1.252928	-0.908436
Br148	Br	0.152384	1.752928	-0.408436
Br149	Br	-0.664313	0.857822	-0.259638
Br150	Br	-0.164313	1.357822	0.240362
H151	H	-0.384110	1.225644	-0.826556
H152	H	0.115890	1.725644	-0.326556
Br153	Br	-0.348029	0.411866	-0.496768
Br154	Br	0.151971	0.911866	0.003232
Br155	Br	-0.746999	1.235085	-0.278086
Br156	Br	-0.246999	1.735085	0.221914
H157	H	-0.906089	1.326027	-0.186873
H158	H	-0.406089	1.826027	0.313127
H159	H	-1.204698	1.034132	-0.478591
H160	H	-0.704698	1.534132	0.021409
H161	H	-0.627922	1.043384	-0.677774
H162	H	-0.127922	1.543384	-0.177774
H163	H	-1.105174	0.942966	-0.569575
H164	H	-0.605174	1.442966	-0.069575
Br165	Br	-0.747002	1.034190	-0.478737
Br166	Br	-0.247002	1.534190	0.021263
Br167	Br	-0.347537	1.252960	-1.101671
Br168	Br	0.152463	1.752960	-0.601671
Br169	Br	-0.347709	1.252889	-0.655593
Br170	Br	0.152291	1.752889	-0.155593
