data_functionalizedCrystal
_audit_creation_method	'MofGen! by Chris Wilmer'
_symmetry_space_group_name_H-M	'P1'
_symmetry_Int_Tables_number	1
_symmetry_cell_setting	triclinic
loop_
_symmetry_equiv_pos_as_xyz
  x,y,z
_cell_length_a	12.827893
_cell_length_b	12.759400
_cell_length_c	12.759393
_cell_angle_alpha	90.031769
_cell_angle_beta	89.981414
_cell_angle_gamma	89.985345
loop_
_atom_site_label
_atom_site_type_symbol
_atom_site_fract_x
_atom_site_fract_y
_atom_site_fract_z
Zn1	Zn	1.597668	0.418203	-0.594015
Zn2	Zn	1.597566	0.593923	-0.418335
Zn3	Zn	1.422911	0.418258	-0.418351
Zn4	Zn	1.422896	0.593840	-0.593973
O5	O	1.510260	0.506056	-0.506169
O6	O	1.743890	0.441524	-0.570722
O7	O	1.574361	0.570678	-0.271316
O8	O	1.446142	0.271230	-0.441677
O9	O	1.743816	0.570624	-0.441651
O10	O	1.574535	0.271189	-0.570737
O11	O	1.446043	0.441618	-0.271328
O12	O	1.276673	0.441538	-0.441636
O13	O	1.446117	0.570484	-0.741000
O14	O	1.276662	0.570538	-0.570665
O15	O	1.574520	0.441444	-0.741031
O16	O	1.574347	0.740933	-0.441610
O17	O	1.446018	0.740872	-0.570650
C18	C	1.238750	0.506036	-0.506149
C19	C	1.122597	0.506052	-0.506165
C20	C	1.510198	0.779023	-0.506147
C21	C	1.510267	0.895800	-0.506172
C22	C	1.510328	0.505949	-0.780202
C23	C	1.510357	0.505903	-0.896979
C24	C	1.070835	0.569985	-0.569914
C25	C	0.950785	0.570004	-0.569932
C26	C	1.782830	0.506077	-0.506189
C27	C	1.898984	0.506086	-0.506198
C28	C	1.510351	0.232023	-0.506214
C29	C	1.510390	0.115246	-0.506233
C30	C	1.577162	0.950659	-0.439055
C31	C	1.577227	1.060383	-0.439088
C32	C	1.443492	1.060380	-0.573357
C33	C	1.443434	0.950658	-0.573329
C34	C	1.654370	0.950661	-0.361533
C35	C	1.654434	1.060385	-0.361565
C36	C	1.443570	0.438690	-0.951853
C37	C	1.443602	0.438658	-1.061577
C38	C	1.577216	0.573058	-1.061543
C39	C	1.577179	0.573094	-0.951821
C40	C	1.366432	0.361092	-0.951873
C41	C	1.366464	0.361060	-1.061597
C42	C	1.510253	0.506087	-0.233201
C43	C	1.510426	0.505836	-0.116425
H44	H	0.906270	0.624742	-0.624507
H45	H	1.631548	0.627841	-0.907147
H46	H	0.943491	0.451352	-0.451614
H47	H	1.285477	0.382881	-0.922094
H48	H	1.389079	1.105058	-0.628035
H49	H	1.631621	0.627761	-1.106209
H50	H	1.078036	0.451327	-0.451605
O51	O	1.129854	0.642469	-0.642198
H52	H	1.073675	0.689298	-0.688905
H53	H	1.731325	1.094330	-0.390779
O54	O	1.404860	0.258736	-0.906800
H55	H	1.425257	0.204438	-0.971637
O56	O	1.371272	0.891484	-0.645707
H57	H	1.324798	0.948066	-0.692394
H58	H	1.735279	0.920803	-0.383386
O59	O	1.264623	0.399623	-1.106683
H60	H	1.210601	0.420089	-1.041852
H61	H	1.625402	0.916714	-0.284206
O62	O	1.625787	1.099957	-0.253777
H63	H	1.611701	1.032314	-0.200984
O64	O	1.395275	0.253307	-1.101139
H65	H	1.337605	0.195311	-1.072160
