data_functionalizedCrystal
_audit_creation_method	'MofGen! by Chris Wilmer'
_symmetry_space_group_name_H-M	'P1'
_symmetry_Int_Tables_number	1
_symmetry_cell_setting	triclinic
loop_
_symmetry_equiv_pos_as_xyz
  x,y,z
_cell_length_a	21.395362
_cell_length_b	8.497374
_cell_length_c	21.395361
_cell_angle_alpha	89.986770
_cell_angle_beta	89.953589
_cell_angle_gamma	90.022954
loop_
_atom_site_label
_atom_site_type_symbol
_atom_site_fract_x
_atom_site_fract_y
_atom_site_fract_z
Zn1	Zn	0.957730	0.892797	0.249282
Zn2	Zn	1.457730	1.392797	0.749282
Zn3	Zn	0.957672	0.628978	0.354031
Zn4	Zn	1.457672	1.128978	0.854031
Zn5	Zn	0.852984	0.628927	0.249300
Zn6	Zn	1.352984	1.128927	0.749300
Zn7	Zn	0.852915	0.892612	0.354054
Zn8	Zn	1.352915	1.392612	0.854054
O9	O	0.905325	0.760829	0.301667
O10	O	1.405325	1.260829	0.801667
O11	O	1.045400	0.857900	0.263159
O12	O	1.545400	1.357900	0.763159
O13	O	0.943789	0.408209	0.340136
O14	O	1.443789	0.908209	0.840136
O15	O	0.866932	0.663986	0.161620
O16	O	1.366932	1.163986	0.661620
O17	O	1.045357	0.664073	0.340118
O18	O	1.545357	1.164073	0.840118
O19	O	0.943889	0.857851	0.161606
O20	O	1.443889	1.357851	0.661606
O21	O	0.866875	0.408171	0.263191
O22	O	1.366875	0.908171	0.763191
O23	O	0.765297	0.663806	0.263214
O24	O	1.265297	1.163806	0.763214
O25	O	0.866815	1.113399	0.340158
O26	O	1.366815	1.613399	0.840158
O27	O	0.765246	0.857534	0.340176
O28	O	1.265246	1.357534	0.840176
O29	O	0.943822	1.113535	0.263182
O30	O	1.443822	1.613535	0.763182
O31	O	0.943722	0.663893	0.441712
O32	O	1.443722	1.163893	0.941712
O33	O	0.866758	0.857584	0.441729
O34	O	1.366758	1.357584	0.941729
C35	C	0.742537	0.760646	0.301700
C36	C	1.242537	1.260646	0.801700
C37	C	0.672896	0.760605	0.301729
C38	C	1.172896	1.260605	0.801729
C39	C	0.640173	0.861328	0.341857
C40	C	1.140173	1.361328	0.841857
C41	C	0.574738	0.861398	0.341841
C42	C	1.074738	1.361398	0.841841
C43	C	0.542028	0.760717	0.301705
C44	C	1.042028	1.260717	0.801705
C45	C	0.574759	0.659987	0.261570
C46	C	1.074759	1.159987	0.761570
C47	C	0.640193	0.659931	0.261582
C48	C	1.140193	1.159931	0.761582
C49	C	0.438324	0.618696	0.296652
C50	C	0.938324	1.118696	0.796652
C51	C	0.372891	0.618749	0.296644
C52	C	0.872891	1.118749	0.796644
C53	C	0.340207	0.760891	0.301664
C54	C	0.840207	1.260891	0.801664
C55	C	0.372964	0.902984	0.306705
C56	C	0.872964	1.402984	0.806705
C57	C	0.438399	0.902928	0.306717
C58	C	0.938399	1.402928	0.806717
C59	C	0.471076	0.760767	0.301687
C60	C	0.971076	1.260767	0.801687
C61	C	0.236532	0.861699	0.341777
C62	C	0.736532	1.361699	0.841777
C63	C	0.171095	0.861772	0.341757
C64	C	0.671095	1.361772	0.841757
C65	C	0.171117	0.660347	0.261489
C66	C	0.671117	1.160347	0.761489
C67	C	0.236553	0.660288	0.261506
C68	C	0.736553	1.160288	0.761506
C69	C	0.269256	0.760962	0.301653
C70	C	0.769256	1.260962	0.801653
C71	C	0.905243	0.760758	0.464454
C72	C	1.405243	1.260758	0.964454
C73	C	0.905265	0.760781	0.534096
C74	C	1.405265	1.260781	1.034096
C75	C	0.945376	0.660033	0.566779
C76	C	1.445376	1.160033	1.066779
C77	C	0.945405	0.660076	0.632214
C78	C	1.445405	1.160076	1.132214
C79	C	0.905313	0.760849	0.664964
C80	C	1.405313	1.260849	1.164964
C81	C	0.865199	0.861617	0.632273
C82	C	1.365199	1.361617	1.132273
C83	C	0.865175	0.861583	0.566839
C84	C	1.365175	1.361583	1.066839
C85	C	0.848896	0.773175	0.768695
C86	C	1.348896	1.273175	1.268695
C87	C	0.848919	0.773198	0.834128
C88	C	1.348919	1.273198	1.334128
C89	C	0.905386	0.760964	0.866785
C90	C	1.405386	1.260964	1.366785
C91	C	0.961832	0.748673	0.834000
C92	C	1.461832	1.248673	1.334000
C93	C	0.961808	0.748639	0.768566
C94	C	1.461808	1.248639	1.268566
C95	C	0.905334	0.760898	0.735916
C96	C	1.405334	1.260898	1.235916
C97	C	0.945532	0.660257	0.970421
C98	C	1.445532	1.160257	1.470421
C99	C	0.945563	0.660310	1.035857
C100	C	1.445563	1.160310	1.535857
C101	C	0.865351	0.861843	1.035914
C102	C	1.365351	1.361843	1.535914
C103	C	0.865326	0.861798	0.970479
C104	C	1.365326	1.361798	1.470479
C105	C	0.905416	0.760996	0.937736
C106	C	1.405416	1.260996	1.437736
C107	C	1.068748	0.761013	0.301634
C108	C	1.568748	1.261013	0.801634
C109	C	1.138390	0.761092	0.301620
C110	C	1.638390	1.261092	0.801620
C111	C	0.905320	1.172309	0.301668
C112	C	1.405320	1.672309	0.801668
C113	C	0.905322	1.350953	0.301674
C114	C	1.405322	1.850953	0.801674
C115	C	0.905425	0.760961	1.138243
C116	C	1.405425	1.260961	1.638243
C117	C	0.905470	0.761087	1.068602
C118	C	1.405470	1.261087	1.568602
H119	H	0.263196	0.578260	0.228833
H120	H	0.763196	1.078260	0.728833
Br121	Br	0.126683	0.998494	0.396216
Br122	Br	0.626683	1.498494	0.896216
H123	H	0.832661	0.943829	0.943866
H124	H	1.332661	1.443829	1.443866
H125	H	0.802910	0.783144	0.742113
H126	H	1.302910	1.283144	1.242113
Br127	Br	0.482854	1.095757	0.313555
Br128	Br	0.982854	1.595757	0.813555
H129	H	0.978178	0.578183	0.943760
H130	H	1.478178	1.078183	1.443760
H131	H	0.978230	0.578272	1.062467
H132	H	1.478230	1.078272	1.562467
H133	H	0.832709	0.943902	1.062578
H134	H	1.332709	1.443902	1.562578
H135	H	0.666796	0.943307	0.374547
H136	H	1.166796	1.443307	0.874547
Br137	Br	0.772315	0.789869	0.878615
Br138	Br	1.272315	1.289869	1.378615
H139	H	0.832556	0.943670	0.658942
H140	H	1.332556	1.443670	1.158942
Br141	Br	0.810735	0.998325	0.522479
Br142	Br	1.310735	1.498325	1.022479
Br143	Br	0.328617	1.095906	0.313516
Br144	Br	0.828617	1.595906	0.813516
Br145	Br	0.280918	0.998330	0.396258
Br146	Br	0.780918	1.498330	0.896258
Br147	Br	0.530318	0.998106	0.396303
Br148	Br	1.030318	1.498106	0.896303
Br149	Br	0.328441	0.425913	0.289804
Br150	Br	0.828441	0.925913	0.789804
H151	H	1.007813	0.738711	0.860588
H152	H	1.507813	1.238711	1.360588
Br153	Br	0.126733	0.523720	0.207011
Br154	Br	0.626733	1.023720	0.707011
H155	H	0.464929	0.502939	0.292561
H156	H	0.964929	1.002939	0.792561
Br157	Br	0.530369	0.523360	0.207094
Br158	Br	1.030369	1.023360	0.707094
H159	H	0.666836	0.577909	0.228903
H160	H	1.166836	1.077909	0.728903
H161	H	0.978021	0.577959	0.540122
H162	H	1.478021	1.077959	1.040122
H163	H	0.978071	0.578035	0.658830
H164	H	1.478071	1.078035	1.158830
H165	H	1.007768	0.738636	0.741874
H166	H	1.507768	1.238636	1.241874
