data_functionalizedCrystal
_audit_creation_method	'MofGen! by Chris Wilmer'
_symmetry_space_group_name_H-M	'P1'
_symmetry_Int_Tables_number	1
_symmetry_cell_setting	triclinic
loop_
_symmetry_equiv_pos_as_xyz
  x,y,z
_cell_length_a	15.944551
_cell_length_b	22.010155
_cell_length_c	15.944551
_cell_angle_alpha	90.003301
_cell_angle_beta	96.501262
_cell_angle_gamma	90.003973
loop_
_atom_site_label
_atom_site_type_symbol
_atom_site_fract_x
_atom_site_fract_y
_atom_site_fract_z
O1	O	1.114530	0.050463	-0.108320
O2	O	1.614530	0.550463	0.391680
O3	O	0.869981	0.050478	-0.121677
O4	O	1.369981	0.550478	0.378323
O5	O	0.998934	0.050465	0.007276
O6	O	1.498934	0.550465	0.507276
O7	O	0.985577	0.050477	-0.237273
O8	O	1.485577	0.550477	0.262727
O9	O	0.998910	-0.050585	0.007257
O10	O	1.498910	0.449415	0.507257
O11	O	0.869957	-0.050572	-0.121696
O12	O	1.369957	0.449428	0.378304
O13	O	1.114507	-0.050587	-0.108340
O14	O	1.614507	0.449413	0.391660
Cu15	Cu	0.992230	-0.059806	-0.115020
Cu16	Cu	1.492230	0.440194	0.384980
Cu17	Cu	0.992258	0.059697	-0.114997
Cu18	Cu	1.492258	0.559697	0.385003
O19	O	0.985554	-0.050574	-0.237293
O20	O	1.485554	0.449426	0.262707
C21	C	0.838675	-0.000045	-0.121132
C22	C	1.338675	0.499955	0.378868
C23	C	0.745429	-0.000039	-0.119470
C24	C	1.245429	0.499961	0.380530
N25	N	0.992217	-0.143859	-0.115035
N26	N	1.492217	0.356141	0.384965
C27	C	0.530572	-0.000055	-0.035565
C28	C	1.030572	0.499945	0.464435
C29	C	0.469564	0.049770	-0.074518
C30	C	0.969564	0.549770	0.425482
C31	C	0.574703	-0.000047	-0.116462
C32	C	1.074703	0.499953	0.383538
C33	C	0.469563	-0.049858	-0.074556
C34	C	0.969563	0.450142	0.425444
C35	C	0.409790	-0.000056	-0.113551
C36	C	0.909790	0.499944	0.386449
C37	C	0.514923	0.049820	-0.155437
C38	C	1.014923	0.549820	0.344563
C39	C	0.514928	-0.049853	-0.155464
C40	C	1.014928	0.450147	0.344536
C41	C	0.453937	-0.000016	-0.194476
C42	C	0.953937	0.499984	0.305524
C43	C	0.669705	-0.000040	-0.118137
C44	C	1.169705	0.499960	0.381863
C45	C	0.314789	-0.000058	-0.111883
C46	C	0.814789	0.499942	0.388117
C47	C	1.049361	-0.563644	-0.057905
C48	C	1.549361	-0.063644	0.442095
C49	C	1.049365	-0.627252	-0.057899
C50	C	1.549365	-0.127252	0.442101
O51	O	1.097918	-0.660148	-0.009335
O52	O	1.597918	-0.160148	0.490665
N53	N	0.992257	-0.659066	-0.114979
N54	N	1.492257	-0.159066	0.385021
C55	C	0.935136	-0.627269	-0.172063
C56	C	1.435136	-0.127269	0.327937
O57	O	0.886561	-0.660170	-0.220614
O58	O	1.386561	-0.160170	0.279386
C59	C	0.935128	-0.563663	-0.172064
C60	C	1.435128	-0.063663	0.327936
C61	C	0.992246	-0.531852	-0.114986
C62	C	1.492246	-0.031852	0.385014
C63	C	1.106474	-0.531833	-0.000830
C64	C	1.606474	-0.031833	0.499170
C65	C	1.106471	-0.468230	-0.000837
C66	C	1.606471	0.031770	0.499163
C67	C	1.049355	-0.436438	-0.057919
C68	C	1.549355	0.063562	0.442081
C69	C	0.992243	-0.468249	-0.114993
C70	C	1.492243	0.031751	0.385007
C71	C	0.878004	-0.531867	-0.229144
C72	C	1.378004	-0.031867	0.270856
C73	C	0.878001	-0.468256	-0.229140
C74	C	1.378001	0.031744	0.270860
C75	C	0.935118	-0.436445	-0.172061
C76	C	1.435118	0.063555	0.327939
C77	C	0.935125	-0.372853	-0.172082
C78	C	1.435125	0.127147	0.327918
N79	N	0.992233	-0.341039	-0.115001
N80	N	1.492233	0.158961	0.384999
C81	C	1.049348	-0.372831	-0.057920
C82	C	1.549348	0.127169	0.442080
C83	C	0.935154	-0.760847	-0.172056
C84	C	1.435154	-0.260847	0.327944
C85	C	0.935165	-0.824452	-0.172059
C86	C	1.435165	-0.324452	0.327941
C87	C	1.049394	-0.824430	-0.057893
C88	C	1.549394	-0.324430	0.442107
C89	C	1.049386	-0.760824	-0.057895
C90	C	1.549386	-0.260824	0.442105
C91	C	0.992262	-0.729033	-0.114975
C92	C	1.492262	-0.229033	0.385025
C93	C	1.049338	-0.239260	-0.057939
C94	C	1.549338	0.260740	0.442061
C95	C	1.049332	-0.175651	-0.057954
C96	C	1.549332	0.324349	0.442046
C97	C	0.935101	-0.175678	-0.172116
C98	C	1.435101	0.324322	0.327884
C99	C	0.935109	-0.239282	-0.172105
C100	C	1.435109	0.260718	0.327895
C101	C	0.992231	-0.271071	-0.115010
C102	C	1.492231	0.228929	0.384990
O103	O	0.886594	-0.339916	-0.220618
O104	O	1.386594	0.160084	0.279382
O105	O	1.097907	-0.339922	-0.009370
O106	O	1.597907	0.160078	0.490630
C107	C	1.145813	-0.000063	-0.108885
C108	C	1.645813	0.499937	0.391115
C109	C	1.239059	-0.000064	-0.110547
C110	C	1.739059	0.499936	0.389453
C111	C	0.998367	-0.000060	0.038561
C112	C	1.498367	0.499940	0.538561
C113	C	0.996705	-0.000061	0.131807
C114	C	1.496705	0.499939	0.631807
N115	N	0.992278	0.143750	-0.114975
N116	N	1.492278	0.643750	0.385025
C117	C	0.986120	-0.000047	-0.268577
C118	C	1.486120	0.499953	0.231423
C119	C	0.987782	-0.000043	-0.361823
C120	C	1.487782	0.499957	0.138177
C121	C	0.912801	-0.000047	0.346663
C122	C	1.412801	0.499953	0.846663
C123	C	0.951752	-0.049873	0.407671
C124	C	1.451752	0.450127	0.907671
C125	C	0.993698	-0.000056	0.302533
C126	C	1.493698	0.499944	0.802533
C127	C	0.951794	0.049754	0.407674
C128	C	1.451794	0.549754	0.907674
C129	C	0.990787	-0.000048	0.467445
C130	C	1.490787	0.499952	0.967445
C131	C	1.032671	-0.049923	0.362312
C132	C	1.532671	0.450077	0.862312
C133	C	1.032702	0.049749	0.362308
C134	C	1.532702	0.549749	0.862308
C135	C	1.071711	-0.000089	0.423298
C136	C	1.571711	0.499911	0.923298
C137	C	0.995372	-0.000061	0.207530
C138	C	1.495372	0.499939	0.707530
C139	C	0.989119	-0.000048	0.562446
C140	C	1.489119	0.499952	1.062446
H141	H	0.449463	0.091890	-0.040294
H142	H	0.949463	0.591890	0.459706
C143	C	0.824638	0.000437	0.214194
C144	C	1.324638	0.500437	0.714194
C145	C	0.822156	-0.000100	0.301694
C146	C	1.322156	0.499900	0.801694
H147	H	0.768679	0.000407	0.186433
H148	H	1.268679	0.500407	0.686433
H149	H	0.853644	-0.034600	0.198017
H150	H	1.353644	0.465400	0.698017
H151	H	0.853265	0.035875	0.198789
H152	H	1.353265	0.535875	0.698789
H153	H	0.793535	-0.035540	0.317099
H154	H	1.293535	0.464460	0.817099
H155	H	0.793138	0.034941	0.317877
H156	H	1.293138	0.534941	0.817877
H157	H	0.888663	-0.850348	-0.218547
H158	H	1.388663	-0.350348	0.281453
H159	H	1.095850	-0.265136	-0.011446
H160	H	1.595850	0.234864	0.488554
H161	H	0.888639	-0.734966	-0.218545
H162	H	1.388639	-0.234966	0.281455
H163	H	1.152984	-0.557713	0.045656
H164	H	1.652984	-0.057713	0.545656
H165	H	0.535050	-0.091975	-0.189660
H166	H	1.035050	0.408025	0.310340
H167	H	0.917577	0.091882	0.427759
H168	H	1.417577	0.591882	0.927759
C169	C	0.401964	-0.089059	0.041224
C170	C	0.901964	0.410941	0.541224
C171	C	0.442433	-0.106722	-0.028363
C172	C	0.942433	0.393278	0.471637
H173	H	0.385222	-0.124164	0.069748
H174	H	0.885222	0.375836	0.569748
H175	H	0.353590	-0.065449	0.022480
H176	H	0.853590	0.434551	0.522480
H177	H	0.439642	-0.065594	0.078644
H178	H	0.939642	0.434406	0.578644
H179	H	0.404753	-0.130184	-0.065786
H180	H	0.904753	0.369816	0.434214
H181	H	0.490814	-0.130343	-0.009619
H182	H	0.990814	0.369657	0.490381
C183	C	0.552824	0.052249	0.097245
C184	C	1.052824	0.552249	0.597245
C185	C	0.575552	0.000009	0.055075
C186	C	1.075552	0.500009	0.555075
H187	H	0.580601	0.052292	0.153198
H188	H	1.080601	0.552292	0.653198
H189	H	0.493470	0.052604	0.098929
H190	H	0.993470	0.552604	0.598929
H191	H	0.569002	0.087281	0.068213
H192	H	1.069002	0.587281	0.568213
H193	H	0.559369	-0.035023	0.084104
H194	H	1.059369	0.464977	0.584104
H195	H	0.634919	-0.000352	0.053396
H196	H	1.134919	0.499648	0.553396
C197	C	0.581711	0.089194	-0.271645
C198	C	1.081711	0.589194	0.228355
C199	C	0.541912	0.106750	-0.201576
C200	C	1.041912	0.606750	0.298424
H201	H	0.598378	0.124342	-0.300122
H202	H	1.098378	0.624342	0.199878
H203	H	0.543669	0.065913	-0.308928
H204	H	1.043669	0.565913	0.191072
H205	H	0.630085	0.065430	-0.253399
H206	H	1.130085	0.565430	0.246601
H207	H	0.493534	0.130511	-0.219823
H208	H	0.993534	0.630511	0.280177
H209	H	0.579956	0.130042	-0.164286
H210	H	1.079956	0.630042	0.335714
C211	C	0.358092	0.051725	-0.297544
C212	C	0.858092	0.551725	0.202456
C213	C	0.409163	0.000024	-0.285198
C214	C	0.909163	0.500024	0.214802
H215	H	0.330447	0.051749	-0.353550
H216	H	0.830447	0.551749	0.146450
H217	H	0.392041	0.087119	-0.288802
H218	H	0.892041	0.587119	0.211198
H219	H	0.317144	0.051365	-0.258661
H220	H	0.817144	0.551365	0.241339
H221	H	0.450116	0.000386	-0.324078
H222	H	0.950116	0.500386	0.175922
H223	H	0.375212	-0.035380	-0.293949
H224	H	0.875212	0.464620	0.206051
C225	C	1.162242	-0.182028	0.054901
C226	C	1.662242	0.317972	0.554901
C227	C	1.112116	-0.140686	0.004795
C228	C	1.612116	0.359314	0.504795
H229	H	1.200995	-0.160442	0.093642
H230	H	1.700995	0.339558	0.593642
H231	H	1.192454	-0.206836	0.019919
H232	H	1.692454	0.293164	0.519919
H233	H	1.127269	-0.206838	0.085135
H234	H	1.627269	0.293162	0.585135
H235	H	1.147089	-0.115878	-0.025443
H236	H	1.647089	0.384122	0.474557
H237	H	1.081901	-0.115867	0.039782
H238	H	1.581901	0.384133	0.539782
H239	H	1.152978	-0.442333	0.045643
H240	H	1.652978	0.057667	0.545643
C241	C	1.162308	-0.818036	0.054962
C242	C	1.662308	-0.318036	0.554962
C243	C	1.112175	-0.859384	0.004857
C244	C	1.612175	-0.359384	0.504857
H245	H	1.201067	-0.839617	0.093694
H246	H	1.701067	-0.339617	0.593694
H247	H	1.127346	-0.793229	0.085198
H248	H	1.627346	-0.293229	0.585198
H249	H	1.192522	-0.793225	0.019971
H250	H	1.692522	-0.293225	0.519971
H251	H	1.081956	-0.884192	0.039847
H252	H	1.581956	-0.384192	0.539847
H253	H	1.147141	-0.884202	-0.025381
H254	H	1.647141	-0.384202	0.474619
H255	H	0.831481	-0.442375	-0.275621
H256	H	1.331481	0.057625	0.224379
H257	H	0.917526	-0.091993	0.427771
H258	H	1.417526	0.408007	0.927771
H259	H	1.138919	-0.000122	0.456457
H260	H	1.638919	0.499878	0.956457
C261	C	1.024114	0.140582	0.278405
C262	C	1.524114	0.640582	0.778405
C263	C	1.078866	0.106610	0.335131
C264	C	1.578866	0.606610	0.835131
H265	H	1.052612	0.175686	0.261622
H266	H	1.552612	0.675686	0.761622
H267	H	0.976320	0.152543	0.304945
H268	H	1.476320	0.652543	0.804945
H269	H	1.006289	0.116556	0.230168
H270	H	1.506289	0.616556	0.730168
H271	H	1.096687	0.130635	0.383371
H272	H	1.596687	0.630635	0.883371
H273	H	1.126675	0.094649	0.308591
H274	H	1.626675	0.594649	0.808591
H275	H	0.831493	-0.557759	-0.275622
H276	H	1.331493	-0.057759	0.224378
C277	C	1.067544	-0.689337	0.056462
C278	C	1.567544	-0.189337	0.556462
C279	C	1.112138	-0.725880	0.004904
C280	C	1.612138	-0.225880	0.504904
H281	H	1.106279	-0.667771	0.095246
H282	H	1.606279	-0.167771	0.595246
H283	H	1.032562	-0.714170	0.086640
H284	H	1.532562	-0.214170	0.586640
H285	H	1.033559	-0.661280	0.022465
H286	H	1.533559	-0.161280	0.522465
H287	H	1.146118	-0.753941	0.038901
H288	H	1.646118	-0.253941	0.538901
H289	H	1.147135	-0.701046	-0.025276
H290	H	1.647135	-0.201046	0.474724
H291	H	0.888607	-0.265183	-0.218592
H292	H	1.388607	0.234817	0.281408
C293	C	0.885770	-0.156092	-0.317498
C294	C	1.385770	0.343908	0.182502
C295	C	0.872321	-0.140722	-0.234857
C296	C	1.372321	0.359278	0.265143
H297	H	0.847012	-0.134507	-0.356227
H298	H	1.347012	0.365493	0.143773
H299	H	0.877589	-0.198520	-0.325667
H300	H	1.377589	0.301480	0.174333
H301	H	0.941828	-0.145663	-0.326650
H302	H	1.441828	0.354337	0.173350
H303	H	0.816265	-0.151155	-0.225702
H304	H	1.316265	0.348845	0.274298
H305	H	0.880496	-0.098285	-0.226684
H306	H	1.380496	0.401715	0.273316
C307	C	1.079906	-0.106357	0.247637
C308	C	1.579906	0.393643	0.747637
C309	C	1.078806	-0.106856	0.335322
C310	C	1.578806	0.393144	0.835322
H311	H	1.108381	-0.141506	0.230975
H312	H	1.608381	0.358494	0.730975
H313	H	1.108458	-0.071026	0.231755
H314	H	1.608458	0.428974	0.731755
H315	H	1.023622	-0.106209	0.220715
H316	H	1.523622	0.393791	0.720715
H317	H	1.135090	-0.106999	0.362244
H318	H	1.635090	0.393001	0.862244
H319	H	1.050255	-0.142195	0.351213
H320	H	1.550255	0.357805	0.851213
