data_functionalizedCrystal
_audit_creation_method	'MofGen! by Chris Wilmer'
_symmetry_space_group_name_H-M	'P1'
_symmetry_Int_Tables_number	1
_symmetry_cell_setting	triclinic
loop_
_symmetry_equiv_pos_as_xyz
  x,y,z
_cell_length_a	19.121102
_cell_length_b	12.759394
_cell_length_c	12.759387
_cell_angle_alpha	90.031660
_cell_angle_beta	87.538126
_cell_angle_gamma	92.430742
loop_
_atom_site_label
_atom_site_type_symbol
_atom_site_fract_x
_atom_site_fract_y
_atom_site_fract_z
Zn1	Zn	1.073810	0.486838	-0.662508
Zn2	Zn	1.573810	0.986838	-0.162508
Zn3	Zn	1.073736	0.662550	-0.486822
Zn4	Zn	1.573736	1.162550	0.013178
Zn5	Zn	0.956351	0.479384	-0.479351
Zn6	Zn	1.456351	0.979384	0.020649
Zn7	Zn	0.956345	0.654969	-0.654971
Zn8	Zn	1.456345	1.154969	-0.154971
O9	O	1.015061	0.570935	-0.570913
O10	O	1.515061	1.070935	-0.070913
O11	O	1.172085	0.516439	-0.645484
O12	O	1.672085	1.016439	-0.145484
O13	O	1.058136	0.638306	-0.338808
O14	O	1.558136	1.138306	0.161192
O15	O	0.971965	0.333354	-0.503676
O16	O	1.471965	0.833354	-0.003676
O17	O	1.172031	0.645535	-0.516408
O18	O	1.672031	1.145535	-0.016408
O19	O	1.058261	0.338830	-0.638240
O20	O	1.558261	0.838830	-0.138240
O21	O	0.971894	0.503735	-0.333319
O22	O	1.471894	1.003735	0.166681
O23	O	0.858065	0.496383	-0.496367
O24	O	1.358065	0.996383	0.003633
O25	O	0.971956	0.632612	-0.802994
O26	O	1.471956	1.132612	-0.302994
O27	O	0.858061	0.625384	-0.625394
O28	O	1.358061	1.125384	-0.125394
O29	O	1.058256	0.509088	-0.808532
O30	O	1.558256	1.009088	-0.308532
O31	O	1.058131	0.808564	-0.509099
O32	O	1.558131	1.308564	-0.009099
O33	O	0.971885	0.802993	-0.632638
O34	O	1.471885	1.302993	-0.132638
C35	C	0.832578	0.559253	-0.559253
C36	C	1.332578	1.059253	-0.059253
C37	C	0.754512	0.554280	-0.554289
C38	C	1.254512	1.054280	-0.054289
C39	C	1.015018	0.843900	-0.570885
C40	C	1.515018	1.343900	-0.070885
C41	C	1.015065	0.960680	-0.570912
C42	C	1.515065	1.460680	-0.070912
C43	C	1.015114	0.570836	-0.844950
C44	C	1.515114	1.070836	-0.344950
C45	C	1.015136	0.570793	-0.961728
C46	C	1.515136	1.070793	-0.461728
C47	C	0.717852	0.619210	-0.619029
C48	C	1.217852	1.119210	-0.119029
C49	C	0.644500	0.614524	-0.614370
C50	C	1.144500	1.114524	-0.114370
C51	C	0.607809	0.544913	-0.544966
C52	C	1.107809	1.044913	-0.044966
C53	C	0.644474	0.479976	-0.480223
C54	C	1.144474	0.979976	0.019777
C55	C	0.717825	0.484658	-0.484888
C56	C	1.217825	0.984658	0.015112
C57	C	0.386337	0.527407	-0.527531
C58	C	0.886337	1.027407	-0.027531
C59	C	0.312981	0.522733	-0.522869
C60	C	0.812981	1.022733	-0.022869
C61	C	0.313013	0.657280	-0.657018
C62	C	0.813013	1.157280	-0.157018
C63	C	0.386365	0.661959	-0.661672
C64	C	0.886365	1.161959	-0.161672
C65	C	0.423023	0.597019	-0.596933
C66	C	0.923023	1.097019	-0.096933
C67	C	0.532832	0.540123	-0.540200
C68	C	1.032832	1.040123	-0.040200
C69	C	0.497999	0.601804	-0.601705
C70	C	0.997999	1.101804	-0.101705
C71	C	1.198255	0.582664	-0.582620
C72	C	1.698255	1.082664	-0.082620
C73	C	1.276322	0.587662	-0.587609
C74	C	1.776322	1.087662	-0.087609
C75	C	1.015122	0.296906	-0.570966
C76	C	1.515122	0.796906	-0.070966
C77	C	1.015148	0.180131	-0.570988
C78	C	1.515148	0.680131	-0.070988
C79	C	1.104941	0.966431	-0.442376
C80	C	1.604941	1.466431	0.057624
C81	C	1.149897	1.024169	-0.378122
C82	C	1.649897	1.524169	0.121878
C83	C	1.149938	1.133893	-0.378153
C84	C	1.649938	1.633893	0.121847
C85	C	1.105019	1.185882	-0.442448
C86	C	1.605019	1.685882	0.057552
C87	C	1.060063	1.128144	-0.506702
C88	C	1.560063	1.628144	-0.006702
C89	C	1.060025	1.018418	-0.506662
C90	C	1.560025	1.518418	-0.006662
C91	C	0.970192	1.122393	-0.635242
C92	C	1.470192	1.622393	-0.135242
C93	C	0.970146	1.012669	-0.635207
C94	C	1.470146	1.512669	-0.135207
C95	C	0.925274	1.174382	-0.699537
C96	C	1.425274	1.674382	-0.199537
C97	C	0.880313	1.116644	-0.763788
C98	C	1.380313	1.616644	-0.263788
C99	C	0.880273	1.006913	-0.763753
C100	C	1.380273	1.506913	-0.263753
C101	C	0.925190	0.954931	-0.699462
C102	C	1.425190	1.454931	-0.199462
C103	C	1.105007	0.442176	-0.967515
C104	C	1.605007	0.942176	-0.467515
C105	C	1.149952	0.377853	-1.025270
C106	C	1.649952	0.877853	-0.525270
C107	C	1.149969	0.377815	-1.134992
C108	C	1.649969	0.877815	-0.634992
C109	C	1.105035	0.442106	-1.186963
C110	C	1.605035	0.942106	-0.686963
C111	C	1.060090	0.506430	-1.129208
C112	C	1.560090	1.006430	-0.629208
C113	C	1.060079	0.506463	-1.019483
C114	C	1.560079	1.006463	-0.519483
C115	C	0.970216	0.635040	-1.123421
C116	C	1.470216	1.135040	-0.623421
C117	C	0.970202	0.635084	-1.013699
C118	C	1.470202	1.135084	-0.513699
C119	C	0.925282	0.699331	-1.175391
C120	C	1.425282	1.199331	-0.675391
C121	C	0.880339	0.763662	-1.117637
C122	C	1.380339	1.263662	-0.617637
C123	C	0.880325	0.763697	-1.007907
C124	C	1.380325	1.263697	-0.507907
C125	C	0.925257	0.699408	-0.955944
C126	C	1.425257	1.199408	-0.455944
C127	C	1.015048	0.570961	-0.297945
C128	C	1.515048	1.070961	0.202055
C129	C	1.015162	0.570716	-0.181176
C130	C	1.515162	1.070716	0.318824
H131	H	0.747721	0.675898	-0.675543
H132	H	1.247721	1.175898	-0.175543
F133	F	0.273934	0.448647	-0.448989
F134	F	0.773934	0.948647	0.051011
F135	F	0.832427	0.945473	-0.832148
F136	F	1.332427	1.445473	-0.332148
F137	F	0.925086	1.291145	-0.699206
F138	F	1.425086	1.791145	-0.199206
F139	F	0.605488	0.683630	-0.683277
F140	F	1.105488	1.183630	-0.183277
H141	H	1.186536	0.325506	-0.982943
H142	H	1.686536	0.825506	-0.482943
F143	F	0.425342	0.458289	-0.458632
F144	F	0.925342	0.958289	0.041368
F145	F	1.104833	1.302645	-0.442115
F146	F	1.604833	1.802645	0.057885
H147	H	0.843717	0.816066	-0.960889
H148	H	1.343717	1.316066	-0.460889
H149	H	0.843747	1.158982	-0.816136
H150	H	1.343747	1.658982	-0.316136
F151	F	0.925311	0.838163	-0.699668
F152	F	1.425311	1.338163	-0.199668
F153	F	0.925248	0.699445	-0.839167
F154	F	1.425248	1.199445	-0.339167
F155	F	0.537050	0.675885	-0.675570
F156	F	1.037050	1.175885	-0.175570
H157	H	0.502950	0.483448	-0.483688
H158	H	1.002950	0.983448	0.016312
H159	H	1.105004	0.442210	-0.878174
H160	H	1.605004	0.942210	-0.378174
H161	H	1.186563	0.325431	-1.182016
H162	H	1.686563	0.825431	-0.682016
H163	H	0.843754	0.815996	-1.159960
H164	H	1.343754	1.315996	-0.659960
H165	H	1.105047	0.442061	-1.276305
H166	H	1.605047	0.942061	-0.776305
F167	F	0.925301	0.699289	-1.292168
F168	F	1.425301	1.199289	-0.792168
F169	F	1.197788	1.195343	-0.309772
F170	F	1.697788	1.695343	0.190228
F171	F	1.197703	0.968832	-0.309702
F172	F	1.697703	1.468832	0.190298
F173	F	0.425409	0.736051	-0.735540
F174	F	0.925409	1.236051	-0.235540
F175	F	0.756840	0.415549	-0.415984
F176	F	1.256840	0.915549	0.084016
F177	F	0.605423	0.405884	-0.406363
F178	F	1.105423	0.905884	0.093637
F179	F	1.105054	0.849663	-0.442578
F180	F	1.605054	1.349663	0.057422
F181	F	0.273993	0.726390	-0.725911
F182	F	0.773993	1.226390	-0.225911
