data_functionalizedCrystal
_audit_creation_method	'MofGen! by Chris Wilmer'
_symmetry_space_group_name_H-M	'P1'
_symmetry_Int_Tables_number	1
_symmetry_cell_setting	triclinic
loop_
_symmetry_equiv_pos_as_xyz
  x,y,z
_cell_length_a	27.732048
_cell_length_b	27.731996
_cell_length_c	12.996460
_cell_angle_alpha	89.987889
_cell_angle_beta	89.999906
_cell_angle_gamma	82.632022
loop_
_atom_site_label
_atom_site_type_symbol
_atom_site_fract_x
_atom_site_fract_y
_atom_site_fract_z
O1	O	0.640917	0.057519	-0.085447
O2	O	1.140917	0.557519	0.414553
O3	O	0.500122	0.066265	-0.085480
O4	O	1.000122	0.566265	0.414520
O5	O	0.574905	-0.008506	-0.085441
O6	O	1.074905	0.491494	0.414559
O7	O	0.566134	0.132291	-0.085487
O8	O	1.066134	0.632291	0.414513
O9	O	0.574898	-0.008510	0.085693
O10	O	1.074898	0.491490	0.585693
O11	O	0.500114	0.066261	0.085653
O12	O	1.000114	0.566261	0.585653
O13	O	0.640909	0.057515	0.085686
O14	O	1.140909	0.557515	0.585686
Cu15	Cu	0.570511	0.061888	0.101296
Cu16	Cu	1.070511	0.561888	0.601296
Cu17	Cu	0.570520	0.061893	-0.101090
Cu18	Cu	1.070520	0.561893	0.398910
O19	O	0.566126	0.132287	0.085647
O20	O	1.066126	0.632287	0.585647
C21	C	0.482111	0.066079	0.000083
C22	C	0.982111	0.566079	0.500083
C23	C	0.428456	0.065527	0.000071
C24	C	0.928456	0.565527	0.500071
C25	C	0.574721	-0.026516	0.000130
C26	C	1.074721	0.473484	0.500130
C27	C	0.574179	-0.080172	0.000140
C28	C	1.074179	0.419828	0.500140
C29	C	0.570768	-0.412886	-0.093196
C30	C	1.070768	0.087114	0.406804
C31	C	0.568707	-0.614544	-0.093215
C32	C	1.068707	-0.114544	0.406785
O33	O	0.568423	-0.640613	-0.172551
O34	O	1.068423	-0.140613	0.327449
N35	N	0.568447	-0.639764	0.000070
N36	N	1.068447	-0.139764	0.500070
C37	C	0.568699	-0.614565	0.093365
C38	C	1.068699	-0.114565	0.593365
O39	O	0.568425	-0.640642	0.172708
O40	O	1.068425	-0.140642	0.672708
C41	C	0.570756	-0.412907	0.093382
C42	C	1.070756	0.087093	0.593382
C43	C	0.571021	-0.387691	0.000092
C44	C	1.071021	0.112309	0.500092
C45	C	0.571033	-0.387670	-0.186479
C46	C	1.071033	0.112330	0.313521
C47	C	0.571550	-0.337259	-0.186473
C48	C	1.071550	0.162741	0.313527
C49	C	0.571804	-0.312064	-0.093185
C50	C	1.071804	0.187936	0.406815
C51	C	0.571539	-0.337280	0.000098
C52	C	1.071539	0.162720	0.500098
C53	C	0.571005	-0.387709	0.186677
C54	C	1.071005	0.112291	0.686677
C55	C	0.571518	-0.337291	0.186673
C56	C	1.071518	0.162709	0.686673
C57	C	0.571783	-0.312075	0.093383
C58	C	1.071783	0.187925	0.593383
C59	C	0.572310	-0.261674	0.093392
C60	C	1.072310	0.238326	0.593392
N61	N	0.572571	-0.236454	0.000107
N62	N	1.072571	0.263546	0.500107
C63	C	0.572317	-0.261649	-0.093181
C64	C	1.072317	0.238351	0.406819
C65	C	0.567620	-0.720438	0.093349
C66	C	1.067620	-0.220438	0.593349
C67	C	0.567106	-0.770853	0.093345
C68	C	1.067106	-0.270853	0.593345
C69	C	0.567113	-0.770828	-0.093235
C70	C	1.067113	-0.270828	0.406765
C71	C	0.567630	-0.720414	-0.093230
C72	C	1.067630	-0.220414	0.406770
C73	C	0.567880	-0.695219	0.000065
C74	C	1.067880	-0.195219	0.500065
C75	C	0.573405	-0.155782	-0.093162
C76	C	1.073405	0.344218	0.406838
C77	C	0.573925	-0.105367	-0.093148
C78	C	1.073925	0.394633	0.406852
C79	C	0.573915	-0.105395	0.093431
C80	C	1.073915	0.394605	0.593431
C81	C	0.573398	-0.155807	0.093418
C82	C	1.073398	0.344193	0.593418
C83	C	0.573141	-0.180999	0.000113
C84	C	1.073141	0.319001	0.500113
O85	O	0.572589	-0.235573	0.172686
O86	O	1.072589	0.264427	0.672686
O87	O	0.572580	-0.235562	-0.172512
O88	O	1.072580	0.264438	0.327488
C89	C	0.570250	-0.463297	-0.093202
C90	C	1.070250	0.036703	0.406798
C91	C	0.569986	-0.488513	0.000081
C92	C	1.069986	0.011487	0.500081
C93	C	0.570239	-0.463318	0.093369
C94	C	1.070239	0.036682	0.593369
C95	C	0.569472	-0.538928	0.000077
C96	C	1.069472	-0.038928	0.500077
C97	C	0.569219	-0.564123	-0.093211
C98	C	1.069219	-0.064123	0.406789
C99	C	0.569479	-0.538903	-0.186495
C100	C	1.069479	-0.038903	0.313505
C101	C	0.569997	-0.488492	-0.186490
C102	C	1.069997	0.011508	0.313510
C103	C	0.569979	-0.488538	0.186653
C104	C	1.069979	0.011462	0.686653
C105	C	0.569461	-0.538949	0.186640
C106	C	1.069461	-0.038949	0.686640
C107	C	0.569208	-0.564144	0.093352
C108	C	1.069208	-0.064144	0.593352
C109	C	0.089634	0.106231	0.000102
C110	C	0.589634	0.606231	0.500102
C111	C	-0.112026	0.104180	0.000112
C112	C	0.387974	0.604180	0.500112
O113	O	-0.143288	0.141402	0.000144
O114	O	0.356712	0.641402	0.500144
N115	N	-0.131141	0.059844	0.000125
N116	N	0.368859	0.559844	0.500125
C117	C	-0.099838	0.016017	0.000142
C118	C	0.400162	0.516017	0.500142
O119	O	-0.120724	-0.021740	0.000164
O120	O	0.379276	0.478260	0.500164
C121	C	0.101820	0.018069	0.000139
C122	C	0.601820	0.518069	0.500139
C123	C	0.120933	0.062408	0.000116
C124	C	0.620933	0.562408	0.500116
C125	C	0.108747	0.150567	0.000080
C126	C	0.608747	0.650567	0.500080
C127	C	0.159159	0.151079	0.000072
C128	C	0.659159	0.651079	0.500072
C129	C	0.190457	0.107256	0.000086
C130	C	0.690457	0.607256	0.500086
C131	C	0.171344	0.062920	0.000108
C132	C	0.671344	0.562920	0.500108
C133	C	0.133122	-0.025757	0.000164
C134	C	0.633122	0.474243	0.500164
C135	C	0.183539	-0.025240	0.000166
C136	C	0.683539	0.474760	0.500166
C137	C	0.202652	0.019099	0.000143
C138	C	0.702652	0.519099	0.500143
C139	C	0.253055	0.019609	0.000114
C140	C	0.753055	0.519609	0.500114
N141	N	0.272171	0.063946	0.000101
N142	N	0.772171	0.563946	0.500101
C143	C	0.240872	0.107769	0.000087
C144	C	0.740872	0.607769	0.500087
C145	C	-0.205712	0.014943	0.000141
C146	C	0.294288	0.514943	0.500141
C147	C	-0.256126	0.014430	0.000140
C148	C	0.243874	0.514430	0.500140
C149	C	-0.268310	0.102594	0.000112
C150	C	0.231690	0.602594	0.500112
C151	C	-0.217895	0.103106	0.000106
C152	C	0.282105	0.603106	0.500106
C153	C	-0.186597	0.059280	0.000128
C154	C	0.313403	0.559280	0.500128
C155	C	0.346741	0.108842	0.000069
C156	C	0.846741	0.608842	0.500069
C157	C	0.397158	0.109350	0.000057
C158	C	0.897158	0.609350	0.500057
C159	C	0.409337	0.021187	0.000090
C160	C	0.909337	0.521187	0.500090
C161	C	0.358925	0.020678	0.000097
C162	C	0.858925	0.520678	0.500097
C163	C	0.327627	0.064510	0.000090
C164	C	0.827627	0.564510	0.500090
O165	O	0.284346	-0.017592	0.000093
O166	O	0.784346	0.482408	0.500093
O167	O	0.261767	0.145521	0.000088
O168	O	0.761767	0.645521	0.500088
C169	C	0.039222	0.105719	0.000110
C170	C	0.539222	0.605719	0.500110
C171	C	0.020109	0.061384	0.000132
C172	C	0.520109	0.561384	0.500132
C173	C	0.051408	0.017560	0.000146
C174	C	0.551408	0.517560	0.500146
C175	C	-0.030305	0.060871	0.000131
C176	C	0.469695	0.560871	0.500131
C177	C	-0.061604	0.104694	0.000117
C178	C	0.438396	0.604694	0.500117
C179	C	-0.042489	0.149030	0.000104
C180	C	0.457511	0.649030	0.500104
C181	C	0.007923	0.149543	0.000096
C182	C	0.507923	0.649543	0.500096
C183	C	0.032292	-0.026776	0.000159
C184	C	0.532292	0.473224	0.500159
C185	C	-0.018120	-0.027285	0.000166
C186	C	0.481880	0.472715	0.500166
C187	C	-0.049419	0.016539	0.000152
C188	C	0.450581	0.516539	0.500152
C189	C	0.658920	0.057701	0.000121
C190	C	1.158920	0.557701	0.500121
C191	C	0.712575	0.058254	0.000126
C192	C	1.212575	0.558254	0.500126
C193	C	0.566310	0.150296	0.000074
C194	C	1.066310	0.650296	0.500074
C195	C	0.566853	0.203952	0.000057
C196	C	1.066853	0.703952	0.500057
N197	N	0.570508	0.061884	0.243643
N198	N	1.070508	0.561884	0.743643
N199	N	0.570527	0.061892	-0.243437
N200	N	1.070527	0.561892	0.256563
C201	C	0.570519	0.061893	0.663457
C202	C	1.070519	0.561893	1.163457
C203	C	0.570515	0.061892	0.546652
C204	C	1.070515	0.561892	1.046652
C205	C	0.570514	0.061889	0.453554
C206	C	1.070514	0.561889	0.953554
C207	C	0.570509	0.061887	0.336741
C208	C	1.070509	0.561887	0.836741
H209	H	0.574142	-0.084839	-0.169119
H210	H	1.074142	0.415161	0.330881
H211	H	0.057772	-0.062463	0.000173
H212	H	0.557772	0.437537	0.500173
Cl213	Cl	0.570668	-0.419396	0.303964
Cl214	Cl	1.070668	0.080604	0.803964
H215	H	0.174715	0.187185	0.000053
H216	H	0.674715	0.687185	0.500053
Cl217	Cl	0.567962	-0.688719	-0.210513
Cl218	Cl	1.067962	-0.188719	0.289487
Cl219	Cl	0.573074	-0.187509	0.210698
Cl220	Cl	1.073074	0.312491	0.710698
Cl221	Cl	0.031942	0.205286	0.000068
Cl222	Cl	0.531942	0.705286	0.500068
H223	H	0.574124	-0.084873	0.169384
H224	H	1.074124	0.415127	0.669384
H225	H	0.570212	-0.467966	-0.262456
H226	H	1.070212	0.032034	0.237544
H227	H	0.566897	-0.791380	0.169311
H228	H	1.066897	-0.291380	0.669311
H229	H	0.573194	-0.176287	-0.169140
H230	H	1.073194	0.323713	0.330860
Cl231	Cl	0.571832	-0.305621	0.303965
Cl232	Cl	1.071832	0.194379	0.803965
H233	H	-0.033676	-0.063394	0.000177
H234	H	0.466324	0.436606	0.500177
H235	H	0.571764	-0.316732	-0.262440
H236	H	1.071764	0.183268	0.237560
Cl237	Cl	0.069408	0.205667	0.000060
Cl238	Cl	0.569408	0.705667	0.500060
H239	H	0.209021	-0.060930	0.000185
H240	H	0.709021	0.439070	0.500185
H241	H	-0.067981	0.184713	0.000089
H242	H	0.432019	0.684713	0.500089
H243	H	0.569275	-0.559426	-0.262454
H244	H	1.069275	-0.059426	0.237546
H245	H	0.569249	-0.559476	0.262614
H246	H	1.069249	-0.059476	0.762614
H247	H	0.566908	-0.791351	-0.169194
H248	H	1.066908	-0.291351	0.330806
Cl249	Cl	0.570294	-0.456871	0.303943
Cl250	Cl	1.070294	0.043129	0.803943
Cl251	Cl	0.570715	-0.419335	-0.303772
Cl252	Cl	1.070715	0.080665	0.196228
H253	H	0.412716	0.145458	0.000037
H254	H	0.912716	0.645458	0.500037
Cl255	Cl	0.567931	-0.688772	0.210647
Cl256	Cl	1.067931	-0.188772	0.710647
H257	H	-0.293803	0.138276	0.000101
H258	H	0.206197	0.638276	0.500101
Cl259	Cl	0.307403	0.163945	0.000059
Cl260	Cl	0.807403	0.663945	0.500059
H261	H	-0.202337	0.139211	0.000093
H262	H	0.297663	0.639211	0.500093
Cl263	Cl	-0.280147	-0.041313	0.000144
Cl264	Cl	0.219853	0.458687	0.500144
H265	H	-0.180232	-0.020747	0.000160
H266	H	0.319768	0.479253	0.500160
Cl267	Cl	0.109108	-0.081502	0.000176
Cl268	Cl	0.609108	0.418498	0.500176
H269	H	0.343363	-0.015426	0.000101
H270	H	0.843363	0.484574	0.500101
Cl271	Cl	0.448693	-0.033902	0.000113
Cl272	Cl	0.948693	0.466098	0.500113
