data_functionalizedCrystal
_audit_creation_method	'MofGen! by Chris Wilmer'
_symmetry_space_group_name_H-M	'P1'
_symmetry_Int_Tables_number	1
_symmetry_cell_setting	triclinic
loop_
_symmetry_equiv_pos_as_xyz
  x,y,z
_cell_length_a	15.944551
_cell_length_b	15.186229
_cell_length_c	16.109301
_cell_angle_alpha	89.992751
_cell_angle_beta	96.519890
_cell_angle_gamma	89.996020
loop_
_atom_site_label
_atom_site_type_symbol
_atom_site_fract_x
_atom_site_fract_y
_atom_site_fract_z
O1	O	1.114484	0.073140	-0.107230
O2	O	0.869930	0.073162	-0.120450
O3	O	0.998925	0.073141	0.007189
O4	O	0.985489	0.073160	-0.234869
O5	O	0.998924	-0.073316	0.007196
O6	O	0.869929	-0.073295	-0.120442
O7	O	1.114483	-0.073318	-0.107222
Zn8	Zn	0.992205	-0.096560	-0.113831
Zn9	Zn	0.992207	0.096404	-0.113841
O10	O	0.985488	-0.073297	-0.234861
C11	C	0.838635	-0.000064	-0.119897
C12	C	0.745390	-0.000056	-0.118252
N13	N	0.992211	-0.228252	-0.113824
N14	N	0.992208	0.228097	-0.113842
C15	C	0.530561	-0.000079	-0.035203
C16	C	0.469528	0.072135	-0.073772
C17	C	0.574665	-0.000066	-0.115275
C18	C	0.469549	-0.072261	-0.073783
C19	C	0.409753	-0.000081	-0.112394
C20	C	0.514861	0.072207	-0.153867
C21	C	0.514888	-0.072253	-0.153867
C22	C	0.453874	-0.000021	-0.192494
C23	C	0.669667	-0.000058	-0.116933
C24	C	0.314753	-0.000083	-0.110743
C25	C	1.145777	-0.000090	-0.107775
C26	C	1.239022	-0.000092	-0.109420
C27	C	0.998380	-0.000088	0.038168
C28	C	0.996748	-0.000089	0.130464
C29	C	1.049437	0.453810	-0.057433
C30	C	1.049440	0.546000	-0.057431
C31	C	0.934979	0.546027	-0.170239
C32	C	0.934981	0.453839	-0.170245
C33	C	0.992209	0.407733	-0.113837
C34	C	0.992210	0.592111	-0.113829
C35	C	0.992212	0.692067	-0.113827
C36	C	0.992208	0.307771	-0.113839
C37	C	0.986032	-0.000066	-0.265840
C38	C	0.987664	-0.000059	-0.358136
C39	C	1.069497	-0.000082	0.352712
C40	C	1.067958	-0.000074	0.439433
C41	C	0.914909	-0.000064	0.419608
C42	C	0.916450	-0.000065	0.332889
C43	C	0.993746	-0.000078	0.299444
C44	C	0.990666	-0.000070	0.472884
C45	C	0.988996	-0.000062	0.566910
C46	C	0.995417	-0.000085	0.205411
H47	H	0.449430	0.133182	-0.039908
C48	C	0.442428	-0.154738	-0.028014
C49	C	0.461430	-0.247073	-0.060688
C50	C	0.434312	-0.329545	-0.014912
C51	C	0.388190	-0.319683	0.063537
C52	C	0.369185	-0.227344	0.096214
C53	C	0.396304	-0.144872	0.050439
H54	H	0.495574	-0.254377	-0.118764
H55	H	0.448381	-0.397900	-0.039103
H56	H	0.368116	-0.380734	0.097422
H57	H	0.335042	-0.220040	0.154291
H58	H	0.382235	-0.076517	0.074630
H59	H	0.563915	0.000005	0.031251
C60	C	0.541841	0.154783	-0.199579
C61	C	0.635648	0.170071	-0.209543
C62	C	0.662631	0.252648	-0.255248
C63	C	0.595807	0.319938	-0.290990
C64	C	0.501993	0.304652	-0.281027
C65	C	0.475011	0.222075	-0.235321
H66	H	0.685121	0.120257	-0.183084
H67	H	0.732079	0.263963	-0.262623
H68	H	0.615781	0.381066	-0.324824
H69	H	0.452521	0.354466	-0.307486
H70	H	0.405563	0.210760	-0.227946
H71	H	1.132437	-0.000091	0.325484
C72	C	1.151285	-0.000081	0.498029
C73	C	1.236304	-0.000093	0.461236
C74	C	1.319636	-0.000098	0.519832
C75	C	1.317948	-0.000089	0.615221
C76	C	1.232926	-0.000077	0.652018
C77	C	1.149595	-0.000072	0.593423
H78	H	1.237556	-0.000100	0.390619
H79	H	1.382575	-0.000107	0.492591
H80	H	1.379635	-0.000093	0.658597
H81	H	1.231674	-0.000070	0.722635
H82	H	1.086655	-0.000063	0.620663
H83	H	0.888379	0.416321	-0.216179
C84	C	0.542083	-0.154725	-0.199573
C85	C	0.475520	-0.222551	-0.234695
C86	C	0.502719	-0.305032	-0.280392
C87	C	0.596481	-0.319688	-0.290966
C88	C	0.663051	-0.251861	-0.255843
C89	C	0.635852	-0.169379	-0.210147
H90	H	0.406106	-0.211704	-0.226868
H91	H	0.453439	-0.355243	-0.306392
H92	H	0.616616	-0.380746	-0.324794
H93	H	0.732465	-0.262708	-0.263671
H94	H	0.685131	-0.119169	-0.184147
H95	H	0.851977	-0.000055	0.446851
C96	C	1.112393	0.403093	0.004608
C97	C	1.175374	0.453782	0.066620
C98	C	1.238334	0.403068	0.128660
C99	C	1.238313	0.301665	0.128689
C100	C	1.175331	0.250970	0.066674
C101	C	1.112370	0.301684	0.004634
H102	H	1.175391	0.528852	0.066600
H103	H	1.284958	0.440597	0.174567
H104	H	1.284920	0.264124	0.174615
H105	H	1.175313	0.175901	0.066693
H106	H	1.065746	0.264156	-0.041273
C107	C	1.112389	0.596686	0.004617
C108	C	1.176540	0.660062	-0.028035
C109	C	1.239493	0.710748	0.034015
C110	C	1.238295	0.698058	0.128715
C111	C	1.174142	0.634679	0.161372
C112	C	1.111189	0.583993	0.099322
H113	H	1.177428	0.669459	-0.098142
H114	H	1.286983	0.757666	0.009840
H115	H	1.284896	0.735579	0.174648
H116	H	1.173253	0.625282	0.231479
H117	H	1.063699	0.537075	0.123497
C118	C	0.872023	0.596745	-0.232280
C119	C	0.872011	0.698148	-0.232276
C120	C	0.809051	0.748862	-0.294316
C121	C	0.746103	0.698173	-0.356360
C122	C	0.746113	0.596764	-0.356366
C123	C	0.809073	0.546050	-0.294326
H124	H	0.918611	0.735676	-0.186345
H125	H	0.809044	0.823932	-0.294311
H126	H	0.699496	0.735714	-0.402286
H127	H	0.699513	0.559235	-0.402297
H128	H	0.809079	0.470980	-0.294331
C129	C	0.833118	-0.000064	0.274286
C130	C	0.748095	-0.000062	0.311071
C131	C	0.664768	-0.000058	0.252468
C132	C	0.666464	-0.000056	0.157081
C133	C	0.751491	-0.000058	0.120291
C134	C	0.834818	-0.000062	0.178894
H135	H	0.746836	-0.000063	0.381687
H136	H	0.601826	-0.000056	0.279703
H137	H	0.604780	-0.000053	0.113699
H138	H	0.752749	-0.000057	0.049675
H139	H	0.897760	-0.000064	0.151659
H140	H	0.420693	0.000025	-0.259016
