data_functionalizedCrystal
_audit_creation_method	'MofGen! by Chris Wilmer'
_symmetry_space_group_name_H-M	'P1'
_symmetry_Int_Tables_number	1
_symmetry_cell_setting	triclinic
loop_
_symmetry_equiv_pos_as_xyz
  x,y,z
_cell_length_a	16.793024
_cell_length_b	16.793047
_cell_length_c	33.586455
_cell_angle_alpha	113.253857
_cell_angle_beta	66.219990
_cell_angle_gamma	112.758327
loop_
_atom_site_label
_atom_site_type_symbol
_atom_site_fract_x
_atom_site_fract_y
_atom_site_fract_z
O1	O	0.005016	-0.570216	-0.583573
O2	O	-0.034529	-0.474528	-0.453458
O3	O	0.114723	-0.474535	-0.528082
O4	O	-0.144235	-0.570209	-0.508949
O5	O	0.108729	-0.346329	-0.530229
O6	O	-0.040523	-0.346322	-0.455605
O7	O	-0.000977	-0.442010	-0.585721
Cu8	Cu	-0.021297	-0.382459	-0.520859
Cu9	Cu	-0.014209	-0.534079	-0.518320
O10	O	-0.150229	-0.442003	-0.511097
C11	C	0.005100	-0.790970	-0.238461
C12	C	-0.040584	-0.395375	-0.435637
C13	C	-0.044693	-0.353446	-0.386631
C14	C	-0.039275	-0.401741	-0.363054
C15	C	-0.040566	-0.125547	-0.300731
C16	C	-0.044689	-0.223451	-0.321635
C17	C	-0.039266	-0.270752	-0.297563
C18	C	0.005118	-0.521142	-0.103554
C19	C	-0.046224	-0.263935	-0.366370
C20	C	-0.036476	-0.360146	-0.318399
C21	C	-0.030850	-0.408530	-0.294565
C22	C	-0.028014	-0.367522	-0.249895
C23	C	-0.030804	-0.278128	-0.229058
C24	C	-0.036430	-0.229743	-0.252892
C25	C	-0.027971	-0.237122	-0.184383
C26	C	-0.022345	-0.285507	-0.160550
C27	C	-0.019555	-0.374900	-0.181386
C28	C	-0.022391	-0.415909	-0.226057
C29	C	-0.019601	-0.505302	-0.246894
C30	C	-0.013975	-0.553687	-0.223060
C31	C	-0.011142	-0.512684	-0.178391
C32	C	-0.013932	-0.423291	-0.157554
C33	C	-0.005516	-0.561069	-0.154557
C34	C	-0.002726	-0.650463	-0.175394
C35	C	-0.005562	-0.691471	-0.220064
C36	C	-0.011185	-0.643081	-0.243897
C37	C	-0.022434	-0.546309	-0.291568
C38	C	-0.019644	-0.635702	-0.312405
C39	C	-0.014021	-0.684089	-0.288567
C40	C	-0.022480	-0.676711	-0.357076
C41	C	-0.028106	-0.628326	-0.380910
C42	C	-0.030896	-0.538933	-0.360073
C43	C	-0.028060	-0.497924	-0.315402
C44	C	-0.036522	-0.490548	-0.383907
C45	C	0.815184	-0.521162	-0.508596
C46	C	0.415541	-0.125553	-0.528781
C47	C	0.375032	-0.223457	-0.531493
C48	C	0.423813	-0.270761	-0.529101
C49	C	0.149318	-0.395376	-0.530584
C50	C	0.246774	-0.353455	-0.532364
C51	C	0.294574	-0.401748	-0.529976
C52	C	0.548961	-0.790984	-0.510398
C53	C	0.286104	-0.263940	-0.532530
C54	C	0.383336	-0.360149	-0.528302
C55	C	0.432207	-0.407971	-0.525810
C56	C	0.392316	-0.497392	-0.524993
C57	C	0.303554	-0.538991	-0.526667
C58	C	0.254683	-0.491169	-0.529159
C59	C	0.263666	-0.628421	-0.525851
C60	C	0.312537	-0.676243	-0.523359
C61	C	0.401299	-0.634644	-0.521685
C62	C	0.441190	-0.545223	-0.522502
C63	C	0.529952	-0.503624	-0.520828
C64	C	0.578823	-0.551446	-0.518336
C65	C	0.538939	-0.640864	-0.517520
C66	C	0.450177	-0.682463	-0.519194
C67	C	0.587810	-0.688687	-0.515028
C68	C	0.676572	-0.647088	-0.513354
C69	C	0.716463	-0.557666	-0.514172
C70	C	0.667586	-0.509847	-0.516662
C71	C	0.569840	-0.414195	-0.521644
C72	C	0.658602	-0.372596	-0.519970
C73	C	0.707476	-0.420426	-0.517480
C74	C	0.698493	-0.283174	-0.520788
C75	C	0.649622	-0.235352	-0.523280
C76	C	0.560860	-0.276951	-0.524954
C77	C	0.520969	-0.366372	-0.524136
C78	C	0.511989	-0.229129	-0.527446
C79	C	-0.040530	-0.395407	-0.935652
C80	C	0.005063	-0.791004	-0.738448
C81	C	0.009186	-0.693099	-0.717543
C82	C	0.003779	-0.645796	-0.741620
C83	C	0.005077	-0.521171	-0.603544
C84	C	0.009198	-0.563096	-0.652550
C85	C	0.003786	-0.514804	-0.676131
C86	C	-0.040516	-0.125574	-0.800747
C87	C	0.010719	-0.652613	-0.672809
C88	C	0.000994	-0.556406	-0.720789
C89	C	-0.004621	-0.508585	-0.744908
C90	C	-0.007444	-0.419162	-0.724369
C91	C	-0.004651	-0.377560	-0.679711
C92	C	0.000964	-0.425381	-0.655592
C93	C	-0.007471	-0.288129	-0.659174
C94	C	-0.013086	-0.240308	-0.683293
C95	C	-0.015878	-0.281910	-0.727951
C96	C	-0.013056	-0.371333	-0.748490
C97	C	-0.015848	-0.412935	-0.793148
C98	C	-0.021463	-0.365114	-0.817267
C99	C	-0.024282	-0.275694	-0.796731
C100	C	-0.021490	-0.234092	-0.752073
C101	C	-0.029897	-0.227873	-0.820850
C102	C	-0.032690	-0.269476	-0.865508
C103	C	-0.029867	-0.358899	-0.886047
C104	C	-0.024255	-0.406717	-0.861925
C105	C	-0.013028	-0.502367	-0.813685
C106	C	-0.015821	-0.543969	-0.858343
C107	C	-0.021433	-0.496140	-0.882464
C108	C	-0.012998	-0.633392	-0.878882
C109	C	-0.007383	-0.681213	-0.854763
C110	C	-0.004591	-0.639611	-0.810105
C111	C	-0.007414	-0.550188	-0.789566
C112	C	0.001024	-0.687432	-0.785986
O113	O	-0.000965	0.173549	-0.277957
O114	O	-0.040516	-0.085616	-0.325254
O115	O	0.108737	0.059592	-0.327284
O116	O	-0.150219	0.028341	-0.275927
O117	O	0.114753	0.055151	-0.263265
O118	O	-0.034500	-0.090057	-0.261234
O119	O	0.005051	0.169108	-0.213937
Cu120	Cu	-0.014175	0.039120	-0.231740
Cu121	Cu	-0.021290	0.044372	-0.307451
O122	O	-0.144202	0.023900	-0.211907
O123	O	-0.034458	-0.474571	0.046517
O124	O	0.005076	-0.570190	-0.083599
O125	O	-0.144170	-0.570237	-0.008972
O126	O	0.114787	-0.474523	-0.028110
O127	O	-0.150200	-0.442024	-0.011093
O128	O	-0.000954	-0.441976	-0.085720
O129	O	-0.040488	-0.346357	0.044396
Cu130	Cu	-0.021272	-0.382460	-0.020856
Cu131	Cu	-0.014141	-0.534087	-0.018347
O132	O	0.108757	-0.346309	-0.030231
C133	C	-0.850734	0.086244	-0.289716
C134	C	-0.450996	0.035117	-0.097351
C135	C	-0.410501	0.028587	-0.146852
C136	C	-0.459292	0.034683	-0.169840
C137	C	-0.184802	0.024283	-0.235878
C138	C	-0.282257	0.023363	-0.213592
C139	C	-0.330068	0.029423	-0.237088
C140	C	-0.584541	0.075410	-0.428242
C141	C	-0.321573	0.024104	-0.168302
C142	C	-0.418828	0.035176	-0.215083
C143	C	-0.467711	0.041476	-0.238329
C144	C	-0.427833	0.042022	-0.283580
C145	C	-0.339073	0.036269	-0.305586
C146	C	-0.290190	0.029970	-0.282340
C147	C	-0.299198	0.036812	-0.350842
C148	C	-0.348081	0.043111	-0.374088
C149	C	-0.436841	0.048864	-0.352082
C150	C	-0.476719	0.048318	-0.306830
C151	C	-0.565480	0.054071	-0.284825
C152	C	-0.614362	0.060370	-0.308071
C153	C	-0.574491	0.060913	-0.353321
C154	C	-0.485730	0.055160	-0.375326
C155	C	-0.623374	0.067212	-0.376567
C156	C	-0.712134	0.072965	-0.354561
C157	C	-0.752012	0.072419	-0.309309
C158	C	-0.703123	0.066123	-0.286065
C159	C	-0.605355	0.053528	-0.239569
C160	C	-0.694115	0.059281	-0.217564
C161	C	-0.743001	0.065577	-0.240813
C162	C	-0.733993	0.058735	-0.172312
C163	C	-0.685110	0.052436	-0.149066
C164	C	-0.596350	0.046683	-0.171072
C165	C	-0.556472	0.047229	-0.216323
C166	C	-0.547467	0.040383	-0.147826
O167	O	0.585213	0.169090	-0.504004
O168	O	0.494056	-0.090076	-0.525516
O169	O	0.488081	0.055124	-0.449918
O170	O	0.591189	0.023889	-0.579602
O171	O	0.359978	0.059584	-0.452885
O172	O	0.365953	-0.085616	-0.528483
O173	O	0.457110	0.173550	-0.506971
Cu174	Cu	0.399835	0.044374	-0.517998
Cu175	Cu	0.551332	0.039099	-0.514489
O176	O	0.463086	0.028349	-0.582569
C177	C	0.815354	-0.521094	-0.008709
C178	C	0.415547	-0.125494	-0.028771
C179	C	0.375059	-0.223405	-0.031498
C180	C	0.423859	-0.270708	-0.029121
C181	C	0.149365	-0.395355	-0.030599
C182	C	0.246820	-0.353421	-0.032381
C183	C	0.294640	-0.401713	-0.030008
C184	C	0.549171	-0.790955	-0.010537
C185	C	0.286131	-0.263897	-0.032533
C186	C	0.383402	-0.360104	-0.028335
C187	C	0.432293	-0.407926	-0.025859
C188	C	0.392422	-0.497356	-0.025055
C189	C	0.303660	-0.538965	-0.026727
C190	C	0.254769	-0.491143	-0.029204
C191	C	0.263791	-0.628403	-0.025925
C192	C	0.312683	-0.676224	-0.023448
C193	C	0.401445	-0.634615	-0.021775
C194	C	0.441316	-0.545185	-0.022579
C195	C	0.530078	-0.503576	-0.020906
C196	C	0.578969	-0.551398	-0.018429
C197	C	0.539104	-0.640825	-0.017627
C198	C	0.450342	-0.682434	-0.019300
C199	C	0.587995	-0.688646	-0.015150
C200	C	0.676757	-0.647037	-0.013477
C201	C	0.716628	-0.557607	-0.014281
C202	C	0.667731	-0.509789	-0.016757
C203	C	0.569946	-0.414138	-0.021709
C204	C	0.658708	-0.372530	-0.020036
C205	C	0.707602	-0.420359	-0.017561
C206	C	0.698579	-0.283100	-0.020840
C207	C	0.649688	-0.235278	-0.023317
C208	C	0.560926	-0.276887	-0.024990
C209	C	0.521055	-0.366317	-0.024186
C210	C	0.512035	-0.229066	-0.027467
O211	O	-0.620614	0.089309	0.052274
O212	O	-0.529507	0.043784	-0.078544
O213	O	-0.523494	0.194833	-0.006033
O214	O	-0.626628	-0.061740	-0.020236
O215	O	-0.395386	0.185419	-0.005549
O216	O	-0.401400	0.034370	-0.078059
O217	O	-0.492507	0.079895	0.052758
Cu218	Cu	-0.435256	0.056273	-0.012607
Cu219	Cu	-0.586758	0.067406	-0.013179
O220	O	-0.498521	-0.071154	-0.019752
C221	C	-0.437537	0.048335	0.402491
C222	C	-0.837226	0.099430	0.210091
C223	C	-0.739773	0.100339	0.187806
C224	C	-0.691967	0.094287	0.211308
C225	C	-0.571027	0.088563	0.071568
C226	C	-0.611521	0.095108	0.121070
C227	C	-0.562739	0.089011	0.144061
C228	C	-0.171338	0.037467	0.263967
C229	C	-0.700452	0.099593	0.142516
C230	C	-0.603213	0.088528	0.189308
C231	C	-0.554892	0.082255	0.212848
C232	C	-0.466098	0.076466	0.191141
C233	C	-0.425624	0.076949	0.145894
C234	C	-0.473945	0.083222	0.122354
C235	C	-0.336822	0.071163	0.124188
C236	C	-0.288502	0.064890	0.147728
C237	C	-0.328975	0.064407	0.192975
C238	C	-0.417770	0.070196	0.214682
C239	C	-0.458244	0.069713	0.259929
C240	C	-0.409923	0.063441	0.283469
C241	C	-0.321132	0.057655	0.261765
C242	C	-0.280658	0.058138	0.216518
C243	C	-0.272811	0.051382	0.285305
C244	C	-0.313285	0.050899	0.330552
C245	C	-0.402079	0.056688	0.352259
C246	C	-0.450397	0.062957	0.328716
C247	C	-0.547046	0.075500	0.281635
C248	C	-0.587520	0.075016	0.326882
C249	C	-0.539191	0.068747	0.350423
C250	C	-0.676314	0.080806	0.348589
C251	C	-0.724634	0.087078	0.325049
C252	C	-0.684160	0.087561	0.279802
C253	C	-0.595366	0.081772	0.258095
C254	C	-0.732481	0.093834	0.256262
O255	O	-0.040608	-1.085661	-0.825229
O256	O	-0.001018	-0.826491	-0.777938
O257	O	-0.150287	-0.971682	-0.775894
O258	O	0.108661	-0.940470	-0.827272
O259	O	-0.144253	-0.976123	-0.711878
O260	O	0.005016	-0.830932	-0.713922
O261	O	-0.034575	-1.090102	-0.761213
Cu262	Cu	-0.014228	-0.960923	-0.731722
Cu263	Cu	-0.021364	-0.955670	-0.807428
O264	O	0.114695	-0.944911	-0.763256
O265	O	-0.049524	-0.216405	-0.390125
C266	C	-0.131927	-0.204545	-0.431045
C267	C	-0.128318	-0.258447	-0.404142
H268	H	-0.195616	-0.238525	-0.442393
H269	H	-0.132936	-0.133089	-0.408598
H270	H	-0.069853	-0.202148	-0.462092
H271	H	-0.190379	-0.260916	-0.373094
H272	H	-0.127263	-0.329875	-0.426621
H273	H	0.191099	-0.662437	-0.527221
H274	H	-0.020027	-0.251971	-0.124027
O275	O	-0.819021	0.099693	0.277470
C276	C	-0.918890	0.183639	0.339037
C277	C	-0.820855	0.177085	0.315061
H278	H	-0.920407	0.246195	0.369440
H279	H	-0.946567	0.188305	0.314354
H280	H	-0.962285	0.121219	0.351085
H281	H	-0.777388	0.239487	0.303012
H282	H	-0.793250	0.172375	0.339761
H283	H	-0.797237	0.091807	0.342798
H284	H	-0.208057	0.053400	0.198770
O285	O	0.013689	-0.700230	-0.648998
C286	C	-0.059461	-0.756811	-0.583591
C287	C	-0.062943	-0.702884	-0.610521
H288	H	-0.121400	-0.758958	-0.552472
H289	H	-0.058724	-0.828348	-0.605992
H290	H	0.004365	-0.722992	-0.572359
H291	H	-0.126760	-0.736625	-0.621758
H292	H	-0.063630	-0.631349	-0.588103
O293	O	0.785052	-0.242454	-0.519140
C294	C	0.908025	-0.106915	-0.518579
C295	C	0.809989	-0.152916	-0.520440
H296	H	0.928224	-0.034522	-0.519639
H297	H	0.913387	-0.107122	-0.485849
H298	H	0.955068	-0.145076	-0.548908
H299	H	0.762887	-0.114792	-0.490135
H300	H	0.804701	-0.152720	-0.553190
H301	H	-0.717713	0.052007	-0.112064
H302	H	-0.315470	0.043557	-0.411085
O303	O	-0.212580	0.031310	-0.372238
C304	C	-0.056352	0.098513	-0.373742
C305	C	-0.154408	0.104849	-0.349458
H306	H	-0.009290	0.157971	-0.355340
H307	H	-0.050968	0.032962	-0.373655
H308	H	-0.036200	0.099944	-0.410232
H309	H	-0.174624	0.103455	-0.312958
H310	H	-0.159739	0.170393	-0.349581
H311	H	0.245727	-0.224039	-0.533582
H312	H	0.417564	-0.755580	-0.518528
O313	O	-0.586509	0.039820	-0.103694
C314	C	-0.719786	0.045715	-0.039163
C315	C	-0.675686	0.046348	-0.089144
H316	H	-0.791887	0.051012	-0.027381
H317	H	-0.720970	-0.019624	-0.035706
H318	H	-0.679116	0.105361	-0.017389
H319	H	-0.716320	-0.013254	-0.110948
H320	H	-0.674489	0.111726	-0.092565
O321	O	0.003523	-0.384806	-0.612008
C322	C	-0.072515	-0.310405	-0.535895
C323	C	-0.075532	-0.356356	-0.585235
H324	H	-0.136414	-0.287374	-0.514236
H325	H	-0.068062	-0.360123	-0.522088
H326	H	-0.010793	-0.249638	-0.534841
H327	H	-0.137247	-0.417118	-0.586328
H328	H	-0.079937	-0.306580	-0.599020
O329	O	0.273508	-0.763471	-0.522589
C330	C	0.140183	-0.888881	-0.523681
C331	C	0.184280	-0.790098	-0.524568
H332	H	0.068030	-0.910434	-0.525271
H333	H	0.180744	-0.933608	-0.554070
H334	H	0.139117	-0.895714	-0.491009
H335	H	0.185355	-0.783179	-0.557220
H336	H	0.143705	-0.745419	-0.494156
H337	H	-0.011748	-0.757184	-0.305606
O338	O	0.785125	-0.242574	-0.019145
C339	C	0.889656	-0.196976	0.023221
C340	C	0.791620	-0.242914	0.021350
H341	H	0.894935	-0.197218	0.055963
H342	H	0.936770	-0.235072	-0.007098
H343	H	0.909828	-0.124563	0.022195
H344	H	0.771363	-0.315325	0.022391
H345	H	0.744563	-0.204749	0.051667
H346	H	-0.440845	0.083623	0.085362
O347	O	0.688709	-0.148050	-0.024093
C348	C	0.821945	-0.022557	-0.022882
C349	C	0.777879	-0.121359	-0.022025
H350	H	0.894039	-0.000942	-0.021201
H351	H	0.823140	-0.015600	-0.055552
H352	H	0.781244	0.022039	0.007508
H353	H	0.818543	-0.166016	-0.052392
H354	H	0.776670	-0.128244	0.010665
H355	H	-0.005085	-0.754331	-0.871556
O356	O	0.717250	-0.691678	-0.504529
C357	C	0.714020	-0.758086	-0.451879
C358	C	0.667843	-0.707645	-0.461840
H359	H	0.674104	-0.770994	-0.417361
H360	H	0.716419	-0.825050	-0.479233
H361	H	0.785769	-0.715494	-0.451657
H362	H	0.596075	-0.750162	-0.462054
H363	H	0.665515	-0.640674	-0.434484
O364	O	-0.030738	-0.149936	-0.164122
C365	C	-0.039361	-0.017039	-0.171848
C366	C	-0.036254	-0.115779	-0.194847
H367	H	-0.043802	0.010612	-0.196681
H368	H	-0.101067	-0.013183	-0.140623
H369	H	0.024557	0.024575	-0.161218
H370	H	-0.100127	-0.157453	-0.205506
H371	H	0.025494	-0.119565	-0.226052
H372	H	-0.281187	0.020914	-0.148901
O373	O	-0.201847	0.059359	0.126623
C374	C	-0.045887	0.126542	0.125630
C375	C	-0.143983	0.132912	0.149581
H376	H	0.000927	0.186011	0.144176
H377	H	-0.040752	0.061002	0.125865
H378	H	-0.025206	0.127926	0.089092
H379	H	-0.164727	0.131566	0.186127
H380	H	-0.149064	0.198445	0.149309
H381	H	-0.030422	-0.661858	-0.417434
O382	O	-0.039284	-0.530680	-0.427476
C383	C	-0.038600	-0.665636	-0.490217
C384	C	-0.035507	-0.620309	-0.440868
H385	H	-0.035529	-0.738102	-0.501063
H386	H	-0.104054	-0.665156	-0.492790
H387	H	0.021562	-0.627176	-0.513345
H388	H	-0.095624	-0.658733	-0.417711
H389	H	0.029984	-0.620777	-0.438332
H390	H	-0.303725	0.071562	0.087197
H391	H	-0.020209	-0.749804	-0.374113
O392	O	0.237853	-0.216284	-0.033688
C393	C	0.106262	-0.159736	0.003281
C394	C	0.160865	-0.213657	0.004647
H395	H	0.043996	-0.157611	0.034266
H396	H	0.150094	-0.088192	0.003398
H397	H	0.084243	-0.193545	-0.028856
H398	H	0.182894	-0.179925	0.036779
H399	H	0.117000	-0.285200	0.004506
O400	O	-0.446839	0.055532	-0.419489
C401	C	-0.377241	-0.024336	-0.495704
C402	C	-0.421281	-0.024886	-0.445710
H403	H	-0.356548	-0.089338	-0.516916
H404	H	-0.427613	-0.018881	-0.508626
H405	H	-0.314898	0.035659	-0.498574
H406	H	-0.483617	-0.084874	-0.442801
H407	H	-0.370850	-0.030295	-0.432810
O408	O	-0.748488	0.103507	0.119332
C409	C	-0.759392	0.185219	0.077559
C410	C	-0.704892	0.180886	0.103795
H411	H	-0.724177	0.247784	0.064998
H412	H	-0.764112	0.122606	0.047340
H413	H	-0.830281	0.188501	0.100946
H414	H	-0.633978	0.177633	0.080445
H415	H	-0.700247	0.243497	0.134018
H416	H	0.182201	-0.525171	-0.030575
O417	O	-0.024007	-0.536760	-0.926046
C418	C	0.052128	-0.610990	-1.002178
C419	C	0.055133	-0.565047	-0.952835
H420	H	0.116114	-0.633855	-1.023853
H421	H	-0.009510	-0.671838	-1.003296
H422	H	0.047579	-0.561224	-1.015919
H423	H	0.059715	-0.614742	-0.939063
H424	H	0.116762	-0.504184	-0.951746
H425	H	0.191224	-0.662427	-0.027294
H426	H	-0.806568	0.063430	-0.154318
H427	H	-0.023809	-0.160979	-0.735279
O428	O	-0.752815	0.091656	-0.376328
C429	C	-0.749605	0.196741	-0.409647
C430	C	-0.703431	0.175674	-0.385010
H431	H	-0.709708	0.264678	-0.416666
H432	H	-0.751974	0.142051	-0.443085
H433	H	-0.821366	0.199114	-0.387397
H434	H	-0.631651	0.173315	-0.407224
H435	H	-0.701134	0.230369	-0.351568
H436	H	-0.815575	0.070280	-0.222817
H437	H	-0.011621	-0.389765	-0.121028
O438	O	0.015365	-0.691284	-0.153405
C439	C	0.035624	-0.826870	-0.154768
C440	C	0.015149	-0.780743	-0.179724
H441	H	0.035437	-0.899211	-0.176032
H442	H	0.104798	-0.788714	-0.149199
H443	H	-0.018274	-0.826848	-0.120577
H444	H	0.068989	-0.780755	-0.213928
H445	H	-0.054052	-0.818914	-0.185257
O446	O	0.551044	-0.141829	-0.028229
C447	C	0.684257	-0.016314	-0.026988
C448	C	0.640211	-0.115131	-0.026155
H449	H	0.756348	0.005307	-0.025302
H450	H	0.685457	-0.009327	-0.059652
H451	H	0.643539	0.028256	0.003408
H452	H	0.680892	-0.159762	-0.056529
H453	H	0.638997	-0.122047	0.006528
O454	O	-0.015672	-0.153038	-0.663267
C455	C	0.060303	-0.002493	-0.627461
C456	C	0.063362	-0.101289	-0.650141
H457	H	0.124186	0.039371	-0.616834
H458	H	0.055850	0.024718	-0.652465
H459	H	-0.001434	0.001559	-0.596263
H460	H	0.125094	-0.105419	-0.681336
H461	H	0.067767	-0.128456	-0.625108
H462	H	-0.709407	0.080425	0.385586
H463	H	0.280077	-0.749342	-0.022791
H464	H	0.182115	-0.525189	-0.530531
O465	O	-0.268588	0.032054	0.350232
C466	C	-0.204921	-0.075741	0.348760
C467	C	-0.255522	-0.054507	0.326421
H468	H	-0.194358	-0.145733	0.329524
H469	H	-0.136514	-0.023738	0.347829
H470	H	-0.246491	-0.073492	0.385489
H471	H	-0.214027	-0.056769	0.289684
H472	H	-0.323934	-0.106513	0.327388
H473	H	-0.047834	-0.232081	-0.882358
H474	H	-0.038719	-0.156659	-0.235851
O475	O	-0.015585	-0.674023	-0.922461
C476	C	0.060507	-0.748297	-0.998592
C477	C	0.063545	-0.702324	-0.949256
H478	H	0.124484	-0.771175	-1.020272
H479	H	-0.001139	-0.809141	-0.999696
H480	H	0.055947	-0.698547	-1.012340
H481	H	0.068137	-0.752005	-0.935478
H482	H	0.125180	-0.641467	-0.948182
O483	O	0.717455	-0.691631	-0.004667
C484	C	0.714260	-0.758073	0.047961
C485	C	0.668061	-0.707627	0.038017
H486	H	0.674355	-0.771004	0.082474
H487	H	0.716669	-0.825025	0.020598
H488	H	0.786006	-0.715472	0.048183
H489	H	0.596295	-0.750153	0.037801
H490	H	0.665723	-0.640668	0.065381
H491	H	-0.572284	0.068372	0.387422
H492	H	0.780052	-0.386407	-0.516111
H493	H	0.682238	-0.162236	-0.523943
H494	H	0.544602	-0.156012	-0.528109
H495	H	0.780178	-0.386331	-0.016193
H496	H	-0.005182	-0.254109	-0.622664
H497	H	0.003321	-0.760550	-0.802778
H498	H	-0.217624	0.025258	-0.300336
H499	H	0.417746	-0.755558	-0.018645
