data_functionalizedCrystal
_audit_creation_method	'MofGen! by Chris Wilmer'
_symmetry_space_group_name_H-M	'P1'
_symmetry_Int_Tables_number	1
_symmetry_cell_setting	triclinic
loop_
_symmetry_equiv_pos_as_xyz
  x,y,z
_cell_length_a	12.759401
_cell_length_b	13.031981
_cell_length_c	13.033429
_cell_angle_alpha	74.789740
_cell_angle_beta	97.163356
_cell_angle_gamma	97.191023
loop_
_atom_site_label
_atom_site_type_symbol
_atom_site_fract_x
_atom_site_fract_y
_atom_site_fract_z
Zn1	Zn	1.492204	-0.346612	-0.546754
Zn2	Zn	1.492096	-0.546865	-0.346552
Zn3	Zn	1.336294	-0.369229	-0.369154
Zn4	Zn	1.296711	-0.524218	-0.524136
O5	O	1.404326	-0.446731	-0.446649
O6	O	1.639209	-0.373189	-0.520203
O7	O	1.487949	-0.542245	-0.200903
O8	O	1.373587	-0.217559	-0.411637
O9	O	1.639129	-0.520314	-0.373115
O10	O	1.488133	-0.200942	-0.542120
O11	O	1.373482	-0.411736	-0.217509
O12	O	1.184025	-0.389776	-0.389706
O13	O	1.306123	-0.481715	-0.675783
O14	O	1.154943	-0.503645	-0.503571
O15	O	1.449751	-0.351229	-0.692400
O16	O	1.449567	-0.692531	-0.351184
O17	O	1.306018	-0.675892	-0.481655
C18	C	1.131363	-0.446708	-0.446637
C19	C	1.014583	-0.446720	-0.446654
C20	C	0.959729	-0.370227	-0.523332
C21	C	0.850002	-0.370247	-0.523336
C22	C	0.849991	-0.523262	-0.369981
C23	C	0.959718	-0.523237	-0.369973
C24	C	0.959734	-0.281888	-0.611874
C25	C	0.850007	-0.281907	-0.611878
C26	C	1.373512	-0.722757	-0.411536
C27	C	1.360421	-0.840837	-0.396549
C28	C	1.411212	-0.885168	-0.454492
C29	C	1.397683	-1.007211	-0.439004
C30	C	1.678355	-0.446755	-0.446661
C31	C	1.795130	-0.446765	-0.446666
C32	C	1.373534	-0.411423	-0.723712
C33	C	1.360412	-0.396376	-0.841779
C34	C	1.435287	-0.169624	-0.481923
C35	C	1.448481	-0.051538	-0.496954
C36	C	1.397641	-0.438706	-1.008224
C37	C	1.411204	-0.454251	-0.886196
C38	C	1.435068	-0.481825	-0.170674
C39	C	1.448427	-0.496572	-0.052645
H40	H	1.004378	-0.585516	-0.307526
H41	H	0.805307	-0.585559	-0.307550
F42	F	1.013823	-0.177934	-0.596941
F43	F	1.327744	-1.075689	-0.359177
H44	H	1.501980	-0.999144	-0.558035
H45	H	1.464707	-0.832772	-0.515569
H46	H	0.981803	-0.301526	-0.686204
H47	H	1.344125	-0.377651	-1.060536
F48	F	1.290457	-0.316566	-0.910143
H49	H	0.808630	-0.293599	-0.691294
H50	H	1.501951	-0.557619	-1.000334
H51	H	1.306916	-0.893235	-0.335482
F52	F	1.481171	-0.534050	-0.817831
H53	H	0.827945	-0.207439	-0.592500
