data_functionalizedCrystal
_audit_creation_method	'MofGen! by Chris Wilmer'
_symmetry_space_group_name_H-M	'P1'
_symmetry_Int_Tables_number	1
_symmetry_cell_setting	triclinic
loop_
_symmetry_equiv_pos_as_xyz
  x,y,z
_cell_length_a	6.817900
_cell_length_b	9.582860
_cell_length_c	11.168143
_cell_angle_alpha	91.014339
_cell_angle_beta	108.508824
_cell_angle_gamma	111.206767
loop_
_atom_site_label
_atom_site_type_symbol
_atom_site_fract_x
_atom_site_fract_y
_atom_site_fract_z
V1	V	-4.124189	-0.207079	-0.393468
O2	O	-4.068783	0.009926	-0.386216
O3	O	-4.114534	-0.410580	-0.390548
O4	O	-4.100261	-0.203905	-0.565177
O5	O	-4.083155	-0.198180	-0.210378
V6	V	-4.599625	-0.181122	-0.371597
O7	O	-4.403186	-0.264020	-0.441444
O8	O	-4.770826	-0.124181	-0.323620
O9	O	-4.386074	0.022379	-0.374517
O10	O	-4.772428	-0.398128	-0.378849
O11	O	-4.758056	-0.190022	-0.554687
O12	O	-4.400346	-0.184296	-0.199887
C13	C	-3.968168	-0.460189	-0.384282
C14	C	-4.041724	-0.626553	-0.383039
C15	C	-3.949961	-0.196552	-0.607037
C16	C	-4.011937	-0.195303	-0.747409
C17	C	-4.169430	-0.323695	-0.972059
C18	C	-4.105376	-0.324989	-0.826978
C19	C	-4.195782	0.071980	-0.380780
C20	C	-4.101466	0.238343	-0.382031
C21	C	-4.213989	-0.191654	-0.158021
C22	C	-4.131250	-0.192895	-0.017648
H23	H	-4.249529	-0.434719	-1.040436
H24	H	-4.137966	-0.436974	-0.787708
F25	F	-3.969354	-0.048921	-0.798725
F26	F	-4.026527	-0.047772	-0.928278
