data_functionalizedCrystal
_audit_creation_method	'MofGen! by Chris Wilmer'
_symmetry_space_group_name_H-M	'P1'
_symmetry_Int_Tables_number	1
_symmetry_cell_setting	triclinic
loop_
_symmetry_equiv_pos_as_xyz
  x,y,z
_cell_length_a	19.188930
_cell_length_b	12.837942
_cell_length_c	11.295483
_cell_angle_alpha	85.469583
_cell_angle_beta	85.894762
_cell_angle_gamma	91.013140
loop_
_atom_site_label
_atom_site_type_symbol
_atom_site_fract_x
_atom_site_fract_y
_atom_site_fract_z
O1	O	0.939272	-0.122351	-0.099413
O2	O	0.737152	-0.139773	-0.099331
O3	O	0.833730	0.019820	-0.099363
O4	O	0.842694	-0.281944	-0.099381
O5	O	0.825246	0.005824	0.098691
O6	O	0.728668	-0.153769	0.098722
O7	O	0.930788	-0.136347	0.098641
Cu8	Cu	0.828954	-0.146336	0.116765
Cu9	Cu	0.838987	-0.129784	-0.117456
O10	O	0.834210	-0.295940	0.098672
C11	C	0.706860	-0.146208	-0.000294
C12	C	0.629238	-0.144517	-0.000263
N13	N	0.821902	-0.157977	0.281504
C14	C	0.826460	0.051429	-0.000336
C15	C	0.817429	0.166465	-0.000334
C16	C	0.590738	-0.238158	-0.000287
C17	C	0.517806	-0.236566	-0.000300
C18	C	0.483377	-0.141327	-0.000313
C19	C	0.521886	-0.047674	-0.000282
C20	C	0.594817	-0.049269	-0.000257
N21	N	0.373293	-0.063762	-0.067762
N22	N	0.304013	-0.062253	-0.067789
C23	C	0.263642	-0.136516	-0.000385
N24	N	0.295170	-0.212359	0.067031
N25	N	0.364458	-0.213870	0.067051
C26	C	0.404297	-0.139587	-0.000339
C27	C	0.146060	-0.228437	-0.000422
C28	C	0.073126	-0.226842	-0.000428
C29	C	0.077209	-0.037947	-0.000421
C30	C	0.150141	-0.039545	-0.000403
C31	C	0.184562	-0.134793	-0.000410
C32	C	0.961081	-0.129912	-0.000399
C33	C	1.038703	-0.131602	-0.000438
C34	C	0.841481	-0.327548	-0.000358
C35	C	0.850512	-0.442584	-0.000367
C36	C	0.926000	0.407920	-0.000402
C37	C	0.917518	0.516007	-0.000401
C38	C	0.791984	0.490729	-0.000338
C39	C	0.800466	0.382642	-0.000340
C40	C	0.867476	0.341242	-0.000370
C41	C	0.875957	0.233152	-0.000363
C42	C	0.750424	0.207876	-0.000309
C43	C	0.741942	0.315963	-0.000307
N44	N	0.846044	-0.118135	-0.282195
C45	C	0.896804	-0.034279	0.530769
C46	C	0.891480	-0.043084	0.655434
C47	C	0.805927	-0.184385	0.655502
C48	C	0.811251	-0.175580	0.530837
C49	C	0.856691	-0.100526	0.468475
C50	C	0.862019	-0.091727	0.343807
C51	C	0.776462	-0.233023	0.343877
C52	C	0.771139	-0.241827	0.468543
H53	H	0.618760	-0.315716	-0.000294
H54	H	0.737428	0.524458	-0.000326
H55	H	0.734140	-0.302932	0.519332
H56	H	0.687384	0.349687	-0.000287
H57	H	0.743802	-0.286968	0.293143
H58	H	0.049181	0.039604	-0.000505
H59	H	0.899020	-0.030617	0.293033
C60	C	0.686046	0.134528	-0.000283
H61	H	0.700693	0.064225	-0.000296
H62	H	0.655907	0.142172	0.068792
H63	H	0.661827	0.151927	-0.069348
H64	H	0.174087	-0.305995	-0.000410
H65	H	0.933808	0.026826	0.479993
H66	H	0.486453	-0.312823	-0.000317
C67	C	0.999704	0.362370	-0.000426
H68	H	0.996372	0.288446	-0.000413
H69	H	1.027065	0.390152	-0.069498
H70	H	1.021140	0.380398	0.068642
C71	C	0.484018	0.057087	-0.000302
H72	H	0.435070	0.044627	-0.000334
H73	H	0.493830	0.090754	0.068768
H74	H	0.499788	0.100508	-0.069372
C75	C	0.935605	0.029785	0.723955
H76	H	0.963432	0.075738	0.668955
H77	H	0.905550	0.069393	0.772611
H78	H	0.965069	-0.010824	0.772559
C79	C	0.755946	-0.266932	0.724114
H80	H	0.758525	-0.262687	0.807282
H81	H	0.709485	-0.254415	0.703720
H82	H	0.769006	-0.334630	0.703683
H83	H	0.041780	-0.303100	-0.000441
C84	C	0.637169	0.053741	-0.000244
H85	H	0.606222	0.110693	-0.000260
H86	H	0.662733	0.052167	0.068826
H87	H	0.668676	0.061922	-0.069314
H88	H	0.181488	0.036708	-0.000390
H89	H	0.930520	0.199445	-0.000383
H90	H	0.965175	0.570294	-0.000431
