data_functionalizedCrystal
_audit_creation_method	'MofGen! by Chris Wilmer'
_symmetry_space_group_name_H-M	'P1'
_symmetry_Int_Tables_number	1
_symmetry_cell_setting	triclinic
loop_
_symmetry_equiv_pos_as_xyz
  x,y,z
_cell_length_a	16.109302
_cell_length_b	10.723024
_cell_length_c	15.186229
_cell_angle_alpha	89.989223
_cell_angle_beta	89.990142
_cell_angle_gamma	83.964825
loop_
_atom_site_label
_atom_site_type_symbol
_atom_site_fract_x
_atom_site_fract_y
_atom_site_fract_z
O1	O	1.104079	0.160409	-0.073266
O2	O	1.437412	0.493742	0.260067
O3	O	1.770745	0.827076	0.593401
O4	O	0.862134	0.180369	-0.073259
O5	O	1.195467	0.513702	0.260075
O6	O	1.528801	0.847035	0.593408
O7	O	0.988687	-0.011261	-0.073259
O8	O	1.322020	0.322072	0.260074
O9	O	1.655354	0.655405	0.593407
O10	O	0.977525	0.352039	-0.073265
O11	O	1.310859	0.685372	0.260068
O12	O	1.644192	1.018706	0.593401
O13	O	0.988670	-0.011292	0.073198
O14	O	1.322003	0.322041	0.406531
O15	O	1.655336	0.655374	0.739865
O16	O	0.862117	0.180338	0.073199
O17	O	1.195450	0.513671	0.406532
O18	O	1.528783	0.847004	0.739865
O19	O	1.104061	0.160378	0.073191
O20	O	1.437394	0.493711	0.406525
O21	O	1.770728	0.827045	0.739858
Zn22	Zn	0.983086	0.170353	0.096448
Zn23	Zn	1.316419	0.503686	0.429782
Zn24	Zn	1.649753	0.837020	0.763115
Zn25	Zn	0.983109	0.170394	-0.096516
Zn26	Zn	1.316442	0.503727	0.236818
Zn27	Zn	1.649776	0.837060	0.570151
O28	O	0.977508	0.352008	0.073192
O29	O	1.310841	0.685341	0.406525
O30	O	1.644175	1.018675	0.739859
C31	C	0.831146	0.179544	-0.000029
C32	C	1.164479	0.512878	0.333304
C33	C	1.497812	0.846211	0.666638
C34	C	0.738836	0.177120	-0.000026
C35	C	1.072169	0.510453	0.333307
C36	C	1.405503	0.843787	0.666640
C37	C	0.526453	0.171497	0.079799
C38	C	0.859786	0.504831	0.413132
C39	C	1.193119	0.838164	0.746465
C40	C	0.439719	0.169206	0.079796
C41	C	0.773052	0.502539	0.413129
C42	C	1.106386	0.835872	0.746462
C43	C	0.439749	0.169246	-0.079880
C44	C	0.773082	0.502579	0.253453
C45	C	1.106415	0.835913	0.586787
C46	C	0.526481	0.171528	-0.079876
C47	C	0.859815	0.504862	0.253457
C48	C	1.193148	0.838195	0.586791
C49	C	0.569831	0.172660	-0.000034
C50	C	0.903164	0.505994	0.333299
C51	C	1.236497	0.839327	0.666633
C52	C	0.396364	0.168086	-0.000041
C53	C	0.729698	0.501420	0.333292
C54	C	1.063031	0.834753	0.666626
C55	C	0.302324	0.165602	-0.000045
C56	C	0.635657	0.498935	0.333288
C57	C	0.968991	0.832269	0.666622
C58	C	0.663877	0.175142	-0.000030
C59	C	0.997211	0.508476	0.333304
C60	C	1.330544	0.841809	0.666637
C61	C	0.987866	-0.057766	-0.000032
C62	C	1.321199	0.275568	0.333302
C63	C	1.654533	0.608901	0.666635
C64	C	0.985436	-0.196288	-0.000035
C65	C	1.318769	0.137046	0.333299
C66	C	1.652103	0.470379	0.666632
C67	C	1.056248	-0.272209	-0.000038
C68	C	1.389582	0.061125	0.333295
C69	C	1.722915	0.394458	0.666629
C70	C	1.053738	-0.415379	-0.000041
C71	C	1.387072	-0.082045	0.333292
C72	C	1.720405	0.251288	0.666626
C73	C	1.135049	0.161202	-0.000040
C74	C	1.468383	0.494536	0.333293
C75	C	1.801716	0.827869	0.666627
C76	C	1.227359	0.163627	-0.000049
C77	C	1.560692	0.496960	0.333285
C78	C	1.894026	0.830293	0.666618
C79	C	0.978329	0.398512	-0.000038
C80	C	1.311662	0.731846	0.333296
C81	C	1.644996	1.065179	0.666629
C82	C	0.980759	0.537034	-0.000040
C83	C	1.314093	0.870368	0.333293
C84	C	1.647426	1.203701	0.666626
N85	N	0.983076	0.170324	0.228141
N86	N	1.316410	0.503658	0.561474
N87	N	1.649743	0.836991	0.894808
N88	N	0.983125	0.170412	-0.228208
N89	N	1.316459	0.503746	0.105125
N90	N	1.649792	0.837079	0.438458
C91	C	0.932250	0.094677	0.546096
C92	C	1.265584	0.428010	0.879429
C93	C	1.598917	0.761343	1.212763
C94	C	0.932243	0.094659	0.453906
C95	C	1.265576	0.427992	0.787240
C96	C	1.598910	0.761325	1.120573
C97	C	1.033957	0.246063	0.453843
C98	C	1.367290	0.579397	0.787176
C99	C	1.700624	0.912730	1.120510
C100	C	1.033968	0.246074	0.546031
C101	C	1.367301	0.579407	0.879364
C102	C	1.700635	0.912740	1.212698
C103	C	0.983110	0.170383	0.592155
C104	C	1.316443	0.503716	0.925488
C105	C	1.649777	0.837049	1.258822
C106	C	0.983092	0.170354	0.407778
C107	C	1.316425	0.503687	0.741111
C108	C	1.649758	0.837021	1.074444
C109	C	0.983084	0.170335	0.307821
C110	C	1.316418	0.503668	0.641155
C111	C	1.649751	0.837002	0.974488
C112	C	0.983118	0.170400	0.692118
C113	C	1.316452	0.503733	1.025451
C114	C	1.649785	0.837066	1.358784
H115	H	0.404443	0.168326	-0.144885
H116	H	0.737776	0.501659	0.188449
H117	H	1.071110	0.834992	0.521782
O118	O	0.902667	-0.250581	-0.000028
O119	O	1.236000	0.082752	0.333305
O120	O	1.569333	0.416085	0.666639
H121	H	0.866810	-0.218513	-0.059722
H122	H	1.200144	0.114820	0.273611
H123	H	1.533477	0.448154	0.606945
H124	H	0.404405	0.168259	0.144804
H125	H	0.737738	0.501592	0.478137
H126	H	1.071071	0.834926	0.811470
H127	H	1.114359	-0.480615	-0.000040
H128	H	1.447692	-0.147281	0.333293
H129	H	1.781026	0.186052	0.666627
O130	O	0.900448	-0.376577	-0.000031
O131	O	1.233781	-0.043244	0.333302
O132	O	1.567114	0.290089	0.666636
H133	H	0.897919	-0.316555	-0.059725
H134	H	1.231253	0.016778	0.273608
H135	H	1.564586	0.350111	0.606941
O136	O	0.573277	0.172770	-0.165986
O137	O	0.906611	0.506103	0.167348
O138	O	1.239944	0.839437	0.500681
H139	H	0.605877	0.258799	-0.169801
H140	H	0.939211	0.592132	0.163532
H141	H	1.272544	0.925466	0.496866
H142	H	1.118732	-0.231215	-0.000034
H143	H	1.452065	0.102119	0.333299
H144	H	1.785398	0.435452	0.666632
O145	O	0.877392	0.012976	0.404244
O146	O	1.210726	0.346310	0.737578
O147	O	1.544059	0.679643	1.070911
H148	H	0.916871	-0.054092	0.362264
H149	H	1.250205	0.279241	0.695597
H150	H	1.583538	0.612575	1.028930
H151	H	0.890839	0.033043	0.583647
H152	H	1.224172	0.366376	0.916981
H153	H	1.557505	0.699710	1.250314
H154	H	1.075363	0.307690	0.416278
H155	H	1.408696	0.641023	0.749611
H156	H	1.742030	0.974356	1.082944
O157	O	0.573206	0.172712	0.165913
O158	O	0.906539	0.506045	0.499247
O159	O	1.239872	0.839378	0.832580
H160	H	0.640804	0.174508	0.152507
H161	H	0.974137	0.507842	0.485841
H162	H	1.307470	0.841175	0.819174
H163	H	1.075389	0.307724	0.583534
H164	H	1.408722	0.641057	0.916867
H165	H	1.742055	0.974390	1.250200
