data_functionalizedCrystal
_audit_creation_method	'MofGen! by Chris Wilmer'
_symmetry_space_group_name_H-M	'P1'
_symmetry_Int_Tables_number	1
_symmetry_cell_setting	triclinic
loop_
_symmetry_equiv_pos_as_xyz
  x,y,z
_cell_length_a	27.732048
_cell_length_b	27.732048
_cell_length_c	26.809956
_cell_angle_alpha	90.009578
_cell_angle_beta	90.010552
_cell_angle_gamma	82.642655
loop_
_atom_site_label
_atom_site_type_symbol
_atom_site_fract_x
_atom_site_fract_y
_atom_site_fract_z
O1	O	0.640935	0.057516	0.041421
O2	O	1.140935	0.557516	0.541421
O3	O	0.500142	0.066261	0.041436
O4	O	1.000142	0.566261	0.541436
O5	O	0.574911	-0.008508	0.041419
O6	O	1.074911	0.491492	0.541419
O7	O	0.566166	0.132285	0.041439
O8	O	1.066166	0.632285	0.541439
O9	O	0.574889	-0.008508	-0.041541
O10	O	1.074889	0.491492	0.458459
O11	O	0.500119	0.066261	-0.041523
O12	O	1.000119	0.566261	0.458477
O13	O	0.640912	0.057516	-0.041539
O14	O	1.140912	0.557516	0.458461
Zn15	Zn	0.570512	0.061889	-0.054702
Zn16	Zn	1.070512	0.561889	0.445298
Zn17	Zn	0.570542	0.061889	0.054600
Zn18	Zn	1.070542	0.561889	0.554600
O19	O	0.566143	0.132285	-0.041521
O20	O	1.066143	0.632285	0.458479
C21	C	0.482124	0.066078	-0.000041
C22	C	0.982124	0.566078	0.499959
C23	C	0.428469	0.065525	-0.000036
C24	C	0.928469	0.565525	0.499964
C25	C	0.089654	0.106229	-0.000051
C26	C	0.589654	0.606229	0.499949
C27	C	-0.112006	0.104178	-0.000056
C28	C	0.387994	0.604178	0.499944
O29	O	-0.143262	0.141398	-0.000073
O30	O	0.356738	0.641398	0.499927
N31	N	-0.131130	0.059843	-0.000062
N32	N	0.368870	0.559843	0.499938
C33	C	-0.099835	0.016017	-0.000069
C34	C	0.400165	0.516017	0.499931
O35	O	-0.120728	-0.021740	-0.000079
O36	O	0.379272	0.478260	0.499921
C37	C	0.101824	0.018068	-0.000068
C38	C	0.601824	0.518068	0.499932
C39	C	0.120944	0.062407	-0.000057
C40	C	0.620944	0.562407	0.499943
C41	C	0.108775	0.150563	-0.000042
C42	C	0.608775	0.650563	0.499958
C43	C	0.159187	0.151075	-0.000038
C44	C	0.659187	0.651075	0.499962
C45	C	0.190477	0.107253	-0.000044
C46	C	0.690477	0.607253	0.499956
C47	C	0.171356	0.062919	-0.000054
C48	C	0.671356	0.562919	0.499946
C49	C	0.133117	-0.025757	-0.000079
C50	C	0.633117	0.474243	0.499921
C51	C	0.183535	-0.025240	-0.000080
C52	C	0.683535	0.474760	0.499920
C53	C	0.202655	0.019098	-0.000069
C54	C	0.702655	0.519098	0.499931
C55	C	0.253059	0.019609	-0.000056
C56	C	0.753059	0.519609	0.499944
N57	N	0.272183	0.063944	-0.000050
N58	N	0.772183	0.563944	0.499950
C59	C	0.240892	0.107766	-0.000044
C60	C	0.740892	0.607766	0.499956
C61	C	-0.205709	0.014943	-0.000069
C62	C	0.294291	0.514943	0.499931
C63	C	-0.256124	0.014430	-0.000068
C64	C	0.243876	0.514430	0.499932
C65	C	-0.268291	0.102591	-0.000056
C66	C	0.231709	0.602591	0.499944
C67	C	-0.217876	0.103104	-0.000053
C68	C	0.282124	0.603104	0.499947
C69	C	-0.186585	0.059278	-0.000063
C70	C	0.313415	0.559278	0.499937
C71	C	0.346761	0.108839	-0.000036
C72	C	0.846761	0.608839	0.499964
C73	C	0.397178	0.109347	-0.000030
C74	C	0.897178	0.609347	0.499970
C75	C	0.409341	0.021186	-0.000044
C76	C	0.909341	0.521186	0.499956
C77	C	0.358929	0.020678	-0.000048
C78	C	0.858929	0.520678	0.499952
C79	C	0.327639	0.064508	-0.000045
C80	C	0.827639	0.564508	0.499955
O81	O	0.284343	-0.017592	-0.000045
O82	O	0.784343	0.482408	0.499955
O83	O	0.261794	0.145518	-0.000045
O84	O	0.761794	0.645518	0.499955
C85	C	0.039242	0.105716	-0.000055
C86	C	0.539242	0.605716	0.499945
C87	C	0.020120	0.061382	-0.000065
C88	C	0.520120	0.561382	0.499935
C89	C	0.051411	0.017560	-0.000071
C90	C	0.551411	0.517560	0.499929
C91	C	-0.030294	0.060869	-0.000065
C92	C	0.469706	0.560869	0.499935
C93	C	-0.061585	0.104691	-0.000059
C94	C	0.438415	0.604691	0.499941
C95	C	-0.042461	0.149026	-0.000053
C96	C	0.457539	0.649026	0.499947
C97	C	0.007951	0.149539	-0.000049
C98	C	0.507951	0.649539	0.499951
C99	C	0.032287	-0.026775	-0.000077
C100	C	0.532287	0.473225	0.499923
C101	C	-0.018125	-0.027284	-0.000080
C102	C	0.481875	0.472716	0.499920
C103	C	-0.049416	0.016538	-0.000074
C104	C	0.450584	0.516538	0.499926
C105	C	0.574716	-0.026515	-0.000062
C106	C	1.074716	0.473485	0.499938
C107	C	0.574164	-0.080170	-0.000066
C108	C	1.074164	0.419830	0.499934
C109	C	0.614867	-0.418985	-0.000045
C110	C	1.114867	0.081015	0.499955
C111	C	0.612816	-0.620645	-0.000038
C112	C	1.112816	-0.120645	0.499962
O113	O	0.650037	-0.651900	-0.000021
O114	O	1.150037	-0.151900	0.499979
N115	N	0.568481	-0.639768	-0.000034
N116	N	1.068481	-0.139768	0.499966
C117	C	0.524656	-0.608474	-0.000028
C118	C	1.024656	-0.108474	0.499972
O119	O	0.486899	-0.629367	-0.000019
O120	O	0.986899	-0.129367	0.499981
C121	C	0.526707	-0.406815	-0.000031
C122	C	1.026707	0.093185	0.499969
C123	C	0.571045	-0.387694	-0.000041
C124	C	1.071045	0.112306	0.499959
C125	C	0.659202	-0.399864	-0.000054
C126	C	1.159202	0.100136	0.499946
C127	C	0.659714	-0.349452	-0.000059
C128	C	1.159714	0.150548	0.499941
C129	C	0.615892	-0.318161	-0.000054
C130	C	1.115892	0.181839	0.499946
C131	C	0.571557	-0.337282	-0.000045
C132	C	1.071557	0.162718	0.499955
C133	C	0.482882	-0.375521	-0.000022
C134	C	0.982882	0.124479	0.499978
C135	C	0.483399	-0.325104	-0.000021
C136	C	0.983399	0.174896	0.499979
C137	C	0.527737	-0.305983	-0.000031
C138	C	1.027737	0.194017	0.499969
C139	C	0.528247	-0.255580	-0.000045
C140	C	1.028247	0.244420	0.499955
N141	N	0.572583	-0.236456	-0.000050
N142	N	1.072583	0.263544	0.499950
C143	C	0.616405	-0.267747	-0.000054
C144	C	1.116405	0.232253	0.499946
C145	C	0.523582	-0.714348	-0.000027
C146	C	1.023582	-0.214348	0.499973
C147	C	0.523069	-0.764762	-0.000027
C148	C	1.023069	-0.264762	0.499973
C149	C	0.611230	-0.776930	-0.000036
C150	C	1.111230	-0.276930	0.499964
C151	C	0.611742	-0.726514	-0.000040
C152	C	1.111742	-0.226514	0.499960
C153	C	0.567917	-0.695224	-0.000031
C154	C	1.067917	-0.195224	0.499969
C155	C	0.617477	-0.161878	-0.000064
C156	C	1.117477	0.338122	0.499936
C157	C	0.617986	-0.111461	-0.000071
C158	C	1.117986	0.388539	0.499929
C159	C	0.529825	-0.099298	-0.000059
C160	C	1.029825	0.400702	0.499941
C161	C	0.529316	-0.149710	-0.000055
C162	C	1.029316	0.350290	0.499945
C163	C	0.573147	-0.180999	-0.000056
C164	C	1.073147	0.319001	0.499944
O165	O	0.491047	-0.224296	-0.000057
O166	O	0.991047	0.275704	0.499943
O167	O	0.654156	-0.246844	-0.000053
O168	O	1.154156	0.253156	0.499947
C169	C	0.614355	-0.469397	-0.000041
C170	C	1.114355	0.030603	0.499959
C171	C	0.570021	-0.488518	-0.000032
C172	C	1.070021	0.011482	0.499968
C173	C	0.526198	-0.457228	-0.000027
C174	C	1.026198	0.042772	0.499973
C175	C	0.569508	-0.538933	-0.000032
C176	C	1.069508	-0.038933	0.499968
C177	C	0.613330	-0.570223	-0.000036
C178	C	1.113330	-0.070223	0.499964
C179	C	0.657665	-0.551100	-0.000041
C180	C	1.157665	-0.051100	0.499959
C181	C	0.658177	-0.500688	-0.000045
C182	C	1.158177	-0.000688	0.499955
C183	C	0.481863	-0.476351	-0.000023
C184	C	0.981863	0.023649	0.499977
C185	C	0.481355	-0.526764	-0.000019
C186	C	0.981355	-0.026764	0.499981
C187	C	0.525177	-0.558054	-0.000023
C188	C	1.025177	-0.058054	0.499977
C189	C	0.658931	0.057699	-0.000060
C190	C	1.158931	0.557699	0.499940
C191	C	0.712586	0.058252	-0.000062
C192	C	1.212586	0.558252	0.499938
C193	C	0.566338	0.150292	-0.000039
C194	C	1.066338	0.650292	0.499961
C195	C	0.566891	0.203947	-0.000031
C196	C	1.066891	0.703947	0.499969
N197	N	0.570495	0.061888	-0.129298
N198	N	1.070495	0.561888	0.370702
C199	C	0.599633	0.090999	-0.473923
C200	C	1.099633	0.590999	0.026077
C201	C	0.599648	0.090999	-0.682801
C202	C	1.099648	0.590999	-0.182801
O203	O	0.624410	0.115745	-0.709804
O204	O	1.124410	0.615745	-0.209804
N205	N	0.570554	0.061884	-0.708925
N206	N	1.070554	0.561884	-0.208925
C207	C	0.541456	0.032764	-0.682827
C208	C	1.041456	0.532764	-0.182827
O209	O	0.516713	0.007996	-0.709840
O210	O	1.016713	0.507996	-0.209840
C211	C	0.541443	0.032762	-0.473950
C212	C	1.041443	0.532762	0.026050
C213	C	0.570536	0.061883	-0.447829
C214	C	1.070536	0.561883	0.052171
C215	C	0.628724	0.120117	-0.447802
C216	C	1.128724	0.620117	0.052198
C217	C	0.628717	0.120119	-0.395586
C218	C	1.128717	0.620119	0.104414
C219	C	0.599620	0.091003	-0.369491
C220	C	1.099620	0.591003	0.130509
C221	C	0.570530	0.061885	-0.395612
C222	C	1.070530	0.561885	0.104388
C223	C	0.512348	0.003640	-0.447853
C224	C	1.012348	0.503640	0.052147
C225	C	0.512348	0.003641	-0.395630
C226	C	1.012348	0.503641	0.104370
C227	C	0.541441	0.032762	-0.369509
C228	C	1.041441	0.532762	0.130491
C229	C	0.541426	0.032770	-0.317301
C230	C	1.041426	0.532770	0.182699
N231	N	0.570521	0.061886	-0.291177
N232	N	1.070521	0.561886	0.208823
C233	C	0.599618	0.091002	-0.317272
C234	C	1.099618	0.591002	0.182728
C235	C	0.541464	0.032768	-0.792490
C236	C	1.041464	0.532768	-0.292490
C237	C	0.541466	0.032769	-0.844709
C238	C	1.041466	0.532769	-0.344709
C239	C	0.599660	0.091003	-0.844680
C240	C	1.099660	0.591003	-0.344680
C241	C	0.599654	0.091004	-0.792460
C242	C	1.099654	0.591004	-0.292460
C243	C	0.570558	0.061883	-0.766366
C244	C	1.070558	0.561883	-0.266366
C245	C	0.599602	0.091004	-0.207614
C246	C	1.099602	0.591004	0.292386
C247	C	0.599592	0.091005	-0.155393
C248	C	1.099592	0.591005	0.344607
C249	C	0.541401	0.032769	-0.155427
C250	C	1.041401	0.532769	0.344573
C251	C	0.541409	0.032769	-0.207643
C252	C	1.041409	0.532769	0.292357
C253	C	0.570514	0.061889	-0.233735
C254	C	1.070514	0.561889	0.266265
O255	O	0.516682	0.008033	-0.290266
O256	O	1.016682	0.508033	0.209734
O257	O	0.624365	0.115758	-0.290250
O258	O	1.124365	0.615758	0.209750
C259	C	0.599639	0.090998	-0.526140
C260	C	1.099639	0.590998	-0.026140
C261	C	0.570548	0.061879	-0.552261
C262	C	1.070548	0.561879	-0.052261
C263	C	0.541451	0.032763	-0.526166
C264	C	1.041451	0.532763	-0.026166
C265	C	0.570551	0.061880	-0.604480
C266	C	1.070551	0.561880	-0.104480
C267	C	0.599648	0.090997	-0.630575
C268	C	1.099648	0.590997	-0.130575
C269	C	0.628742	0.120112	-0.604451
C270	C	1.128742	0.620112	-0.104451
C271	C	0.628736	0.120114	-0.552235
C272	C	1.128736	0.620114	-0.052235
C273	C	0.512357	0.003648	-0.552291
C274	C	1.012357	0.503648	-0.052291
C275	C	0.512365	0.003649	-0.604507
C276	C	1.012365	0.503649	-0.104507
C277	C	0.541462	0.032765	-0.630602
C278	C	1.041462	0.532765	-0.130602
N279	N	0.570563	0.061885	0.129196
N280	N	1.070563	0.561885	0.629196
H281	H	-0.271687	-0.021674	-0.000069
H282	H	0.228313	0.478326	0.499931
H283	H	-0.067947	0.184708	-0.000046
H284	H	0.432053	0.684708	0.499954
Cl285	Cl	0.183216	0.206818	-0.000028
Cl286	Cl	0.683216	0.706818	0.499972
Cl287	Cl	0.636232	0.127612	-0.759627
Cl288	Cl	1.136232	0.627612	-0.259627
Cl289	Cl	0.031981	0.205281	-0.000037
Cl290	Cl	0.531981	0.705281	0.499963
H291	H	0.653168	-0.187348	-0.000063
H292	H	1.153168	0.312652	0.499937
H293	H	0.652410	0.143830	-0.374322
H294	H	1.152410	0.643830	0.125678
H295	H	0.623283	0.114721	-0.134127
H296	H	1.123283	0.614721	0.365873
H297	H	0.117558	-0.061861	-0.000088
H298	H	0.617558	0.438139	0.499912
H299	H	0.447710	-0.299629	-0.000014
H300	H	0.947710	0.200371	0.499986
Cl301	Cl	0.071617	-0.081872	-0.000084
Cl302	Cl	0.571617	0.418128	0.499916
H303	H	0.488669	-0.020064	-0.625771
H304	H	0.988669	0.479936	-0.125771
Cl305	Cl	0.473577	-0.173748	-0.000052
Cl306	Cl	0.973577	0.326252	0.499948
H307	H	0.083302	0.186251	-0.000038
H308	H	0.583302	0.686251	0.499962
Cl309	Cl	0.474737	-0.059952	-0.000052
Cl310	Cl	0.974737	0.440048	0.499948
H311	H	0.445246	-0.542327	-0.000015
H312	H	0.945246	-0.042327	0.499985
Cl313	Cl	-0.193844	0.158845	-0.000042
Cl314	Cl	0.306156	0.658845	0.499958
Cl315	Cl	0.475772	-0.032975	-0.362830
Cl316	Cl	0.975772	0.467025	0.137170
Cl317	Cl	-0.307637	0.157681	-0.000051
Cl318	Cl	0.192363	0.657681	0.499949
H319	H	0.412743	0.145454	-0.000021
H320	H	0.912743	0.645454	0.499979
Cl321	Cl	-0.042156	-0.083029	-0.000087
Cl322	Cl	0.457844	0.416971	0.499913
Cl323	Cl	0.673729	-0.087427	-0.000082
Cl324	Cl	1.173729	0.412573	0.499918
Cl325	Cl	0.665309	0.156728	-0.519404
Cl326	Cl	1.165309	0.656728	-0.019404
H327	H	-0.180236	-0.020747	-0.000077
H328	H	0.319764	0.479253	0.499923
H329	H	0.652420	0.143828	-0.469043
H330	H	1.152420	0.643828	0.030957
Cl331	Cl	0.426766	-0.437021	-0.000016
Cl332	Cl	0.926766	0.062979	0.499984
Cl333	Cl	0.475765	-0.032951	-0.519494
Cl334	Cl	0.975765	0.467049	-0.019494
Cl335	Cl	0.222868	-0.080338	-0.000094
Cl336	Cl	0.722868	0.419662	0.499906
H337	H	0.623350	0.114713	-0.865935
H338	H	1.123350	0.614713	-0.365935
Cl339	Cl	0.504823	-0.003832	-0.122612
Cl340	Cl	1.004823	0.496168	0.377388
Cl341	Cl	0.307434	0.163940	-0.000032
Cl342	Cl	0.807434	0.663940	0.499968
Cl343	Cl	0.713920	-0.476658	-0.000053
Cl344	Cl	1.213920	0.023342	0.499947
H345	H	0.434827	-0.014492	-0.000047
H346	H	0.934827	0.485508	0.499953
H347	H	0.695819	-0.333889	-0.000065
H348	H	1.195819	0.166111	0.499935
H349	H	0.646911	-0.802415	-0.000040
H350	H	1.146911	-0.302415	0.499960
Cl351	Cl	0.714300	-0.439193	-0.000061
Cl352	Cl	1.214300	0.060807	0.499939
H353	H	0.517770	0.009061	-0.865973
H354	H	1.017770	0.509061	-0.365973
H355	H	0.517713	0.009063	-0.228912
H356	H	1.017713	0.509063	0.271088
Cl357	Cl	0.667483	-0.702482	-0.000051
Cl358	Cl	1.167483	-0.202482	0.499949
H359	H	0.343360	-0.015426	-0.000049
H360	H	0.843360	0.484574	0.499951
H361	H	0.693347	-0.576585	-0.000047
H362	H	1.193347	-0.076585	0.499953
H363	H	0.487892	-0.688875	-0.000020
H364	H	0.987892	-0.188875	0.499980
Cl365	Cl	0.467327	-0.788793	-0.000024
Cl366	Cl	0.967327	-0.288793	0.499976
Cl367	Cl	0.427139	-0.399546	-0.000006
Cl368	Cl	0.927139	0.100454	0.499994
Cl369	Cl	0.504872	-0.003836	-0.759694
Cl370	Cl	1.004872	0.496164	-0.259694
H371	H	0.623303	0.114715	-0.228852
H372	H	1.123303	0.614715	0.271148
Cl373	Cl	0.475772	-0.032972	-0.480678
Cl374	Cl	0.975772	0.467028	0.019322
Cl375	Cl	0.665319	0.156717	-0.637266
Cl376	Cl	1.165319	0.656717	-0.137266
