data_functionalizedCrystal
_audit_creation_method	'MofGen! by Chris Wilmer'
_symmetry_space_group_name_H-M	'P1'
_symmetry_Int_Tables_number	1
_symmetry_cell_setting	triclinic
loop_
_symmetry_equiv_pos_as_xyz
  x,y,z
_cell_length_a	16.120530
_cell_length_b	18.050589
_cell_length_c	16.120256
_cell_angle_alpha	92.877403
_cell_angle_beta	90.128265
_cell_angle_gamma	87.123928
loop_
_atom_site_label
_atom_site_type_symbol
_atom_site_fract_x
_atom_site_fract_y
_atom_site_fract_z
Zn1	Zn	1.247404	-0.376262	-0.534589
Zn2	Zn	1.747404	0.123738	-0.034589
Zn3	Zn	1.254344	-0.494483	-0.395538
Zn4	Zn	1.754344	0.005517	0.104462
Zn5	Zn	1.115396	-0.363709	-0.388506
Zn6	Zn	1.615396	0.136291	0.111494
Zn7	Zn	1.108300	-0.493803	-0.527508
Zn8	Zn	1.608300	0.006197	-0.027508
O9	O	1.181361	-0.432065	-0.461535
O10	O	1.681361	0.067935	0.038465
O11	O	1.364690	-0.397483	-0.522050
O12	O	1.864690	0.102517	-0.022050
O13	O	1.241786	-0.472167	-0.278239
O14	O	1.741786	0.027833	0.221761
O15	O	1.132972	-0.261454	-0.407905
O16	O	1.632972	0.238546	0.092095
O17	O	1.369789	-0.484340	-0.419890
O18	O	1.869789	0.015660	0.080110
O19	O	1.229958	-0.270677	-0.515232
O20	O	1.729958	0.229323	-0.015232
O21	O	1.139701	-0.376088	-0.273073
O22	O	1.639701	0.123912	0.226927
O23	O	0.998089	-0.375428	-0.401038
O24	O	1.498089	0.124572	0.098962
O25	O	1.120879	-0.483180	-0.644814
O26	O	1.620879	0.016820	-0.144814
O27	O	0.992875	-0.471007	-0.503162
O28	O	1.492875	0.028993	-0.003162
O29	O	1.223078	-0.396823	-0.650016
O30	O	1.723078	0.103177	-0.150016
O31	O	1.234905	-0.598314	-0.413024
O32	O	1.734905	-0.098314	0.086976
O33	O	1.127608	-0.597814	-0.509981
O34	O	1.627608	-0.097814	-0.009981
C35	C	0.965310	-0.421782	-0.450569
C36	C	1.465310	0.078218	0.049431
C37	C	0.872881	-0.417402	-0.445898
C38	C	1.372881	0.082598	0.054102
C39	C	0.703652	-0.409388	-0.437376
C40	C	1.203652	0.090612	0.062624
C41	C	0.659907	-0.454798	-0.485756
C42	C	1.159907	0.045202	0.014244
C43	C	0.565742	-0.450339	-0.481014
C44	C	1.065742	0.049661	0.018986
C45	C	0.797826	-0.413846	-0.442116
C46	C	1.297826	0.086154	0.057884
C47	C	1.181261	-0.625011	-0.461516
C48	C	1.681261	-0.125011	0.038484
C49	C	1.181293	-0.707560	-0.461540
C50	C	1.681293	-0.207560	0.038460
C51	C	1.123000	-0.906767	-0.514249
C52	C	1.623000	-0.406767	-0.014249
C53	C	1.106577	-0.951987	-0.437343
C54	C	1.606577	-0.451987	0.062657
C55	C	1.181374	-0.858694	-0.461555
C56	C	1.681374	-0.358694	0.038445
C57	C	1.197838	-0.960558	-0.538472
C58	C	1.697838	-0.460558	-0.038472
C59	C	1.181451	-1.004684	-0.461576
C60	C	1.681451	-0.504684	0.038424
C61	C	1.164914	-0.902823	-0.384607
C62	C	1.664914	-0.402823	0.115393
C63	C	1.256206	-0.911394	-0.485789
C64	C	1.756206	-0.411394	0.014211
C65	C	1.239815	-0.956591	-0.408832
C66	C	1.739815	-0.456591	0.091168
C67	C	1.181328	-0.774593	-0.461544
C68	C	1.681328	-0.274593	0.038456
C69	C	1.181498	-1.088783	-0.461579
C70	C	1.681498	-0.588783	0.038421
C71	C	1.398256	-0.442388	-0.472545
C72	C	1.898256	0.057612	0.027455
C73	C	1.490683	-0.446787	-0.477236
C74	C	1.990683	0.053213	0.022764
C75	C	1.170413	-0.441326	-0.678431
C76	C	1.670413	0.058674	-0.178431
C77	C	1.165747	-0.445273	-0.770859
C78	C	1.665747	0.054727	-0.270859
C79	C	1.181483	-0.238366	-0.461574
C80	C	1.681483	0.261634	0.038426
C81	C	1.181535	-0.155823	-0.461590
C82	C	1.681535	0.344177	0.038410
C83	C	1.205689	-0.411464	-0.983841
C84	C	1.705689	0.088536	-0.483841
C85	C	1.157201	-0.452447	-0.940079
C86	C	1.657201	0.047553	-0.440079
C87	C	1.161958	-0.448454	-0.845916
C88	C	1.661958	0.051546	-0.345916
C89	C	1.200934	-0.415455	-1.078013
C90	C	1.700934	0.084545	-0.578013
C91	C	1.192314	-0.422788	-0.245486
C92	C	1.692314	0.077212	0.254514
C93	C	1.197141	-0.418639	-0.153067
C94	C	1.697141	0.081361	0.346933
H95	H	1.073570	-0.884892	-0.558741
H96	H	1.573570	-0.384892	-0.058741
H97	H	1.112113	-0.490527	-0.973333
H98	H	1.612113	0.009473	-0.473333
O99	O	1.031184	-0.973565	-0.412874
O100	O	1.531184	-0.473565	0.087126
C101	C	0.946987	-1.076041	-0.384852
C102	C	1.446987	-0.576041	0.115148
C103	C	1.032416	-1.051710	-0.412547
C104	C	1.532416	-0.551710	0.087453
H105	H	0.947949	-1.139224	-0.384595
H106	H	1.447949	-0.639224	0.115405
H107	H	0.932480	-1.051375	-0.319700
H108	H	1.432480	-0.551375	0.180300
H109	H	0.897261	-1.055532	-0.429819
H110	H	1.397261	-0.555532	0.070181
H111	H	1.082197	-1.072212	-0.367639
H112	H	1.582197	-0.572212	0.132361
H113	H	1.046851	-1.076368	-0.477716
H114	H	1.546851	-0.576368	0.022284
H115	H	1.250770	-0.373382	-0.950590
H116	H	1.750770	0.126618	-0.450590
H117	H	1.150945	-0.877689	-0.319546
H118	H	1.650945	-0.377689	0.180454
H119	H	1.319438	-0.893402	-0.506303
H120	H	1.819438	-0.393402	-0.006303
O121	O	0.699721	-0.505155	-0.539344
O122	O	1.199721	-0.005155	-0.039344
C123	C	0.831239	-0.555517	-0.593044
C124	C	1.331239	-0.055517	-0.093044
C125	C	0.786252	-0.498467	-0.532309
C126	C	1.286252	0.001533	-0.032309
H127	H	0.901206	-0.550119	-0.587389
H128	H	1.401206	-0.050119	-0.087389
H129	H	0.814992	-0.613978	-0.577483
H130	H	1.314992	-0.113978	-0.077483
H131	H	0.810812	-0.544653	-0.659271
H132	H	1.310812	-0.044653	-0.159271
H133	H	0.806654	-0.509262	-0.466061
H134	H	1.306654	-0.009262	0.033939
H135	H	0.802499	-0.440025	-0.547942
H136	H	1.302499	0.059975	-0.047942
H137	H	0.670386	-0.367167	-0.392399
H138	H	1.170386	0.132833	0.107601
H139	H	1.289216	-0.978322	-0.364225
H140	H	1.789216	-0.478322	0.135775
H141	H	1.211732	-0.985778	-0.603511
H142	H	1.711732	-0.485778	-0.103511
