data_functionalizedCrystal
_audit_creation_method	'MofGen! by Chris Wilmer'
_symmetry_space_group_name_H-M	'P1'
_symmetry_Int_Tables_number	1
_symmetry_cell_setting	triclinic
loop_
_symmetry_equiv_pos_as_xyz
  x,y,z
_cell_length_a	10.654545
_cell_length_b	14.519709
_cell_length_c	13.596369
_cell_angle_alpha	90.005722
_cell_angle_beta	89.993068
_cell_angle_gamma	84.081612
loop_
_atom_site_label
_atom_site_type_symbol
_atom_site_fract_x
_atom_site_fract_y
_atom_site_fract_z
O1	O	1.666579	0.129514	0.081784
O2	O	1.916579	0.379514	0.331784
O3	O	2.166579	0.629514	0.581784
O4	O	2.416579	0.879514	0.831784
O5	O	1.300981	0.141859	0.081788
O6	O	1.550981	0.391859	0.331788
O7	O	1.800981	0.641859	0.581788
O8	O	2.050981	0.891859	0.831788
O9	O	1.493473	0.001499	0.081777
O10	O	1.743473	0.251499	0.331777
O11	O	1.993473	0.501499	0.581777
O12	O	2.243473	0.751499	0.831777
O13	O	1.474087	0.269875	0.081795
O14	O	1.724087	0.519875	0.331795
O15	O	1.974087	0.769875	0.581795
O16	O	2.224087	1.019875	0.831795
O17	O	1.493497	0.001491	-0.081806
O18	O	1.743497	0.251491	0.168194
O19	O	1.993497	0.501491	0.418194
O20	O	2.243497	0.751491	0.668194
O21	O	1.301005	0.141852	-0.081795
O22	O	1.551005	0.391852	0.168205
O23	O	1.801005	0.641852	0.418205
O24	O	2.051005	0.891852	0.668205
O25	O	1.666603	0.129507	-0.081799
O26	O	1.916603	0.379507	0.168201
O27	O	2.166603	0.629507	0.418201
O28	O	2.416603	0.879507	0.668201
Zn29	Zn	1.483808	0.135678	-0.107769
Zn30	Zn	1.733808	0.385678	0.142231
Zn31	Zn	1.983808	0.635678	0.392231
Zn32	Zn	2.233808	0.885678	0.642231
Zn33	Zn	1.483776	0.135688	0.107758
Zn34	Zn	1.733776	0.385688	0.357758
Zn35	Zn	1.983776	0.635688	0.607758
Zn36	Zn	2.233776	0.885688	0.857758
O37	O	1.474110	0.269868	-0.081788
O38	O	1.724110	0.519868	0.168212
O39	O	1.974110	0.769868	0.418212
O40	O	2.224110	1.019868	0.668212
C41	C	1.254204	0.140950	-0.000003
C42	C	1.504204	0.390950	0.249997
C43	C	1.754204	0.640950	0.499997
C44	C	2.004204	0.890950	0.749997
C45	C	1.114786	0.138241	-0.000001
C46	C	1.364786	0.388241	0.249999
C47	C	1.614786	0.638241	0.499999
C48	C	1.864786	0.888241	0.749999
C49	C	1.049307	0.136961	-0.089171
C50	C	1.299307	0.386961	0.160829
C51	C	1.549307	0.636961	0.410829
C52	C	1.799307	0.886961	0.660829
C53	C	0.918312	0.134400	-0.089171
C54	C	1.168312	0.384400	0.160829
C55	C	1.418312	0.634400	0.410829
C56	C	1.668312	0.884400	0.660829
C57	C	0.918287	0.134402	0.089176
C58	C	1.168287	0.384402	0.339176
C59	C	1.418287	0.634402	0.589176
C60	C	1.668287	0.884402	0.839176
C61	C	1.049280	0.136957	0.089175
C62	C	1.299280	0.386957	0.339175
C63	C	1.549280	0.636957	0.589175
C64	C	1.799280	0.886957	0.839175
C65	C	1.492582	-0.032870	-0.000014
C66	C	1.742582	0.217130	0.249986
C67	C	1.992582	0.467130	0.499986
C68	C	2.242582	0.717130	0.749986
C69	C	1.489874	-0.135265	-0.000015
C70	C	1.739874	0.114735	0.249985
C71	C	1.989874	0.364735	0.499985
C72	C	2.239874	0.614735	0.749985
C73	C	1.479907	-0.510212	0.000011
C74	C	1.729907	-0.260212	0.250011
C75	C	1.979907	-0.010212	0.500011
C76	C	2.229907	0.239788	0.750011
C77	C	1.482675	-0.405890	0.000003
C78	C	1.732675	-0.155890	0.250003
C79	C	1.982675	0.094110	0.500003
C80	C	2.232675	0.344110	0.750003
C81	C	1.484890	-0.322742	-0.000003
C82	C	1.734890	-0.072742	0.249997
C83	C	1.984890	0.177258	0.499997
C84	C	2.234890	0.427258	0.749997
C85	C	1.487659	-0.218413	-0.000009
C86	C	1.737659	0.031587	0.249991
C87	C	1.987659	0.281587	0.499991
C88	C	2.237659	0.531587	0.749991
C89	C	1.713380	0.130416	-0.000006
C90	C	1.963380	0.380416	0.249994
C91	C	2.213380	0.630416	0.499994
C92	C	2.463380	0.880416	0.749994
C93	C	1.852798	0.133125	-0.000001
C94	C	2.102798	0.383125	0.249999
C95	C	2.352798	0.633125	0.499999
C96	C	2.602798	0.883125	0.749999
C97	C	1.475002	0.304236	0.000006
C98	C	1.725002	0.554236	0.250006
C99	C	1.975002	0.804236	0.500006
C100	C	2.225002	1.054236	0.750006
C101	C	1.477710	0.406631	0.000013
C102	C	1.727710	0.656631	0.250013
C103	C	1.977710	0.906631	0.500013
C104	C	2.227710	1.156631	0.750013
N105	N	1.483756	0.135688	0.254850
N106	N	1.733756	0.385688	0.504850
N107	N	1.983756	0.635688	0.754850
N108	N	2.233756	0.885688	1.004850
N109	N	1.483838	0.135671	-0.254861
N110	N	1.733838	0.385671	-0.004861
N111	N	1.983838	0.635671	0.245139
N112	N	2.233838	0.885671	0.495139
C113	C	1.483760	0.135689	0.343848
C114	C	1.733760	0.385689	0.593848
C115	C	1.983760	0.635689	0.843848
C116	C	2.233760	0.885689	1.093848
C117	C	1.483778	0.135687	0.455499
C118	C	1.733778	0.385687	0.705499
C119	C	1.983778	0.635687	0.955499
C120	C	2.233778	0.885687	1.205499
C121	C	1.483800	0.135681	0.544490
C122	C	1.733800	0.385681	0.794490
C123	C	1.983800	0.635681	1.044490
C124	C	2.233800	0.885681	1.294490
C125	C	1.483817	0.135677	0.656149
C126	C	1.733817	0.385677	0.906149
C127	C	1.983817	0.635677	1.156149
C128	C	2.233817	0.885677	1.406149
H129	H	0.865004	0.133359	-0.161782
H130	H	1.115004	0.383359	0.088218
H131	H	1.365004	0.633359	0.338218
H132	H	1.615004	0.883359	0.588218
H133	H	1.102638	0.138007	-0.161784
H134	H	1.352638	0.388007	0.088216
H135	H	1.602638	0.638007	0.338216
H136	H	1.852638	0.888007	0.588216
H137	H	0.864936	0.133358	0.161780
H138	H	1.114936	0.383358	0.411780
H139	H	1.364936	0.633358	0.661780
H140	H	1.614936	0.883358	0.911780
F141	F	1.118973	0.138313	0.184087
F142	F	1.368973	0.388313	0.434087
F143	F	1.618973	0.638313	0.684087
F144	F	1.868973	0.888313	0.934087
