data_functionalizedCrystal
_audit_creation_method	'MofGen! by Chris Wilmer'
_symmetry_space_group_name_H-M	'P1'
_symmetry_Int_Tables_number	1
_symmetry_cell_setting	triclinic
loop_
_symmetry_equiv_pos_as_xyz
  x,y,z
_cell_length_a	10.654550
_cell_length_b	16.109301
_cell_length_c	9.130313
_cell_angle_alpha	89.997330
_cell_angle_beta	89.996220
_cell_angle_gamma	83.973192
loop_
_atom_site_label
_atom_site_type_symbol
_atom_site_fract_x
_atom_site_fract_y
_atom_site_fract_z
O1	O	1.666250	0.116770	-0.121925
O2	O	1.300621	0.127896	-0.121902
O3	O	1.493479	0.001362	-0.121899
O4	O	1.473391	0.243304	-0.121928
O5	O	1.493477	0.001365	0.121700
O6	O	1.300618	0.127899	0.121697
O7	O	1.666248	0.116774	0.121674
Cu8	Cu	1.483433	0.122337	0.143928
Cu9	Cu	1.483435	0.122333	-0.144156
O10	O	1.473389	0.243308	0.121671
C11	C	1.253832	0.127080	-0.000099
C12	C	1.114422	0.124636	-0.000090
C13	C	1.033926	0.199138	-0.000120
C14	C	0.902936	0.196836	-0.000145
C15	C	0.932952	0.045526	-0.000116
C16	C	1.063939	0.047828	-0.000081
C17	C	1.016595	0.286496	-0.000143
C18	C	0.885606	0.284194	-0.000168
C19	C	1.492665	-0.029616	-0.000099
C20	C	1.490225	-0.121926	-0.000097
C21	C	1.598991	-0.343552	-0.000127
C22	C	1.596689	-0.430286	-0.000139
C23	C	1.367868	-0.411772	-0.000119
C24	C	1.370172	-0.325040	-0.000117
C25	C	1.485737	-0.290932	-0.000114
C26	C	1.481131	-0.464399	-0.000127
C27	C	1.478634	-0.558440	-0.000140
C28	C	1.488234	-0.196885	-0.000104
C29	C	1.713036	0.117589	-0.000132
C30	C	1.852446	0.120033	-0.000151
C31	C	1.474204	0.274286	-0.000132
C32	C	1.476643	0.366595	-0.000144
N33	N	1.483440	0.122339	0.346551
N34	N	1.483438	0.122324	-0.346779
C35	C	1.568859	0.066329	0.423204
C36	C	1.568856	0.066319	0.576541
C37	C	1.398010	0.178336	0.576558
C38	C	1.398008	0.178342	0.423223
C39	C	1.667500	0.001659	0.423195
C40	C	1.667497	0.001649	0.576532
H41	H	1.129476	-0.012838	-0.000035
H42	H	1.273779	-0.439553	-0.000118
H43	H	0.839575	0.310596	0.104997
C44	C	1.640301	-0.083574	0.367601
C45	C	1.741908	-0.118213	0.282486
C46	C	1.716897	-0.196728	0.231260
H47	H	1.565819	-0.077796	0.309715
H48	H	1.628914	-0.119124	0.448487
H49	H	1.753280	-0.082672	0.201612
H50	H	1.816402	-0.124012	0.340341
H51	H	1.705510	-0.232277	0.312146
H52	H	1.642412	-0.190942	0.173380
H53	H	1.785837	-0.220243	0.173515
H54	H	1.758409	0.021908	0.375628
C55	C	1.627878	-0.078791	0.640242
C56	C	1.629963	-0.074482	0.793370
C57	C	1.593455	-0.148559	0.852112
H58	H	1.684633	-0.124627	0.608273
H59	H	1.544926	-0.086121	0.608202
H60	H	1.712902	-0.067162	0.825397
H61	H	1.573206	-0.028662	0.825380
H62	H	1.510502	-0.155889	0.820072
H63	H	1.650213	-0.194389	0.820132
H64	H	1.594853	-0.145642	0.956014
C65	C	1.719788	-0.487277	-0.000073
C66	C	1.821481	-0.438839	-0.000034
C67	C	1.934904	-0.491310	0.000043
H68	H	1.723829	-0.521510	-0.085001
H69	H	1.723715	-0.521488	0.084906
H70	H	1.817556	-0.404642	-0.085005
H71	H	1.817482	-0.404608	0.084888
H72	H	1.938830	-0.525521	0.085023
H73	H	1.938931	-0.525540	-0.084886
H74	H	2.003915	-0.458453	0.000083
C75	C	0.878311	-0.037921	-0.000346
C76	C	0.919282	-0.083016	-0.125639
C77	C	0.868989	-0.159897	-0.125893
H78	H	0.788775	-0.028742	-0.000443
H79	H	0.905961	-0.068672	0.084569
H80	H	0.891624	-0.052272	-0.210531
H81	H	1.008811	-0.092217	-0.125568
H82	H	0.896639	-0.190647	-0.040979
H83	H	0.779455	-0.150709	-0.125986
H84	H	0.896789	-0.190506	-0.210895
H85	H	1.045462	0.320663	0.101804
C86	C	1.247066	-0.268041	-0.000028
C87	C	1.145366	-0.316473	0.000020
C88	C	1.031949	-0.263996	0.000115
H89	H	1.243032	-0.233803	-0.084953
H90	H	1.243143	-0.233837	0.084954
H91	H	1.149287	-0.350663	-0.084954
H92	H	1.149359	-0.350710	0.084939
H93	H	1.028027	-0.229791	0.085097
H94	H	1.027928	-0.229759	-0.084812
H95	H	0.962933	-0.296848	0.000161
C96	C	1.305200	0.239239	0.340263
C97	C	1.230410	0.288295	0.440234
C98	C	1.144908	0.344412	0.363865
H99	H	1.252828	0.209102	0.280447
H100	H	1.350314	0.274180	0.280475
H101	H	1.185299	0.253358	0.499997
H102	H	1.282747	0.318450	0.500053
H103	H	1.190022	0.379352	0.304076
H104	H	1.092544	0.314267	0.304051
H105	H	1.094160	0.377707	0.431682
C106	C	1.796040	0.020520	0.631830
C107	C	1.888801	-0.040553	0.580480
C108	C	2.007225	-0.023192	0.631377
H109	H	1.796219	0.020491	0.735867
H110	H	1.813280	0.073754	0.597125
H111	H	1.871566	-0.093773	0.615193
H112	H	1.888662	-0.040534	0.476449
H113	H	2.024465	0.030042	0.596671
H114	H	2.007391	-0.023221	0.735412
H115	H	2.070178	-0.064623	0.596532
C116	C	1.063543	0.323751	-0.140280
C117	C	1.006560	0.405586	-0.156491
C118	C	1.049791	0.439932	-0.285560
H119	H	1.042518	0.291183	-0.221663
H120	H	1.152555	0.324119	-0.135440
H121	H	0.917568	0.405212	-0.161344
H122	H	1.027579	0.438175	-0.075141
H123	H	1.138803	0.440301	-0.280719
H124	H	1.028763	0.407358	-0.366931
H125	H	1.011144	0.495463	-0.296569
C126	C	0.829248	0.328211	-0.135937
C127	C	0.742937	0.395536	-0.093824
C128	C	0.691006	0.436108	-0.218846
H129	H	0.787171	0.290182	-0.192665
H130	H	0.894653	0.348107	-0.192576
H131	H	0.677542	0.375640	-0.037208
H132	H	0.784984	0.433584	-0.037113
H133	H	0.756411	0.456004	-0.275485
H134	H	0.648936	0.398072	-0.275565
H135	H	0.632448	0.481797	-0.190290
H136	H	1.693091	-0.315785	-0.000127
H137	H	1.328452	0.223932	0.639001
