data_functionalizedCrystal
_audit_creation_method	'MofGen! by Chris Wilmer'
_symmetry_space_group_name_H-M	'P1'
_symmetry_Int_Tables_number	1
_symmetry_cell_setting	triclinic
loop_
_symmetry_equiv_pos_as_xyz
  x,y,z
_cell_length_a	13.032831
_cell_length_b	12.594516
_cell_length_c	13.032268
_cell_angle_alpha	97.152436
_cell_angle_beta	90.886977
_cell_angle_gamma	82.821304
loop_
_atom_site_label
_atom_site_type_symbol
_atom_site_fract_x
_atom_site_fract_y
_atom_site_fract_z
Zn1	Zn	1.498496	-0.718822	-0.780872
Zn2	Zn	1.520242	-0.877407	-0.608900
Zn3	Zn	1.348353	-0.674358	-0.587111
Zn4	Zn	1.326490	-0.871652	-0.759025
O5	O	1.423395	-0.785560	-0.683977
O6	O	1.645302	-0.760876	-0.776322
O7	O	1.515691	-0.834272	-0.462092
O8	O	1.368319	-0.531320	-0.612838
O9	O	1.661279	-0.877387	-0.649975
O10	O	1.478628	-0.563987	-0.755193
O11	O	1.389406	-0.685093	-0.446084
O12	O	1.201532	-0.679512	-0.591654
O13	O	1.331056	-0.867579	-0.905841
O14	O	1.185469	-0.824463	-0.717958
O15	O	1.457428	-0.755295	-0.921892
O16	O	1.494491	-1.025580	-0.628791
O17	O	1.352143	-1.021351	-0.739087
C18	C	1.156183	-0.746539	-0.650071
C19	C	1.041866	-0.729875	-0.635591
C20	C	0.982991	-0.794257	-0.691535
C21	C	0.864838	-0.777035	-0.676569
C22	C	1.423329	-1.062090	-0.683958
C23	C	1.423391	-1.180408	-0.683997
C24	C	1.345967	-1.247394	-0.743938
C25	C	1.332833	-1.304009	-0.646920
C26	C	1.436617	-1.334607	-0.781043
C27	C	1.410213	-1.235453	-0.586923
C28	C	1.514033	-1.266057	-0.721115
C29	C	1.500943	-1.322639	-0.624037
C30	C	1.691651	-0.824733	-0.718016
C31	C	1.805965	-0.841426	-0.732521
C32	C	1.389378	-0.815755	-0.952226
C33	C	1.374882	-0.828622	-1.066537
C34	C	1.423487	-0.507956	-0.684022
C35	C	1.423526	-0.389658	-0.684041
C36	C	1.430945	-0.778803	-1.125443
C37	C	1.415964	-0.792101	-1.243590
C38	C	1.457340	-0.755414	-0.416779
C39	C	1.472035	-0.742276	-0.302494
H40	H	0.827774	-0.709156	-0.617595
O41	O	1.296604	-0.898156	-1.115589
H42	H	1.257808	-0.932619	-1.054467
O43	O	1.615537	-1.243474	-0.762741
H44	H	1.600901	-1.200816	-0.832097
H45	H	1.020059	-0.862124	-0.750512
O46	O	0.992764	-0.639978	-0.557467
H47	H	1.011071	-0.561442	-0.577825
O48	O	0.855042	-0.931335	-0.810653
H49	H	0.940143	-0.930758	-0.810147
H50	H	1.280399	-1.214409	-0.794530
O51	O	1.231381	-1.326815	-0.605342
H52	H	1.167177	-1.296648	-0.655204
H53	H	1.398991	-1.192486	-0.504836
O54	O	1.587764	-1.366053	-0.556840
H55	H	1.576587	-1.325760	-0.476381
O56	O	1.451374	-1.391668	-0.889730
H57	H	1.386945	-1.361425	-0.939297
O58	O	1.509227	-0.709270	-1.076401
H59	H	1.508718	-0.709747	-0.991300
O60	O	1.337682	-0.861643	-1.292628
H61	H	1.338202	-0.861179	-1.377730
H62	H	1.531123	-0.689768	-1.265462
