data_functionalizedCrystal
_audit_creation_method	'MofGen! by Chris Wilmer'
_symmetry_space_group_name_H-M	'P1'
_symmetry_Int_Tables_number	1
_symmetry_cell_setting	triclinic
loop_
_symmetry_equiv_pos_as_xyz
  x,y,z
_cell_length_a	10.654550
_cell_length_b	27.732048
_cell_length_c	9.730223
_cell_angle_alpha	89.990670
_cell_angle_beta	89.999957
_cell_angle_gamma	83.563793
loop_
_atom_site_label
_atom_site_type_symbol
_atom_site_fract_x
_atom_site_fract_y
_atom_site_fract_z
O1	O	1.664985	0.067886	-0.114204
O2	O	1.299235	0.074354	-0.114231
O3	O	1.493469	0.000794	-0.114191
O4	O	1.470751	0.141446	-0.114245
O5	O	1.493457	0.000792	0.114389
O6	O	1.299223	0.074352	0.114349
O7	O	1.664973	0.067884	0.114376
Zn8	Zn	1.482096	0.071117	0.150654
Zn9	Zn	1.482112	0.071120	-0.150509
O10	O	1.470738	0.141444	0.114335
C11	C	1.252451	0.073878	0.000056
C12	C	1.113067	0.072457	0.000047
C13	C	1.031761	0.115768	0.000034
C14	C	0.900796	0.114430	0.000059
C15	C	0.932457	0.026466	0.000103
C16	C	1.063419	0.027805	0.000088
C17	C	1.492986	-0.017217	0.000103
C18	C	1.491550	-0.070881	0.000114
C19	C	1.597290	-0.409038	0.000052
C20	C	1.591962	-0.610730	0.000032
O21	O	1.688653	-0.641384	-0.000021
N22	N	1.476789	-0.630571	0.000025
C23	C	1.362940	-0.599986	0.000014
O24	O	1.264855	-0.621490	-0.000007
C25	C	1.368269	-0.398294	0.000023
C26	C	1.483449	-0.378456	0.000044
C27	C	1.712461	-0.389199	0.000071
C28	C	1.713792	-0.338779	0.000084
C29	C	1.599951	-0.308197	0.000076
C30	C	1.484780	-0.328036	0.000057
C31	C	1.254421	-0.367709	0.000002
C32	C	1.255764	-0.317284	0.000001
C33	C	1.370944	-0.297446	0.000022
C34	C	1.372271	-0.247034	0.000062
N35	N	1.487444	-0.227193	0.000069
C36	C	1.601284	-0.257774	0.000076
C37	C	1.360150	-0.705877	0.000011
C38	C	1.358817	-0.756300	0.000011
C39	C	1.587840	-0.767041	0.000027
C40	C	1.589171	-0.716617	0.000037
C41	C	1.475323	-0.686036	0.000018
C42	C	1.604070	-0.151888	0.000104
C43	C	1.605391	-0.101463	0.000122
C44	C	1.376369	-0.090726	0.000098
C45	C	1.375047	-0.141147	0.000088
C46	C	1.488908	-0.171727	0.000086
O47	O	1.275631	-0.216352	0.000100
O48	O	1.699354	-0.236261	0.000067
C49	C	1.595959	-0.459458	0.000039
C50	C	1.480788	-0.479296	0.000020
C51	C	1.366947	-0.448715	0.000012
C52	C	1.479455	-0.529719	0.000020
C53	C	1.593296	-0.560301	0.000027
C54	C	1.708469	-0.540460	0.000034
C55	C	1.709799	-0.490040	0.000046
C56	C	1.251774	-0.468556	0.000005
C57	C	1.250453	-0.518976	-0.000005
C58	C	1.364293	-0.549558	0.000002
C59	C	1.711757	0.068360	0.000086
C60	C	1.851141	0.069781	0.000086
C61	C	1.471221	0.159455	0.000039
C62	C	1.472657	0.213118	0.000018
N63	N	1.482094	0.071115	0.356191
N64	N	1.482124	0.071118	-0.356046
C65	C	1.568130	0.038557	0.428135
C66	C	1.568142	0.038557	0.572018
C67	C	1.396079	0.103678	0.572000
C68	C	1.396062	0.103675	0.428120
H69	H	1.696787	-0.176781	0.000096
C70	C	1.739249	0.028685	0.733811
C71	C	1.662716	0.002769	0.651102
H72	H	1.797630	0.006588	0.782639
H73	H	1.784012	0.048962	0.677664
H74	H	1.688005	0.048074	0.797238
H75	H	1.713959	-0.016618	0.587668
H76	H	1.617949	-0.017516	0.707254
H77	H	0.834601	0.149698	0.000051
C78	C	1.225014	0.113557	0.733841
C79	C	1.301527	0.139470	0.651076
H80	H	1.166649	0.135655	0.782663
H81	H	1.180233	0.093280	0.677733
H82	H	1.276274	0.094168	0.797273
H83	H	1.250268	0.158856	0.587637
H84	H	1.346312	0.159755	0.707189
C85	C	1.225988	0.168052	0.442543
C86	C	1.301487	0.139468	0.349028
H87	H	1.167609	0.190148	0.393712
H88	H	1.181222	0.147773	0.498680
H89	H	1.277934	0.185626	0.498645
H90	H	1.249542	0.121890	0.292933
H91	H	1.346256	0.159750	0.292868
C92	C	1.782648	-0.791745	0.117527
C93	C	1.712975	-0.800664	0.000026
H94	H	1.859891	-0.812507	0.117519
H95	H	1.799938	-0.758882	0.117520
H96	H	1.735370	-0.797806	0.197231
H97	H	1.760249	-0.794600	-0.079679
H98	H	1.695688	-0.833535	0.000020
H99	H	1.805169	-0.414094	0.000072
H100	H	1.072179	0.152126	0.000011
C101	C	1.120383	-0.405616	-0.117497
C102	C	1.126627	-0.434946	0.000001
H103	H	1.043112	-0.384871	-0.117496
H104	H	1.189145	-0.386580	-0.117478
H105	H	1.124636	-0.425508	-0.197204
H106	H	1.122384	-0.415054	0.079708
H107	H	1.057846	-0.453984	-0.000005
C108	C	1.848170	-0.288307	-0.117418
C109	C	1.840403	-0.316977	0.000085
H110	H	1.926337	-0.274849	-0.117414
H111	H	1.842882	-0.307750	-0.197112
H112	H	1.780567	-0.262873	-0.117402
H113	H	1.908001	-0.342413	0.000064
H114	H	1.845703	-0.297533	0.079800
H115	H	0.892018	-0.009888	0.000145
H116	H	1.283683	-0.065817	0.000097
H117	H	1.129623	-0.007466	0.000102
H118	H	1.160629	-0.383852	-0.000023
C119	C	1.831642	-0.117153	0.000125
C120	C	1.732006	-0.079658	0.000133
H121	H	1.909804	-0.103691	0.000122
H122	H	1.826356	-0.136601	0.079828
H123	H	1.826346	-0.136590	-0.079595
H124	H	1.737296	-0.060223	0.079859
H125	H	1.737295	-0.060202	-0.079577
H126	H	1.803591	-0.473892	0.000063
H127	H	1.638180	0.012044	0.369573
C128	C	1.723546	-0.666143	-0.117459
C129	C	1.715777	-0.694812	0.000046
H130	H	1.801708	-0.652681	-0.117448
H131	H	1.718271	-0.685587	-0.197152
H132	H	1.655936	-0.640712	-0.117451
H133	H	1.783382	-0.720245	0.000034
H134	H	1.721064	-0.675366	0.079760
H135	H	1.267435	-0.680982	-0.000004
C136	C	1.132576	-0.740606	-0.000016
C137	C	1.232207	-0.778102	-0.000001
H138	H	1.054411	-0.754065	-0.000038
H139	H	1.137856	-0.721169	0.079693
H140	H	1.137883	-0.721157	-0.079730
H141	H	1.226905	-0.797549	0.079718
H142	H	1.226924	-0.797547	-0.079718
C143	C	1.029248	-0.311735	-0.000030
C144	C	1.130614	-0.283669	-0.000014
H145	H	0.951988	-0.290983	-0.000029
H146	H	1.033503	-0.331618	-0.079739
H147	H	1.033496	-0.331633	0.079683
H148	H	1.126370	-0.263774	-0.079732
H149	H	1.126356	-0.263778	0.079704
H150	H	1.801162	-0.565368	0.000046
H151	H	1.281258	-0.157299	0.000109
H152	H	1.156652	-0.535123	-0.000011
