data_functionalizedCrystal
_audit_creation_method	'MofGen! by Chris Wilmer'
_symmetry_space_group_name_H-M	'P1'
_symmetry_Int_Tables_number	1
_symmetry_cell_setting	triclinic
loop_
_symmetry_equiv_pos_as_xyz
  x,y,z
_cell_length_a	18.050591
_cell_length_b	19.121063
_cell_length_c	18.050582
_cell_angle_alpha	92.415032
_cell_angle_beta	89.979078
_cell_angle_gamma	92.465257
loop_
_atom_site_label
_atom_site_type_symbol
_atom_site_fract_x
_atom_site_fract_y
_atom_site_fract_z
Zn1	Zn	1.122676	-0.279734	-0.432630
Zn2	Zn	1.622676	0.220266	0.067370
Zn3	Zn	1.117290	-0.397178	-0.313729
Zn4	Zn	1.617290	0.102822	0.186271
Zn5	Zn	0.998495	-0.279737	-0.308441
Zn6	Zn	1.498495	0.220263	0.191559
Zn7	Zn	0.993148	-0.397141	-0.437863
Zn8	Zn	1.493148	0.102859	0.062137
O9	O	1.057903	-0.338447	-0.373166
O10	O	1.557903	0.161553	0.126834
O11	O	1.225886	-0.295327	-0.416880
O12	O	1.725886	0.204673	0.083120
O13	O	1.101515	-0.381616	-0.209104
O14	O	1.601515	0.118384	0.290896
O15	O	1.019460	-0.181452	-0.320512
O16	O	1.519460	0.318548	0.179488
O17	O	1.221929	-0.381613	-0.329524
O18	O	1.721929	0.118387	0.170476
O19	O	1.110695	-0.181449	-0.411753
O20	O	1.610695	0.318551	0.088247
O21	O	1.014237	-0.295332	-0.205219
O22	O	1.514237	0.204668	0.294781
O23	O	0.893862	-0.295296	-0.325586
O24	O	1.393862	0.204704	0.174414
O25	O	1.010347	-0.381550	-0.541093
O26	O	1.510347	0.118450	-0.041093
O27	O	0.889934	-0.381552	-0.420672
O28	O	1.389934	0.118448	0.079328
O29	O	1.105510	-0.295291	-0.537248
O30	O	1.605510	0.204709	-0.037248
O31	O	1.096331	-0.495458	-0.334599
O32	O	1.596331	0.004542	0.165401
O33	O	1.005124	-0.495430	-0.425799
O34	O	1.505124	0.004570	0.074201
C35	C	0.864952	-0.338421	-0.373123
C36	C	1.364952	0.161579	0.126877
C37	C	0.782406	-0.338427	-0.373124
C38	C	1.282406	0.161573	0.126876
C39	C	0.585072	-0.291466	-0.321528
C40	C	1.085072	0.208534	0.178472
C41	C	0.532763	-0.355526	-0.306137
C42	C	1.032763	0.144474	0.193863
C43	C	0.631274	-0.338448	-0.373158
C44	C	1.131274	0.161552	0.126842
C45	C	0.536500	-0.274410	-0.388548
C46	C	1.036500	0.225590	0.111452
C47	C	0.485288	-0.338463	-0.373190
C48	C	0.985288	0.161537	0.126810
C49	C	0.580051	-0.402542	-0.357733
C50	C	1.080051	0.097458	0.142267
C51	C	0.583794	-0.321383	-0.440174
C52	C	1.083794	0.178617	0.059826
C53	C	0.531506	-0.385487	-0.424811
C54	C	1.031506	0.114513	0.075189
C55	C	0.715373	-0.338439	-0.373138
C56	C	1.215373	0.161561	0.126862
C57	C	0.401191	-0.338480	-0.373211
C58	C	0.901191	0.161520	0.126789
C59	C	1.049583	-0.520928	-0.381357
C60	C	1.549583	-0.020928	0.118643
C61	C	1.046092	-0.598994	-0.384886
C62	C	1.546092	-0.098994	0.115114
C63	C	1.091975	-0.635661	-0.339100
C64	C	1.591975	-0.135661	0.160900
C65	C	1.088695	-0.709012	-0.342424
C66	C	1.588695	-0.209012	0.157576
C67	C	1.039529	-0.745696	-0.391530
C68	C	1.539529	-0.245696	0.108470
C69	C	0.993644	-0.709024	-0.437321
C70	C	1.493644	-0.209024	0.062679
C71	C	0.996928	-0.635674	-0.434001
C72	C	1.496928	-0.135674	0.065999
C73	C	1.027241	-0.967166	-0.403932
C74	C	1.527241	-0.467166	0.096068
C75	C	1.023960	-1.040521	-0.407247
C76	C	1.523960	-0.540521	0.092753
C77	C	1.119012	-1.040504	-0.312351
C78	C	1.619012	-0.540504	0.187649
C79	C	1.122288	-0.967153	-0.309032
C80	C	1.622288	-0.467153	0.190968
C81	C	1.076406	-0.930487	-0.354825
C82	C	1.576406	-0.430487	0.145175
C83	C	1.036174	-0.820673	-0.394927
C84	C	1.536174	-0.320673	0.105073
C85	C	1.079765	-0.855512	-0.351432
C86	C	1.579765	-0.355512	0.148568
C87	C	1.251607	-0.338474	-0.373208
C88	C	1.751607	0.161526	0.126792
C89	C	1.334152	-0.338485	-0.373227
C90	C	1.834152	0.161515	0.126773
C91	C	1.057933	-0.338416	-0.566870
C92	C	1.557933	0.161584	-0.066870
C93	C	1.057946	-0.338403	-0.649415
C94	C	1.557946	0.161597	-0.149415
C95	C	1.066275	-0.155254	-0.364959
C96	C	1.566275	0.344746	0.135041
C97	C	1.069843	-0.077188	-0.361461
C98	C	1.569843	0.422812	0.138539
C99	C	1.006237	-0.385246	-0.850954
C100	C	1.506237	0.114754	-0.350954
C101	C	1.073218	-0.402419	-0.901126
C102	C	1.573218	0.097581	-0.401126
C103	C	1.057985	-0.338349	-0.800543
C104	C	1.557985	0.161651	-0.300543
C105	C	0.991042	-0.321157	-0.897452
C106	C	1.491042	0.178843	-0.397452
C107	C	1.058017	-0.338299	-0.946526
C108	C	1.558017	0.161701	-0.446526
C109	C	1.125000	-0.355556	-0.849629
C110	C	1.625000	0.144444	-0.349629
C111	C	1.042780	-0.274264	-0.845950
C112	C	1.542780	0.225736	-0.345950
C113	C	1.109809	-0.291412	-0.896099
C114	C	1.609809	0.208588	-0.396099
C115	C	1.057966	-0.338380	-0.716446
C116	C	1.557966	0.161620	-0.216446
C117	C	1.058044	-0.338268	-1.030621
C118	C	1.558044	0.161732	-0.530621
C119	C	1.057917	-0.338428	-0.180213
C120	C	1.557917	0.161572	0.319787
C121	C	1.058057	-0.338243	-0.097659
C122	C	1.558057	0.161757	0.402341
H123	H	0.599186	-0.456720	-0.344666
H124	H	1.099186	0.043280	0.155334
C125	C	0.900026	-0.701668	-0.530794
C126	C	1.400026	-0.201668	-0.030794
C127	C	0.939602	-0.749344	-0.491304
C128	C	1.439602	-0.249344	0.008696
H129	H	0.866665	-0.726560	-0.564123
H130	H	1.366665	-0.226560	-0.064123
H131	H	0.872918	-0.673099	-0.497116
H132	H	1.372918	-0.173099	0.002884
H133	H	0.933656	-0.673018	-0.557934
H134	H	1.433656	-0.173018	-0.057934
H135	H	0.905972	-0.777991	-0.464159
H136	H	1.405972	-0.277991	0.035841
H137	H	0.966711	-0.777925	-0.524986
H138	H	1.466711	-0.277925	-0.024986
C139	C	1.129243	-0.613129	-0.212361
C140	C	1.629243	-0.113129	0.287639
C141	C	1.146020	-0.595342	-0.285119
C142	C	1.646020	-0.095342	0.214881
H143	H	1.162614	-0.588242	-0.179038
H144	H	1.662614	-0.088242	0.320962
H145	H	1.079896	-0.601146	-0.200904
H146	H	1.579896	-0.101146	0.299096
H147	H	1.133856	-0.662063	-0.207798
H148	H	1.633856	-0.162063	0.292202
H149	H	1.141402	-0.546409	-0.289684
H150	H	1.641402	-0.046409	0.210316
H151	H	1.195380	-0.607321	-0.296580
H152	H	1.695380	-0.107321	0.203420
H153	H	0.606202	-0.306918	-0.496817
H154	H	1.106202	0.193082	0.003183
C155	C	0.537666	-0.152182	-0.351952
C156	C	1.037666	0.347818	0.148048
C157	C	0.510547	-0.201295	-0.406111
C158	C	1.010547	0.298705	0.093889
H159	H	0.521648	-0.107043	-0.362794
H160	H	1.021648	0.392957	0.137206
H161	H	0.519428	-0.164632	-0.304718
H162	H	1.019428	0.335368	0.195282
H163	H	0.590316	-0.151555	-0.351624
H164	H	1.090316	0.348445	0.148376
H165	H	0.457896	-0.201926	-0.406435
H166	H	0.957896	0.298074	0.093565
H167	H	0.528782	-0.188841	-0.453358
H168	H	1.028782	0.311159	0.046642
C169	C	0.456990	-0.436062	-0.237289
C170	C	0.956990	0.063938	0.262711
C171	C	0.502465	-0.374986	-0.229663
C172	C	1.002465	0.125014	0.270337
H173	H	0.438272	-0.448060	-0.190079
H174	H	0.938272	0.051940	0.309921
H175	H	0.416846	-0.428317	-0.269514
H176	H	0.916846	0.071683	0.230486
H177	H	0.485017	-0.473233	-0.257437
H178	H	0.985017	0.026767	0.242563
H179	H	0.474436	-0.337813	-0.209521
H180	H	0.974436	0.162187	0.290479
H181	H	0.542615	-0.382727	-0.197427
H182	H	1.042615	0.117273	0.302573
H183	H	1.153633	-0.251732	-0.915852
H184	H	1.653633	0.248268	-0.415852
H185	H	0.508190	-0.425270	-0.468489
H186	H	1.008190	0.074730	0.031511
C187	C	1.169520	-0.854706	-0.261802
C188	C	1.669520	-0.354706	0.238198
C189	C	1.176332	-0.926831	-0.255051
C190	C	1.676332	-0.426831	0.244949
H191	H	1.202880	-0.829815	-0.228471
H192	H	1.702880	-0.329815	0.271529
H193	H	1.180900	-0.842652	-0.311159
H194	H	1.680900	-0.342652	0.188841
H195	H	1.120161	-0.842737	-0.250343
H196	H	1.620161	-0.342737	0.249657
H197	H	1.225690	-0.938801	-0.266516
H198	H	1.725690	-0.438801	0.233484
H199	H	1.164957	-0.938891	-0.205683
H200	H	1.664957	-0.438891	0.294317
C201	C	1.156200	-1.152937	-0.275316
C202	C	1.656200	-0.652937	0.224684
C203	C	1.169457	-1.080808	-0.262030
C204	C	1.669457	-0.580808	0.237970
H205	H	1.187352	-1.177817	-0.244254
H206	H	1.687352	-0.677817	0.255746
H207	H	1.105779	-1.165000	-0.264931
H208	H	1.605779	-0.665000	0.235069
H209	H	1.166493	-1.164911	-0.325772
H210	H	1.666493	-0.664911	0.174228
H211	H	1.159158	-1.068833	-0.211574
H212	H	1.659158	-0.568833	0.288426
H213	H	1.219890	-1.068741	-0.272409
H214	H	1.719890	-0.568741	0.227591
C215	C	1.078856	-0.151857	-0.837123
C216	C	1.578856	0.348143	-0.337123
C217	C	1.025366	-0.201153	-0.813333
C218	C	1.525366	0.298847	-0.313333
H219	H	1.068095	-0.106722	-0.816988
H220	H	1.568095	0.393278	-0.316988
H221	H	1.126459	-0.163991	-0.820792
H222	H	1.626459	0.336009	-0.320792
H223	H	1.078281	-0.151418	-0.889724
H224	H	1.578281	0.348582	-0.389724
H225	H	1.025945	-0.201596	-0.760731
H226	H	1.525945	0.298404	-0.260731
H227	H	0.977751	-0.189015	-0.829660
H228	H	1.477751	0.310985	-0.329660
H229	H	1.126058	-0.738863	-0.305139
H230	H	1.626058	-0.238863	0.194861
C231	C	0.930344	-1.033174	-0.500735
C232	C	1.430344	-0.533174	-0.000735
C233	C	0.969919	-1.080845	-0.461236
C234	C	1.469919	-0.580845	0.038764
H235	H	0.896988	-1.058071	-0.534066
H236	H	1.396988	-0.558071	-0.034066
H237	H	0.903231	-1.004605	-0.467062
H238	H	1.403231	-0.504605	0.032938
H239	H	0.963976	-1.004524	-0.527874
H240	H	1.463976	-0.504524	-0.027874
H241	H	0.936288	-1.109492	-0.434093
H242	H	1.436288	-0.609492	0.065907
H243	H	0.997034	-1.109427	-0.494914
H244	H	1.497034	-0.609427	0.005086
H245	H	0.989881	-0.937319	-0.441218
H246	H	1.489881	-0.437319	0.058782
C247	C	1.217513	-0.442114	-0.849935
C248	C	1.717513	0.057886	-0.349935
C249	C	1.201462	-0.375248	-0.821372
C250	C	1.701462	0.124752	-0.321372
H251	H	1.264718	-0.454269	-0.832492
H252	H	1.764718	0.045731	-0.332492
H253	H	1.180730	-0.475229	-0.834123
H254	H	1.680730	0.024771	-0.334123
H255	H	1.217988	-0.442187	-0.902563
H256	H	1.717988	0.057813	-0.402563
H257	H	1.200982	-0.375176	-0.768744
H258	H	1.700982	0.124824	-0.268744
H259	H	1.238255	-0.342124	-0.837180
H260	H	1.738255	0.157876	-0.337180
C261	C	0.990245	-0.553139	-0.530150
C262	C	1.490245	-0.053139	-0.030150
C263	C	0.946493	-0.595366	-0.484330
C264	C	1.446493	-0.095366	0.015670
H265	H	0.959109	-0.528258	-0.561227
H266	H	1.459109	-0.028258	-0.061227
H267	H	1.019990	-0.520800	-0.500428
H268	H	1.519990	-0.020800	-0.000428
H269	H	1.021301	-0.581724	-0.559880
H270	H	1.521301	-0.081724	-0.059880
H271	H	0.915441	-0.566780	-0.454596
H272	H	1.415441	-0.066780	0.045404
H273	H	0.916735	-0.627709	-0.514055
H274	H	1.416735	-0.127709	-0.014055
H275	H	0.934417	-0.306637	-0.918486
H276	H	1.434417	0.193363	-0.418486
H277	H	1.119799	-0.825642	-0.311452
H278	H	1.619799	-0.325642	0.188548
C279	C	1.022099	-0.903121	-0.498532
C280	C	1.522099	-0.403121	0.001468
C281	C	0.982126	-0.861001	-0.448897
C282	C	1.482126	-0.361001	0.051103
H283	H	0.988732	-0.928023	-0.531848
H284	H	1.488732	-0.428023	-0.031848
H285	H	1.055706	-0.874465	-0.525680
H286	H	1.555706	-0.374465	-0.025680
H287	H	1.048961	-0.935448	-0.471729
H288	H	1.548961	-0.435448	0.028271
H289	H	0.955269	-0.828671	-0.475700
H290	H	1.455269	-0.328671	0.024300
H291	H	0.948507	-0.889659	-0.421746
H292	H	1.448507	-0.389659	0.078254
C293	C	0.963336	-0.505901	-0.852058
C294	C	1.463336	-0.005901	-0.352058
C295	C	0.947211	-0.438850	-0.824096
C296	C	1.447211	0.061150	-0.324096
H297	H	0.926900	-0.538993	-0.835472
H298	H	1.426900	-0.038993	-0.335472
H299	H	0.963239	-0.506543	-0.904702
H300	H	1.463239	-0.006543	-0.404702
H301	H	1.010801	-0.517643	-0.834951
H302	H	1.510801	-0.017643	-0.334951
H303	H	0.899749	-0.427105	-0.841207
H304	H	1.399749	0.072895	-0.341207
H305	H	0.947300	-0.438206	-0.771441
H306	H	1.447300	0.061794	-0.271441
C307	C	0.694296	-0.237992	-0.263566
C308	C	1.194296	0.262008	0.236434
C309	C	0.616734	-0.237888	-0.262533
C310	C	1.116734	0.262112	0.237467
H311	H	0.713841	-0.204915	-0.227147
H312	H	1.213841	0.295085	0.272853
H313	H	0.709859	-0.283368	-0.253108
H314	H	1.209859	0.216632	0.246892
H315	H	0.711788	-0.225752	-0.311144
H316	H	1.211788	0.274248	0.188856
H317	H	0.599242	-0.250134	-0.214956
H318	H	1.099242	0.249866	0.285044
H319	H	0.601164	-0.192503	-0.272986
H320	H	1.101164	0.307497	0.227014
C321	C	1.091091	-0.474567	-1.011247
C322	C	1.591091	0.025433	-0.511247
C323	C	1.090602	-0.475548	-0.933726
C324	C	1.590602	0.024452	-0.433726
H325	H	1.101822	-0.519714	-1.031370
H326	H	1.601822	-0.019714	-0.531370
H327	H	1.043884	-0.462048	-1.028305
H328	H	1.543884	0.037952	-0.528305
H329	H	1.127910	-0.441279	-1.026639
H330	H	1.627910	0.058721	-0.526639
H331	H	1.053779	-0.508833	-0.918334
H332	H	1.553779	-0.008833	-0.418334
H333	H	1.137815	-0.488075	-0.916661
H334	H	1.637815	0.011925	-0.416661
