data_functionalizedCrystal
_audit_creation_method	'MofGen! by Chris Wilmer'
_symmetry_space_group_name_H-M	'P1'
_symmetry_Int_Tables_number	1
_symmetry_cell_setting	triclinic
loop_
_symmetry_equiv_pos_as_xyz
  x,y,z
_cell_length_a	15.995355
_cell_length_b	10.654554
_cell_length_c	9.730223
_cell_angle_alpha	89.999131
_cell_angle_beta	89.996030
_cell_angle_gamma	96.009525
loop_
_atom_site_label
_atom_site_type_symbol
_atom_site_fract_x
_atom_site_fract_y
_atom_site_fract_z
O1	O	-1.111920	0.161894	-0.114155
O2	O	-0.868262	0.181877	-0.114187
O3	O	-0.995691	-0.010926	-0.114163
O4	O	-0.984491	0.354698	-0.114179
O5	O	-0.995690	-0.010921	0.114417
O6	O	-0.868260	0.181882	0.114393
O7	O	-1.111919	0.161899	0.114425
Zn8	Zn	-0.990089	0.171891	0.150701
Zn9	Zn	-0.990091	0.171885	-0.150463
O10	O	-0.984489	0.354703	0.114401
C11	C	-0.837062	0.181053	0.000099
C12	C	-0.744097	0.178573	0.000087
C13	C	-0.573885	0.174072	0.000106
C14	C	-0.549730	0.034889	0.000112
C15	C	-0.453037	0.032264	0.000640
C16	C	-0.406301	0.169638	0.000124
C17	C	-0.435798	0.239625	0.130391
C18	C	-0.532600	0.241282	0.130492
C19	C	-0.532524	0.243315	-0.129455
C20	C	-0.436000	0.238170	-0.131159
C21	C	-0.311588	0.167140	0.000138
C22	C	-0.668597	0.176574	0.000101
C23	C	-0.994867	-0.057711	0.000126
C24	C	-0.992404	-0.197122	0.000123
C25	C	-0.143120	0.162707	0.000137
C26	C	-0.236089	0.165137	0.000143
C27	C	-1.065122	-0.408578	0.000114
C28	C	-1.067436	-0.277587	0.000129
C29	C	-0.915053	-0.247653	0.000116
C30	C	-0.912739	-0.378642	0.000111
C31	C	-1.153099	-0.425859	0.000116
C32	C	-1.155414	-0.294868	0.000131
C33	C	-0.985313	0.401487	0.000109
C34	C	-0.987776	0.540898	0.000103
N35	N	-0.990094	0.171895	0.356237
N36	N	-0.990093	0.171871	-0.355999
C37	C	-1.046534	0.086550	0.428174
C38	C	-1.046532	0.086535	0.572057
C39	C	-0.933647	0.257220	0.572054
C40	C	-0.933645	0.257228	0.428173
C41	C	-1.111711	-0.011990	0.428177
C42	C	-1.111708	-0.012005	0.572060
H43	H	-0.547133	0.345761	-0.130716
H44	H	-1.176051	0.008674	0.611118
Br45	Br	-0.813222	-0.138451	0.000130
H46	H	-1.189819	-0.265948	-0.095523
H47	H	-1.097414	-0.108336	0.389125
Br48	Br	-0.807766	-0.447207	0.000127
Br49	Br	-0.382050	0.405246	-0.144948
Br50	Br	-0.420802	-0.059044	-0.154972
H51	H	-0.578405	-0.018176	0.093394
H52	H	-0.415427	0.191609	0.227709
Br53	Br	-1.208355	-0.496187	0.159544
Br54	Br	-1.213024	0.037693	0.353793
H55	H	-1.179680	-0.471847	-0.098577
Br56	Br	-1.077791	-0.163593	0.646439
H57	H	-0.887687	0.326696	0.630640
H58	H	-0.577424	-0.019058	-0.093289
H59	H	-0.434283	-0.022260	0.094572
Br60	Br	-1.202092	-0.236084	0.164651
Br61	Br	-0.576783	0.161457	0.293418
H62	H	-0.547767	0.343348	0.136058
H63	H	-0.560539	0.199403	-0.228225
Br64	Br	-0.383705	0.408141	0.137857
H65	H	-0.417146	0.187203	-0.227533
H66	H	-0.887680	0.326712	0.369604
