data_functionalizedCrystal
_audit_creation_method	'MofGen! by Chris Wilmer'
_symmetry_space_group_name_H-M	'P1'
_symmetry_Int_Tables_number	1
_symmetry_cell_setting	triclinic
loop_
_symmetry_equiv_pos_as_xyz
  x,y,z
_cell_length_a	15.298206
_cell_length_b	15.297327
_cell_length_c	12.759393
_cell_angle_alpha	99.641677
_cell_angle_beta	99.668826
_cell_angle_gamma	88.422996
loop_
_atom_site_label
_atom_site_type_symbol
_atom_site_fract_x
_atom_site_fract_y
_atom_site_fract_z
Zn1	Zn	1.278586	-0.580152	-0.452718
Zn2	Zn	1.253120	-0.726637	-0.311678
Zn3	Zn	1.132115	-0.554877	-0.301534
Zn4	Zn	1.106746	-0.701261	-0.511756
O5	O	1.192642	-0.640732	-0.394422
O6	O	1.397765	-0.620782	-0.413547
O7	O	1.237027	-0.703894	-0.163328
O8	O	1.172820	-0.435663	-0.292636
O9	O	1.379054	-0.728403	-0.309925
O10	O	1.280432	-0.454233	-0.403711
O11	O	1.148126	-0.577703	-0.155875
O12	O	1.006194	-0.553097	-0.349883
O13	O	1.129582	-0.685154	-0.650929
O14	O	0.987555	-0.660646	-0.504332
O15	O	1.255833	-0.596176	-0.607554
O16	O	1.212428	-0.845838	-0.367171
O17	O	1.104888	-0.827194	-0.514168
C18	C	0.965097	-0.601376	-0.432414
C19	C	0.867749	-0.584560	-0.448697
C20	C	0.831747	-0.520714	-0.510427
C21	C	0.740285	-0.504907	-0.525726
C22	C	0.684814	-0.552949	-0.479304
C23	C	0.720815	-0.616800	-0.417578
C24	C	0.812287	-0.632605	-0.402271
C25	C	0.665354	-0.664839	-0.371147
C26	C	0.701354	-0.728691	-0.309422
C27	C	0.792817	-0.744493	-0.294118
C28	C	0.848288	-0.696451	-0.340540
C29	C	0.573882	-0.649035	-0.386455
C30	C	0.554421	-0.760925	-0.278299
C31	C	0.645883	-0.776733	-0.262999
C32	C	1.153165	-0.868300	-0.448195
C33	C	1.136357	-0.965669	-0.471222
C34	C	1.313133	-1.278869	-0.230146
C35	C	1.328925	-1.187386	-0.208506
C36	C	1.280784	-1.131953	-0.274183
C37	C	1.216849	-1.168010	-0.361504
C38	C	1.201051	-1.259501	-0.383141
C39	C	1.168703	-1.112585	-0.427178
C40	C	1.104768	-1.148642	-0.514499
C41	C	1.088973	-1.240124	-0.536132
C42	C	1.137113	-1.295558	-0.470455
C43	C	1.184501	-1.021094	-0.405541
C44	C	1.072419	-1.001726	-0.558536
C45	C	1.056628	-1.093209	-0.580176
C46	C	1.421075	-0.680242	-0.356282
C47	C	1.518420	-0.697079	-0.340029
C48	C	1.192718	-0.640654	-0.668424
C49	C	1.192751	-0.640621	-0.785187
C50	C	1.232296	-0.412279	-0.340457
C51	C	1.249195	-0.314926	-0.317460
C52	C	1.146482	-0.574906	-0.836163
C53	C	1.146507	-0.574883	-0.945877
C54	C	1.239077	-0.706292	-0.953631
C55	C	1.239047	-0.706319	-0.843920
C56	C	1.192627	-0.640755	-0.121462
C57	C	1.192807	-0.640571	-0.004612
H58	H	0.922763	-0.709329	-0.328103
C59	C	0.831732	-0.813878	-0.227102
C60	C	0.763578	-0.852586	-0.189744
C61	C	0.799389	-0.916514	-0.128017
H62	H	0.873195	-0.786584	-0.167427
H63	H	0.860781	-0.858294	-0.270258
H64	H	0.734543	-0.808177	-0.146590
H65	H	0.722110	-0.879897	-0.249396
H66	H	0.828439	-0.960930	-0.171173
H67	H	0.840852	-0.889213	-0.068347
H68	H	0.753152	-0.942791	-0.102670
H69	H	0.509256	-0.800046	-0.240499
C70	C	1.020303	-0.941529	-0.629947
C71	C	1.078946	-0.897512	-0.676639
C72	C	1.030971	-0.842055	-0.742433
H73	H	0.988310	-0.899227	-0.587771
H74	H	0.979980	-0.976080	-0.685098
H75	H	1.119254	-0.862963	-0.621496
H76	H	1.110941	-0.939792	-0.718833
H77	H	0.990648	-0.876606	-0.797583
H78	H	0.998980	-0.799759	-0.700249
H79	H	1.070752	-0.812189	-0.774129
C80	C	1.289328	-0.777513	-1.017570
C81	C	1.279473	-0.763412	-1.124555
C82	C	1.325764	-0.828996	-1.183481
H83	H	1.266338	-0.834194	-1.015755
H84	H	1.350413	-0.774873	-0.986792
H85	H	1.218401	-0.766061	-1.155325
H86	H	1.302467	-0.706744	-1.126403
H87	H	1.386849	-0.826357	-1.152702
H88	H	1.302770	-0.885673	-1.181657
H89	H	1.319091	-0.819434	-1.256073
C90	C	1.365293	-1.338971	-0.158657
C91	C	1.350064	-1.313503	-0.052636
C92	C	1.398093	-1.368850	0.013263
H93	H	1.426756	-1.334137	-0.160560
H94	H	1.346724	-1.398631	-0.183963
H95	H	1.368638	-1.253858	-0.027336
H96	H	1.288610	-1.318342	-0.050699
H97	H	1.379525	-1.428510	-0.012044
H98	H	1.459554	-1.364011	0.011351
H99	H	1.387761	-1.351583	0.085203
H100	H	1.108785	-0.521411	-0.788346
H101	H	1.293645	-1.057464	-0.256558
H102	H	0.544580	-0.597045	-0.436710
C103	C	1.398200	-1.148173	-0.113593
C104	C	1.357690	-1.087185	-0.042065
C105	C	1.421481	-1.051054	0.045393
H106	H	1.442546	-1.118952	-0.138850
H107	H	1.424597	-1.194259	-0.077515
H108	H	1.331307	-1.041106	-0.078137
H109	H	1.313350	-1.116385	-0.016779
H110	H	1.447878	-1.097140	0.081471
H111	H	1.465823	-1.021838	0.020126
H112	H	1.394003	-1.009676	0.093940
H113	H	1.276726	-0.759835	-0.802416
C114	C	1.120066	-1.394903	-0.494133
C115	C	1.137178	-1.428941	-0.597585
C116	C	1.121501	-1.520457	-0.619426
H117	H	1.059985	-1.406015	-0.490344
H118	H	1.157921	-1.422785	-0.442567
H119	H	1.099323	-1.401068	-0.649137
H120	H	1.197254	-1.417853	-0.601400
H121	H	1.159356	-1.548339	-0.567860
H122	H	1.061421	-1.531560	-0.615632
H123	H	1.133117	-1.543564	-0.689615
H124	H	0.610343	-0.540071	-0.491760
C125	C	1.096420	-0.503512	-1.001325
C126	C	1.155763	-0.455953	-1.042808
C127	C	1.109648	-0.390208	-1.093908
H128	H	1.068837	-0.464304	-0.950739
H129	H	1.052473	-0.530389	-1.058456
H130	H	1.199694	-0.429076	-0.985684
H131	H	1.183349	-0.495136	-1.093408
H132	H	1.065701	-0.417086	-1.151039
H133	H	1.082066	-0.351007	-1.043315
H134	H	1.149903	-0.357937	-1.122069
H135	H	0.876920	-0.481601	-0.548211
C136	C	0.701365	-0.435582	-0.592820
C137	C	0.769514	-0.396908	-0.630223
C138	C	0.733692	-0.333048	-0.692049
H139	H	0.672301	-0.391133	-0.549751
H140	H	0.659908	-0.462954	-0.652474
H141	H	0.810955	-0.369536	-0.570578
H142	H	0.798583	-0.441335	-0.673308
H143	H	0.692235	-0.360420	-0.751703
H144	H	0.704629	-0.288605	-0.648972
H145	H	0.779924	-0.306805	-0.717443
C146	C	1.019547	-1.279110	-0.631012
C147	C	0.980783	-1.210990	-0.683917
C148	C	0.916832	-1.246869	-0.771333
H149	H	0.975154	-1.308250	-0.605738
H150	H	1.046860	-1.320509	-0.679712
H151	H	0.953469	-1.169606	-0.635227
H152	H	1.025153	-1.181844	-0.709216
H153	H	0.944146	-1.288268	-0.820032
H154	H	0.872446	-1.276009	-0.746049
H155	H	0.890529	-1.200657	-0.807245
H156	H	0.675208	-0.828722	-0.212742
H157	H	1.236557	-0.991744	-0.334444
H158	H	1.004571	-1.122580	-0.651273
