data_functionalizedCrystal
_audit_creation_method	'MofGen! by Chris Wilmer'
_symmetry_space_group_name_H-M	'P1'
_symmetry_Int_Tables_number	1
_symmetry_cell_setting	triclinic
loop_
_symmetry_equiv_pos_as_xyz
  x,y,z
_cell_length_a	10.540539
_cell_length_b	11.792254
_cell_length_c	10.268362
_cell_angle_alpha	90.004525
_cell_angle_beta	90.003141
_cell_angle_gamma	84.362045
loop_
_atom_site_label
_atom_site_type_symbol
_atom_site_fract_x
_atom_site_fract_y
_atom_site_fract_z
O1	O	0.174069	1.507353	0.108293
O2	O	0.191984	1.177061	0.108295
O3	O	-0.001705	1.349743	0.108292
O4	O	0.367757	1.334672	0.108295
O5	O	-0.001713	1.349727	-0.108309
O6	O	0.191976	1.177046	-0.108306
O7	O	0.174061	1.507338	-0.108308
Cu8	Cu	0.183017	1.342191	-0.128084
Cu9	Cu	0.183027	1.342209	0.128071
O10	O	0.367749	1.334657	-0.108305
C11	C	0.190851	1.134760	-0.000005
C12	C	0.187473	1.008738	-0.000004
C13	C	-0.049008	1.348605	-0.000006
C14	C	-0.189945	1.345223	0.000001
C15	C	0.184729	0.906394	0.000001
C16	C	0.181297	0.777999	0.000002
C17	C	-0.372957	1.215653	0.000488
C18	C	-0.226349	1.219081	0.000001
C19	C	-0.251802	1.405920	-0.123689
C20	C	-0.398333	1.401615	-0.123793
C21	C	-0.398850	1.404198	0.122522
C22	C	-0.251872	1.405360	0.124158
C23	C	0.415052	1.335794	-0.000004
C24	C	0.555989	1.339176	-0.000003
C25	C	0.175193	1.549639	-0.000005
C26	C	0.178571	1.675661	0.000002
N27	N	0.183010	1.342186	-0.308250
C28	C	0.183024	1.342203	-0.573921
C29	C	0.183020	1.342190	-0.426083
N30	N	0.183024	1.342222	0.308237
H31	H	-0.183590	1.171321	0.088666
Cl32	Cl	-0.472847	1.541674	-0.132476
Cl33	Cl	-0.441659	1.332332	-0.266539
H34	H	-0.184442	1.170973	-0.088813
H35	H	-0.227945	1.497328	0.131626
Cl36	Cl	-0.419896	1.138806	-0.135287
Cl37	Cl	-0.217751	1.548943	-0.130798
H38	H	-0.401394	1.165830	0.089188
H39	H	-0.209071	1.363744	-0.215734
Cl40	Cl	-0.447337	1.341164	0.267265
H41	H	-0.210868	1.360949	0.215660
H42	H	-0.446368	1.495310	0.123354
