data_functionalizedCrystal
_audit_creation_method	'MofGen! by Chris Wilmer'
_symmetry_space_group_name_H-M	'P1'
_symmetry_Int_Tables_number	1
_symmetry_cell_setting	triclinic
loop_
_symmetry_equiv_pos_as_xyz
  x,y,z
_cell_length_a	29.839134
_cell_length_b	18.215404
_cell_length_c	18.215399
_cell_angle_alpha	90.029924
_cell_angle_beta	89.971258
_cell_angle_gamma	89.983432
loop_
_atom_site_label
_atom_site_type_symbol
_atom_site_fract_x
_atom_site_fract_y
_atom_site_fract_z
Zn1	Zn	0.686794	0.293117	-0.416352
Zn2	Zn	0.686744	0.416193	-0.293287
Zn3	Zn	0.611671	0.293129	-0.293274
Zn4	Zn	0.611648	0.416130	-0.416286
O5	O	0.649214	0.354642	-0.354800
O6	O	0.749655	0.309464	-0.400060
O7	O	0.676774	0.399900	-0.190301
O8	O	0.621667	0.190143	-0.309623
O9	O	0.749617	0.399888	-0.309645
O10	O	0.676860	0.190134	-0.400048
O11	O	0.621618	0.309486	-0.190291
O12	O	0.548801	0.309425	-0.309559
O13	O	0.621628	0.399781	-0.519279
O14	O	0.548784	0.399793	-0.399935
O15	O	0.676837	0.309403	-0.519328
O16	O	0.676751	0.519169	-0.309581
O17	O	0.621579	0.519123	-0.399948
C18	C	0.532492	0.354604	-0.354739
C19	C	0.482557	0.354605	-0.354730
C20	C	0.125967	0.307518	-0.307837
C21	C	0.313640	0.307497	-0.307792
O22	O	0.337901	0.267399	-0.267853
N23	N	0.337112	0.354617	-0.354767
C24	C	0.313663	0.401743	-0.401760
O25	O	0.337935	0.441815	-0.441720
C26	C	0.125991	0.401759	-0.401808
C27	C	0.102521	0.354641	-0.354825
C28	C	0.102496	0.260403	-0.260858
C29	C	0.055581	0.260412	-0.260866
C30	C	0.032136	0.307535	-0.307854
C31	C	0.055606	0.354650	-0.354833
C32	C	0.102544	0.448880	-0.448804
C33	C	0.055623	0.448879	-0.448814
C34	C	0.032152	0.401761	-0.401830
C35	C	-0.014755	0.401781	-0.401830
N36	N	-0.038228	0.354661	-0.354855
C37	C	-0.014782	0.307538	-0.307867
C38	C	0.412194	0.401732	-0.401731
C39	C	0.459112	0.401729	-0.401718
C40	C	0.459085	0.307482	-0.307751
C41	C	0.412166	0.307489	-0.307760
C42	C	0.388722	0.354612	-0.354756
C43	C	-0.113308	0.307560	-0.307889
C44	C	-0.160228	0.307575	-0.307899
C45	C	-0.160196	0.401818	-0.401869
C46	C	-0.113281	0.401807	-0.401856
C47	C	-0.089838	0.354671	-0.354863
O48	O	-0.039046	0.441852	-0.441754
O49	O	-0.039061	0.267460	-0.267925
C50	C	0.172882	0.307510	-0.307828
C51	C	0.196352	0.354624	-0.354807
C52	C	0.172907	0.401747	-0.401795
C53	C	0.243270	0.354621	-0.354794
C54	C	0.266715	0.307498	-0.307806
C55	C	0.243243	0.260378	-0.260831
C56	C	0.196327	0.260386	-0.260840
C57	C	0.196379	0.448868	-0.448770
C58	C	0.243295	0.448856	-0.448757
C59	C	0.266740	0.401733	-0.401769
C60	C	0.649169	0.545849	-0.354774
C61	C	0.649191	0.627648	-0.354788
C62	C	0.649235	0.354584	-0.546753
C63	C	0.649244	0.354559	-0.628552
C64	C	0.766393	0.354681	-0.354861
C65	C	0.816327	0.354698	-0.354887
C66	C	0.677989	0.815841	-0.307831
C67	C	0.678010	0.892700	-0.307853
C68	C	0.620509	0.892692	-0.401875
C69	C	0.620490	0.815834	-0.401856
C70	C	0.649230	0.777411	-0.354830
C71	C	0.649269	0.931127	-0.354870
C72	C	0.649291	1.014461	-0.354894
C73	C	0.649208	0.694072	-0.354806
C74	C	0.649275	1.162689	-0.354854
C75	C	0.649308	1.080891	-0.354912
C76	C	0.620549	0.307448	-0.816742
C77	C	0.620557	0.307433	-0.893600
C78	C	0.677993	0.401581	-0.893600
C79	C	0.677983	0.401599	-0.816742
C80	C	0.649262	0.354528	-0.778315
C81	C	0.649280	0.354496	-0.932031
C82	C	0.649289	0.354480	-1.015365
C83	C	0.649252	0.354545	-0.694976
C84	C	0.649219	0.354648	-0.163593
C85	C	0.649297	0.354466	-0.081795
H86	H	0.393060	0.269119	-0.269505
C87	C	0.588974	0.255641	-0.935869
C88	C	0.553698	0.287506	-0.988676
C89	C	0.522113	0.235712	-1.030944
C90	C	0.525804	0.152054	-1.020404
C91	C	0.561082	0.120185	-0.967594
C92	C	0.592667	0.171979	-0.925326
H93	H	0.550964	0.349438	-0.996480
H94	H	0.495998	0.259304	-1.070037
H95	H	0.502423	0.113713	-1.051693
H96	H	0.563815	0.058252	-0.959790
H97	H	0.618781	0.148387	-0.886233
C98	C	0.709586	0.453352	-0.935877
C99	C	0.690107	0.511105	-0.988693
C100	C	0.721700	0.562875	-1.030971
C101	C	0.772772	0.556891	-1.020434
C102	C	0.792254	0.499135	-0.967616
C103	C	0.760661	0.447365	-0.925338
H104	H	0.652297	0.515537	-0.996495
H105	H	0.707278	0.605630	-1.070071
H106	H	0.796159	0.595214	-1.051732
H107	H	0.830064	0.494703	-0.959814
H108	H	0.775083	0.404610	-0.886238
C109	C	0.269038	0.208539	-0.209145
C110	C	0.262562	0.214438	-0.125472
C111	C	0.288360	0.162599	-0.073794
C112	C	0.320634	0.104861	-0.105787
C113	C	0.327111	0.098959	-0.189464
C114	C	0.301314	0.150799	-0.241143
H115	H	0.238669	0.257181	-0.101785
H116	H	0.283564	0.166967	-0.011850
H117	H	0.339731	0.066486	-0.067531
H118	H	0.351004	0.056216	-0.213152
H119	H	0.306109	0.146430	-0.303087
H120	H	0.701365	0.439941	-0.785454
H121	H	0.177295	0.487241	-0.487035
H122	H	-0.094226	0.269175	-0.269626
C123	C	-0.186044	0.255742	-0.256215
C124	C	-0.160251	0.203907	-0.204532
C125	C	-0.186065	0.152076	-0.152849
C126	C	-0.237673	0.152080	-0.152849
C127	C	-0.263469	0.203918	-0.204534
C128	C	-0.237655	0.255748	-0.256216
H129	H	-0.122045	0.203901	-0.204530
H130	H	-0.166969	0.113702	-0.114589
H131	H	-0.256783	0.113712	-0.114590
H132	H	-0.301675	0.203923	-0.204535
H133	H	-0.256751	0.294122	-0.294477
H134	H	-0.094171	0.440179	-0.440108
C135	C	0.588893	0.934958	-0.453596
C136	C	0.592522	0.924323	-0.537263
C137	C	0.560904	0.966586	-0.588985
C138	C	0.525657	1.019483	-0.557040
C139	C	0.522026	1.030120	-0.473369
C140	C	0.553644	0.987857	-0.421648
H141	H	0.618615	0.885163	-0.560914
H142	H	0.563592	0.958712	-0.650923
H143	H	0.502251	1.050769	-0.595328
H144	H	0.495933	1.069280	-0.449718
H145	H	0.550956	0.995732	-0.359709
H146	H	0.036476	0.222043	-0.222608
H147	H	0.597071	0.784543	-0.440132
H148	H	0.121581	0.222026	-0.222594
C149	C	0.484879	0.255643	-0.256063
C150	C	0.478446	0.171989	-0.262222
C151	C	0.504242	0.120149	-0.210541
C152	C	0.536471	0.151964	-0.152701
C153	C	0.542906	0.235622	-0.146540
C154	C	0.517110	0.287462	-0.198221
H155	H	0.454586	0.148434	-0.305040
H156	H	0.499478	0.058220	-0.215101
H157	H	0.555567	0.113589	-0.114444
H158	H	0.566765	0.259177	-0.103722
H159	H	0.521873	0.349391	-0.193661
C160	C	-0.185992	0.453651	-0.453556
C161	C	-0.160181	0.505481	-0.505238
C162	C	-0.185978	0.557310	-0.556929
C163	C	-0.237586	0.557308	-0.556937
C164	C	-0.263400	0.505476	-0.505253
C165	C	-0.237603	0.453647	-0.453562
H166	H	-0.121975	0.505484	-0.505233
H167	H	-0.166869	0.595679	-0.595189
H168	H	-0.256682	0.595675	-0.595202
H169	H	-0.301605	0.505473	-0.505257
H170	H	-0.256712	0.415278	-0.415302
C171	C	0.709645	0.934973	-0.256152
C172	C	0.741257	0.892705	-0.204430
C173	C	0.772894	0.934978	-0.152729
C174	C	0.772920	1.019518	-0.152750
C175	C	0.741307	1.061790	-0.204474
C176	C	0.709670	1.019518	-0.256175
H177	H	0.741238	0.830120	-0.204412
H178	H	0.796296	0.903685	-0.114439
H179	H	0.796341	1.050811	-0.114478
H180	H	0.741326	1.124376	-0.204492
H181	H	0.686268	1.050811	-0.294465
H182	H	0.478217	0.440105	-0.439969
H183	H	0.036536	0.487250	-0.487086
H184	H	0.701391	0.784558	-0.269540
H185	H	0.597163	0.269120	-0.785457
H186	H	0.393110	0.440107	-0.440002
H187	H	0.121645	0.487249	-0.487063
H188	H	0.177222	0.222017	-0.222582
C189	C	0.269108	0.500690	-0.500444
C190	C	0.262643	0.584346	-0.494305
C191	C	0.288454	0.636173	-0.545997
C192	C	0.320731	0.604344	-0.603827
C193	C	0.327198	0.520684	-0.609968
C194	C	0.301386	0.468857	-0.558277
H195	H	0.238748	0.607911	-0.451494
H196	H	0.283667	0.698104	-0.541450
H197	H	0.339838	0.642709	-0.642092
H198	H	0.351092	0.497119	-0.652780
H199	H	0.306174	0.406926	-0.562823
