data_functionalizedCrystal
_audit_creation_method	'MofGen! by Chris Wilmer'
_symmetry_space_group_name_H-M	'P1'
_symmetry_Int_Tables_number	1
_symmetry_cell_setting	triclinic
loop_
_symmetry_equiv_pos_as_xyz
  x,y,z
_cell_length_a	12.827893
_cell_length_b	16.625546
_cell_length_c	12.827885
_cell_angle_alpha	89.964686
_cell_angle_beta	89.980728
_cell_angle_gamma	90.022439
loop_
_atom_site_label
_atom_site_type_symbol
_atom_site_fract_x
_atom_site_fract_y
_atom_site_fract_z
Zn1	Zn	1.597618	-0.320962	-0.590810
Zn2	Zn	2.097618	0.179038	-0.090810
Zn3	Zn	1.597491	-0.455816	-0.416054
Zn4	Zn	2.097491	0.044184	0.083946
Zn5	Zn	1.422860	-0.321001	-0.416084
Zn6	Zn	1.922860	0.178999	0.083916
Zn7	Zn	1.422823	-0.455756	-0.590754
Zn8	Zn	1.922823	0.044244	-0.090754
O9	O	1.510198	-0.388384	-0.503425
O10	O	2.010198	0.111616	-0.003425
O11	O	1.743837	-0.338859	-0.567639
O12	O	2.243837	0.161141	-0.067639
O13	O	1.574287	-0.437975	-0.269822
O14	O	2.074287	0.062025	0.230178
O15	O	1.446110	-0.208164	-0.439297
O16	O	1.946110	0.291836	0.060703
O17	O	1.743744	-0.437936	-0.439247
O18	O	2.243744	0.062064	0.060753
O19	O	1.574505	-0.208135	-0.567668
O20	O	2.074505	0.291865	-0.067668
O21	O	1.445987	-0.338927	-0.269843
O22	O	1.945987	0.161073	0.230157
O23	O	1.276619	-0.338868	-0.439243
O24	O	1.776619	0.161132	0.060757
O25	O	1.446048	-0.437833	-0.736997
O26	O	1.946048	0.062167	-0.236997
O27	O	1.276592	-0.437872	-0.567572
O28	O	1.776592	0.062128	-0.067572
O29	O	1.574469	-0.338801	-0.737039
O30	O	2.074469	0.161199	-0.237039
O31	O	1.574252	-0.568641	-0.439192
O32	O	2.074252	-0.068641	0.060808
O33	O	1.445925	-0.568596	-0.567544
O34	O	1.945925	-0.068596	-0.067544
C35	C	1.238688	-0.388368	-0.503405
C36	C	1.738688	0.111632	-0.003405
C37	C	1.122535	-0.388381	-0.503422
C38	C	1.622535	0.111619	-0.003422
C39	C	1.070765	-0.437448	-0.566825
C40	C	1.570765	0.062552	-0.066825
C41	C	0.950714	-0.437462	-0.566844
C42	C	1.450714	0.062538	-0.066844
C43	C	1.510099	-0.597875	-0.503382
C44	C	2.010099	-0.097875	-0.003382
C45	C	1.510152	-0.687496	-0.503398
C46	C	2.010152	-0.187496	-0.003398
C47	C	1.510335	-1.015671	-0.503507
C48	C	2.010335	-0.515671	-0.003507
C49	C	1.510281	-0.924363	-0.503479
C50	C	2.010281	-0.424363	-0.003479
C51	C	1.510243	-0.851587	-0.503452
C52	C	2.010243	-0.351587	-0.003452
C53	C	1.510190	-0.760272	-0.503425
C54	C	2.010190	-0.260272	-0.003425
C55	C	1.782768	-0.388400	-0.503446
C56	C	2.282768	0.111600	-0.003446
C57	C	1.898921	-0.388407	-0.503455
C58	C	2.398921	0.111593	-0.003455
C59	C	1.510269	-0.388306	-0.775996
C60	C	2.010269	0.111694	-0.275996
C61	C	1.510299	-0.388272	-0.892149
C62	C	2.010299	0.111728	-0.392149
C63	C	1.510326	-0.178075	-0.503492
C64	C	2.010326	0.321925	-0.003492
C65	C	1.510380	-0.088454	-0.503521
C66	C	2.010380	0.411546	-0.003521
C67	C	1.573794	-0.437265	-0.943923
C68	C	2.073794	0.062735	-0.443923
C69	C	1.573826	-0.437231	-1.063973
C70	C	2.073826	0.062769	-0.563973
C71	C	1.510187	-0.388404	-0.231915
C72	C	2.010187	0.111596	0.268085
C73	C	1.510359	-0.388210	-0.115763
C74	C	2.010359	0.111790	0.384237
H75	H	0.906193	-0.479472	-0.621123
H76	H	1.406193	0.020528	-0.121123
C77	C	1.130943	-0.494184	-0.640141
C78	C	1.630943	0.005816	-0.140141
H79	H	1.203736	-0.486734	-0.630506
H80	H	1.703736	0.013266	-0.130506
H81	H	1.113144	-0.482464	-0.710401
H82	H	1.613144	0.017536	-0.210401
H83	H	1.113085	-0.548363	-0.624733
H84	H	1.613085	-0.048363	-0.124733
H85	H	0.943436	-0.346400	-0.449166
H86	H	1.443436	0.153600	0.050834
H87	H	1.077981	-0.346381	-0.449157
H88	H	1.577981	0.153619	0.050843
C89	C	1.647197	-0.493964	-0.883748
C90	C	2.147197	0.006036	-0.383748
H91	H	1.637540	-0.486552	-0.810955
H92	H	2.137540	0.013448	-0.310955
H93	H	1.717440	-0.482179	-0.901593
H94	H	2.217440	0.017821	-0.401593
H95	H	1.631882	-0.548148	-0.901565
H96	H	2.131882	-0.048148	-0.401565
C97	C	1.647268	-0.493896	-1.124109
C98	C	2.147268	0.006104	-0.624109
H99	H	1.687078	-0.524659	-1.076043
H100	H	2.187078	-0.024659	-0.576043
H101	H	1.692790	-0.463014	-1.166703
H102	H	2.192790	0.036986	-0.666703
H103	H	1.607240	-0.528989	-1.166671
H104	H	2.107240	-0.028989	-0.666671
H105	H	1.455994	-0.346266	-1.071245
H106	H	1.955994	0.153734	-0.571245
C107	C	1.436894	-0.331572	-0.952319
C108	C	1.936894	0.168428	-0.452319
H109	H	1.397059	-0.300835	-0.904268
H110	H	1.897059	0.199165	-0.404268
H111	H	1.391394	-0.362429	-0.994888
H112	H	1.891394	0.137571	-0.494888
H113	H	1.476949	-0.296456	-0.994908
H114	H	1.976949	0.203544	-0.494908
