data_functionalizedCrystal
_audit_creation_method	'MofGen! by Chris Wilmer'
_symmetry_space_group_name_H-M	'P1'
_symmetry_Int_Tables_number	1
_symmetry_cell_setting	triclinic
loop_
_symmetry_equiv_pos_as_xyz
  x,y,z
_cell_length_a	12.827893
_cell_length_b	14.908178
_cell_length_c	12.827885
_cell_angle_alpha	93.331370
_cell_angle_beta	90.019272
_cell_angle_gamma	93.313970
loop_
_atom_site_label
_atom_site_type_symbol
_atom_site_fract_x
_atom_site_fract_y
_atom_site_fract_z
Zn1	Zn	1.573645	-0.359146	0.566802
Zn2	Zn	1.563445	-0.510043	0.381959
Zn3	Zn	1.398883	-0.359190	0.392073
Zn4	Zn	1.388782	-0.509976	0.556664
O5	O	1.481189	-0.434588	0.474374
O6	O	1.718527	-0.379172	0.542293
O7	O	1.541574	-0.490078	0.237062
O8	O	1.430562	-0.232929	0.423727
O9	O	1.711033	-0.490036	0.406489
O10	O	1.558959	-0.232896	0.552100
O11	O	1.420672	-0.379247	0.244492
O12	O	1.251308	-0.379182	0.413896
O13	O	1.413346	-0.489921	0.704248
O14	O	1.243887	-0.489964	0.534820
O15	O	1.549164	-0.379107	0.711696
O16	O	1.531779	-0.636289	0.396659
O17	O	1.403455	-0.636240	0.525013
C18	C	1.209680	-0.434571	0.474356
C19	C	1.093526	-0.434585	0.474371
C20	C	1.038091	-0.489489	0.534105
C21	C	0.918039	-0.489505	0.534122
C22	C	1.465443	-0.669001	0.458661
C23	C	1.458802	-0.769284	0.451974
C24	C	1.579922	-0.957542	0.573225
C25	C	1.573686	-1.051766	0.566946
C26	C	1.440090	-1.051959	0.433140
C27	C	1.446326	-0.957734	0.439420
C28	C	1.516245	-0.910529	0.509464
C29	C	1.522485	-0.816303	0.515738
C30	C	1.388885	-0.816497	0.381938
C31	C	1.382649	-0.910722	0.375658
C32	C	1.753758	-0.434607	0.474394
C33	C	1.869910	-0.434614	0.474402
C34	C	1.481266	-0.434502	0.746951
C35	C	1.481298	-0.434465	0.863106
C36	C	1.497025	-0.199261	0.490172
C37	C	1.503773	-0.098978	0.496904
C38	C	1.481177	-0.434610	0.202863
C39	C	1.481363	-0.434392	0.086725
C40	C	1.548513	-0.379620	0.918578
C41	C	1.548549	-0.379580	1.038631
H42	H	1.579420	-0.777869	0.572768
C43	C	1.094033	-0.552978	0.603178
C44	C	1.072251	-0.655550	0.587596
C45	C	1.128191	-0.719041	0.656671
C46	C	1.205913	-0.679961	0.741327
C47	C	1.227699	-0.577384	0.756913
C48	C	1.171759	-0.513893	0.687838
H49	H	1.014712	-0.684484	0.524924
H50	H	1.112063	-0.794976	0.645133
H51	H	1.247323	-0.726961	0.792461
H52	H	1.285238	-0.548450	0.819584
H53	H	1.187887	-0.437958	0.699376
H54	H	1.325721	-0.949169	0.318633
H55	H	1.337038	-0.778209	0.330016
C56	C	1.656834	-0.905612	0.650265
C57	C	1.615799	-0.840812	0.736587
C58	C	1.692715	-0.788884	0.813628
C59	C	1.810666	-0.801756	0.804346
C60	C	1.851707	-0.866559	0.718020
C61	C	1.774791	-0.918487	0.640980
H62	H	1.528480	-0.831280	0.743461
H63	H	1.662333	-0.740912	0.877532
H64	H	1.867603	-0.763316	0.861376
H65	H	1.939026	-0.876091	0.711146
H66	H	1.805173	-0.966458	0.577075
C67	C	1.626223	-0.316224	0.862675
C68	C	1.585616	-0.245472	0.792357
C69	C	1.663329	-0.182075	0.736456
C70	C	1.781650	-0.189431	0.750874
C71	C	1.822264	-0.260187	0.821196
C72	C	1.744550	-0.323583	0.877096
H73	H	1.498022	-0.240024	0.781681
H74	H	1.633264	-0.129697	0.684399
H75	H	1.839178	-0.142501	0.709494
H76	H	1.909857	-0.265634	0.831872
H77	H	1.774616	-0.375961	0.929153
C78	C	0.853665	-0.553011	0.603213
C79	C	0.733624	-0.552936	0.603132
C80	C	0.669247	-0.616444	0.672226
C81	C	0.724910	-0.680027	0.741402
C82	C	0.844957	-0.680103	0.741486
C83	C	0.909335	-0.616596	0.672392
H84	H	0.692413	-0.505867	0.551922
H85	H	0.580380	-0.616387	0.672164
H86	H	0.677254	-0.727039	0.792550
H87	H	0.886169	-0.727173	0.792696
H88	H	0.998202	-0.616653	0.672454
C89	C	1.363184	-1.103900	0.356103
C90	C	1.404231	-1.168707	0.269795
C91	C	1.327325	-1.220652	0.192759
C92	C	1.209372	-1.207790	0.202031
C93	C	1.168318	-1.142981	0.288343
C94	C	1.245224	-1.091036	0.365379
H95	H	1.491553	-1.178231	0.262928
H96	H	1.357717	-1.268628	0.128865
H97	H	1.152442	-1.246243	0.145004
H98	H	1.080996	-1.133457	0.295210
H99	H	1.214833	-1.043059	0.429273
H100	H	1.423819	-0.481353	1.039042
C101	C	1.626294	-0.316143	1.103047
C102	C	1.626218	-0.316194	1.223089
C103	C	1.703966	-0.252754	1.287508
C104	C	1.781789	-0.189263	1.231885
C105	C	1.781868	-0.189210	1.111836
C106	C	1.704120	-0.252650	1.047417
H107	H	1.568606	-0.363196	1.264271
H108	H	1.703908	-0.252794	1.376376
H109	H	1.839343	-0.142302	1.279572
H110	H	1.839480	-0.142208	1.070655
H111	H	1.704178	-0.252610	0.958549
C112	C	1.403589	-0.497863	0.919006
C113	C	1.444198	-0.568616	0.989323
C114	C	1.366486	-0.632016	1.045220
C115	C	1.248165	-0.624663	1.030800
C116	C	1.207550	-0.553907	0.960481
C117	C	1.285262	-0.490506	0.904584
H118	H	1.531792	-0.574062	0.999999
H119	H	1.396552	-0.684395	1.097275
H120	H	1.190637	-0.671596	1.072179
H121	H	1.119956	-0.548461	0.949804
H122	H	1.255195	-0.438128	0.852529
H123	H	0.917562	-0.387610	0.423256
H124	H	1.052109	-0.387588	0.423248
H125	H	1.625533	-1.090040	0.618872
