data_functionalizedCrystal
_audit_creation_method	'MofGen! by Chris Wilmer'
_symmetry_space_group_name_H-M	'P1'
_symmetry_Int_Tables_number	1
_symmetry_cell_setting	triclinic
loop_
_symmetry_equiv_pos_as_xyz
  x,y,z
_cell_length_a	16.992694
_cell_length_b	23.532407
_cell_length_c	15.455313
_cell_angle_alpha	92.643560
_cell_angle_beta	87.142206
_cell_angle_gamma	86.758451
loop_
_atom_site_label
_atom_site_type_symbol
_atom_site_fract_x
_atom_site_fract_y
_atom_site_fract_z
O1	O	1.042902	0.118384	-0.072037
O2	O	1.542902	0.618384	0.427963
O3	O	0.814628	0.117059	-0.072062
O4	O	1.314628	0.617059	0.427938
O5	O	0.935648	0.035132	-0.072033
O6	O	1.435648	0.535132	0.427967
O7	O	0.921882	0.200311	-0.072066
O8	O	1.421882	0.700311	0.427934
O9	O	0.928727	0.039796	0.072228
O10	O	1.428727	0.539796	0.572228
O11	O	0.807707	0.121723	0.072198
O12	O	1.307707	0.621723	0.572198
O13	O	1.035981	0.123049	0.072224
O14	O	1.535981	0.623049	0.572224
Cu15	Cu	0.921212	0.122812	0.085383
Cu16	Cu	1.421212	0.622812	0.585383
Cu17	Cu	0.929397	0.117296	-0.085222
Cu18	Cu	1.429397	0.617296	0.414778
O19	O	0.914962	0.204976	0.072194
O20	O	1.414962	0.704976	0.572194
C21	C	0.781968	0.117688	0.000065
C22	C	1.281968	0.617688	0.500065
C23	C	0.694964	0.112604	0.000056
C24	C	1.194964	0.612604	0.500056
C25	C	0.644342	0.161650	0.000047
C26	C	1.144342	0.661650	0.500047
C27	C	0.562592	0.156871	0.000060
C28	C	1.062592	0.656871	0.500060
C29	C	0.531466	0.103045	0.000076
C30	C	1.031466	0.603045	0.500076
C31	C	0.582095	0.053995	0.000088
C32	C	1.082095	0.553995	0.500088
C33	C	0.663843	0.058775	0.000081
C34	C	1.163843	0.558775	0.500081
C35	C	0.288022	0.083234	0.000103
C36	C	0.788022	0.583234	0.500103
C37	C	0.206267	0.078457	0.000107
C38	C	0.706267	0.578457	0.500107
C39	C	0.186770	0.181334	0.000081
C40	C	0.686770	0.681334	0.500081
C41	C	0.268521	0.186109	0.000069
C42	C	0.768521	0.686109	0.500069
C43	C	0.319142	0.137059	0.000085
C44	C	0.819142	0.637059	0.500085
N45	N	0.447905	0.098158	0.000086
N46	N	0.947905	0.598158	0.500086
N47	N	0.402701	0.141946	0.000081
N48	N	0.902701	0.641946	0.500081
C49	C	0.931837	0.016231	0.000100
C50	C	1.431837	0.516231	0.500100
C51	C	0.930782	-0.047038	0.000106
C52	C	1.430782	0.452962	0.500106
C53	C	0.995791	-0.442917	0.000066
C54	C	1.495791	0.057083	0.500066
C55	C	0.994812	-0.502366	0.000059
C56	C	1.494812	-0.002366	0.500059
O57	O	1.055075	-0.536121	0.000034
O58	O	1.555075	-0.036121	0.500034
N59	N	0.922865	-0.528562	0.000052
N60	N	1.422865	-0.028562	0.500052
C61	C	0.851893	-0.495307	0.000042
C62	C	1.351893	0.004693	0.500042
O63	O	0.790607	-0.523048	0.000035
O64	O	1.290607	-0.023048	0.500035
C65	C	0.852873	-0.435859	0.000043
C66	C	1.352873	0.064141	0.500043
C67	C	0.924824	-0.409666	0.000059
C68	C	1.424824	0.090334	0.500059
C69	C	1.067736	-0.416723	0.000081
C70	C	1.567736	0.083277	0.500081
C71	C	1.068714	-0.357278	0.000089
C72	C	1.568714	0.142722	0.500089
C73	C	0.997748	-0.324027	0.000083
C74	C	1.497748	0.175973	0.500083
C75	C	0.925803	-0.350221	0.000067
C76	C	1.425803	0.149779	0.500067
C77	C	0.781902	-0.402605	0.000027
C78	C	1.281902	0.097395	0.500027
C79	C	0.782889	-0.343154	0.000027
C80	C	1.282889	0.156846	0.500027
C81	C	0.854839	-0.316960	0.000043
C82	C	1.354839	0.183040	0.500043
C83	C	0.855814	-0.257525	0.000069
C84	C	1.355814	0.242475	0.500069
N85	N	0.927761	-0.231328	0.000076
N86	N	1.427761	0.268672	0.500076
C87	C	0.998728	-0.264579	0.000083
C88	C	1.498728	0.235421	0.500083
C89	C	0.849841	-0.620151	0.000040
C90	C	1.349841	-0.120151	0.500040
C91	C	0.848860	-0.679598	0.000046
C92	C	1.348860	-0.179598	0.500046
C93	C	0.991779	-0.686653	0.000061
C94	C	1.491779	-0.186653	0.500061
C95	C	0.992759	-0.627205	0.000061
C96	C	1.492759	-0.127205	0.500061
C97	C	0.921788	-0.593955	0.000047
C98	C	1.421788	-0.093955	0.500047
C99	C	1.000777	-0.139740	0.000101
C100	C	1.500777	0.360260	0.500101
C101	C	1.001749	-0.080289	0.000113
C102	C	1.501749	0.419711	0.500113
C103	C	0.858831	-0.073240	0.000093
C104	C	1.358831	0.426760	0.500093
C105	C	0.857858	-0.132685	0.000086
C106	C	1.357858	0.367315	0.500086
C107	C	0.928838	-0.165934	0.000087
C108	C	1.428838	0.334066	0.500087
O109	O	0.795583	-0.223733	0.000090
O110	O	1.295583	0.276267	0.500090
O111	O	1.060004	-0.236831	0.000079
O112	O	1.560004	0.263169	0.500079
C113	C	1.068641	0.122420	0.000095
C114	C	1.568641	0.622420	0.500095
C115	C	1.155645	0.127504	0.000098
C116	C	1.655645	0.627504	0.500098
C117	C	0.918772	0.223877	0.000060
C118	C	1.418772	0.723877	0.500060
C119	C	0.919827	0.287146	0.000048
C120	C	1.419827	0.787146	0.500048
N121	N	0.915462	0.126692	0.205377
N122	N	1.415462	0.626692	0.705377
N123	N	0.935153	0.113412	-0.205216
N124	N	1.435153	0.613412	0.294784
C125	C	0.966893	0.091901	0.250784
C126	C	1.466893	0.591901	0.750784
C127	C	0.962551	0.094840	0.341591
C128	C	1.462551	0.594840	0.841591
C129	C	0.906782	0.132574	0.386989
C130	C	1.406782	0.632574	0.886989
C131	C	0.855345	0.167366	0.341576
C132	C	1.355345	0.667366	0.841576
C133	C	0.859684	0.164424	0.250771
C134	C	1.359684	0.664424	0.750771
C135	C	0.888055	0.145261	0.658566
C136	C	1.388055	0.645261	1.158566
C137	C	0.883722	0.148203	0.749378
C138	C	1.383722	0.648203	1.249378
C139	C	0.990928	0.075676	0.749386
C140	C	1.490928	0.575676	1.249386
C141	C	0.995265	0.072738	0.658579
C142	C	1.495265	0.572738	1.158579
C143	C	0.943825	0.107529	0.613174
C144	C	1.443825	0.607529	1.113174
N145	N	0.902344	0.135581	0.479808
N146	N	1.402344	0.635581	0.979808
N147	N	0.948260	0.104518	0.520356
N148	N	1.448260	0.604518	1.020356
H149	H	0.329228	0.043294	0.000117
H150	H	0.829228	0.543294	0.500117
C151	C	1.056607	0.031228	0.608647
C152	C	1.556607	0.531228	1.108647
H153	H	1.086611	0.010924	0.648695
H154	H	1.586611	0.510924	1.148695
H155	H	1.090765	0.052056	0.573209
H156	H	1.590765	0.552056	1.073209
H157	H	1.030283	0.005085	0.573239
H158	H	1.530283	0.505085	1.073239
H159	H	0.556745	0.010169	0.000113
H160	H	1.056745	0.510169	0.500113
H161	H	1.058576	-0.166805	0.000099
H162	H	1.558576	0.333195	0.500099
C163	C	1.145804	-0.453293	0.000087
C164	C	1.645804	0.046707	0.500087
H165	H	1.134931	-0.492452	0.000078
H166	H	1.634931	0.007548	0.500078
H167	H	1.172910	-0.443373	0.050397
H168	H	1.672910	0.056627	0.550397
H169	H	1.177735	-0.446618	-0.050223
H170	H	1.677735	0.053382	0.449777
C171	C	0.794001	0.208874	0.391512
C172	C	1.294001	0.708874	0.891512
H173	H	0.798788	0.205649	0.452096
H174	H	1.298788	0.705649	0.952096
H175	H	0.742451	0.199808	0.376643
H176	H	1.242451	0.699808	0.876643
H177	H	0.802933	0.246779	0.376612
H178	H	1.302933	0.746779	0.876612
C179	C	0.803113	0.202696	0.200824
C180	C	1.303113	0.702696	0.700824
H181	H	0.769282	0.225595	0.240865
H182	H	1.269282	0.725595	0.740865
H183	H	0.772340	0.179571	0.165413
H184	H	1.272340	0.679571	0.665413
H185	H	0.832819	0.226544	0.165389
H186	H	1.332819	0.726544	0.665389
H187	H	0.838305	0.178933	0.786337
H188	H	1.338305	0.678933	1.286337
C189	C	0.678578	0.220858	0.000027
C190	C	1.178578	0.720858	0.500027
H191	H	0.734515	0.216682	0.000016
H192	H	1.234515	0.716682	0.500016
H193	H	0.658768	0.242837	0.050329
H194	H	1.158768	0.742837	0.550329
H195	H	0.663579	0.239579	-0.050291
H196	H	1.163579	0.739579	0.449709
C197	C	0.506911	0.210822	0.000047
C198	C	1.006911	0.710822	0.500047
H199	H	0.537158	0.243562	0.000026
H200	H	1.037158	0.743562	0.500026
H201	H	0.472211	0.212726	0.050357
H202	H	0.972211	0.712726	0.550357
H203	H	0.477022	0.209466	-0.050263
H204	H	0.977022	0.709466	0.449737
H205	H	0.145546	0.221267	0.000069
H206	H	0.645546	0.721267	0.500069
C207	C	0.719527	0.004824	0.000082
C208	C	1.219527	0.504824	0.500082
H209	H	0.689284	-0.027918	0.000083
H210	H	1.189284	0.472082	0.500083
H211	H	0.749419	0.006176	0.050385
H212	H	1.249419	0.506176	0.550385
H213	H	0.754226	0.002926	-0.050235
H214	H	1.254226	0.502926	0.449765
H215	H	1.051348	-0.605882	0.000074
H216	H	1.551348	-0.105882	0.500074
C217	C	1.069844	-0.723234	0.000062
C218	C	1.569844	-0.223234	0.500062
H219	H	1.112838	-0.699123	0.000074
H220	H	1.612838	-0.199123	0.500074
H221	H	1.074840	-0.748193	-0.050246
H222	H	1.574840	-0.248193	0.449754
H223	H	1.070016	-0.744950	0.050374
H224	H	1.570016	-0.244950	0.550374
C225	C	0.302758	0.245316	0.000048
C226	C	0.802758	0.745316	0.500048
H227	H	0.358695	0.241137	0.000035
H228	H	0.858695	0.741137	0.500035
H229	H	0.282952	0.267299	0.050347
H230	H	0.782952	0.767299	0.550347
H231	H	0.287759	0.264035	-0.050272
H232	H	0.787759	0.764035	0.449728
H233	H	1.032806	0.047350	0.786363
H234	H	1.532806	0.547350	1.286363
C235	C	0.831496	0.183544	0.608628
C236	C	1.331496	0.683544	1.108628
H237	H	0.842062	0.176389	0.548045
H238	H	1.342062	0.676389	1.048045
H239	H	0.839014	0.222408	0.623504
H240	H	1.339014	0.722408	1.123504
H241	H	0.778517	0.175447	0.623514
H242	H	1.278517	0.675447	1.123514
C243	C	0.769714	-0.708404	0.000035
C244	C	1.269714	-0.208404	0.500035
H245	H	0.727593	-0.680082	0.000025
H246	H	1.227593	-0.180082	0.500025
H247	H	0.763941	-0.729829	0.050336
H248	H	1.263941	-0.229829	0.550336
H249	H	0.768773	-0.733066	-0.050283
H250	H	1.268773	-0.233066	0.449717
H251	H	0.180928	0.034624	0.000119
H252	H	0.680928	0.534624	0.500119
C253	C	1.028239	0.050392	0.200853
C254	C	1.528239	0.550392	0.700853
H255	H	1.058242	0.030089	0.240905
H256	H	1.558242	0.530089	0.740905
H257	H	1.062399	0.071220	0.165416
H258	H	1.562399	0.571220	0.665416
H259	H	1.001917	0.024248	0.165446
H260	H	1.501917	0.524248	0.665446
C261	C	1.080896	-0.051477	0.000132
C262	C	1.580896	0.448523	0.500132
H263	H	1.071319	-0.011309	0.000144
H264	H	1.571319	0.488691	0.500144
H265	H	1.112512	-0.064289	-0.050171
H266	H	1.612512	0.435711	0.449829
H267	H	1.107678	-0.061052	0.050449
H268	H	1.607678	0.438948	0.550449
C269	C	1.147862	-0.328473	0.000091
C270	C	1.647862	0.171527	0.500091
H271	H	1.189981	-0.356797	0.000084
H272	H	1.689981	0.143203	0.500084
H273	H	1.148815	-0.303806	0.050395
H274	H	1.648815	0.196194	0.550395
H275	H	1.153626	-0.307055	-0.050225
H276	H	1.653626	0.192945	0.449775
H277	H	0.792043	-0.593082	0.000036
H278	H	1.292043	-0.093082	0.500036
H279	H	0.723313	-0.423922	0.000009
H280	H	1.223313	0.076078	0.500009
H281	H	0.799269	-0.154012	0.000097
H282	H	1.299269	0.345988	0.500097
C283	C	1.019123	0.056571	0.391538
C284	C	1.519123	0.556571	0.891538
H285	H	1.008547	0.063721	0.452121
H286	H	1.508547	0.563721	0.952121
H287	H	1.072095	0.064674	0.376650
H288	H	1.572095	0.564674	0.876650
H289	H	1.011616	0.017701	0.376668
H290	H	1.511616	0.517701	0.876668
C291	C	0.704818	-0.306582	0.000015
C292	C	1.204818	0.193418	0.500015
H293	H	0.661831	-0.330700	0.000011
H294	H	1.161831	0.169300	0.500011
H295	H	0.704641	-0.284863	-0.050289
H296	H	1.204641	0.215137	0.449711
H297	H	0.699812	-0.281626	0.050331
H298	H	1.199812	0.218374	0.550331
H299	H	0.801051	-0.046156	0.000091
H300	H	1.301051	0.453844	0.500091
