data_functionalizedCrystal
_audit_creation_method	'MofGen! by Chris Wilmer'
_symmetry_space_group_name_H-M	'P1'
_symmetry_Int_Tables_number	1
_symmetry_cell_setting	triclinic
loop_
_symmetry_equiv_pos_as_xyz
  x,y,z
_cell_length_a	26.210047
_cell_length_b	14.044220
_cell_length_c	14.044220
_cell_angle_alpha	93.188878
_cell_angle_beta	90.004027
_cell_angle_gamma	89.995121
loop_
_atom_site_label
_atom_site_type_symbol
_atom_site_fract_x
_atom_site_fract_y
_atom_site_fract_z
O1	O	0.042377	-1.277175	-0.230154
O2	O	0.042390	-1.000503	-0.221849
O3	O	0.042378	-1.134686	-0.087666
O4	O	0.042388	-1.142992	-0.364337
O5	O	-0.042480	-1.134660	-0.087686
O6	O	-0.042468	-1.000477	-0.221869
O7	O	-0.042481	-1.277148	-0.230175
Cu8	Cu	-0.050223	-1.138810	-0.226024
Cu9	Cu	0.050131	-1.138841	-0.226000
O10	O	-0.042470	-1.142965	-0.364358
C11	C	-0.000038	-0.964868	-0.218223
C12	C	-0.000033	-0.858725	-0.207379
N13	N	-0.120807	-1.138795	-0.226041
C14	C	-0.000051	-1.131037	-0.052054
C15	C	-0.000051	-1.120193	0.054088
C16	C	-0.473326	-1.198252	-0.166598
C17	C	-0.686985	-1.198272	-0.166586
O18	O	-0.714611	-1.248788	-0.116046
N19	N	-0.713701	-1.138845	-0.225979
C20	C	-0.686999	-1.079403	-0.285375
O21	O	-0.714626	-1.028850	-0.335885
C22	C	-0.473342	-1.079379	-0.285381
C23	C	-0.446628	-1.138818	-0.225991
C24	C	-0.446612	-1.257685	-0.107212
C25	C	-0.393201	-1.257683	-0.107219
C26	C	-0.366503	-1.198249	-0.166612
C27	C	-0.393217	-1.138816	-0.225998
C28	C	-0.446641	-1.019934	-0.344771
C29	C	-0.393223	-1.019931	-0.344765
C30	C	-0.366510	-1.079370	-0.285375
C31	C	-0.313107	-1.079380	-0.285398
N32	N	-0.286391	-1.138807	-0.226005
C33	C	-0.313089	-1.198241	-0.166612
C34	C	-0.799173	-1.079422	-0.285369
C35	C	-0.852587	-1.079429	-0.285369
C36	C	-0.852568	-1.198296	-0.166579
C37	C	-0.799153	-1.198293	-0.166584
C38	C	-0.772456	-1.138849	-0.225976
C39	C	-0.200921	-1.198234	-0.166633
C40	C	-0.147505	-1.198230	-0.166648
C41	C	-0.147528	-1.079359	-0.285434
C42	C	-0.200939	-1.079366	-0.285423
C43	C	-0.227635	-1.138807	-0.226014
O44	O	-0.285448	-1.028882	-0.335904
O45	O	-0.285453	-1.248772	-0.116094
C46	C	-0.526737	-1.198254	-0.166590
C47	C	-0.553451	-1.138821	-0.225976
C48	C	-0.526753	-1.079387	-0.285369
C49	C	-0.606865	-1.138828	-0.225976
C50	C	-0.633563	-1.198263	-0.166583
C51	C	-0.606847	-1.257690	-0.107190
C52	C	-0.553435	-1.257688	-0.107197
C53	C	-0.553469	-1.019959	-0.344762
C54	C	-0.606881	-1.019967	-0.344751
C55	C	-0.633579	-1.079401	-0.285358
N56	N	0.120715	-1.138863	-0.225976
C57	C	-0.000053	-1.312783	-0.233800
C58	C	-0.000054	-1.418926	-0.244645
C59	C	-0.000044	-0.664388	-0.187553
C60	C	-0.000043	-0.613258	-0.264467
C61	C	-0.000049	-0.505122	-0.253435
C62	C	-0.000038	-0.772534	-0.198583
C63	C	-0.000040	-1.146614	-0.399969
C64	C	-0.000036	-1.157459	-0.506112
C65	C	-0.000043	-1.100366	0.248426
C66	C	-0.000045	-1.177281	0.299556
C67	C	-0.000040	-1.166249	0.407692
C68	C	-0.000047	-1.111397	0.140280
H69	H	-0.222650	-1.246634	-0.118256
H70	H	-0.628627	-0.971567	-0.393122
H71	H	-0.000049	-0.626951	-0.113425
H72	H	-0.000038	-1.026239	0.285863
H73	H	-0.000014	-1.251414	0.262117
H74	H	-0.125756	-1.246635	-0.118286
H75	H	-0.777440	-1.031014	-0.333735
H76	H	-0.371454	-1.306080	-0.058856
H77	H	-0.468345	-1.306083	-0.058843
H78	H	-0.777406	-1.246693	-0.118224
H79	H	-0.000038	-0.650697	-0.338600
H80	H	-0.874333	-1.031040	-0.333740
C81	C	-0.869008	-1.240382	-0.006070
C82	C	-0.881920	-1.263624	-0.101285
H83	H	-0.887128	-1.280711	0.034239
H84	H	-0.877765	-1.175795	0.009705
H85	H	-0.833373	-1.248892	0.002423
H86	H	-0.917554	-1.255107	-0.109780
H87	H	-0.873166	-1.328227	-0.117065
C88	C	-0.441271	-0.902424	-0.462166
C89	C	-0.475995	-0.954591	-0.410050
H90	H	-0.459393	-0.862078	-0.502464
H91	H	-0.420439	-0.945066	-0.499891
H92	H	-0.420436	-0.864736	-0.419483
H93	H	-0.496828	-0.992284	-0.452733
H94	H	-0.496835	-0.911944	-0.372322
C95	C	-0.333166	-1.010174	-0.472942
C96	C	-0.363877	-0.954591	-0.410054
H97	H	-0.315047	-0.969835	-0.513244
H98	H	-0.354004	-1.052807	-0.510662
H99	H	-0.309611	-1.045564	-0.437565
H100	H	-0.387434	-0.919206	-0.445431
H101	H	-0.343037	-0.911941	-0.372330
H102	H	-0.222690	-1.030976	-0.333793
H103	H	-0.125782	-1.030971	-0.333794
H104	H	-0.628593	-1.306088	-0.058833
C105	C	-0.558799	-1.375175	0.010223
C106	C	-0.524077	-1.323018	-0.041906
H107	H	-0.540676	-1.415503	0.050538
H108	H	-0.579630	-1.412873	-0.032444
H109	H	-0.579635	-1.332519	0.047940
H110	H	-0.503243	-1.365674	-0.079629
H111	H	-0.503237	-1.285318	0.000767
H112	H	-0.531736	-0.971559	-0.393126
