data_functionalizedCrystal
_audit_creation_method	'MofGen! by Chris Wilmer'
_symmetry_space_group_name_H-M	'P1'
_symmetry_Int_Tables_number	1
_symmetry_cell_setting	triclinic
loop_
_symmetry_equiv_pos_as_xyz
  x,y,z
_cell_length_a	10.540510
_cell_length_b	14.519709
_cell_length_c	12.996460
_cell_angle_alpha	90.007090
_cell_angle_beta	89.994188
_cell_angle_gamma	95.903272
loop_
_atom_site_label
_atom_site_type_symbol
_atom_site_fract_x
_atom_site_fract_y
_atom_site_fract_z
O1	O	1.684586	-0.129839	-0.085576
O2	O	1.315042	-0.142113	-0.085577
O3	O	1.509612	-0.001789	-0.085567
O4	O	1.490016	-0.270162	-0.085585
O5	O	1.509592	-0.001781	0.085567
O6	O	1.315022	-0.142105	0.085557
O7	O	1.684565	-0.129831	0.085558
Cu8	Cu	1.499792	-0.135967	0.101183
Cu9	Cu	1.499816	-0.135977	-0.101202
O10	O	1.489996	-0.270154	0.085548
C11	C	1.267738	-0.141194	-0.000010
C12	C	1.126816	-0.138458	-0.000010
N13	N	1.499784	-0.135960	0.243531
C14	C	1.508688	0.032579	0.000000
C15	C	1.505952	0.134975	0.000001
C16	C	0.908365	-0.235940	-0.000410
C17	C	1.054931	-0.238859	-0.000018
C18	C	1.082569	-0.087057	0.097717
C19	C	0.935831	-0.084850	0.097793
C20	C	0.936069	-0.082768	-0.096818
C21	C	1.082362	-0.087530	-0.098104
C22	C	1.731870	-0.130749	-0.000011
C23	C	1.872792	-0.133486	-0.000018
C24	C	1.490919	-0.304523	-0.000021
C25	C	1.493656	-0.406919	-0.000028
C26	C	1.495877	0.509924	-0.000026
C27	C	1.498675	0.405602	-0.000018
C28	C	1.500914	0.322453	-0.000012
C29	C	1.503712	0.218124	-0.000006
N30	N	1.499833	-0.135976	-0.243549
C31	C	1.499814	-0.135977	0.663345
C32	C	1.499802	-0.135976	0.546540
C33	C	1.499800	-0.135969	0.453441
C34	C	1.499786	-0.135966	0.336629
H35	H	0.866021	-0.275058	-0.070496
C36	C	1.015633	-0.165873	0.253960
C37	C	1.123707	-0.135229	0.195900
H38	H	1.041032	-0.195608	0.314575
H39	H	0.961085	-0.208359	0.214425
H40	H	0.971499	-0.114428	0.272268
H41	H	1.167836	-0.186675	0.177585
H42	H	1.178276	-0.092740	0.235443
H43	H	0.864453	-0.274827	0.069273
C44	C	1.225092	-0.296352	0.095537
C45	C	1.092724	-0.293447	0.094714
H46	H	1.248420	-0.330056	0.154023
H47	H	1.266307	-0.235078	0.098404
H48	H	1.250315	-0.325910	0.034747
H49	H	1.067502	-0.263883	0.155501
H50	H	1.051495	-0.354733	0.091856
C51	C	1.219055	0.020679	-0.198006
C52	C	1.149649	0.011413	-0.106067
H53	H	1.260614	0.081759	-0.202911
H54	H	1.162719	0.009066	-0.254635
H55	H	1.280919	-0.022497	-0.198814
H56	H	1.087779	0.054584	-0.105262
H57	H	1.205990	0.023036	-0.049424
C58	C	1.019966	0.074997	0.107320
C59	C	0.905811	0.016520	0.103801
H60	H	1.001434	0.137575	0.111039
H61	H	1.068381	0.066408	0.047067
H62	H	1.067493	0.060672	0.166253
H63	H	0.858288	0.030841	0.044863
H64	H	0.857376	0.025113	0.164060
H65	H	1.130713	-0.013144	0.101357
C66	C	0.898852	-0.219296	-0.201230
C67	C	0.878368	-0.125611	-0.196821
H68	H	0.863235	-0.245749	-0.262968
H69	H	0.859350	-0.250880	-0.143767
H70	H	0.987868	-0.224792	-0.199962
H71	H	0.789351	-0.120115	-0.198081
H72	H	0.917866	-0.094017	-0.254300
H73	H	1.110607	-0.124928	-0.170402
C74	C	0.775067	0.022733	-0.101425
C75	C	0.907202	0.018993	-0.097716
H76	H	0.757244	0.085554	-0.101981
H77	H	0.736603	-0.007547	-0.042769
H78	H	0.741745	-0.007260	-0.162054
H79	H	0.940523	0.048980	-0.037083
H80	H	0.945680	0.049286	-0.156378
H81	H	1.083875	-0.279070	-0.070075
H82	H	0.895247	-0.119970	0.170840
