data_functionalizedCrystal
_audit_creation_method	'MofGen! by Chris Wilmer'
_symmetry_space_group_name_H-M	'P1'
_symmetry_Int_Tables_number	1
_symmetry_cell_setting	triclinic
loop_
_symmetry_equiv_pos_as_xyz
  x,y,z
_cell_length_a	14.908520
_cell_length_b	14.908779
_cell_length_c	14.908308
_cell_angle_alpha	83.241764
_cell_angle_beta	96.360765
_cell_angle_gamma	90.163414
loop_
_atom_site_label
_atom_site_type_symbol
_atom_site_fract_x
_atom_site_fract_y
_atom_site_fract_z
Zn1	Zn	-0.462183	-1.325899	-0.460117
Zn2	Zn	0.037817	-0.825899	0.039883
Zn3	Zn	-0.604822	-1.325796	-0.317493
Zn4	Zn	-0.104822	-0.825796	0.182507
Zn5	Zn	-0.445762	-1.184281	-0.316513
Zn6	Zn	0.054238	-0.684281	0.183487
Zn7	Zn	-0.604768	-1.165773	-0.477546
Zn8	Zn	-0.104768	-0.665773	0.022454
O9	O	-0.529384	-1.250437	-0.392918
O10	O	-0.029384	-0.750437	0.107082
O11	O	-0.487999	-1.452123	-0.434314
O12	O	0.012001	-0.952123	0.065686
O13	O	-0.576873	-1.314727	-0.190282
O14	O	-0.076873	-0.814727	0.309718
O15	O	-0.321700	-1.210855	-0.327859
O16	O	0.178300	-0.710855	0.172141
O17	O	-0.592796	-1.452048	-0.329529
O18	O	-0.092796	-0.952048	0.170471
O19	O	-0.333764	-1.314901	-0.433364
O20	O	0.166236	-0.814901	0.066636
O21	O	-0.460012	-1.210755	-0.189562
O22	O	0.039988	-0.710755	0.310438
O23	O	-0.459960	-1.055588	-0.344759
O24	O	0.040040	-0.555588	0.155241
O25	O	-0.592704	-1.179312	-0.602316
O26	O	-0.092704	-0.679312	-0.102316
O27	O	-0.576781	-1.041990	-0.463069
O28	O	-0.076781	-0.541990	0.036931
O29	O	-0.487946	-1.296955	-0.589511
O30	O	0.012054	-0.796955	-0.089511
O31	O	-0.731055	-1.296781	-0.346429
O32	O	-0.231055	-0.796781	0.153571
O33	O	-0.731015	-1.179212	-0.464019
O34	O	-0.231015	-0.679212	0.035981
C35	C	-0.516583	-1.016057	-0.405699
C36	C	-0.016583	-0.516057	0.094301
C37	C	-0.511130	-0.915785	-0.411190
C38	C	-0.011130	-0.415785	0.088810
C39	C	-0.609840	-0.727304	-0.312209
C40	C	-0.109840	-0.227304	0.187791
C41	C	-0.604719	-0.633090	-0.317365
C42	C	-0.104719	-0.133090	0.182635
C43	C	-0.495773	-0.633140	-0.426665
C44	C	0.004227	-0.133140	0.073335
C45	C	-0.500894	-0.727354	-0.421508
C46	C	-0.000894	-0.227354	0.078492
C47	C	-0.557928	-0.774433	-0.364277
C48	C	-0.057928	-0.274433	0.135723
C49	C	-0.563044	-0.868650	-0.359116
C50	C	-0.063044	-0.368650	0.140884
C51	C	-0.454103	-0.868697	-0.468420
C52	C	0.045897	-0.368697	0.031580
C53	C	-0.448982	-0.774483	-0.473576
C54	C	0.051018	-0.274483	0.026424
C55	C	-0.763770	-1.236000	-0.407240
C56	C	-0.263770	-0.736000	0.092760
C57	C	-0.864048	-1.229905	-0.413393
C58	C	-0.364048	-0.729905	0.086607
C59	C	-1.052472	-1.340988	-0.302596
C60	C	-0.552472	-0.840988	0.197404
C61	C	-1.146692	-1.335264	-0.308374
C62	C	-0.646692	-0.835264	0.191626
C63	C	-1.146710	-1.212738	-0.430731
C64	C	-0.646710	-0.712738	0.069269
C65	C	-1.052490	-1.218462	-0.424953
C66	C	-0.552490	-0.718462	0.075047
C67	C	-1.005374	-1.282588	-0.360882
C68	C	-0.505374	-0.782588	0.139118
C69	C	-0.911152	-1.288307	-0.355100
C70	C	-0.411152	-0.788307	0.144900
C71	C	-0.911172	-1.165786	-0.477461
C72	C	-0.411172	-0.665786	0.022539
C73	C	-1.005392	-1.160062	-0.483240
C74	C	-0.505392	-0.660062	0.016760
C75	C	-0.294084	-1.264954	-0.378558
C76	C	0.205916	-0.764954	0.121442
C77	C	-0.193814	-1.271140	-0.372439
C78	C	0.306186	-0.771140	0.127561
C79	C	-0.542151	-1.236080	-0.629785
C80	C	-0.042151	-0.736080	-0.129785
C81	C	-0.547591	-1.229962	-0.730724
C82	C	-0.047591	-0.729962	-0.230724
C83	C	-0.542229	-0.485734	-0.380079
C84	C	-0.042229	0.014266	0.119921
C85	C	-0.547686	-0.586005	-0.374590
C86	C	-0.047686	-0.086005	0.125410
C87	C	-0.448710	-1.340967	-0.907066
C88	C	0.051290	-0.840967	-0.407066
C89	C	-0.453819	-1.335222	-1.001907
C90	C	0.046181	-0.835222	-0.501907
C91	C	-0.562913	-1.212723	-1.015248
C92	C	-0.062913	-0.712723	-0.515248
C93	C	-0.557804	-1.218468	-0.920407
C94	C	-0.057804	-0.718468	-0.420407
C95	C	-0.500701	-1.282593	-0.866319
C96	C	-0.000701	-0.782593	-0.366319
C97	C	-0.495598	-1.288342	-0.771477
C98	C	0.004402	-0.788342	-0.271477
C99	C	-0.604686	-1.165840	-0.784820
C100	C	-0.104686	-0.665840	-0.284820
C101	C	-0.609795	-1.160094	-0.879661
C102	C	-0.109795	-0.660094	-0.379661
C103	C	-0.516604	-1.264794	-0.156964
C104	C	-0.016604	-0.764794	0.343036
C105	C	-0.510919	-1.271102	-0.056001
C106	C	-0.010919	-0.771102	0.443999
H107	H	-0.646993	-0.594721	-0.274967
H108	H	-0.146993	-0.094721	0.225033
H109	H	-0.449346	-0.594791	-0.473267
H110	H	0.050654	-0.094791	0.026733
H111	H	-0.411828	-0.907080	-0.510813
H112	H	0.088172	-0.407080	-0.010813
N113	N	-0.387472	-0.723703	-0.535304
N114	N	0.112528	-0.223703	-0.035304
H115	H	-0.392104	-0.656867	-0.530672
H116	H	0.107896	-0.156867	-0.030672
H117	H	-0.323160	-0.744979	-0.516428
H118	H	0.176840	-0.244979	-0.016428
N119	N	-1.056214	-1.090894	-0.552332
N120	N	-0.556214	-0.590894	-0.052332
H121	H	-1.012077	-1.054765	-0.588378
H122	H	-0.512077	-0.554765	-0.088378
H123	H	-1.099527	-1.122653	-0.594789
H124	H	-0.599527	-0.622653	-0.094789
H125	H	-1.014109	-1.393196	-0.250420
H126	H	-0.514109	-0.893196	0.249580
N127	N	-1.197496	-1.398240	-0.245502
N128	N	-0.697496	-0.898240	0.254498
H129	H	-1.240810	-1.435402	-0.282558
H130	H	-0.740810	-0.935402	0.217442
H131	H	-1.153293	-1.439672	-0.204048
H132	H	-0.653293	-0.939672	0.295952
N133	N	-0.860331	-1.357467	-0.285998
N134	N	-0.360331	-0.857467	0.214002
H135	H	-0.904468	-1.393596	-0.249954
H136	H	-0.404468	-0.893596	0.250046
H137	H	-0.825458	-1.399315	-0.318329
H138	H	-0.325458	-0.899315	0.181671
N139	N	-0.387142	-1.410136	-0.848716
N140	N	0.112858	-0.910136	-0.348716
H141	H	-0.322805	-1.399115	-0.862036
H142	H	0.177195	-0.899115	-0.362036
H143	H	-0.391882	-1.404877	-0.782478
H144	H	0.108118	-0.904877	-0.282478
H145	H	-1.185088	-1.160535	-0.482900
H146	H	-0.685088	-0.660535	0.017100
H147	H	-0.411479	-1.382753	-1.035078
H148	H	0.088521	-0.882753	-0.535078
N149	N	-0.671388	-1.090932	-0.937989
N150	N	-0.171388	-0.590932	-0.437989
H151	H	-0.652970	-1.028343	-0.924138
H152	H	-0.152970	-0.528343	-0.424138
H153	H	-0.666718	-1.096218	-1.004235
H154	H	-0.166718	-0.596218	-0.504235
N155	N	-0.624559	-0.919434	-0.297397
N156	N	-0.124559	-0.419434	0.202603
H157	H	-0.587695	-0.963318	-0.250986
H158	H	-0.087695	-0.463318	0.249014
H159	H	-0.656659	-0.875220	-0.265260
H160	H	-0.156659	-0.375220	0.234740
N161	N	-0.624458	-1.143530	-1.073592
N162	N	-0.124458	-0.643530	-0.573592
H163	H	-0.619789	-1.148739	-1.139856
H164	H	-0.119789	-0.648739	-0.639856
H165	H	-0.688772	-1.154569	-1.060209
H166	H	-0.188772	-0.654569	-0.560209
N167	N	-0.860374	-1.102787	-0.540328
N168	N	-0.360374	-0.602787	-0.040328
H169	H	-0.793536	-1.116139	-0.526946
H170	H	-0.293536	-0.616139	-0.026946
H171	H	-0.881064	-1.111838	-0.605445
H172	H	-0.381064	-0.611838	-0.105445
N173	N	-0.434020	-1.357507	-0.713134
N174	N	0.065980	-0.857507	-0.213134
H175	H	-0.369686	-1.346472	-0.726461
H176	H	0.130314	-0.846472	-0.226461
H177	H	-0.438754	-1.352255	-0.646894
H178	H	0.061246	-0.852255	-0.146894
N179	N	-0.660772	-1.102862	-0.740891
N180	N	-0.160772	-0.602862	-0.240891
H181	H	-0.702465	-1.139323	-0.702095
H182	H	-0.202465	-0.639323	-0.202095
H183	H	-0.619655	-1.065707	-0.701633
H184	H	-0.119655	-0.565707	-0.201633
N185	N	-0.671340	-0.778091	-0.250475
N186	N	-0.171340	-0.278091	0.249525
H187	H	-0.703447	-0.733938	-0.218268
H188	H	-0.203447	-0.233938	0.281732
H189	H	-0.717261	-0.812384	-0.287785
H190	H	-0.217261	-0.312384	0.212215
