data_functionalizedCrystal
_audit_creation_method	'MofGen! by Chris Wilmer'
_symmetry_space_group_name_H-M	'P1'
_symmetry_Int_Tables_number	1
_symmetry_cell_setting	triclinic
loop_
_symmetry_equiv_pos_as_xyz
  x,y,z
_cell_length_a	19.805407
_cell_length_b	17.640280
_cell_length_c	19.805399
_cell_angle_alpha	78.776890
_cell_angle_beta	89.982197
_cell_angle_gamma	78.797832
loop_
_atom_site_label
_atom_site_type_symbol
_atom_site_fract_x
_atom_site_fract_y
_atom_site_fract_z
Zn1	Zn	1.089291	-0.314739	-0.328273
Zn2	Zn	1.589291	0.185261	0.171727
Zn3	Zn	1.112116	-0.446914	-0.192234
Zn4	Zn	1.612116	0.053086	0.307766
Zn5	Zn	0.976108	-0.314755	-0.215099
Zn6	Zn	1.476108	0.185245	0.284901
Zn7	Zn	0.998971	-0.446866	-0.305392
Zn8	Zn	1.498971	0.053134	0.194608
O9	O	1.044122	-0.380819	-0.260250
O10	O	1.544122	0.119181	0.239750
O11	O	1.187038	-0.332286	-0.310234
O12	O	1.687038	0.167714	0.189766
O13	O	1.094059	-0.429410	-0.100546
O14	O	1.594059	0.070590	0.399454
O15	O	0.972001	-0.204148	-0.249256
O16	O	1.472001	0.295852	0.250744
O17	O	1.203807	-0.429395	-0.210286
O18	O	1.703807	0.070605	0.289714
O19	O	1.055156	-0.204136	-0.332405
O20	O	1.555156	0.295864	0.167595
O21	O	0.994134	-0.332313	-0.117344
O22	O	1.494134	0.167687	0.382656
O23	O	0.884422	-0.332266	-0.227070
O24	O	1.384422	0.167734	0.272930
O25	O	1.010968	-0.429312	-0.403149
O26	O	1.510968	0.070688	0.096851
O27	O	0.901219	-0.429328	-0.293408
O28	O	1.401219	0.070672	0.206592
O29	O	1.077325	-0.332239	-0.419959
O30	O	1.577325	0.167761	0.080041
O31	O	1.116228	-0.557513	-0.188100
O32	O	1.616228	-0.057513	0.311900
O33	O	1.033101	-0.557477	-0.271237
O34	O	1.533101	-0.057477	0.228763
C35	C	0.868261	-0.380794	-0.260237
C36	C	1.368261	0.119206	0.239763
C37	C	0.793031	-0.380802	-0.260245
C38	C	1.293031	0.119198	0.239755
C39	C	1.079641	-0.586174	-0.224719
C40	C	1.579641	-0.086174	0.275281
C41	C	1.094898	-0.674025	-0.209541
C42	C	1.594898	-0.174025	0.290459
C43	C	0.748971	-0.330327	-0.312338
C44	C	1.248971	0.169673	0.187662
C45	C	0.678283	-0.330331	-0.312340
C46	C	1.178283	0.169669	0.187660
C47	C	0.651657	-0.380815	-0.260251
C48	C	1.151657	0.119185	0.239749
C49	C	0.695723	-0.431292	-0.208153
C50	C	1.195723	0.068708	0.291847
C51	C	0.766408	-0.431284	-0.208149
C52	C	1.266408	0.068716	0.291851
C53	C	0.410656	-0.431328	-0.208167
C54	C	0.910656	0.068672	0.291833
C55	C	0.339965	-0.431334	-0.208176
C56	C	0.839965	0.068666	0.291824
C57	C	0.322530	-0.330376	-0.312359
C58	C	0.822530	0.169624	0.187641
C59	C	0.393216	-0.330367	-0.312355
C60	C	0.893216	0.169633	0.187645
C61	C	0.437274	-0.380841	-0.260255
C62	C	0.937274	0.119159	0.239745
C63	C	0.513922	-0.380835	-0.260252
C64	C	1.013922	0.119165	0.239748
C65	C	0.575012	-0.380826	-0.260255
C66	C	1.075012	0.119174	0.239745
C67	C	0.928493	-0.963004	-0.375798
C68	C	1.428493	-0.463004	0.124202
C69	C	0.942831	-1.045554	-0.361515
C70	C	1.442831	-0.545554	0.138485
C71	C	1.029445	-1.045525	-0.275031
C72	C	1.529445	-0.545525	0.224969
C73	C	1.015116	-0.962974	-0.289310
C74	C	1.515116	-0.462974	0.210690
C75	C	0.964639	-0.921719	-0.339693
C76	C	1.464639	-0.421719	0.160307
C77	C	1.051263	-0.921689	-0.253205
C78	C	1.551263	-0.421689	0.246795
C79	C	1.036933	-0.839145	-0.267480
C80	C	1.536933	-0.339145	0.232520
C81	C	0.986457	-0.797884	-0.317859
C82	C	1.486457	-0.297884	0.182141
C83	C	0.950310	-0.839175	-0.353968
C84	C	1.450310	-0.339175	0.146032
C85	C	1.101736	-0.962945	-0.202818
C86	C	1.601736	-0.462945	0.297182
C87	C	1.137883	-0.921660	-0.166714
C88	C	1.637883	-0.421660	0.333286
C89	C	1.123557	-0.839114	-0.180992
C90	C	1.623557	-0.339114	0.319008
C91	C	1.073081	-0.797854	-0.231371
C92	C	1.573081	-0.297854	0.268629
C93	C	1.159704	-0.797824	-0.144883
C94	C	1.659704	-0.297824	0.355117
C95	C	1.145375	-0.715280	-0.159158
C96	C	1.645375	-0.215280	0.340842
C97	C	1.058751	-0.715310	-0.245646
C98	C	1.558751	-0.215310	0.254354
C99	C	1.220669	-0.380844	-0.260262
C100	C	1.720669	0.119156	0.239738
C101	C	1.295903	-0.380855	-0.260267
C102	C	1.795903	0.119145	0.239733
C103	C	1.044151	-0.380769	-0.436801
C104	C	1.544151	0.119231	0.063199
C105	C	1.044163	-0.380748	-0.512037
C106	C	1.544163	0.119252	-0.012037
C107	C	1.008482	-0.174662	-0.295934
C108	C	1.508482	0.325338	0.204066
C109	C	0.993295	-0.086810	-0.311140
C110	C	1.493295	0.413190	0.188860
C111	C	1.078716	-0.330199	-0.556136
C112	C	1.578716	0.169801	-0.056136
C113	C	1.078719	-0.330176	-0.626828
C114	C	1.578719	0.169824	-0.126828
C115	C	1.044173	-0.380706	-0.653419
C116	C	1.544173	0.119294	-0.153419
C117	C	1.009616	-0.431257	-0.609315
C118	C	1.509616	0.068743	-0.109315
C119	C	1.009609	-0.431275	-0.538625
C120	C	1.509609	0.068725	-0.038625
C121	C	1.009641	-0.431183	-0.894401
C122	C	1.509641	0.068817	-0.394401
C123	C	1.009652	-0.431163	-0.965097
C124	C	1.509652	0.068837	-0.465097
C125	C	1.078751	-0.330084	-0.982605
C126	C	1.578751	0.169916	-0.482605
C127	C	1.078745	-0.330102	-0.911914
C128	C	1.578745	0.169898	-0.411914
C129	C	1.044185	-0.380650	-0.867817
C130	C	1.544185	0.119350	-0.367817
C131	C	1.044181	-0.380673	-0.791164
C132	C	1.544181	0.119327	-0.291164
C133	C	1.044181	-0.380688	-0.730070
C134	C	1.544181	0.119312	-0.230070
C135	C	1.044121	-0.380811	-0.084395
C136	C	1.544121	0.119189	0.415605
C137	C	1.044201	-0.380610	-0.009198
C138	C	1.544201	0.119390	0.490802
H139	H	0.642412	-0.289231	-0.354761
H140	H	1.142412	0.210769	0.145239
O141	O	0.421935	-0.275910	-0.368531
O142	O	0.921935	0.224090	0.131469
H143	H	0.379419	-0.240804	-0.404751
H144	H	0.879419	0.259196	0.095249
H145	H	1.174809	-0.681665	-0.129757
H146	H	1.674809	-0.181665	0.370243
O147	O	0.458172	-0.485762	-0.151975
O148	O	0.958172	0.014238	0.348025
H149	H	0.427780	-0.520870	-0.115760
H150	H	0.927780	-0.020870	0.384240
H151	H	1.017652	-0.681719	-0.286678
H152	H	1.517652	-0.181719	0.213322
H153	H	0.974786	-0.730671	-0.329476
H154	H	1.474786	-0.230671	0.170524
H155	H	0.981512	-0.472354	-0.858503
H156	H	1.481512	0.027646	-0.358503
H157	H	1.178979	-0.955261	-0.125690
H158	H	1.678979	-0.455261	0.374310
H159	H	0.286648	-0.289275	-0.354779
H160	H	0.786648	0.210725	0.145221
O161	O	1.116009	-0.275603	-0.883237
O162	O	1.616009	0.224397	-0.383237
H163	H	1.110205	-0.284114	-0.826672
H164	H	1.610205	0.215886	-0.326672
H165	H	0.909211	-0.805584	-0.395000
H166	H	1.409211	-0.305584	0.105000
H167	H	0.887394	-0.929413	-0.416830
H168	H	1.387394	-0.429413	0.083170
O169	O	0.903846	-1.090086	-0.400463
O170	O	1.403846	-0.590086	0.099537
H171	H	0.866344	-1.047529	-0.437897
H172	H	1.366344	-0.547529	0.062103
O173	O	0.667006	-0.485738	-0.151966
O174	O	1.167006	0.014262	0.348034
H175	H	0.691320	-0.547787	-0.152744
H176	H	1.191320	-0.047787	0.347256
H177	H	0.318289	-0.472446	-0.165756
H178	H	0.818289	0.027554	0.334244
O179	O	1.083890	-1.090014	-0.220692
O180	O	1.583890	-0.590014	0.279308
H181	H	1.134239	-1.074108	-0.235106
H182	H	1.634239	-0.574108	0.264894
O183	O	1.117191	-1.051976	-0.187413
O184	O	1.617191	-0.551976	0.312587
H185	H	1.172007	-1.073693	-0.197371
H186	H	1.672007	-0.573693	0.302629
H187	H	1.200798	-0.831426	-0.103857
H188	H	1.700798	-0.331426	0.396143
H189	H	0.802282	-0.472385	-0.165729
H190	H	1.302282	0.027615	0.334271
O191	O	1.115977	-0.275698	-0.527455
O192	O	1.615977	0.224302	-0.027455
H193	H	1.139999	-0.240540	-0.570000
H194	H	1.639999	0.259460	-0.070000
O195	O	1.115991	-0.275661	-0.674394
O196	O	1.615991	0.224339	-0.174394
H197	H	1.140021	-0.240536	-0.644025
H198	H	1.640021	0.259464	-0.144025
O199	O	1.116014	-0.275556	-1.030180
O200	O	1.616014	0.224444	-0.530180
H201	H	1.171482	-0.289127	-1.014284
H202	H	1.671482	0.210873	-0.514284
H203	H	0.981518	-0.472312	-0.986744
H204	H	1.481518	0.027688	-0.486744
O205	O	0.972349	-0.485755	-0.637991
O206	O	1.472349	0.014245	-0.137991
H207	H	0.978162	-0.477255	-0.694555
H208	H	1.478162	0.022745	-0.194555
O209	O	0.972329	-0.485787	-0.491062
O210	O	1.472329	0.014213	0.008938
H211	H	0.994657	-0.547822	-0.493884
H212	H	1.494657	-0.047822	0.006116
O213	O	0.777687	-0.275872	-0.368517
O214	O	1.277687	0.224128	0.131483
H215	H	0.735170	-0.240767	-0.404736
H216	H	1.235170	0.259233	0.095264
