data_functionalizedCrystal
_audit_creation_method	'MofGen! by Chris Wilmer'
_symmetry_space_group_name_H-M	'P1'
_symmetry_Int_Tables_number	1
_symmetry_cell_setting	triclinic
loop_
_symmetry_equiv_pos_as_xyz
  x,y,z
_cell_length_a	11.792241
_cell_length_b	10.268362
_cell_length_c	11.792241
_cell_angle_alpha	89.994572
_cell_angle_beta	84.193416
_cell_angle_gamma	89.999626
loop_
_atom_site_label
_atom_site_type_symbol
_atom_site_fract_x
_atom_site_fract_y
_atom_site_fract_z
O1	O	-1.506909	0.108174	-0.155569
O2	O	-1.006909	0.608174	0.344431
O3	O	-1.176568	0.108205	-0.171602
O4	O	-0.676568	0.608205	0.328398
O5	O	-1.349755	0.108180	0.001585
O6	O	-0.849755	0.608180	0.501585
O7	O	-1.333722	0.108199	-0.328756
O8	O	-0.833722	0.608199	0.171244
O9	O	-1.349740	-0.108421	0.001593
O10	O	-0.849740	0.391579	0.501593
O11	O	-1.176553	-0.108396	-0.171594
O12	O	-0.676553	0.391604	0.328406
O13	O	-1.506894	-0.108426	-0.155561
O14	O	-1.006894	0.391574	0.344439
Cu15	Cu	-1.341722	-0.128188	-0.163577
Cu16	Cu	-0.841722	0.371812	0.336423
Cu17	Cu	-1.341740	0.127967	-0.163586
Cu18	Cu	-0.841740	0.627967	0.336414
O19	O	-1.333707	-0.108401	-0.328748
O20	O	-0.833707	0.391599	0.171252
C21	C	-1.134269	-0.000092	-0.170591
C22	C	-0.634269	0.499908	0.329409
C23	C	-1.008255	-0.000080	-0.167576
C24	C	-0.508255	0.499920	0.332424
N25	N	-1.341717	-0.308354	-0.163571
N26	N	-0.841717	0.191646	0.336429
C27	C	-1.348740	-0.000120	0.043880
C28	C	-0.848740	0.499880	0.543880
C29	C	-1.345726	-0.000119	0.169894
C30	C	-0.845726	0.499881	0.669894
C31	C	-1.549192	-0.000127	-0.156572
C32	C	-1.049192	0.499873	0.343428
C33	C	-1.675206	-0.000130	-0.159587
C34	C	-1.175206	0.499870	0.340413
C35	C	-0.777543	-0.000118	-0.162034
C36	C	-0.277543	0.499882	0.337966
C37	C	-0.905928	-0.000097	-0.165113
C38	C	-0.405928	0.499903	0.334887
C39	C	-1.341734	-0.574025	-0.163583
C40	C	-0.841734	-0.074025	0.336417
C41	C	-1.341721	-0.426187	-0.163580
C42	C	-0.841721	0.073813	0.336420
N43	N	-1.341753	0.308133	-0.163584
N44	N	-0.841753	0.808133	0.336416
C45	C	-1.334721	-0.000099	-0.371043
C46	C	-0.834721	0.499901	0.128957
C47	C	-1.337736	-0.000092	-0.497057
C48	C	-0.837736	0.499908	0.002943
C49	C	-1.340183	-0.000096	0.400606
C50	C	-0.840183	0.499904	0.900606
C51	C	-1.343262	-0.000108	0.272221
C52	C	-0.843262	0.499892	0.772221
