data_functionalizedCrystal
_audit_creation_method	'MofGen! by Chris Wilmer'
_symmetry_space_group_name_H-M	'P1'
_symmetry_Int_Tables_number	1
_symmetry_cell_setting	triclinic
loop_
_symmetry_equiv_pos_as_xyz
  x,y,z
_cell_length_a	29.019771
_cell_length_b	29.019011
_cell_length_c	29.015668
_cell_angle_alpha	60.004890
_cell_angle_beta	60.009825
_cell_angle_gamma	59.993818
loop_
_atom_site_label
_atom_site_type_symbol
_atom_site_fract_x
_atom_site_fract_y
_atom_site_fract_z
O1	O	0.063866	-0.673289	0.563007
O2	O	0.024059	-0.524205	0.453633
O3	O	0.118464	-0.618532	0.453552
O4	O	-0.030540	-0.578962	0.563088
O5	O	0.149785	-0.587215	0.484789
O6	O	0.055379	-0.492888	0.484869
O7	O	0.095186	-0.641972	0.594244
Cu8	Cu	0.078143	-0.564571	0.542409
Cu9	Cu	0.041102	-0.601606	0.505468
O10	O	0.000781	-0.547645	0.594325
N11	N	0.104196	-0.538525	0.568394
N12	N	0.015054	-0.627656	0.479483
C13	C	0.143783	-0.499167	0.850823
C14	C	0.386758	-0.499111	0.607645
C15	C	0.143618	-0.499136	0.607763
C16	C	0.143598	-0.256029	0.607770
C17	C	0.182748	-0.373362	0.646852
C18	C	0.182758	-0.460025	0.646847
C19	C	0.204440	-0.438361	0.668500
C20	C	0.298958	-0.422064	0.618723
C21	C	0.358043	-0.441753	0.599006
C22	C	0.358069	-0.537354	0.635461
C23	C	0.298985	-0.517664	0.655180
C24	C	0.196983	-0.343808	0.588767
C25	C	0.177262	-0.284720	0.569090
C26	C	0.129075	-0.284743	0.665586
C27	C	0.148797	-0.343831	0.685263
C28	C	0.124666	-0.445760	0.661149
C29	C	0.104961	-0.465454	0.641458
C30	C	0.201435	-0.513678	0.593176
C31	C	0.221143	-0.493984	0.612860
C32	C	0.124738	-0.445777	0.763064
C33	C	0.105085	-0.465488	0.822151
C34	C	0.201594	-0.513722	0.822097
C35	C	0.221247	-0.494012	0.763009
C36	C	0.182817	-0.460038	0.733494
C37	C	0.269432	-0.460018	0.646809
C38	C	0.121399	-0.520450	0.915812
C39	C	0.451745	-0.520012	0.585655
C40	C	0.121177	-0.520429	0.586502
C41	C	0.121544	-0.191035	0.586883
C42	C	-0.110592	-0.666601	0.440035
C43	C	-0.023978	-0.666709	0.440231
C44	C	-0.045598	-0.688342	0.418486
C45	C	-0.061967	-0.782825	0.468184
C46	C	-0.042323	-0.841914	0.487907
C47	C	0.053280	-0.842025	0.451623
C48	C	0.033634	-0.782937	0.431899
C49	C	-0.140218	-0.680832	0.498102
C50	C	-0.199302	-0.661065	0.517690
C51	C	-0.199129	-0.612843	0.421140
C52	C	-0.140045	-0.632610	0.401552
C53	C	-0.038209	-0.608622	0.425941
C54	C	-0.018555	-0.588961	0.445716
C55	C	0.029562	-0.685470	0.494059
C56	C	0.009908	-0.705133	0.474291
C57	C	-0.038037	-0.608631	0.323917
C58	C	-0.018247	-0.588973	0.264830
C59	C	0.029955	-0.685489	0.264893
C60	C	0.010165	-0.705145	0.323981
C61	C	-0.023833	-0.666715	0.353492
C62	C	-0.023990	-0.753339	0.440182
N63	N	0.504925	-0.538487	0.568205
O64	O	0.685342	-0.543679	0.433426
O65	O	0.685533	-0.653395	0.582361
O66	O	0.685457	-0.653145	0.487904
O67	O	0.685418	-0.543929	0.527882
O68	O	0.591592	-0.621921	0.519268
O69	O	0.591667	-0.622171	0.613725
O70	O	0.591477	-0.512455	0.464790
Cu71	Cu	0.583001	-0.564462	0.542121
Cu72	Cu	0.694008	-0.601388	0.505029
O73	O	0.591553	-0.512705	0.559246
N74	N	0.772084	-0.627363	0.478939
N75	N	0.104168	-0.137853	0.568408
O76	O	-0.030538	0.042663	0.563097
O77	O	0.118403	0.042683	0.453379
O78	O	0.023918	0.042657	0.453664
O79	O	0.063947	0.042689	0.562813
O80	O	0.055242	-0.051215	0.484950
O81	O	0.149727	-0.051189	0.484666
O82	O	0.000787	-0.051210	0.594384
Cu83	Cu	0.078117	-0.059771	0.542381
Cu84	Cu	0.041072	0.051244	0.505382
O85	O	0.095272	-0.051184	0.594099
N86	N	0.015015	0.129326	0.479356
N87	N	0.104469	-0.538576	0.968995
O88	O	0.099171	-0.673268	1.149499
O89	O	-0.010519	-0.524279	1.149527
O90	O	-0.010265	-0.618748	1.149494
O91	O	0.098916	-0.578799	1.149533
O92	O	0.021008	-0.587443	1.055625
O93	O	0.020753	-0.492974	1.055659
O94	O	0.130444	-0.641963	1.055630
Cu95	Cu	0.078454	-0.564610	1.047074
Cu96	Cu	0.041470	-0.601632	1.158084
O97	O	0.130189	-0.547494	1.055664
N98	N	0.015455	-0.627672	1.236163
C99	C	0.035988	-0.489761	0.454182
C100	C	0.152897	-0.606574	0.454082
C101	C	0.083257	-0.676417	0.593694
C102	C	-0.033653	-0.559604	0.593794
C103	C	0.638623	-0.652892	0.616806
C104	C	0.638531	-0.652583	0.499833
C105	C	0.638384	-0.512957	0.430345
C106	C	0.638480	-0.513267	0.547317
C107	C	0.152789	-0.004135	0.453875
C108	C	0.035820	-0.004282	0.454266
C109	C	-0.033639	-0.004275	0.593849
C110	C	0.083370	-0.004245	0.593498
C111	C	-0.009989	-0.489856	1.102597
C112	C	-0.009667	-0.606839	1.102536
C113	C	0.129914	-0.676386	1.102561
C114	C	0.129599	-0.559396	1.102601
H115	H	0.057789	-0.453866	0.846219
H116	H	0.164353	-0.719173	1.102545
O117	O	0.025617	-0.004404	0.413406
C118	C	0.012336	-0.053028	0.432873
H119	H	0.030565	-0.086991	0.467921
H120	H	-0.035459	-0.042047	0.449902
C121	C	0.015379	-0.033382	0.340745
C122	C	0.037772	-0.075098	0.383788
H123	H	0.031066	-0.046995	0.310467
H124	H	0.024324	-0.000622	0.327630
H125	H	-0.024450	-0.024234	0.354943
H126	H	0.077598	-0.084239	0.369592
H127	H	0.028834	-0.107860	0.396900
O128	O	-0.050552	-0.617105	1.102550
C129	C	-0.063541	-0.662804	1.151146
H130	H	-0.026251	-0.689840	1.167385
H131	H	-0.102330	-0.646069	1.185182
C132	C	-0.121502	-0.665599	1.116369
C133	C	-0.075700	-0.698809	1.136312
H134	H	-0.129006	-0.687808	1.107221
H135	H	-0.112754	-0.634810	1.083630
H136	H	-0.153822	-0.651656	1.144736
H137	H	-0.043380	-0.712746	1.107943
H138	H	-0.084444	-0.729602	1.169047
O139	O	0.170468	-0.549101	1.102581
C140	C	0.149905	-0.493623	1.102609
H141	H	0.113669	-0.466914	1.084841
H142	H	0.134171	-0.494457	1.147647
C143	C	0.242152	-0.500779	1.087627
C144	C	0.197649	-0.467973	1.065799
H145	H	0.271602	-0.484957	1.064923
H146	H	0.256005	-0.538156	1.087610
H147	H	0.229033	-0.501471	1.125158
H148	H	0.210767	-0.467287	1.028272
H149	H	0.183799	-0.430594	1.065809
H150	H	0.091941	-0.004235	0.627787
O151	O	0.203991	-0.616716	0.413114
C152	C	0.239060	-0.672181	0.433509
H153	H	0.223745	-0.687128	0.481584
H154	H	0.237508	-0.701369	0.419212
C155	C	0.318963	-0.654791	0.351114
C156	C	0.300156	-0.673147	0.410161
H157	H	0.356650	-0.655388	0.336710
H158	H	0.295336	-0.617424	0.337372
H159	H	0.317665	-0.679117	0.339207
H160	H	0.301447	-0.648817	0.422067
H161	H	0.323784	-0.710510	0.423905
O162	O	0.087329	-0.412800	0.734481
C163	C	0.031851	-0.404425	0.773250
H164	H	0.031988	-0.440053	0.815361
H165	H	0.014923	-0.362335	0.779543
C166	C	-0.006236	-0.360245	0.698495
C167	C	-0.006068	-0.404007	0.750214
H168	H	-0.029628	-0.359985	0.684285
H169	H	0.031140	-0.365886	0.672375
H170	H	-0.020341	-0.325174	0.703746
H171	H	0.008044	-0.439077	0.744962
H172	H	-0.043443	-0.398373	0.776333
O173	O	0.638391	-0.472265	0.557475
C174	C	0.589734	-0.424697	0.551262
H175	H	0.573498	-0.425151	0.522972
H176	H	0.555728	-0.425854	0.594440
C177	C	0.624391	-0.370004	0.559108
C178	C	0.604453	-0.370558	0.524359
H179	H	0.633469	-0.336608	0.542515
H180	H	0.657172	-0.402051	0.563296
H181	H	0.596050	-0.370970	0.595088
H182	H	0.632797	-0.369599	0.488382
H183	H	0.571678	-0.338509	0.520164
H184	H	-0.076451	-0.551170	0.628189
H185	H	0.638671	-0.687334	0.659583
O186	O	0.239002	-0.546728	0.850676
C187	C	0.294478	-0.555071	0.811904
H188	H	0.294342	-0.548466	0.769794
H189	H	0.311396	-0.523614	0.805611
C190	C	0.332576	-0.623714	0.886653
C191	C	0.332409	-0.615606	0.834935
H192	H	0.355974	-0.661053	0.900861
H193	H	0.295201	-0.618092	0.912776
H194	H	0.346673	-0.597495	0.881403
H195	H	0.318305	-0.641819	0.840188
H196	H	0.369782	-0.621234	0.808814
O197	O	-0.117931	-0.754094	0.476138
C198	C	-0.135914	-0.768522	0.449535
H199	H	-0.098142	-0.784818	0.414677
H200	H	-0.155749	-0.802775	0.481893
C201	C	-0.226181	-0.695986	0.466664
C202	C	-0.179789	-0.715996	0.423847
H203	H	-0.253247	-0.663587	0.450821
H204	H	-0.214067	-0.686266	0.484589
H205	H	-0.242703	-0.724535	0.493625
H206	H	-0.163263	-0.687450	0.396891
H207	H	-0.191901	-0.725710	0.405917
H208	H	0.638547	-0.686893	0.491276
O209	O	0.093481	-0.727546	0.634607
C210	C	0.148953	-0.762550	0.614132
H211	H	0.163839	-0.747168	0.566057
H212	H	0.178154	-0.760994	0.628411
C213	C	0.131709	-0.842556	0.696467
C214	C	0.149991	-0.823667	0.637421
H215	H	0.132351	-0.880256	0.710834
H216	H	0.094337	-0.818973	0.710262
H217	H	0.156046	-0.841255	0.708358
H218	H	0.125650	-0.824962	0.625531
H219	H	0.187359	-0.847251	0.623624
H220	H	-0.076413	-0.004282	0.628294
O221	O	0.025745	-0.438649	0.413251
C222	C	-0.029717	-0.403636	0.433735
H223	H	-0.056461	-0.430873	0.469983
H224	H	-0.028865	-0.375146	0.449431
C225	C	-0.022477	-0.333631	0.341423
C226	C	-0.055325	-0.367084	0.385941
H227	H	-0.038273	-0.311082	0.311941
H228	H	0.014890	-0.357219	0.327623
H229	H	-0.021770	-0.309895	0.354510
H230	H	-0.056026	-0.390825	0.372855
H231	H	-0.092693	-0.343499	0.399738
H232	H	0.268542	-0.505632	0.738936
O233	O	-0.051022	-0.438787	1.102631
C234	C	-0.030702	-0.403661	1.102633
H235	H	0.005532	-0.430805	1.120405
H236	H	-0.015038	-0.375156	1.057604
C237	C	-0.123115	-0.333796	1.117625
C238	C	-0.078615	-0.367134	1.139458
H239	H	-0.152670	-0.311261	1.140338
H240	H	-0.136805	-0.357459	1.117622
H241	H	-0.110054	-0.310046	1.080101
H242	H	-0.091675	-0.390888	1.176978
H243	H	-0.064929	-0.343473	1.139468
O244	O	0.638237	-0.471878	0.379323
C245	C	0.589594	-0.458792	0.369242
H246	H	0.573434	-0.496122	0.395575
H247	H	0.555536	-0.420109	0.381425
C248	C	0.624147	-0.400474	0.273856
C249	C	0.604301	-0.446326	0.306196
H250	H	0.633217	-0.392782	0.234966
H251	H	0.656917	-0.409288	0.280648
H252	H	0.595761	-0.368244	0.284016
H253	H	0.632689	-0.478556	0.296041
H254	H	0.571535	-0.437516	0.299401
O255	O	0.048544	-0.451702	0.655371
C256	C	0.034294	-0.501356	0.685121
H257	H	0.073237	-0.538475	0.674441
H258	H	0.018103	-0.509670	0.732412
C259	C	-0.059840	-0.448635	0.681281
C260	C	-0.012010	-0.494224	0.668159
H261	H	-0.088404	-0.444235	0.670820
H262	H	-0.050240	-0.415181	0.661239
H263	H	-0.073325	-0.455569	0.720690
H264	H	0.001479	-0.487286	0.628750
H265	H	-0.021608	-0.527676	0.688194
O266	O	0.238753	-0.546579	0.560082
C267	C	0.272889	-0.516728	0.510535
H268	H	0.250050	-0.469457	0.502340
H269	H	0.314406	-0.529298	0.515891
C270	C	0.312997	-0.589051	0.470315
C271	C	0.284944	-0.530992	0.460246
H272	H	0.320435	-0.597851	0.439294
H273	H	0.290000	-0.609164	0.503696
H274	H	0.347591	-0.599519	0.474779
H275	H	0.250347	-0.520526	0.455790
H276	H	0.307934	-0.510878	0.426863
O277	O	0.270390	-0.554607	0.682428
C278	C	0.309146	-0.609710	0.685596
H279	H	0.351249	-0.607457	0.650685
H280	H	0.315461	-0.632268	0.728407
C281	C	0.234367	-0.645239	0.721260
C282	C	0.286077	-0.642472	0.678379
H283	H	0.220136	-0.665450	0.716811
H284	H	0.208255	-0.608116	0.719128
H285	H	0.239636	-0.664036	0.756932
H286	H	0.280805	-0.623669	0.642709
H287	H	0.312187	-0.679593	0.680505
O288	O	-0.111518	-0.713872	0.535405
C289	C	-0.053016	-0.728256	0.505665
H290	H	-0.044874	-0.724746	0.461495
H291	H	-0.036246	-0.698248	0.502408
C292	C	-0.032761	-0.793558	0.591493
C293	C	-0.022762	-0.789251	0.537245
H294	H	-0.014098	-0.831181	0.610974
H295	H	-0.072175	-0.783865	0.611530
H296	H	-0.018786	-0.768547	0.588772
H297	H	-0.036743	-0.814256	0.539967
H298	H	0.016651	-0.798949	0.517209
H299	H	0.093408	-0.418110	0.688821
H300	H	0.268446	-0.505593	0.601208
H301	H	0.195476	-0.003868	0.419344
H302	H	0.382132	-0.584293	0.642268
H303	H	0.382082	-0.410845	0.576135
H304	H	0.224626	-0.367851	0.557490
O305	O	0.270315	-0.366045	0.610493
C306	C	0.284706	-0.335557	0.552155
H307	H	0.327599	-0.361372	0.528876
H308	H	0.251435	-0.326743	0.536068
C309	C	0.234749	-0.247581	0.570197
C310	C	0.287433	-0.279285	0.541606
H311	H	0.236428	-0.212869	0.563689
H312	H	0.225051	-0.268121	0.609500
H313	H	0.207028	-0.240242	0.556788
H314	H	0.315151	-0.286630	0.555019
H315	H	0.297135	-0.258745	0.502304
O316	O	0.190990	-0.255981	0.512669
C317	C	0.141324	-0.221795	0.498420
H318	H	0.105847	-0.239613	0.531741
H319	H	0.128882	-0.177016	0.496468
C320	C	0.195377	-0.198987	0.399556
C321	C	0.151805	-0.220874	0.440479
H322	H	0.201842	-0.198416	0.363814
H323	H	0.228838	-0.222017	0.409155
H324	H	0.185003	-0.161673	0.397936
H325	H	0.162182	-0.258189	0.442103
H326	H	0.118345	-0.197850	0.430878
O327	O	0.096085	-0.256140	0.702972
C328	C	0.087772	-0.294896	0.758462
H329	H	0.094378	-0.337017	0.758357
H330	H	0.119242	-0.301174	0.775363
C331	C	0.019142	-0.220118	0.796515
C332	C	0.027251	-0.271850	0.796387
H333	H	-0.018189	-0.205902	0.819910
H334	H	0.024744	-0.194006	0.759131
H335	H	0.045371	-0.225357	0.810598
H336	H	0.001028	-0.266610	0.782297
H337	H	0.021644	-0.297960	0.833770
O338	O	0.062905	-0.722876	0.236294
C339	C	0.033045	-0.756973	0.250655
H340	H	-0.001403	-0.757502	0.293515
H341	H	0.013062	-0.739186	0.217333
C342	C	0.116266	-0.816885	0.200817
C343	C	0.073959	-0.817538	0.253460
H344	H	0.141503	-0.854244	0.202545
H345	H	0.136383	-0.793912	0.191140
H346	H	0.099606	-0.802060	0.173054
H347	H	0.090619	-0.832357	0.281220
H348	H	0.053846	-0.840515	0.263142
O349	O	-0.071028	-0.571221	0.352496
C350	C	-0.079331	-0.515738	0.313722
H351	H	-0.043664	-0.515893	0.271642
H352	H	-0.121392	-0.498758	0.307354
C353	C	-0.123571	-0.477669	0.388496
C354	C	-0.079761	-0.477859	0.336814
H355	H	-0.123840	-0.454302	0.402741
H356	H	-0.117979	-0.515049	0.414619
H357	H	-0.158618	-0.463521	0.383182
H358	H	-0.044716	-0.492014	0.342130
H359	H	-0.085348	-0.440481	0.310692
H360	H	-0.029822	-0.541673	0.240758
O361	O	0.023805	-0.761578	0.488199
C362	C	0.057917	-0.791278	0.522511
H363	H	0.079401	-0.763135	0.515032
H364	H	0.030593	-0.803980	0.568766
C365	C	0.076682	-0.879145	0.516798
C366	C	0.103073	-0.844581	0.507608
H367	H	0.104534	-0.912026	0.507607
H368	H	0.053698	-0.859136	0.493683
H369	H	0.053912	-0.889724	0.555344
H370	H	0.125836	-0.833997	0.469062
H371	H	0.126061	-0.864589	0.530716
H372	H	0.021738	-0.752445	0.348058
O373	O	0.070591	-0.754355	0.404641
C374	C	0.110749	-0.768828	0.355955
H375	H	0.113517	-0.811718	0.361279
H376	H	0.097467	-0.735572	0.317636
C377	C	0.165417	-0.718946	0.340809
C378	C	0.168821	-0.771626	0.347349
H379	H	0.201239	-0.720670	0.335498
H380	H	0.138361	-0.709194	0.373608
H381	H	0.154347	-0.691238	0.308876
H382	H	0.179884	-0.799332	0.379285
H383	H	0.195880	-0.781384	0.314556
O384	O	-0.227997	-0.674964	0.574119
C385	C	-0.189331	-0.709196	0.603884
H386	H	-0.147189	-0.730716	0.575758
H387	H	-0.183072	-0.681957	0.616673
C388	C	-0.264235	-0.727881	0.691660
C389	C	-0.212477	-0.754316	0.657117
H390	H	-0.278513	-0.755713	0.724498
H391	H	-0.290286	-0.704817	0.671607
H392	H	-0.259013	-0.705184	0.702312
H393	H	-0.217701	-0.777008	0.646460
H394	H	-0.186427	-0.777385	0.677169
O395	O	-0.227657	-0.579815	0.383683
C396	C	-0.188838	-0.571516	0.328229
H397	H	-0.146741	-0.578167	0.328420
H398	H	-0.182539	-0.602968	0.311292
C399	C	-0.263512	-0.502815	0.290039
C400	C	-0.211810	-0.510978	0.290273
H401	H	-0.277682	-0.465473	0.266625
H402	H	-0.289666	-0.508407	0.327400
H403	H	-0.258256	-0.529028	0.275926
H404	H	-0.217068	-0.484770	0.304392
H405	H	-0.185657	-0.505379	0.252913
H406	H	0.137197	-0.367895	0.732563
O407	O	-0.079205	-0.870556	0.515040
C408	C	-0.064457	-0.904760	0.485111
H409	H	-0.038849	-0.887024	0.439189
H410	H	-0.038173	-0.949564	0.504803
C411	C	-0.149897	-0.927343	0.544254
C412	C	-0.118449	-0.905557	0.487850
H413	H	-0.183201	-0.927837	0.545946
H414	H	-0.159832	-0.904301	0.564419
H415	H	-0.127988	-0.964678	0.560657
H416	H	-0.140355	-0.868221	0.471450
H417	H	-0.108518	-0.928593	0.467682
H418	H	-0.030145	-0.541661	0.434082
H419	H	0.057158	-0.716762	0.521784
H420	H	-0.065797	-0.577331	0.398207
H421	H	0.100203	-0.866125	0.444882
H422	H	-0.115923	-0.621016	0.354266
