data_functionalizedCrystal
_audit_creation_method	'MofGen! by Chris Wilmer'
_symmetry_space_group_name_H-M	'P1'
_symmetry_Int_Tables_number	1
_symmetry_cell_setting	triclinic
loop_
_symmetry_equiv_pos_as_xyz
  x,y,z
_cell_length_a	15.297979
_cell_length_b	15.299816
_cell_length_c	10.686551
_cell_angle_alpha	85.426198
_cell_angle_beta	103.237287
_cell_angle_gamma	91.635460
loop_
_atom_site_label
_atom_site_type_symbol
_atom_site_fract_x
_atom_site_fract_y
_atom_site_fract_z
Zn1	Zn	1.447120	-0.049861	1.076534
Zn2	Zn	1.464924	-0.206877	0.907892
Zn3	Zn	1.290071	-0.090175	0.837225
Zn4	Zn	1.326453	-0.220824	1.088636
O5	O	1.382142	-0.141934	0.977572
O6	O	1.573158	-0.047981	1.078674
O7	O	1.433955	-0.202432	0.722725
O8	O	1.288226	0.035562	0.834331
O9	O	1.586239	-0.163340	0.954773
O10	O	1.403609	0.065180	1.010151
O11	O	1.305491	-0.116691	0.670806
O12	O	1.171221	-0.130214	0.846065
O13	O	1.350234	-0.187110	1.262824
O14	O	1.197951	-0.226201	1.030776
O15	O	1.438887	-0.061504	1.253933
O16	O	1.469233	-0.329116	0.966507
O17	O	1.367499	-0.339363	1.099298
C18	C	1.152518	-0.184097	0.932066
C19	C	1.054289	-0.202153	0.912635
C20	C	1.014929	-0.270618	0.838844
C21	C	0.922638	-0.287584	0.820593
C22	C	0.869698	-0.236082	0.876124
C23	C	0.909058	-0.167611	0.949909
C24	C	1.001358	-0.150648	0.968169
C25	C	0.856128	-0.116112	1.005450
C26	C	0.895488	-0.047641	1.079235
C27	C	0.987779	-0.030681	1.097491
C28	C	1.040719	-0.082183	1.041960
C29	C	0.763828	-0.133076	0.987189
C30	C	0.750257	-0.013106	1.116515
C31	C	0.842548	0.003860	1.134765
C32	C	1.424271	-0.365449	1.041916
C33	C	1.442377	-0.461052	1.069501
C34	C	1.253336	-0.792494	0.780960
C35	C	1.236320	-0.702671	0.755045
C36	C	1.287833	-0.642262	0.833656
C37	C	1.356364	-0.671685	0.938188
C38	C	1.373377	-0.761517	0.964112
C39	C	1.407874	-0.611285	1.016808
C40	C	1.476405	-0.640708	1.121340
C41	C	1.493415	-0.730532	1.147258
C42	C	1.441902	-0.790940	1.068647
C43	C	1.390861	-0.521452	0.990884
C44	C	1.510902	-0.490476	1.174036
C45	C	1.527918	-0.580299	1.199951
C46	C	1.612663	-0.099608	1.023256
C47	C	1.710897	-0.081571	1.042724
C48	C	1.396633	-0.121366	1.305234
C49	C	1.402808	-0.112601	1.444864
C50	C	1.339874	0.082459	0.913008
C51	C	1.321861	0.178083	0.885495
C52	C	1.367746	-0.162351	0.651176
C53	C	1.361697	-0.170843	0.511511
H54	H	0.731791	-0.188826	0.927114
O55	O	1.450580	-0.045180	1.504223
C56	C	1.540804	-0.049776	1.495085
H57	H	1.556634	-0.119927	1.479592
H58	H	1.551890	-0.004129	1.410324
C59	C	1.583558	0.064464	1.639560
C60	C	1.603003	-0.021698	1.620541
H61	H	1.621926	0.081787	1.716943
H62	H	1.522772	0.067563	1.645713
H63	H	1.592796	0.102493	1.568917
H64	H	1.593754	-0.059727	1.691175
H65	H	1.663789	-0.024803	1.614403
H66	H	0.794552	-0.249900	0.861260
O67	O	1.314069	-0.238409	1.452369
C68	C	1.277069	-0.290789	1.542357
H69	H	1.317915	-0.281310	1.643956
H70	H	1.204617	-0.270754	1.533893
C71	C	1.229178	-0.399520	1.390060
C72	C	1.279351	-0.387882	1.514845
H73	H	1.230582	-0.459411	1.373087
H74	H	1.254103	-0.364229	1.329431
H75	H	1.168806	-0.382818	1.383022
H76	H	1.339724	-0.404573	1.521876
H77	H	1.254437	-0.423178	1.575475
O78	O	0.884543	-0.354097	0.748834
C79	C	0.951059	-0.395928	0.703759
H80	H	1.010016	-0.348864	0.702366
H81	H	0.975240	-0.456632	0.770369
C82	C	0.839002	-0.481004	0.568137
C83	C	0.911411	-0.423196	0.566416
H84	H	0.814545	-0.497828	0.483420
H85	H	0.794188	-0.452824	0.598508
H86	H	0.859163	-0.531584	0.623652
H87	H	0.891247	-0.372614	0.510915
H88	H	0.956221	-0.451368	0.536032
H89	H	1.552847	-0.441290	1.238051
H90	H	1.058041	-0.312547	0.793645
H91	H	1.335063	-0.497505	0.905774
H92	H	1.180522	-0.678718	0.669937
O93	O	1.130384	-0.065694	1.059921
C94	C	1.170763	-0.074717	1.192761
H95	H	1.118037	-0.065326	1.250437
H96	H	1.200708	-0.142935	1.219033
C97	C	1.310401	-0.016642	1.153630
C98	C	1.245644	-0.005100	1.224468
H99	H	1.356594	0.026298	1.173189
H100	H	1.283199	-0.010566	1.064132
H101	H	1.335346	-0.073492	1.175530
H102	H	1.220693	0.051745	1.202555
H103	H	1.272844	-0.011165	1.313964
H104	H	1.211397	-0.841686	0.716971
O105	O	1.594367	-0.608944	1.301616
C106	C	1.557428	-0.665104	1.387687
H107	H	1.483042	-0.650385	1.373778
H108	H	1.565574	-0.736188	1.367878
C109	C	1.697919	-0.668388	1.544338
C110	C	1.606559	-0.650304	1.527262
H111	H	1.728227	-0.659263	1.630434
H112	H	1.722807	-0.630555	1.486349
H113	H	1.704695	-0.727624	1.527822
H114	H	1.599784	-0.591067	1.543761
H115	H	1.581671	-0.688128	1.585257
H116	H	1.273975	-0.569124	0.812549
H117	H	1.019824	0.025065	1.157585
H118	H	0.707154	0.028831	1.161734
O119	O	0.880857	0.070258	1.206623
C120	C	0.947110	0.036090	1.312307
H121	H	0.932407	-0.036306	1.333909
H122	H	1.015884	0.043579	1.288128
C123	C	0.964499	0.175365	1.404699
C124	C	0.946436	0.086448	1.431238
H125	H	0.964087	0.206429	1.478060
H126	H	0.919866	0.198386	1.333495
H127	H	1.021809	0.181594	1.384548
H128	H	0.889122	0.080219	1.451372
H129	H	0.991060	0.063426	1.502448
H130	H	1.549214	-0.754484	1.232380
H131	H	1.455756	-0.864083	1.089738
