data_functionalizedCrystal
_audit_creation_method	'MofGen! by Chris Wilmer'
_symmetry_space_group_name_H-M	'P1'
_symmetry_Int_Tables_number	1
_symmetry_cell_setting	triclinic
loop_
_symmetry_equiv_pos_as_xyz
  x,y,z
_cell_length_a	14.519709
_cell_length_b	9.482900
_cell_length_c	11.026607
_cell_angle_alpha	101.400185
_cell_angle_beta	96.133081
_cell_angle_gamma	80.698649
loop_
_atom_site_label
_atom_site_type_symbol
_atom_site_fract_x
_atom_site_fract_y
_atom_site_fract_z
O1	O	1.261291	-0.120696	0.140186
O2	O	1.594625	0.212637	0.473520
O3	O	1.927958	0.545970	0.806853
O4	O	0.995906	-0.120740	0.158920
O5	O	1.329239	0.212594	0.492253
O6	O	1.662573	0.545927	0.825586
O7	O	1.106603	-0.120716	-0.027148
O8	O	1.439937	0.212617	0.306186
O9	O	1.773270	0.545950	0.639519
O10	O	1.150594	-0.120720	0.326254
O11	O	1.483927	0.212614	0.659587
O12	O	1.817261	0.545947	0.992920
O13	O	1.084143	0.121071	0.010799
O14	O	1.417477	0.454405	0.344132
O15	O	1.750810	0.787738	0.677465
O16	O	0.973446	0.121048	0.196866
O17	O	1.306779	0.454381	0.530199
O18	O	1.640113	0.787715	0.863533
O19	O	1.238831	0.121091	0.178133
O20	O	1.572165	0.454425	0.511466
O21	O	1.905498	0.787758	0.844799
Cu22	Cu	1.104088	0.143147	0.190964
Cu23	Cu	1.437421	0.476480	0.524297
Cu24	Cu	1.770755	0.809813	0.857631
Cu25	Cu	1.130649	-0.142795	0.146088
Cu26	Cu	1.463983	0.190538	0.479422
Cu27	Cu	1.797316	0.523871	0.812755
O28	O	1.128134	0.121068	0.364200
O29	O	1.461467	0.454401	0.697533
O30	O	1.794801	0.787735	1.030867
C31	C	0.950173	0.000148	0.177018
C32	C	1.283506	0.333482	0.510352
C33	C	1.616840	0.666815	0.843685
C34	C	0.847362	0.000132	0.174399
C35	C	1.180695	0.333465	0.507732
C36	C	1.514029	0.666798	0.841065
N37	N	1.085413	0.344263	0.222527
N38	N	1.418746	0.677596	0.555860
N39	N	1.752079	1.010930	0.889193
N40	N	1.149330	-0.343911	0.114516
N41	N	1.482664	-0.010578	0.447849
N42	N	1.815997	0.322755	0.781183
C43	C	0.470873	0.000198	0.164774
C44	C	0.804206	0.333531	0.498108
C45	C	1.137539	0.666864	0.831441
C46	C	0.575623	0.000179	0.167447
C47	C	0.908956	0.333512	0.500780
C48	C	1.242290	0.666846	0.834114
C49	C	0.659114	0.000163	0.169586
C50	C	0.992447	0.333497	0.502919
C51	C	1.325781	0.666830	0.836253
C52	C	0.763871	0.000147	0.172260
C53	C	1.097204	0.333480	0.505593
C54	C	1.430538	0.666814	0.838926
C55	C	1.284565	0.000200	0.160033
C56	C	1.617898	0.333533	0.493367
C57	C	1.951231	0.666867	0.826700
C58	C	1.387377	0.000207	0.162652
C59	C	1.720710	0.333541	0.495985
C60	C	2.054043	0.666874	0.829318
C61	C	1.087258	0.000174	-0.053403
C62	C	1.420592	0.333508	0.279930
C63	C	1.753925	0.666841	0.613263
C64	C	1.063067	0.000165	-0.188171
C65	C	1.396400	0.333499	0.145162
C66	C	1.729733	0.666832	0.478495
C67	C	1.125134	0.416471	0.155391
C68	C	1.458467	0.749804	0.488725
C69	C	1.791800	1.083137	0.822058
C70	C	1.109604	0.583885	0.181661
C71	C	1.442937	0.917218	0.514995
C72	C	1.776270	1.250551	0.848328
C73	C	1.129865	0.000174	-0.261831
C74	C	1.463198	0.333507	0.071503
C75	C	1.796532	0.666841	0.404836
C76	C	1.104864	0.000165	-0.401121
C77	C	1.438197	0.333498	-0.067787
C78	C	1.771530	0.666831	0.265546
C79	C	1.147479	0.000174	0.390455
C80	C	1.480813	0.333507	0.723788
C81	C	1.814146	0.666841	1.057122
C82	C	1.171672	0.000174	0.525222
C83	C	1.505005	0.333507	0.858555
C84	C	1.838339	0.666840	1.191888
H85	H	1.170633	0.354352	0.078461
H86	H	1.503967	0.687686	0.411794
H87	H	1.837300	1.021019	0.745127
H88	H	1.247386	0.000077	-0.434745
H89	H	1.580719	0.333410	-0.101412
H90	H	1.914052	0.666743	0.231921
O91	O	1.209602	0.573827	0.012600
O92	O	1.542935	0.907161	0.345934
O93	O	1.876269	1.240494	0.679267
H94	H	1.269424	0.504475	0.052817
H95	H	1.602758	0.837808	0.386150
H96	H	1.936091	1.171141	0.719483
O97	O	1.049327	0.666145	0.283572
O98	O	1.382661	0.999478	0.616906
O99	O	1.715994	1.332811	0.950239
H100	H	1.046595	0.784729	0.288222
H101	H	1.379928	1.118062	0.621555
H102	H	1.713262	1.451396	0.954888
H103	H	1.039905	0.406383	0.299448
H104	H	1.373238	0.739717	0.632781
H105	H	1.706571	1.073050	0.966115
O106	O	1.230141	0.000192	-0.208789
O107	O	1.563474	0.333526	0.124544
O108	O	1.896808	0.666859	0.457878
H109	H	1.234041	0.000205	-0.107707
H110	H	1.567375	0.333539	0.225626
H111	H	1.900708	0.666872	0.558959
O112	O	1.004584	0.000143	-0.454161
O113	O	1.337917	0.333476	-0.120828
O114	O	1.671251	0.666809	0.212505
H115	H	0.960609	0.098683	-0.407602
H116	H	1.293942	0.432016	-0.074269
H117	H	1.627276	0.765350	0.259065
O118	O	0.962790	0.000158	-0.241211
O119	O	1.296123	0.333492	0.092122
O120	O	1.629456	0.666825	0.425456
H121	H	0.958887	0.000168	-0.342289
H122	H	1.292220	0.333501	-0.008956
H123	H	1.625554	0.666834	0.324377
