data_functionalizedCrystal
_audit_creation_method	'MofGen! by Chris Wilmer'
_symmetry_space_group_name_H-M	'P1'
_symmetry_Int_Tables_number	1
_symmetry_cell_setting	triclinic
loop_
_symmetry_equiv_pos_as_xyz
  x,y,z
_cell_length_a	19.805407
_cell_length_b	18.050589
_cell_length_c	19.805399
_cell_angle_alpha	90.022294
_cell_angle_beta	90.019573
_cell_angle_gamma	90.028221
loop_
_atom_site_label
_atom_site_type_symbol
_atom_site_fract_x
_atom_site_fract_y
_atom_site_fract_z
Zn1	Zn	1.034727	-0.295677	0.382745
Zn2	Zn	1.534727	0.204323	0.882745
Zn3	Zn	1.034638	-0.419869	0.269567
Zn4	Zn	1.534638	0.080131	0.769567
Zn5	Zn	0.921542	-0.295697	0.269569
Zn6	Zn	1.421542	0.204303	0.769569
Zn7	Zn	0.921502	-0.419829	0.382713
Zn8	Zn	1.421502	0.080171	0.882713
O9	O	0.978102	-0.357768	0.326148
O10	O	1.478102	0.142232	0.826148
O11	O	1.129432	-0.312159	0.367743
O12	O	1.629432	0.187841	0.867743
O13	O	1.019616	-0.403422	0.174850
O14	O	1.519616	0.096578	0.674850
O15	O	0.936610	-0.191770	0.284596
O16	O	1.436610	0.308230	0.784596
O17	O	1.129367	-0.403402	0.284592
O18	O	1.629367	0.096598	0.784592
O19	O	1.019767	-0.191755	0.367746
O20	O	1.519767	0.308245	0.867746
O21	O	0.936524	-0.312194	0.174852
O22	O	1.436524	0.187806	0.674852
O23	O	0.826820	-0.312156	0.284566
O24	O	1.326820	0.187844	0.784566
O25	O	0.936542	-0.403335	0.477434
O26	O	1.436542	0.096665	0.977434
O27	O	0.826791	-0.403355	0.367693
O28	O	1.326791	0.096645	0.867693
O29	O	1.019728	-0.312121	0.477457
O30	O	1.519728	0.187879	0.977457
O31	O	1.019577	-0.523788	0.284562
O32	O	1.519577	-0.023788	0.784562
O33	O	0.936456	-0.523759	0.367690
O34	O	1.436456	-0.023759	0.867690
C35	C	0.802246	-0.357754	0.326127
C36	C	1.302246	0.142246	0.826127
C37	C	0.727014	-0.357766	0.326133
C38	C	1.227014	0.142234	0.826133
C39	C	0.691673	-0.405325	0.369347
C40	C	1.191673	0.094675	0.869347
C41	C	0.620984	-0.405326	0.369357
C42	C	1.120984	0.094674	0.869357
C43	C	0.585639	-0.357771	0.326148
C44	C	1.085639	0.142229	0.826148
C45	C	0.620985	-0.310207	0.282933
C46	C	1.120985	0.189793	0.782933
C47	C	0.691673	-0.310203	0.282927
C48	C	1.191673	0.189797	0.782927
C49	C	0.335912	-0.310224	0.282955
C50	C	0.835912	0.189776	0.782955
C51	C	0.265220	-0.310233	0.282962
C52	C	0.765220	0.189767	0.782962
C53	C	0.265224	-0.405347	0.369385
C54	C	0.765224	0.094653	0.869385
C55	C	0.335911	-0.405342	0.369379
C56	C	0.835911	0.094658	0.869379
C57	C	0.371251	-0.357776	0.326166
C58	C	0.871251	0.142224	0.826166
C59	C	0.447900	-0.357774	0.326157
C60	C	0.947900	0.142226	0.826157
C61	C	0.508992	-0.357776	0.326153
C62	C	1.008992	0.142224	0.826153
C63	C	0.978021	-0.550720	0.326137
C64	C	1.478021	-0.050720	0.826137
C65	C	0.978048	-0.633266	0.326155
C66	C	1.478048	-0.133266	0.826155
C67	C	0.932891	-0.832728	0.371344
C68	C	1.432891	-0.332728	0.871344
C69	C	0.916392	-0.882167	0.309581
C70	C	1.416392	-0.382167	0.809581
C71	C	0.978114	-0.784396	0.326164
C72	C	1.478114	-0.284396	0.826164
C73	C	0.994646	-0.882039	0.387934
C74	C	1.494646	-0.382039	0.887934
C75	C	0.978177	-0.930381	0.326178
C76	C	1.478177	-0.430381	0.826178
C77	C	0.961583	-0.832748	0.264368
C78	C	1.461583	-0.332748	0.764368
C79	C	1.039865	-0.832616	0.342762
C80	C	1.539865	-0.332616	0.842762
C81	C	1.023390	-0.882033	0.280957
C82	C	1.523390	-0.382033	0.780957
C83	C	0.978076	-0.700298	0.326157
C84	C	1.478076	-0.200298	0.826157
C85	C	0.978215	-1.014478	0.326178
C86	C	1.478215	-0.514478	0.826178
C87	C	1.154645	-0.357783	0.326171
C88	C	1.654645	0.142217	0.826171
C89	C	1.229877	-0.357789	0.326180
C90	C	1.729877	0.142211	0.826180
C91	C	0.978140	-0.357721	0.502691
C92	C	1.478140	0.142279	1.002691
C93	C	0.978156	-0.357701	0.577923
C94	C	1.478156	0.142299	1.077923
C95	C	0.978203	-0.164062	0.326175
C96	C	1.478203	0.335938	0.826175
C97	C	0.978246	-0.081517	0.326186
C98	C	1.478246	0.418483	0.826186
C99	C	0.978103	-0.357761	0.150292
C100	C	1.478103	0.142239	0.650292
C101	C	0.978218	-0.357572	0.075061
C102	C	1.478218	0.142428	0.575061
C103	C	1.021472	-0.310204	0.613280
C104	C	1.521472	0.189796	1.113280
C105	C	1.021479	-0.310182	0.683969
C106	C	1.521479	0.189818	1.183969
C107	C	0.978173	-0.357662	0.719299
C108	C	1.478173	0.142338	1.219299
C109	C	0.934852	-0.405162	0.683937
C110	C	1.434852	0.094838	1.183937
C111	C	0.934843	-0.405180	0.613250
C112	C	1.434843	0.094820	1.113250
C113	C	0.934891	-0.405093	0.969010
C114	C	1.434891	0.094907	1.469010
C115	C	0.934905	-0.405074	1.039702
C116	C	1.434905	0.094926	1.539702
C117	C	1.021527	-0.310096	1.039729
C118	C	1.521527	0.189904	1.539729
C119	C	1.021518	-0.310113	0.969042
C120	C	1.521518	0.189887	1.469042
C121	C	0.978195	-0.357609	0.933686
C122	C	1.478195	0.142391	1.433686
C123	C	0.978187	-0.357631	0.857038
C124	C	1.478187	0.142369	1.357038
C125	C	0.978184	-0.357645	0.795946
C126	C	1.478184	0.142355	1.295946
H127	H	0.236444	-0.271504	0.247777
H128	H	0.736444	0.228496	0.747777
N129	N	1.065730	-0.261659	0.720075
N130	N	1.565730	0.238341	1.220075
N131	N	1.104396	-0.219274	0.688522
N132	N	1.604396	0.280726	1.188522
H133	H	1.135651	-0.185002	0.714021
H134	H	1.635651	0.314998	1.214021
H135	H	0.899563	-0.443850	0.584463
H136	H	1.399563	0.056150	1.084463
H137	H	0.899637	-0.443740	1.068466
H138	H	1.399637	0.056260	1.568466
N139	N	0.371995	-0.261637	0.238807
N140	N	0.871995	0.238363	0.738807
N141	N	0.340426	-0.219187	0.200229
N142	N	0.840426	0.280813	0.700229
H143	H	0.365911	-0.184872	0.169045
H144	H	0.865911	0.315128	0.669045
N145	N	0.850912	-0.909462	0.291975
N146	N	1.350912	-0.409462	0.791975
N147	N	0.801023	-0.893681	0.327834
N148	N	1.301023	-0.393681	0.827834
H149	H	0.754776	-0.912956	0.315404
H150	H	1.254776	-0.412956	0.815404
N151	N	0.727765	-0.261610	0.238787
N152	N	1.227765	0.238390	0.738787
N153	N	0.696201	-0.219151	0.200214
N154	N	1.196201	0.280849	0.700214
H155	H	0.721690	-0.184827	0.169041
H156	H	1.221690	0.315173	0.669041
N157	N	0.584873	-0.261630	0.238805
N158	N	1.084873	0.238370	0.738805
N159	N	0.521760	-0.261640	0.238815
N160	N	1.021760	0.238360	0.738815
H161	H	0.496255	-0.227332	0.207648
H162	H	0.996255	0.272668	0.707648
H163	H	0.592212	-0.444054	0.404545
H164	H	1.092212	0.055946	0.904545
N165	N	0.943989	-0.805693	0.198829
N166	N	1.443989	-0.305693	0.698829
N167	N	0.941094	-0.737504	0.188254
N168	N	1.441094	-0.237504	0.688254
H169	H	0.928662	-0.718393	0.141970
H170	H	1.428662	-0.218393	0.641970
N171	N	0.884841	-0.805573	0.419206
N172	N	1.384841	-0.305573	0.919206
N173	N	0.823729	-0.821490	0.412929
N174	N	1.323729	-0.321490	0.912929
H175	H	0.789792	-0.802312	0.446728
H176	H	1.289792	-0.302312	0.946728
H177	H	1.056801	-0.271419	1.068525
H178	H	1.556801	0.228581	1.568525
H179	H	1.061661	-0.903545	0.242711
H180	H	1.561661	-0.403545	0.742711
N181	N	1.105324	-0.805282	0.360379
N182	N	1.605324	-0.305282	0.860379
N183	N	1.155399	-0.821945	0.325114
N184	N	1.655399	-0.321945	0.825114
H185	H	1.201630	-0.802637	0.337561
H186	H	1.701630	-0.302637	0.837561
N187	N	1.012146	-0.909204	0.453460
N188	N	1.512146	-0.409204	0.953460
N189	N	0.976189	-0.893396	0.503276
N190	N	1.476189	-0.393396	1.003276
H191	H	0.988542	-0.912579	0.549555
H192	H	1.488542	-0.412579	1.049555
N193	N	0.727774	-0.453913	0.413474
N194	N	1.227774	0.046087	0.913474
N195	N	0.719849	-0.522434	0.408876
N196	N	1.219849	-0.022434	0.908876
H197	H	0.745345	-0.556751	0.440042
H198	H	1.245345	-0.056751	0.940042
H199	H	1.056740	-0.271542	0.584520
H200	H	1.556740	0.228458	1.084520
H201	H	1.056784	-0.271452	0.940280
H202	H	1.556784	0.228548	1.440280
N203	N	0.890631	-0.453602	0.932906
N204	N	1.390631	0.046398	1.432906
N205	N	0.828180	-0.448665	0.940798
N206	N	1.328180	0.051335	1.440798
H207	H	0.796917	-0.482927	0.915299
H208	H	1.296917	0.017073	1.415299
N209	N	0.372004	-0.453928	0.413515
N210	N	0.872004	0.046072	0.913515
N211	N	0.340440	-0.496388	0.452097
N212	N	0.840440	0.003612	0.952097
H213	H	0.365929	-0.530703	0.483271
H214	H	0.865929	-0.030703	0.983271
N215	N	0.229113	-0.453933	0.413523
N216	N	0.729113	0.046067	0.913523
N217	N	0.166000	-0.453934	0.413525
N218	N	0.666000	0.046066	0.913525
H219	H	0.140496	-0.488249	0.444694
H220	H	0.640496	0.011751	0.944694
N221	N	0.890614	-0.453652	0.720034
N222	N	1.390614	0.046348	1.220034
N223	N	0.890628	-0.453632	0.783147
N224	N	1.390628	0.046368	1.283147
H225	H	0.859385	-0.487879	0.808640
H226	H	1.359385	0.012121	1.308640
