data_functionalizedCrystal
_audit_creation_method	'MofGen! by Chris Wilmer'
_symmetry_space_group_name_H-M	'P1'
_symmetry_Int_Tables_number	1
_symmetry_cell_setting	triclinic
loop_
_symmetry_equiv_pos_as_xyz
  x,y,z
_cell_length_a	12.645331
_cell_length_b	29.839131
_cell_length_c	12.645324
_cell_angle_alpha	89.952738
_cell_angle_beta	89.976891
_cell_angle_gamma	90.035442
loop_
_atom_site_label
_atom_site_type_symbol
_atom_site_fract_x
_atom_site_fract_y
_atom_site_fract_z
Zn1	Zn	1.620605	-0.178817	-0.599336
Zn2	Zn	1.620432	-0.253957	-0.422028
Zn3	Zn	1.443319	-0.178842	-0.422080
Zn4	Zn	1.443247	-0.253921	-0.599243
O5	O	1.531901	-0.216384	-0.510672
O6	O	1.768929	-0.188789	-0.575833
O7	O	1.596895	-0.244019	-0.273688
O8	O	1.466939	-0.115972	-0.445654
O9	O	1.768802	-0.243994	-0.445566
O10	O	1.597190	-0.115953	-0.575883
O11	O	1.466771	-0.188833	-0.273726
O12	O	1.294962	-0.188797	-0.445564
O13	O	1.466817	-0.243932	-0.747603
O14	O	1.294909	-0.243957	-0.575725
O15	O	1.597121	-0.188753	-0.747671
O16	O	1.596825	-0.316820	-0.445476
O17	O	1.466648	-0.316793	-0.575675
C18	C	1.256471	-0.216376	-0.510641
C19	C	1.138641	-0.216383	-0.510652
C20	C	1.093757	-0.181629	-0.428902
C21	C	0.971197	-0.181500	-0.429182
C22	C	0.970821	-0.203752	-0.622568
C23	C	1.093419	-0.203493	-0.622057
C24	C	1.093391	-0.263873	-0.481543
C25	C	0.970784	-0.263625	-0.479118
C26	C	1.531739	-0.333107	-0.510583
C27	C	1.531767	-0.383041	-0.510580
C28	C	1.599708	-0.692640	-0.578579
C29	C	1.599823	-0.880313	-0.578643
O30	O	1.657430	-0.904540	-0.636392
N31	N	1.532081	-0.903826	-0.510790
C32	C	1.464300	-0.880419	-0.442921
O33	O	1.406676	-0.904724	-0.385217
C34	C	1.464180	-0.692746	-0.442863
C35	C	1.531935	-0.669235	-0.510713
C36	C	1.667456	-0.669129	-0.646424
C37	C	1.667430	-0.622213	-0.646404
C38	C	1.599657	-0.598809	-0.578538
C39	C	1.531909	-0.622320	-0.510692
C40	C	1.396395	-0.669340	-0.375000
C41	C	1.396369	-0.622419	-0.374994
C42	C	1.464124	-0.598908	-0.442844
C43	C	1.464111	-0.552000	-0.442806
N44	N	1.531853	-0.528487	-0.510659
C45	C	1.599626	-0.551891	-0.578525
C46	C	1.464369	-0.978949	-0.442954
C47	C	1.464400	-1.025867	-0.442967
C48	C	1.599922	-1.025758	-0.578691
C49	C	1.599895	-0.978839	-0.578672
C50	C	1.532111	-0.955436	-0.510807
C51	C	1.599568	-0.453365	-0.578476
C52	C	1.599540	-0.406446	-0.578446
C53	C	1.464015	-0.406559	-0.442727
C54	C	1.464047	-0.453474	-0.442752
C55	C	1.531827	-0.476876	-0.510635
O56	O	1.406525	-0.527744	-0.385096
O57	O	1.657225	-0.527577	-0.636237
C58	C	1.599733	-0.739555	-0.578600
C59	C	1.531985	-0.763066	-0.510754
C60	C	1.464212	-0.739662	-0.442889
C61	C	1.532016	-0.809984	-0.510767
C62	C	1.599790	-0.833389	-0.578633
C63	C	1.667532	-0.809875	-0.646486
C64	C	1.667506	-0.762960	-0.646466
C65	C	1.396470	-0.763175	-0.375036
C66	C	1.396502	-0.810091	-0.375061
C67	C	1.464275	-0.833495	-0.442927
C68	C	1.808406	-0.216393	-0.510704
C69	C	1.926236	-0.216396	-0.510718
C70	C	1.531980	-0.216335	-0.787177
C71	C	1.532014	-0.216315	-0.905008
C72	C	1.532092	-0.099206	-0.510785
C73	C	1.532173	-0.049271	-0.510833
C74	C	1.614307	-0.181702	-1.072615
C75	C	1.614044	-0.181577	-0.950055
C76	C	1.420341	-0.203450	-0.949494
C77	C	1.420841	-0.203187	-1.072092
C78	C	1.560487	-0.263843	-1.072175
C79	C	1.562931	-0.263603	-0.949570
C80	C	1.531882	-0.216401	-0.235242
C81	C	1.532054	-0.216295	-0.117413
H82	H	0.940167	-0.290894	-0.534284
H83	H	1.357472	-0.227286	-1.101724
H84	H	1.122412	-0.289765	-0.541087
C85	C	0.929420	-0.157383	-0.656403
C86	C	0.809645	-0.149335	-0.667347
C87	C	0.768247	-0.102965	-0.701174
C88	C	0.846623	-0.064643	-0.724057
C89	C	0.966405	-0.072690	-0.713114
C90	C	1.007804	-0.119060	-0.679286
H91	H	0.751619	-0.177704	-0.650407
H92	H	0.679575	-0.097008	-0.709276
H93	H	0.815977	-0.030317	-0.749098
H94	H	1.024431	-0.044321	-0.730053
H95	H	1.096475	-0.125017	-0.671185
C96	C	0.931479	-0.236903	-0.707153
C97	C	0.858236	-0.275934	-0.675569
C98	C	0.818888	-0.309084	-0.760152
C99	C	0.852784	-0.303203	-0.876320
C100	C	0.926031	-0.264169	-0.907910
C101	C	0.965378	-0.231019	-0.823326
H102	H	0.833140	-0.280290	-0.589570
H103	H	0.764665	-0.337979	-0.736767
H104	H	0.823656	-0.327742	-0.938934
H105	H	0.951126	-0.259814	-0.993909
H106	H	1.019601	-0.202124	-0.846712
C107	C	1.589253	-0.134385	-1.114332
C108	C	1.494510	-0.127051	-1.188822
C109	C	1.469473	-0.079737	-1.230568
C110	C	1.539179	-0.039756	-1.197825
C111	C	1.633928	-0.047089	-1.123331
C112	C	1.658965	-0.094404	-1.081584
H113	H	1.442904	-0.156648	-1.213064
H114	H	1.399334	-0.074308	-1.285714
H115	H	1.520645	-0.004732	-1.228728
H116	H	1.685534	-0.017493	-1.099089
H117	H	1.729105	-0.099832	-1.026439
H118	H	1.722719	-0.828939	-0.701742
C119	C	1.674131	-0.479103	-0.653140
C120	C	1.794643	-0.472607	-0.644586
C121	C	1.869211	-0.498345	-0.719244
C122	C	1.823267	-0.530580	-0.802456
C123	C	1.702749	-0.537078	-0.811014
C124	C	1.628181	-0.511340	-0.736356
H125	H	1.828659	-0.448743	-0.582985
H126	H	1.958427	-0.493534	-0.712909
H127	H	1.878467	-0.549632	-0.857722
H128	H	1.668733	-0.560941	-0.872615
H129	H	1.538966	-0.516150	-0.742691
C130	C	1.321848	-0.695191	-0.300373
C131	C	1.330530	-0.688781	-0.179866
C132	C	1.255972	-0.714631	-0.105238
C133	C	1.172731	-0.746891	-0.151118
C134	C	1.164045	-0.753303	-0.271632
C135	C	1.238603	-0.727453	-0.346260
H136	H	1.392154	-0.664898	-0.145897
H137	H	1.262402	-0.709884	-0.016025
H138	H	1.117538	-0.766026	-0.095874
H139	H	1.102421	-0.777185	-0.305601
H140	H	1.232173	-0.732200	-0.435473
C141	C	1.726549	-0.192445	-1.112460
C142	C	1.777391	-0.238036	-1.086616
C143	C	1.889634	-0.248780	-1.126472
C144	C	1.951035	-0.213933	-1.192173
C145	C	1.900193	-0.168338	-1.218021
C146	C	1.787950	-0.157594	-1.178164
H147	H	1.731938	-0.263836	-1.037977
H148	H	1.927270	-0.282533	-1.107337
H149	H	2.034124	-0.221886	-1.221677
H150	H	1.945646	-0.142539	-1.266660
H151	H	1.750314	-0.123842	-1.197299
C152	C	1.133496	-0.192151	-0.316501
C153	C	1.207193	-0.232429	-0.297565
C154	C	1.246941	-0.242952	-0.185161
C155	C	1.212993	-0.213196	-0.091693
C156	C	1.139293	-0.172915	-0.110626
C157	C	1.099545	-0.162392	-0.223030
H158	H	1.232327	-0.254458	-0.366758
H159	H	1.301499	-0.272770	-0.171146
H160	H	1.242418	-0.220985	-0.008484
H161	H	1.114159	-0.150885	-0.041433
H162	H	1.044987	-0.132573	-0.237045
H163	H	1.654717	-0.387305	-0.633697
H164	H	1.123117	-0.227716	-0.685079
H165	H	1.124248	-0.275417	-0.401337
C166	C	1.335290	-0.236438	-0.910070
C167	C	1.314883	-0.241809	-0.790664
C168	C	1.229834	-0.274797	-0.751238
C169	C	1.165192	-0.302415	-0.831218
C170	C	1.185597	-0.297045	-0.950632
C171	C	1.270646	-0.264056	-0.990057
H172	H	1.362736	-0.221363	-0.731451
H173	H	1.214729	-0.278772	-0.662840
H174	H	1.102233	-0.326835	-0.802033
H175	H	1.137744	-0.317490	-1.009845
H176	H	1.285751	-0.260081	-1.078456
H177	H	0.941638	-0.273163	-0.396800
H178	H	1.595221	-0.146355	-0.920764
C179	C	1.742020	-0.694868	-0.721081
C180	C	1.862530	-0.688364	-0.712524
C181	C	1.937107	-0.714099	-0.787179
C182	C	1.891175	-0.746337	-0.870391
C183	C	1.770659	-0.752842	-0.878951
C184	C	1.696082	-0.727107	-0.804296
H185	H	1.896537	-0.664499	-0.650922
H186	H	2.026321	-0.709284	-0.780841
H187	H	1.946382	-0.765387	-0.925655
H188	H	1.736652	-0.776707	-0.940552
H189	H	1.606868	-0.731923	-0.810634
H190	H	1.396735	-0.168430	-1.100724
C191	C	1.674419	-0.952979	-0.653313
C192	C	1.794940	-0.959391	-0.644776
C193	C	1.869465	-0.933533	-0.719423
C194	C	1.823469	-0.901265	-0.802607
C195	C	1.702941	-0.894852	-0.811147
C196	C	1.628416	-0.920709	-0.736500
H197	H	1.828995	-0.983279	-0.583196
H198	H	1.958688	-0.938281	-0.713100
H199	H	1.878637	-0.882124	-0.857865
H200	H	1.668886	-0.870964	-0.872728
H201	H	1.539193	-0.915962	-0.742823
H202	H	1.722678	-0.743820	-0.701716
C203	C	1.321962	-0.835949	-0.300421
C204	C	1.330656	-0.829544	-0.179912
C205	C	1.256111	-0.855400	-0.105283
C206	C	1.172871	-0.887661	-0.151163
C207	C	1.164173	-0.894067	-0.271678
C208	C	1.238719	-0.868212	-0.346307
H209	H	1.392278	-0.805661	-0.145943
H210	H	1.262549	-0.850657	-0.016070
H211	H	1.117688	-0.906801	-0.095919
H212	H	1.102551	-0.917950	-0.305647
H213	H	1.232280	-0.872954	-0.435520
H214	H	1.395793	-0.169081	-0.918820
H215	H	1.640494	-0.275555	-1.103154
H216	H	1.124608	-0.146639	-0.447982
H217	H	1.645112	-0.273304	-0.920493
H218	H	1.507373	-0.290764	-0.918900
H219	H	0.941913	-0.146314	-0.448516
C220	C	1.321807	-0.596675	-0.300337
C221	C	1.330521	-0.603175	-0.179834
C222	C	1.255962	-0.577432	-0.105177
C223	C	1.172689	-0.545189	-0.151022
C224	C	1.163971	-0.538688	-0.271531
C225	C	1.238530	-0.564431	-0.346189
H226	H	1.392168	-0.627044	-0.145891
H227	H	1.262416	-0.582245	-0.015968
H228	H	1.117496	-0.526133	-0.095756
H229	H	1.102324	-0.514818	-0.305474
H230	H	1.232076	-0.559618	-0.435398
C231	C	1.479564	-0.298666	-1.111311
C232	C	1.412533	-0.325193	-1.031084
C233	C	1.331608	-0.360012	-1.070227
C234	C	1.317715	-0.368305	-1.189598
C235	C	1.384748	-0.341777	-1.269833
C236	C	1.465673	-0.306957	-1.230689
H237	H	1.422816	-0.319055	-0.942712
H238	H	1.281986	-0.379650	-1.010832
H239	H	1.257810	-0.394080	-1.218574
H240	H	1.374466	-0.347914	-1.358204
H241	H	1.515295	-0.287320	-1.290085
C242	C	1.132115	-0.156603	-0.655281
C243	C	1.100939	-0.115239	-0.589566
C244	C	1.139624	-0.068347	-0.622786
C245	C	1.209486	-0.062819	-0.721721
C246	C	1.240666	-0.104184	-0.787442
C247	C	1.201981	-0.151076	-0.754222
H248	H	1.049220	-0.119330	-0.516324
H249	H	1.116542	-0.037726	-0.574134
H250	H	1.238123	-0.028106	-0.746312
H251	H	1.292386	-0.100093	-0.860684
H252	H	1.225063	-0.181697	-0.802873
H253	H	0.941047	-0.189389	-0.346261
H254	H	1.722598	-0.603073	-0.701656
H255	H	1.655107	-1.044822	-0.633949
H256	H	1.409239	-1.045006	-0.387706
H257	H	1.409170	-0.959897	-0.387688
H258	H	1.408884	-0.472618	-0.387495
H259	H	1.408838	-0.387496	-0.387468
H260	H	1.341279	-0.744123	-0.319772
H261	H	1.696852	-0.189634	-0.919979
