data_functionalizedCrystal
_audit_creation_method	'MofGen! by Chris Wilmer'
_symmetry_space_group_name_H-M	'P1'
_symmetry_Int_Tables_number	1
_symmetry_cell_setting	triclinic
loop_
_symmetry_equiv_pos_as_xyz
  x,y,z
_cell_length_a	12.759395
_cell_length_b	18.101395
_cell_length_c	12.759387
_cell_angle_alpha	89.967189
_cell_angle_beta	89.979491
_cell_angle_gamma	90.032641
loop_
_atom_site_label
_atom_site_type_symbol
_atom_site_fract_x
_atom_site_fract_y
_atom_site_fract_z
Zn1	Zn	1.606149	-0.294760	-0.593990
Zn2	Zn	2.106149	0.205240	-0.093990
Zn3	Zn	1.605989	-0.418620	-0.418305
Zn4	Zn	2.105989	0.081380	0.081695
Zn5	Zn	1.430447	-0.294801	-0.418327
Zn6	Zn	1.930447	0.205199	0.081673
Zn7	Zn	1.430389	-0.418568	-0.593944
Zn8	Zn	1.930389	0.081432	-0.093944
O9	O	1.518244	-0.356687	-0.506141
O10	O	2.018244	0.143313	-0.006141
O11	O	1.753149	-0.311196	-0.570695
O12	O	2.253149	0.188804	-0.070695
O13	O	1.582661	-0.402234	-0.271286
O14	O	2.082661	0.097766	0.228714
O15	O	1.453845	-0.191162	-0.441658
O16	O	1.953845	0.308838	0.058342
O17	O	1.753032	-0.402195	-0.441620
O18	O	2.253032	0.097805	0.058380
O19	O	1.582933	-0.191133	-0.570717
O20	O	2.082933	0.308867	-0.070717
O21	O	1.453691	-0.311264	-0.271303
O22	O	1.953691	0.188736	0.228697
O23	O	1.283418	-0.311213	-0.441613
O24	O	1.783418	0.188787	0.058387
O25	O	1.453747	-0.402105	-0.740971
O26	O	1.953747	0.097895	-0.240971
O27	O	1.283376	-0.402145	-0.570638
O28	O	1.783376	0.097855	-0.070638
O29	O	1.582877	-0.311145	-0.741005
O30	O	2.082877	0.188855	-0.241005
O31	O	1.582604	-0.522246	-0.441575
O32	O	2.082604	-0.022246	0.058425
O33	O	1.453592	-0.522208	-0.570616
O34	O	1.953592	-0.022208	-0.070616
C35	C	1.245276	-0.356678	-0.506123
C36	C	1.745276	0.143322	-0.006123
C37	C	1.128499	-0.356692	-0.506141
C38	C	1.628499	0.143308	-0.006141
C39	C	1.128494	-0.451532	-0.640277
C40	C	1.628494	0.048468	-0.140277
C41	C	1.073630	-0.498958	-0.707348
C42	C	1.573630	0.001042	-0.207348
C43	C	0.963908	-0.498967	-0.707361
C44	C	1.463908	0.001033	-0.207361
C45	C	0.909048	-0.451543	-0.640297
C46	C	1.409048	0.048457	-0.140297
C47	C	0.963912	-0.404118	-0.573226
C48	C	1.463912	0.095882	-0.073226
C49	C	1.073636	-0.404115	-0.573219
C50	C	1.573636	0.095885	-0.073219
C51	C	0.963917	-0.309275	-0.439097
C52	C	1.463917	0.190725	0.060903
C53	C	1.073639	-0.309269	-0.439077
C54	C	1.573639	0.190731	0.060923
C55	C	0.909057	-0.261852	-0.372034
C56	C	1.409057	0.238148	0.127966
C57	C	0.963921	-0.214429	-0.304956
C58	C	1.463921	0.285571	0.195044
C59	C	1.073649	-0.214422	-0.304945
C60	C	1.573649	0.285578	0.195055
C61	C	1.128503	-0.261843	-0.372006
C62	C	1.628503	0.238157	0.127994
C63	C	1.518103	-0.549098	-0.506111
C64	C	2.018103	-0.049098	-0.006111
C65	C	1.518139	-0.631412	-0.506133
C66	C	2.018139	-0.131412	-0.006133
C67	C	1.518370	-0.930503	-0.506189
C68	C	2.018370	-0.430503	-0.006189
C69	C	1.437387	-0.899184	-0.587580
C70	C	1.937387	-0.399184	-0.087580
C71	C	1.437002	-0.813566	-0.587325
C72	C	1.937002	-0.313566	-0.087325
C73	C	1.518255	-0.782120	-0.506162
C74	C	2.018255	-0.282120	-0.006162
C75	C	1.488272	-0.813280	-0.395437
C76	C	1.988272	-0.313280	0.104563
C77	C	1.487750	-0.898925	-0.395924
C78	C	1.987750	-0.398925	0.104076
C79	C	1.629513	-0.898842	-0.534549
C80	C	2.129513	-0.398842	-0.034549
C81	C	1.628859	-0.813191	-0.536977
C82	C	2.128859	-0.313191	-0.036977
C83	C	1.518192	-0.698261	-0.506140
C84	C	2.018192	-0.198261	-0.006140
C85	C	1.518430	-1.014362	-0.506204
C86	C	2.018430	-0.514362	-0.006204
C87	C	1.792277	-0.356697	-0.506160
C88	C	2.292277	0.143303	-0.006160
C89	C	1.909054	-0.356701	-0.506168
C90	C	2.409054	0.143299	-0.006168
C91	C	1.518323	-0.356615	-0.780175
C92	C	2.018323	0.143385	-0.280175
C93	C	1.518357	-0.356584	-0.896952
C94	C	2.018357	0.143416	-0.396952
C95	C	1.518413	-0.163525	-0.506196
C96	C	2.018413	0.336475	-0.006196
C97	C	1.518486	-0.081211	-0.506219
C98	C	2.018486	0.418789	-0.006219
C99	C	1.652829	-0.261872	-0.897007
C100	C	2.152829	0.238128	-0.397007
C101	C	1.720080	-0.214506	-0.951896
C102	C	2.220080	0.285494	-0.451896
C103	C	1.720105	-0.214479	-1.061618
C104	C	2.220105	0.285521	-0.561618
C105	C	1.652871	-0.261822	-1.116453
C106	C	2.152871	0.238178	-0.616453
C107	C	1.585620	-0.309189	-1.061565
C108	C	2.085620	0.190811	-0.561565
C109	C	1.585604	-0.309212	-0.951840
C110	C	2.085604	0.190788	-0.451840
C111	C	1.451144	-0.403895	-1.061509
C112	C	1.951144	0.096105	-0.561509
C113	C	1.451122	-0.403927	-0.951788
C114	C	1.951122	0.096073	-0.451788
C115	C	1.383910	-0.451238	-1.116345
C116	C	1.883910	0.048762	-0.616345
C117	C	1.316662	-0.498610	-1.061456
C118	C	1.816662	0.001390	-0.561456
C119	C	1.316641	-0.498636	-0.951728
C120	C	1.816641	0.001364	-0.451728
C121	C	1.383872	-0.451294	-0.896899
C122	C	1.883872	0.048706	-0.396899
C123	C	1.518225	-0.356706	-0.233174
C124	C	2.018225	0.143294	0.266826
C125	C	1.518395	-0.356528	-0.116398
C126	C	2.018395	0.143472	0.383602
H127	H	1.455761	-0.792496	-0.669427
H128	H	1.955761	-0.292496	-0.169427
Br129	Br	0.760148	-0.261857	-0.372059
Br130	Br	1.260148	0.238143	0.127941
H131	H	1.217835	-0.451535	-0.640265
H132	H	1.717835	0.048465	-0.140265
H133	H	1.774819	-0.175958	-0.907237
H134	H	2.274819	0.324042	-0.407237
Br135	Br	1.352338	-0.932341	-0.355880
Br136	Br	1.852338	-0.432341	0.144120
H137	H	1.118312	-0.175797	-0.250335
H138	H	1.618312	0.324203	0.249665
H139	H	1.383865	-0.451313	-0.807558
H140	H	1.883865	0.048687	-0.307558
Br141	Br	1.383941	-0.451201	-1.265254
Br142	Br	1.883941	0.048799	-0.765254
H143	H	1.651469	-0.792822	-0.618465
H144	H	2.151469	-0.292822	-0.118465
H145	H	1.118309	-0.537568	-0.761951
H146	H	1.618309	-0.037568	-0.261951
Br147	Br	1.652818	-0.261919	-0.748098
Br148	Br	2.152818	0.238081	-0.248098
H149	H	1.652889	-0.261789	-1.205794
H150	H	2.152889	0.238211	-0.705794
Br151	Br	0.889446	-0.563324	-0.798394
Br152	Br	1.389446	-0.063324	-0.298394
Br153	Br	1.225417	-0.562849	-1.135880
Br154	Br	1.725417	-0.062849	-0.635880
H155	H	1.774860	-0.175904	-1.106308
H156	H	2.274860	0.324096	-0.606308
Br157	Br	0.889464	-0.150068	-0.213963
Br158	Br	1.389464	0.349932	0.286037
Br159	Br	1.583488	-0.779338	-0.291600
Br160	Br	2.083488	-0.279338	0.208400
Br161	Br	0.760139	-0.451543	-0.640335
Br162	Br	1.260139	0.048457	-0.140335
H163	H	1.261865	-0.537200	-0.907044
H164	H	1.761865	-0.037200	-0.407044
H165	H	1.544176	-0.919645	-0.333213
H166	H	2.044176	-0.419645	0.166787
Br167	Br	1.277412	-0.261843	-0.371990
Br168	Br	1.777412	0.238157	0.128010
Br169	Br	1.468336	-0.933422	-0.724871
Br170	Br	1.968336	-0.433422	-0.224871
H171	H	1.354620	-0.793146	-0.568540
H172	H	1.854620	-0.293146	-0.068540
Br173	Br	1.300916	-0.935186	-0.556693
Br174	Br	1.800916	-0.435186	-0.056693
H175	H	1.692388	-0.791781	-0.482017
H176	H	2.192388	-0.291781	0.017983
H177	H	1.407887	-0.791898	-0.370982
H178	H	1.907887	-0.291898	0.129018
H179	H	1.689848	-0.919095	-0.475269
H180	H	2.189848	-0.419095	0.024731
Br181	Br	1.675074	-0.934746	-0.666829
Br182	Br	2.175074	-0.434746	-0.166829
