data_functionalizedCrystal
_audit_creation_method	'MofGen! by Chris Wilmer'
_symmetry_space_group_name_H-M	'P1'
_symmetry_Int_Tables_number	1
_symmetry_cell_setting	triclinic
loop_
_symmetry_equiv_pos_as_xyz
  x,y,z
_cell_length_a	17.699077
_cell_length_b	16.109304
_cell_length_c	15.186229
_cell_angle_alpha	89.999066
_cell_angle_beta	89.997203
_cell_angle_gamma	83.371607
loop_
_atom_site_label
_atom_site_type_symbol
_atom_site_fract_x
_atom_site_fract_y
_atom_site_fract_z
O1	O	1.004229	0.105113	-0.073211
O2	O	1.504229	0.605113	0.426789
O3	O	0.783869	0.118797	-0.073215
O4	O	1.283869	0.618797	0.426785
O5	O	0.900101	-0.009087	-0.073214
O6	O	1.400101	0.490913	0.426786
O7	O	0.887996	0.232996	-0.073213
O8	O	1.387996	0.732996	0.426787
O9	O	0.900093	-0.009088	0.073244
O10	O	1.400093	0.490912	0.573244
O11	O	0.783861	0.118795	0.073242
O12	O	1.283861	0.618795	0.573242
O13	O	1.004221	0.105111	0.073246
O14	O	1.504221	0.605111	0.573246
Zn15	Zn	0.894040	0.111953	0.096497
Zn16	Zn	1.394040	0.611953	0.596497
Zn17	Zn	0.894050	0.111955	-0.096466
Zn18	Zn	1.394050	0.611955	0.403534
O19	O	0.887989	0.232994	0.073244
O20	O	1.387989	0.732994	0.573244
C21	C	0.899607	-0.040062	0.000013
C22	C	1.399607	0.459938	0.500013
C23	C	0.898135	-0.132354	0.000007
C24	C	1.398135	0.367646	0.500007
C25	C	0.755668	0.118306	0.000013
C26	C	1.255668	0.618306	0.500013
C27	C	0.671647	0.116838	0.000011
C28	C	1.171647	0.616838	0.500011
C29	C	0.894741	-0.344685	-0.079824
C30	C	1.394741	0.155315	0.420176
C31	C	0.893352	-0.431402	-0.079823
C32	C	1.393352	0.068598	0.420177
C33	C	0.893347	-0.431401	0.079853
C34	C	1.393347	0.068599	0.579853
C35	C	0.894731	-0.344684	0.079851
C36	C	1.394731	0.155316	0.579851
C37	C	0.895432	-0.301329	0.000010
C38	C	1.395432	0.198671	0.500010
C39	C	0.892658	-0.474764	0.000013
C40	C	1.392658	0.025236	0.500013
C41	C	0.891152	-0.568787	0.000014
C42	C	1.391152	-0.068787	0.500014
C43	C	0.896936	-0.207299	0.000008
C44	C	1.396936	0.292701	0.500008
C45	C	0.632174	0.116145	0.079846
C46	C	1.132174	0.616145	0.579846
C47	C	0.553230	0.114752	0.079847
C48	C	1.053230	0.614752	0.579847
C49	C	0.513759	0.114058	0.000012
C50	C	1.013759	0.614058	0.500012
C51	C	0.553237	0.114748	-0.079829
C52	C	1.053237	0.614748	0.420171
C53	C	0.632181	0.116135	-0.079829
C54	C	1.132181	0.616135	0.420171
C55	C	0.234866	0.109153	-0.079830
C56	C	0.734866	0.609153	0.420170
C57	C	0.155916	0.107769	-0.079824
C58	C	0.655916	0.607769	0.420176
C59	C	0.155915	0.107770	0.079845
C60	C	0.655915	0.607770	0.579845
C61	C	0.234859	0.109157	0.079845
C62	C	0.734859	0.609157	0.579845
C63	C	0.274331	0.109843	0.000005
C64	C	0.774331	0.609843	0.500005
C65	C	0.359931	0.111352	0.000005
C66	C	0.859931	0.611352	0.500005
C67	C	0.428159	0.112555	0.000012
C68	C	0.928159	0.612555	0.500012
C69	C	1.032422	0.105601	0.000016
C70	C	1.532422	0.605601	0.500016
C71	C	1.116443	0.107070	0.000012
C72	C	1.616443	0.607070	0.500012
C73	C	0.888483	0.263969	0.000016
C74	C	1.388483	0.763969	0.500016
C75	C	0.889954	0.356262	0.000016
C76	C	1.389954	0.856262	0.500016
N77	N	0.894038	0.111950	0.228190
N78	N	1.394038	0.611950	0.728190
N79	N	0.894058	0.111951	-0.228159
N80	N	1.394058	0.611951	0.271841
C81	C	0.945523	0.055343	0.453913
C82	C	1.445523	0.555343	0.953913
C83	C	0.945526	0.055341	0.546103
C84	C	1.445526	0.555341	1.046103
C85	C	0.842567	0.168561	0.546111
C86	C	1.342567	0.668561	1.046111
C87	C	0.842562	0.168558	0.453923
C88	C	1.342562	0.668558	0.953923
C89	C	0.894044	0.111950	0.407827
C90	C	1.394044	0.611950	0.907827
C91	C	0.894052	0.111951	0.592204
C92	C	1.394052	0.611951	1.092204
C93	C	0.894054	0.111949	0.692160
C94	C	1.394054	0.611949	1.192160
C95	C	0.894041	0.111951	0.307864
C96	C	1.394041	0.611951	0.807864
H97	H	0.892787	-0.466699	-0.144832
H98	H	1.392787	0.033301	0.355168
O99	O	0.895475	-0.297919	0.165966
O100	O	1.395475	0.202081	0.665966
H101	H	0.896546	-0.230335	0.152549
H102	H	1.396546	0.269665	0.652549
O103	O	0.510627	0.113920	0.165930
O104	O	1.010627	0.613920	0.665930
H105	H	0.467858	0.169896	0.169779
H106	H	0.967858	0.669896	0.669779
H107	H	0.664305	0.116717	0.144857
H108	H	1.164305	0.616717	0.644857
O109	O	1.001053	-0.005716	0.595807
O110	O	1.501053	0.494284	1.095807
H111	H	0.992404	0.003786	0.667656
H112	H	1.492404	0.503786	1.167656
O113	O	0.277427	0.109908	0.165956
O114	O	0.777427	0.609908	0.665956
H115	H	0.338952	0.110997	0.152543
H116	H	0.838952	0.610997	0.652543
H117	H	0.895309	-0.309387	-0.144835
H118	H	1.395309	0.190613	0.355165
O119	O	0.892614	-0.478165	0.165965
O120	O	1.392614	0.021835	0.665965
H121	H	0.891549	-0.545751	0.152556
H122	H	1.391549	-0.045751	0.652556
H123	H	0.123768	0.107207	0.144855
H124	H	0.623768	0.607207	0.644855
H125	H	0.800652	0.214651	0.583652
H126	H	1.300652	0.714651	1.083652
O127	O	0.113342	0.106992	-0.165935
O128	O	0.613342	0.606992	0.334065
H129	H	0.154053	0.107685	-0.221454
H130	H	0.654053	0.607685	0.278546
H131	H	0.800637	0.214655	0.416396
H132	H	1.300637	0.714655	0.916396
H133	H	0.266995	0.109709	-0.144841
H134	H	0.766995	0.609709	0.355159
H135	H	0.521094	0.114177	-0.144831
H136	H	1.021094	0.614177	0.355169
H137	H	0.664318	0.116701	-0.144838
H138	H	1.164318	0.616701	0.355162
H139	H	0.987443	0.009248	0.416384
H140	H	1.487443	0.509248	0.916384
