data_functionalizedCrystal
_audit_creation_method	'MofGen! by Chris Wilmer'
_symmetry_space_group_name_H-M	'P1'
_symmetry_Int_Tables_number	1
_symmetry_cell_setting	triclinic
loop_
_symmetry_equiv_pos_as_xyz
  x,y,z
_cell_length_a	19.121102
_cell_length_b	13.032721
_cell_length_c	13.033109
_cell_angle_alpha	74.856674
_cell_angle_beta	80.693863
_cell_angle_gamma	84.922575
loop_
_atom_site_label
_atom_site_type_symbol
_atom_site_fract_x
_atom_site_fract_y
_atom_site_fract_z
Zn1	Zn	1.086977	0.578230	-0.733195
Zn2	Zn	1.060425	0.731377	-0.576209
Zn3	Zn	0.956290	0.546206	-0.546115
Zn4	Zn	0.956266	0.746272	-0.746188
O5	O	1.014989	0.650521	-0.650427
O6	O	1.181738	0.605713	-0.719527
O7	O	1.035509	0.687179	-0.422787
O8	O	0.984748	0.402633	-0.552899
O9	O	1.162231	0.718230	-0.604191
O10	O	1.080763	0.426160	-0.690346
O11	O	0.959002	0.551134	-0.400676
O12	O	0.858003	0.565577	-0.565498
O13	O	0.984707	0.743617	-0.893896
O14	O	0.857985	0.712565	-0.712491
O15	O	1.080740	0.620156	-0.884349
O16	O	1.035486	0.881174	-0.616790
O17	O	0.958960	0.892118	-0.741673
C18	C	0.832510	0.637213	-0.637140
C19	C	0.754445	0.631549	-0.631484
C20	C	0.994360	0.924979	-0.683932
C21	C	0.985602	1.042402	-0.698306
C22	C	1.035682	0.687120	-0.928951
C23	C	1.044501	0.702716	-1.047642
C24	C	0.717763	0.705504	-0.705263
C25	C	0.644414	0.700168	-0.699952
C26	C	0.607747	0.620881	-0.620856
C27	C	0.644434	0.546919	-0.547073
C28	C	0.717783	0.552250	-0.552390
C29	C	0.386282	0.600945	-0.600985
C30	C	0.312928	0.595621	-0.595672
C31	C	0.312913	0.748870	-0.748553
C32	C	0.386262	0.754199	-0.753858
C33	C	0.422944	0.680233	-0.680079
C34	C	0.532772	0.615428	-0.615424
C35	C	0.497918	0.685683	-0.685517
C36	C	1.198181	0.663882	-0.663767
C37	C	1.276246	0.669576	-0.669451
C38	C	1.035720	0.374997	-0.616816
C39	C	1.044554	0.257584	-0.602493
C40	C	1.019601	1.089314	-0.642976
C41	C	1.010550	1.210677	-0.657830
C42	C	1.010578	0.642357	-1.089618
C43	C	1.019691	0.658475	-1.212291
C44	C	0.994423	0.613992	-0.372979
C45	C	0.985763	0.598108	-0.254263
H46	H	0.747612	0.770071	-0.769669
C47	C	0.962792	0.557523	-1.016634
C48	C	0.933247	0.504981	-1.079135
C49	C	0.889213	0.426835	-1.011943
H50	H	0.989837	0.507680	-0.969447
H51	H	0.925906	0.590007	-0.975854
H52	H	0.970127	0.472498	-1.119896
H53	H	0.906189	0.554795	-1.126319
H54	H	0.852327	0.459318	-0.971163
H55	H	0.916264	0.377000	-0.964759
H56	H	0.869156	0.391182	-1.054340
H57	H	1.055482	0.722089	-1.267168
H58	H	0.949969	0.534497	-1.199387
H59	H	0.416111	0.818765	-0.818265
C60	C	0.604565	0.460987	-0.461087
C61	C	0.552879	0.508622	-0.396762
C62	C	0.516145	0.429495	-0.317531
H63	H	0.582386	0.418284	-0.494201
H64	H	0.636889	0.417710	-0.417846
H65	H	0.520560	0.551881	-0.439996
H66	H	0.575039	0.551318	-0.363623
H67	H	0.548469	0.386218	-0.274290
H68	H	0.493971	0.386797	-0.350654
H69	H	0.481077	0.461804	-0.273870
C70	C	0.937744	1.108492	-0.776051
C71	C	0.868509	1.073688	-0.744430
C72	C	0.824405	1.134532	-0.816033
H73	H	0.937916	1.181276	-0.775755
H74	H	0.954616	1.100572	-0.846372
H75	H	0.851642	1.081617	-0.674128
H76	H	0.868315	1.000912	-0.744732
H77	H	0.841276	1.126612	-0.886354
H78	H	0.824582	1.207313	-0.815732
H79	H	0.777425	1.110920	-0.794595
H80	H	0.283039	0.809088	-0.808621
H81	H	1.080369	1.207903	-0.544125
C82	C	1.092331	0.787369	-1.120847
C83	C	1.146581	0.739187	-1.180828
C84	C	1.190663	0.817133	-1.248261
H85	H	1.065301	0.837153	-1.168105
H86	H	1.112478	0.823133	-1.078636
H87	H	1.126435	0.703440	-1.223036
H88	H	1.173629	0.689409	-1.133597
H89	H	1.210810	0.852898	-1.206050
H90	H	1.163627	0.866913	-1.295512
H91	H	1.227480	0.784452	-1.288958
C92	C	0.604707	0.780607	-0.780108
C93	C	0.652513	0.851209	-0.850487
C94	C	0.615959	0.925339	-0.924331
H95	H	0.582585	0.744458	-0.819823
H96	H	0.569608	0.819165	-0.742738
H97	H	0.687598	0.812655	-0.887854
H98	H	0.674636	0.887384	-0.810803
H99	H	0.580860	0.963897	-0.886961
H100	H	0.593838	0.889181	-0.964038
H101	H	0.648388	0.973257	-0.972086
C102	C	1.067472	1.023157	-0.565289
C103	C	1.136714	1.057927	-0.596936
C104	C	1.180834	0.997004	-0.525402
H105	H	1.050653	1.031009	-0.494944
H106	H	1.067259	0.950385	-0.565658
H107	H	1.136925	1.130682	-0.596556
H108	H	1.153555	1.050072	-0.667270
H109	H	1.180621	0.924231	-0.525770
H110	H	1.164008	1.004860	-0.455060
H111	H	1.227820	1.020580	-0.546869
C112	C	0.273249	0.509418	-0.509748
C113	C	0.321074	0.445764	-0.446290
C114	C	0.284549	0.366343	-0.367139
H115	H	0.238138	0.541423	-0.465894
H116	H	0.251150	0.466701	-0.542963
H117	H	0.343161	0.488475	-0.413076
H118	H	0.356187	0.413734	-0.490113
H119	H	0.262450	0.323625	-0.400354
H120	H	0.249439	0.398357	-0.323293
H121	H	0.316993	0.323138	-0.324079
H122	H	0.416138	0.540724	-0.540901
H123	H	0.527777	0.750234	-0.749920
C124	C	0.757478	0.471897	-0.472148
C125	C	0.709666	0.401338	-0.401720
C126	C	0.746206	0.327307	-0.327778
H127	H	0.792593	0.433280	-0.509402
H128	H	0.779574	0.508163	-0.432492
H129	H	0.687582	0.365075	-0.441371
H130	H	0.674550	0.439924	-0.364441
H131	H	0.768301	0.363574	-0.288122
H132	H	0.781319	0.288699	-0.365041
H133	H	0.713770	0.279431	-0.279977
C134	C	0.962802	1.277090	-0.735575
C135	C	0.963299	1.384256	-0.734827
C136	C	0.919317	1.445466	-0.806419
H137	H	0.979661	1.269324	-0.805940
H138	H	0.915764	1.253691	-0.714265
H139	H	1.010328	1.407649	-0.756142
H140	H	0.946434	1.392055	-0.664480
H141	H	0.872278	1.422067	-0.785110
H142	H	0.936180	1.437692	-0.876779
H143	H	0.919643	1.518183	-0.805914
H144	H	0.502909	0.550874	-0.551022
