data_functionalizedCrystal
_audit_creation_method	'MofGen! by Chris Wilmer'
_symmetry_space_group_name_H-M	'P1'
_symmetry_Int_Tables_number	1
_symmetry_cell_setting	triclinic
loop_
_symmetry_equiv_pos_as_xyz
  x,y,z
_cell_length_a	12.759401
_cell_length_b	10.685194
_cell_length_c	12.759393
_cell_angle_alpha	94.402269
_cell_angle_beta	90.020938
_cell_angle_gamma	94.378655
loop_
_atom_site_label
_atom_site_type_symbol
_atom_site_fract_x
_atom_site_fract_y
_atom_site_fract_z
Zn1	Zn	1.574258	-0.502302	0.561943
Zn2	Zn	1.560699	-0.713368	0.372784
Zn3	Zn	1.398552	-0.502369	0.386274
Zn4	Zn	1.385104	-0.713280	0.548427
O5	O	1.479653	-0.607830	0.467357
O6	O	1.719480	-0.530309	0.536862
O7	O	1.539143	-0.685443	0.227548
O8	O	1.433162	-0.325761	0.420878
O9	O	1.709518	-0.685378	0.397887
O10	O	1.562253	-0.325711	0.549942
O11	O	1.420015	-0.530423	0.237459
O12	O	1.249748	-0.530338	0.407773
O13	O	1.410242	-0.685228	0.697245
O14	O	1.239867	-0.685293	0.526906
O15	O	1.549212	-0.530223	0.707175
O16	O	1.526103	-0.889955	0.384782
O17	O	1.397095	-0.889891	0.513826
C18	C	1.206687	-0.607814	0.467337
C19	C	1.089909	-0.607838	0.467352
C20	C	1.458697	-0.935713	0.446396
C21	C	1.449828	-1.075983	0.437464
C22	C	1.029922	-0.688646	0.529271
C23	C	0.920197	-0.688651	0.529291
C24	C	0.930457	-0.527036	0.405465
C25	C	1.040180	-0.527026	0.405451
C26	C	0.767416	-0.733933	0.650260
C27	C	0.707424	-0.814761	0.712168
C28	C	0.735173	-0.937920	0.720251
C29	C	0.822912	-0.980275	0.666409
C30	C	0.882898	-0.899454	0.604492
C31	C	0.855151	-0.776278	0.596430
C32	C	1.192962	-0.481756	0.284480
C33	C	1.252950	-0.400940	0.222556
C34	C	1.225202	-0.277780	0.214463
C35	C	1.137460	-0.235429	0.268287
C36	C	1.077473	-0.316245	0.330210
C37	C	1.105228	-0.439404	0.338305
C38	C	1.753685	-0.607846	0.467377
C39	C	1.870462	-0.607853	0.467386
C40	C	1.479740	-0.607708	0.741398
C41	C	1.479776	-0.607657	0.858178
C42	C	1.500720	-0.278666	0.488423
C43	C	1.509698	-0.138396	0.497399
C44	C	1.479633	-0.607859	0.194388
C45	C	1.479823	-0.607555	0.077631
C46	C	1.552144	-0.526933	0.918213
C47	C	1.552165	-0.526878	1.027941
C48	C	1.407447	-0.688283	1.017588
C49	C	1.407422	-0.688330	0.907863
C50	C	1.599266	-0.377984	1.187427
C51	C	1.671649	-0.297271	1.247465
C52	C	1.775395	-0.277920	1.213110
C53	C	1.806777	-0.339299	1.118717
C54	C	1.734399	-0.420021	1.058684
C55	C	1.630640	-0.439349	1.093039
C56	C	1.360333	-0.837226	0.748374
C57	C	1.287958	-0.917955	0.688339
C58	C	1.184210	-0.937320	0.722691
C59	C	1.152830	-0.875963	0.817086
C60	C	1.225204	-0.795233	0.877122
C61	C	1.328952	-0.775867	0.842762
H62	H	1.070408	-0.754445	0.579677
H63	H	1.567742	-1.084520	0.555551
H64	H	1.834330	-0.212200	1.262001
H65	H	1.125286	-1.003068	0.673804
H66	H	0.954332	-0.933939	0.560654
H67	H	0.889954	-0.461243	0.355065
Br68	Br	1.182618	-0.711960	1.005232
H69	H	0.635988	-0.780263	0.756009
H70	H	1.114856	-0.135149	0.261680
H71	H	1.391771	-1.129866	0.379318
H72	H	1.759951	-0.470000	0.981834
H73	H	1.611057	-0.461240	0.877764
Br74	Br	1.947590	-0.313054	1.072108
H75	H	0.744821	-0.633644	0.643697
Br76	Br	0.860553	-1.147438	0.677362
H77	H	1.444811	-0.821456	0.720390
Br78	Br	1.629062	-0.213977	1.375568
Br79	Br	1.306603	-0.168109	0.130403
Br80	Br	1.458456	-0.404221	1.234050
Br81	Br	1.309261	-0.797767	1.085024
H82	H	0.686321	-1.003730	0.770660
Br83	Br	0.958385	-0.258773	0.403250
H84	H	1.068350	-0.891734	0.845060
H85	H	1.324393	-0.435434	0.178729
Br86	Br	1.330550	-1.001245	0.560238
H87	H	1.215569	-0.582040	0.291073
