data_functionalizedCrystal
_audit_creation_method	'MofGen! by Chris Wilmer'
_symmetry_space_group_name_H-M	'P1'
_symmetry_Int_Tables_number	1
_symmetry_cell_setting	triclinic
loop_
_symmetry_equiv_pos_as_xyz
  x,y,z
_cell_length_a	15.995350
_cell_length_b	16.992694
_cell_length_c	15.455313
_cell_angle_alpha	92.857794
_cell_angle_beta	92.667328
_cell_angle_gamma	92.919701
loop_
_atom_site_label
_atom_site_type_symbol
_atom_site_fract_x
_atom_site_fract_y
_atom_site_fract_z
O1	O	0.174116	-1.043823	-0.072015
O2	O	0.507449	-0.710489	0.261318
O3	O	0.840782	-0.377156	0.594652
O4	O	0.172167	-0.815539	-0.072041
O5	O	0.505500	-0.482205	0.261293
O6	O	0.838833	-0.148872	0.594626
O7	O	0.051671	-0.935921	-0.072026
O8	O	0.385005	-0.602588	0.261307
O9	O	0.718338	-0.269254	0.594640
O10	O	0.294611	-0.923440	-0.072029
O11	O	0.627945	-0.590107	0.261304
O12	O	0.961278	-0.256774	0.594637
O13	O	0.058531	-0.929037	0.072235
O14	O	0.391865	-0.595704	0.405568
O15	O	0.725198	-0.262370	0.738902
O16	O	0.179027	-0.808655	0.072221
O17	O	0.512360	-0.475321	0.405554
O18	O	0.845694	-0.141988	0.738887
O19	O	0.180976	-1.036939	0.072246
O20	O	0.514309	-0.703605	0.405580
O21	O	0.847643	-0.370272	0.738913
Cu22	Cu	0.180628	-0.922168	0.085406
Cu23	Cu	0.513961	-0.588835	0.418739
Cu24	Cu	0.847294	-0.255501	0.752072
Cu25	Cu	0.172515	-0.930309	-0.085200
Cu26	Cu	0.505848	-0.596976	0.248133
Cu27	Cu	0.839181	-0.263642	0.581467
O28	O	0.301471	-0.916556	0.072232
O29	O	0.634805	-0.583223	0.405565
O30	O	0.968138	-0.249890	0.738899
C31	C	0.173091	-0.782884	0.000087
C32	C	0.506424	-0.449551	0.333420
C33	C	0.839758	-0.116217	0.666753
C34	C	0.165614	-0.695840	0.000077
C35	C	0.498948	-0.362507	0.333410
C36	C	0.832281	-0.029174	0.666743
C37	C	0.023872	-0.931963	0.000103
C38	C	0.357205	-0.598630	0.333436
C39	C	0.690539	-0.265296	0.666769
C40	C	-0.069182	-0.930416	0.000098
C41	C	0.264151	-0.597083	0.333431
C42	C	0.597484	-0.263750	0.666764
C43	C	0.180052	-1.069593	0.000117
C44	C	0.513385	-0.736260	0.333450
C45	C	0.846718	-0.402926	0.666784
C46	C	0.187528	-1.156637	0.000121
C47	C	0.520861	-0.823304	0.333455
C48	C	0.854195	-0.489970	0.666788
C49	C	-0.407301	-0.924861	0.000100
C50	C	-0.073968	-0.591528	0.333433
C51	C	0.259365	-0.258194	0.666767
C52	C	-0.365620	-0.839142	-0.000233
C53	C	-0.032287	-0.505809	0.333100
C54	C	0.301047	-0.172476	0.666433
C55	C	-0.268811	-0.840674	0.000092
C56	C	0.064523	-0.507341	0.333425
C57	C	0.397856	-0.174007	0.666759
C58	C	-0.239556	-0.927617	0.000098
C59	C	0.093777	-0.594283	0.333432
C60	C	0.427110	-0.260950	0.666765
C61	C	-0.273887	-0.965973	0.082482
C62	C	0.059447	-0.632639	0.415815
C63	C	0.392780	-0.299306	0.749148
C64	C	-0.370663	-0.963816	0.082550
C65	C	-0.037330	-0.630482	0.415884
C66	C	0.296003	-0.297149	0.749217
C67	C	-0.378704	-0.973415	-0.081501
C68	C	-0.045371	-0.640082	0.251832
C69	C	0.287962	-0.306748	0.585165
C70	C	-0.281812	-0.973447	-0.082590
C71	C	0.051521	-0.640113	0.250743
C72	C	0.384855	-0.306780	0.584077
C73	C	-0.144754	-0.929178	0.000100
C74	C	0.188579	-0.595845	0.333434
C75	C	0.521912	-0.262512	0.666767
C76	C	-0.502103	-0.923301	0.000104
C77	C	-0.168770	-0.589968	0.333437
C78	C	0.164563	-0.256635	0.666770
C79	C	0.329271	-0.920514	0.000101
C80	C	0.662604	-0.587181	0.333434
C81	C	0.995937	-0.253848	0.666768
C82	C	0.422324	-0.922061	0.000101
C83	C	0.755658	-0.588728	0.333434
C84	C	1.088991	-0.255395	0.666767
N85	N	0.186334	-0.916448	0.205401
N86	N	0.519667	-0.583114	0.538734
N87	N	0.853001	-0.249781	0.872067
C88	C	0.237750	-0.645600	0.000077
C89	C	0.571083	-0.312267	0.333410
C90	C	0.904416	0.021067	0.666743
C91	C	0.230720	-0.563813	0.000089
C92	C	0.564054	-0.230480	0.333422
C93	C	0.897387	0.102854	0.666755
C94	C	0.151555	-0.532268	0.000095
C95	C	0.484888	-0.198935	0.333428
C96	C	0.818222	0.134399	0.666761
C97	C	0.079414	-0.582515	0.000098
C98	C	0.412748	-0.249181	0.333431
C99	C	0.746081	0.084152	0.666764
C100	C	0.086445	-0.664300	0.000092
C101	C	0.419778	-0.330967	0.333425
C102	C	0.753111	0.002367	0.666758
C103	C	0.122418	-0.288669	0.000118
C104	C	0.455751	0.044664	0.333452
C105	C	0.789084	0.377998	0.666785
C106	C	0.115393	-0.206878	0.000122
C107	C	0.448726	0.126456	0.333455
C108	C	0.782059	0.459789	0.666788
C109	C	0.266700	-0.188181	0.000114
C110	C	0.600033	0.145152	0.333448
C111	C	0.933366	0.478486	0.666781
C112	C	0.273723	-0.269969	0.000103
C113	C	0.607056	0.063364	0.333437
C114	C	0.940389	0.396698	0.666770
C115	C	0.201582	-0.320208	0.000111
C116	C	0.534916	0.013125	0.333444
C117	C	0.868249	0.346458	0.666777
N118	N	0.144368	-0.448669	0.000104
N119	N	0.477701	-0.115335	0.333438
N120	N	0.811035	0.217998	0.666771
N121	N	0.208770	-0.403806	0.000107
N122	N	0.542103	-0.070473	0.333441
N123	N	0.875437	0.262861	0.666774
N124	N	0.166802	-0.936036	-0.205195
N125	N	0.500136	-0.602702	0.128138
N126	N	0.833469	-0.269369	0.461472
C127	C	0.135164	-0.967608	0.250801
C128	C	0.468498	-0.634275	0.584134
C129	C	0.801831	-0.300941	0.917467
C130	C	0.139488	-0.963289	0.341608
C131	C	0.472821	-0.629956	0.674941
C132	C	0.806155	-0.296623	1.008275
C133	C	0.194986	-0.907813	0.387014
C134	C	0.528319	-0.574480	0.720347
C135	C	0.861652	-0.241147	1.053680
C136	C	0.246157	-0.856647	0.341607
C137	C	0.579490	-0.523314	0.674940
C138	C	0.912824	-0.189981	1.008274
C139	C	0.241829	-0.860963	0.250801
C140	C	0.575162	-0.527630	0.584135
C141	C	0.908495	-0.194296	0.917468
C142	C	0.213646	-0.889185	0.658593
C143	C	0.546979	-0.555852	0.991926
C144	C	0.880312	-0.222519	1.325260
C145	C	0.217972	-0.884875	0.749405
C146	C	0.551305	-0.551542	1.082738
C147	C	0.884639	-0.218209	1.416072
C148	C	0.111301	-0.991517	0.749400
C149	C	0.444634	-0.658183	1.082733
C150	C	0.777968	-0.324850	1.416066
C151	C	0.106981	-0.995831	0.658592
C152	C	0.440315	-0.662497	0.991926
C153	C	0.773648	-0.329164	1.325259
C154	C	0.158150	-0.944662	0.613194
C155	C	0.491483	-0.611329	0.946527
C156	C	0.824816	-0.277995	1.279860
N157	N	0.199408	-0.903399	0.479833
N158	N	0.532741	-0.570066	0.813167
N159	N	0.866075	-0.236732	1.146500
N160	N	0.153722	-0.949073	0.520376
N161	N	0.487056	-0.615740	0.853709
N162	N	0.820389	-0.282406	1.187042
H163	H	-0.245421	-0.810251	-0.058964
H164	H	0.087912	-0.476918	0.274369
H165	H	0.421245	-0.143585	0.607703
F166	F	0.045638	-0.342127	0.000126
F167	F	0.378972	-0.008794	0.333459
F168	F	0.712305	0.324539	0.666793
H169	H	0.325432	-0.147268	0.000110
H170	H	0.658765	0.186065	0.333443
H171	H	0.992099	0.519399	0.666777
F172	F	-0.411875	-0.940666	-0.163118
F173	F	-0.078541	-0.607333	0.170216
F174	F	0.254792	-0.274000	0.503549
F175	F	0.031131	-0.173307	0.000143
F176	F	0.364464	0.160026	0.333476
F177	F	0.697798	0.493360	0.666810
F178	F	-0.414724	-1.056071	-0.082221
F179	F	-0.081391	-0.722737	0.251112
F180	F	0.251942	-0.389404	0.584445
H181	H	-0.398522	-1.026582	0.086293
H182	H	-0.065188	-0.693249	0.419626
H183	H	0.268145	-0.359915	0.752959
H184	H	0.097821	-1.004948	0.378573
H185	H	0.431155	-0.671614	0.711906
H186	H	0.764488	-0.338281	1.045239
F187	F	0.056846	-1.045969	0.797722
F188	F	0.390179	-0.712635	1.131055
F189	F	0.723512	-0.379302	1.464388
H190	H	-0.388100	-0.930041	0.144129
H191	H	-0.054766	-0.596708	0.477462
H192	H	0.278567	-0.263375	0.810795
F193	F	0.305219	-0.797601	0.389932
F194	F	0.638552	-0.464268	0.723265
F195	F	0.971885	-0.130934	1.056598
F196	F	0.307497	-0.510346	0.000085
F197	F	0.640831	-0.177013	0.333418
F198	F	0.974164	0.156320	0.666751
F199	F	-0.249648	-1.049270	0.086495
F200	F	0.083686	-0.715937	0.419829
F201	F	0.417019	-0.382604	0.753162
F202	F	0.277046	-0.825827	0.797723
F203	F	0.610379	-0.492494	1.131057
F204	F	0.943712	-0.159161	1.464390
F205	F	0.322009	-0.679165	0.000064
F206	F	0.655342	-0.345831	0.333398
F207	F	0.988675	-0.012498	0.666731
H208	H	0.255311	-0.847523	0.621636
H209	H	0.588644	-0.514190	0.954970
H210	H	0.921977	-0.180857	1.288303
H211	H	0.338187	-0.295647	0.000088
H212	H	0.671520	0.037687	0.333422
H213	H	1.004853	0.371020	0.666755
F214	F	0.296288	-0.806508	0.202484
F215	F	0.629622	-0.473175	0.535818
F216	F	0.962955	-0.139842	0.869151
H217	H	-0.244555	-0.933677	0.143784
H218	H	0.088778	-0.600343	0.477118
H219	H	0.422111	-0.267010	0.810451
F220	F	0.047916	-1.054875	0.610270
F221	F	0.381249	-0.721541	0.943603
F222	F	0.714582	-0.388208	1.276936
H223	H	-0.384703	-0.802224	0.058509
H224	H	-0.051370	-0.468891	0.391842
H225	H	0.281963	-0.135557	0.725176
F226	F	-0.396509	-0.798035	-0.077455
F227	F	-0.063176	-0.464701	0.255878
F228	F	0.270157	-0.131368	0.589212
H229	H	-0.240372	-0.804387	0.059241
H230	H	0.092961	-0.471054	0.392575
H231	H	0.426294	-0.137721	0.725908
H232	H	0.027704	-0.705206	0.000091
H233	H	0.361037	-0.371872	0.333425
H234	H	0.694371	-0.038539	0.666758
F235	F	-0.252279	-0.937148	-0.162262
F236	F	0.081054	-0.603815	0.171071
F237	F	0.414387	-0.270481	0.504405
F238	F	-0.004840	-0.548940	0.000110
F239	F	0.328494	-0.215607	0.333443
F240	F	0.661827	0.117727	0.666776
H241	H	0.089976	-1.012786	0.213838
H242	H	0.423309	-0.679452	0.547171
H243	H	0.756643	-0.346119	0.880504
H244	H	-0.262444	-1.037086	-0.087560
H245	H	0.070889	-0.703753	0.245774
H246	H	0.404223	-0.370420	0.579107
