data_functionalizedCrystal
_audit_creation_method	'MofGen! by Chris Wilmer'
_symmetry_space_group_name_H-M	'P1'
_symmetry_Int_Tables_number	1
_symmetry_cell_setting	triclinic
loop_
_symmetry_equiv_pos_as_xyz
  x,y,z
_cell_length_a	6.817900
_cell_length_b	9.582860
_cell_length_c	14.858572
_cell_angle_alpha	92.654604
_cell_angle_beta	104.524003
_cell_angle_gamma	111.206767
loop_
_atom_site_label
_atom_site_type_symbol
_atom_site_fract_x
_atom_site_fract_y
_atom_site_fract_z
V1	V	-4.078434	-0.207997	-0.289789
V2	V	-3.578434	0.292003	0.210211
O3	O	-4.023872	0.009026	-0.284448
O4	O	-3.523872	0.509026	0.215552
O5	O	-4.069119	-0.411491	-0.287638
O6	O	-3.569119	0.088509	0.212362
O7	O	-4.034539	-0.205223	-0.416253
O8	O	-3.534539	0.294777	0.083747
O9	O	-4.058691	-0.198670	-0.154943
O10	O	-3.558691	0.301330	0.345057
V11	V	-4.556414	-0.181988	-0.273681
V12	V	-4.056414	0.318012	0.226319
O13	O	-4.351852	-0.265049	-0.325124
O14	O	-3.851852	0.234951	0.174876
O15	O	-4.733193	-0.124936	-0.238346
O16	O	-4.233193	0.375064	0.261654
O17	O	-4.342523	0.021506	-0.275831
O18	O	-3.842523	0.521506	0.224169
O19	O	-4.728373	-0.399011	-0.279022
O20	O	-4.228373	0.100989	0.220978
O21	O	-4.693554	-0.191315	-0.408527
O22	O	-4.193554	0.308685	0.091473
O23	O	-4.377102	-0.184762	-0.147217
O24	O	-3.877102	0.315238	0.352783
C25	C	-3.923482	-0.461085	-0.283023
C26	C	-3.423482	0.038915	0.216977
C27	C	-3.997182	-0.627447	-0.282108
C28	C	-3.497182	-0.127447	0.217892
C29	C	-3.879371	-0.197968	-0.447083
C30	C	-3.379371	0.302032	0.052917
C31	C	-3.925024	-0.197046	-0.550467
C32	C	-3.425024	0.302954	-0.050467
C33	C	-4.092116	-0.193677	-0.929037
C34	C	-3.592116	0.306323	-0.429037
C35	C	-4.045618	-0.194615	-0.823707
C36	C	-3.545618	0.305385	-0.323707
C37	C	-4.008572	-0.195363	-0.739755
C38	C	-3.508572	0.304637	-0.239755
C39	C	-3.962070	-0.196298	-0.634418
C40	C	-3.462070	0.303702	-0.134418
C41	C	-4.151503	0.071092	-0.280444
C42	C	-3.651503	0.571092	0.219556
C43	C	-4.057041	0.237452	-0.281365
C44	C	-3.557041	0.737452	0.218635
C45	C	-4.195614	-0.192022	-0.116382
C46	C	-3.695614	0.307978	0.383618
C47	C	-4.129197	-0.192936	-0.012997
C48	C	-3.629197	0.307064	0.487003
