data_functionalizedCrystal
_audit_creation_method	'MofGen! by Chris Wilmer'
_symmetry_space_group_name_H-M	'P1'
_symmetry_Int_Tables_number	1
_symmetry_cell_setting	triclinic
loop_
_symmetry_equiv_pos_as_xyz
  x,y,z
_cell_length_a	16.974800
_cell_length_b	15.995292
_cell_length_c	16.053802
_cell_angle_alpha	92.568169
_cell_angle_beta	91.074188
_cell_angle_gamma	83.429017
loop_
_atom_site_label
_atom_site_type_symbol
_atom_site_fract_x
_atom_site_fract_y
_atom_site_fract_z
O1	O	1.049056	0.106736	0.001486
O2	O	1.382389	0.440069	0.334819
O3	O	1.715723	0.773403	0.668152
O4	O	0.819592	0.119554	-0.014025
O5	O	1.152925	0.452887	0.319308
O6	O	1.486259	0.786221	0.652641
O7	O	0.940620	-0.008732	-0.005845
O8	O	1.273954	0.324601	0.327488
O9	O	1.607287	0.657935	0.660821
O10	O	0.928028	0.235022	-0.006694
O11	O	1.261361	0.568355	0.326639
O12	O	1.594694	0.901689	0.659972
O13	O	0.933959	-0.001700	0.132563
O14	O	1.267292	0.331633	0.465897
O15	O	1.600625	0.664967	0.799230
O16	O	0.812930	0.126586	0.124383
O17	O	1.146264	0.459919	0.457717
O18	O	1.479597	0.793253	0.791050
O19	O	1.042394	0.113768	0.139894
O20	O	1.375728	0.447102	0.473228
O21	O	1.709061	0.780435	0.806561
Zn22	Zn	0.926605	0.121294	0.154114
Zn23	Zn	1.259938	0.454627	0.487448
Zn24	Zn	1.593271	0.787960	0.820781
Zn25	Zn	0.935382	0.112029	-0.028245
Zn26	Zn	1.268715	0.445362	0.305088
Zn27	Zn	1.602048	0.778695	0.638421
O28	O	0.921366	0.242054	0.131715
O29	O	1.254699	0.575387	0.465048
O30	O	1.588032	0.908721	0.798381
C31	C	0.786898	0.122454	0.053194
C32	C	1.120231	0.455787	0.386527
C33	C	1.453565	0.789120	0.719861
C34	C	0.699406	0.120607	0.047279
C35	C	1.032739	0.453941	0.380613
C36	C	1.366072	0.787274	0.713946
C37	C	0.654675	0.123571	0.119949
C38	C	0.988008	0.456904	0.453283
C39	C	1.321342	0.790238	0.786616
C40	C	0.572468	0.121823	0.114394
C41	C	0.905802	0.455156	0.447728
C42	C	1.239135	0.788490	0.781061
C43	C	0.534993	0.117117	0.036169
C44	C	0.868326	0.450450	0.369502
C45	C	1.201660	0.783784	0.702836
C46	C	0.579730	0.114151	-0.036506
C47	C	0.913063	0.447484	0.296827
C48	C	1.246397	0.780817	0.630160
C49	C	0.661936	0.115893	-0.030951
C50	C	0.995269	0.449226	0.302383
C51	C	1.328603	0.782559	0.635716
C52	C	0.289524	0.111490	0.011463
C53	C	0.622857	0.444823	0.344796
C54	C	0.956190	0.778157	0.678129
C55	C	0.207311	0.109751	0.005912
C56	C	0.540645	0.443084	0.339246
C57	C	0.873978	0.776417	0.672579
C58	C	0.200056	0.117422	0.156814
C59	C	0.533389	0.450755	0.490147
C60	C	0.866722	0.784088	0.823481
C61	C	0.282263	0.119168	0.162363
C62	C	0.615596	0.452502	0.495696
C63	C	0.948929	0.785835	0.829029
C64	C	0.326993	0.116197	0.089688
C65	C	0.660326	0.449531	0.423021
C66	C	0.993660	0.782864	0.756354
N67	N	0.450964	0.115333	0.030489
N68	N	0.784298	0.448666	0.363822
N69	N	1.117631	0.781999	0.697156
N70	N	0.411021	0.117976	0.095368
N71	N	0.744354	0.451309	0.428702
N72	N	1.077688	0.784642	0.762035
C73	C	0.936777	-0.036413	0.063322
C74	C	1.270111	0.296921	0.396655
C75	C	1.603444	0.630254	0.729989
C76	C	0.935241	-0.129369	0.063212
C77	C	1.268574	0.203964	0.396545
C78	C	1.601908	0.537297	0.729879
C79	C	0.929592	-0.467120	0.062838
C80	C	1.262925	-0.133787	0.396171
C81	C	1.596258	0.199547	0.729504
C82	C	1.016932	-0.443598	0.069052
C83	C	1.350265	-0.110265	0.402385
C84	C	1.683599	0.223069	0.735719
C85	C	1.018607	-0.346935	0.068849
C86	C	1.351941	-0.013601	0.402183
C87	C	1.685274	0.319732	0.735516
C88	C	0.932395	-0.299558	0.063024
C89	C	1.265728	0.033775	0.396357
C90	C	1.599062	0.367109	0.729691
C91	C	0.892526	-0.332772	-0.018964
C92	C	1.225859	0.000562	0.314370
C93	C	1.559192	0.333895	0.647703
C94	C	0.891477	-0.429568	-0.019098
C95	C	1.224810	-0.096234	0.314235
C96	C	1.558144	0.237099	0.647569
C97	C	0.882117	-0.421432	0.138178
C98	C	1.215451	-0.088099	0.471511
C99	C	1.548784	0.245235	0.804845
C100	C	0.885305	-0.324879	0.139438
C101	C	1.218638	0.008454	0.472772
C102	C	1.551971	0.341787	0.806105
C103	C	0.933975	-0.204859	0.063126
C104	C	1.267308	0.128475	0.396459
C105	C	1.600641	0.461808	0.729793
C106	C	0.928010	-0.561819	0.062730
C107	C	1.261343	-0.228486	0.396063
C108	C	1.594676	0.104847	0.729397
C109	C	1.075088	0.110868	0.072673
C110	C	1.408422	0.444202	0.406007
C111	C	1.741755	0.777535	0.739340
C112	C	1.162581	0.112714	0.078582
C113	C	1.495914	0.446048	0.411916
C114	C	1.829247	0.779381	0.745249
C115	C	0.925209	0.269735	0.062545
C116	C	1.258542	0.603068	0.395878
C117	C	1.591876	0.936401	0.729212
C118	C	0.926746	0.362691	0.062650
C119	C	1.260079	0.696025	0.395983
C120	C	1.593412	1.029358	0.729316
N121	N	0.920620	0.127616	0.278570
N122	N	1.253953	0.460950	0.611903
N123	N	1.587287	0.794283	0.945237
N124	N	0.941372	0.105699	-0.152701
N125	N	1.274706	0.439033	0.180633
N126	N	1.608039	0.772366	0.513966
C127	C	0.972137	0.073050	0.325746
C128	C	1.305470	0.406383	0.659079
C129	C	1.638803	0.739717	0.992413
C130	C	0.967958	0.077481	0.412870
C131	C	1.301291	0.410814	0.746204
C132	C	1.634625	0.744147	1.079537
C133	C	0.912266	0.136482	0.452817
C134	C	1.245599	0.469816	0.786151
C135	C	1.578932	0.803149	1.119484
C136	C	0.860744	0.191051	0.405635
C137	C	1.194077	0.524384	0.738968
C138	C	1.527410	0.857718	1.072302
C139	C	0.864919	0.186616	0.318512
C140	C	1.198253	0.519949	0.651845
C141	C	1.531586	0.853282	0.985179
C142	C	0.894026	0.155833	0.712994
C143	C	1.227359	0.489166	1.046328
C144	C	1.560693	0.822499	1.379661
C145	C	0.889856	0.160266	0.800124
C146	C	1.223189	0.493599	1.133457
C147	C	1.556522	0.826932	1.466790
C148	C	0.997070	0.046694	0.807353
C149	C	1.330403	0.380027	1.140686
C150	C	1.663736	0.713360	1.474019
C151	C	1.001243	0.042267	0.720228
C152	C	1.334577	0.375600	1.053561
C153	C	1.667910	0.708934	1.386895
C154	C	0.949719	0.096833	0.673053
C155	C	1.283052	0.430166	1.006386
C156	C	1.616385	0.763499	1.339720
N157	N	0.907995	0.141014	0.541872
N158	N	1.241328	0.474348	0.875206
N159	N	1.574661	0.807681	1.208539
N160	N	0.953986	0.092296	0.583999
N161	N	1.287320	0.425629	0.917333
N162	N	1.620653	0.758963	1.250666
H163	H	0.685180	0.127410	0.183649
H164	H	1.018514	0.460743	0.516982
H165	H	1.351847	0.794077	0.850316
Br166	Br	0.814270	0.240350	0.854332
Br167	Br	1.147603	0.573684	1.187666
Br168	Br	1.480936	0.907017	1.520999
Br169	Br	0.722644	0.111863	-0.129578
Br170	Br	1.055978	0.445196	0.203755
Br171	Br	1.389311	0.778529	0.537089
H172	H	0.549212	0.110313	-0.100199
H173	H	0.882545	0.443646	0.233134
H174	H	1.215879	0.776980	0.566467
Br175	Br	1.071047	-0.310292	0.167145
Br176	Br	1.404380	0.023042	0.500478
Br177	Br	1.737714	0.356375	0.833811
H178	H	0.325934	0.109068	-0.047715
H179	H	0.659267	0.442401	0.285619
H180	H	0.992600	0.775735	0.618952
H181	H	1.047875	-0.468641	0.128008
H182	H	1.381208	-0.135307	0.461341
H183	H	1.714541	0.198026	0.794674
Br184	Br	1.077267	-0.496610	-0.021113
Br185	Br	1.410601	-0.163276	0.312220
Br186	Br	1.743934	0.170057	0.645554
Br187	Br	0.947791	-0.304211	-0.113587
Br188	Br	1.281125	0.029122	0.219747
Br189	Br	1.614458	0.362456	0.553080
H190	H	0.163628	0.119839	0.215982
H191	H	0.496961	0.453172	0.549315
H192	H	0.830294	0.786506	0.882649
Br193	Br	0.946633	-0.479160	-0.114161
Br194	Br	1.279967	-0.145827	0.219173
Br195	Br	1.613300	0.187507	0.552506
Br196	Br	1.080504	-0.320930	-0.021871
Br197	Br	1.413837	0.012404	0.311462
Br198	Br	1.747170	0.345737	0.644795
H199	H	0.536054	0.124222	0.173570
H200	H	0.869387	0.457556	0.506903
H201	H	1.202720	0.790889	0.840237
H202	H	1.039018	0.002268	0.845770
H203	H	1.372351	0.335601	1.179104
H204	H	1.705684	0.668934	1.512437
H205	H	0.914291	-0.303273	0.200058
H206	H	1.247625	0.030061	0.533391
H207	H	1.580958	0.363394	0.866725
Br208	Br	1.076829	-0.037804	0.666013
Br209	Br	1.410162	0.295529	0.999346
Br210	Br	1.743496	0.628863	1.332679
H211	H	0.176802	0.105921	-0.057791
H212	H	0.510135	0.439254	0.275542
H213	H	0.843468	0.772588	0.608875
H214	H	0.312770	0.122996	0.226062
H215	H	0.646103	0.456330	0.559396
H216	H	0.979436	0.789663	0.892729
H217	H	0.827600	-0.444442	-0.027007
H218	H	1.160933	-0.111109	0.306326
H219	H	1.494266	0.222224	0.639660
H220	H	1.017490	0.025008	0.293227
H221	H	1.350824	0.358341	0.626561
H222	H	1.684157	0.691675	0.959894
H223	H	0.829226	-0.301194	-0.026189
H224	H	1.162559	0.032139	0.307144
H225	H	1.495892	0.365472	0.640478
H226	H	0.822148	-0.291807	0.139960
H227	H	1.155482	0.041526	0.473293
H228	H	1.488815	0.374859	0.806626
H229	H	0.906744	-0.446416	0.199946
H230	H	1.240077	-0.113082	0.533280
H231	H	1.573411	0.220251	0.866613
H232	H	0.817792	-0.435538	0.134366
H233	H	1.151125	-0.102205	0.467699
H234	H	1.484458	0.231128	0.801032
Br235	Br	1.037871	0.003422	0.476897
Br236	Br	1.371205	0.336756	0.810231
Br237	Br	1.704538	0.670089	1.143564
H238	H	0.852074	0.200264	0.674591
H239	H	1.185407	0.533597	1.007925
H240	H	1.518740	0.866931	1.341258
H241	H	0.815394	0.239089	0.438165
H242	H	1.148727	0.572422	0.771498
H243	H	1.482060	0.905755	1.104831
Br244	Br	0.794995	0.260668	0.254487
Br245	Br	1.128329	0.594001	0.587820
Br246	Br	1.461662	0.927335	0.921154
