data_functionalizedCrystal
_audit_creation_method	'MofGen! by Chris Wilmer'
_symmetry_space_group_name_H-M	'P1'
_symmetry_Int_Tables_number	1
_symmetry_cell_setting	triclinic
loop_
_symmetry_equiv_pos_as_xyz
  x,y,z
_cell_length_a	12.837943
_cell_length_b	14.586319
_cell_length_c	16.109301
_cell_angle_alpha	90.001610
_cell_angle_beta	89.145210
_cell_angle_gamma	90.005121
loop_
_atom_site_label
_atom_site_type_symbol
_atom_site_fract_x
_atom_site_fract_y
_atom_site_fract_z
O1	O	1.375384	0.076230	0.216125
O2	O	1.708717	0.409564	0.549458
O3	O	2.042050	0.742897	0.882791
O4	O	1.073582	0.076235	0.205448
O5	O	1.406915	0.409569	0.538782
O6	O	1.740248	0.742902	0.872115
O7	O	1.232773	0.076223	0.090414
O8	O	1.566107	0.409557	0.423748
O9	O	1.899440	0.742890	0.757081
O10	O	1.216192	0.076242	0.331159
O11	O	1.549525	0.409576	0.664492
O12	O	1.882859	0.742909	0.997826
O13	O	1.232754	-0.076257	0.090420
O14	O	1.566087	0.257076	0.423754
O15	O	1.899421	0.590409	0.757087
O16	O	1.073562	-0.076245	0.205454
O17	O	1.406896	0.257088	0.538788
O18	O	1.740229	0.590421	0.872121
O19	O	1.375364	-0.076251	0.216131
O20	O	1.708698	0.257083	0.549464
O21	O	2.042031	0.590416	0.882798
Cu22	Cu	1.224461	-0.090171	0.210793
Cu23	Cu	1.557795	0.243163	0.544126
Cu24	Cu	1.891128	0.576496	0.877460
Cu25	Cu	1.224484	0.090156	0.210786
Cu26	Cu	1.557818	0.423489	0.544119
Cu27	Cu	1.891151	0.756822	0.877453
O28	O	1.216172	-0.076239	0.331165
O29	O	1.549506	0.257095	0.664498
O30	O	1.882839	0.590428	0.997832
C31	C	1.034953	-0.000005	0.201845
C32	C	1.368286	0.333329	0.535178
C33	C	1.701619	0.666662	0.868511
C34	C	0.919879	-0.000003	0.191088
C35	C	1.253212	0.333330	0.524421
C36	C	1.586546	0.666664	0.857754
N37	N	1.224453	-0.217002	0.210798
N38	N	1.557786	0.116331	0.544132
N39	N	1.891119	0.449664	0.877465
C40	C	1.232092	-0.000018	0.059389
C41	C	1.565425	0.333316	0.392722
C42	C	1.898759	0.666649	0.726056
C43	C	1.230078	-0.000019	-0.033066
C44	C	1.563412	0.333315	0.300267
C45	C	1.896745	0.666648	0.633600
C46	C	0.678877	-0.000006	0.320405
C47	C	1.012210	0.333327	0.653738
C48	C	1.345544	0.666661	0.987071
C49	C	0.570755	-0.000005	0.310302
C50	C	0.904088	0.333328	0.643635
C51	C	1.237421	0.666662	0.976968
C52	C	0.595510	-0.000007	0.160779
C53	C	0.928843	0.333326	0.494112
C54	C	1.262176	0.666660	0.827446
C55	C	0.703632	-0.000008	0.170882
C56	C	1.036966	0.333325	0.504216
C57	C	1.370299	0.666659	0.837549
C58	C	0.745312	-0.000006	0.250698
C59	C	1.078645	0.333327	0.584031
C60	C	1.411978	0.666661	0.917364
C61	C	0.853436	-0.000000	0.260800
C62	C	1.186769	0.333333	0.594133
C63	C	1.520103	0.666667	0.927467
C64	C	0.878189	-0.000009	0.111278
C65	C	1.211522	0.333325	0.444612
C66	C	1.544856	0.666658	0.777945
C67	C	0.770067	-0.000008	0.101175
C68	C	1.103400	0.333325	0.434508
C69	C	1.436733	0.666659	0.767842
C70	C	1.413993	-0.000009	0.219735
C71	C	1.747327	0.333325	0.553068
C72	C	2.080660	0.666658	0.886401
C73	C	1.529067	-0.000004	0.230491
C74	C	1.862400	0.333329	0.563825
C75	C	2.195733	0.666662	0.897158
C76	C	1.287320	-0.452006	0.266221
C77	C	1.620653	-0.118672	0.599554
C78	C	1.953986	0.214661	0.932888
C79	C	1.287331	-0.547987	0.266216
C80	C	1.620664	-0.214654	0.599550
C81	C	1.953997	0.118680	0.932883
C82	C	1.161632	-0.548003	0.155346
C83	C	1.494965	-0.214669	0.488680
C84	C	1.828298	0.118664	0.822013
C85	C	1.161627	-0.452023	0.155348
C86	C	1.494960	-0.118690	0.488681
C87	C	1.828294	0.214643	0.822014
C88	C	1.224469	-0.404027	0.210790
C89	C	1.557803	-0.070694	0.544123
C90	C	1.891136	0.262639	0.877457
C91	C	1.224485	-0.595988	0.210783
C92	C	1.557818	-0.262655	0.544117
C93	C	1.891151	0.070679	0.877450
C94	C	1.224496	-0.700055	0.210778
C95	C	1.557829	-0.366722	0.544111
C96	C	1.891163	-0.033388	0.877444
C97	C	1.224460	-0.299953	0.210795
C98	C	1.557793	0.033380	0.544128
C99	C	1.891126	0.366713	0.877461
N100	N	1.224501	0.216987	0.210775
N101	N	1.557835	0.550321	0.544108
N102	N	1.891168	0.883654	0.877442
C103	C	1.319857	-0.000006	-0.248206
C104	C	1.653191	0.333328	0.085127
C105	C	1.986524	0.666661	0.418460
C106	C	1.317957	0.000002	-0.335078
C107	C	1.651290	0.333335	-0.001744
C108	C	1.984624	0.666668	0.331589
C109	C	1.129081	0.000001	-0.330208
C110	C	1.462415	0.333335	0.003125
C111	C	1.795748	0.666668	0.336459
C112	C	1.130983	0.000000	-0.243338
C113	C	1.464316	0.333334	0.089995
C114	C	1.797649	0.666667	0.423328
C115	C	1.226374	-0.000008	-0.202340
C116	C	1.559707	0.333325	0.130993
C117	C	1.893040	0.666659	0.464327
C118	C	1.222572	0.000001	-0.376081
C119	C	1.555906	0.333334	-0.042748
C120	C	1.889239	0.666667	0.290586
C121	C	1.220511	0.000009	-0.470271
C122	C	1.553845	0.333342	-0.136937
C123	C	1.887178	0.666676	0.196396
C124	C	1.228435	-0.000014	-0.108144
C125	C	1.561768	0.333319	0.225189
C126	C	1.895102	0.666652	0.558523
C127	C	1.216854	0.000004	0.362190
C128	C	1.550187	0.333338	0.695524
C129	C	1.883520	0.666671	1.028857
C130	C	1.218868	0.000012	0.454645
C131	C	1.552201	0.333345	0.787979
C132	C	1.885534	0.666678	1.121312
H133	H	0.887369	-0.000000	0.325790
H134	H	1.220702	0.333333	0.659123
H135	H	1.554036	0.666667	0.992456
H136	H	1.110467	-0.587093	0.110208
H137	H	1.443800	-0.253759	0.443541
H138	H	1.777133	0.079574	0.776875
H139	H	1.051417	0.000006	-0.363600
H140	H	1.384751	0.333340	-0.030266
H141	H	1.718084	0.666673	0.303067
H142	H	0.516666	-0.000007	0.367065
H143	H	0.850000	0.333326	0.700398
H144	H	1.183333	0.666659	1.033731
H145	H	1.110446	-0.412958	0.110205
H146	H	1.443779	-0.079625	0.443538
H147	H	1.777113	0.253709	0.776871
H148	H	1.054852	0.000001	-0.205992
H149	H	1.388186	0.333335	0.127341
H150	H	1.721519	0.666668	0.460674
H151	H	1.394081	0.000005	-0.372419
H152	H	1.727414	0.333339	-0.039085
H153	H	2.060748	0.666672	0.294248
H154	H	0.712813	-0.000003	0.385393
H155	H	1.046146	0.333330	0.718727
H156	H	1.379479	0.666664	1.052060
H157	H	1.397531	-0.000011	-0.214828
H158	H	1.730864	0.333323	0.118505
H159	H	2.064197	0.666656	0.451839
H160	H	0.561555	-0.000084	0.095797
H161	H	0.894888	0.333249	0.429130
H162	H	1.228222	0.666582	0.762464
H163	H	0.736116	-0.000020	0.036192
H164	H	1.069449	0.333313	0.369525
H165	H	1.402783	0.666647	0.702858
H166	H	1.338490	-0.412930	0.311366
H167	H	1.671823	-0.079597	0.644699
H168	H	2.005157	0.253736	0.978032
H169	H	0.932293	-0.000003	0.054518
H170	H	1.265626	0.333331	0.387851
H171	H	1.598959	0.666664	0.721184
H172	H	1.338511	-0.587047	0.311353
H173	H	1.671844	-0.253714	0.644686
H174	H	2.005178	0.079620	0.978020
