data_functionalizedCrystal
_audit_creation_method	'MofGen! by Chris Wilmer'
_symmetry_space_group_name_H-M	'P1'
_symmetry_Int_Tables_number	1
_symmetry_cell_setting	triclinic
loop_
_symmetry_equiv_pos_as_xyz
  x,y,z
_cell_length_a	21.395364
_cell_length_b	19.120786
_cell_length_c	21.395355
_cell_angle_alpha	87.540705
_cell_angle_beta	89.975448
_cell_angle_gamma	92.480057
loop_
_atom_site_label
_atom_site_type_symbol
_atom_site_fract_x
_atom_site_fract_y
_atom_site_fract_z
Zn1	Zn	0.947247	-0.279432	-0.343622
Zn2	Zn	1.280581	0.053901	-0.010289
Zn3	Zn	1.613914	0.387234	0.323045
Zn4	Zn	0.942690	-0.396873	-0.234373
Zn5	Zn	1.276023	-0.063539	0.098961
Zn6	Zn	1.609356	0.269794	0.432294
Zn7	Zn	0.842461	-0.279463	-0.238857
Zn8	Zn	1.175794	0.053870	0.094476
Zn9	Zn	1.509128	0.387204	0.427809
Zn10	Zn	0.837971	-0.396885	-0.339112
Zn11	Zn	1.171304	-0.063552	-0.005779
Zn12	Zn	1.504638	0.269782	0.327554
O13	O	0.892592	-0.338163	-0.288991
O14	O	1.225926	-0.004830	0.044342
O15	O	1.559259	0.328503	0.377676
O16	O	1.034321	-0.294993	-0.329140
O17	O	1.367655	0.038340	0.004193
O18	O	1.700988	0.371674	0.337527
O19	O	0.929366	-0.381306	-0.147289
O20	O	1.262699	-0.047972	0.186044
O21	O	1.596033	0.285361	0.519377
O22	O	0.860148	-0.181168	-0.256519
O23	O	1.193481	0.152165	0.076815
O24	O	1.526814	0.485498	0.410148
O25	O	1.030973	-0.381276	-0.248875
O26	O	1.364306	-0.047942	0.084458
O27	O	1.697640	0.285391	0.417791
O28	O	0.937134	-0.181146	-0.333489
O29	O	1.270467	0.152188	-0.000155
O30	O	1.603800	0.485521	0.333178
O31	O	0.855728	-0.295045	-0.150584
O32	O	1.189062	0.038288	0.182749
O33	O	1.522395	0.371621	0.516082
O34	O	0.754187	-0.295057	-0.252146
O35	O	1.087520	0.038276	0.081187
O36	O	1.420854	0.371609	0.414521
O37	O	0.852495	-0.381297	-0.427389
O38	O	1.185828	-0.047964	-0.094055
O39	O	1.519162	0.285370	0.239278
O40	O	0.750888	-0.381327	-0.325803
O41	O	1.084221	-0.047994	0.007530
O42	O	1.417555	0.285340	0.340864
O43	O	0.932780	-0.295005	-0.430702
O44	O	1.266113	0.038328	-0.097369
O45	O	1.599446	0.371662	0.235965
O46	O	0.925012	-0.495165	-0.244503
O47	O	1.258345	-0.161831	0.088831
O48	O	1.591679	0.171502	0.422164
O49	O	0.848076	-0.495174	-0.321454
O50	O	1.181409	-0.161841	0.011879
O51	O	1.514742	0.171493	0.345212
C52	C	0.729803	-0.338197	-0.288972
C53	C	1.063137	-0.004864	0.044361
C54	C	1.396470	0.328469	0.377694
C55	C	0.660161	-0.338229	-0.288978
C56	C	0.993494	-0.004896	0.044355
C57	C	1.326828	0.328438	0.377688
C58	C	0.629211	-0.293375	-0.330831
C59	C	0.962544	0.039958	0.002502
C60	C	1.295877	0.373292	0.335835
C61	C	0.563776	-0.293356	-0.330835
C62	C	0.897109	0.039977	0.002499
C63	C	1.230443	0.373310	0.335832
C64	C	0.529294	-0.338204	-0.288991
C65	C	0.862627	-0.004871	0.044343
C66	C	1.195960	0.328463	0.377676
C67	C	0.560251	-0.383061	-0.247130
C68	C	0.893585	-0.049728	0.086204
C69	C	1.226918	0.283605	0.419537
C70	C	0.625685	-0.383074	-0.247124
C71	C	0.959018	-0.049740	0.086210
C72	C	1.292352	0.283593	0.419543
C73	C	0.423167	-0.401459	-0.281545
C74	C	0.756500	-0.068125	0.051789
C75	C	1.089834	0.265208	0.385122
C76	C	0.357734	-0.401447	-0.281555
C77	C	0.691068	-0.068114	0.051778
C78	C	1.024401	0.265219	0.385111
C79	C	0.327474	-0.338165	-0.289006
C80	C	0.660808	-0.004832	0.044327
C81	C	0.994141	0.328501	0.377661
C82	C	0.362655	-0.274893	-0.296460
C83	C	0.695988	0.058440	0.036874
C84	C	1.029321	0.391774	0.370207
C85	C	0.428088	-0.274905	-0.296454
C86	C	0.761422	0.058428	0.036880
C87	C	1.094755	0.391761	0.370213
C88	C	0.458341	-0.338195	-0.288992
C89	C	0.791675	-0.004862	0.044341
C90	C	1.125008	0.328471	0.377674
C91	C	0.225573	-0.293287	-0.330865
C92	C	0.558906	0.040046	0.002468
C93	C	0.892239	0.373379	0.335802
C94	C	0.160137	-0.293268	-0.330864
C95	C	0.493470	0.040066	0.002470
C96	C	0.826803	0.373399	0.335803
C97	C	0.156613	-0.382979	-0.247162
C98	C	0.489946	-0.049645	0.086171
C99	C	0.823280	0.283688	0.419505
C100	C	0.222048	-0.382992	-0.247160
C101	C	0.555381	-0.049659	0.086173
C102	C	0.888714	0.283674	0.419507
C103	C	0.256524	-0.338148	-0.289015
C104	C	0.589857	-0.004814	0.044318
C105	C	0.923190	0.328519	0.377652
C106	C	0.885579	-0.520655	-0.282016
C107	C	1.218912	-0.187322	0.051317
C108	C	1.552246	0.146012	0.384650
C109	C	0.882636	-0.598726	-0.279053
C110	C	1.215969	-0.265393	0.054280
C111	C	1.549303	0.067941	0.387613
C112	C	0.921306	-0.635331	-0.317768
C113	C	1.254639	-0.301998	0.015565
C114	C	1.587973	0.031335	0.348899
C115	C	0.918538	-0.708687	-0.314985
C116	C	1.251872	-0.375354	0.018348
C117	C	1.585205	-0.042021	0.351682
C118	C	0.877103	-0.745436	-0.273484
C119	C	1.210437	-0.412103	0.059849
C120	C	1.543770	-0.078769	0.393183
C121	C	0.838429	-0.708825	-0.234768
C122	C	1.171762	-0.375492	0.098566
C123	C	1.505096	-0.042159	0.431899
C124	C	0.841194	-0.635471	-0.237554
C125	C	1.174528	-0.302138	0.095779
C126	C	1.507861	0.031196	0.429113
C127	C	0.866748	-0.966923	-0.263067
C128	C	1.200082	-0.633589	0.070266
C129	C	1.533415	-0.300256	0.403600
C130	C	0.863987	-1.040282	-0.260282
C131	C	1.197321	-0.706949	0.073051
C132	C	1.530654	-0.373616	0.406385
C133	C	0.944096	-1.040139	-0.340501
C134	C	1.277430	-0.706806	-0.007167
C135	C	1.610763	-0.373473	0.326166
C136	C	0.946860	-0.966783	-0.343281
C137	C	1.280194	-0.633450	-0.009947
C138	C	1.613527	-0.300117	0.323386
C139	C	0.908184	-0.930179	-0.304567
C140	C	1.241517	-0.596846	0.028766
C141	C	1.574850	-0.263512	0.362100
C142	C	0.874275	-0.820417	-0.270637
C143	C	1.207608	-0.487084	0.062696
C144	C	1.540941	-0.153751	0.396030
C145	C	0.911010	-0.855199	-0.307417
C146	C	1.244343	-0.521866	0.025916
C147	C	1.577676	-0.188532	0.359249
C148	C	1.056017	-0.338129	-0.289010
C149	C	1.389350	-0.004796	0.044323
C150	C	1.722683	0.328537	0.377656
C151	C	1.125659	-0.338115	-0.289019
C152	C	1.458992	-0.004782	0.044315
C153	C	1.792325	0.328552	0.377648
C154	C	0.892645	-0.338149	-0.452415
C155	C	1.225978	-0.004816	-0.119082
C156	C	1.559311	0.328518	0.214252
C157	C	0.892667	-0.338143	-0.522057
C158	C	1.226001	-0.004810	-0.188723
C159	C	1.559334	0.328524	0.144610
C160	C	0.899650	-0.154959	-0.296007
C161	C	1.232983	0.178375	0.037326
C162	C	1.566317	0.511708	0.370660
C163	C	0.902657	-0.076888	-0.298997
C164	C	1.235991	0.256445	0.034337
C165	C	1.569324	0.589779	0.367670
C166	C	0.934470	-0.293209	-0.556496
C167	C	1.267803	0.040125	-0.223162
C168	C	1.601137	0.373458	0.110171
C169	C	0.934470	-0.293179	-0.621932
C170	C	1.267804	0.040155	-0.288599
C171	C	1.601137	0.373488	0.044734
C172	C	0.892674	-0.338095	-0.652927
C173	C	1.226007	-0.004762	-0.319593
C174	C	1.559341	0.328572	0.013740
C175	C	0.850863	-0.383032	-0.618479
C176	C	1.184197	-0.049699	-0.285146
C177	C	1.517530	0.283634	0.048187
C178	C	0.850860	-0.383056	-0.553044
C179	C	1.184193	-0.049723	-0.219711
C180	C	1.517527	0.283610	0.113622
C181	C	0.885296	-0.401340	-0.754184
C182	C	1.218629	-0.068007	-0.420851
C183	C	1.551963	0.265326	-0.087517
C184	C	0.885304	-0.401318	-0.819618
C185	C	1.218637	-0.067984	-0.486285
C186	C	1.551970	0.265349	-0.152951
C187	C	0.892681	-0.338021	-0.854750
C188	C	1.226014	-0.004688	-0.521417
C189	C	1.559347	0.328646	-0.188084
C190	C	0.900063	-0.274745	-0.824441
C191	C	1.233396	0.058589	-0.491108
C192	C	1.566730	0.391922	-0.157774
C193	C	0.900060	-0.274769	-0.759006
C194	C	1.233393	0.058565	-0.425673
C195	C	1.566726	0.391898	-0.092339
C196	C	0.892673	-0.338074	-0.723880
C197	C	1.226006	-0.004740	-0.390547
C198	C	1.559339	0.328593	-0.057213
C199	C	0.934486	-0.293050	-0.960144
C200	C	1.267819	0.040283	-0.626810
C201	C	1.601153	0.373617	-0.293477
C202	C	0.934482	-0.293019	-1.025582
C203	C	1.267815	0.040315	-0.692248
C204	C	1.601149	0.373648	-0.358915
C205	C	0.850878	-0.382879	-1.022127
C206	C	1.184211	-0.049545	-0.688794
C207	C	1.517545	0.283788	-0.355460
C208	C	0.850879	-0.382904	-0.956691
C209	C	1.184212	-0.049571	-0.623357
C210	C	1.517546	0.283763	-0.290024
C211	C	0.892686	-0.337991	-0.925703
C212	C	1.226020	-0.004657	-0.592370
C213	C	1.559353	0.328676	-0.259036
C214	C	0.892578	-0.338127	-0.126205
C215	C	1.225911	-0.004793	0.207128
C216	C	1.559245	0.328540	0.540462
C217	C	0.892684	-0.337935	-0.056571
C218	C	1.226018	-0.004602	0.276762
C219	C	1.559351	0.328732	0.610095
H220	H	0.650884	-0.419600	-0.213041
H221	H	0.984217	-0.086267	0.120293
H222	H	1.317551	0.247066	0.453626
H223	H	0.835257	-0.937125	-0.231543
H224	H	1.168591	-0.603792	0.101790
H225	H	1.501924	-0.270459	0.435123
F226	F	0.877452	-0.468661	-0.851869
F227	F	1.210786	-0.135328	-0.518536
F228	F	1.544119	0.198005	-0.185203
F229	F	0.455365	-0.468816	-0.273607
F230	F	0.788699	-0.135482	0.059727
F231	F	1.122032	0.197851	0.393060
H232	H	0.456730	-0.223387	-0.302521
H233	H	0.790063	0.109947	0.030813
H234	H	1.123396	0.443280	0.364146
H235	H	0.955050	-0.605415	-0.351560
H236	H	1.288383	-0.272082	-0.018227
H237	H	1.621716	0.061251	0.315107
F238	F	0.959690	-0.747643	-0.356198
F239	F	1.293023	-0.414309	-0.022864
F240	F	1.626356	-0.080976	0.310469
H241	H	0.980600	-0.936864	-0.377074
H242	H	1.313933	-0.603531	-0.043741
H243	H	1.647267	-0.270197	0.289592
H244	H	0.657277	-0.256858	-0.364912
H245	H	0.990611	0.076475	-0.031579
H246	H	1.323944	0.409808	0.301754
F247	F	0.907917	-0.207374	-0.861826
F248	F	1.241250	0.125959	-0.528493
F249	F	1.574583	0.459292	-0.195159
H250	H	0.338019	-0.223363	-0.302527
H251	H	0.671352	0.109971	0.030806
H252	H	1.004685	0.443304	0.364140
H253	H	0.134939	-0.256738	-0.364945
H254	H	0.468272	0.076595	-0.031611
H255	H	0.801605	0.409929	0.301722
H256	H	0.830243	-1.070201	-0.226486
H257	H	1.163576	-0.736868	0.106847
H258	H	1.496910	-0.403534	0.440180
F259	F	0.985254	-1.079101	-0.381701
F260	F	1.318587	-0.745768	-0.048368
F261	F	1.651920	-0.412435	0.284965
H262	H	0.804689	-0.738752	-0.200979
H263	H	1.138023	-0.405419	0.132354
H264	H	1.471356	-0.072085	0.465688
H265	H	0.809704	-0.605667	-0.206029
H266	H	1.143038	-0.272334	0.127304
H267	H	1.476371	0.060999	0.460637
F268	F	0.523552	-0.430789	-0.202594
F269	F	0.856885	-0.097455	0.130739
F270	F	1.190218	0.235878	0.464072
H271	H	0.944744	-0.825276	-0.341210
H272	H	1.278077	-0.491943	-0.007877
H273	H	1.611410	-0.158609	0.325457
H274	H	0.128538	-0.419495	-0.213092
H275	H	0.461871	-0.086161	0.120242
H276	H	0.795204	0.247172	0.453575
H277	H	0.816816	-0.419646	-0.525004
H278	H	1.150150	-0.086313	-0.191671
H279	H	1.483483	0.247020	0.141663
F280	F	0.830175	-0.859535	-0.226472
F281	F	1.163508	-0.526201	0.106861
F282	F	1.496841	-0.192868	0.440194
H283	H	0.538572	-0.256827	-0.364915
H284	H	0.871905	0.076506	-0.031582
H285	H	1.205238	0.409839	0.301751
H286	H	0.879122	-0.452871	-0.725585
H287	H	1.212455	-0.119538	-0.392252
H288	H	1.545789	0.213795	-0.058918
H289	H	0.968512	-0.256636	-0.531270
H290	H	1.301845	0.076697	-0.197936
H291	H	1.635179	0.410031	0.135397
F292	F	0.978954	-0.245340	-0.658593
F293	F	1.312288	0.087993	-0.325260
F294	F	1.645621	0.421327	0.008074
H295	H	0.253645	-0.256768	-0.364942
H296	H	0.586978	0.076566	-0.031608
H297	H	0.920311	0.409899	0.301725
F298	F	0.806390	-0.430678	-1.055109
F299	F	1.139724	-0.097344	-0.721776
F300	F	1.473057	0.235989	-0.388443
H301	H	0.906069	-0.223247	-0.734331
H302	H	1.239402	0.110086	-0.400997
H303	H	1.572736	0.443419	-0.067664
F304	F	0.254988	-0.430730	-0.202612
F305	F	0.588322	-0.097397	0.130722
F306	F	0.921655	0.235936	0.464055
F307	F	0.978978	-0.245247	-0.927162
F308	F	1.312311	0.088086	-0.593829
F309	F	1.645644	0.421419	-0.260495
F310	F	0.978983	-0.245199	-1.062234
F311	F	1.312317	0.088134	-0.728901
F312	F	1.645650	0.421468	-0.395568
F313	F	0.806388	-0.430732	-0.920036
F314	F	1.139722	-0.097399	-0.586703
F315	F	1.473055	0.235934	-0.253370
F316	F	0.320299	-0.468788	-0.273631
F317	F	0.653632	-0.135454	0.059702
F318	F	0.986965	0.197879	0.393035
H319	H	0.816831	-0.419601	-0.643719
H320	H	1.150164	-0.086268	-0.310386
H321	H	1.483497	0.247065	0.022947
