data_functionalizedCrystal
_audit_creation_method	'MofGen! by Chris Wilmer'
_symmetry_space_group_name_H-M	'P1'
_symmetry_Int_Tables_number	1
_symmetry_cell_setting	triclinic
loop_
_symmetry_equiv_pos_as_xyz
  x,y,z
_cell_length_a	12.645331
_cell_length_b	21.295417
_cell_length_c	12.645323
_cell_angle_alpha	89.967055
_cell_angle_beta	89.984262
_cell_angle_gamma	90.028938
loop_
_atom_site_label
_atom_site_type_symbol
_atom_site_fract_x
_atom_site_fract_y
_atom_site_fract_z
Zn1	Zn	1.620643	-0.250617	-0.599191
Zn2	Zn	2.120643	0.249383	-0.099191
Zn3	Zn	1.620487	-0.355892	-0.421906
Zn4	Zn	2.120487	0.144108	0.078094
Zn5	Zn	1.443357	-0.250639	-0.421956
Zn6	Zn	1.943357	0.249361	0.078044
Zn7	Zn	1.443302	-0.355851	-0.599142
Zn8	Zn	1.943302	0.144149	-0.099142
O9	O	1.531947	-0.303250	-0.510549
O10	O	2.031947	0.196750	-0.010549
O11	O	1.768969	-0.264590	-0.575672
O12	O	2.268969	0.235410	-0.075672
O13	O	1.596949	-0.341956	-0.273565
O14	O	2.096949	0.158044	0.226435
O15	O	1.466963	-0.162547	-0.445508
O16	O	1.966963	0.337453	0.054492
O17	O	1.768855	-0.341935	-0.445422
O18	O	2.268855	0.158065	0.054578
O19	O	1.597214	-0.162531	-0.575721
O20	O	2.097214	0.337469	-0.075721
O21	O	1.466812	-0.264627	-0.273602
O22	O	1.966812	0.235373	0.226398
O23	O	1.295003	-0.264588	-0.445462
O24	O	1.795003	0.235412	0.054538
O25	O	1.466868	-0.341865	-0.747496
O26	O	1.966868	0.158135	-0.247496
O27	O	1.294962	-0.341886	-0.575639
O28	O	1.794962	0.158114	-0.075639
O29	O	1.597160	-0.264551	-0.747532
O30	O	2.097160	0.235449	-0.247532
O31	O	1.596895	-0.443976	-0.445375
O32	O	2.096895	0.056024	0.054625
O33	O	1.466718	-0.443946	-0.575590
O34	O	1.966718	0.056054	-0.075590
C35	C	1.256518	-0.303235	-0.510551
C36	C	1.756518	0.196765	-0.010551
C37	C	1.138688	-0.303244	-0.510578
C38	C	1.638688	0.196756	-0.010578
C39	C	0.971133	-0.352140	-0.592046
C40	C	1.471133	0.147860	-0.092046
C41	C	1.093693	-0.351982	-0.592386
C42	C	1.593693	0.148018	-0.092386
C43	C	1.094233	-0.236943	-0.541115
C44	C	1.594233	0.263057	-0.041115
C45	C	0.971635	-0.237242	-0.541689
C46	C	1.471635	0.262758	-0.041689
C47	C	0.971436	-0.320116	-0.398314
C48	C	1.471436	0.179884	0.101686
C49	C	1.094041	-0.321566	-0.398920
C50	C	1.594041	0.178434	0.101080
C51	C	1.531812	-0.466801	-0.510495
C52	C	2.031812	0.033199	-0.010495
C53	C	1.531851	-0.536769	-0.510508
C54	C	2.031851	-0.036769	-0.010508
C55	C	1.599634	-0.569571	-0.578358
C56	C	2.099634	-0.069571	-0.078358
C57	C	1.599672	-0.635313	-0.578384
C58	C	2.099672	-0.135313	-0.078384
C59	C	1.531937	-0.668252	-0.510541
C60	C	2.031937	-0.168252	-0.010541
C61	C	1.464141	-0.635443	-0.442686
C62	C	1.964141	-0.135443	0.057314
C63	C	1.464098	-0.569702	-0.442669
C64	C	1.964098	-0.069702	0.057331
N65	N	1.523925	-0.771516	-0.417766
N66	N	2.023925	-0.271516	0.082234
N67	N	1.523972	-0.833967	-0.417784
N68	N	2.023972	-0.333967	0.082216
C69	C	1.532061	-0.866327	-0.510589
C70	C	2.032061	-0.366327	-0.010589
N71	N	1.540122	-0.833875	-0.603376
N72	N	2.040122	-0.333875	-0.103376
N73	N	1.540080	-0.771418	-0.603356
N74	N	2.040080	-0.271418	-0.103356
C75	C	1.531976	-0.739537	-0.510552
C76	C	2.031976	-0.239537	-0.010552
C77	C	1.599888	-0.970413	-0.578473
C78	C	2.099888	-0.470413	-0.078473
C79	C	1.599918	-1.036157	-0.578501
C80	C	2.099918	-0.536157	-0.078501
C81	C	1.464393	-1.036285	-0.442793
C82	C	1.964393	-0.536285	0.057207
C83	C	1.464358	-0.970543	-0.442775
C84	C	1.964358	-0.470543	0.057225
C85	C	1.532111	-0.937611	-0.510613
C86	C	2.032111	-0.437611	-0.010613
C87	C	1.808452	-0.303264	-0.510547
C88	C	2.308452	0.196736	-0.010547
C89	C	1.926282	-0.303271	-0.510546
C90	C	2.426282	0.196729	-0.010546
C91	C	1.532025	-0.303201	-0.787054
C92	C	2.032025	0.196799	-0.287054
C93	C	1.532059	-0.303180	-0.904884
C94	C	2.032059	0.196820	-0.404884
C95	C	1.532112	-0.139059	-0.510626
C96	C	2.032112	0.360941	-0.010626
C97	C	1.532182	-0.069091	-0.510659
C98	C	2.032182	0.430909	-0.010659
C99	C	1.449839	-0.351590	-1.072426
C100	C	1.949839	0.148410	-0.572426
C101	C	1.450055	-0.351830	-0.949866
C102	C	1.950055	0.148170	-0.449866
C103	C	1.643752	-0.321184	-0.949386
C104	C	2.143752	0.178816	-0.449386
C105	C	1.643301	-0.321488	-1.071985
C106	C	2.143301	0.178512	-0.571985
C107	C	1.503641	-0.236496	-1.072101
C108	C	2.003641	0.263504	-0.572101
C109	C	1.501149	-0.236895	-0.949495
C110	C	2.001149	0.263105	-0.449495
C111	C	1.531930	-0.303253	-0.235119
C112	C	2.031930	0.196747	0.264881
C113	C	1.532103	-0.303096	-0.117290
C114	C	2.032103	0.196904	0.382710
H115	H	0.940497	-0.367639	-0.370562
H116	H	1.440497	0.132361	0.129438
Br117	Br	0.922179	-0.174499	-0.447070
Br118	Br	1.422179	0.325501	0.052930
Br119	Br	1.311373	-0.332990	-1.121557
Br120	Br	1.811373	0.167010	-0.621557
H121	H	1.418952	-0.223318	-0.920409
H122	H	1.918952	0.276682	-0.420409
H123	H	0.943065	-0.222953	-0.623735
H124	H	1.443065	0.277047	-0.123735
Br125	Br	1.370255	-0.209142	-1.123628
Br126	Br	1.870255	0.290858	-0.623628
Br127	Br	1.312009	-0.333047	-0.899709
Br128	Br	1.812009	0.166953	-0.399709
Br129	Br	1.372359	-0.926024	-0.350689
Br130	Br	1.872359	-0.426024	0.149311
Br131	Br	1.603506	-0.176277	-1.120457
Br132	Br	2.103506	0.323723	-0.620457
Br133	Br	1.691901	-1.080674	-0.670609
Br134	Br	2.191901	-0.580674	-0.170609
Br135	Br	1.480773	-0.433359	-1.123857
Br136	Br	1.980773	0.066641	-0.623857
H137	H	1.468842	-0.401203	-0.920538
H138	H	1.968842	0.098797	-0.420538
H139	H	1.409236	-1.063104	-0.387561
H140	H	1.909236	-0.563104	0.112439
Br141	Br	1.593731	-0.173489	-0.898479
Br142	Br	2.093731	0.326511	-0.398479
H143	H	1.667429	-0.370174	-1.100581
H144	H	2.167429	0.129826	-0.600581
H145	H	1.706670	-0.287701	-1.101663
H146	H	2.206670	0.212299	-0.601663
H147	H	1.123748	-0.401148	-0.573246
H148	H	1.623748	0.098852	-0.073246
Br149	Br	1.748653	-0.264177	-0.900835
Br150	Br	2.248653	0.235823	-0.400835
Br151	Br	1.684663	-0.401480	-0.898216
Br152	Br	2.184663	0.098520	-0.398216
Br153	Br	1.691674	-0.679839	-0.670468
Br154	Br	2.191674	-0.179839	-0.170468
Br155	Br	0.919793	-0.333816	-0.729840
Br156	Br	1.419793	0.166184	-0.229840
Br157	Br	0.921944	-0.434361	-0.560507
Br158	Br	1.421944	0.065639	-0.060507
H159	H	1.654800	-0.542759	-0.633599
H160	H	2.154800	-0.042759	-0.133599
H161	H	1.123046	-0.340834	-0.675545
H162	H	1.623046	0.159166	-0.175545
H163	H	1.123379	-0.199543	-0.483609
H164	H	1.623379	0.300457	0.016391
H165	H	1.123107	-0.370354	-0.375888
H166	H	1.623107	0.129646	0.124112
Br167	Br	1.145447	-0.212691	-0.676383
Br168	Br	1.645447	0.287309	-0.176383
Br169	Br	1.145081	-0.266542	-0.292273
Br170	Br	1.645081	0.233458	0.207727
Br171	Br	1.372205	-0.680144	-0.350622
Br172	Br	1.872205	-0.180144	0.149378
Br173	Br	0.923094	-0.260789	-0.297101
Br174	Br	1.423094	0.239211	0.202899
H175	H	1.408900	-0.542994	-0.387416
H176	H	1.908900	-0.042994	0.112584
Br177	Br	1.691833	-0.925716	-0.670540
Br178	Br	2.191833	-0.425716	-0.170540
