data_functionalizedCrystal
_audit_creation_method	'MofGen! by Chris Wilmer'
_symmetry_space_group_name_H-M	'P1'
_symmetry_Int_Tables_number	1
_symmetry_cell_setting	triclinic
loop_
_symmetry_equiv_pos_as_xyz
  x,y,z
_cell_length_a	21.395362
_cell_length_b	21.395355
_cell_length_c	21.395361
_cell_angle_alpha	89.978489
_cell_angle_beta	90.046585
_cell_angle_gamma	89.956060
loop_
_atom_site_label
_atom_site_type_symbol
_atom_site_fract_x
_atom_site_fract_y
_atom_site_fract_z
Zn1	Zn	0.957859	-0.354573	-0.249246
Zn2	Zn	1.207859	-0.104573	0.000754
Zn3	Zn	1.457859	0.145427	0.250754
Zn4	Zn	1.707859	0.395427	0.500754
Zn5	Zn	0.957762	-0.249790	-0.354005
Zn6	Zn	1.207762	0.000210	-0.104005
Zn7	Zn	1.457762	0.250210	0.145995
Zn8	Zn	1.707762	0.500210	0.395995
Zn9	Zn	0.853074	-0.249774	-0.249275
Zn10	Zn	1.103074	0.000226	0.000725
Zn11	Zn	1.353074	0.250226	0.250725
Zn12	Zn	1.603074	0.500226	0.500725
Zn13	Zn	0.853044	-0.354494	-0.354018
Zn14	Zn	1.103044	-0.104494	-0.104018
Zn15	Zn	1.353044	0.145506	0.145982
Zn16	Zn	1.603044	0.395506	0.395982
O17	O	0.905435	-0.302158	-0.301636
O18	O	1.155435	-0.052158	-0.051636
O19	O	1.405435	0.197842	0.198364
O20	O	1.655435	0.447842	0.448364
O21	O	1.045524	-0.340712	-0.263125
O22	O	1.295524	-0.090712	-0.013125
O23	O	1.545524	0.159288	0.236875
O24	O	1.795524	0.409288	0.486875
O25	O	0.943847	-0.162110	-0.340119
O26	O	1.193847	0.087890	-0.090119
O27	O	1.443847	0.337890	0.159881
O28	O	1.693847	0.587890	0.409881
O29	O	0.867028	-0.263702	-0.161593
O30	O	1.117028	-0.013702	0.088407
O31	O	1.367028	0.236298	0.338407
O32	O	1.617028	0.486298	0.588407
O33	O	1.045453	-0.263729	-0.340091
O34	O	1.295453	-0.013729	-0.090091
O35	O	1.545453	0.236271	0.159909
O36	O	1.795453	0.486271	0.409909
O37	O	0.944013	-0.340697	-0.161572
O38	O	1.194013	-0.090697	0.088428
O39	O	1.444013	0.159303	0.338428
O40	O	1.694013	0.409303	0.588428
O41	O	0.866934	-0.162098	-0.263174
O42	O	1.116934	0.087902	-0.013174
O43	O	1.366934	0.337902	0.236826
O44	O	1.616934	0.587902	0.486826
O45	O	0.765392	-0.263626	-0.263187
O46	O	1.015392	-0.013626	-0.013187
O47	O	1.265392	0.236374	0.236813
O48	O	1.515392	0.486374	0.486813
O49	O	0.866976	-0.442183	-0.340113
O50	O	1.116976	-0.192183	-0.090113
O51	O	1.366976	0.057817	0.159887
O52	O	1.616976	0.307817	0.409887
O53	O	0.765370	-0.340564	-0.340141
O54	O	1.015370	-0.090564	-0.090141
O55	O	1.265370	0.159436	0.159859
O56	O	1.515370	0.409436	0.409859
O57	O	0.943983	-0.442240	-0.263137
O58	O	1.193983	-0.192240	-0.013137
O59	O	1.443983	0.057760	0.236863
O60	O	1.693983	0.307760	0.486863
O61	O	0.943817	-0.263653	-0.441685
O62	O	1.193817	-0.013653	-0.191685
O63	O	1.443817	0.236347	0.058315
O64	O	1.693817	0.486347	0.308315
O65	O	0.866881	-0.340579	-0.441695
O66	O	1.116881	-0.090579	-0.191695
O67	O	1.366881	0.159421	0.058305
O68	O	1.616881	0.409421	0.308305
C69	C	0.742647	-0.302085	-0.301669
C70	C	0.992647	-0.052085	-0.051669
C71	C	1.242647	0.197915	0.198331
C72	C	1.492647	0.447915	0.448331
C73	C	0.673006	-0.302069	-0.301698
C74	C	0.923006	-0.052069	-0.051698
C75	C	1.173006	0.197931	0.198302
C76	C	1.423006	0.447931	0.448302
C77	C	0.905487	-0.465581	-0.301623
C78	C	1.155487	-0.215581	-0.051623
C79	C	1.405487	0.034419	0.198377
C80	C	1.655487	0.284419	0.448377
C81	C	0.905509	-0.535222	-0.301618
C82	C	1.155509	-0.285222	-0.051618
C83	C	1.405509	-0.035222	0.198382
C84	C	1.655509	0.214778	0.448382
C85	C	0.905352	-0.302123	-0.464424
C86	C	1.155352	-0.052123	-0.214424
C87	C	1.405352	0.197877	0.035576
C88	C	1.655352	0.447877	0.285576
C89	C	0.905374	-0.302129	-0.534065
C90	C	1.155374	-0.052129	-0.284065
C91	C	1.405374	0.197871	-0.034065
C92	C	1.655374	0.447871	0.215935
C93	C	0.640297	-0.342070	-0.341822
C94	C	0.890297	-0.092070	-0.091822
C95	C	1.140297	0.157930	0.158178
C96	C	1.390297	0.407930	0.408178
C97	C	0.574862	-0.342098	-0.341806
C98	C	0.824862	-0.092098	-0.091806
C99	C	1.074862	0.157902	0.158194
C100	C	1.324862	0.407902	0.408194
C101	C	0.542138	-0.302113	-0.301674
C102	C	0.792138	-0.052113	-0.051674
C103	C	1.042138	0.197887	0.198326
C104	C	1.292138	0.447887	0.448326
C105	C	0.574854	-0.262109	-0.261543
C106	C	0.824854	-0.012109	-0.011543
C107	C	1.074854	0.237891	0.238457
C108	C	1.324854	0.487891	0.488457
C109	C	0.640288	-0.262087	-0.261555
C110	C	0.890288	-0.012087	-0.011555
C111	C	1.140288	0.237913	0.238445
C112	C	1.390288	0.487913	0.488445
C113	C	0.438413	-0.245708	-0.296627
C114	C	0.688413	0.004292	-0.046627
C115	C	0.938413	0.254292	0.203373
C116	C	1.188413	0.504292	0.453373
C117	C	0.372980	-0.245730	-0.296619
C118	C	0.622980	0.004270	-0.046619
C119	C	0.872980	0.254270	0.203381
C120	C	1.122980	0.504270	0.453381
C121	C	0.340317	-0.302182	-0.301633
C122	C	0.590317	-0.052182	-0.051633
C123	C	0.840317	0.197818	0.198367
C124	C	1.090317	0.447818	0.448367
C125	C	0.373095	-0.358616	-0.306668
C126	C	0.623095	-0.108616	-0.056668
C127	C	0.873095	0.141384	0.193332
C128	C	1.123095	0.391384	0.443332
C129	C	0.438529	-0.358594	-0.306681
C130	C	0.688529	-0.108594	-0.056681
C131	C	0.938529	0.141406	0.193319
C132	C	1.188529	0.391406	0.443319
C133	C	0.471185	-0.302133	-0.301656
C134	C	0.721185	-0.052133	-0.051656
C135	C	0.971185	0.197867	0.198344
C136	C	1.221185	0.447867	0.448344
C137	C	0.236656	-0.342218	-0.341742
C138	C	0.486656	-0.092218	-0.091742
C139	C	0.736656	0.157782	0.158258
C140	C	0.986656	0.407782	0.408258
C141	C	0.171219	-0.342247	-0.341723
C142	C	0.421219	-0.092247	-0.091723
C143	C	0.671219	0.157753	0.158277
C144	C	0.921219	0.407753	0.408277
C145	C	0.171213	-0.262252	-0.261462
C146	C	0.421213	-0.012252	-0.011462
C147	C	0.671213	0.237748	0.238538
C148	C	0.921213	0.487748	0.488538
C149	C	0.236648	-0.262229	-0.261479
C150	C	0.486648	-0.012229	-0.011479
C151	C	0.736648	0.237771	0.238521
C152	C	0.986648	0.487771	0.488521
C153	C	0.269366	-0.302211	-0.301622
C154	C	0.519366	-0.052211	-0.051622
C155	C	0.769366	0.197789	0.198378
C156	C	1.019366	0.447789	0.448378
C157	C	1.068858	-0.302231	-0.301603
C158	C	1.318858	-0.052231	-0.051603
C159	C	1.568858	0.197769	0.198397
C160	C	1.818858	0.447769	0.448397
C161	C	1.138499	-0.302262	-0.301589
C162	C	1.388499	-0.052262	-0.051589
C163	C	1.638499	0.197738	0.198411
C164	C	1.888499	0.447738	0.448411
C165	C	0.945605	-0.567966	-0.261535
C166	C	1.195605	-0.317966	-0.011535
C167	C	1.445605	-0.067966	0.238465
C168	C	1.695605	0.182034	0.488465
C169	C	0.945604	-0.633402	-0.261508
C170	C	1.195604	-0.383402	-0.011508
C171	C	1.445604	-0.133402	0.238492
C172	C	1.695604	0.116598	0.488492
C173	C	0.905514	-0.666091	-0.301575
C174	C	1.155514	-0.416091	-0.051575
C175	C	1.405514	-0.166091	0.198425
C176	C	1.655514	0.083909	0.448425
C177	C	0.865410	-0.633339	-0.341661
C178	C	1.115410	-0.383339	-0.091661
C179	C	1.365410	-0.133339	0.158339
C180	C	1.615410	0.116661	0.408339
C181	C	0.865407	-0.567904	-0.341682
C182	C	1.115407	-0.317904	-0.091682
C183	C	1.365407	-0.067904	0.158318
C184	C	1.615407	0.182096	0.408318
C185	C	0.900538	-0.769752	-0.357992
C186	C	1.150538	-0.519752	-0.107992
C187	C	1.400538	-0.269752	0.142008
C188	C	1.650538	-0.019752	0.392008
C189	C	0.900545	-0.835185	-0.357972
C190	C	1.150545	-0.585185	-0.107972
C191	C	1.400545	-0.335185	0.142028
C192	C	1.650545	-0.085185	0.392028
C193	C	0.905518	-0.867911	-0.301509
C194	C	1.155518	-0.617911	-0.051509
C195	C	1.405518	-0.367911	0.198491
C196	C	1.655518	-0.117911	0.448491
C197	C	0.910497	-0.835197	-0.245065
C198	C	1.160497	-0.585197	0.004935
C199	C	1.410497	-0.335197	0.254935
C200	C	1.660497	-0.085197	0.504935
C201	C	0.910495	-0.769763	-0.245086
C202	C	1.160495	-0.519763	0.004914
C203	C	1.410495	-0.269763	0.254914
C204	C	1.660495	-0.019763	0.504914
C205	C	0.905512	-0.737043	-0.301556
C206	C	1.155512	-0.487043	-0.051556
C207	C	1.405512	-0.237043	0.198444
C208	C	1.655512	0.012957	0.448444
C209	C	0.945615	-0.971608	-0.261393
C210	C	1.195615	-0.721608	-0.011393
C211	C	1.445615	-0.471608	0.238607
C212	C	1.695615	-0.221608	0.488607
C213	C	0.945610	-1.037045	-0.261365
C214	C	1.195610	-0.787045	-0.011365
C215	C	1.445610	-0.537045	0.238635
C216	C	1.695610	-0.287045	0.488635
C217	C	0.865419	-1.036980	-0.341524
C218	C	1.115419	-0.786980	-0.091524
C219	C	1.365419	-0.536980	0.158476
C220	C	1.615419	-0.286980	0.408476
C221	C	0.865421	-0.971545	-0.341547
C222	C	1.115421	-0.721545	-0.091547
C223	C	1.365421	-0.471545	0.158453
C224	C	1.615421	-0.221545	0.408453
C225	C	0.905522	-0.938863	-0.301482
C226	C	1.155522	-0.688863	-0.051482
C227	C	1.405522	-0.438863	0.198518
C228	C	1.655522	-0.188863	0.448518
C229	C	0.905419	-0.139370	-0.301603
C230	C	1.155419	0.110630	-0.051603
C231	C	1.405419	0.360630	0.198397
C232	C	1.655419	0.610630	0.448397
C233	C	0.905518	-0.069729	-0.301432
C234	C	1.155518	0.180271	-0.051432
C235	C	1.405518	0.430271	0.198568
C236	C	1.655518	0.680271	0.448568
C237	C	0.945470	-0.262114	-0.566752
C238	C	1.195470	-0.012114	-0.316752
C239	C	1.445470	0.237886	-0.066752
C240	C	1.695470	0.487886	0.183248
C241	C	0.945499	-0.262128	-0.632188
C242	C	1.195499	-0.012128	-0.382188
C243	C	1.445499	0.237872	-0.132188
C244	C	1.695499	0.487872	0.117812
C245	C	0.905421	-0.302150	-0.664933
C246	C	1.155421	-0.052150	-0.414933
C247	C	1.405421	0.197850	-0.164933
C248	C	1.655421	0.447850	0.085067
C249	C	0.865322	-0.342172	-0.632238
C250	C	1.115322	-0.092172	-0.382238
C251	C	1.365322	0.157828	-0.132238
C252	C	1.615322	0.407828	0.117762
C253	C	0.865299	-0.342162	-0.566804
C254	C	1.115299	-0.092162	-0.316804
C255	C	1.365299	0.157838	-0.066804
C256	C	1.615299	0.407838	0.183196
C257	C	0.849006	-0.307041	-0.768664
C258	C	1.099006	-0.057041	-0.518664
C259	C	1.349006	0.192959	-0.268664
C260	C	1.599006	0.442959	-0.018664
C261	C	0.849029	-0.307047	-0.834097
C262	C	1.099029	-0.057047	-0.584097
C263	C	1.349029	0.192953	-0.334097
C264	C	1.599029	0.442953	-0.084097
C265	C	0.905494	-0.302187	-0.866754
C266	C	1.155494	-0.052187	-0.616754
C267	C	1.405494	0.197813	-0.366754
C268	C	1.655494	0.447813	-0.116754
C269	C	0.961939	-0.297307	-0.833970
C270	C	1.211939	-0.047307	-0.583970
C271	C	1.461939	0.202693	-0.333970
C272	C	1.711939	0.452693	-0.083970
C273	C	0.961915	-0.297296	-0.768536
C274	C	1.211915	-0.047296	-0.518536
C275	C	1.461915	0.202704	-0.268536
C276	C	1.711915	0.452704	-0.018536
C277	C	0.905443	-0.302167	-0.735886
C278	C	1.155443	-0.052167	-0.485886
C279	C	1.405443	0.197833	-0.235886
C280	C	1.655443	0.447833	0.014114
C281	C	0.945625	-0.262186	-0.970394
C282	C	1.195625	-0.012186	-0.720394
C283	C	1.445625	0.237814	-0.470394
C284	C	1.695625	0.487814	-0.220394
C285	C	0.945655	-0.262204	-1.035830
C286	C	1.195655	-0.012204	-0.785830
C287	C	1.445655	0.237796	-0.535830
C288	C	1.695655	0.487796	-0.285830
C289	C	0.865473	-0.342245	-1.035879
C290	C	1.115473	-0.092245	-0.785879
C291	C	1.365473	0.157755	-0.535879
C292	C	1.615473	0.407755	-0.285879
C293	C	0.865448	-0.342230	-0.970444
C294	C	1.115448	-0.092230	-0.720444
C295	C	1.365448	0.157770	-0.470444
C296	C	1.615448	0.407770	-0.220444
C297	C	0.905524	-0.302197	-0.937705
C298	C	1.155524	-0.052197	-0.687705
C299	C	1.405524	0.197803	-0.437705
C300	C	1.655524	0.447803	-0.187705
C301	C	0.905535	-0.302206	-0.138213
C302	C	1.155535	-0.052206	0.111787
C303	C	1.405535	0.197794	0.361787
C304	C	1.655535	0.447794	0.611787
C305	C	0.905578	-0.302227	-0.068571
C306	C	1.155578	-0.052227	0.181429
C307	C	1.405578	0.197773	0.431429
C308	C	1.655578	0.447773	0.681429
H309	H	0.666932	-0.374627	-0.374509
H310	H	0.916932	-0.124627	-0.124509
H311	H	1.166932	0.125373	0.125491
H312	H	1.416932	0.375373	0.375491
Cl313	Cl	0.479468	-0.174732	-0.290325
Cl314	Cl	0.729468	0.075268	-0.040325
Cl315	Cl	0.979468	0.325268	0.209675
Cl316	Cl	1.229468	0.575268	0.459675
Cl317	Cl	0.995860	-0.211796	-0.525598
Cl318	Cl	1.245860	0.038204	-0.275598
Cl319	Cl	1.495860	0.288204	-0.025598
Cl320	Cl	1.745860	0.538204	0.224402
Cl321	Cl	0.130099	-0.392543	-0.392165
Cl322	Cl	0.380099	-0.142543	-0.142165
Cl323	Cl	0.630099	0.107457	0.107835
Cl324	Cl	0.880099	0.357457	0.357835
H325	H	0.346502	-0.404585	-0.310751
H326	H	0.596502	-0.154585	-0.060751
H327	H	0.846502	0.095415	0.189249
H328	H	1.096502	0.345415	0.439249
H329	H	0.263280	-0.229652	-0.228809
H330	H	0.513280	0.020348	0.021191
H331	H	0.763280	0.270348	0.271191
H332	H	1.013280	0.520348	0.521191
Cl333	Cl	0.277790	-0.392483	-0.392203
Cl334	Cl	0.527790	-0.142483	-0.142203
Cl335	Cl	0.777790	0.107517	0.107797
Cl336	Cl	1.027790	0.357517	0.357797
Cl337	Cl	0.130080	-0.211989	-0.211006
Cl338	Cl	0.380080	0.038011	0.038994
Cl339	Cl	0.630080	0.288011	0.288994
Cl340	Cl	0.880080	0.538011	0.538994
H341	H	0.832766	-0.659958	-0.374282
H342	H	1.082766	-0.409958	-0.124282
H343	H	1.332766	-0.159958	0.125718
H344	H	1.582766	0.090042	0.375718
H345	H	0.548226	-0.374674	-0.374479
H346	H	0.798226	-0.124674	-0.124479
H347	H	1.048226	0.125326	0.125521
H348	H	1.298226	0.375326	0.375521
Cl349	Cl	1.032870	-0.291168	-0.727324
Cl350	Cl	1.282870	-0.041168	-0.477324
Cl351	Cl	1.532870	0.208832	-0.227324
Cl352	Cl	1.782870	0.458832	0.022676
H353	H	0.978153	-0.229544	-0.658807
H354	H	1.228153	0.020456	-0.408807
H355	H	1.478153	0.270456	-0.158807
H356	H	1.728153	0.520456	0.091193
H357	H	0.803068	-0.311015	-0.860785
H358	H	1.053068	-0.061015	-0.610785
H359	H	1.303068	0.188985	-0.360785
H360	H	1.553068	0.438985	-0.110785
Cl361	Cl	1.032928	-0.291190	-0.875017
Cl362	Cl	1.282928	-0.041190	-0.625017
Cl363	Cl	1.532928	0.208810	-0.375017
Cl364	Cl	1.782928	0.458810	-0.125017
Cl365	Cl	0.479734	-0.429535	-0.313006
Cl366	Cl	0.729734	-0.179535	-0.063006
Cl367	Cl	0.979734	0.070465	0.186994
Cl368	Cl	1.229734	0.320465	0.436994
H369	H	0.978259	-0.229590	-0.943737
H370	H	1.228259	0.020410	-0.693737
H371	H	1.478259	0.270410	-0.443737
H372	H	1.728259	0.520410	-0.193737
Cl373	Cl	0.916749	-0.728639	-0.174132
Cl374	Cl	1.166749	-0.478639	0.075868
Cl375	Cl	1.416749	-0.228639	0.325868
Cl376	Cl	1.666749	0.021361	0.575868
Cl377	Cl	0.331780	-0.174786	-0.290289
Cl378	Cl	0.581780	0.075214	-0.040289
Cl379	Cl	0.831780	0.325214	0.209711
Cl380	Cl	1.081780	0.575214	0.459711
H381	H	0.548206	-0.229554	-0.228866
H382	H	0.798206	0.020446	0.021134
H383	H	1.048206	0.270446	0.271134
H384	H	1.298206	0.520446	0.521134
Cl385	Cl	0.681410	-0.211795	-0.211110
Cl386	Cl	0.931410	0.038205	0.038890
Cl387	Cl	1.181410	0.288205	0.288890
Cl388	Cl	1.431410	0.538205	0.538890
Cl389	Cl	0.996072	-0.211900	-1.076924
Cl390	Cl	1.246072	0.038100	-0.826924
Cl391	Cl	1.496072	0.288100	-0.576924
Cl392	Cl	1.746072	0.538100	-0.326924
H393	H	0.978258	-0.541360	-0.228910
H394	H	1.228258	-0.291360	0.021090
H395	H	1.478258	-0.041360	0.271090
H396	H	1.728258	0.208640	0.521090
Cl397	Cl	0.815014	-0.930379	-0.391943
Cl398	Cl	1.065014	-0.680379	-0.141943
Cl399	Cl	1.315014	-0.430379	0.108057
Cl400	Cl	1.565014	-0.180379	0.358057
Cl401	Cl	0.996002	-0.674574	-0.211101
Cl402	Cl	1.246002	-0.424574	0.038899
Cl403	Cl	1.496002	-0.174574	0.288899
Cl404	Cl	1.746002	0.075426	0.538899
Cl405	Cl	0.996024	-0.930519	-0.211024
Cl406	Cl	1.246024	-0.680519	0.038976
Cl407	Cl	1.496024	-0.430519	0.288976
Cl408	Cl	1.746024	-0.180519	0.538976
H409	H	0.914548	-0.861842	-0.199088
H410	H	1.164548	-0.611842	0.050912
H411	H	1.414548	-0.361842	0.300912
H412	H	1.664548	-0.111842	0.550912
Cl413	Cl	0.996031	-1.078209	-0.210980
Cl414	Cl	1.246031	-0.828209	0.039020
Cl415	Cl	1.496031	-0.578209	0.289020
Cl416	Cl	1.746031	-0.328209	0.539020
H417	H	0.896494	-0.861815	-0.403932
H418	H	1.146494	-0.611815	-0.153932
H419	H	1.396494	-0.361815	0.096068
H420	H	1.646494	-0.111815	0.346068
Cl421	Cl	0.778015	-0.313152	-0.727616
Cl422	Cl	1.028015	-0.063152	-0.477616
Cl423	Cl	1.278015	0.186848	-0.227616
Cl424	Cl	1.528015	0.436848	0.022384
Cl425	Cl	0.815013	-1.078069	-0.391890
Cl426	Cl	1.065013	-0.828069	-0.141890
Cl427	Cl	1.315013	-0.578069	0.108110
Cl428	Cl	1.565013	-0.328069	0.358110
Cl429	Cl	0.815092	-0.392563	-1.077039
Cl430	Cl	1.065092	-0.142563	-0.827039
Cl431	Cl	1.315092	0.107437	-0.577039
Cl432	Cl	1.565092	0.357437	-0.327039
Cl433	Cl	0.814997	-0.526738	-0.392078
Cl434	Cl	1.064997	-0.276738	-0.142078
Cl435	Cl	1.314997	-0.026738	0.107922
Cl436	Cl	1.564997	0.223262	0.357922
H437	H	0.832795	-0.374811	-0.943828
H438	H	1.082795	-0.124811	-0.693828
H439	H	1.332795	0.125189	-0.443828
H440	H	1.582795	0.375189	-0.193828
H441	H	0.896321	-0.743111	-0.403959
H442	H	1.146321	-0.493111	-0.153959
H443	H	1.396321	-0.243111	0.096041
H444	H	1.646321	0.006889	0.346041
H445	H	0.832691	-0.374760	-0.658904
H446	H	1.082691	-0.124760	-0.408904
H447	H	1.332691	0.125240	-0.158904
H448	H	1.582691	0.375240	0.091096
Cl449	Cl	0.814887	-0.392469	-0.525709
Cl450	Cl	1.064887	-0.142469	-0.275709
Cl451	Cl	1.314887	0.107531	-0.025709
Cl452	Cl	1.564887	0.357531	0.224291
