data_functionalizedCrystal
_audit_creation_method	'MofGen! by Chris Wilmer'
_symmetry_space_group_name_H-M	'P1'
_symmetry_Int_Tables_number	1
_symmetry_cell_setting	triclinic
loop_
_symmetry_equiv_pos_as_xyz
  x,y,z
_cell_length_a	19.077105
_cell_length_b	21.295417
_cell_length_c	19.076919
_cell_angle_alpha	87.732301
_cell_angle_beta	89.923776
_cell_angle_gamma	87.725910
loop_
_atom_site_label
_atom_site_type_symbol
_atom_site_fract_x
_atom_site_fract_y
_atom_site_fract_z
Zn1	Zn	1.058240	-0.304535	0.440394
Zn2	Zn	1.308240	-0.054535	0.690394
Zn3	Zn	1.558240	0.195465	0.940394
Zn4	Zn	1.808240	0.445465	1.190394
Zn5	Zn	1.062870	-0.405748	0.322879
Zn6	Zn	1.312870	-0.155748	0.572879
Zn7	Zn	1.562870	0.094252	0.822879
Zn8	Zn	1.812870	0.344252	1.072879
Zn9	Zn	0.945459	-0.296102	0.318188
Zn10	Zn	1.195459	-0.046102	0.568188
Zn11	Zn	1.445459	0.203898	0.818188
Zn12	Zn	1.695459	0.453898	1.068188
Zn13	Zn	0.940692	-0.405368	0.435631
Zn14	Zn	1.190692	-0.155368	0.685631
Zn15	Zn	1.440692	0.094632	0.935631
Zn16	Zn	1.690692	0.344632	1.185631
O17	O	1.001815	-0.352938	0.379273
O18	O	1.251815	-0.102938	0.629273
O19	O	1.501815	0.147062	0.879273
O20	O	1.751815	0.397062	1.129273
O21	O	1.157186	-0.321649	0.428761
O22	O	1.407186	-0.071649	0.678761
O23	O	1.657186	0.178351	0.928761
O24	O	1.907186	0.428351	1.178761
O25	O	1.051228	-0.387833	0.223925
O26	O	1.301228	-0.137833	0.473925
O27	O	1.551228	0.112167	0.723925
O28	O	1.801228	0.362167	0.973925
O29	O	0.960477	-0.209135	0.334428
O30	O	1.210477	0.040865	0.584428
O31	O	1.460477	0.290865	0.834428
O32	O	1.710477	0.540865	1.084428
O33	O	1.160587	-0.396010	0.342424
O34	O	1.410587	-0.146010	0.592424
O35	O	1.660587	0.103990	0.842424
O36	O	1.910587	0.353990	1.092424
O37	O	1.043337	-0.215330	0.424212
O38	O	1.293337	0.034670	0.674212
O39	O	1.543337	0.284670	0.924212
O40	O	1.793337	0.534670	1.174212
O41	O	0.964966	-0.307277	0.220479
O42	O	1.214966	-0.057277	0.470479
O43	O	1.464966	0.192723	0.720479
O44	O	1.714966	0.442723	0.970479
O45	O	0.846495	-0.306909	0.329811
O46	O	1.096495	-0.056909	0.579811
O47	O	1.346495	0.193091	0.829811
O48	O	1.596495	0.443091	1.079811
O49	O	0.952352	-0.395363	0.534594
O50	O	1.202352	-0.145363	0.784594
O51	O	1.452352	0.104637	1.034594
O52	O	1.702352	0.354637	1.284594
O53	O	0.842993	-0.387186	0.416096
O54	O	1.092993	-0.137186	0.666096
O55	O	1.342993	0.112814	0.916096
O56	O	1.592993	0.362814	1.166096
O57	O	1.038714	-0.321281	0.538093
O58	O	1.288714	-0.071281	0.788093
O59	O	1.538714	0.178719	1.038093
O60	O	1.788714	0.428719	1.288093
O61	O	1.046605	-0.493784	0.337806
O62	O	1.296605	-0.243784	0.587806
O63	O	1.546605	0.006216	0.837806
O64	O	1.796605	0.256216	1.087806
O65	O	0.956842	-0.493505	0.420645
O66	O	1.206842	-0.243505	0.670645
O67	O	1.456842	0.006495	0.920645
O68	O	1.706842	0.256495	1.170645
C69	C	0.819248	-0.346091	0.371928
C70	C	1.069248	-0.096091	0.621928
C71	C	1.319248	0.153909	0.871928
C72	C	1.569248	0.403909	1.121928
C73	C	0.741144	-0.343178	0.368802
C74	C	0.991144	-0.093178	0.618802
C75	C	1.241144	0.156822	0.868802
C76	C	1.491144	0.406822	1.118802
C77	C	0.702648	-0.383664	0.412187
C78	C	0.952648	-0.133664	0.662187
C79	C	1.202648	0.116336	0.912187
C80	C	1.452648	0.366336	1.162187
C81	C	0.629261	-0.380918	0.409254
C82	C	0.879261	-0.130918	0.659254
C83	C	1.129261	0.119082	0.909254
C84	C	1.379261	0.369082	1.159254
C85	C	0.594371	-0.337690	0.362931
C86	C	0.844371	-0.087690	0.612931
C87	C	1.094371	0.162310	0.862931
C88	C	1.344371	0.412310	1.112931
C89	C	0.632872	-0.297200	0.319544
C90	C	0.882872	-0.047200	0.569544
C91	C	1.132872	0.202800	0.819544
C92	C	1.382872	0.452800	1.069544
C93	C	0.706257	-0.299943	0.322482
C94	C	0.956257	-0.049943	0.572482
C95	C	1.206257	0.200057	0.822482
C96	C	1.456257	0.450057	1.072482
C97	C	0.375085	-0.324995	0.349340
C98	C	0.625085	-0.074995	0.599340
C99	C	0.875085	0.175005	0.849340
C100	C	1.125085	0.425005	1.099340
C101	C	0.301694	-0.322256	0.346404
C102	C	0.551694	-0.072256	0.596404
C103	C	0.801694	0.177744	0.846404
C104	C	1.051694	0.427744	1.096404
C105	C	0.298089	-0.405974	0.436115
C106	C	0.548089	-0.155974	0.686115
C107	C	0.798089	0.094026	0.936115
C108	C	1.048089	0.344026	1.186115
C109	C	0.371476	-0.408716	0.439045
C110	C	0.621476	-0.158716	0.689045
C111	C	0.871476	0.091284	0.939045
C112	C	1.121476	0.341284	1.189045
C113	C	0.409970	-0.368224	0.395661
C114	C	0.659970	-0.118224	0.645661
C115	C	0.909970	0.131776	0.895661
C116	C	1.159970	0.381776	1.145661
N117	N	0.519358	-0.334883	0.359930
N118	N	0.769358	-0.084883	0.609930
N119	N	1.019358	0.165117	0.859930
N120	N	1.269358	0.415117	1.109930
N121	N	0.484982	-0.371027	0.398666
N122	N	0.734982	-0.121027	0.648666
N123	N	0.984982	0.128973	0.898666
N124	N	1.234982	0.378973	1.148666
C125	C	1.001727	-0.516485	0.379234
C126	C	1.251727	-0.266485	0.629234
C127	C	1.501727	-0.016485	0.879234
C128	C	1.751727	0.233515	1.129234
C129	C	1.001753	-0.586455	0.379243
C130	C	1.251753	-0.336455	0.629243
C131	C	1.501753	-0.086455	0.879243
C132	C	1.751753	0.163545	1.129243
C133	C	1.044871	-0.622490	0.426025
C134	C	1.294871	-0.372490	0.676025
C135	C	1.544871	-0.122490	0.926025
C136	C	1.794871	0.127510	1.176025
C137	C	1.044895	-0.688234	0.426043
C138	C	1.294895	-0.438234	0.676043
C139	C	1.544895	-0.188234	0.926043
C140	C	1.794895	0.061766	1.176043
C141	C	1.001809	-0.717940	0.379267
C142	C	1.251809	-0.467940	0.629267
C143	C	1.501809	-0.217940	0.879267
C144	C	1.751809	0.032060	1.129267
C145	C	0.958682	-0.681896	0.332482
C146	C	1.208682	-0.431896	0.582482
C147	C	1.458682	-0.181896	0.832482
C148	C	1.708682	0.068104	1.082482
C149	C	0.958654	-0.616153	0.332470
C150	C	1.208654	-0.366153	0.582470
C151	C	1.458654	-0.116153	0.832470
C152	C	1.708654	0.133847	1.082470
N153	N	0.998975	-0.818882	0.317559
N154	N	1.248975	-0.568882	0.567559
N155	N	1.498975	-0.318882	0.817559
N156	N	1.748975	-0.068882	1.067559
N157	N	0.999006	-0.881335	0.317573
N158	N	1.249006	-0.631335	0.567573
N159	N	1.499006	-0.381335	0.817573
N160	N	1.749006	-0.131335	1.067573
C161	C	1.001890	-0.916019	0.379302
C162	C	1.251890	-0.666019	0.629302
C163	C	1.501890	-0.416019	0.879302
C164	C	1.751890	-0.166019	1.129302
N165	N	1.004755	-0.885891	0.441020
N166	N	1.254755	-0.635891	0.691020
N167	N	1.504755	-0.385891	0.941020
N168	N	1.754755	-0.135891	1.191020
N169	N	1.004728	-0.823432	0.441005
N170	N	1.254728	-0.573432	0.691005
N171	N	1.504728	-0.323432	0.941005
N172	N	1.754728	-0.073432	1.191005
C173	C	1.001834	-0.789227	0.379276
C174	C	1.251834	-0.539227	0.629276
C175	C	1.501834	-0.289227	0.879276
C176	C	1.751834	-0.039227	1.129276
C177	C	1.045036	-1.023342	0.426108
C178	C	1.295036	-0.773342	0.676108
C179	C	1.545036	-0.523342	0.926108
C180	C	1.795036	-0.273342	1.176108
C181	C	1.045055	-1.089087	0.426127
C182	C	1.295055	-0.839087	0.676127
C183	C	1.545055	-0.589087	0.926127
C184	C	1.795055	-0.339087	1.176127
C185	C	0.958846	-1.082748	0.332560
C186	C	1.208846	-0.832748	0.582560
C187	C	1.458846	-0.582748	0.832560
C188	C	1.708846	-0.332748	1.082560
C189	C	0.958823	-1.017004	0.332547
C190	C	1.208823	-0.767004	0.582547
C191	C	1.458823	-0.517004	0.832547
C192	C	1.708823	-0.267004	1.082547
C193	C	1.001922	-0.987305	0.379320
C194	C	1.251922	-0.737305	0.629320
C195	C	1.501922	-0.487305	0.879320
C196	C	1.751922	-0.237305	1.129320
C197	C	1.185096	-0.359812	0.386647
C198	C	1.435096	-0.109812	0.636647
C199	C	1.685096	0.140188	0.886647
C200	C	1.935096	0.390188	1.136647
C201	C	1.263199	-0.362742	0.389789
C202	C	1.513199	-0.112742	0.639789
C203	C	1.763199	0.137258	0.889789
C204	C	2.013199	0.387258	1.139789
C205	C	0.994485	-0.359220	0.562552
C206	C	1.244485	-0.109220	0.812552
C207	C	1.494485	0.140780	1.062552
C208	C	1.744485	0.390780	1.312552
C209	C	0.991361	-0.361897	0.640655
C210	C	1.241361	-0.111897	0.890655
C211	C	1.491361	0.138103	1.140655
C212	C	1.741361	0.388103	1.390655
C213	C	1.001922	-0.188754	0.379328
C214	C	1.251922	0.061246	0.629328
C215	C	1.501922	0.311246	0.879328
C216	C	1.751922	0.561246	1.129328
C217	C	1.001968	-0.118788	0.379352
C218	C	1.251968	0.131212	0.629352
C219	C	1.501968	0.381212	0.879352
C220	C	1.751968	0.631212	1.129352
C221	C	1.009157	-0.346637	0.196708
C222	C	1.259157	-0.096637	0.446708
C223	C	1.509157	0.153363	0.696708
C224	C	1.759157	0.403363	0.946708
C225	C	1.012417	-0.343788	0.118611
C226	C	1.262417	-0.093788	0.368611
C227	C	1.512417	0.156212	0.618611
C228	C	1.762417	0.406212	0.868611
C229	C	1.034856	-0.324586	0.679171
C230	C	1.284856	-0.074586	0.929171
C231	C	1.534856	0.175414	1.179171
C232	C	1.784856	0.425414	1.429171
C233	C	1.031912	-0.327098	0.752557
C234	C	1.281912	-0.077098	1.002557
C235	C	1.531912	0.172902	1.252557
C236	C	1.781912	0.422902	1.502557
C237	C	0.985477	-0.366926	0.787425
C238	C	1.235477	-0.116926	1.037425
C239	C	1.485477	0.133074	1.287425
C240	C	1.735477	0.383074	1.537425
C241	C	0.941978	-0.404238	0.748904
C242	C	1.191978	-0.154238	0.998904
C243	C	1.441978	0.095762	1.248904
C244	C	1.691978	0.345762	1.498904
C245	C	0.944919	-0.401722	0.675520
C246	C	1.194919	-0.151722	0.925520
C247	C	1.444919	0.098278	1.175520
C248	C	1.694919	0.348278	1.425520
C249	C	0.971858	-0.378584	1.006706
C250	C	1.221858	-0.128584	1.256706
C251	C	1.471858	0.121416	1.506706
C252	C	1.721858	0.371416	1.756706
C253	C	0.968923	-0.381099	1.080095
C254	C	1.218923	-0.131099	1.330095
C255	C	1.468923	0.118901	1.580095
C256	C	1.718923	0.368901	1.830095
C257	C	1.058856	-0.303958	1.083742
C258	C	1.308856	-0.053958	1.333742
C259	C	1.558856	0.196042	1.583742
C260	C	1.808856	0.446042	1.833742
C261	C	1.061795	-0.301448	1.010356
C262	C	1.311795	-0.051448	1.260356
C263	C	1.561795	0.198552	1.510356
C264	C	1.811795	0.448552	1.760356
C265	C	1.018294	-0.338758	0.971842
C266	C	1.268294	-0.088758	1.221842
C267	C	1.518294	0.161242	1.471842
C268	C	1.768294	0.411242	1.721842
N269	N	0.982469	-0.369496	0.862437
N270	N	1.232469	-0.119496	1.112437
N271	N	1.482469	0.130504	1.362437
N272	N	1.732469	0.380504	1.612437
N273	N	1.021299	-0.336184	0.896831
N274	N	1.271299	-0.086184	1.146831
N275	N	1.521299	0.163816	1.396831
N276	N	1.771299	0.413816	1.646831
H277	H	0.266739	-0.438940	0.471437
H278	H	0.516739	-0.188940	0.721437
H279	H	0.766739	0.061060	0.971437
H280	H	1.016739	0.311060	1.221437
H281	H	0.904167	-0.436664	0.777300
H282	H	1.154167	-0.186664	1.027300
H283	H	1.404167	0.063336	1.277300
H284	H	1.654167	0.313336	1.527300
H285	H	0.931107	-0.413533	1.108483
H286	H	1.181107	-0.163533	1.358483
H287	H	1.431107	0.086467	1.608483
H288	H	1.681107	0.336467	1.858483
O289	O	0.747784	-0.256284	0.275681
O290	O	0.997784	-0.006284	0.525681
O291	O	1.247784	0.243716	0.775681
O292	O	1.497784	0.493716	1.025681
H293	H	0.711196	-0.225769	0.242969
H294	H	0.961196	0.024231	0.492969
H295	H	1.211196	0.274231	0.742969
H296	H	1.461196	0.524231	0.992969
H297	H	0.923599	-0.706087	0.294399
H298	H	1.173599	-0.456087	0.544399
H299	H	1.423599	-0.206087	0.794399
H300	H	1.673599	0.043913	1.044399
H301	H	1.094272	-0.273581	1.115109
H302	H	1.344272	-0.023581	1.365109
H303	H	1.594272	0.226419	1.615109
H304	H	1.844272	0.476419	1.865109
H305	H	1.099610	-0.269018	0.981971
H306	H	1.349610	-0.019018	1.231971
H307	H	1.599610	0.230982	1.481971
H308	H	1.849610	0.480982	1.731971
O309	O	1.084946	-0.281633	0.641565
O310	O	1.334946	-0.031633	0.891565
O311	O	1.584946	0.218367	1.141565
O312	O	1.834946	0.468367	1.391565
H313	H	1.054859	-0.247284	0.606869
H314	H	1.304859	0.002716	0.856869
H315	H	1.554859	0.252716	1.106869
H316	H	1.804859	0.502716	1.356869
O317	O	0.587743	-0.424700	0.455912
O318	O	0.837743	-0.174700	0.705912
O319	O	1.087743	0.075300	0.955912
O320	O	1.337743	0.325300	1.205912
H321	H	0.624336	-0.455267	0.488561
H322	H	0.874336	-0.205267	0.738561
H323	H	1.124336	0.044733	0.988561
H324	H	1.374336	0.294733	1.238561
O325	O	0.595234	-0.250589	0.269570
O326	O	0.845234	-0.000589	0.519570
O327	O	1.095234	0.249411	0.769570
O328	O	1.345234	0.499411	1.019570
H329	H	0.560548	-0.218440	0.299737
H330	H	0.810548	0.031560	0.549737
H331	H	1.060548	0.281560	0.799737
H332	H	1.310548	0.531560	1.049737
O333	O	0.416590	-0.281335	0.302525
O334	O	0.666590	-0.031335	0.552525
O335	O	0.916590	0.218665	0.802525
O336	O	1.166590	0.468665	1.052525
H337	H	0.402041	-0.231835	0.314098
H338	H	0.652041	0.018165	0.564098
H339	H	0.902041	0.268165	0.814098
H340	H	1.152041	0.518165	1.064098
O341	O	0.912156	-0.577280	0.282002
O342	O	1.162156	-0.327280	0.532002
O343	O	1.412156	-0.077280	0.782002
O344	O	1.662156	0.172720	1.032002
H345	H	0.882202	-0.608978	0.249473
H346	H	1.132202	-0.358978	0.499473
H347	H	1.382202	-0.108978	0.749473
H348	H	1.632202	0.141022	0.999473
H349	H	1.080001	-0.717580	0.464146
H350	H	1.330001	-0.467580	0.714146
H351	H	1.580001	-0.217580	0.964146
H352	H	1.830001	0.032420	1.214146
O353	O	1.091350	-0.590452	0.476470
O354	O	1.341350	-0.340452	0.726470
O355	O	1.591350	-0.090452	0.976470
O356	O	1.841350	0.159548	1.226470
H357	H	1.128367	-0.560750	0.446473
H358	H	1.378367	-0.310750	0.696473
H359	H	1.628367	-0.060750	0.946473
H360	H	1.878367	0.189250	1.196473
H361	H	0.399878	-0.443919	0.476765
H362	H	0.649878	-0.193919	0.726765
H363	H	0.899878	0.056081	0.976765
H364	H	1.149878	0.306081	1.226765
O365	O	0.924905	-0.418790	0.965167
O366	O	1.174905	-0.168790	1.215167
O367	O	1.424905	0.081210	1.465167
O368	O	1.674905	0.331210	1.715167
H369	H	0.892115	-0.446898	1.001744
H370	H	1.142115	-0.196898	1.251744
H371	H	1.392115	0.053102	1.501744
H372	H	1.642115	0.303102	1.751744
O373	O	1.091512	-0.991302	0.476558
O374	O	1.341512	-0.741302	0.726558
O375	O	1.591512	-0.491302	0.976558
O376	O	1.841512	-0.241302	1.226558
H377	H	1.121492	-1.027408	0.509100
H378	H	1.371492	-0.777408	0.759100
H379	H	1.621492	-0.527408	1.009100
H380	H	1.871492	-0.277408	1.259100
H381	H	0.273289	-0.287047	0.308687
H382	H	0.523289	-0.037047	0.558687
H383	H	0.773289	0.212953	0.808687
H384	H	1.023289	0.462953	1.058687
O385	O	0.897998	-0.441962	0.633981
O386	O	1.147998	-0.191962	0.883981
O387	O	1.397998	0.058038	1.133981
O388	O	1.647998	0.308038	1.383981
H389	H	0.930758	-0.474021	0.601794
H390	H	1.180758	-0.224021	0.851794
H391	H	1.430758	0.025979	1.101794
H392	H	1.680758	0.275979	1.351794
O393	O	0.740279	-0.430287	0.462153
O394	O	0.990279	-0.180287	0.712153
O395	O	1.240279	0.069713	0.962153
O396	O	1.490279	0.319713	1.212153
H397	H	0.701178	-0.457972	0.491834
H398	H	0.951178	-0.207972	0.741834
H399	H	1.201178	0.042028	0.991834
H400	H	1.451178	0.292028	1.241834
O401	O	1.091562	-1.127959	0.476588
O402	O	1.341562	-0.877959	0.726588
O403	O	1.591562	-0.627959	0.976588
O404	O	1.841562	-0.377959	1.226588
H405	H	1.121529	-1.096260	0.509103
H406	H	1.371529	-0.846260	0.759103
H407	H	1.621529	-0.596260	1.009103
H408	H	1.871529	-0.346260	1.259103
H409	H	0.923760	-1.106933	0.294479
H410	H	1.173760	-0.856933	0.544479
H411	H	1.423760	-0.606933	0.794479
H412	H	1.673760	-0.356933	1.044479
H413	H	1.067332	-0.296717	0.783913
H414	H	1.317332	-0.046717	1.033913
H415	H	1.567332	0.203283	1.283913
H416	H	1.817332	0.453283	1.533913
H417	H	0.923715	-0.987661	0.294450
H418	H	1.173715	-0.737661	0.544450
H419	H	1.423715	-0.487661	0.794450
H420	H	1.673715	-0.237661	1.044450
