data_functionalizedCrystal
_audit_creation_method	'MofGen! by Chris Wilmer'
_symmetry_space_group_name_H-M	'P1'
_symmetry_Int_Tables_number	1
_symmetry_cell_setting	triclinic
loop_
_symmetry_equiv_pos_as_xyz
  x,y,z
_cell_length_a	25.639242
_cell_length_b	25.639239
_cell_length_c	12.759393
_cell_angle_alpha	89.964022
_cell_angle_beta	89.976304
_cell_angle_gamma	90.030990
loop_
_atom_site_label
_atom_site_type_symbol
_atom_site_fract_x
_atom_site_fract_y
_atom_site_fract_z
Zn1	Zn	0.799273	-0.208233	-0.594057
Zn2	Zn	1.132607	0.125100	-0.260724
Zn3	Zn	1.465940	0.458434	0.072609
Zn4	Zn	0.799182	-0.295678	-0.418360
Zn5	Zn	1.132516	0.037655	-0.085027
Zn6	Zn	1.465849	0.370989	0.248306
Zn7	Zn	0.711835	-0.208247	-0.418384
Zn8	Zn	1.045169	0.125087	-0.085051
Zn9	Zn	1.378502	0.458420	0.248283
Zn10	Zn	0.711795	-0.295627	-0.593989
Zn11	Zn	1.045128	0.037706	-0.260656
Zn12	Zn	1.378461	0.371039	0.072677
O13	O	0.755521	-0.251946	-0.506198
O14	O	1.088855	0.081387	-0.172864
O15	O	1.422188	0.414720	0.160469
O16	O	0.872426	-0.219848	-0.570769
O17	O	1.205760	0.113485	-0.237436
O18	O	1.539093	0.446819	0.095897
O19	O	0.787575	-0.284107	-0.271342
O20	O	1.120908	0.049226	0.061991
O21	O	1.454241	0.382560	0.395324
O22	O	0.723489	-0.135080	-0.441726
O23	O	1.056822	0.198254	-0.108392
O24	O	1.390156	0.531587	0.224941
O25	O	0.872360	-0.284094	-0.441686
O26	O	1.205693	0.049240	-0.108352
O27	O	1.539026	0.382573	0.224981
O28	O	0.787729	-0.135069	-0.570792
O29	O	1.121063	0.198264	-0.237459
O30	O	1.454396	0.531597	0.095875
O31	O	0.723401	-0.219871	-0.271360
O32	O	1.056734	0.113462	0.061974
O33	O	1.390068	0.446795	0.395307
O34	O	0.638665	-0.219822	-0.441660
O35	O	0.971998	0.113511	-0.108326
O36	O	1.305331	0.446844	0.225007
O37	O	0.723420	-0.284007	-0.741019
O38	O	1.056753	0.049326	-0.407686
O39	O	1.390087	0.382659	-0.074353
O40	O	0.638635	-0.284021	-0.570676
O41	O	0.971968	0.049313	-0.237343
O42	O	1.305302	0.382646	0.095990
O43	O	0.787690	-0.219799	-0.741069
O44	O	1.121023	0.113534	-0.407736
O45	O	1.454357	0.446868	-0.074403
O46	O	0.787535	-0.368836	-0.441620
O47	O	1.120869	-0.035503	-0.108286
O48	O	1.454202	0.297830	0.225047
O49	O	0.723332	-0.368799	-0.570653
O50	O	1.056665	-0.035466	-0.237320
O51	O	1.389999	0.297867	0.096013
C52	C	0.619679	-0.251918	-0.506164
C53	C	0.953012	0.081415	-0.172830
C54	C	1.286346	0.414749	0.160503
C55	C	0.561565	-0.251918	-0.506174
C56	C	0.894898	0.081415	-0.172841
C57	C	1.228232	0.414748	0.160493
C58	C	0.755433	-0.387789	-0.506150
C59	C	1.088767	-0.054455	-0.172816
C60	C	1.422100	0.278878	0.160517
C61	C	0.755444	-0.445903	-0.506164
C62	C	1.088777	-0.112569	-0.172831
C63	C	1.422110	0.220764	0.160503
C64	C	0.310414	-0.218553	-0.573534
C65	C	0.643748	0.114780	-0.240201
C66	C	0.977081	0.448114	0.093132
C67	C	0.365018	-0.218548	-0.573528
C68	C	0.698352	0.114786	-0.240195
C69	C	1.031685	0.448119	0.093138
O70	O	0.393292	-0.190156	-0.630793
O71	O	0.726625	0.143177	-0.297459
O72	O	1.059958	0.476510	0.035874
N73	N	0.392291	-0.251940	-0.506210
N74	N	0.725624	0.081393	-0.172876
N75	N	1.058958	0.414727	0.160457
C76	C	0.364956	-0.285344	-0.438900
C77	C	0.698290	0.047990	-0.105567
C78	C	1.031623	0.381323	0.227766
O79	O	0.393168	-0.313746	-0.381641
O80	O	0.726501	0.019587	-0.048308
O81	O	1.059834	0.352920	0.285026
C82	C	0.310353	-0.285351	-0.438912
C83	C	0.643686	0.047982	-0.105579
C84	C	0.977020	0.381316	0.227754
C85	C	0.283083	-0.251953	-0.506228
C86	C	0.616417	0.081381	-0.172895
C87	C	0.949750	0.414714	0.160439
C88	C	0.283144	-0.185158	-0.640845
C89	C	0.616478	0.148176	-0.307512
C90	C	0.949811	0.481509	0.025822
C91	C	0.228544	-0.185162	-0.640849
C92	C	0.561877	0.148171	-0.307516
C93	C	0.895211	0.481504	0.025817
C94	C	0.201213	-0.218562	-0.573543
C95	C	0.534546	0.114771	-0.240210
C96	C	0.867880	0.448105	0.093124
C97	C	0.228483	-0.251957	-0.506232
C98	C	0.561816	0.081376	-0.172899
C99	C	0.895149	0.414709	0.160435
C100	C	0.283019	-0.318757	-0.371609
C101	C	0.616353	0.014577	-0.038276
C102	C	0.949686	0.347910	0.295057
C103	C	0.228412	-0.318761	-0.371628
C104	C	0.561746	0.014572	-0.038294
C105	C	0.895079	0.347905	0.295039
C106	C	0.201143	-0.285363	-0.438943
C107	C	0.534476	0.047970	-0.105610
C108	C	0.867809	0.381303	0.227724
C109	C	0.146551	-0.285362	-0.438930
C110	C	0.479885	0.047972	-0.105597
C111	C	0.813218	0.381305	0.227737
N112	N	0.119279	-0.251969	-0.506249
N113	N	0.452612	0.081364	-0.172915
N114	N	0.785946	0.414697	0.160418
C115	C	0.146610	-0.218570	-0.573555
C116	C	0.479943	0.114764	-0.240222
C117	C	0.813276	0.448097	0.093112
C118	C	0.479627	-0.285326	-0.438882
C119	C	0.812960	0.048007	-0.105548
C120	C	1.146294	0.381341	0.227785
C121	C	0.534229	-0.285316	-0.438863
C122	C	0.867563	0.048017	-0.105530
C123	C	1.200896	0.381350	0.227803
C124	C	0.534288	-0.218521	-0.573493
C125	C	0.867621	0.114812	-0.240159
C126	C	1.200954	0.448145	0.093174
C127	C	0.479684	-0.218529	-0.573505
C128	C	0.813018	0.114805	-0.240172
C129	C	1.146351	0.448138	0.093162
C130	C	0.452354	-0.251934	-0.506200
C131	C	0.785688	0.081400	-0.172867
C132	C	1.119021	0.414733	0.160467
C133	C	0.031945	-0.218581	-0.573558
C134	C	0.365278	0.114752	-0.240225
C135	C	0.698611	0.448085	0.093108
C136	C	-0.022661	-0.218587	-0.573554
C137	C	0.310673	0.114746	-0.240220
C138	C	0.644006	0.448079	0.093113
C139	C	-0.022714	-0.285384	-0.438929
C140	C	0.310619	0.047949	-0.105595
C141	C	0.643952	0.381282	0.227738
C142	C	0.031886	-0.285377	-0.438929
C143	C	0.365220	0.047957	-0.105596
C144	C	0.698553	0.381290	0.227738
C145	C	0.059214	-0.251973	-0.506252
C146	C	0.392548	0.081360	-0.172919
C147	C	0.725881	0.414693	0.160414
O148	O	0.118244	-0.313740	-0.381698
O149	O	0.451577	0.019593	-0.048365
O150	O	0.784910	0.352927	0.284969
O151	O	0.118392	-0.190176	-0.630814
O152	O	0.451725	0.143157	-0.297481
O153	O	0.785058	0.476490	0.035852
C154	C	0.789039	-0.806273	-0.439124
C155	C	1.122373	-0.472939	-0.105791
C156	C	1.455706	-0.139606	0.227542
C157	C	0.789060	-0.860877	-0.439138
C158	C	1.122393	-0.527544	-0.105805
C159	C	1.455726	-0.194210	0.227528
O160	O	0.817533	-0.889119	-0.382086
O161	O	1.150866	-0.555786	-0.048753
O162	O	1.484199	-0.222453	0.284581
N163	N	0.755613	-0.888185	-0.506267
N164	N	1.088947	-0.554852	-0.172934
N165	N	1.422280	-0.221519	0.160399
C166	C	0.722148	-0.860886	-0.573394
C167	C	1.055482	-0.527553	-0.240061
C168	C	1.388815	-0.194220	0.093273
O169	O	0.693702	-0.889128	-0.630494
O170	O	1.027035	-0.555795	-0.297161
O171	O	1.360368	-0.222462	0.036172
C172	C	0.722131	-0.806283	-0.573385
C173	C	1.055464	-0.472950	-0.240051
C174	C	1.388798	-0.139616	0.093282
C175	C	0.755576	-0.778978	-0.506244
C176	C	1.088909	-0.445644	-0.172910
C177	C	1.422242	-0.112311	0.160423
C178	C	0.822482	-0.778967	-0.371990
C179	C	1.155815	-0.445634	-0.038656
C180	C	1.489149	-0.112300	0.294677
C181	C	0.822461	-0.724367	-0.371975
C182	C	1.155794	-0.391033	-0.038641
C183	C	1.489127	-0.057700	0.294692
C184	C	0.788997	-0.697072	-0.439094
C185	C	1.122331	-0.363738	-0.105761
C186	C	1.455664	-0.030405	0.227573
C187	C	0.755555	-0.724377	-0.506229
C188	C	1.088888	-0.391044	-0.172895
C189	C	1.422221	-0.057710	0.160438
C190	C	0.688669	-0.778985	-0.640516
C191	C	1.022002	-0.445652	-0.307183
C192	C	1.355336	-0.112319	0.026151
C193	C	0.688655	-0.724378	-0.640501
C194	C	1.021988	-0.391045	-0.307168
C195	C	1.355322	-0.057712	0.026166
C196	C	0.722100	-0.697073	-0.573360
C197	C	1.055433	-0.363739	-0.240027
C198	C	1.388766	-0.030406	0.093306
C199	C	0.722070	-0.642482	-0.573333
C200	C	1.055403	-0.309148	-0.239999
C201	C	1.388737	0.024185	0.093334
N202	N	0.755516	-0.615173	-0.506204
N203	N	1.088850	-0.281840	-0.172871
N204	N	1.422183	0.051493	0.160463
C205	C	0.788980	-0.642468	-0.439084
C206	C	1.122313	-0.309135	-0.105751
C207	C	1.455647	0.024198	0.227582
C208	C	0.722188	-0.975557	-0.573410
C209	C	1.055521	-0.642224	-0.240077
C210	C	1.388854	-0.308890	0.093256
C211	C	0.722202	-1.030159	-0.573415
C212	C	1.055535	-0.696826	-0.240082
C213	C	1.388869	-0.363493	0.093251
C214	C	0.789114	-1.030146	-0.439161
C215	C	1.122447	-0.696813	-0.105827
C216	C	1.455781	-0.363479	0.227506
C217	C	0.789097	-0.975543	-0.439151
C218	C	1.122430	-0.642209	-0.105818
C219	C	1.455764	-0.308876	0.227515
C220	C	0.755634	-0.948249	-0.506281
C221	C	1.088967	-0.614915	-0.172948
C222	C	1.422301	-0.281582	0.160385
C223	C	0.788933	-0.527803	-0.439057
C224	C	1.122266	-0.194470	-0.105724
C225	C	1.455600	0.138864	0.227610
C226	C	0.788907	-0.473198	-0.439045
C227	C	1.122241	-0.139864	-0.105711
C228	C	1.455574	0.193469	0.227622
C229	C	0.721997	-0.473216	-0.573303
C230	C	1.055331	-0.139882	-0.239969
C231	C	1.388664	0.193451	0.093364
C232	C	0.722021	-0.527816	-0.573312
C233	C	1.055354	-0.194483	-0.239978
C234	C	1.388687	0.138850	0.093355
C235	C	0.755493	-0.555109	-0.506185
C236	C	1.088826	-0.221775	-0.172852
C237	C	1.422159	0.111558	0.160481
O238	O	0.693613	-0.614204	-0.630359
O239	O	1.026946	-0.280871	-0.297026
O240	O	1.360280	0.052462	0.036308
O241	O	0.817427	-0.614220	-0.382003
O242	O	1.150760	-0.280886	-0.048670
O243	O	1.484093	0.052447	0.284663
C244	C	0.891894	-0.251975	-0.506232
C245	C	1.225228	0.081358	-0.172899
C246	C	1.558561	0.414692	0.160434
C247	C	0.950008	-0.251987	-0.506247
C248	C	1.283342	0.081346	-0.172914
C249	C	1.616675	0.414680	0.160419
C250	C	0.755561	-0.251896	-0.780231
C251	C	1.088894	0.081437	-0.446898
C252	C	1.422227	0.414771	-0.113565
C253	C	0.755577	-0.251875	-0.897008
C254	C	1.088911	0.081459	-0.563675
C255	C	1.422244	0.414792	-0.230341
C256	C	0.755624	-0.115573	-0.506269
C257	C	1.088957	0.217760	-0.172936
C258	C	1.422291	0.551094	0.160398
C259	C	0.755668	-0.057459	-0.506299
C260	C	1.089001	0.275874	-0.172966
C261	C	1.422334	0.609208	0.160367
C262	C	0.789045	-0.218436	-0.951898
C263	C	1.122379	0.114897	-0.618564
C264	C	1.455712	0.448231	-0.285231
C265	C	0.789054	-0.218413	-1.061622
C266	C	1.122387	0.114920	-0.728288
C267	C	1.455721	0.448253	-0.394955
C268	C	0.722126	-0.285273	-1.061557
C269	C	1.055459	0.048061	-0.728224
C270	C	1.388792	0.381394	-0.394890
C271	C	0.722114	-0.285292	-0.951835
C272	C	1.055448	0.048041	-0.618501
C273	C	1.388781	0.381374	-0.285168
C274	C	0.755513	-0.251958	-0.233230
C275	C	1.088846	0.081375	0.100103
C276	C	1.422179	0.414708	0.433436
C277	C	0.755597	-0.251833	-0.116454
C278	C	1.088931	0.081501	0.216879
C279	C	1.422264	0.414834	0.550212
H280	H	-0.044861	-0.191388	-0.628370
H281	H	0.288472	0.141945	-0.295036
H282	H	0.621805	0.475279	0.038297
F283	F	0.686600	-1.059214	-0.644864
F284	F	1.019933	-0.725881	-0.311531
F285	F	1.353266	-0.392547	0.021803
H286	H	0.694789	-0.550050	-0.627986
H287	H	1.028122	-0.216716	-0.294653
H288	H	1.361456	0.116617	0.038680
F289	F	0.686516	-0.320838	-1.119917
F290	F	1.019849	0.012495	-0.786583
F291	F	1.353183	0.345829	-0.453250
H292	H	0.661406	-0.702158	-0.695170
H293	H	0.994739	-0.368825	-0.361837
H294	H	1.328073	-0.035491	-0.028503
F295	F	0.686489	-0.320882	-0.893414
F296	F	1.019822	0.012452	-0.560080
F297	F	1.353156	0.345785	-0.226747
F298	F	0.312030	-0.354298	-0.299949
F299	F	0.645363	-0.020964	0.033385
F300	F	0.978697	0.312369	0.366718
F301	F	0.824679	-0.182827	-1.120035
F302	F	1.158012	0.150507	-0.786701
F303	F	1.491345	0.483840	-0.453368
H304	H	0.054189	-0.191381	-0.628379
H305	H	0.387522	0.141952	-0.295046
H306	H	0.720856	0.475286	0.038288
F307	F	0.824505	-0.444140	-0.367581
F308	F	1.157838	-0.110807	-0.034247
F309	F	1.491172	0.222526	0.299086
F310	F	0.858064	-0.695313	-0.300526
F311	F	1.191397	-0.361979	0.032808
F312	F	1.524730	-0.028646	0.366141
F313	F	0.199528	-0.149619	-0.712504
F314	F	0.532862	0.183715	-0.379170
F315	F	0.866195	0.517048	-0.045837
F316	F	0.312224	-0.149607	-0.712490
F317	F	0.645557	0.183726	-0.379157
F318	F	0.978891	0.517060	-0.045823
F319	F	0.199329	-0.354320	-0.299996
F320	F	0.532662	-0.020986	0.033337
F321	F	0.865996	0.312347	0.366671
F322	F	0.824693	-0.946487	-0.367692
F323	F	1.158027	-0.613154	-0.034359
F324	F	1.491360	-0.279820	0.298975
F325	F	0.563385	-0.182974	-0.645127
F326	F	0.896718	0.150359	-0.311794
F327	F	1.230051	0.483693	0.021540
F328	F	0.450667	-0.182983	-0.645151
F329	F	0.784000	0.150351	-0.311818
F330	F	1.117334	0.483684	0.021515
H331	H	0.054090	-0.312568	-0.384106
H332	H	0.387424	0.020766	-0.050773
H333	H	0.720757	0.354099	0.282561
H334	H	0.849735	-0.801185	-0.317333
H335	H	1.183068	-0.467852	0.016001
H336	H	1.516401	-0.134518	0.349334
F337	F	0.563246	-0.320855	-0.367200
F338	F	0.896579	0.012479	-0.033867
F339	F	1.229912	0.345812	0.299467
H340	H	0.457378	-0.312527	-0.384065
H341	H	0.790712	0.020806	-0.050731
H342	H	1.124045	0.354139	0.282602
H343	H	-0.044977	-0.312576	-0.384125
H344	H	0.288356	0.020758	-0.050792
H345	H	0.621690	0.354091	0.282541
F346	F	0.686386	-0.444157	-0.644735
F347	F	1.019719	-0.110824	-0.311402
F348	F	1.353053	0.222510	0.021931
F349	F	0.824557	-0.556842	-0.367613
F350	F	1.157891	-0.223509	-0.034280
F351	F	1.491224	0.109825	0.299053
F352	F	0.824729	-1.059205	-0.367724
F353	F	1.158062	-0.725872	-0.034391
F354	F	1.491395	-0.392538	0.298943
H355	H	0.694934	-0.953337	-0.628073
H356	H	1.028267	-0.620003	-0.294739
H357	H	1.361601	-0.286670	0.038594
H358	H	0.661432	-0.801208	-0.695184
H359	H	0.994766	-0.467875	-0.361851
H360	H	1.328099	-0.134541	-0.028518
H361	H	0.816291	-0.191224	-0.907261
H362	H	1.149625	0.142110	-0.573927
H363	H	1.482958	0.475443	-0.240594
