data_functionalizedCrystal
_audit_creation_method	'MofGen! by Chris Wilmer'
_symmetry_space_group_name_H-M	'P1'
_symmetry_Int_Tables_number	1
_symmetry_cell_setting	triclinic
loop_
_symmetry_equiv_pos_as_xyz
  x,y,z
_cell_length_a	6.394989
_cell_length_b	10.654550
_cell_length_c	9.130313
_cell_angle_alpha	90.004369
_cell_angle_beta	90.002984
_cell_angle_gamma	85.491321
loop_
_atom_site_label
_atom_site_type_symbol
_atom_site_fract_x
_atom_site_fract_y
_atom_site_fract_z
O1	O	-2.774473	-0.205784	-0.121784
O2	O	-2.166495	-0.216150	-0.121790
O3	O	-2.484462	-0.028376	-0.121778
O4	O	-2.456505	-0.393558	-0.121796
O5	O	-2.484440	-0.028370	0.121821
O6	O	-2.166473	-0.216145	0.121809
O7	O	-2.774451	-0.205778	0.121815
Cu8	Cu	-2.470460	-0.210961	0.144054
Cu9	Cu	-2.470486	-0.210968	-0.144030
O10	O	-2.456483	-0.393552	0.121802
C11	C	-2.482399	0.018447	0.000021
C12	C	-2.476257	0.157955	0.000019
C13	C	-2.458547	-0.440375	0.000001
C14	C	-2.464689	-0.579883	-0.000007
N15	N	-2.470457	-0.210955	0.346677
C16	C	-2.088633	-0.214098	0.000016
C17	C	-1.852307	-0.207833	0.000023
N18	N	-2.470505	-0.210963	-0.346652
C19	C	-2.663471	0.235458	0.000020
C20	C	-2.657688	0.366540	0.000002
C21	C	-2.277460	0.342604	-0.000013
C22	C	-2.283245	0.211524	-0.000005
C23	C	-2.611301	-0.127845	0.423334
C24	C	-2.611321	-0.127845	0.576671
C25	C	-2.329646	-0.294077	0.576680
C26	C	-2.329618	-0.294070	0.423346
H27	H	-2.820634	0.191847	0.000036
C28	C	-2.079807	0.127519	-0.000234
C29	C	-1.963698	0.152194	-0.125547
C30	C	-1.776278	0.074846	-0.125805
H31	H	-2.110602	0.041744	-0.000307
H32	H	-2.000616	0.144108	0.084667
H33	H	-2.042873	0.135596	-0.210426
H34	H	-1.932848	0.237955	-0.125501
H35	H	-1.697086	0.091434	-0.040904
H36	H	-1.807093	-0.010925	-0.125874
H37	H	-1.697466	0.091585	-0.210820
H38	H	-2.810138	0.429638	-0.000000
H39	H	-2.120316	0.386236	-0.000029
H40	H	-2.725978	-0.060166	0.360914
C41	C	-2.764478	-0.037561	0.659634
C42	C	-2.887837	0.035203	0.559666
C43	C	-3.028970	0.118380	0.636036
H44	H	-2.688833	0.016063	0.719471
H45	H	-2.852214	-0.084129	0.719402
H46	H	-2.800113	0.081768	0.499923
H47	H	-2.963527	-0.018388	0.499826
H48	H	-3.116706	0.071811	0.695804
H49	H	-2.953308	0.171995	0.695870
H50	H	-3.112699	0.167751	0.568220
C51	C	-2.176414	-0.384166	0.659851
C52	C	-1.970823	-0.360442	0.622616
C53	C	-1.829611	-0.443397	0.699217
H54	H	-2.200012	-0.468418	0.634770
H55	H	-2.196466	-0.372259	0.762164
H56	H	-1.950780	-0.372359	0.520326
H57	H	-1.947160	-0.276205	0.647701
H58	H	-1.849662	-0.431490	0.801530
H59	H	-1.853227	-0.527644	0.674130
H60	H	-1.690102	-0.427304	0.673974
C61	C	-2.176936	-0.384519	0.340186
C62	C	-2.212629	-0.508507	0.377426
C63	C	-2.072041	-0.591855	0.300834
H64	H	-2.037227	-0.368789	0.365272
H65	H	-2.197097	-0.372693	0.237872
H66	H	-2.192451	-0.520328	0.479717
H67	H	-2.352310	-0.524276	0.352335
H68	H	-2.092201	-0.580029	0.198520
H69	H	-1.932341	-0.576114	0.325927
H70	H	-2.096252	-0.675991	0.326080
