data_functionalizedCrystal
_audit_creation_method	'MofGen! by Chris Wilmer'
_symmetry_space_group_name_H-M	'P1'
_symmetry_Int_Tables_number	1
_symmetry_cell_setting	triclinic
loop_
_symmetry_equiv_pos_as_xyz
  x,y,z
_cell_length_a	19.188928
_cell_length_b	19.188924
_cell_length_c	10.868271
_cell_angle_alpha	90.007200
_cell_angle_beta	89.978983
_cell_angle_gamma	96.857113
loop_
_atom_site_label
_atom_site_type_symbol
_atom_site_fract_x
_atom_site_fract_y
_atom_site_fract_z
O1	O	-0.926144	0.087160	0.102804
O2	O	-0.426144	0.587160	0.602804
O3	O	-0.722832	0.098896	0.102703
O4	O	-0.222832	0.598896	0.602703
O5	O	-0.830357	-0.008628	0.102742
O6	O	-0.330357	0.491372	0.602742
O7	O	-0.818618	0.194684	0.102765
O8	O	-0.318618	0.694684	0.602765
O9	O	-0.830348	-0.008632	-0.101903
O10	O	-0.330348	0.491368	0.398097
O11	O	-0.722823	0.098892	-0.101942
O12	O	-0.222823	0.598892	0.398058
O13	O	-0.926135	0.087156	-0.101841
O14	O	-0.426135	0.587156	0.398159
Zn15	Zn	-0.824477	0.093024	-0.134383
Zn16	Zn	-0.324477	0.593024	0.365617
Zn17	Zn	-0.824489	0.093029	0.135245
Zn18	Zn	-0.324489	0.593029	0.635245
O19	O	-0.818609	0.194680	-0.101880
O20	O	-0.318609	0.694680	0.398120
C21	C	-0.696816	0.098515	0.000367
C22	C	-0.196816	0.598515	0.500367
C23	C	-0.619312	0.097375	0.000328
C24	C	-0.119312	0.597375	0.500328
C25	C	-0.829973	-0.034641	0.000418
C26	C	-0.329973	0.465359	0.500418
C27	C	-0.828835	-0.112145	0.000414
C28	C	-0.328835	0.387855	0.500414
C29	C	-0.574386	0.160466	0.000351
C30	C	-0.074386	0.660466	0.500351
C31	C	-0.501562	0.159395	0.000358
C32	C	-0.001562	0.659395	0.500358
C33	C	-0.473667	0.095229	0.000367
C34	C	0.026333	0.595229	0.500367
C35	C	-0.518603	0.032129	0.000337
C36	C	-0.018603	0.532129	0.500337
C37	C	-0.591425	0.033202	0.000317
C38	C	-0.091425	0.533202	0.500317
N39	N	-0.365691	0.046184	0.070051
N40	N	0.134309	0.546184	0.570051
N41	N	-0.296512	0.045169	0.070072
N42	N	0.203488	0.545169	0.570072
C43	C	-0.254258	0.091993	0.000423
C44	C	0.245742	0.591993	0.500423
N45	N	-0.283795	0.139880	-0.069233
N46	N	0.216205	0.639880	0.430767
N47	N	-0.352980	0.140897	-0.069249
N48	N	0.147020	0.640897	0.430751
C49	C	-0.394705	0.094058	0.000387
C50	C	0.105295	0.594058	0.500387
C51	C	-0.130368	0.153927	0.000451
C52	C	0.369632	0.653927	0.500451
C53	C	-0.057544	0.152853	0.000451
C54	C	0.442456	0.652853	0.500451
C55	C	-0.074586	0.025586	0.000442
C56	C	0.425414	0.525586	0.500442
C57	C	-0.147409	0.026661	0.000430
C58	C	0.352591	0.526661	0.500430
C59	C	-0.175296	0.090834	0.000441
C60	C	0.324704	0.590834	0.500441
C61	C	-0.828308	-0.148542	0.111966
C62	C	-0.328308	0.351458	0.611966
C63	C	-0.827228	-0.221365	0.111975
C64	C	-0.327228	0.278635	0.611975
C65	C	-0.826689	-0.257790	0.000425
C66	C	-0.326689	0.242210	0.500425
C67	C	-0.827212	-0.221384	-0.111141
C68	C	-0.327212	0.278616	0.388859
C69	C	-0.828285	-0.148562	-0.111147
C70	C	-0.328285	0.351438	0.388853
N71	N	-0.864733	-0.377455	-0.082579
N72	N	-0.364733	0.122545	0.417421
N73	N	-0.863716	-0.446633	-0.082566
N74	N	-0.363716	0.053367	0.417434
C75	C	-0.823455	-0.477199	0.000436
C76	C	-0.323455	0.022801	0.500436
N77	N	-0.784259	-0.435974	0.083443
N78	N	-0.284259	0.064026	0.583443
N79	N	-0.785280	-0.366790	0.083433
N80	N	-0.285280	0.133210	0.583433
C81	C	-0.825525	-0.336753	0.000419
C82	C	-0.325525	0.163247	0.500419
C83	C	-0.821756	-0.592558	0.112005
C84	C	-0.321756	-0.092558	0.612005
C85	C	-0.820672	-0.665382	0.112009
C86	C	-0.320672	-0.165382	0.612009
C87	C	-0.820663	-0.665400	-0.111110
C88	C	-0.320663	-0.165400	0.388890
C89	C	-0.821740	-0.592577	-0.111111
C90	C	-0.321740	-0.092577	0.388889
C91	C	-0.822290	-0.556161	0.000450
C92	C	-0.322290	-0.056161	0.500450
C93	C	0.047850	0.087540	0.000475
C94	C	0.547850	0.587540	0.500475
C95	C	-0.029654	0.088687	0.000458
C96	C	0.470346	0.588687	0.500458
C97	C	-0.818993	0.220694	0.000446
C98	C	-0.318993	0.720694	0.500446
C99	C	-0.820132	0.298198	0.000458
C100	C	-0.320132	0.798198	0.500458
N101	N	-0.824475	0.093020	-0.318397
N102	N	-0.324475	0.593020	0.181603
C103	C	-0.824485	0.093028	-0.569403
C104	C	-0.324485	0.593028	-0.069403
C105	C	-0.824477	0.093025	-0.429726
C106	C	-0.324477	0.593025	0.070274
N107	N	-0.824497	0.093028	0.319259
N108	N	-0.324497	0.593028	0.819259
H109	H	-0.597086	0.212720	0.000362
H110	H	-0.097086	0.712720	0.500362
H111	H	-0.183988	-0.024715	0.000418
H112	H	0.316012	0.475285	0.500418
H113	H	-0.051874	-0.026660	0.000526
H114	H	0.448126	0.473340	0.500526
H115	H	-0.828754	-0.118896	0.202808
H116	H	-0.328754	0.381104	0.702808
H117	H	-0.826795	-0.251004	0.202816
H118	H	-0.326795	0.248996	0.702816
H119	H	-0.495886	-0.020115	0.000361
H120	H	0.004114	0.479885	0.500361
H121	H	-0.826771	-0.251046	-0.201965
H122	H	-0.326771	0.248954	0.298035
H123	H	-0.822200	-0.562906	0.202844
H124	H	-0.322200	-0.062906	0.702844
H125	H	-0.820240	-0.695014	0.202851
H126	H	-0.320240	-0.195014	0.702851
H127	H	-0.828711	-0.118928	-0.201989
H128	H	-0.328711	0.381072	0.298011
H129	H	-0.820218	-0.695056	-0.201936
H130	H	-0.320218	-0.195056	0.298064
H131	H	-0.464977	0.210773	0.000373
H132	H	0.035023	0.710773	0.500373
H133	H	-0.628004	-0.018176	0.000300
H134	H	-0.128004	0.481824	0.500300
H135	H	-0.822175	-0.562944	-0.201949
H136	H	-0.322175	-0.062944	0.298051
H137	H	-0.020965	0.204232	0.000462
H138	H	0.479035	0.704232	0.500462
H139	H	-0.153075	0.206180	0.000442
H140	H	0.346925	0.706180	0.500442
