data_functionalizedCrystal
_audit_creation_method	'MofGen! by Chris Wilmer'
_symmetry_space_group_name_H-M	'P1'
_symmetry_Int_Tables_number	1
_symmetry_cell_setting	triclinic
loop_
_symmetry_equiv_pos_as_xyz
  x,y,z
_cell_length_a	23.532407
_cell_length_b	23.532407
_cell_length_c	22.010155
_cell_angle_alpha	90.000423
_cell_angle_beta	89.996931
_cell_angle_gamma	97.151322
loop_
_atom_site_label
_atom_site_type_symbol
_atom_site_fract_x
_atom_site_fract_y
_atom_site_fract_z
O1	O	0.755264	-0.069127	-0.050455
O2	O	0.589400	-0.079130	-0.050474
O3	O	0.677334	0.008803	-0.050453
O4	O	0.667330	-0.157060	-0.050476
O5	O	0.677318	0.008790	0.050597
O6	O	0.589384	-0.079143	0.050576
O7	O	0.755248	-0.069140	0.050595
Cu8	Cu	0.672315	-0.074143	0.059812
Cu9	Cu	0.672333	-0.074127	-0.059691
O10	O	0.667314	-0.157073	0.050574
C11	C	0.568176	-0.078882	0.000049
C12	C	0.504959	-0.078116	0.000042
C13	C	0.105856	-0.125350	0.000063
C14	C	0.046456	-0.124638	0.000067
O15	O	0.009711	-0.168424	0.000083
N16	N	0.023830	-0.072362	0.000073
C17	C	0.060607	-0.020794	0.000082
O18	O	0.035908	0.023737	0.000088
C19	C	0.120006	-0.021506	0.000082
C20	C	0.142629	-0.073785	0.000070
C21	C	0.128479	-0.177625	0.000051
C22	C	0.187876	-0.178336	0.000046
C23	C	0.224649	-0.126772	0.000053
C24	C	0.202025	-0.074497	0.000065
C25	C	0.156783	0.030062	0.000096
C26	C	0.216185	0.029345	0.000097
C27	C	0.238808	-0.022934	0.000084
C28	C	0.298194	-0.023643	0.000067
N29	N	0.320820	-0.075920	0.000061
C30	C	0.284048	-0.127484	0.000054
C31	C	-0.064135	-0.019302	0.000082
C32	C	-0.123533	-0.018589	0.000077
C33	C	-0.137680	-0.122434	0.000063
C34	C	-0.078281	-0.123146	0.000064
C35	C	-0.041509	-0.071578	0.000076
C36	C	0.408784	-0.128974	0.000043
C37	C	0.468186	-0.129680	0.000035
C38	C	0.482329	-0.025836	0.000052
C39	C	0.422932	-0.025129	0.000057
C40	C	0.386160	-0.076702	0.000054
O41	O	0.334974	0.020119	0.000054
O42	O	0.308755	-0.172007	0.000055
C43	C	0.677071	0.030013	0.000074
C44	C	0.676305	0.093230	0.000078
C45	C	0.776472	-0.069388	0.000071
C46	C	0.839689	-0.070154	0.000073
C47	C	0.667577	-0.178283	0.000046
C48	C	0.668343	-0.241500	0.000037
N49	N	0.672305	-0.074153	0.143865
C50	C	0.723539	0.492333	0.000050
C51	C	0.722827	0.551733	0.000046
O52	O	0.766613	0.588478	0.000028
N53	N	0.670551	0.574359	0.000040
C54	C	0.618983	0.537582	0.000033
O55	O	0.574452	0.562281	0.000027
C56	C	0.619695	0.478182	0.000033
C57	C	0.671974	0.455560	0.000045
C58	C	0.775814	0.469710	0.000061
C59	C	0.776525	0.410313	0.000067
C60	C	0.724961	0.373540	0.000062
C61	C	0.672685	0.396164	0.000051
C62	C	0.568127	0.441406	0.000022
C63	C	0.568844	0.382004	0.000022
C64	C	0.621123	0.359381	0.000034
C65	C	0.621832	0.299995	0.000052
N66	N	0.674109	0.277368	0.000057
C67	C	0.725673	0.314141	0.000062
C68	C	0.617491	0.662324	0.000031
C69	C	0.616778	0.721722	0.000035
C70	C	0.720623	0.735869	0.000047
C71	C	0.721335	0.676470	0.000047
C72	C	0.669767	0.639698	0.000037
C73	C	0.727163	0.189405	0.000075
C74	C	0.727869	0.130003	0.000083
C75	C	0.624025	0.115860	0.000069
C76	C	0.623318	0.175257	0.000064
C77	C	0.674891	0.212029	0.000065
O78	O	0.578070	0.263215	0.000067
O79	O	0.770196	0.289433	0.000060
N80	N	0.672347	-0.074112	-0.143744
C81	C	0.711273	-0.035196	0.563653
C82	C	0.711275	-0.035192	0.627261
O83	O	0.744384	-0.002076	0.660160
N84	N	0.672333	-0.074115	0.659072
C85	C	0.633382	-0.113041	0.627272
O86	O	0.600259	-0.146148	0.660170
C87	C	0.633377	-0.113042	0.563665
C88	C	0.672326	-0.074120	0.531858
C89	C	0.750217	0.003723	0.531846
C90	C	0.750215	0.003719	0.468243
C91	C	0.711268	-0.035205	0.436447
C92	C	0.672324	-0.074125	0.468255
C93	C	0.594424	-0.151965	0.531866
C94	C	0.594422	-0.151962	0.468256
C95	C	0.633370	-0.113040	0.436448
C96	C	0.633374	-0.113054	0.372856
N97	N	0.672317	-0.074130	0.341045
C98	C	0.711263	-0.035206	0.372841
C99	C	0.633395	-0.113036	0.760850
C100	C	0.633402	-0.113039	0.824455
C101	C	0.711294	-0.035188	0.824440
C102	C	0.711290	-0.035189	0.760833
C103	C	0.672337	-0.074113	0.729039
C104	C	0.711256	-0.035220	0.239269
C105	C	0.711252	-0.035229	0.175660
C106	C	0.633358	-0.113077	0.175681
C107	C	0.633364	-0.113070	0.239284
C108	C	0.672315	-0.074136	0.271077
O109	O	0.600282	-0.146151	0.339916
O110	O	0.744376	-0.002100	0.339935
H111	H	0.486602	-0.172255	0.000025
O112	O	0.825893	0.505448	-0.000040
C113	C	0.885370	0.580738	-0.052359
C114	C	0.828636	0.540293	-0.052332
H115	H	0.887601	0.608929	-0.094625
H116	H	0.922871	0.554383	-0.052391
H117	H	0.887623	0.608873	-0.010049
H118	H	0.826328	0.512150	-0.094635
H119	H	0.791162	0.566683	-0.052268
H120	H	0.601650	-0.144771	0.149783
O121	O	0.565944	0.743599	0.000004
C122	C	0.463020	0.723281	0.000029
C123	C	0.520552	0.698433	0.000055
H124	H	0.426306	0.686777	0.000083
H125	H	0.460055	0.750712	-0.042273
H126	H	0.460112	0.750759	0.042305
H127	H	0.523498	0.670930	-0.042193
H128	H	0.523493	0.671035	0.042385
O129	O	-0.173351	-0.172562	0.000142
C130	C	-0.203659	-0.261085	0.052505
C131	C	-0.163219	-0.204348	0.052485
H132	H	-0.195490	-0.286794	0.094826
H133	H	-0.195467	-0.286868	0.010242
H134	H	-0.249992	-0.251576	0.052480
H135	H	-0.116871	-0.213805	0.052532
H136	H	-0.171460	-0.178582	0.094745
H137	H	0.206289	-0.220908	0.000036
O138	O	0.770752	0.771538	-0.000035
C139	C	0.859277	0.801837	-0.052403
C140	C	0.802537	0.761400	-0.052379
H141	H	0.884985	0.793663	-0.094725
H142	H	0.885058	0.793648	-0.010141
H143	H	0.849770	0.848171	-0.052379
H144	H	0.811992	0.715052	-0.052425
H145	H	0.776773	0.769639	-0.094638
H146	H	0.742971	-0.003534	0.149765
O147	O	0.572571	0.197306	-0.000023
C148	C	0.511496	0.256122	-0.052414
C149	C	0.568992	0.231206	-0.052377
H150	H	0.508578	0.283525	-0.094743
H151	H	0.508551	0.283621	-0.010159
H152	H	0.474773	0.219625	-0.052384
H153	H	0.605748	0.267665	-0.052428
H154	H	0.571887	0.203691	-0.094628
O155	O	-0.056282	-0.173916	-0.000054
C156	C	0.002591	-0.234973	-0.052396
C157	C	-0.022290	-0.177459	-0.052347
H158	H	0.030088	-0.237851	-0.094664
H159	H	-0.033879	-0.271724	-0.052443
H160	H	0.030017	-0.237906	-0.010087
H161	H	-0.049710	-0.174471	-0.094648
H162	H	0.014207	-0.140736	-0.052268
O163	O	0.567409	0.626582	-0.000077
C164	C	0.507956	0.551289	-0.052411
C165	C	0.564687	0.591738	-0.052370
H166	H	0.505743	0.523099	-0.094679
H167	H	0.470453	0.577640	-0.052453
H168	H	0.505692	0.523153	-0.010102
H169	H	0.567008	0.619883	-0.094672
H170	H	0.602164	0.565353	-0.052296
H171	H	0.743006	-0.003493	0.850339
O172	O	0.517292	0.463277	-0.000019
C173	C	0.414369	0.442950	-0.000008
C174	C	0.471903	0.418107	0.000026
H175	H	0.377657	0.406442	0.000041
H176	H	0.411406	0.470381	-0.042310
H177	H	0.411453	0.470426	0.042269
H178	H	0.474857	0.390606	-0.042222
H179	H	0.474841	0.390708	0.042356
O180	O	0.518786	0.346226	0.000095
C181	C	0.459289	0.270982	0.052458
C182	C	0.516005	0.311455	0.052443
H183	H	0.457017	0.242868	0.094784
H184	H	0.457024	0.242777	0.010199
H185	H	0.421815	0.297372	0.052420
H186	H	0.553510	0.285111	0.052503
H187	H	0.518219	0.339662	0.094698
H188	H	0.582043	0.085909	0.000067
H189	H	0.742973	-0.003516	0.265148
O190	O	0.595516	-0.150873	0.855255
C191	C	0.518280	-0.228111	0.848539
C192	C	0.561150	-0.185288	0.813586
H193	H	0.490491	-0.255955	0.814865
H194	H	0.489930	-0.203697	0.878301
H195	H	0.542714	-0.256413	0.878334
H196	H	0.536762	-0.156975	0.783758
H197	H	0.589499	-0.209738	0.783862
H198	H	0.770443	0.111587	0.000094
O199	O	0.556640	-0.189749	0.562848
C200	C	0.522074	-0.224227	0.660832
C201	C	0.564909	-0.181415	0.625823
H202	H	0.528737	-0.217497	0.711752
H203	H	0.529226	-0.269821	0.648369
H204	H	0.476514	-0.217033	0.648285
H205	H	0.610486	-0.188557	0.638351
H206	H	0.557707	-0.135837	0.638288
H207	H	0.781933	0.035423	0.557728
O208	O	0.556562	-0.189831	0.437466
C209	C	0.479278	-0.267020	0.444199
C210	C	0.522129	-0.224174	0.479143
H211	H	0.451420	-0.294790	0.477880
H212	H	0.503669	-0.295392	0.414437
H213	H	0.450993	-0.242566	0.414405
H214	H	0.550425	-0.248581	0.508970
H215	H	0.497703	-0.195803	0.508866
H216	H	0.781929	0.035414	0.442349
O217	O	0.777223	0.225176	0.000160
C218	C	0.836703	0.300420	0.052537
C219	C	0.779984	0.259951	0.052505
H220	H	0.838959	0.328538	0.094860
H221	H	0.838989	0.328621	0.010275
H222	H	0.874174	0.274026	0.052518
H223	H	0.742482	0.286300	0.052546
H224	H	0.777749	0.231748	0.094763
O225	O	-0.145410	0.032245	0.000109
C226	C	-0.125092	0.135169	0.000085
C227	C	-0.100244	0.077637	0.000059
H228	H	-0.088588	0.171883	0.000032
H229	H	-0.152526	0.138136	0.042387
H230	H	-0.152567	0.138075	-0.042192
H231	H	-0.072744	0.074692	0.042308
H232	H	-0.072843	0.074695	-0.042270
H233	H	0.601676	-0.144737	0.734966
H234	H	0.098544	-0.219617	0.000048
H235	H	0.743004	-0.003495	0.734939
O236	O	0.595511	-0.150801	0.270255
C237	C	0.517643	-0.163305	0.342045
C238	C	0.560493	-0.120517	0.307024
H239	H	0.489311	-0.138837	0.371771
H240	H	0.542036	-0.191621	0.371869
H241	H	0.489832	-0.191140	0.308382
H242	H	0.588315	-0.092644	0.340643
H243	H	0.536065	-0.092241	0.277190
H244	H	0.378851	-0.170970	0.000042
H245	H	0.138375	0.072634	0.000106
O246	O	-0.028393	0.030780	0.000191
C247	C	0.046899	0.090235	0.052523
C248	C	0.006449	0.033504	0.052482
H249	H	0.075087	0.092451	0.094790
H250	H	0.020548	0.127739	0.052565
H251	H	0.075036	0.092496	0.010213
H252	H	-0.021697	0.031187	0.094785
H253	H	0.032834	-0.003972	0.052409
O254	O	0.251824	0.079493	0.000078
C255	C	0.259582	0.182567	0.000132
C256	C	0.219158	0.125819	0.000142
H257	H	0.233188	0.220037	0.000196
H258	H	0.287734	0.184878	-0.042170
H259	H	0.287757	0.184794	0.042409
H260	H	0.190947	0.123554	-0.042107
H261	H	0.191045	0.123532	0.042471
H262	H	0.404512	0.017441	0.000058
O263	O	0.772083	0.654429	-0.000028
C264	C	0.833184	0.595617	-0.052395
C265	C	0.775684	0.620525	-0.052376
H266	H	0.836119	0.568211	-0.094720
H267	H	0.836119	0.568123	-0.010135
H268	H	0.869903	0.632118	-0.052360
H269	H	0.738931	0.584062	-0.052432
H270	H	0.772798	0.648035	-0.094632
H271	H	0.512280	0.016146	0.000056
H272	H	0.819097	0.391900	0.000074
