data_functionalizedCrystal
_audit_creation_method	'MofGen! by Chris Wilmer'
_symmetry_space_group_name_H-M	'P1'
_symmetry_Int_Tables_number	1
_symmetry_cell_setting	triclinic
loop_
_symmetry_equiv_pos_as_xyz
  x,y,z
_cell_length_a	17.699077
_cell_length_b	6.394989
_cell_length_c	16.776229
_cell_angle_alpha	90.003593
_cell_angle_beta	89.993415
_cell_angle_gamma	95.110856
loop_
_atom_site_label
_atom_site_type_symbol
_atom_site_fract_x
_atom_site_fract_y
_atom_site_fract_z
O1	O	1.006776	-0.264072	-0.066273
O2	O	0.786748	-0.298449	-0.066276
O3	O	0.899885	0.022820	-0.066275
O4	O	0.893639	-0.585341	-0.066274
O5	O	0.899870	0.022840	0.066302
O6	O	0.786732	-0.298429	0.066301
O7	O	1.006761	-0.264052	0.066304
Zn8	Zn	0.896744	-0.281237	0.087352
Zn9	Zn	0.896765	-0.281263	-0.087324
O10	O	0.893623	-0.585321	0.066303
C11	C	0.758531	-0.297209	0.000012
C12	C	0.674475	-0.293520	0.000011
C13	C	0.634981	-0.291771	0.072279
C14	C	0.556003	-0.288272	0.072280
C15	C	0.516519	-0.286536	0.000011
C16	C	0.556018	-0.288279	-0.072263
C17	C	0.634996	-0.291764	-0.072263
C18	C	0.237512	-0.274223	-0.072264
C19	C	0.158528	-0.270745	-0.072258
C20	C	0.158519	-0.270731	0.072278
C21	C	0.237496	-0.274216	0.072278
C22	C	0.276989	-0.275947	0.000005
C23	C	0.362626	-0.279738	0.000005
C24	C	0.430883	-0.282760	0.000011
C25	C	1.034978	-0.265292	0.000014
C26	C	1.119034	-0.268981	0.000011
C27	C	0.898642	0.100645	0.000011
C28	C	0.894868	0.336860	0.000010
N29	N	0.896735	-0.281218	0.206563
N30	N	0.896779	-0.281266	-0.206535
C31	C	0.946849	-0.139019	0.248281
C32	C	0.946853	-0.139017	0.331733
C33	C	0.896747	-0.281227	0.373466
C34	C	0.846628	-0.423433	0.331742
C35	C	0.846621	-0.423423	0.248292
C36	C	0.846656	-0.423474	0.668290
C37	C	0.846669	-0.423477	0.751746
C38	C	0.946888	-0.139068	0.751731
C39	C	0.946881	-0.139058	0.668280
C40	C	0.896760	-0.281256	0.626564
C41	C	0.896755	-0.281254	0.536075
C42	C	0.896755	-0.281241	0.463953
H43	H	0.667150	-0.293192	-0.131111
H44	H	0.987697	-0.023276	0.785705
H45	H	0.269639	-0.275639	0.131126
C46	C	0.512584	-0.286364	-0.151759
N47	N	0.479869	-0.284928	-0.211637
C48	C	0.791622	-0.580167	0.622413
N49	N	0.750204	-0.698292	0.587856
C50	C	1.001970	0.017427	0.202382
N51	N	1.043487	0.135273	0.167813
C52	C	0.280944	-0.276110	-0.151767
N53	N	0.313661	-0.277523	-0.211653
C54	C	1.001963	0.017464	0.377618
N55	N	1.043468	0.135352	0.412179
C56	C	0.791498	-0.579870	0.202403
N57	N	0.749979	-0.697713	0.167840
C58	C	1.002000	0.017387	0.622378
N59	N	1.043513	0.135234	0.587806
C60	C	0.791504	-0.579846	0.377652
N61	N	0.749982	-0.697658	0.412230
H62	H	0.667122	-0.293202	0.131128
C63	C	0.791540	-0.579913	0.797651
N64	N	0.750019	-0.697732	0.832226
H65	H	0.523852	-0.286812	0.131128
H66	H	0.126383	-0.269330	-0.131112
C67	C	0.115070	-0.268802	0.151781
N68	N	0.082346	-0.267352	0.211661
