data_functionalizedCrystal
_audit_creation_method	'MofGen! by Chris Wilmer'
_symmetry_space_group_name_H-M	'P1'
_symmetry_Int_Tables_number	1
_symmetry_cell_setting	triclinic
loop_
_symmetry_equiv_pos_as_xyz
  x,y,z
_cell_length_a	10.654550
_cell_length_b	10.654550
_cell_length_c	9.730223
_cell_angle_alpha	89.996763
_cell_angle_beta	89.999957
_cell_angle_gamma	84.484917
loop_
_atom_site_label
_atom_site_type_symbol
_atom_site_fract_x
_atom_site_fract_y
_atom_site_fract_z
O1	O	1.667839	0.176399	-0.114183
O2	O	1.302361	0.193205	-0.114208
O3	O	1.493503	0.002062	-0.114190
O4	O	1.476697	0.367541	-0.114202
O5	O	1.493490	0.002057	0.114390
O6	O	1.302348	0.193199	0.114372
O7	O	1.667827	0.176393	0.114396
Zn8	Zn	1.485085	0.184796	0.150676
Zn9	Zn	1.485102	0.184802	-0.150488
O10	O	1.476684	0.367536	0.114378
C11	C	1.255556	0.191968	0.000078
C12	C	1.116113	0.188276	0.000069
C13	C	1.036627	0.300818	0.000069
C14	C	0.905607	0.297341	0.000093
C15	C	0.933570	0.068772	0.000111
C16	C	1.064588	0.072250	0.000097
C17	C	1.492263	-0.044738	0.000098
C18	C	1.488571	-0.184181	0.000093
C19	C	1.601112	-0.263667	0.000105
C20	C	1.597636	-0.394688	0.000095
C21	C	1.369066	-0.366725	0.000067
C22	C	1.372544	-0.235706	0.000067
C23	C	1.733075	-0.279813	0.000127
C24	C	1.729599	-0.410834	0.000117
C25	C	1.714631	0.177630	0.000107
C26	C	1.854074	0.181322	0.000107
C27	C	1.477924	0.414336	0.000087
C28	C	1.481616	0.553779	0.000083
N29	N	1.485083	0.184790	0.356212
N30	N	1.485114	0.184798	-0.356024
C31	C	1.569750	0.100188	0.428146
C32	C	1.569763	0.100189	0.572029
C33	C	1.400438	0.269404	0.572032
C34	C	1.400420	0.269396	0.428151
H35	H	1.078574	0.395294	0.000057
N36	N	1.150331	-0.049140	0.000112
H37	H	1.097812	-0.123170	0.000124
H38	H	1.205299	-0.052679	-0.084626
H39	H	0.891602	-0.025693	0.000142
N40	N	1.795447	-0.466167	0.126824
H41	H	1.827332	-0.396357	0.183380
H42	H	1.734193	-0.511397	0.183249
H43	H	1.280902	-0.170993	0.000039
N44	N	1.243928	-0.422298	0.000038
H45	H	1.258800	-0.517360	0.000036
H46	H	1.194623	-0.393299	0.084770
H47	H	1.331468	0.338290	0.369579
H48	H	1.638687	0.031295	0.369577
H49	H	1.775092	-0.244188	0.098826
N50	N	0.819874	0.418725	0.000171
H51	H	0.872401	0.492749	0.000176
H52	H	0.764861	0.422305	-0.084534
N53	N	1.661099	0.008958	0.649617
H54	H	1.714733	-0.044631	0.582207
H55	H	1.717029	0.057583	0.709289
N56	N	1.309126	0.360654	0.649623
H57	H	1.321985	0.347825	0.751687
H58	H	1.324397	0.449886	0.624457
N59	N	1.782462	-0.471298	-0.130592
H60	H	1.731618	-0.435814	-0.211717
H61	H	1.873209	-0.453110	-0.141668
N62	N	1.801451	-0.240906	-0.126563
H63	H	1.829449	-0.318045	-0.183106
H64	H	1.742998	-0.181035	-0.183008
