data_functionalizedCrystal
_audit_creation_method	'MofGen! by Chris Wilmer'
_symmetry_space_group_name_H-M	'P1'
_symmetry_Int_Tables_number	1
_symmetry_cell_setting	triclinic
loop_
_symmetry_equiv_pos_as_xyz
  x,y,z
_cell_length_a	12.759401
_cell_length_b	16.120444
_cell_length_c	12.759393
_cell_angle_alpha	87.136376
_cell_angle_beta	90.018496
_cell_angle_gamma	92.926596
loop_
_atom_site_label
_atom_site_type_symbol
_atom_site_fract_x
_atom_site_fract_y
_atom_site_fract_z
Zn1	Zn	1.584964	-0.331854	0.615151
Zn2	Zn	1.575912	-0.471293	0.448366
Zn3	Zn	1.409263	-0.331898	0.439493
Zn4	Zn	1.400313	-0.471228	0.624004
O5	O	1.492613	-0.401568	0.531754
O6	O	1.730784	-0.350360	0.593035
O7	O	1.553764	-0.452847	0.300171
O8	O	1.440104	-0.215227	0.455376
O9	O	1.724134	-0.452804	0.470499
O10	O	1.569191	-0.215194	0.584432
O11	O	1.431327	-0.350434	0.293652
O12	O	1.261056	-0.350372	0.463960
O13	O	1.424850	-0.452695	0.769848
O14	O	1.254480	-0.452737	0.599519
O15	O	1.560512	-0.350298	0.763344
O16	O	1.545085	-0.587950	0.479083
O17	O	1.416072	-0.587903	0.608123
C18	C	1.219647	-0.401553	0.531738
C19	C	1.102869	-0.401567	0.531758
C20	C	1.044605	-0.454954	0.602238
C21	C	0.934880	-0.454964	0.602250
C22	C	0.941694	-0.348198	0.461293
C23	C	1.051417	-0.348184	0.461287
C24	C	1.096058	-0.508336	0.672709
C25	C	1.037793	-0.561728	0.743194
C26	C	0.928069	-0.561739	0.743206
C27	C	0.876608	-0.508357	0.672733
C28	C	1.478654	-0.618176	0.545550
C29	C	1.472778	-0.710842	0.551487
C30	C	1.523352	-0.921787	0.501181
C31	C	1.462069	-0.880498	0.562338
C32	C	1.468029	-0.786093	0.556298
C33	C	1.517393	-1.016201	0.507218
C34	C	1.766645	-0.401584	0.531770
C35	C	1.883422	-0.401591	0.531776
C36	C	1.492692	-0.401484	0.805782
C37	C	1.492726	-0.401448	0.922556
C38	C	1.506656	-0.184115	0.517927
C39	C	1.512640	-0.091449	0.512035
C40	C	1.492599	-0.401592	0.258788
C41	C	1.492784	-0.401393	0.141999
C42	C	1.563375	-0.348125	0.974033
C43	C	1.563402	-0.348095	1.083755
C44	C	1.422127	-0.454719	1.090515
C45	C	1.422096	-0.454744	0.980794
C46	C	1.634005	-0.294829	0.915795
C47	C	1.704660	-0.241502	0.967272
C48	C	1.704687	-0.241472	1.076994
C49	C	1.634058	-0.294769	1.135240
H50	H	1.079700	-0.605184	0.800576
H51	H	1.634074	-0.294730	1.224582
C52	C	0.886020	-0.290160	0.384731
C53	C	0.960533	-0.243386	0.323022
C54	C	0.909288	-0.189907	0.252487
H55	H	0.841156	-0.321924	0.340822
H56	H	0.845589	-0.253833	0.422661
H57	H	1.000947	-0.279708	0.285095
H58	H	1.005400	-0.211606	0.366902
H59	H	0.868856	-0.153580	0.290417
H60	H	0.864425	-0.221677	0.208585
H61	H	0.959837	-0.158159	0.210616
H62	H	1.405127	-0.916050	0.619231
H63	H	1.098857	-0.304705	0.403903
C64	C	1.345340	-0.512619	1.153562
C65	C	1.283442	-0.559310	1.084995
C66	C	1.212687	-0.612652	1.143034
H67	H	1.383077	-0.549010	1.198679
H68	H	1.301578	-0.480734	1.194318
H69	H	1.327198	-0.591193	1.044257
H70	H	1.245683	-0.522941	1.039877
H71	H	1.168926	-0.580767	1.183790
H72	H	1.250433	-0.649038	1.188149
H73	H	1.170675	-0.644333	1.096520
H74	H	1.580289	-0.886239	0.444290
C75	C	1.634102	-0.294707	0.796659
C76	C	1.711058	-0.236608	0.756670
C77	C	1.711169	-0.236468	0.646928
H78	H	1.648823	-0.348468	0.775124
H79	H	1.567251	-0.280247	0.770875
H80	H	1.777894	-0.251074	0.782444
H81	H	1.696354	-0.182840	0.778176
H82	H	1.644318	-0.222007	0.621143
H83	H	1.725887	-0.290231	0.625403
H84	H	1.763375	-0.197043	0.619781
H85	H	1.762157	-0.198104	0.919841
H86	H	1.762211	-0.198044	1.118903
C87	C	1.345440	-0.512549	0.924702
C88	C	1.360511	-0.501145	0.816148
C89	C	1.289902	-0.554370	0.764441
H90	H	1.357130	-0.568597	0.946111
H91	H	1.275621	-0.500329	0.941842
H92	H	1.430315	-0.513370	0.799015
H93	H	1.348813	-0.445108	0.794708
H94	H	1.220082	-0.542150	0.781582
H95	H	1.301598	-0.610415	0.785859
H96	H	1.300111	-0.546634	0.690782
C97	C	0.864946	-0.619653	0.819899
C98	C	0.892860	-0.601613	0.922735
C99	C	0.834746	-0.654959	0.993410
H100	H	0.792210	-0.612070	0.809962
H101	H	0.879343	-0.675666	0.808030
H102	H	0.878456	-0.545614	0.934599
H103	H	0.965587	-0.609201	0.932705
H104	H	0.849143	-0.710971	0.981542
H105	H	0.762013	-0.647372	0.983464
H106	H	0.853684	-0.642731	1.063192
C107	C	0.757469	-0.508490	0.672908
C108	C	0.717454	-0.566668	0.749718
C109	C	0.607711	-0.566812	0.749913
H110	H	0.736019	-0.454750	0.687816
H111	H	0.731618	-0.522879	0.606027
H112	H	0.743294	-0.552274	0.816584
H113	H	0.738875	-0.620417	0.734828
H114	H	0.581860	-0.581201	0.683032
H115	H	0.586271	-0.513069	0.764818
H116	H	0.580546	-0.606290	0.802020
H117	H	1.185401	-0.508335	0.672705
