data_functionalizedCrystal
_audit_creation_method	'MofGen! by Chris Wilmer'
_symmetry_space_group_name_H-M	'P1'
_symmetry_Int_Tables_number	1
_symmetry_cell_setting	triclinic
loop_
_symmetry_equiv_pos_as_xyz
  x,y,z
_cell_length_a	16.120484
_cell_length_b	12.827893
_cell_length_c	12.827885
_cell_angle_alpha	89.983302
_cell_angle_beta	92.863938
_cell_angle_gamma	92.928290
loop_
_atom_site_label
_atom_site_type_symbol
_atom_site_fract_x
_atom_site_fract_y
_atom_site_fract_z
Zn1	Zn	-0.331800	1.576510	-0.611815
Zn2	Zn	-0.471236	1.567510	-0.445919
Zn3	Zn	-0.331848	1.401748	-0.437100
Zn4	Zn	-0.471181	1.392847	-0.620624
O5	O	-0.401516	1.484654	-0.528864
O6	O	-0.350300	1.721552	-0.589813
O7	O	-0.452789	1.545480	-0.298515
O8	O	-0.215176	1.432421	-0.452900
O9	O	-0.452742	1.714940	-0.467929
O10	O	-0.215141	1.560819	-0.581262
O11	O	-0.350381	1.423695	-0.292037
O12	O	-0.350328	1.254331	-0.461441
O13	O	-0.452649	1.417252	-0.765689
O14	O	-0.452696	1.247792	-0.596275
O15	O	-0.350247	1.552188	-0.759217
O16	O	-0.587894	1.536850	-0.476471
O17	O	-0.587854	1.408525	-0.604826
C18	C	-0.618124	1.470774	-0.542584
C19	C	-0.710790	1.464931	-0.548488
C20	C	-0.401512	1.213144	-0.528857
C21	C	-0.401530	1.096990	-0.528880
C22	C	-0.401436	1.484731	-0.801430
C23	C	-0.401402	1.484764	-0.917581
C24	C	-0.880451	1.454270	-0.559289
C25	C	-0.921741	1.515224	-0.498457
C26	C	-1.016146	1.509293	-0.504467
C27	C	-0.786037	1.460201	-0.553280
C28	C	-0.184063	1.498617	-0.515114
C29	C	-0.091397	1.504567	-0.509255
C30	C	-0.401522	1.757224	-0.528872
C31	C	-0.401524	1.873377	-0.528875
C32	C	-0.350842	2.048477	-0.589184
C33	C	-0.350839	1.928427	-0.589182
C34	C	-0.350718	1.424522	-0.966159
C35	C	-0.350681	1.424554	-1.086207
C36	C	-0.401536	1.484641	-0.257356
C37	C	-0.401335	1.484825	-0.141190
H38	H	-0.886189	1.571863	-0.441864
C39	C	-0.292210	2.112423	-0.658929
C40	C	-0.292292	2.232463	-0.658824
C41	C	-0.233655	2.296406	-0.728567
C42	C	-0.174935	2.240309	-0.798414
C43	C	-0.174851	2.120262	-0.798521
C44	C	-0.233488	2.056319	-0.728778
H45	H	-0.335762	2.273995	-0.607117
H46	H	-0.233718	2.385273	-0.728487
H47	H	-0.131528	2.287643	-0.850041
H48	H	-0.131381	2.078730	-0.850228
H49	H	-0.233425	1.967452	-0.728858
C50	C	-0.292056	1.354874	-1.142650
C51	C	-0.328211	1.270595	-1.219996
C52	C	-0.269584	1.200913	-1.276441
C53	C	-0.174802	1.215509	-1.255541
C54	C	-0.138642	1.299791	-1.178192
C55	C	-0.197269	1.369474	-1.121747
H56	H	-0.398379	1.259787	-1.235470
H57	H	-0.296353	1.138521	-1.333700
H58	H	-0.131403	1.163925	-1.297326
H59	H	-0.068474	1.310599	-1.162718
H60	H	-0.170501	1.431865	-1.064488
C61	C	-0.459991	1.554476	-0.981449
C62	C	-0.525367	1.504948	-1.060644
C63	C	-0.583957	1.574663	-1.124509
C64	C	-0.577172	1.693907	-1.109180
C65	C	-0.511793	1.743442	-1.029981
C66	C	-0.453203	1.673727	-0.966116
H67	H	-0.530392	1.416671	-1.071995
H68	H	-0.632355	1.537993	-1.183137
H69	H	-0.620544	1.745514	-1.156457
H70	H	-0.506768	1.831719	-1.018630
H71	H	-0.404805	1.710397	-0.907488
C72	C	-0.460155	2.033044	-0.459127
C73	C	-0.554940	2.041864	-0.473634
C74	C	-0.613567	1.977922	-0.403878
C75	C	-0.577409	1.905160	-0.319615
C76	C	-0.482619	1.896337	-0.305104
C77	C	-0.423992	1.960279	-0.374860
H78	H	-0.581710	2.095730	-0.536014
H79	H	-0.683737	1.984454	-0.414620
H80	H	-0.620809	1.857826	-0.267977
H81	H	-0.455849	1.842471	-0.242724
H82	H	-0.353822	1.953747	-0.364117
H83	H	-0.916001	1.397635	-0.615876
H84	H	-0.307446	1.886694	-0.640814
H85	H	-0.444927	1.915102	-0.477250
H86	H	-0.307355	1.372917	-0.918873
H87	H	-0.444727	1.536408	-1.099409
