data_functionalizedCrystal
_audit_creation_method	'MofGen! by Chris Wilmer'
_symmetry_space_group_name_H-M	'P1'
_symmetry_Int_Tables_number	1
_symmetry_cell_setting	triclinic
loop_
_symmetry_equiv_pos_as_xyz
  x,y,z
_cell_length_a	10.654554
_cell_length_b	14.044190
_cell_length_c	9.730223
_cell_angle_alpha	89.993542
_cell_angle_beta	90.001137
_cell_angle_gamma	88.839261
loop_
_atom_site_label
_atom_site_type_symbol
_atom_site_fract_x
_atom_site_fract_y
_atom_site_fract_z
O1	O	1.681225	0.133248	-0.114264
O2	O	1.317023	0.145937	-0.114278
O3	O	1.493653	0.001572	-0.114244
O4	O	1.504595	0.277614	-0.114298
O5	O	1.493651	0.001575	0.114336
O6	O	1.317021	0.145941	0.114302
O7	O	1.681223	0.133252	0.114316
Zn8	Zn	1.499122	0.139597	0.150601
Zn9	Zn	1.499124	0.139592	-0.150563
O10	O	1.504594	0.277617	0.114282
C11	C	1.270130	0.145006	0.000011
C12	C	1.130407	0.142216	0.000007
C13	C	1.488865	-0.033772	0.000050
C14	C	1.474586	-0.139092	0.000061
C15	C	0.928180	0.224598	0.000003
C16	C	1.059465	0.227220	-0.000008
C17	C	1.070058	0.054584	0.000019
C18	C	0.938775	0.051963	0.000020
C19	C	0.857244	0.309608	0.000002
C20	C	0.917584	0.397240	-0.000012
C21	C	1.048869	0.399862	-0.000023
C22	C	1.119814	0.314852	-0.000020
C23	C	1.549751	-0.388884	0.000010
C24	C	1.448501	-0.331922	0.000016
C25	C	1.463018	-0.224622	0.000041
C26	C	1.535236	-0.496194	-0.000015
C27	C	1.728116	0.134183	0.000024
C28	C	1.867839	0.136973	0.000019
C29	C	1.509382	0.312961	-0.000015
C30	C	1.523661	0.418281	-0.000035
N31	N	1.499129	0.139600	0.356137
N32	N	1.499126	0.139582	-0.356099
C33	C	1.577365	0.075697	0.428078
C34	C	1.577361	0.075685	0.571961
C35	C	1.420881	0.203488	0.571950
C36	C	1.420880	0.203494	0.428069
C37	C	1.655614	0.011802	0.356146
C38	C	1.733858	-0.052106	0.428087
C39	C	1.733853	-0.052117	0.571970
C40	C	1.655605	0.011779	0.643912
H41	H	0.750345	0.307482	0.000017
H42	H	1.797557	-0.104133	0.369505
H43	H	1.647329	-0.357067	0.000028
H44	H	1.357172	0.255529	0.369494
H45	H	1.655628	0.011807	0.238990
H46	H	0.889645	-0.019389	0.000031
H47	H	1.226715	0.316995	-0.000057
H48	H	1.797553	-0.104159	0.630543
F49	F	1.320948	-0.373507	0.000007
F50	F	1.337613	0.271488	0.648519
H51	H	1.655599	0.011758	0.761072
F52	F	1.145566	-0.035882	0.000028
H53	H	0.859813	0.466451	-0.000025
H54	H	1.097994	0.471216	-0.000047
