data_functionalizedCrystal
_audit_creation_method	'MofGen! by Chris Wilmer'
_symmetry_space_group_name_H-M	'P1'
_symmetry_Int_Tables_number	1
_symmetry_cell_setting	triclinic
loop_
_symmetry_equiv_pos_as_xyz
  x,y,z
_cell_length_a	6.817900
_cell_length_b	11.084654
_cell_length_c	11.168121
_cell_angle_alpha	87.517782
_cell_angle_beta	108.508496
_cell_angle_gamma	72.826966
loop_
_atom_site_label
_atom_site_type_symbol
_atom_site_fract_x
_atom_site_fract_y
_atom_site_fract_z
V1	V	-4.094145	0.393709	-0.174719
O2	O	-4.054029	0.386203	0.008381
O3	O	-4.070540	0.391027	-0.346424
O4	O	-4.063572	0.565414	-0.172038
O5	O	-4.061045	0.210609	-0.167212
V6	V	-4.572250	0.371807	-0.152817
O7	O	-4.367288	0.441752	-0.222762
O8	O	-4.749304	0.323765	-0.104774
O9	O	-4.372649	0.374490	0.018888
O10	O	-4.729762	0.379313	-0.335917
O11	O	-4.722746	0.554908	-0.160324
O12	O	-4.379616	0.200102	-0.155498
C13	C	-3.920995	0.384818	-0.388282
C14	C	-3.983101	0.383770	-0.528653
C15	C	-4.185389	0.389291	-0.597346
C16	C	-4.249583	0.388208	-0.742427
C17	C	-4.194424	0.158244	-0.161707
C18	C	-4.117210	0.017873	-0.162757
C19	C	-3.920282	-0.038602	-0.169209
C20	C	-3.840474	-0.183683	-0.170294
C21	C	-3.912106	0.607265	-0.165833
C22	C	-3.968557	0.747635	-0.164777
C23	C	-4.185535	0.380694	0.060739
C24	C	-4.102669	0.381751	0.201109
H25	H	-3.929369	0.377020	-0.739847
C26	C	-3.773965	0.040027	-0.175241
C27	C	-3.579064	-0.005091	-0.070124
C28	C	-3.444231	0.067319	-0.075626
H29	H	-3.741775	0.032708	-0.251889
H30	H	-3.846899	0.127077	-0.173606
H31	H	-3.506144	-0.092119	-0.071770
H32	H	-3.611187	0.002231	0.006540
H33	H	-3.517164	0.154368	-0.073992
H34	H	-3.412057	0.059995	-0.152279
H35	H	-3.311984	0.036724	-0.004301
H36	H	-3.671748	-0.232273	-0.175827
H37	H	-3.857442	0.378248	-0.577252
H38	H	-4.422869	0.392920	-0.801476
H39	H	-4.311055	0.394828	-0.548750
C40	C	-4.193634	-0.187394	-0.157613
C41	C	-4.319213	-0.094993	-0.265810
C42	C	-4.526558	-0.035094	-0.259247
H43	H	-4.263925	-0.249153	-0.154351
H44	H	-4.178806	-0.147659	-0.083031
H45	H	-4.334048	-0.134727	-0.340372
H46	H	-4.248990	-0.033209	-0.269094
H47	H	-4.511731	0.004641	-0.184666
H48	H	-4.596828	-0.096862	-0.255982
H49	H	-4.611782	0.027615	-0.332650
H50	H	-4.226723	-0.041184	-0.158035
