data_functionalizedCrystal
_audit_creation_method	'MofGen! by Chris Wilmer'
_symmetry_space_group_name_H-M	'P1'
_symmetry_Int_Tables_number	1
_symmetry_cell_setting	triclinic
loop_
_symmetry_equiv_pos_as_xyz
  x,y,z
_cell_length_a	16.109296
_cell_length_b	16.109304
_cell_length_c	15.186229
_cell_angle_alpha	90.003016
_cell_angle_beta	90.001515
_cell_angle_gamma	96.539036
loop_
_atom_site_label
_atom_site_type_symbol
_atom_site_fract_x
_atom_site_fract_y
_atom_site_fract_z
O1	O	-1.103131	0.106848	0.073182
O2	O	-0.603131	0.606848	0.573182
O3	O	-0.861068	0.120152	0.073192
O4	O	-0.361068	0.620152	0.573192
O5	O	-0.988748	-0.007531	0.073187
O6	O	-0.488748	0.492469	0.573187
O7	O	-0.975451	0.234531	0.073186
O8	O	-0.475451	0.734531	0.573186
O9	O	-0.988747	-0.007539	-0.073270
O10	O	-0.488747	0.492461	0.426730
O11	O	-0.861067	0.120144	-0.073266
O12	O	-0.361067	0.620144	0.426734
O13	O	-1.103130	0.106840	-0.073276
O14	O	-0.603130	0.606840	0.426724
Zn15	Zn	-0.982098	0.113491	-0.096524
Zn16	Zn	-0.482098	0.613491	0.403476
Zn17	Zn	-0.982100	0.113501	0.096440
Zn18	Zn	-0.482100	0.613501	0.596440
O19	O	-0.975450	0.234523	-0.073271
O20	O	-0.475450	0.734523	0.426729
C21	C	-0.830093	0.119610	-0.000036
C22	C	-0.330093	0.619610	0.499964
C23	C	-0.737797	0.117996	-0.000031
C24	C	-0.237797	0.617996	0.499969
C25	C	-0.428799	0.188485	-0.000049
C26	C	0.071201	0.688485	0.499951
C27	C	-0.515519	0.190009	-0.000043
C28	C	-0.015519	0.690009	0.499957
C29	C	-0.535391	0.038520	-0.000031
C30	C	-0.035391	0.538520	0.499969
C31	C	-0.448672	0.036997	-0.000030
C32	C	0.051328	0.536997	0.499970
C33	C	-0.395378	0.111983	-0.000044
C34	C	0.104622	0.611983	0.499956
C35	C	-0.568817	0.115029	-0.000039
C36	C	-0.068817	0.615029	0.499961
C37	C	-0.662844	0.116680	-0.000033
C38	C	-0.162844	0.616680	0.499967
C39	C	-0.301346	0.110331	-0.000048
C40	C	0.198654	0.610331	0.499952
C41	C	-0.988208	-0.038510	-0.000040
C42	C	-0.488208	0.461490	0.499960
C43	C	-0.986592	-0.130805	-0.000034
C44	C	-0.486592	0.369195	0.499966
C45	C	-0.982859	-0.343138	0.079797
C46	C	-0.482859	0.156862	0.579797
C47	C	-0.981333	-0.429858	0.079796
C48	C	-0.481333	0.070142	0.579796
C49	C	-0.981336	-0.429864	-0.079880
C50	C	-0.481336	0.070136	0.420120
C51	C	-0.982856	-0.343144	-0.079878
C52	C	-0.482856	0.156856	0.420122
C53	C	-0.983622	-0.299785	-0.000037
C54	C	-0.483622	0.200215	0.499963
C55	C	-0.980576	-0.473224	-0.000039
C56	C	-0.480576	0.026776	0.499961
C57	C	-0.978921	-0.567250	-0.000041
C58	C	-0.478921	-0.067250	0.499959
C59	C	-0.985275	-0.205753	-0.000035
C60	C	-0.485275	0.294247	0.499965
C61	C	-0.134105	0.107387	-0.000048
C62	C	0.365895	0.607387	0.499952
C63	C	-0.226398	0.109015	-0.000051
C64	C	0.273602	0.609015	0.499949
C65	C	-0.975990	0.265502	-0.000042
C66	C	-0.475990	0.765502	0.499958
C67	C	-0.977606	0.357797	-0.000043
C68	C	-0.477606	0.857797	0.499957
N69	N	-0.982101	0.113502	0.228133
N70	N	-0.482101	0.613502	0.728133
N71	N	-0.982104	0.113483	-0.228217
N72	N	-0.482104	0.613483	0.271783
C73	C	-1.038747	0.057073	0.453853
C74	C	-0.538747	0.557073	0.953853
C75	C	-1.038749	0.057071	0.546043
C76	C	-0.538749	0.557071	1.046043
C77	C	-0.925455	0.169918	0.546056
C78	C	-0.425455	0.669918	1.046056
C79	C	-0.925457	0.169924	0.453868
C80	C	-0.425457	0.669924	0.953868
C81	C	-0.982102	0.113496	0.407769
C82	C	-0.482102	0.613496	0.907769
C83	C	-0.982102	0.113489	0.592147
C84	C	-0.482102	0.613489	1.092147
C85	C	-0.982105	0.113487	0.692103
C86	C	-0.482105	0.613487	1.192103
C87	C	-0.982101	0.113499	0.307807
C88	C	-0.482101	0.613499	0.807807
H89	H	-0.578794	-0.022530	-0.000022
H90	H	-0.078794	0.477470	0.499978
H91	H	-0.385409	0.249543	-0.000059
H92	H	0.114591	0.749543	0.499941
C93	C	-1.087796	-0.086811	0.574235
C94	C	-0.587796	0.413189	1.074235
C95	C	-1.101009	-0.005022	0.596620
C96	C	-0.601009	0.494978	1.096620
H97	H	-1.126233	-0.125164	0.605440
H98	H	-0.626233	0.374836	1.105440
H99	H	-1.095856	-0.094808	0.512726
H100	H	-0.595856	0.405192	1.012726
H101	H	-1.032341	-0.095932	0.589374
H102	H	-0.532341	0.404068	1.089374
H103	H	-1.156463	0.004102	0.581475
H104	H	-0.656463	0.504102	1.081475
H105	H	-1.092957	0.002978	0.658143
H106	H	-0.592957	0.502978	1.158143
C107	C	-1.057041	-0.056062	0.350170
C108	C	-0.557041	0.443938	0.850170
C109	C	-1.101013	-0.004946	0.403178
C110	C	-0.601013	0.495054	0.903178
H111	H	-1.095484	-0.094353	0.318891
H112	H	-0.595484	0.405647	0.818891
H113	H	-1.023313	-0.022458	0.309532
H114	H	-0.523313	0.477542	0.809532
H115	H	-1.022513	-0.086052	0.386140
H116	H	-0.522513	0.413948	0.886140
H117	H	-1.135536	0.025049	0.367207
H118	H	-0.635536	0.525049	0.867207
H119	H	-1.134755	-0.038554	0.443821
H120	H	-0.634755	0.461446	0.943821
H121	H	-0.421462	-0.025304	-0.000023
H122	H	0.078538	0.474696	0.499977
C123	C	-1.055994	-0.254982	-0.172509
C124	C	-0.555994	0.245018	0.327491
C125	C	-0.983695	-0.295481	-0.167637
C126	C	-0.483695	0.204519	0.332363
H127	H	-1.056504	-0.225553	-0.226683
H128	H	-0.556504	0.274447	0.273317
H129	H	-1.103847	-0.295165	-0.169200
H130	H	-0.603847	0.204835	0.330800
H131	H	-1.056653	-0.216751	-0.124954
H132	H	-0.556653	0.283249	0.375046
H133	H	-0.983038	-0.333717	-0.215189
H134	H	-0.483038	0.166283	0.284811
H135	H	-0.935829	-0.255294	-0.170955
H136	H	-0.435829	0.244706	0.329045
C137	C	-0.911881	-0.307079	0.215887
C138	C	-0.411881	0.192921	0.715887
C139	C	-0.983684	-0.295480	0.167560
C140	C	-0.483684	0.204520	0.667560
H141	H	-0.912386	-0.277655	0.270068
H142	H	-0.412386	0.222345	0.770068
H143	H	-0.910874	-0.364926	0.227300
H144	H	-0.410874	0.135074	0.727300
H145	H	-0.863686	-0.286507	0.183070
H146	H	-0.363686	0.213493	0.683070
H147	H	-1.031879	-0.316058	0.200374
H148	H	-0.531879	0.183942	0.700374
H149	H	-0.984699	-0.237621	0.156150
H150	H	-0.484699	0.262379	0.656150
H151	H	-0.980710	-0.465153	0.144805
H152	H	-0.480710	0.034847	0.644805
C153	C	-0.487161	0.339594	-0.000068
C154	C	0.012839	0.839594	0.499932
C155	C	-0.552255	0.274104	-0.000055
C156	C	-0.052255	0.774104	0.499945
H157	H	-0.509842	0.391512	-0.000080
H158	H	-0.009842	0.891512	0.499920
H159	H	-0.453749	0.335858	0.051001
H160	H	0.046251	0.835858	0.551001
H161	H	-0.453754	0.335833	-0.051145
H162	H	0.046246	0.835833	0.448855
H163	H	-0.585659	0.277861	0.051026
H164	H	-0.085659	0.777861	0.551026
H165	H	-0.585681	0.277842	-0.051129
H166	H	-0.085681	0.777842	0.448871
C167	C	-0.979024	-0.562804	-0.150782
C168	C	-0.479024	-0.062804	0.349218
C169	C	-0.980511	-0.477530	-0.167638
C170	C	-0.480511	0.022470	0.332362
H171	H	-0.978523	-0.592229	-0.204963
H172	H	-0.478523	-0.092229	0.295037
H173	H	-0.930321	-0.570659	-0.117991
H174	H	-0.430321	-0.070659	0.382009
H175	H	-1.027230	-0.583357	-0.117973
H176	H	-0.527230	-0.083357	0.382027
H177	H	-0.932302	-0.456976	-0.200441
H178	H	-0.432302	0.043024	0.299559
H179	H	-1.029220	-0.469670	-0.200443
H180	H	-0.529220	0.030330	0.299557
C181	C	-0.875139	0.220009	0.687381
C182	C	-0.375139	0.720009	1.187381
C183	C	-0.863185	0.231932	0.596732
C184	C	-0.363185	0.731932	1.096732
H185	H	-0.836689	0.258291	0.718662
H186	H	-0.336689	0.758291	1.218662
H187	H	-0.930582	0.229169	0.702488
H188	H	-0.430582	0.729169	1.202488
H189	H	-0.866238	0.164483	0.702470
H190	H	-0.366238	0.664483	1.202470
H191	H	-0.872092	0.287456	0.581642
H192	H	-0.372092	0.787456	1.081642
H193	H	-0.807728	0.222779	0.581618
H194	H	-0.307728	0.722779	1.081618
C195	C	-0.813460	0.281466	0.463134
C196	C	-0.313460	0.781466	0.963134
C197	C	-0.863186	0.231947	0.403206
C198	C	-0.363186	0.731947	0.903206
H199	H	-0.775017	0.319752	0.431855
H200	H	-0.275017	0.819752	0.931855
H201	H	-0.847988	0.311455	0.499093
H202	H	-0.347988	0.811455	0.999093
H203	H	-0.783639	0.246774	0.499088
H204	H	-0.283639	0.746774	0.999088
H205	H	-0.893012	0.266639	0.367256
H206	H	-0.393012	0.766639	0.867256
H207	H	-0.828654	0.201956	0.367232
H208	H	-0.328654	0.701956	0.867232
