data_functionalizedCrystal
_audit_creation_method	'MofGen! by Chris Wilmer'
_symmetry_space_group_name_H-M	'P1'
_symmetry_Int_Tables_number	1
_symmetry_cell_setting	triclinic
loop_
_symmetry_equiv_pos_as_xyz
  x,y,z
_cell_length_a	17.077404
_cell_length_b	13.897448
_cell_length_c	17.077396
_cell_angle_alpha	89.972632
_cell_angle_beta	89.980499
_cell_angle_gamma	90.017917
loop_
_atom_site_label
_atom_site_type_symbol
_atom_site_fract_x
_atom_site_fract_y
_atom_site_fract_z
Zn1	Zn	1.200083	-0.384009	-0.443849
Zn2	Zn	1.200002	-0.545322	-0.312585
Zn3	Zn	1.068815	-0.384043	-0.312597
Zn4	Zn	1.068795	-0.545264	-0.443809
O5	O	1.134424	-0.464660	-0.378210
O6	O	1.309919	-0.405417	-0.426448
O7	O	1.182574	-0.523966	-0.202740
O8	O	1.086270	-0.249057	-0.330029
O9	O	1.309860	-0.523933	-0.330010
O10	O	1.182712	-0.249032	-0.426459
O11	O	1.086192	-0.405475	-0.202748
O12	O	0.958965	-0.405420	-0.329990
O13	O	1.086236	-0.523835	-0.553661
O14	O	0.958950	-0.523868	-0.426391
O15	O	1.182693	-0.405362	-0.553690
O16	O	1.182555	-0.680296	-0.329971
O17	O	1.086157	-0.680254	-0.426380
C18	C	0.930476	-0.464642	-0.378188
C19	C	0.843226	-0.464658	-0.378198
C20	C	0.802249	-0.526427	-0.428313
C21	C	0.720268	-0.526429	-0.428326
C22	C	0.679267	-0.464666	-0.378218
C23	C	0.720250	-0.402890	-0.328100
C24	C	0.802229	-0.402884	-0.328092
C25	C	0.549380	-0.402909	-0.328119
C26	C	0.467395	-0.402916	-0.328126
C27	C	0.467419	-0.526454	-0.428353
C28	C	0.549398	-0.526448	-0.428345
C29	C	0.590376	-0.464673	-0.378226
C30	C	1.134366	-0.715274	-0.378187
C31	C	1.134414	-0.822488	-0.378204
C32	C	1.134496	-1.018783	-0.378253
C33	C	1.134448	-0.909550	-0.378228
C34	C	1.339168	-0.464678	-0.378232
C35	C	1.426418	-0.464686	-0.378242
C36	C	1.134471	-0.464588	-0.582954
C37	C	1.134491	-0.464558	-0.670204
C38	C	1.134502	-0.213067	-0.378250
C39	C	1.134536	-0.105853	-0.378267
C40	C	1.184718	-0.402864	-0.711211
C41	C	1.184728	-0.402832	-0.793191
C42	C	1.134514	-0.464500	-0.834164
C43	C	1.084281	-0.526197	-0.793151
C44	C	1.084268	-0.526223	-0.711172
C45	C	1.084313	-0.526139	-0.964021
C46	C	1.084326	-0.526114	-1.046006
C47	C	1.184772	-0.402747	-1.046040
C48	C	1.184759	-0.402774	-0.964061
C49	C	1.134528	-0.464472	-0.923055
C50	C	1.134421	-0.464661	-0.174262
C51	C	1.134553	-0.464419	-0.087013
H52	H	0.582741	-0.352597	-0.287314
O53	O	1.035429	-0.586133	-0.832828
C54	C	0.991108	-0.640609	-0.779052
H55	H	0.988391	-0.601116	-0.720622
H56	H	1.019830	-0.713872	-0.770323
C57	C	0.910902	-0.703003	-0.882795
C58	C	0.907560	-0.654493	-0.811032
H59	H	0.859367	-0.711572	-0.902523
H60	H	0.940764	-0.666305	-0.919026
H61	H	0.934841	-0.764050	-0.875511
H62	H	0.883631	-0.593443	-0.818319
H63	H	0.877692	-0.691182	-0.774803
H64	H	1.225611	-0.352650	-0.677857
H65	H	0.686860	-0.352597	-0.287305
O66	O	0.841915	-0.342856	-0.279331
C67	C	0.788149	-0.288328	-0.235118
H68	H	0.729702	-0.327837	-0.232351
H69	H	0.779459	-0.215114	-0.263966
C70	C	0.891896	-0.225773	-0.154987
C71	C	0.820111	-0.274302	-0.151584
H72	H	0.911612	-0.217117	-0.103461
H73	H	0.928120	-0.262506	-0.184776
H74	H	0.884644	-0.164766	-0.179031
H75	H	0.827365	-0.335312	-0.127550
H76	H	0.783889	-0.237579	-0.121789
H77	H	1.225629	-0.352596	-0.826575
H78	H	1.043360	-0.576451	-0.677786
H79	H	0.835626	-0.576725	-0.469114
O80	O	0.427516	-0.343037	-0.279397
C81	C	0.380030	-0.397847	-0.228632
H82	H	0.404722	-0.473802	-0.223625
H83	H	0.317921	-0.401238	-0.252930
C84	C	0.348378	-0.257248	-0.153268
C85	C	0.378708	-0.350534	-0.147114
H86	H	0.347559	-0.228062	-0.102985
H87	H	0.380367	-0.220320	-0.187471
H88	H	0.296623	-0.260087	-0.173520
H89	H	0.430466	-0.347694	-0.126873
H90	H	0.346727	-0.387461	-0.112906
O91	O	0.680584	-0.586534	-0.477024
C92	C	0.734353	-0.641039	-0.521254
H93	H	0.792776	-0.644310	-0.489092
H94	H	0.743101	-0.605825	-0.580927
C95	C	0.630590	-0.739707	-0.571906
C96	C	0.702345	-0.743732	-0.532400
H97	H	0.610845	-0.803052	-0.578785
H98	H	0.594364	-0.702985	-0.542110
H99	H	0.637890	-0.710358	-0.621629
H100	H	0.695042	-0.773069	-0.482674
H101	H	0.738569	-0.780462	-0.562188
O102	O	1.035472	-0.586043	-1.085687
C103	C	0.991142	-0.640517	-1.031916
H104	H	0.988426	-0.601029	-0.973484
H105	H	1.019856	-0.713785	-1.023190
C106	C	0.910936	-0.702889	-1.135668
C107	C	0.907594	-0.654385	-1.063903
H108	H	0.859401	-0.711448	-1.155400
H109	H	0.940804	-0.666192	-1.171895
H110	H	0.934868	-0.763941	-1.128387
H111	H	0.883672	-0.593330	-1.071187
H112	H	0.877721	-0.691072	-1.027678
H113	H	0.582779	-0.576746	-0.469142
O114	O	1.233563	-0.342781	-0.924381
C115	C	1.277914	-0.288335	-0.978151
H116	H	1.245776	-0.284968	-1.036585
H117	H	1.337522	-0.323661	-0.986873
C118	C	1.328728	-0.189823	-0.874401
C119	C	1.289252	-0.185681	-0.946169
H120	H	1.335725	-0.126503	-0.854672
H121	H	1.298850	-0.226507	-0.838174
H122	H	1.378396	-0.219266	-0.881679
H123	H	1.239580	-0.156250	-0.938889
H124	H	1.319122	-0.148990	-0.982394
H125	H	1.043396	-0.576365	-0.930636
O126	O	0.427497	-0.586369	-0.477018
C127	C	0.346348	-0.573146	-0.466273
H128	H	0.335155	-0.498665	-0.440674
H129	H	0.323051	-0.630295	-0.424391
C130	C	0.318044	-0.673595	-0.577130
C131	C	0.304296	-0.582113	-0.545696
H132	H	0.292103	-0.679131	-0.626121
H133	H	0.372715	-0.682507	-0.584368
H134	H	0.298630	-0.721209	-0.542221
H135	H	0.323719	-0.534502	-0.580600
H136	H	0.249627	-0.573194	-0.538466
H137	H	1.225671	-0.352508	-1.079432
