data_functionalizedCrystal
_audit_creation_method	'MofGen! by Chris Wilmer'
_symmetry_space_group_name_H-M	'P1'
_symmetry_Int_Tables_number	1
_symmetry_cell_setting	triclinic
loop_
_symmetry_equiv_pos_as_xyz
  x,y,z
_cell_length_a	18.215407
_cell_length_b	14.908520
_cell_length_c	18.215399
_cell_angle_alpha	93.269364
_cell_angle_beta	89.980167
_cell_angle_gamma	93.321174
loop_
_atom_site_label
_atom_site_type_symbol
_atom_site_fract_x
_atom_site_fract_y
_atom_site_fract_z
Zn1	Zn	1.108178	-0.359158	-0.433017
Zn2	Zn	1.608178	0.140842	0.066983
Zn3	Zn	1.100989	-0.510027	-0.317051
Zn4	Zn	1.600989	-0.010027	0.182949
Zn5	Zn	0.985109	-0.359188	-0.309966
Zn6	Zn	1.485109	0.140812	0.190034
Zn7	Zn	0.977982	-0.509977	-0.440073
Zn8	Zn	1.477982	-0.009977	0.059927
O9	O	1.043064	-0.434588	-0.375027
O10	O	1.543064	0.065412	0.124973
O11	O	1.210208	-0.379180	-0.417646
O12	O	1.710208	0.120820	0.082354
O13	O	1.085592	-0.490052	-0.213128
O14	O	1.585592	0.009948	0.286872
O15	O	1.007425	-0.232939	-0.320371
O16	O	1.507425	0.267061	0.179629
O17	O	1.204927	-0.490023	-0.332446
O18	O	1.704927	0.009977	0.167554
O19	O	1.097843	-0.232917	-0.410776
O20	O	1.597843	0.267083	0.089224
O21	O	1.000455	-0.379230	-0.207923
O22	O	1.500455	0.120770	0.292077
O23	O	0.881180	-0.379182	-0.327213
O24	O	1.381180	0.120818	0.172787
O25	O	0.995278	-0.489937	-0.542120
O26	O	1.495278	0.010063	-0.042120
O27	O	0.875943	-0.489966	-0.422802
O28	O	1.375943	0.010034	0.077198
O29	O	1.090932	-0.379131	-0.536936
O30	O	1.590932	0.120869	-0.036936
O31	O	1.078681	-0.636266	-0.339288
O32	O	1.578681	-0.136266	0.160712
O33	O	0.988308	-0.636229	-0.429672
O34	O	1.488308	-0.136229	0.070328
C35	C	0.851859	-0.434572	-0.375005
C36	C	1.351859	0.065428	0.124995
C37	C	0.770059	-0.434587	-0.375014
C38	C	1.270059	0.065413	0.124986
C39	C	0.579154	-0.492363	-0.424733
C40	C	1.079154	0.007637	0.075267
C41	C	0.502295	-0.492366	-0.424742
C42	C	1.002295	0.007634	0.075258
C43	C	0.507726	-0.376828	-0.325338
C44	C	1.007726	0.123172	0.174662
C45	C	0.584584	-0.376822	-0.325333
C46	C	1.084584	0.123178	0.174667
C47	C	0.620295	-0.434594	-0.375029
C48	C	1.120295	0.065406	0.124971
C49	C	0.466579	-0.434604	-0.375044
C50	C	0.966579	0.065396	0.124956
C51	C	0.383245	-0.434606	-0.375053
C52	C	0.883245	0.065394	0.124947
C53	C	0.703635	-0.434591	-0.375021
C54	C	1.203635	0.065409	0.124979
C55	C	1.031961	-0.668981	-0.386030
C56	C	1.531961	-0.168981	0.113970
C57	C	1.027278	-0.769256	-0.390762
C58	C	1.527278	-0.269256	0.109238
C59	C	1.112681	-0.957660	-0.305613
C60	C	1.612681	-0.457660	0.194387
C61	C	1.108284	-1.051877	-0.310057
C62	C	1.608284	-0.551877	0.189943
C63	C	1.014091	-1.051908	-0.404097
C64	C	1.514091	-0.551908	0.095903
C65	C	1.018488	-0.957691	-0.399653
C66	C	1.518488	-0.457691	0.100347
C67	C	1.067784	-0.910570	-0.350409
C68	C	1.567784	-0.410570	0.149591
C69	C	1.072177	-0.816352	-0.345962
C70	C	1.572177	-0.316352	0.154038
C71	C	0.977988	-0.816385	-0.440005
C72	C	1.477988	-0.316385	0.059995
C73	C	0.973591	-0.910602	-0.444449
C74	C	1.473591	-0.410602	0.055551
C75	C	1.235017	-0.434604	-0.375049
C76	C	1.735017	0.065396	0.124951
C77	C	1.316815	-0.434611	-0.375059
C78	C	1.816815	0.065389	0.124941
C79	C	1.043112	-0.434526	-0.566977
C80	C	1.543112	0.065474	-0.066977
C81	C	1.043133	-0.434499	-0.648775
C82	C	1.543133	0.065501	-0.148775
C83	C	1.054231	-0.199279	-0.363996
C84	C	1.554231	0.300721	0.136004
C85	C	1.058990	-0.099004	-0.359296
C86	C	1.558990	0.400996	0.140704
C87	C	1.092959	-0.376748	-0.834268
C88	C	1.592959	0.123252	-0.334268
C89	C	1.092969	-0.376722	-0.911126
C90	C	1.592969	0.123278	-0.411126
C91	C	0.993364	-0.492110	-0.916513
C92	C	1.493364	0.007890	-0.416513
C93	C	0.993351	-0.492131	-0.839656
C94	C	1.493351	0.007869	-0.339656
C95	C	1.043153	-0.434452	-0.798536
C96	C	1.543153	0.065548	-0.298536
C97	C	1.043176	-0.434404	-0.952250
C98	C	1.543176	0.065596	-0.452250
C99	C	1.043186	-0.434376	-1.035582
C100	C	1.543186	0.065624	-0.535582
C101	C	1.043142	-0.434478	-0.715198
C102	C	1.543142	0.065522	-0.215198
C103	C	1.043062	-0.434585	-0.183820
C104	C	1.543062	0.065415	0.316180
C105	C	1.043196	-0.434357	-0.102011
C106	C	1.543196	0.065643	0.397989
H107	H	0.478640	-0.329793	-0.284876
H108	H	0.978640	0.170207	0.215124
N109	N	0.628965	-0.314499	-0.271730
N110	N	1.128965	0.185501	0.228270
H111	H	0.594681	-0.277903	-0.240247
H112	H	1.094681	0.222097	0.259753
H113	H	0.659110	-0.351159	-0.239343
H114	H	1.159110	0.148841	0.260657
H115	H	1.112315	-0.777987	-0.305863
H116	H	1.612315	-0.277987	0.194137
H117	H	0.608228	-0.539403	-0.465200
H118	H	1.108228	-0.039403	0.034800
N119	N	0.939634	-0.554368	-0.801101
N120	N	1.439634	-0.054368	-0.301101
H121	H	0.907269	-0.517703	-0.767491
H122	H	1.407269	-0.017703	-0.267491
H123	H	0.908136	-0.590902	-0.838850
H124	H	1.408136	-0.090902	-0.338850
H125	H	1.152815	-0.919293	-0.265511
H126	H	1.652815	-0.419293	0.234489
N127	N	0.457924	-0.554683	-0.478347
N128	N	0.957924	-0.054683	0.021653
H129	H	0.424045	-0.596442	-0.450345
H130	H	0.924045	-0.096442	0.049655
H131	H	0.427829	-0.518015	-0.510774
H132	H	0.927829	-0.018015	-0.010774
H133	H	1.144846	-1.090213	-0.273581
H134	H	1.644846	-0.590213	0.226419
N135	N	0.960929	-1.102739	-0.457210
N136	N	1.460929	-0.602739	0.042790
H137	H	0.964960	-1.169570	-0.453226
H138	H	1.464960	-0.669570	0.046774
H139	H	0.909141	-1.086342	-0.444929
H140	H	1.409141	-0.586342	0.055071
N141	N	0.920422	-0.961435	-0.497554
N142	N	1.420422	-0.461435	0.002446
H143	H	0.868611	-0.945104	-0.485297
H144	H	1.368611	-0.445104	0.014703
H145	H	0.932645	-0.944967	-0.549351
H146	H	1.432645	-0.444967	-0.049351
N147	N	0.929557	-0.765593	-0.488319
N148	N	1.429557	-0.265593	0.011681
H149	H	0.961265	-0.726440	-0.520607
H150	H	1.461265	-0.226440	-0.020607
H151	H	0.897668	-0.809799	-0.520139
H152	H	1.397668	-0.309799	-0.020139
N153	N	1.146670	-0.314539	-0.789915
N154	N	1.646670	0.185461	-0.289915
H155	H	1.178222	-0.277980	-0.824217
H156	H	1.678222	0.222020	-0.324217
H157	H	1.118688	-0.272798	-0.756065
H158	H	1.618688	0.227202	-0.256065
N159	N	1.146681	-0.314475	-0.949666
N160	N	1.646681	0.185525	-0.449666
H161	H	1.178223	-0.277938	-0.911951
H162	H	1.678223	0.222062	-0.411951
H163	H	1.179003	-0.351181	-0.983286
H164	H	1.679003	0.148819	-0.483286
N165	N	0.939642	-0.554306	-0.960863
N166	N	1.439642	-0.054306	-0.460863
H167	H	0.947204	-0.545534	-1.014974
H168	H	1.447204	-0.045534	-0.514974
H169	H	0.948025	-0.618746	-0.950455
H170	H	1.448025	-0.118746	-0.450455
