data_functionalizedCrystal
_audit_creation_method	'MofGen! by Chris Wilmer'
_symmetry_space_group_name_H-M	'P1'
_symmetry_Int_Tables_number	1
_symmetry_cell_setting	triclinic
loop_
_symmetry_equiv_pos_as_xyz
  x,y,z
_cell_length_a	25.639242
_cell_length_b	25.639239
_cell_length_c	25.639233
_cell_angle_alpha	89.981253
_cell_angle_beta	90.021583
_cell_angle_gamma	89.966413
loop_
_atom_site_label
_atom_site_type_symbol
_atom_site_fract_x
_atom_site_fract_y
_atom_site_fract_z
Zn1	Zn	0.799225	0.208286	0.295734
Zn2	Zn	1.299225	0.708286	0.795734
Zn3	Zn	0.799149	0.295704	0.208298
Zn4	Zn	1.299149	0.795704	0.708298
Zn5	Zn	0.711801	0.208277	0.208299
Zn6	Zn	1.211801	0.708277	0.708299
Zn7	Zn	0.711746	0.295684	0.295689
Zn8	Zn	1.211746	0.795684	0.795689
O9	O	0.755480	0.251988	0.252005
O10	O	1.255480	0.751988	0.752005
O11	O	0.872380	0.219894	0.284154
O12	O	1.372380	0.719894	0.784154
O13	O	0.787553	0.284112	0.135133
O14	O	1.287553	0.784112	0.635133
O15	O	0.723453	0.135113	0.219917
O16	O	1.223453	0.635113	0.719917
O17	O	0.872324	0.284120	0.219915
O18	O	1.372324	0.784120	0.719915
O19	O	0.787683	0.135119	0.284155
O20	O	1.287683	0.635119	0.784155
O21	O	0.723379	0.219879	0.135134
O22	O	1.223379	0.719879	0.635134
O23	O	0.638629	0.219860	0.219873
O24	O	1.138629	0.719860	0.719873
O25	O	0.723360	0.284085	0.368860
O26	O	1.223360	0.784085	0.868860
O27	O	0.638589	0.284077	0.284078
O28	O	1.138589	0.784077	0.784078
O29	O	0.787630	0.219874	0.368893
O30	O	1.287630	0.719874	0.868893
O31	O	0.787499	0.368867	0.219872
O32	O	1.287499	0.868867	0.719872
O33	O	0.723286	0.368852	0.284078
O34	O	1.223286	0.868852	0.784078
C35	C	0.619638	0.251966	0.251971
C36	C	1.119638	0.751966	0.751971
C37	C	0.561524	0.251969	0.251969
C38	C	1.061524	0.751969	0.751969
C39	C	0.310343	0.218494	0.218631
C40	C	0.810343	0.718494	0.718631
C41	C	0.364947	0.218489	0.218625
C42	C	0.864947	0.718489	0.718625
O43	O	0.393194	0.189997	0.190250
O44	O	0.893194	0.689997	0.690250
N45	N	0.392250	0.251975	0.251995
N46	N	0.892250	0.751975	0.751995
C47	C	0.364946	0.285465	0.285378
C48	C	0.864946	0.785465	0.785378
O49	O	0.393183	0.313947	0.313762
O50	O	0.893183	0.813947	0.813762
C51	C	0.310342	0.285467	0.285387
C52	C	0.810342	0.785467	0.785387
C53	C	0.283042	0.251982	0.252011
C54	C	0.783042	0.751982	0.752011
C55	C	0.283042	0.185011	0.185258
C56	C	0.783042	0.685011	0.685258
C57	C	0.228442	0.185017	0.185264
C58	C	0.728442	0.685017	0.685264
C59	C	0.201141	0.218505	0.218644
C60	C	0.701141	0.718505	0.718644
C61	C	0.228442	0.251987	0.252017
C62	C	0.728442	0.751987	0.752017
C63	C	0.283039	0.318953	0.318773
C64	C	0.783039	0.818953	0.818773
C65	C	0.228432	0.318952	0.318779
C66	C	0.728432	0.818952	0.818779
C67	C	0.201132	0.285467	0.285403
C68	C	0.701132	0.785467	0.785403
C69	C	0.146541	0.285481	0.285402
C70	C	0.646541	0.785481	0.785402
N71	N	0.119238	0.251995	0.252032
N72	N	0.619238	0.751995	0.752032
C73	C	0.146538	0.218507	0.218652
C74	C	0.646538	0.718507	0.718652
C75	C	0.479616	0.285458	0.285358
C76	C	0.979616	0.785458	0.785358
C77	C	0.534219	0.285459	0.285347
C78	C	1.034219	0.785459	0.785347
C79	C	0.534216	0.218482	0.218594
C80	C	1.034216	0.718482	0.718594
C81	C	0.479613	0.218484	0.218602
C82	C	0.979613	0.718484	0.718602
C83	C	0.452313	0.251971	0.251987
C84	C	0.952313	0.751971	0.751987
C85	C	0.031873	0.218522	0.218667
C86	C	0.531873	0.718522	0.718667
C87	C	-0.022732	0.218532	0.218675
C88	C	0.477268	0.718532	0.718675
C89	C	-0.022725	0.285506	0.285430
C90	C	0.477275	0.785506	0.785430
C91	C	0.031876	0.285498	0.285421
C92	C	0.531876	0.785498	0.785421
C93	C	0.059173	0.252002	0.252038
C94	C	0.559173	0.752002	0.752038
O95	O	0.118259	0.313958	0.313764
O96	O	0.618259	0.813958	0.813764
O97	O	0.118294	0.190025	0.190278
O98	O	0.618294	0.690025	0.690278
C99	C	0.755392	0.387830	0.251981
C100	C	1.255392	0.887830	0.751981
C101	C	0.755403	0.445944	0.251988
C102	C	1.255403	0.945944	0.751988
C103	C	0.755497	0.251979	0.388378
C104	C	1.255497	0.751979	0.888378
C105	C	0.755504	0.251975	0.446492
C106	C	1.255504	0.751975	0.946492
C107	C	0.891853	0.252010	0.252040
C108	C	1.391853	0.752010	0.752040
C109	C	0.949967	0.252020	0.252054
C110	C	1.449967	0.752020	0.752054
C111	C	0.755583	0.115615	0.252041
C112	C	1.255583	0.615615	0.752041
C113	C	0.755627	0.057501	0.252056
C114	C	1.255627	0.557501	0.752056
C115	C	0.789004	0.806303	0.218630
C116	C	1.289004	1.306303	0.718630
C117	C	0.789024	0.860907	0.218637
C118	C	1.289024	1.360907	0.718637
O119	O	0.817502	0.889139	0.190249
O120	O	1.317502	1.389139	0.690249
N121	N	0.755572	0.888227	0.252040
N122	N	1.255572	1.388227	0.752040
C123	C	0.722102	0.860939	0.285441
C124	C	1.222102	1.360939	0.785441
O125	O	0.693651	0.889191	0.313854
O126	O	1.193651	1.389191	0.813854
C127	C	0.722085	0.806336	0.285437
C128	C	1.222085	1.306336	0.785437
C129	C	0.755535	0.779019	0.252028
C130	C	1.255535	1.279019	0.752028
C131	C	0.822452	0.778985	0.185225
C132	C	1.322452	1.278985	0.685225
C133	C	0.822431	0.724385	0.185217
C134	C	1.322431	1.224385	0.685217
C135	C	0.788962	0.697101	0.218615
C136	C	1.288962	1.197101	0.718615
C137	C	0.755514	0.724419	0.252021
C138	C	1.255514	1.224419	0.752021
C139	C	0.688617	0.779050	0.318840
C140	C	1.188617	1.279050	0.818840
C141	C	0.688603	0.724443	0.318833
C142	C	1.188603	1.224443	0.818833
C143	C	0.722053	0.697126	0.285425
C144	C	1.222053	1.197126	0.785425
C145	C	0.722024	0.642535	0.285411
C146	C	1.222024	1.142535	0.785411
N147	N	0.755475	0.615215	0.252008
N148	N	1.255475	1.115215	0.752008
C149	C	0.788944	0.642498	0.218610
C150	C	1.288944	1.142498	0.718610
C151	C	0.722141	0.975610	0.285449
C152	C	1.222141	1.475610	0.785449
C153	C	0.722155	1.030212	0.285452
C154	C	1.222155	1.530212	0.785452
C155	C	0.789078	1.030176	0.218648
C156	C	1.289078	1.530176	0.718648
C157	C	0.789061	0.975573	0.218644
C158	C	1.289061	1.475573	0.718644
C159	C	0.755593	0.948290	0.252047
C160	C	1.255593	1.448290	0.752047
C161	C	0.788897	0.527833	0.218597
C162	C	1.288897	1.027833	0.718597
C163	C	0.788872	0.473228	0.218591
C164	C	1.288872	0.973228	0.718591
C165	C	0.721951	0.473269	0.285396
C166	C	1.221951	0.973269	0.785396
C167	C	0.721974	0.527869	0.285400
C168	C	1.221974	1.027869	0.785400
C169	C	0.755452	0.555150	0.251999
C170	C	1.255452	1.055150	0.751999
O171	O	0.693562	0.614267	0.313786
O172	O	1.193562	1.114267	0.813786
O173	O	0.817396	0.614240	0.190208
O174	O	1.317396	1.114240	0.690208
C175	C	0.755494	0.251959	0.116163
C176	C	1.255494	0.751959	0.616163
C177	C	0.755588	0.251816	0.058049
C178	C	1.255588	0.751816	0.558049
C179	C	0.789012	0.218440	0.806878
C180	C	1.289012	0.718440	1.306878
C181	C	0.789019	0.218426	0.861483
C182	C	1.289019	0.718426	1.361483
O183	O	0.817466	0.189976	0.889739
O184	O	1.317466	0.689976	1.389739
N185	N	0.755562	0.251852	0.888775
N186	N	1.255562	0.751852	1.388775
C187	C	0.722093	0.285291	0.861460
C188	C	1.222093	0.785291	1.361460
O189	O	0.693636	0.313721	0.889688
O190	O	1.193636	0.813721	1.389688
C191	C	0.722084	0.285302	0.806857
C192	C	1.222084	0.785302	1.306857
C193	C	0.755547	0.251878	0.779567
C194	C	1.255547	0.751878	1.279567
C195	C	0.822472	0.185018	0.779589
C196	C	1.322472	0.685018	1.279589
C197	C	0.822466	0.185034	0.724988
C198	C	1.322466	0.685034	1.224988
C199	C	0.789000	0.218471	0.697677
C200	C	1.289000	0.718471	1.197677
C201	C	0.755541	0.251893	0.724967
C202	C	1.255541	0.751893	1.224967
C203	C	0.688613	0.318738	0.779543
C204	C	1.188613	0.818738	1.279543
C205	C	0.688607	0.318747	0.724936
C206	C	1.188607	0.818747	1.224936
C207	C	0.722069	0.285322	0.697646
C208	C	1.222069	0.785322	1.197646
C209	C	0.722070	0.285346	0.643055
C210	C	1.222070	0.785346	1.143055
N211	N	0.755526	0.251920	0.615763
N212	N	1.255526	0.751920	1.115763
C213	C	0.788992	0.218482	0.643074
C214	C	1.288992	0.718482	1.143074
C215	C	0.722113	0.285264	0.976131
C216	C	1.222113	0.785264	1.476131
C217	C	0.722124	0.285255	1.030733
C218	C	1.222124	0.785255	1.530733
C219	C	0.789049	0.218390	1.030752
C220	C	1.289049	0.718390	1.530752
C221	C	0.789041	0.218401	0.976149
C222	C	1.289041	0.718401	1.476149
C223	C	0.755570	0.251838	0.948839
C224	C	1.255570	0.751838	1.448839
C225	C	0.788977	0.218517	0.528409
C226	C	1.288977	0.718517	1.028409
C227	C	0.788970	0.218537	0.473803
C228	C	1.288970	0.718537	0.973803
C229	C	0.722043	0.285401	0.473789
C230	C	1.222043	0.785401	0.973789
C231	C	0.722052	0.285383	0.528390
C232	C	1.222052	0.785383	1.028390
C233	C	0.755521	0.251937	0.555698
C234	C	1.255521	0.751937	1.055698
O235	O	0.693635	0.313780	0.614764
O236	O	1.193635	0.813780	1.114764
O237	O	0.817439	0.190053	0.614839
O238	O	1.317439	0.690053	1.114839
H239	H	0.457393	0.312732	0.312543
H240	H	0.957393	0.812732	0.812543
H241	H	0.206219	0.157750	0.158086
H242	H	0.706219	0.657750	0.658086
C243	C	0.061896	0.181679	0.181944
C244	C	0.561896	0.681679	0.681944
C245	C	0.099464	0.140654	0.204662
C246	C	0.599464	0.640654	0.704662
C247	C	0.129487	0.103815	0.167936
C248	C	0.629487	0.603815	0.667936
C249	C	0.121941	0.107999	0.108493
C250	C	0.621941	0.607999	0.608493
C251	C	0.084371	0.149025	0.085773
C252	C	0.584371	0.649025	0.585773
C253	C	0.054349	0.185865	0.122498
C254	C	0.554349	0.685865	0.622498
H255	H	0.105051	0.137555	0.248668
H256	H	0.605051	0.637555	0.748668
H257	H	0.157299	0.073445	0.184756
H258	H	0.657299	0.573445	0.684756
H259	H	0.144166	0.080729	0.081307
H260	H	0.644166	0.580729	0.581307
H261	H	0.078784	0.152124	0.041767
H262	H	0.578784	0.652124	0.541767
H263	H	0.026537	0.216235	0.105678
H264	H	0.526537	0.716235	0.605678
H265	H	0.661364	0.345956	0.801753
H266	H	1.161364	0.845956	1.301753
H267	H	0.694857	0.312495	0.953898
H268	H	1.194857	0.812495	1.453898
H269	H	0.816300	0.953334	0.191440
H270	H	1.316300	1.453334	0.691440
H271	H	0.816221	0.191318	0.451587
H272	H	1.316221	0.691318	0.951587
H273	H	0.305258	0.346220	0.345951
H274	H	0.805258	0.846220	0.845951
C275	C	-0.052762	0.322341	0.322147
C276	C	0.447238	0.822341	0.822147
C277	C	-0.022739	0.359174	0.358861
C278	C	0.477261	0.859174	0.858861
C279	C	-0.052777	0.396007	0.395582
C280	C	0.447223	0.896007	0.895582
C281	C	-0.112839	0.396005	0.395587
C282	C	0.387161	0.896005	0.895587
C283	C	-0.142865	0.359170	0.358872
C284	C	0.357135	0.859170	0.858872
C285	C	-0.112827	0.322338	0.322151
C286	C	0.387173	0.822338	0.822151
H287	H	0.021725	0.359177	0.358858
H288	H	0.521725	0.859177	0.858858
H289	H	-0.030550	0.423274	0.422761
H290	H	0.469450	0.923274	0.922761
H291	H	-0.135075	0.423270	0.422770
H292	H	0.364925	0.923270	0.922770
H293	H	-0.187329	0.359168	0.358875
H294	H	0.312671	0.859168	0.858875
H295	H	-0.135055	0.295071	0.294972
H296	H	0.364945	0.795071	0.794972
H297	H	0.661345	0.345970	0.702703
H298	H	1.161345	0.845970	1.202703
H299	H	0.694912	1.052449	0.312652
H300	H	1.194912	1.552449	0.812652
H301	H	0.816333	1.052400	0.191456
H302	H	1.316333	1.552400	0.691456
H303	H	0.816229	0.191281	0.550637
H304	H	1.316229	0.691281	1.050637
C305	C	0.859271	0.808990	0.148482
C306	C	1.359271	1.308990	0.648482
C307	C	0.855037	0.801500	0.089041
C308	C	1.355037	1.301500	0.589041
C309	C	0.891856	0.831500	0.052292
C310	C	1.391856	1.331500	0.552292
C311	C	0.932908	0.868990	0.074984
C312	C	1.432908	1.368990	0.574984
C313	C	0.937144	0.876481	0.134428
C314	C	1.437144	1.376481	0.634428
C315	C	0.900325	0.846481	0.171177
C316	C	1.400325	1.346481	0.671177
H317	H	0.824645	0.773747	0.072240
H318	H	1.324645	1.273747	0.572240
H319	H	0.888720	0.825954	0.008287
H320	H	1.388720	1.325954	0.508287
H321	H	0.960164	0.891197	0.047780
H322	H	1.460164	1.391197	0.547780
H323	H	0.967536	0.904235	0.151228
H324	H	1.467536	1.404235	0.651228
H325	H	0.903461	0.852027	0.215181
H326	H	1.403461	1.352027	0.715181
C327	C	0.859271	0.148260	0.694976
C328	C	1.359271	0.648260	1.194976
C329	C	0.855043	0.088821	0.702498
C330	C	1.355043	0.588821	1.202498
C331	C	0.891849	0.052043	0.672491
C332	C	1.391849	0.552043	1.172491
C333	C	0.932883	0.074703	0.634962
C334	C	1.432883	0.574703	1.134962
C335	C	0.937113	0.134144	0.627438
C336	C	1.437113	0.634144	1.127438
C337	C	0.900307	0.170923	0.657445
C338	C	1.400307	0.670923	1.157445
H339	H	0.824666	0.072044	0.730281
H340	H	1.324666	0.572044	1.230281
H341	H	0.888718	0.008041	0.678061
H342	H	1.388718	0.508041	1.178061
H343	H	0.960129	0.047477	0.612749
H344	H	1.460129	0.547477	1.112749
H345	H	0.967490	0.150921	0.599656
H346	H	1.467490	0.650921	1.099656
H347	H	0.903438	0.214925	0.651876
H348	H	1.403438	0.714925	1.151876
C349	C	0.685317	0.945602	0.322190
C350	C	1.185317	1.445602	0.822190
C351	C	0.625886	0.953172	0.317856
C352	C	1.125886	1.453172	0.817856
C353	C	0.589062	0.923168	0.354597
C354	C	1.089062	1.423168	0.854597
C355	C	0.611670	0.885593	0.395672
C356	C	1.111670	1.385593	0.895672
C357	C	0.671104	0.878022	0.400008
C358	C	1.171104	1.378022	0.900008
C359	C	0.707927	0.908026	0.363267
C360	C	1.207927	1.408026	0.863267
H361	H	0.609148	0.980988	0.287448
H362	H	1.109148	1.480988	0.787448
H363	H	0.545065	0.928773	0.351387
H364	H	1.045065	1.428773	0.851387
H365	H	0.584411	0.863382	0.422870
H366	H	1.084411	1.363382	0.922870
H367	H	0.687842	0.850205	0.430415
H368	H	1.187842	1.350205	0.930415
H369	H	0.751924	0.902421	0.366477
H370	H	1.251924	1.402421	0.866477
H371	H	0.849670	0.702147	0.158015
H372	H	1.349670	1.202147	0.658015
C373	C	0.825847	0.181631	0.946133
C374	C	1.325847	0.681631	1.446133
C375	C	0.866875	0.204296	0.908601
C376	C	1.366875	0.704296	1.408601
C377	C	0.903682	0.167523	0.878589
C378	C	1.403682	0.667523	1.378589
C379	C	0.899460	0.108084	0.886108
C380	C	1.399460	0.608084	1.386108
C381	C	0.858430	0.085415	0.923642
C382	C	1.358430	0.585415	1.423642
C383	C	0.821623	0.122188	0.953654
C384	C	1.321623	0.622188	1.453654
H385	H	0.870001	0.248299	0.903033
H386	H	1.370001	0.748299	1.403033
H387	H	0.934055	0.184305	0.850804
H388	H	1.434055	0.684305	1.350804
H389	H	0.926707	0.080862	0.863892
H390	H	1.426707	0.580862	1.363892
H391	H	0.855303	0.041412	0.929210
H392	H	1.355303	0.541412	1.429210
H393	H	0.791250	0.105407	0.981439
H394	H	1.291250	0.605407	1.481439
C395	C	0.651784	0.694432	0.355576
C396	C	1.151784	1.194432	0.855576
C397	C	0.592353	0.702001	0.351247
C398	C	1.092353	1.202001	0.851247
C399	C	0.555533	0.671992	0.387988
C400	C	1.055533	1.171992	0.887988
C401	C	0.578145	0.634413	0.429057
C402	C	1.078145	1.134413	0.929057
C403	C	0.637580	0.626843	0.433387
C404	C	1.137580	1.126843	0.933387
C405	C	0.674399	0.656853	0.396647
C406	C	1.174399	1.156853	0.896647
H407	H	0.575611	0.729820	0.320844
H408	H	1.075611	1.229820	0.820844
H409	H	0.511536	0.677596	0.384782
H410	H	1.011536	1.177596	0.884782
H411	H	0.550889	0.612199	0.456254
H412	H	1.050889	1.112199	0.956254
H413	H	0.654321	0.599024	0.463790
H414	H	1.154321	1.099024	0.963790
H415	H	0.718397	0.651248	0.399852
H416	H	1.218397	1.151248	0.899852
C417	C	0.198403	0.355791	0.355502
C418	C	0.698403	0.855791	0.855502
C419	C	0.205881	0.415221	0.351128
C420	C	0.705881	0.915221	0.851128
C421	C	0.175853	0.452061	0.387849
C422	C	0.675853	0.952061	0.887849
C423	C	0.138348	0.429470	0.428945
C424	C	0.638348	0.929470	0.928945
C425	C	0.130868	0.370037	0.433321
C426	C	0.630868	0.870037	0.933321
C427	C	0.160896	0.333197	0.396599
C428	C	0.660896	0.833197	0.896599
H429	H	0.233647	0.431947	0.320705
H430	H	0.733647	0.931947	0.820705
H431	H	0.181390	0.496058	0.384610
H432	H	0.681390	0.996058	0.884610
H433	H	0.116120	0.456741	0.456128
H434	H	0.616120	0.956741	0.956128
H435	H	0.103103	0.353311	0.463744
H436	H	0.603103	0.853311	0.963744
H437	H	0.155359	0.289201	0.399839
H438	H	0.655359	0.789201	0.899839
H439	H	0.457388	0.191216	0.191426
H440	H	0.957388	0.691216	0.691426
C441	C	0.313065	0.148174	0.148532
C442	C	0.813065	0.648174	0.648532
C443	C	0.305585	0.088744	0.152899
C444	C	0.805585	0.588744	0.652899
C445	C	0.335603	0.051908	0.116165
C446	C	0.835603	0.551908	0.616165
C447	C	0.373100	0.074503	0.075064
C448	C	0.873100	0.574503	0.575064
C449	C	0.380581	0.133937	0.070695
C450	C	0.880581	0.633937	0.570695
C451	C	0.350564	0.170772	0.107429
C452	C	0.850564	0.670772	0.607429
H453	H	0.277826	0.072015	0.183325
H454	H	0.777826	0.572015	0.683325
H455	H	0.330064	0.007911	0.119399
H456	H	0.830064	0.507911	0.619399
H457	H	0.395320	0.047235	0.047871
H458	H	0.895320	0.547235	0.547871
H459	H	0.408340	0.150665	0.040268
H460	H	0.908340	0.650665	0.540268
H461	H	0.356102	0.214769	0.104195
H462	H	0.856102	0.714769	0.604195
H463	H	0.816111	0.450988	0.191384
H464	H	1.316111	0.950988	0.691384
H465	H	0.661376	0.801282	0.346043
H466	H	1.161376	1.301282	0.846043
H467	H	0.556454	0.191213	0.191415
H468	H	1.056454	0.691213	0.691415
H469	H	0.556442	0.312731	0.312520
H470	H	1.056442	0.812731	0.812520
C471	C	0.825719	0.557837	0.181853
C472	C	1.325719	1.057837	0.681853
C473	C	0.821483	0.550353	0.122411
C474	C	1.321483	1.050353	0.622411
C475	C	0.858301	0.580357	0.085664
C476	C	1.358301	1.080357	0.585664
C477	C	0.899354	0.617845	0.108359
C478	C	1.399354	1.117845	0.608359
C479	C	0.903591	0.625330	0.167803
C480	C	1.403591	1.125330	0.667803
C481	C	0.866774	0.595326	0.204550
C482	C	1.366774	1.095326	0.704550
H483	H	0.791091	0.522601	0.105608
H484	H	1.291091	1.022601	0.605608
H485	H	0.855164	0.574816	0.041659
H486	H	1.355164	1.074816	0.541659
H487	H	0.926609	0.640055	0.081156
H488	H	1.426609	1.140055	0.581156
H489	H	0.933983	0.653082	0.184606
H490	H	1.433983	1.153082	0.684606
H491	H	0.869911	0.600867	0.248555
H492	H	1.369911	1.100867	0.748555
C493	C	0.825860	0.181604	1.060801
C494	C	1.325860	0.681604	1.560801
C495	C	0.825862	0.181591	1.120862
C496	C	1.325862	0.681591	1.620862
C497	C	0.862670	0.144808	1.150913
C498	C	1.362670	0.644808	1.650913
C499	C	0.899476	0.108038	1.120901
C500	C	1.399476	0.608038	1.620901
C501	C	0.899475	0.108049	1.060837
C502	C	1.399475	0.608049	1.560837
C503	C	0.862667	0.144832	1.030786
C504	C	1.362667	0.644832	1.530786
H505	H	0.798615	0.208812	1.143081
H506	H	1.298615	0.708812	1.643081
H507	H	0.862671	0.144800	1.195377
H508	H	1.362671	0.644800	1.695377
H509	H	0.926724	0.080809	1.143146
H510	H	1.426724	0.580809	1.643146
H511	H	0.926722	0.080828	1.038617
H512	H	1.426722	0.580828	1.538617
H513	H	0.862666	0.144840	0.986322
H514	H	1.362666	0.644840	1.486322
H515	H	0.694738	0.550112	0.312606
H516	H	1.194738	1.050112	0.812606
C517	C	0.685315	0.322023	1.060748
C518	C	1.185315	0.822023	1.560748
C519	C	0.648503	0.358799	1.030699
C520	C	1.148503	0.858799	1.530699
C521	C	0.611689	0.395565	1.060712
C522	C	1.111689	0.895565	1.560712
C523	C	0.611686	0.395554	1.120773
C524	C	1.111686	0.895554	1.620773
C525	C	0.648499	0.358776	1.150825
C526	C	1.148499	0.858776	1.650825
C527	C	0.685314	0.322011	1.120813
C528	C	1.185314	0.822011	1.620813
H529	H	0.648504	0.358809	0.986235
H530	H	1.148504	0.858809	1.486235
H531	H	0.584437	0.422790	1.038464
H532	H	1.084437	0.922790	1.538464
H533	H	0.584434	0.422769	1.142990
H534	H	1.084434	0.922769	1.642990
H535	H	0.648498	0.358767	1.195290
H536	H	1.148498	0.858767	1.695290
H537	H	0.712565	0.294786	1.143060
H538	H	1.212565	0.794786	1.643060
C539	C	0.685261	0.322160	0.558420
C540	C	1.185261	0.822160	1.058420
C541	C	0.689499	0.381600	0.550912
C542	C	1.189499	0.881600	1.050912
C543	C	0.652710	0.418377	0.580941
C544	C	1.152710	0.918377	1.080941
C545	C	0.611684	0.395716	0.618478
C546	C	1.111684	0.895716	1.118478
C547	C	0.607445	0.336273	0.625987
C548	C	1.107445	0.836273	1.125987
C549	C	0.644233	0.299496	0.595958
C550	C	1.144233	0.799496	1.095958
H551	H	0.719870	0.398378	0.523124
H552	H	1.219870	0.898378	1.023124
H553	H	0.655848	0.462381	0.575382
H554	H	1.155848	0.962381	1.075382
H555	H	0.584451	0.422941	0.640707
H556	H	1.084451	0.922941	1.140707
H557	H	0.577073	0.319495	0.653776
H558	H	1.077073	0.819495	1.153776
H559	H	0.641095	0.255492	0.601517
H560	H	1.141095	0.755492	1.101517
H561	H	0.054105	0.312768	0.312594
H562	H	0.554105	0.812768	0.812594
H563	H	0.849723	0.157787	0.801820
H564	H	1.349723	0.657787	1.301820
C565	C	0.685138	0.443249	0.322133
C566	C	1.185138	0.943249	0.822133
C567	C	0.644096	0.405754	0.299430
C568	C	1.144096	0.905754	0.799430
C569	C	0.607287	0.375732	0.336170
C570	C	1.107287	0.875732	0.836170
C571	C	0.611520	0.383204	0.395614
C572	C	1.111520	0.883204	0.895614
C573	C	0.652563	0.420700	0.418320
C574	C	1.152563	0.920700	0.918320
C575	C	0.689373	0.450723	0.381579
C576	C	1.189373	0.950723	0.881579
H577	H	0.640961	0.400221	0.255424
H578	H	1.140961	0.900221	0.755424
H579	H	0.576903	0.347975	0.319361
H580	H	1.076903	0.847975	0.819361
H581	H	0.584271	0.360980	0.422811
H582	H	1.084271	0.860980	0.922811
H583	H	0.655698	0.426233	0.462326
H584	H	1.155698	0.926233	0.962326
H585	H	0.719756	0.478480	0.398388
H586	H	1.219756	0.978480	0.898388
H587	H	-0.044958	0.191264	0.191494
H588	H	0.455042	0.691264	0.691494
H589	H	0.694798	0.312626	0.451543
H590	H	1.194798	0.812626	0.951543
