data_functionalizedCrystal
_audit_creation_method	'MofGen! by Chris Wilmer'
_symmetry_space_group_name_H-M	'P1'
_symmetry_Int_Tables_number	1
_symmetry_cell_setting	triclinic
loop_
_symmetry_equiv_pos_as_xyz
  x,y,z
_cell_length_a	19.121215
_cell_length_b	19.121063
_cell_length_c	16.625539
_cell_angle_alpha	87.591339
_cell_angle_beta	92.466418
_cell_angle_gamma	95.002544
loop_
_atom_site_label
_atom_site_type_symbol
_atom_site_fract_x
_atom_site_fract_y
_atom_site_fract_z
Zn1	Zn	1.063758	-0.234338	0.519601
Zn2	Zn	1.397091	0.098995	0.852935
Zn3	Zn	1.730425	0.432329	1.186268
Zn4	Zn	1.058643	-0.352013	0.390270
Zn5	Zn	1.391976	-0.018680	0.723603
Zn6	Zn	1.725310	0.314654	1.056937
Zn7	Zn	0.946087	-0.239371	0.379250
Zn8	Zn	1.279420	0.093963	0.712583
Zn9	Zn	1.612753	0.427296	1.045916
Zn10	Zn	0.941033	-0.356976	0.519527
Zn11	Zn	1.274366	-0.023643	0.852860
Zn12	Zn	1.607700	0.309691	1.186194
O13	O	1.002380	-0.295674	0.452162
O14	O	1.335713	0.037659	0.785495
O15	O	1.669047	0.370992	1.118829
O16	O	1.161545	-0.245764	0.507088
O17	O	1.494879	0.087569	0.840422
O18	O	1.828212	0.420902	1.173755
O19	O	1.043686	-0.337100	0.275976
O20	O	1.377020	-0.003767	0.609309
O21	O	1.710353	0.329567	0.942642
O22	O	0.965951	-0.140237	0.393287
O23	O	1.299285	0.193096	0.726620
O24	O	1.632618	0.526429	1.059953
O25	O	1.157788	-0.332220	0.412069
O26	O	1.491121	0.001113	0.745403
O27	O	1.824454	0.334447	1.078736
O28	O	1.052404	-0.136540	0.496403
O29	O	1.385737	0.196793	0.829736
O30	O	1.719071	0.530127	1.163069
O31	O	0.960992	-0.254342	0.267879
O32	O	1.294325	0.078991	0.601213
O33	O	1.627658	0.412325	0.934546
O34	O	0.846950	-0.259155	0.393215
O35	O	1.180284	0.074179	0.726548
O36	O	1.513617	0.407512	1.059881
O37	O	0.957339	-0.340679	0.632369
O38	O	1.290672	-0.007345	0.965703
O39	O	1.624005	0.325988	1.299036
O40	O	0.843237	-0.345559	0.496276
O41	O	1.176571	-0.012225	0.829609
O42	O	1.509904	0.321108	1.162943
O43	O	1.047504	-0.250577	0.632424
O44	O	1.380837	0.082756	0.965757
O45	O	1.714171	0.416090	1.299091
O46	O	1.038786	-0.451137	0.411997
O47	O	1.372120	-0.117804	0.745330
O48	O	1.705453	0.215530	1.078664
O49	O	0.952379	-0.454783	0.506962
O50	O	1.285712	-0.121450	0.840295
O51	O	1.619045	0.211883	1.173628
C52	C	0.819563	-0.303442	0.443542
C53	C	1.152896	0.029891	0.776875
C54	C	1.486229	0.363225	1.110208
C55	C	0.741352	-0.306782	0.439874
C56	C	1.074685	0.026552	0.773207
C57	C	1.408018	0.359885	1.106541
C58	C	0.298908	-0.327926	0.416670
C59	C	0.632242	0.005408	0.750003
C60	C	0.965575	0.338741	1.083337
C61	C	0.372396	-0.324784	0.420110
C62	C	0.705729	0.008550	0.753443
C63	C	1.039063	0.341883	1.086777
C64	C	0.411095	-0.278274	0.471389
C65	C	0.744429	0.055060	0.804722
C66	C	1.077762	0.388393	1.138056
C67	C	0.376304	-0.234898	0.519225
C68	C	0.709637	0.098436	0.852558
C69	C	1.042970	0.431769	1.185892
C70	C	0.302817	-0.238037	0.515780
C71	C	0.636151	0.095297	0.849114
C72	C	0.969484	0.428630	1.182447
C73	C	0.633074	-0.266545	0.484265
C74	C	0.966407	0.066789	0.817599
C75	C	1.299741	0.400122	1.150932
C76	C	0.706565	-0.263411	0.487708
C77	C	1.039898	0.069923	0.821042
C78	C	1.373232	0.403256	1.154375
C79	C	0.702652	-0.353296	0.388592
C80	C	1.035986	-0.019963	0.721925
C81	C	1.369319	0.313371	1.055258
C82	C	0.629165	-0.356434	0.385155
C83	C	0.962498	-0.023100	0.718488
C84	C	1.295832	0.310233	1.051822
C85	C	0.594380	-0.313055	0.432988
C86	C	0.927713	0.020278	0.766321
C87	C	1.261046	0.353611	1.099655
C88	C	0.486211	-0.275062	0.474908
C89	C	0.819545	0.058271	0.808242
C90	C	1.152878	0.391604	1.141575
C91	C	0.519265	-0.316263	0.429464
C92	C	0.852598	0.017070	0.762797
C93	C	1.185932	0.350403	1.096131
C94	C	0.994498	-0.478490	0.460686
C95	C	1.327832	-0.145157	0.794019
C96	C	1.661165	0.188176	1.127352
C97	C	0.991191	-0.556697	0.464362
C98	C	1.324524	-0.223364	0.797696
C99	C	1.657857	0.109969	1.131029
C100	C	1.034659	-0.591516	0.416691
C101	C	1.367993	-0.258182	0.750024
C102	C	1.701326	0.075151	1.083357
C103	C	1.031553	-0.664999	0.420153
C104	C	1.364886	-0.331666	0.753487
C105	C	1.698220	0.001668	1.086820
C106	C	0.984973	-0.703663	0.471284
C107	C	1.318307	-0.370330	0.804617
C108	C	1.651640	-0.036996	1.137950
C109	C	0.941503	-0.668839	0.518961
C110	C	1.274836	-0.335506	0.852294
C111	C	1.608169	-0.002173	1.185627
C112	C	0.944613	-0.595357	0.515502
C113	C	1.277947	-0.262024	0.848835
C114	C	1.611280	0.071310	1.182168
C115	C	0.973332	-0.925628	0.484203
C116	C	1.306665	-0.592295	0.817536
C117	C	1.639999	-0.258961	1.150870
C118	C	0.970223	-0.999115	0.487656
C119	C	1.303557	-0.665782	0.820990
C120	C	1.636890	-0.332449	1.154323
C121	C	1.060275	-0.995270	0.388850
C122	C	1.393608	-0.661937	0.722183
C123	C	1.726941	-0.328603	1.055517
C124	C	1.063378	-0.921787	0.385392
C125	C	1.396712	-0.588453	0.718725
C126	C	1.730045	-0.255120	1.052059
C127	C	1.019910	-0.886969	0.433072
C128	C	1.353244	-0.553636	0.766405
C129	C	1.686577	-0.220303	1.099738
C130	C	0.981795	-0.778775	0.474823
C131	C	1.315129	-0.445442	0.808156
C132	C	1.648462	-0.112108	1.141489
C133	C	1.023092	-0.811858	0.429537
C134	C	1.356426	-0.478525	0.762870
C135	C	1.689759	-0.145192	1.096203
C136	C	1.185911	-0.287877	0.460816
C137	C	1.519245	0.045456	0.794150
C138	C	1.852578	0.378790	1.127483
C139	C	1.264122	-0.284554	0.464504
C140	C	1.597455	0.048779	0.797838
C141	C	1.930788	0.382112	1.131171
C142	C	1.002428	-0.295620	0.662471
C143	C	1.335761	0.037713	0.995804
C144	C	1.669095	0.371047	1.329137
C145	C	1.002449	-0.295597	0.752092
C146	C	1.335782	0.037736	1.085425
C147	C	1.669115	0.371070	1.418758
C148	C	1.010312	-0.112144	0.443624
C149	C	1.343645	0.221190	0.776957
C150	C	1.676979	0.554523	1.110290
C151	C	1.013692	-0.033934	0.439985
C152	C	1.347025	0.299399	0.773318
C153	C	1.680359	0.632733	1.106652
C154	C	1.002375	-0.295676	0.242671
C155	C	1.335708	0.037657	0.576004
C156	C	1.669042	0.370991	0.909338
C157	C	1.002499	-0.295495	0.153048
C158	C	1.335833	0.037838	0.486381
C159	C	1.669166	0.371171	0.819714
C160	C	1.002484	-0.295517	1.080265
C161	C	1.335818	0.037817	1.413599
C162	C	1.669151	0.371150	1.746932
C163	C	1.002472	-0.295541	0.988958
C164	C	1.335806	0.037792	1.322291
C165	C	1.669139	0.371125	1.655624
C166	C	1.002467	-0.295557	0.916182
C167	C	1.335800	0.037776	1.249515
C168	C	1.669133	0.371109	1.582848
C169	C	1.002454	-0.295581	0.824868
C170	C	1.335787	0.037752	1.158201
C171	C	1.669121	0.371086	1.491534
H172	H	1.072586	-0.560040	0.375051
H173	H	1.405920	-0.226707	0.708385
H174	H	1.739253	0.106626	1.041718
N175	N	1.104668	-1.030846	0.340154
N176	N	1.438001	-0.697513	0.673487
N177	N	1.771334	-0.364180	1.006820
N178	N	1.101886	-1.096455	0.343245
N179	N	1.435219	-0.763122	0.676578
N180	N	1.768552	-0.429789	1.009911
H181	H	1.133241	-1.121582	0.308852
H182	H	1.466574	-0.788249	0.642186
H183	H	1.799908	-0.454915	0.975519
H184	H	0.274495	-0.202717	0.554729
H185	H	0.607829	0.130617	0.888063
H186	H	0.941162	0.463950	1.221396
H187	H	1.066949	-0.693345	0.381334
H188	H	1.400283	-0.360011	0.714667
H189	H	1.733616	-0.026678	1.048000
H190	H	1.101307	-0.890308	0.343758
H191	H	1.434640	-0.556974	0.677091
H192	H	1.767973	-0.223641	1.010424
H193	H	0.604761	-0.231226	0.523218
H194	H	0.938094	0.102107	0.856552
H195	H	1.271427	0.435441	1.189885
H196	H	0.937937	-0.897286	0.523024
H197	H	1.271271	-0.563952	0.856357
H198	H	1.604604	-0.230619	1.189691
H199	H	0.400716	-0.360100	0.381157
H200	H	0.734049	-0.026767	0.714490
H201	H	1.067383	0.306567	1.047824
H202	H	0.487753	-0.354130	0.387710
H203	H	0.821086	-0.020796	0.721044
H204	H	1.154420	0.312537	1.054377
H205	H	0.738072	-0.225532	0.529464
H206	H	1.071406	0.107802	0.862798
H207	H	1.404739	0.441135	1.196131
H208	H	0.517728	-0.237195	0.516662
H209	H	0.851062	0.096138	0.849995
H210	H	1.184395	0.429471	1.183329
N211	N	0.922631	-1.038601	0.539886
N212	N	1.255965	-0.705267	0.873219
N213	N	1.589298	-0.371934	1.206552
N214	N	0.883822	-1.007507	0.582449
N215	N	1.217155	-0.674173	0.915782
N216	N	1.550488	-0.340840	1.249115
H217	H	0.850209	-1.035393	0.619331
H218	H	1.183542	-0.702059	0.952664
H219	H	1.516875	-0.368726	1.285998
H220	H	0.903580	-0.700325	0.560596
H221	H	1.236913	-0.366992	0.893929
H222	H	1.570247	-0.033659	1.227262
N223	N	0.900211	-0.559799	0.564208
N224	N	1.233544	-0.226466	0.897541
N225	N	1.566877	0.106867	1.230874
N226	N	0.858626	-0.594327	0.609859
N227	N	1.191959	-0.260993	0.943192
N228	N	1.525293	0.072340	1.276526
H229	H	0.827267	-0.569215	0.644263
H230	H	1.160601	-0.235882	0.977596
H231	H	1.493934	0.097451	1.310930
H232	H	0.407819	-0.197025	0.560974
H233	H	0.741152	0.136308	0.894307
H234	H	1.074485	0.469642	1.227641
N235	N	0.934201	-0.818274	0.527030
N236	N	1.267535	-0.484940	0.860363
N237	N	1.600868	-0.151607	1.193696
N238	N	0.869620	-0.812894	0.518167
N239	N	1.202953	-0.479561	0.851500
N240	N	1.536286	-0.146228	1.184833
H241	H	0.836006	-0.840793	0.555037
H242	H	1.169339	-0.507460	0.888370
H243	H	1.502672	-0.174126	1.221704
H244	H	0.267404	-0.365803	0.374917
H245	H	0.600738	-0.032469	0.708251
H246	H	0.934071	0.300864	1.041584
N247	N	1.070659	-0.772369	0.377296
N248	N	1.403992	-0.439035	0.710629
N249	N	1.737326	-0.105702	1.043962
N250	N	1.065670	-0.780819	0.303059
N251	N	1.399003	-0.447486	0.636393
N252	N	1.732336	-0.114152	0.969726
H253	H	1.099261	-0.752924	0.266160
H254	H	1.432595	-0.419591	0.599493
H255	H	1.765928	-0.086258	0.932826
N256	N	0.589647	-0.403952	0.332776
N257	N	0.922981	-0.070619	0.666109
N258	N	1.256314	0.262714	0.999443
N259	N	0.620716	-0.442676	0.290072
N260	N	0.954050	-0.109343	0.623406
N261	N	1.287383	0.223991	0.956739
H262	H	0.592807	-0.476240	0.253082
H263	H	0.926141	-0.142907	0.586415
H264	H	1.259474	0.190427	0.919748
N265	N	0.738196	-0.397599	0.339741
N266	N	1.071530	-0.064266	0.673074
N267	N	1.404863	0.269067	1.006408
N268	N	0.803808	-0.394794	0.342822
N269	N	1.137142	-0.061461	0.676155
N270	N	1.470475	0.271873	1.009488
H271	H	0.828912	-0.426084	0.308318
H272	H	1.162245	-0.092750	0.641651
H273	H	1.495579	0.240583	0.974984
