data_functionalizedCrystal
_audit_creation_method	'MofGen! by Chris Wilmer'
_symmetry_space_group_name_H-M	'P1'
_symmetry_Int_Tables_number	1
_symmetry_cell_setting	triclinic
loop_
_symmetry_equiv_pos_as_xyz
  x,y,z
_cell_length_a	12.759401
_cell_length_b	19.077068
_cell_length_c	12.759393
_cell_angle_alpha	92.260861
_cell_angle_beta	89.982961
_cell_angle_gamma	92.327081
loop_
_atom_site_label
_atom_site_type_symbol
_atom_site_fract_x
_atom_site_fract_y
_atom_site_fract_z
Zn1	Zn	1.589346	-0.280153	-0.610733
Zn2	Zn	1.922679	0.053180	-0.277400
Zn3	Zn	2.256013	0.386513	0.055934
Zn4	Zn	1.582146	-0.397870	-0.442092
Zn5	Zn	1.915479	-0.064536	-0.108759
Zn6	Zn	2.248813	0.268797	0.224575
Zn7	Zn	1.413650	-0.280191	-0.435075
Zn8	Zn	1.746983	0.053142	-0.101741
Zn9	Zn	2.080317	0.386476	0.231592
Zn10	Zn	1.406541	-0.397815	-0.617730
Zn11	Zn	1.739875	-0.064481	-0.284397
Zn12	Zn	2.073208	0.268852	0.048937
O13	O	1.497921	-0.339007	-0.526407
O14	O	1.831254	-0.005674	-0.193074
O15	O	2.164588	0.327660	0.140259
O16	O	1.735411	-0.295776	-0.588371
O17	O	2.068745	0.037557	-0.255038
O18	O	2.402078	0.370891	0.078296
O19	O	1.559757	-0.382298	-0.294142
O20	O	1.893090	-0.048965	0.039191
O21	O	2.226423	0.284369	0.372524
O22	O	1.442945	-0.181695	-0.452511
O23	O	1.776278	0.151638	-0.119178
O24	O	2.109612	0.484971	0.214156
O25	O	1.730122	-0.382261	-0.464471
O26	O	2.063455	-0.048928	-0.131138
O27	O	2.396788	0.284405	0.202196
O28	O	1.572028	-0.181668	-0.581566
O29	O	1.905361	0.151666	-0.248233
O30	O	2.238695	0.484999	0.085100
O31	O	1.435963	-0.295840	-0.288987
O32	O	1.769297	0.037494	0.044347
O33	O	2.102630	0.370827	0.377680
O34	O	1.265687	-0.295787	-0.459296
O35	O	1.599020	0.037547	-0.125963
O36	O	1.932353	0.370880	0.207371
O37	O	1.430829	-0.382168	-0.763821
O38	O	1.764162	-0.048835	-0.430487
O39	O	2.097495	0.284499	-0.097154
O40	O	1.260464	-0.382204	-0.593492
O41	O	1.593797	-0.048871	-0.260159
O42	O	1.927130	0.284462	0.073175
O43	O	1.565135	-0.295723	-0.758680
O44	O	1.898468	0.037611	-0.425347
O45	O	2.231801	0.370944	-0.092013
O46	O	1.552863	-0.496353	-0.471256
O47	O	1.886197	-0.163020	-0.137922
O48	O	2.219530	0.170314	0.195411
O49	O	1.423847	-0.496313	-0.600296
O50	O	1.757181	-0.162979	-0.266963
O51	O	2.090514	0.170354	0.066370
C52	C	1.224954	-0.338994	-0.526392
C53	C	1.558288	-0.005661	-0.193059
C54	C	1.891621	0.327672	0.140274
C55	C	1.108177	-0.339006	-0.526412
C56	C	1.441510	-0.005672	-0.193079
C57	C	1.774844	0.327661	0.140255
C58	C	1.486831	-0.521870	-0.537320
C59	C	1.820164	-0.188537	-0.203986
C60	C	2.153498	0.144796	0.129347
C61	C	1.482183	-0.600100	-0.542023
C62	C	1.815516	-0.266767	-0.208690
C63	C	2.148850	0.066567	0.124643
C64	C	1.050618	-0.384075	-0.596181
C65	C	1.383952	-0.050742	-0.262848
C66	C	1.717285	0.282591	0.070486
C67	C	0.940894	-0.384084	-0.596193
C68	C	1.274227	-0.050751	-0.262860
C69	C	1.607561	0.282582	0.070474
C70	C	0.946296	-0.293952	-0.456658
C71	C	1.279629	0.039382	-0.123324
C72	C	1.612963	0.372715	0.210009
C73	C	1.056019	-0.293940	-0.456651
C74	C	1.389352	0.039394	-0.123318
C75	C	1.722685	0.372727	0.210015
C76	C	1.047499	-0.436115	-0.676738
C77	C	1.380832	-0.102782	-0.343404
C78	C	1.714165	0.230552	-0.010071
C79	C	0.937774	-0.436124	-0.676750
C80	C	1.271107	-0.102790	-0.343416
C81	C	1.604441	0.230543	-0.010083
C82	C	1.547223	-0.636850	-0.477104
C83	C	1.880557	-0.303517	-0.143771
C84	C	2.213890	0.029817	0.189563
C85	C	1.542858	-0.710355	-0.481534
C86	C	1.876191	-0.377022	-0.148201
C87	C	2.209524	-0.043688	0.185132
C88	C	1.473446	-0.747109	-0.550879
C89	C	1.806779	-0.413775	-0.217545
C90	C	2.140112	-0.080442	0.115788
C91	C	1.408403	-0.710353	-0.615805
C92	C	1.741736	-0.377020	-0.282472
C93	C	2.075070	-0.043687	0.050862
C94	C	1.412774	-0.636850	-0.611379
C95	C	1.746108	-0.303516	-0.278046
C96	C	2.079441	0.029817	0.055287
C97	C	1.453168	-0.966941	-0.571318
C98	C	1.786501	-0.633608	-0.237984
C99	C	2.119834	-0.300275	0.095349
C100	C	1.448799	-1.040450	-0.575736
C101	C	1.782132	-0.707117	-0.242403
C102	C	2.115465	-0.373784	0.090931
C103	C	1.583255	-1.040447	-0.441466
C104	C	1.916589	-0.707113	-0.108133
C105	C	2.249922	-0.373780	0.225201
C106	C	1.587616	-0.966942	-0.437042
C107	C	1.920950	-0.633608	-0.103709
C108	C	2.254283	-0.300275	0.229624
C109	C	1.522577	-0.930193	-0.501972
C110	C	1.855911	-0.596859	-0.168639
C111	C	2.189244	-0.263526	0.164694
N112	N	1.468980	-0.822243	-0.555406
N113	N	1.802313	-0.488909	-0.222073
N114	N	2.135646	-0.155576	0.111260
N115	N	1.527050	-0.855060	-0.497449
N116	N	1.860383	-0.521727	-0.164116
N117	N	2.193716	-0.188394	0.169217
C118	C	1.771953	-0.339021	-0.526423
C119	C	2.105287	-0.005687	-0.193090
C120	C	2.438620	0.327646	0.140243
C121	C	1.888730	-0.339026	-0.526430
C122	C	2.222063	-0.005693	-0.193097
C123	C	2.555396	0.327640	0.140237
C124	C	1.497992	-0.338935	-0.800437
C125	C	1.831325	-0.005602	-0.467103
C126	C	2.164658	0.327732	-0.133770
C127	C	1.498022	-0.338904	-0.917212
C128	C	1.831355	-0.005571	-0.583878
C129	C	2.164689	0.327762	-0.250545
C130	C	1.509083	-0.155430	-0.515476
C131	C	1.842416	0.177903	-0.182142
C132	C	2.175749	0.511237	0.151191
C133	C	1.513839	-0.077200	-0.510817
C134	C	1.847172	0.256133	-0.177484
C135	C	2.180506	0.589466	0.155850
C136	C	1.428157	-0.383880	-1.084475
C137	C	1.761490	-0.050547	-0.751141
C138	C	2.094823	0.282787	-0.417808
C139	C	1.428115	-0.383900	-0.974752
C140	C	1.761449	-0.050567	-0.641419
C141	C	2.094782	0.282766	-0.308085
C142	C	1.567967	-0.293880	-0.969399
C143	C	1.901301	0.039453	-0.636066
C144	C	2.234634	0.372787	-0.302733
C145	C	1.568003	-0.293857	-1.079120
C146	C	1.901336	0.039477	-0.745787
C147	C	2.234670	0.372810	-0.412453
C148	C	1.347417	-0.435855	-1.087564
C149	C	1.680751	-0.102521	-0.754231
C150	C	2.014084	0.230812	-0.420898
C151	C	1.347376	-0.435875	-0.977841
C152	C	1.680709	-0.102542	-0.644508
C153	C	2.014042	0.230792	-0.311175
C154	C	1.497914	-0.339028	-0.253441
C155	C	1.831247	-0.005695	0.079892
C156	C	2.164580	0.327639	0.413225
C157	C	1.498099	-0.338860	-0.136655
C158	C	1.831432	-0.005527	0.196678
C159	C	2.164766	0.327806	0.530011
H160	H	1.102879	-0.257235	-0.399845
H161	H	1.436213	0.076098	-0.066512
H162	H	1.769546	0.409432	0.266821
H163	H	0.903815	-0.257260	-0.399862
H164	H	1.237149	0.076073	-0.066529
H165	H	1.570482	0.409407	0.266805
H166	H	0.904693	-0.490621	-0.658076
H167	H	1.238026	-0.157287	-0.324743
H168	H	1.571359	0.176046	0.008591
H169	H	1.400208	-0.937026	-0.624184
H170	H	1.733542	-0.603693	-0.290851
H171	H	2.066875	-0.270360	0.042482
H172	H	1.078181	-0.421578	-0.757275
H173	H	1.411515	-0.088245	-0.423942
H174	H	1.744848	0.245089	-0.090609
H175	H	1.624949	-0.257192	-1.121601
H176	H	1.958282	0.076141	-0.788267
H177	H	2.291616	0.409475	-0.454934
H178	H	1.644137	-0.937018	-0.380577
H179	H	1.977470	-0.603685	-0.047243
H180	H	2.310804	-0.270352	0.286090
H181	H	1.359813	-0.606928	-0.664245
H182	H	1.693147	-0.273595	-0.330911
H183	H	2.026480	0.059738	0.002422
H184	H	1.624880	-0.257239	-0.922541
H185	H	1.958213	0.076095	-0.589208
H186	H	2.291546	0.409428	-0.255874
H187	H	1.266944	-0.421247	-1.116473
H188	H	1.600277	-0.087913	-0.783140
H189	H	1.933611	0.245420	-0.449806
H190	H	1.078393	-0.487867	-0.650548
H191	H	1.411726	-0.154533	-0.317214
H192	H	1.745059	0.178800	0.016119
H193	H	1.373428	-0.487628	-1.124674
H194	H	1.706762	-0.154294	-0.791341
H195	H	2.040095	0.179039	-0.458007
H196	H	1.271252	-0.416357	-0.942653
H197	H	1.604585	-0.083024	-0.609320
H198	H	1.937918	0.250309	-0.275986
H199	H	0.904948	-0.416667	-0.752938
H200	H	1.238281	-0.083333	-0.419605
H201	H	1.571614	0.250000	-0.086272
H202	H	1.636208	-1.070375	-0.388605
H203	H	1.969541	-0.737042	-0.055272
H204	H	2.302875	-0.403709	0.278061
H205	H	1.603741	-0.606930	-0.420632
H206	H	1.937074	-0.273597	-0.087299
H207	H	2.270408	0.059737	0.246035
H208	H	1.392288	-1.070373	-0.632223
H209	H	1.725621	-0.737040	-0.298890
H210	H	2.058954	-0.403706	0.034444
H211	H	1.351891	-0.740284	-0.672271
H212	H	1.685224	-0.406951	-0.338938
H213	H	2.018557	-0.073617	-0.005605
H214	H	1.595820	-0.740274	-0.428669
H215	H	1.929153	-0.406940	-0.095336
H216	H	2.262486	-0.073607	0.237997
H217	H	1.365903	-0.490383	-0.951301
H218	H	1.699236	-0.157050	-0.617968
H219	H	2.032569	0.176284	-0.284635
