data_functionalizedCrystal
_audit_creation_method	'MofGen! by Chris Wilmer'
_symmetry_space_group_name_H-M	'P1'
_symmetry_Int_Tables_number	1
_symmetry_cell_setting	triclinic
loop_
_symmetry_equiv_pos_as_xyz
  x,y,z
_cell_length_a	15.625110
_cell_length_b	14.185569
_cell_length_c	12.837942
_cell_angle_alpha	104.575716
_cell_angle_beta	89.271854
_cell_angle_gamma	59.445489
loop_
_atom_site_label
_atom_site_type_symbol
_atom_site_fract_x
_atom_site_fract_y
_atom_site_fract_z
O1	O	1.293384	-0.387135	0.026426
O2	O	1.793384	0.112865	0.526426
O3	O	1.009468	-0.283840	0.071616
O4	O	1.509468	0.216160	0.571616
O5	O	1.145132	-0.333204	-0.101248
O6	O	1.645132	0.166796	0.398752
O7	O	1.157720	-0.337771	0.199289
O8	O	1.657720	0.162229	0.699289
O9	O	1.185209	-0.514621	-0.152308
O10	O	1.685209	-0.014621	0.347692
O11	O	1.049545	-0.465257	0.020555
O12	O	1.549545	0.034743	0.520555
O13	O	1.333461	-0.568552	-0.024635
O14	O	1.833461	-0.068552	0.475365
Cu15	Cu	1.195162	-0.533470	-0.006702
Cu16	Cu	1.695162	-0.033470	0.493298
Cu17	Cu	1.147767	-0.318923	0.053683
Cu18	Cu	1.647767	0.181077	0.553683
O19	O	1.197797	-0.519189	0.148229
O20	O	1.697797	-0.019189	0.648229
C21	C	0.992914	-0.361236	0.049101
C22	C	1.492914	0.138764	0.549101
C23	C	0.883880	-0.321567	0.058074
C24	C	1.383880	0.178433	0.558074
C25	C	0.708355	-0.166772	0.098553
C26	C	1.208355	0.333228	0.598553
C27	C	0.810812	-0.204058	0.090118
C28	C	1.310812	0.295942	0.590118
C29	C	0.854511	-0.401835	0.034458
C30	C	1.354511	0.098165	0.534458
C31	C	0.752056	-0.364565	0.042894
C32	C	1.252056	0.135435	0.542894
C33	C	0.678985	-0.247032	0.074941
C34	C	1.178985	0.252968	0.574941
C35	C	0.722686	-0.444826	0.019281
C36	C	1.222686	0.055174	0.519281
C37	C	0.620239	-0.407558	0.027710
C38	C	1.120239	0.092442	0.527710
C39	C	0.547163	-0.290030	0.059753
C40	C	1.047163	0.209970	0.559753
C41	C	0.576538	-0.209764	0.083370
C42	C	1.076538	0.290236	0.583370
C43	C	0.795759	-0.562358	-0.012774
C44	C	1.295759	-0.062358	0.487226
C45	C	0.766389	-0.642619	-0.036386
C46	C	1.266389	-0.142619	0.463614
C47	C	0.663940	-0.605351	-0.027950
C48	C	1.163940	-0.105351	0.472050
C49	C	0.590864	-0.487823	0.004093
C50	C	1.090864	0.012177	0.504093
C51	C	0.634565	-0.685617	-0.051567
C52	C	1.134565	-0.185617	0.448433
C53	C	0.532118	-0.648349	-0.043137
C54	C	1.032118	-0.148349	0.456863
C55	C	0.488417	-0.450556	0.012522
C56	C	0.988417	0.049444	0.512522
N57	N	1.228505	-0.684373	-0.049175
N58	N	1.728505	-0.184373	0.450825
C59	C	1.016467	-0.974869	0.220887
C60	C	1.516467	-0.474869	0.720887
C61	C	1.041731	-1.089084	0.188721
C62	C	1.541731	-0.589084	0.688721
C63	C	1.161893	-1.132768	0.035699
C64	C	1.661893	-0.632768	0.535699
C65	C	1.136636	-1.018554	0.067850
C66	C	1.636636	-0.518554	0.567850
C67	C	1.063923	-0.939613	0.160445
C68	C	1.563923	-0.439613	0.660445
C69	C	1.184091	-0.983297	0.007408
C70	C	1.684091	-0.483297	0.507408
C71	C	1.158840	-0.869094	0.039560
C72	C	1.658840	-0.369094	0.539560
C73	C	1.086132	-0.790148	0.132153
C74	C	1.586132	-0.290148	0.632153
C75	C	1.038671	-0.825410	0.192597
C76	C	1.538671	-0.325410	0.692597
C77	C	1.256809	-1.062242	-0.085183
C78	C	1.756809	-0.562242	0.414817
C79	C	1.304265	-1.026985	-0.145625
C80	C	1.804265	-0.526985	0.354375
C81	C	1.279008	-0.912779	-0.113478
C82	C	1.779008	-0.412779	0.386522
C83	C	1.206301	-0.833832	-0.020884
C84	C	1.706301	-0.333832	0.479116
C85	C	1.326469	-0.877517	-0.173922
C86	C	1.826469	-0.377517	0.326078
C87	C	1.301217	-0.763314	-0.141770
C88	C	1.801217	-0.263314	0.358230
C89	C	1.181049	-0.719629	0.011267
C90	C	1.681049	-0.219629	0.511267
C91	C	1.350014	-0.491154	-0.002119
C92	C	1.850014	0.008846	0.497881
C93	C	1.459047	-0.530816	-0.011090
C94	C	1.959047	-0.030816	0.488910
C95	C	1.160917	-0.422364	-0.164969
C96	C	1.660917	0.077636	0.335031
C97	C	1.148231	-0.417747	-0.278763
C98	C	1.648231	0.082253	0.221237
N99	N	1.114431	-0.168022	0.096147
N100	N	1.614431	0.331978	0.596147
C101	C	1.300732	-0.473210	-0.535126
C102	C	1.800732	0.026790	-0.035126
C103	C	1.288817	-0.468873	-0.642047
C104	C	1.788817	0.031127	-0.142047
C105	C	1.112484	-0.404730	-0.599527
C106	C	1.612484	0.095270	-0.099527
C107	C	1.124399	-0.409066	-0.492606
C108	C	1.624399	0.090934	0.007394
C109	C	1.218527	-0.443309	-0.460410
C110	C	1.718527	0.056691	0.039590
C111	C	1.230443	-0.447653	-0.353489
C112	C	1.730443	0.052347	0.146511
C113	C	1.054109	-0.383503	-0.310969
C114	C	1.554109	0.116497	0.189031
C115	C	1.042194	-0.379166	-0.417890
C116	C	1.542194	0.120834	0.082110
C117	C	1.182012	-0.430026	0.211950
C118	C	1.682012	0.069974	0.711950
C119	C	1.194696	-0.434636	0.325747
C120	C	1.694696	0.065364	0.825747
H121	H	0.463745	-0.259689	0.066617
H122	H	0.963745	0.240311	0.566617
H123	H	1.277370	-1.155233	-0.111354
H124	H	1.777370	-0.655233	0.388646
F125	F	0.939067	-0.890847	0.319431
F126	F	1.439067	-0.390847	0.819431
F127	F	1.012309	-0.368262	-0.633804
F128	F	1.512309	0.131738	-0.133804
F129	F	0.842064	-0.118624	0.115252
F130	F	1.342064	0.381376	0.615252
F131	F	1.330621	-0.484104	-0.319228
F132	F	1.830621	0.015896	0.180772
H133	H	1.221099	-1.197055	-0.039691
H134	H	1.721099	-0.697055	0.460309
F135	F	1.376311	-0.500694	-0.721562
F136	F	1.876311	-0.000694	-0.221562
H137	H	0.965557	-0.351282	-0.444118
H138	H	1.465557	0.148718	0.055882
F139	F	1.103649	-0.635607	0.109811
F140	F	1.603649	-0.135607	0.609811
H141	H	1.377376	-0.501102	-0.508916
H142	H	1.877376	-0.001102	-0.008916
F143	F	0.498764	-0.084671	0.117493
F144	F	0.998764	0.415329	0.617493
H145	H	0.987173	-0.359164	-0.250125
H146	H	1.487173	0.140836	0.249875
H147	H	0.428917	-0.354849	0.038631
H148	H	0.928917	0.145151	0.538631
H149	H	0.914019	-0.497531	0.008361
H150	H	1.414019	0.002469	0.508361
F151	F	0.630581	-0.041678	0.132676
F152	F	1.130581	0.458322	0.632676
H153	H	1.363471	-1.091272	-0.221015
H154	H	1.863471	-0.591272	0.278985
H155	H	0.825896	-0.738315	-0.062483
H156	H	1.325896	-0.238315	0.437517
F157	F	0.904793	-0.602020	-0.021755
F158	F	1.404793	-0.102020	0.478245
F159	F	0.961271	-0.741388	0.291140
F160	F	1.461271	-0.241388	0.791140
F161	F	0.712343	-0.810700	-0.085683
F162	F	1.212343	-0.310700	0.414317
F163	F	0.500858	-0.733771	-0.068281
F164	F	1.000858	-0.233771	0.431719
H165	H	1.065576	-0.697159	0.158333
H166	H	1.565576	-0.197159	0.658333
H167	H	1.003081	-1.117780	0.237949
H168	H	1.503081	-0.617780	0.737949
H169	H	1.385680	-0.941807	-0.249308
H170	H	1.885680	-0.441807	0.250692
H171	H	1.339862	-0.734610	-0.190988
H172	H	1.839862	-0.234610	0.309012
