data_functionalizedCrystal
_audit_creation_method	'MofGen! by Chris Wilmer'
_symmetry_space_group_name_H-M	'P1'
_symmetry_Int_Tables_number	1
_symmetry_cell_setting	triclinic
loop_
_symmetry_equiv_pos_as_xyz
  x,y,z
_cell_length_a	12.759401
_cell_length_b	16.625545
_cell_length_c	12.759393
_cell_angle_alpha	89.966045
_cell_angle_beta	89.981425
_cell_angle_gamma	90.025984
loop_
_atom_site_label
_atom_site_type_symbol
_atom_site_fract_x
_atom_site_fract_y
_atom_site_fract_z
Zn1	Zn	1.606176	-0.320945	-0.593968
Zn2	Zn	2.106176	0.179055	-0.093968
Zn3	Zn	1.606037	-0.455801	-0.418281
Zn4	Zn	2.106037	0.044199	0.081719
Zn5	Zn	1.430478	-0.320987	-0.418307
Zn6	Zn	1.930478	0.179013	0.081693
Zn7	Zn	1.430433	-0.455740	-0.593922
Zn8	Zn	1.930433	0.044260	-0.093922
O9	O	1.518281	-0.388368	-0.506119
O10	O	2.018281	0.111632	-0.006119
O11	O	1.753178	-0.338841	-0.570671
O12	O	2.253178	0.161159	-0.070671
O13	O	1.582709	-0.437962	-0.271263
O14	O	2.082709	0.062038	0.228737
O15	O	1.453861	-0.208149	-0.441639
O16	O	1.953861	0.291851	0.058361
O17	O	1.753076	-0.437920	-0.441594
O18	O	2.253076	0.062080	0.058406
O19	O	1.582946	-0.208118	-0.570696
O20	O	2.082946	0.291882	-0.070696
O21	O	1.453727	-0.338915	-0.271282
O22	O	1.953727	0.161085	0.228718
O23	O	1.283451	-0.338855	-0.441594
O24	O	1.783451	0.161145	0.058406
O25	O	1.453785	-0.437815	-0.740949
O26	O	1.953785	0.062185	-0.240949
O27	O	1.283418	-0.437857	-0.570618
O28	O	1.783418	0.062143	-0.070618
O29	O	1.582902	-0.338782	-0.740983
O30	O	2.082902	0.161218	-0.240983
O31	O	1.582666	-0.568626	-0.441550
O32	O	2.082666	-0.068626	0.058450
O33	O	1.453650	-0.568580	-0.570592
O34	O	1.953650	-0.068580	-0.070592
C35	C	1.245313	-0.388354	-0.506104
C36	C	1.745313	0.111646	-0.006104
C37	C	1.128537	-0.388368	-0.506123
C38	C	1.628537	0.111632	-0.006123
C39	C	1.073729	-0.336871	-0.573437
C40	C	1.573729	0.163129	-0.073437
C41	C	0.964005	-0.336879	-0.573444
C42	C	1.464005	0.163121	-0.073444
C43	C	0.963907	-0.439888	-0.438820
C44	C	1.463907	0.060112	0.061180
C45	C	1.073629	-0.439875	-0.438809
C46	C	1.573629	0.060125	0.061191
C47	C	1.518167	-0.597859	-0.506086
C48	C	2.018167	-0.097859	-0.006086
C49	C	1.518214	-0.687480	-0.506107
C50	C	2.018214	-0.187480	-0.006107
C51	C	1.518255	-0.760263	-0.506128
C52	C	2.018255	-0.260263	-0.006128
C53	C	1.518316	-0.851571	-0.506151
C54	C	2.018316	-0.351571	-0.006151
C55	C	1.518370	-0.924348	-0.506164
C56	C	2.018370	-0.424348	-0.006164
C57	C	1.518431	-1.015662	-0.506186
C58	C	2.018431	-0.515662	-0.006186
C59	C	1.792314	-0.388383	-0.506135
C60	C	2.292314	0.111617	-0.006135
C61	C	1.909091	-0.388389	-0.506141
C62	C	2.409091	0.111611	-0.006141
C63	C	1.518354	-0.388287	-0.780153
C64	C	2.018354	0.111713	-0.280153
C65	C	1.518385	-0.388252	-0.896929
C66	C	2.018385	0.111748	-0.396929
C67	C	1.518424	-0.178059	-0.506175
C68	C	2.018424	0.321941	-0.006175
C69	C	1.518485	-0.088438	-0.506199
C70	C	2.018485	0.411562	-0.006199
C71	C	1.451248	-0.336669	-0.951801
C72	C	1.951248	0.163331	-0.451801
C73	C	1.451273	-0.336644	-1.061525
C74	C	1.951273	0.163356	-0.561525
C75	C	1.585581	-0.439788	-1.061497
C76	C	2.085581	0.060212	-0.561497
C77	C	1.585550	-0.439816	-0.951774
C78	C	2.085550	0.060184	-0.451774
C79	C	1.518268	-0.388391	-0.233152
C80	C	2.018268	0.111609	0.266848
C81	C	1.518441	-0.388199	-0.116376
C82	C	2.018441	0.111801	0.383624
H83	H	1.118255	-0.481811	-0.383988
H84	H	1.618255	0.018189	0.116012
C85	C	1.659406	-0.496559	-0.891411
C86	C	2.159406	0.003441	-0.391411
H87	H	1.699422	-0.527257	-0.939788
H88	H	2.199422	-0.027257	-0.439788
H89	H	1.619179	-0.531697	-0.848595
H90	H	2.119179	-0.031697	-0.348595
H91	H	1.705195	-0.465723	-0.848622
H92	H	2.205195	0.034277	-0.348622
H93	H	0.919385	-0.294944	-0.628256
H94	H	1.419385	0.205056	-0.128256
H95	H	1.118432	-0.294927	-0.628245
H96	H	1.618432	0.205073	-0.128245
C97	C	0.903509	-0.496550	-0.364788
C98	C	1.403509	0.003450	0.135212
H99	H	0.951869	-0.527214	-0.324690
H100	H	1.451869	-0.027214	0.175310
H101	H	0.860711	-0.531723	-0.404901
H102	H	1.360711	-0.031723	0.095099
H103	H	0.860699	-0.465667	-0.319082
H104	H	1.360699	0.034333	0.180918
C105	C	1.377354	-0.279964	-0.891475
C106	C	1.877354	0.220036	-0.391475
H107	H	1.337365	-0.249247	-0.939873
H108	H	1.837365	0.250753	-0.439873
H109	H	1.417545	-0.244842	-0.848680
H110	H	1.917545	0.255158	-0.348680
H111	H	1.331543	-0.310828	-0.848666
H112	H	1.831543	0.189172	-0.348666
H113	H	1.396602	-0.294640	-1.106197
H114	H	1.896602	0.205360	-0.606197
H115	H	1.640264	-0.481769	-1.106165
H116	H	2.140264	0.018231	-0.606165
