data_functionalizedCrystal
_audit_creation_method	'MofGen! by Chris Wilmer'
_symmetry_space_group_name_H-M	'P1'
_symmetry_Int_Tables_number	1
_symmetry_cell_setting	triclinic
loop_
_symmetry_equiv_pos_as_xyz
  x,y,z
_cell_length_a	16.109302
_cell_length_b	8.634740
_cell_length_c	14.586319
_cell_angle_alpha	89.998699
_cell_angle_beta	89.994552
_cell_angle_gamma	92.016044
loop_
_atom_site_label
_atom_site_type_symbol
_atom_site_fract_x
_atom_site_fract_y
_atom_site_fract_z
O1	O	1.119037	0.198205	-0.076278
O2	O	0.878954	0.222869	-0.076270
O3	O	0.987631	-0.013933	-0.076272
O4	O	1.010360	0.435007	-0.076276
O5	O	0.987622	-0.013937	0.076208
O6	O	0.878945	0.222866	0.076210
O7	O	1.119028	0.198201	0.076203
Cu8	Cu	0.998986	0.210533	0.090129
Cu9	Cu	0.998996	0.210537	-0.090197
O10	O	1.010351	0.435004	0.076205
C11	C	0.847895	0.221868	-0.000029
C12	C	0.755359	0.218872	-0.000026
C13	C	0.542457	0.211943	0.083082
C14	C	0.455510	0.209111	0.083079
C15	C	0.455531	0.209123	-0.083164
C16	C	0.542477	0.211944	-0.083160
C17	C	0.585937	0.213361	-0.000034
C18	C	0.412045	0.207709	-0.000041
C19	C	0.317772	0.204639	-0.000046
C20	C	0.680216	0.216429	-0.000030
C21	C	0.982477	-0.071383	-0.000033
C22	C	0.967125	-0.242558	-0.000037
C23	C	1.150087	0.199202	-0.000041
C24	C	1.242623	0.202198	-0.000049
C25	C	1.015505	0.492453	-0.000036
C26	C	1.030857	0.663629	-0.000038
N27	N	0.998984	0.210529	0.216961
N28	N	0.999004	0.210529	-0.217029
C29	C	1.047128	0.105708	0.451967
C30	C	1.047130	0.105705	0.547948
C31	C	0.950855	0.315355	0.547959
C32	C	0.950848	0.315350	0.451980
C33	C	0.998990	0.210529	0.403986
C34	C	0.998998	0.210530	0.595947
C35	C	0.999000	0.210526	0.700014
C36	C	0.998987	0.210529	0.299912
H37	H	0.420112	0.207957	0.150760
C38	C	0.407722	0.207583	-0.174599
C39	C	0.312085	0.204493	-0.174609
C40	C	0.264279	0.202960	-0.266046
C41	C	0.312108	0.204518	-0.357473
C42	C	0.407750	0.207609	-0.357467
C43	C	0.455557	0.209141	-0.266030
H44	H	0.276674	0.203339	-0.106926
H45	H	0.193478	0.200672	-0.266050
H46	H	0.276719	0.203383	-0.425160
H47	H	0.443162	0.208762	-0.425150
H48	H	0.526358	0.211430	-0.266025
C49	C	0.877542	-0.310953	-0.000033
C50	C	0.847265	-0.416525	0.079149
C51	C	0.757680	-0.484930	0.079153
C52	C	0.698372	-0.447765	-0.000025
C53	C	0.728647	-0.342188	-0.079213
C54	C	0.818232	-0.273782	-0.079217
H55	H	0.891169	-0.444042	0.137766
H56	H	0.735268	-0.563085	0.137773
H57	H	0.632055	-0.498403	-0.000022
H58	H	0.684743	-0.314671	-0.137830
H59	H	0.840644	-0.195627	-0.137837
H60	H	0.911660	0.400701	0.587045
H61	H	0.577841	0.213097	0.150768
C62	C	1.120445	-0.267971	-0.000042
C63	C	1.150715	-0.162401	0.079134
C64	C	1.240301	-0.094000	0.079130
C65	C	1.299617	-0.131170	-0.000051
C66	C	1.269349	-0.236745	-0.079233
C67	C	1.179763	-0.305146	-0.079229
H68	H	1.106804	-0.134881	0.137754
H69	H	1.262707	-0.015846	0.137746
H70	H	1.365934	-0.080536	-0.000054
H71	H	1.313260	-0.264266	-0.137853
H72	H	1.157357	-0.383300	-0.137845
H73	H	1.086326	0.020354	0.412892
H74	H	0.577879	0.213094	-0.150847
H75	H	1.086327	0.020349	0.587011
H76	H	0.911645	0.400708	0.412911
