data_functionalizedCrystal
_audit_creation_method	'MofGen! by Chris Wilmer'
_symmetry_space_group_name_H-M	'P1'
_symmetry_Int_Tables_number	1
_symmetry_cell_setting	triclinic
loop_
_symmetry_equiv_pos_as_xyz
  x,y,z
_cell_length_a	23.532407
_cell_length_b	19.188930
_cell_length_c	17.666332
_cell_angle_alpha	89.989658
_cell_angle_beta	89.996086
_cell_angle_gamma	82.996730
loop_
_atom_site_label
_atom_site_type_symbol
_atom_site_fract_x
_atom_site_fract_y
_atom_site_fract_z
O1	O	-0.755443	-0.084756	0.062862
O2	O	-0.422110	0.248577	0.396196
O3	O	-0.088777	0.581910	0.729529
O4	O	-0.589606	-0.097020	0.062886
O5	O	-0.256273	0.236313	0.396219
O6	O	0.077061	0.569647	0.729552
O7	O	-0.677310	0.010783	0.062858
O8	O	-0.343977	0.344116	0.396192
O9	O	-0.010644	0.677449	0.729525
O10	O	-0.667739	-0.192559	0.062889
O11	O	-0.334406	0.140774	0.396223
O12	O	-0.001072	0.474108	0.729556
O13	O	-0.677295	0.010786	-0.063038
O14	O	-0.343962	0.344119	0.270295
O15	O	-0.010628	0.677452	0.603628
O16	O	-0.589591	-0.097017	-0.063011
O17	O	-0.256257	0.236316	0.270322
O18	O	0.077076	0.569650	0.603656
O19	O	-0.755428	-0.084753	-0.063035
O20	O	-0.422095	0.248580	0.270299
O21	O	-0.088761	0.581913	0.603632
Cu22	Cu	-0.672508	-0.090885	-0.074518
Cu23	Cu	-0.339175	0.242449	0.258815
Cu24	Cu	-0.005841	0.575782	0.592148
Cu25	Cu	-0.672526	-0.090888	0.074369
Cu26	Cu	-0.339193	0.242445	0.407703
Cu27	Cu	-0.005859	0.575778	0.741036
O28	O	-0.667724	-0.192556	-0.063007
O29	O	-0.334390	0.140777	0.270326
O30	O	-0.001057	0.474111	0.603659
C31	C	-0.568382	-0.096706	-0.000060
C32	C	-0.235048	0.236627	0.333273
C33	C	0.098285	0.569961	0.666607
C34	C	-0.505163	-0.095767	-0.000052
C35	C	-0.171829	0.237566	0.333282
C36	C	0.161504	0.570899	0.666615
C37	C	-0.676993	0.036794	-0.000092
C38	C	-0.343659	0.370128	0.333241
C39	C	-0.010326	0.703461	0.666575
C40	C	-0.676062	0.114296	-0.000098
C41	C	-0.342729	0.447629	0.333235
C42	C	-0.009396	0.780963	0.666568
C43	C	-0.776652	-0.085067	-0.000087
C44	C	-0.443319	0.248266	0.333246
C45	C	-0.109986	0.581600	0.666579
C46	C	-0.839871	-0.086006	-0.000091
C47	C	-0.506538	0.247327	0.333243
C48	C	-0.173205	0.580661	0.666576
C49	C	-0.106183	-0.153674	-0.000077
C50	C	0.227151	0.179660	0.333256
C51	C	0.560484	0.512993	0.666590
C52	C	-0.046780	-0.152801	-0.000082
C53	C	0.286553	0.180532	0.333251
C54	C	0.619886	0.513865	0.666585
O55	O	-0.010150	-0.206481	-0.000101
O56	O	0.323183	0.126852	0.333232
O57	O	0.656517	0.460186	0.666565
N58	N	-0.024018	-0.088713	-0.000090
N59	N	0.309315	0.244621	0.333243
N60	N	0.642648	0.577954	0.666576
C61	C	-0.060662	-0.025492	-0.000102
C62	C	0.272672	0.307841	0.333231
C63	C	0.606005	0.641175	0.666565
O64	O	-0.035846	0.029100	-0.000110
O65	O	0.297487	0.362434	0.333223
O66	O	0.630821	0.695767	0.666556
C67	C	-0.120062	-0.026365	-0.000102
C68	C	0.213271	0.306968	0.333231
C69	C	0.546604	0.640302	0.666564
C70	C	-0.142821	-0.090458	-0.000086
C71	C	0.190512	0.242876	0.333247
C72	C	0.523845	0.576209	0.666580
C73	C	-0.128942	-0.217761	-0.000062
C74	C	0.204391	0.115572	0.333271
C75	C	0.537725	0.448906	0.666605
C76	C	-0.188340	-0.218633	-0.000056
C77	C	0.144993	0.114700	0.333278
C78	C	0.478327	0.448034	0.666611
C79	C	-0.224979	-0.155417	-0.000065
C80	C	0.108355	0.177916	0.333269
C81	C	0.441688	0.511249	0.666602
C82	C	-0.202219	-0.091330	-0.000080
C83	C	0.131114	0.242004	0.333253
C84	C	0.464447	0.575337	0.666587
C85	C	-0.156705	0.036855	-0.000119
C86	C	0.176629	0.370188	0.333214
C87	C	0.509962	0.703521	0.666547
C88	C	-0.216109	0.035976	-0.000121
C89	C	0.117224	0.369310	0.333213
C90	C	0.450558	0.702643	0.666546
C91	C	-0.238868	-0.028116	-0.000104
C92	C	0.094466	0.305217	0.333229
C93	C	0.427799	0.638550	0.666562
C94	C	-0.298256	-0.028986	-0.000083
C95	C	0.035077	0.304347	0.333250
C96	C	0.368411	0.637681	0.666584
N97	N	-0.321018	-0.093075	-0.000075
N98	N	0.012315	0.240259	0.333259
N99	N	0.345649	0.573592	0.666592
C100	C	-0.284379	-0.156290	-0.000065
C101	C	0.048954	0.177043	0.333268
C102	C	0.382287	0.510376	0.666601
C103	C	0.064085	-0.023664	-0.000102
C104	C	0.397418	0.309670	0.333232
C105	C	0.730752	0.643003	0.666565
C106	C	0.123485	-0.022790	-0.000096
C107	C	0.456818	0.310543	0.333238
C108	C	0.790151	0.643877	0.666571
C109	C	0.137362	-0.150099	-0.000077
C110	C	0.470695	0.183234	0.333256
C111	C	0.804028	0.516567	0.666589
C112	C	0.077961	-0.150972	-0.000078
C113	C	0.411294	0.182361	0.333255
C114	C	0.744627	0.515694	0.666589
C115	C	0.041323	-0.087752	-0.000093
C116	C	0.374656	0.245581	0.333240
C117	C	0.707989	0.578914	0.666573
C118	C	-0.409120	-0.158117	-0.000052
C119	C	-0.075787	0.175217	0.333281
C120	C	0.257547	0.508550	0.666615
C121	C	-0.468524	-0.158983	-0.000043
C122	C	-0.135191	0.174350	0.333291
C123	C	0.198143	0.507684	0.666624
C124	C	-0.482396	-0.031674	-0.000065
C125	C	-0.149062	0.301660	0.333268
C126	C	0.184271	0.634993	0.666602
C127	C	-0.422997	-0.030807	-0.000070
C128	C	-0.089664	0.302526	0.333263
C129	C	0.243670	0.635860	0.666596
C130	C	-0.386360	-0.094034	-0.000066
C131	C	-0.053027	0.239299	0.333267
C132	C	0.280307	0.572633	0.666600
O133	O	-0.334921	0.024666	-0.000067
O134	O	-0.001588	0.357999	0.333266
O135	O	0.331746	0.691332	0.666600
O136	O	-0.309203	-0.210874	-0.000067
O137	O	0.024130	0.122460	0.333266
O138	O	0.357463	0.455793	0.666600
C139	C	-0.668041	-0.218568	-0.000055
C140	C	-0.334708	0.114766	0.333278
C141	C	-0.001375	0.448099	0.666611
C142	C	-0.668972	-0.296069	-0.000044
C143	C	-0.335638	0.037264	0.333290
C144	C	-0.002305	0.370598	0.666623
N145	N	-0.672499	-0.090882	-0.179238
N146	N	-0.339166	0.242452	0.154096
N147	N	-0.005833	0.575785	0.487429
C148	C	-0.727524	0.159384	-0.000109
C149	C	-0.394191	0.492717	0.333224
C150	C	-0.060858	0.826051	0.666557
C151	C	-0.726650	0.232205	-0.000097
C152	C	-0.393317	0.565538	0.333236
C153	C	-0.059984	0.898872	0.666570
C154	C	-0.674311	0.259935	-0.000089
C155	C	-0.340978	0.593268	0.333244
C156	C	-0.007644	0.926601	0.666578
C157	C	-0.622842	0.214837	-0.000074
C158	C	-0.289509	0.548170	0.333259
C159	C	0.043824	0.881503	0.666593
C160	C	-0.623718	0.142017	-0.000079
C161	C	-0.290385	0.475350	0.333255
C162	C	0.042949	0.808684	0.666588
N163	N	-0.634299	0.367813	-0.042929
N164	N	-0.300966	0.701146	0.290405
N165	N	0.032368	1.034480	0.623738
N166	N	-0.633471	0.436989	-0.042926
N167	N	-0.300137	0.770322	0.290408
N168	N	0.033196	1.103656	0.623741
C169	C	-0.671670	0.479335	-0.000073
C170	C	-0.338337	0.812668	0.333260
C171	C	-0.005003	1.146001	0.666593
N172	N	-0.710737	0.449893	0.042766
N173	N	-0.377404	0.783226	0.376100
N174	N	-0.044071	1.116560	0.709433
N175	N	-0.711567	0.380711	0.042760
N176	N	-0.378234	0.714044	0.376094
N177	N	-0.044901	1.047378	0.709427
C178	C	-0.673356	0.338894	-0.000084
C179	C	-0.340023	0.672227	0.333250
C180	C	-0.006689	1.005561	0.666583
C181	C	-0.722188	0.603384	-0.000070
C182	C	-0.388854	0.936718	0.333263
C183	C	-0.055521	1.270051	0.666597
C184	C	-0.721311	0.676206	-0.000053
C185	C	-0.387978	1.009540	0.333280
C186	C	-0.054645	1.342873	0.666614
C187	C	-0.617502	0.658836	-0.000038
C188	C	-0.284169	0.992170	0.333296
C189	C	0.049165	1.325503	0.666629
C190	C	-0.618380	0.586016	-0.000047
C191	C	-0.285046	0.919349	0.333286
C192	C	0.048287	1.252683	0.666620
C193	C	-0.670724	0.558295	-0.000067
C194	C	-0.337391	0.891628	0.333267
C195	C	-0.004057	1.224961	0.666600
C196	C	-0.706928	-0.133017	-0.218839
C197	C	-0.373595	0.200316	0.114494
C198	C	-0.040262	0.533649	0.447827
C199	C	-0.706937	-0.133015	-0.298087
C200	C	-0.373604	0.200318	0.035246
C201	C	-0.040271	0.533651	0.368580
C202	C	-0.672507	-0.090886	-0.337730
C203	C	-0.339174	0.242447	-0.004396
C204	C	-0.005840	0.575781	0.328937
C205	C	-0.638076	-0.048742	-0.298118
C206	C	-0.304742	0.284592	0.035215
C207	C	0.028591	0.617925	0.368548
C208	C	-0.638072	-0.048740	-0.218872
C209	C	-0.304739	0.284594	0.114461
C210	C	0.028595	0.617927	0.447794
N211	N	-0.622629	-0.089325	-0.462163
N212	N	-0.289296	0.244008	-0.128830
N213	N	0.044037	0.577342	0.204504
N214	N	-0.622634	-0.089331	-0.537443
N215	N	-0.289301	0.244003	-0.204110
N216	N	0.044032	0.577336	0.129223
C217	C	-0.672517	-0.090888	-0.576494
C218	C	-0.339184	0.242445	-0.243160
C219	C	-0.005851	0.575778	0.090173
N220	N	-0.722395	-0.092453	-0.537420
N221	N	-0.389062	0.240880	-0.204087
N222	N	-0.055729	0.574214	0.129247
N223	N	-0.722389	-0.092451	-0.462132
N224	N	-0.389056	0.240882	-0.128799
N225	N	-0.055723	0.574216	0.204534
C226	C	-0.672507	-0.090883	-0.423659
C227	C	-0.339174	0.242450	-0.090326
C228	C	-0.005841	0.575784	0.243008
C229	C	-0.706959	-0.133024	-0.702025
C230	C	-0.373626	0.200310	-0.368692
C231	C	-0.040293	0.533643	-0.035358
C232	C	-0.706970	-0.133017	-0.781274
C233	C	-0.373636	0.200317	-0.447941
C234	C	-0.040303	0.533650	-0.114607
C235	C	-0.638102	-0.048747	-0.781304
C236	C	-0.304769	0.284586	-0.447971
C237	C	0.028564	0.617920	-0.114637
C238	C	-0.638097	-0.048750	-0.702056
C239	C	-0.304764	0.284583	-0.368723
C240	C	0.028569	0.617917	-0.035390
C241	C	-0.672525	-0.090892	-0.662422
C242	C	-0.339191	0.242441	-0.329088
C243	C	-0.005858	0.575774	0.004245
N244	N	-0.672539	-0.090886	0.179089
N245	N	-0.339206	0.242447	0.512422
N246	N	-0.005873	0.575781	0.845755
H247	H	-0.487050	-0.211177	-0.000029
H248	H	-0.153717	0.122156	0.333304
H249	H	0.179616	0.455490	0.666638
C250	C	-0.777923	0.725804	-0.000066
C251	C	-0.444589	1.059138	0.333267
C252	C	-0.111256	1.392471	0.666600
H253	H	-0.809220	0.698862	-0.000086
H254	H	-0.475887	1.032195	0.333247
H255	H	-0.142553	1.365529	0.666580
H256	H	-0.779749	0.754563	0.043838
H257	H	-0.446416	1.087897	0.377172
H258	H	-0.113083	1.421230	0.710505
H259	H	-0.779728	0.754580	-0.043973
H260	H	-0.446395	1.087913	0.289360
H261	H	-0.113061	1.421247	0.622693
H262	H	-0.576474	0.549304	-0.000042
H263	H	-0.243140	0.882637	0.333291
H264	H	0.090193	1.215970	0.666624
H265	H	-0.764810	0.580813	-0.000083
H266	H	-0.431476	0.914146	0.333251
H267	H	-0.098143	1.247479	0.666584
C268	C	-0.744805	-0.179373	-0.341658
C269	C	-0.411472	0.153960	-0.008325
C270	C	-0.078139	0.487294	0.325008
H271	H	-0.765305	-0.204474	-0.306703
H272	H	-0.431971	0.128859	0.026630
H273	H	-0.098638	0.462192	0.359964
H274	H	-0.771089	-0.150606	-0.372579
H275	H	-0.437756	0.182727	-0.039246
H276	H	-0.104423	0.516061	0.294088
H277	H	-0.721377	-0.211651	-0.372564
H278	H	-0.388044	0.121682	-0.039230
H279	H	-0.054710	0.455015	0.294103
C280	C	-0.783259	0.281814	-0.000114
C281	C	-0.449926	0.615147	0.333219
C282	C	-0.116592	0.948481	0.666553
H283	H	-0.775239	0.329152	-0.000105
H284	H	-0.441906	0.662486	0.333228
H285	H	-0.108573	0.995819	0.666562
H286	H	-0.804720	0.273456	-0.044024
H287	H	-0.471387	0.606790	0.289310
H288	H	-0.138053	0.940123	0.622643
H289	H	-0.804738	0.273443	0.043788
H290	H	-0.471404	0.606777	0.377121
H291	H	-0.138071	0.940110	0.710454
H292	H	0.167204	-0.201573	-0.000073
H293	H	0.500537	0.131760	0.333260
H294	H	0.833871	0.465094	0.666593
C295	C	-0.368828	-0.227665	-0.000037
C296	C	-0.035495	0.105669	0.333296
C297	C	0.297839	0.439002	0.666629
H298	H	-0.390897	-0.265953	-0.000019
H299	H	-0.057564	0.067381	0.333314
H300	H	0.275769	0.400714	0.666647
H301	H	-0.345363	-0.229981	-0.043939
H302	H	-0.012030	0.103352	0.289395
H303	H	0.321304	0.436685	0.622728
H304	H	-0.345371	-0.229970	0.043873
H305	H	-0.012038	0.103363	0.377206
H306	H	0.321296	0.436697	0.710539
C307	C	-0.744802	-0.179366	-0.175245
C308	C	-0.411468	0.153968	0.158088
C309	C	-0.078135	0.487301	0.491421
H310	H	-0.765311	-0.204456	-0.210185
H311	H	-0.431978	0.128878	0.123148
H312	H	-0.098645	0.462211	0.456481
H313	H	-0.721383	-0.211643	-0.144326
H314	H	-0.388050	0.121690	0.189007
H315	H	-0.054717	0.455024	0.522341
H316	H	-0.771086	-0.150585	-0.144336
H317	H	-0.437752	0.182748	0.188997
H318	H	-0.104419	0.516081	0.522330
H319	H	-0.138185	0.089046	-0.000133
H320	H	0.195148	0.422379	0.333200
H321	H	0.528481	0.755713	0.666534
C322	C	-0.213367	-0.289136	-0.000053
C323	C	0.119966	0.044198	0.333281
C324	C	0.453300	0.377531	0.666614
H325	H	-0.183032	-0.326654	-0.000057
H326	H	0.150301	0.006679	0.333276
H327	H	0.483634	0.340013	0.666610
H328	H	-0.236254	-0.292135	0.043848
H329	H	0.097079	0.041198	0.377181
H330	H	0.430413	0.374531	0.710515
H331	H	-0.236245	-0.292119	-0.043964
H332	H	0.097088	0.041214	0.289370
H333	H	0.430421	0.374548	0.622703
C334	C	-0.600201	-0.002403	-0.341722
C335	C	-0.266868	0.330930	-0.008389
C336	C	0.066466	0.664264	0.324945
H337	H	-0.605130	-0.008444	-0.394591
H338	H	-0.271796	0.324889	-0.061257
H339	H	0.061537	0.658222	0.272076
H340	H	-0.610902	0.045437	-0.328747
H341	H	-0.277568	0.378770	0.004587
H342	H	0.055765	0.712103	0.337920
H343	H	-0.561201	-0.015623	-0.328736
H344	H	-0.227868	0.317710	0.004597
H345	H	0.105465	0.651044	0.337930
C346	C	-0.522705	0.037858	-0.000081
C347	C	-0.189372	0.371191	0.333252
C348	C	0.143961	0.704525	0.666586
H349	H	-0.561340	0.028154	-0.000085
H350	H	-0.228007	0.361487	0.333249
H351	H	0.105326	0.694820	0.666582
H352	H	-0.515829	0.064163	0.043813
H353	H	-0.182495	0.397496	0.377146
H354	H	0.150838	0.730830	0.710480
H355	H	-0.515821	0.064149	-0.043998
H356	H	-0.182488	0.397483	0.289335
H357	H	0.150845	0.730816	0.622668
C358	C	-0.600194	-0.002394	-0.175309
C359	C	-0.266860	0.330939	0.158025
C360	C	0.066473	0.664273	0.491358
H361	H	-0.579686	0.022696	-0.210265
H362	H	-0.246353	0.356029	0.123068
H363	H	0.086980	0.689362	0.456401
H364	H	-0.623608	0.029883	-0.144393
H365	H	-0.290275	0.363217	0.188940
H366	H	0.043058	0.696550	0.522273
H367	H	-0.573908	-0.031176	-0.144398
H368	H	-0.240574	0.302157	0.188935
H369	H	0.092759	0.635490	0.522269
H370	H	-0.099116	-0.269242	-0.000057
H371	H	0.234218	0.064091	0.333276
H372	H	0.567551	0.397425	0.666610
H373	H	-0.734992	-0.167338	-0.669753
H374	H	-0.401659	0.165996	-0.336419
H375	H	-0.068326	0.499329	-0.003086
H376	H	-0.735010	-0.167326	-0.813516
H377	H	-0.401677	0.166007	-0.480183
H378	H	-0.068343	0.499340	-0.146850
H379	H	0.059435	-0.203162	-0.000069
H380	H	0.392768	0.130171	0.333264
H381	H	0.726102	0.463504	0.666598
C382	C	-0.600229	-0.002406	-0.824901
C383	C	-0.266896	0.330928	-0.491568
C384	C	0.066438	0.664261	-0.158235
H385	H	-0.605159	-0.008444	-0.877770
H386	H	-0.271826	0.324889	-0.544437
H387	H	0.061507	0.658223	-0.211103
H388	H	-0.610929	0.045433	-0.811922
H389	H	-0.277595	0.378767	-0.478589
H390	H	0.055738	0.712100	-0.145256
H391	H	-0.561229	-0.015627	-0.811919
H392	H	-0.227895	0.317706	-0.478585
H393	H	0.105438	0.651040	-0.145252
H394	H	0.142009	0.029401	-0.000097
H395	H	0.475342	0.362734	0.333236
H396	H	0.808676	0.696067	0.666570
C397	C	-0.600218	-0.002409	-0.658492
C398	C	-0.266885	0.330924	-0.325159
C399	C	0.066449	0.664258	0.008174
H400	H	-0.579709	0.022678	-0.693450
H401	H	-0.246376	0.356012	-0.360116
H402	H	0.086957	0.689345	-0.026783
H403	H	-0.623632	0.029870	-0.627579
H404	H	-0.290299	0.363204	-0.294246
H405	H	0.043034	0.696537	0.039087
H406	H	-0.573933	-0.031191	-0.627579
H407	H	-0.240600	0.302143	-0.294246
H408	H	0.092734	0.635476	0.039087
C409	C	-0.559928	0.689327	-0.000026
C410	C	-0.226595	1.022660	0.333307
C411	C	0.106738	1.355993	0.666641
H412	H	-0.529404	0.652041	-0.000017
H413	H	-0.196070	0.985374	0.333316
H414	H	0.137263	1.318707	0.666649
H415	H	-0.557422	0.717384	-0.043924
H416	H	-0.224088	1.050717	0.289409
H417	H	0.109245	1.384050	0.622742
H418	H	-0.557436	0.717360	0.043887
H419	H	-0.224103	1.050694	0.377220
H420	H	0.109231	1.384027	0.710554
C421	C	0.023787	0.045883	-0.000102
C422	C	0.357121	0.379216	0.333231
C423	C	0.690454	0.712550	0.666564
H424	H	0.045856	0.084172	-0.000099
H425	H	0.379189	0.417506	0.333234
H426	H	0.712522	0.750839	0.666567
H427	H	0.000325	0.048200	-0.044003
H428	H	0.333659	0.381533	0.289331
H429	H	0.666992	0.714866	0.622664
H430	H	0.000328	0.048187	0.043809
H431	H	0.333661	0.381520	0.377142
H432	H	0.666995	0.714853	0.710475
H433	H	-0.404466	0.021383	-0.000072
H434	H	-0.071133	0.354716	0.333261
H435	H	0.262200	0.688049	0.666594
C436	C	-0.256410	0.105518	-0.000136
C437	C	0.076923	0.438852	0.333198
C438	C	0.410256	0.772185	0.666531
H439	H	-0.295048	0.095825	-0.000137
H440	H	0.038285	0.429158	0.333197
H441	H	0.371618	0.762492	0.666530
H442	H	-0.249526	0.131817	0.043760
H443	H	0.083807	0.465151	0.377093
H444	H	0.417141	0.798484	0.710427
H445	H	-0.249524	0.131811	-0.044052
H446	H	0.083809	0.465145	0.289282
H447	H	0.417142	0.798478	0.622615
C448	C	-0.785099	0.128891	-0.000128
C449	C	-0.451766	0.462224	0.333205
C450	C	-0.118433	0.795557	0.666538
H451	H	-0.778252	0.079064	-0.000136
H452	H	-0.444919	0.412397	0.333197
H453	H	-0.111585	0.745730	0.666530
H454	H	-0.806291	0.144384	0.043769
H455	H	-0.472958	0.477718	0.377102
H456	H	-0.139624	0.811051	0.710436
H457	H	-0.806271	0.144402	-0.044043
H458	H	-0.472938	0.477735	0.289291
H459	H	-0.139604	0.811069	0.622624
C460	C	-0.565269	0.245333	-0.000062
C461	C	-0.231936	0.578666	0.333271
C462	C	0.101397	0.911999	0.666604
H463	H	-0.534744	0.208047	-0.000050
H464	H	-0.201411	0.541380	0.333283
H465	H	0.131922	0.874714	0.666617
H466	H	-0.562761	0.273387	-0.043962
H467	H	-0.229428	0.606721	0.289371
H468	H	0.103905	0.940054	0.622704
H469	H	-0.562779	0.273369	0.043849
H470	H	-0.229446	0.606702	0.377183
H471	H	0.103887	0.940035	0.710516
C472	C	-0.567107	0.092418	-0.000074
C473	C	-0.233774	0.425751	0.333260
C474	C	0.099559	0.759085	0.666593
H475	H	-0.535809	0.119359	-0.000071
H476	H	-0.202476	0.452693	0.333263
H477	H	0.130857	0.786026	0.666596
H478	H	-0.565296	0.063637	0.043825
H479	H	-0.231963	0.396971	0.377158
H480	H	0.101370	0.730304	0.710491
H481	H	-0.565287	0.063664	-0.043987
H482	H	-0.231954	0.396997	0.289346
H483	H	0.101379	0.730330	0.622680
