data_functionalizedCrystal
_audit_creation_method	'MofGen! by Chris Wilmer'
_symmetry_space_group_name_H-M	'P1'
_symmetry_Int_Tables_number	1
_symmetry_cell_setting	triclinic
loop_
_symmetry_equiv_pos_as_xyz
  x,y,z
_cell_length_a	14.044220
_cell_length_b	10.723024
_cell_length_c	9.198806
_cell_angle_alpha	90.003648
_cell_angle_beta	89.995861
_cell_angle_gamma	91.171627
loop_
_atom_site_label
_atom_site_type_symbol
_atom_site_fract_x
_atom_site_fract_y
_atom_site_fract_z
O1	O	0.133040	-1.670498	-0.120888
O2	O	0.145774	-1.308620	-0.120893
O3	O	0.001387	-1.484127	-0.120876
O4	O	0.277427	-1.494991	-0.120905
O5	O	0.001387	-1.484112	0.120909
O6	O	0.145774	-1.308604	0.120892
O7	O	0.133039	-1.670483	0.120898
Cu8	Cu	0.139407	-1.489542	0.142972
Cu9	Cu	0.139407	-1.489560	-0.142967
O10	O	0.277427	-1.494975	0.120881
C11	C	0.144847	-1.262020	-0.000001
C12	C	0.142075	-1.123188	-0.000003
C13	C	-0.033958	-1.479364	0.000017
C14	C	-0.139276	-1.465180	0.000019
C15	C	0.133966	-1.717083	0.000002
C16	C	0.136739	-1.855914	-0.000006
C17	C	-0.332106	-1.439248	-0.000003
C18	C	-0.389085	-1.539849	-0.000006
C19	C	-0.496383	-1.525420	-0.000017
C20	C	-0.224799	-1.453675	0.000009
C21	C	0.312772	-1.499738	-0.000016
C22	C	0.418090	-1.513923	-0.000027
N23	N	0.139406	-1.489539	0.344086
C24	C	0.222866	-1.056288	-0.000012
C25	C	0.220002	-0.912798	-0.000013
N26	N	0.139401	-1.489573	-0.344081
C27	C	0.078514	-1.563202	0.416290
C28	C	0.078511	-1.563221	0.583702
H29	H	-0.363906	-1.342291	-0.000008
O30	O	-0.351265	-1.655595	0.000209
C31	C	-0.381791	-1.720805	0.125457
H32	H	-0.450692	-1.679277	0.167187
H33	H	-0.394716	-1.823295	0.097311
H34	H	-0.324650	-1.712575	0.213150
H35	H	0.294155	-1.105243	-0.000011
O36	O	0.302430	-0.844009	0.000038
C37	C	0.281221	-0.716057	-0.000003
H38	H	0.206669	-0.702885	0.045781
H39	H	0.335308	-0.663022	0.070184
H40	H	0.284536	-0.678796	-0.116002
O41	O	0.054282	-0.924642	-0.000191
C42	C	0.050685	-1.000398	-0.125433
H43	H	0.126035	-1.015244	-0.167190
H44	H	0.016075	-1.094410	-0.097268
H45	H	0.007038	-0.952801	-0.213113
O46	O	0.056942	-1.064997	0.000067
C47	C	-0.017622	-1.155059	0.000035
H48	H	0.009447	-1.246547	0.045809
H49	H	-0.078711	-1.120944	0.070235
H50	H	-0.043898	-1.170514	-0.115960
H51	H	0.026381	-1.626251	0.354170
O52	O	0.016183	-1.638393	0.657609
C53	C	-0.077810	-1.607300	0.620565
H54	H	-0.077991	-1.559249	0.510025
H55	H	-0.124066	-1.695803	0.615499
H56	H	-0.107379	-1.541709	0.706214
O57	O	0.201641	-1.414505	0.581705
C58	C	0.260431	-1.488168	0.493671
H59	H	0.223119	-1.581563	0.470999
H60	H	0.275120	-1.437838	0.386588
H61	H	0.330592	-1.504670	0.552238
O62	O	0.201468	-1.414246	0.418345
C63	C	0.150252	-1.331421	0.506381
H64	H	0.076272	-1.372650	0.529028
H65	H	0.189668	-1.316306	0.613477
H66	H	0.143404	-1.238334	0.447831
