data_functionalizedCrystal
_audit_creation_method	'MofGen! by Chris Wilmer'
_symmetry_space_group_name_H-M	'P1'
_symmetry_Int_Tables_number	1
_symmetry_cell_setting	triclinic
loop_
_symmetry_equiv_pos_as_xyz
  x,y,z
_cell_length_a	14.519709
_cell_length_b	10.868271
_cell_length_c	11.792241
_cell_angle_alpha	89.994719
_cell_angle_beta	83.936780
_cell_angle_gamma	90.001824
loop_
_atom_site_label
_atom_site_type_symbol
_atom_site_fract_x
_atom_site_fract_y
_atom_site_fract_z
O1	O	-1.224412	0.102147	-0.148781
O2	O	-0.891078	0.435481	0.184552
O3	O	-0.557745	0.768814	0.517886
O4	O	-0.955999	0.102188	-0.166302
O5	O	-0.622666	0.435522	0.167032
O6	O	-0.289332	0.768855	0.500365
O7	O	-1.096719	0.102158	0.007665
O8	O	-0.763386	0.435492	0.340999
O9	O	-0.430052	0.768825	0.674332
O10	O	-1.083692	0.102178	-0.322748
O11	O	-0.750358	0.435511	0.010585
O12	O	-0.417025	0.768844	0.343919
O13	O	-1.096707	-0.102486	0.007672
O14	O	-0.763374	0.230847	0.341005
O15	O	-0.430041	0.564180	0.674339
O16	O	-0.955987	-0.102456	-0.166295
O17	O	-0.622654	0.230877	0.167038
O18	O	-0.289321	0.564210	0.500372
O19	O	-1.224400	-0.102497	-0.148774
O20	O	-0.891067	0.230836	0.184559
O21	O	-0.557733	0.564169	0.517893
Zn22	Zn	-1.090192	-0.134968	-0.157533
Zn23	Zn	-0.756859	0.198365	0.175800
Zn24	Zn	-0.423525	0.531698	0.509133
Zn25	Zn	-1.090207	0.134660	-0.157542
Zn26	Zn	-0.756874	0.467993	0.175791
Zn27	Zn	-0.423541	0.801326	0.509124
O28	O	-1.083680	-0.102467	-0.322741
O29	O	-0.750347	0.230866	0.010592
O30	O	-0.417013	0.564200	0.343925
C31	C	-0.921630	-0.000129	-0.165482
C32	C	-0.588297	0.333205	0.167852
C33	C	-0.254964	0.666538	0.501185
C34	C	-0.819240	-0.000113	-0.163035
C35	C	-0.485907	0.333220	0.170298
C36	C	-0.152573	0.666553	0.503632
N37	N	-1.090188	-0.318983	-0.157527
N38	N	-0.756855	0.014351	0.175807
N39	N	-0.423521	0.347684	0.509140
C40	C	-1.095895	-0.000163	0.049955
C41	C	-0.762562	0.333170	0.383288
C42	C	-0.429228	0.666503	0.716622
C43	C	-1.093446	-0.000162	0.175955
C44	C	-0.760112	0.333171	0.509289
C45	C	-0.426779	0.666505	0.842622
C46	C	-0.444311	-0.000165	-0.154027
C47	C	-0.110978	0.333168	0.179306
C48	C	0.222355	0.666501	0.512640
C49	C	-0.548628	-0.000150	-0.156528
C50	C	-0.215295	0.333183	0.176805
C51	C	0.118038	0.666516	0.510138
C52	C	-0.631772	-0.000138	-0.158531
C53	C	-0.298439	0.333195	0.174803
C54	C	0.034894	0.666529	0.508136
C55	C	-0.736096	-0.000126	-0.161033
C56	C	-0.402763	0.333208	0.172301
C57	C	-0.069429	0.666541	0.505634
C58	C	-0.258769	-0.000174	-0.149594
C59	C	0.074565	0.333159	0.183739
C60	C	0.407898	0.666492	0.517073
C61	C	-0.361159	-0.000172	-0.152041
C62	C	-0.027826	0.333161	0.181292
C63	C	0.305508	0.666494	0.514626
C64	C	-1.090202	-0.569989	-0.157540
C65	C	-0.756869	-0.236655	0.175793
C66	C	-0.423536	0.096678	0.509127
C67	C	-1.090191	-0.430311	-0.157536
C68	C	-0.756858	-0.096978	0.175797
C69	C	-0.423525	0.236356	0.509131
N70	N	-1.090218	0.318674	-0.157540
N71	N	-0.756885	0.652007	0.175793
N72	N	-0.423552	0.985340	0.509126
C73	C	-1.084504	-0.000143	-0.365031
C74	C	-0.751171	0.333191	-0.031698
C75	C	-0.417838	0.666524	0.301636
C76	C	-1.086954	-0.000136	-0.491031
C77	C	-0.753620	0.333197	-0.157698
C78	C	-0.420287	0.666531	0.175636
C79	C	-1.088942	-0.000141	0.406642
C80	C	-0.755608	0.333193	0.739976
C81	C	-0.422275	0.666526	1.073309
C82	C	-1.091444	-0.000152	0.278271
C83	C	-0.758111	0.333181	0.611604
C84	C	-0.424777	0.666514	0.944938
