data_functionalizedCrystal
_audit_creation_method	'MofGen! by Chris Wilmer'
_symmetry_space_group_name_H-M	'P1'
_symmetry_Int_Tables_number	1
_symmetry_cell_setting	triclinic
loop_
_symmetry_equiv_pos_as_xyz
  x,y,z
_cell_length_a	34.408637
_cell_length_b	34.407814
_cell_length_c	34.404193
_cell_angle_alpha	60.004510
_cell_angle_beta	60.009006
_cell_angle_gamma	59.994604
loop_
_atom_site_label
_atom_site_type_symbol
_atom_site_fract_x
_atom_site_fract_y
_atom_site_fract_z
O1	O	0.053973	-0.567860	0.474801
O2	O	0.553973	-0.067860	0.974801
O3	O	0.020377	-0.442124	0.382567
O4	O	0.520377	0.057876	0.882567
O5	O	0.100004	-0.521670	0.382483
O6	O	0.600004	-0.021670	0.882483
O7	O	-0.025653	-0.488314	0.474886
O8	O	0.474347	0.011686	0.974886
O9	O	0.126426	-0.495253	0.408816
O10	O	0.626426	0.004747	0.908816
O11	O	0.046800	-0.415707	0.408900
O12	O	0.546800	0.084293	0.908900
O13	O	0.080396	-0.541443	0.501134
O14	O	0.580396	-0.041443	1.001134
Zn15	Zn	0.067793	-0.474381	0.459198
Zn16	Zn	0.567793	0.025619	0.959198
Zn17	Zn	0.032980	-0.509186	0.424503
Zn18	Zn	0.532980	-0.009186	0.924503
O19	O	0.000769	-0.461897	0.501219
O20	O	0.500769	0.038103	1.001219
N21	N	0.091552	-0.450631	0.482879
N22	N	0.591552	0.049369	0.982879
N23	N	0.009225	-0.532940	0.400823
N24	N	0.509225	-0.032940	0.900823
C25	C	0.142848	-0.268847	0.534081
C26	C	0.642848	0.231153	1.034081
C27	C	0.142979	-0.399386	0.664559
C28	C	0.642979	0.100614	1.164559
C29	C	0.142862	-0.399365	0.534081
C30	C	0.642862	0.100635	1.034081
C31	C	0.273409	-0.399338	0.533986
C32	C	0.773409	0.100662	1.033986
C33	C	0.157225	-0.311914	0.548422
C34	C	0.657225	0.188086	1.048422
C35	C	0.157300	-0.385019	0.621491
C36	C	0.657300	0.114981	1.121491
C37	C	0.230339	-0.384991	0.548370
C38	C	0.730339	0.115009	1.048370
C39	C	0.157235	-0.385007	0.548422
C40	C	0.657235	0.114993	1.048422
C41	C	0.124548	-0.214028	0.515827
C42	C	0.624548	0.285972	1.015827
C43	C	0.124571	-0.417639	0.515827
C44	C	0.624571	0.082361	1.015827
C45	C	0.175526	-0.366733	0.566676
C46	C	0.675526	0.133267	1.066676
C47	C	0.353121	-0.385580	0.491988
C48	C	0.853121	0.114420	0.991988
C49	C	0.402952	-0.402180	0.475348
C50	C	0.902952	0.097820	0.975348
C51	C	0.402981	-0.482812	0.506096
C52	C	0.902981	0.017188	1.006096
C53	C	0.353151	-0.466211	0.522737
C54	C	0.853151	0.033789	1.022737
C55	C	0.136544	-0.189099	0.466839
C56	C	0.636544	0.310901	0.966839
C57	C	0.119905	-0.139265	0.450247
C58	C	0.619905	0.360735	0.950247
C59	C	0.079280	-0.139291	0.531632
C60	C	0.579280	0.360709	1.031632
C61	C	0.095918	-0.189125	0.548224
C62	C	0.595918	0.310875	1.048224
C63	C	0.075577	-0.405615	0.527900
C64	C	0.575577	0.094385	1.027900
C65	C	0.058953	-0.422228	0.511301
C66	C	0.558953	0.077772	1.011301
C67	C	0.140315	-0.462889	0.470566
C68	C	0.640315	0.037111	0.970566
C69	C	0.156941	-0.446276	0.487159
C70	C	0.656941	0.053724	0.987159
C71	C	0.075772	-0.405653	0.744326
C72	C	0.575772	0.094347	1.244326
C73	C	0.059206	-0.422280	0.794159
C74	C	0.559206	0.077720	1.294159
C75	C	0.140607	-0.462951	0.794094
C76	C	0.640607	0.037049	1.294094
C77	C	0.157172	-0.446325	0.744260
C78	C	0.657172	0.053675	1.244260
C79	C	0.124753	-0.417674	0.719377
C80	C	0.624753	0.082326	1.219377
C81	C	0.328223	-0.417595	0.515681
C82	C	0.828223	0.082405	1.015681
C83	C	-0.172390	-0.583988	0.349141
C84	C	0.327610	-0.083988	0.849141
C85	C	-0.041751	-0.584138	0.218783
C86	C	0.458249	-0.084138	0.718783
C87	C	-0.041941	-0.584130	0.349402
C88	C	0.458059	-0.084130	0.849402
C89	C	-0.041957	-0.714607	0.349338
C90	C	0.458043	-0.214607	0.849338
C91	C	-0.129326	-0.598388	0.334853
C92	C	0.370674	-0.098388	0.834853
C93	C	-0.056165	-0.598473	0.261852
C94	C	0.443835	-0.098473	0.761852
C95	C	-0.056282	-0.671535	0.334962
C96	C	0.443718	-0.171535	0.834962
C97	C	-0.056272	-0.598469	0.334999
C98	C	0.443728	-0.098469	0.834999
C99	C	-0.227205	-0.565659	0.367327
C100	C	0.272795	-0.065659	0.867327
C101	C	-0.023703	-0.565882	0.367734
C102	C	0.476297	-0.065882	0.867734
C103	C	-0.074511	-0.616717	0.316667
C104	C	0.425489	-0.116717	0.816667
C105	C	-0.055754	-0.794298	0.391257
C106	C	0.444246	-0.294298	0.891257
C107	C	-0.039181	-0.844132	0.407888
C108	C	0.460819	-0.344132	0.907888
C109	C	0.041447	-0.844215	0.377269
C110	C	0.541447	-0.344215	0.877269
C111	C	0.024873	-0.794381	0.360637
C112	C	0.524873	-0.294381	0.860637
C113	C	-0.252183	-0.577666	0.416302
C114	C	0.247817	-0.077666	0.916302
C115	C	-0.302014	-0.561001	0.432833
C116	C	0.197986	-0.061001	0.932833
C117	C	-0.301886	-0.520329	0.351410
C118	C	0.198114	-0.020329	0.851410
C119	C	-0.252055	-0.536994	0.334880
C120	C	0.247945	-0.036994	0.834880
C121	C	-0.035709	-0.516892	0.355682
C122	C	0.464291	-0.016892	0.855682
C123	C	-0.019129	-0.500308	0.372353
C124	C	0.480871	-0.000308	0.872353
C125	C	0.021465	-0.581700	0.413115
C126	C	0.521465	-0.081700	0.913115
C127	C	0.004884	-0.598286	0.396450
C128	C	0.504884	-0.098286	0.896450
C129	C	-0.035389	-0.516907	0.139026
C130	C	0.464611	-0.016907	0.639026
C131	C	-0.018707	-0.500324	0.089193
C132	C	0.481293	-0.000324	0.589193
C133	C	0.021949	-0.581721	0.089240
C134	C	0.521949	-0.081721	0.589240
C135	C	0.005268	-0.598303	0.139074
C136	C	0.505268	-0.098303	0.639074
C137	C	-0.023402	-0.565894	0.163965
C138	C	0.476598	-0.065894	0.663965
C139	C	-0.023728	-0.769425	0.367633
C140	C	0.476272	-0.269425	0.867633
N141	N	0.427173	-0.450553	0.482630
N142	N	0.927173	0.049447	0.982630
O143	O	0.589997	-0.458460	0.365361
O144	O	1.089997	0.041540	0.865361
O145	O	0.590185	-0.550997	0.490963
O146	O	1.090185	-0.050997	0.990963
O147	O	0.590104	-0.550786	0.411309
O148	O	1.090104	-0.050786	0.911309
O149	O	0.590077	-0.458671	0.445016
O150	O	1.090077	0.041329	0.945016
O151	O	0.510940	-0.524462	0.437777
O152	O	1.010940	-0.024462	0.937777
O153	O	0.511020	-0.524674	0.517432
O154	O	1.011020	-0.024674	1.017432
O155	O	0.510832	-0.432136	0.391830
O156	O	1.010832	0.067864	0.891830
Zn157	Zn	0.498357	-0.474225	0.458833
Zn158	Zn	0.998357	0.025775	0.958833
Zn159	Zn	0.602660	-0.508908	0.423960
Zn160	Zn	1.102660	-0.008908	0.923960
O161	O	0.510913	-0.432348	0.471484
O162	O	1.010913	0.067652	0.971484
N163	N	0.673844	-0.532580	0.400158
N164	N	1.173844	-0.032580	0.900158
N165	N	0.091520	-0.115070	0.482873
N166	N	0.591520	0.384930	0.982873
O167	O	-0.025663	0.047841	0.474857
O168	O	0.474337	0.547841	0.974857
O169	O	0.099940	0.047877	0.382299
O170	O	0.599940	0.547877	0.882299
O171	O	0.020247	0.047844	0.382560
O172	O	0.520247	0.547844	0.882560
O173	O	0.054030	0.047874	0.474596
O174	O	0.554030	0.547874	0.974596
O175	O	0.046674	-0.031326	0.408942
O176	O	0.546674	0.468674	0.908942
O177	O	0.126367	-0.031293	0.408680
O178	O	0.626367	0.468707	0.908680
O179	O	0.000764	-0.031329	0.501238
O180	O	0.500764	0.468671	1.001238
Zn181	Zn	0.067761	-0.043881	0.459148
Zn182	Zn	0.567761	0.456119	0.959148
Zn183	Zn	0.032943	0.060429	0.424389
Zn184	Zn	0.532943	0.560429	0.924389
O185	O	0.080457	-0.031296	0.500977
O186	O	0.580457	0.468704	1.000977
N187	N	0.009178	0.131618	0.400665
N188	N	0.509178	0.631618	0.900665
N189	N	0.091852	-0.450680	0.818332
N190	N	0.591852	0.049320	1.318332
O191	O	0.083862	-0.567845	0.981235
O192	O	0.583862	-0.067845	1.481235
O193	O	-0.008657	-0.442198	0.981276
O194	O	0.491343	0.057802	1.481276
O195	O	-0.008441	-0.521875	0.981252
O196	O	0.491559	-0.021875	1.481252
O197	O	0.083646	-0.488168	0.981258
O198	O	0.583646	0.011832	1.481258
O199	O	0.017919	-0.495468	0.902085
O200	O	0.517919	0.004532	1.402085
O201	O	0.017703	-0.415791	0.902109
O202	O	0.517703	0.084209	1.402109
O203	O	0.110222	-0.541438	0.902067
O204	O	0.610222	-0.041438	1.402067
Zn205	Zn	0.068148	-0.474422	0.889518
Zn206	Zn	0.568148	0.025578	1.389518
Zn207	Zn	0.033417	-0.509214	0.993825
Zn208	Zn	0.533417	-0.009214	1.493825
O209	O	0.110006	-0.461761	0.902091
O210	O	0.610006	0.038239	1.402091
N211	N	0.009712	-0.532961	1.065011
N212	N	0.509712	-0.032961	1.565011
C213	C	0.030439	-0.413071	0.383027
C214	C	0.530439	0.086929	0.883027
C215	C	0.129046	-0.511580	0.382922
C216	C	0.629046	-0.011580	0.882922
C217	C	0.070334	-0.570496	0.500675
C218	C	0.570334	-0.070496	1.000675
C219	C	-0.028274	-0.471987	0.500780
C220	C	0.471726	0.028013	1.000780
C221	C	0.550625	-0.550579	0.520021
C222	C	1.050625	-0.050579	1.020021
C223	C	0.550527	-0.550317	0.421379
C224	C	1.050527	-0.050317	0.921379
C225	C	0.550389	-0.432554	0.362773
C226	C	1.050389	0.067446	0.862773
C227	C	0.550491	-0.432816	0.461414
C228	C	1.050491	0.067184	0.961414
C229	C	0.128944	0.008394	0.382712
C230	C	0.628944	0.508394	0.882712
C231	C	0.030287	0.008256	0.383068
C232	C	0.530287	0.508256	0.883068
C233	C	-0.028273	0.008252	0.500793
C234	C	0.471727	0.508252	1.000793
C235	C	0.070417	0.008292	0.500470
C236	C	0.570417	0.508292	1.000470
C237	C	-0.008218	-0.413165	0.941698
C238	C	0.491782	0.086835	1.441698
C239	C	-0.007945	-0.511830	0.941653
C240	C	0.492055	-0.011830	1.441653
C241	C	0.109783	-0.570471	0.941646
C242	C	0.609783	-0.070471	1.441646
C243	C	0.109516	-0.471800	0.941673
C244	C	0.609516	0.028200	1.441673
H245	H	0.049370	-0.382321	0.724071
H246	H	0.549370	0.117679	1.224071
H247	H	0.081021	-0.864532	0.371574
H248	H	0.581021	-0.364532	0.871574
H249	H	-0.037264	-0.377079	0.941710
H250	H	0.462736	0.122921	1.441710
H251	H	0.550329	-0.403500	0.326702
H252	H	1.050329	0.096500	0.826702
C253	C	0.020911	-0.364959	0.344328
C254	C	0.520911	0.135041	0.844328
C255	C	0.026185	-0.371177	0.304517
C256	C	0.526185	0.128823	0.804517
C257	C	0.017417	-0.326867	0.268856
C258	C	0.517417	0.173133	0.768856
H259	H	-0.010596	-0.344989	0.355853
H260	H	0.489404	0.155011	0.855853
H261	H	0.042901	-0.350657	0.335611
H262	H	0.542901	0.149343	0.835611
H263	H	0.004195	-0.385472	0.313233
H264	H	0.504195	0.114528	0.813233
H265	H	0.057689	-0.391139	0.292978
H266	H	0.557689	0.108861	0.792978
H267	H	0.039408	-0.312566	0.260140
H268	H	0.539408	0.187434	0.760140
H269	H	-0.014089	-0.306901	0.280386
H270	H	0.485911	0.193099	0.780386
H271	H	0.020999	-0.331081	0.241839
H272	H	0.520999	0.168919	0.741839
H273	H	-0.036863	-0.519031	0.941619
H274	H	0.463137	-0.019031	1.441619
H275	H	0.550540	-0.579254	0.414165
H276	H	1.050540	-0.079254	0.914165
C277	C	0.176963	0.008727	0.343920
C278	C	0.676963	0.508727	0.843920
C279	C	0.206329	0.008844	0.360920
C280	C	0.706329	0.508844	0.860920
C281	C	0.250565	0.009158	0.325196
C282	C	0.750565	0.509158	0.825196
H283	H	0.191377	-0.018812	0.335117
H284	H	0.691377	0.481188	0.835117
H285	H	0.172635	0.036408	0.316958
H286	H	0.672635	0.536408	0.816958
H287	H	0.210658	-0.018833	0.387873
H288	H	0.710658	0.481167	0.887873
H289	H	0.191930	0.036381	0.369719
H290	H	0.691930	0.536381	0.869719
H291	H	0.246237	0.036838	0.298235
H292	H	0.746237	0.536838	0.798235
H293	H	0.264974	-0.018381	0.316396
H294	H	0.764974	0.481619	0.816396
H295	H	0.270494	0.009242	0.336724
H296	H	0.770494	0.509242	0.836724
H297	H	0.550674	-0.579628	0.556096
H298	H	1.050674	-0.079628	1.056096
H299	H	0.165136	-0.518689	0.353905
H300	H	0.665136	-0.018689	0.853905
H301	H	-0.064344	0.008241	0.529850
H302	H	0.435656	0.508241	1.029850
C303	C	0.550504	-0.394177	0.470926
C304	C	1.050504	0.105823	0.970926
C305	C	0.550450	-0.353399	0.430322
C306	C	1.050450	0.146601	0.930322
C307	C	0.550470	-0.317798	0.439063
C308	C	1.050470	0.182202	0.939063
H309	H	0.522925	-0.386732	0.496890
H310	H	1.022925	0.113268	0.996890
H311	H	0.578142	-0.405134	0.478428
H312	H	1.078142	0.094866	0.978428
H313	H	0.522815	-0.342444	0.422826
H314	H	1.022815	0.157556	0.922826
H315	H	0.578027	-0.360829	0.404353
H316	H	1.078027	0.139171	0.904353
H317	H	0.578108	-0.328754	0.446565
H318	H	1.078108	0.171246	0.946565
H319	H	0.522891	-0.310357	0.465028
H320	H	1.022891	0.189643	0.965028
H321	H	0.550438	-0.290127	0.411514
H322	H	1.050438	0.209873	0.911514
H323	H	0.077514	-0.606615	0.529644
H324	H	0.577514	-0.106615	1.029644
C325	C	0.148149	-0.462286	0.941690
C326	C	0.648149	0.037714	1.441690
C327	C	0.188920	-0.502904	0.941685
C328	C	0.688920	-0.002904	1.441685
C329	C	0.224515	-0.494159	0.941707
C330	C	0.724515	0.005841	1.441707
H331	H	0.155602	-0.436339	0.914094
H332	H	0.655602	0.063661	1.414094
H333	H	0.137186	-0.454755	0.969312
H334	H	0.637186	0.045245	1.469312
H335	H	0.199881	-0.510428	0.914066
H336	H	0.699881	-0.010428	1.414066
H337	H	0.181482	-0.528856	0.969279
H338	H	0.681482	-0.028856	1.469279
H339	H	0.213553	-0.486628	0.969329
H340	H	0.713553	0.013372	1.469329
H341	H	0.231964	-0.468211	0.914110
H342	H	0.731964	0.031789	1.414110
H343	H	0.252181	-0.521718	0.941708
H344	H	0.752181	-0.021718	1.441708
H345	H	-0.064365	-0.464880	0.529794
H346	H	0.435635	0.035120	1.029794
H347	H	0.019058	-0.412426	0.521121
H348	H	0.519058	0.087574	1.021121
H349	H	0.086148	-0.209418	0.588113
H350	H	0.586148	0.290582	1.088113
C351	C	0.020566	0.008205	0.344585
C352	C	0.520566	0.508205	0.844585
C353	C	-0.025898	0.008170	0.361874
C354	C	0.474102	0.508170	0.861874
C355	C	-0.034865	0.008109	0.326442
C356	C	0.465135	0.508109	0.826442
H357	H	0.024056	0.035802	0.317485
H358	H	0.524056	0.535802	0.817485
H359	H	0.042509	-0.019418	0.335928
H360	H	0.542509	0.480582	0.835928
H361	H	-0.047835	0.035790	0.370524
H362	H	0.452165	0.535790	0.870524
H363	H	-0.029399	-0.019426	0.388969
H364	H	0.470601	0.480574	0.888969
H365	H	-0.012923	-0.019514	0.317785
H366	H	0.487077	0.480486	0.817785
H367	H	-0.031373	0.035707	0.299344
H368	H	0.468627	0.535707	0.799344
H369	H	-0.066390	0.008081	0.338169
H370	H	0.433610	0.508081	0.838169
H371	H	0.077653	0.008301	0.529384
H372	H	0.577653	0.508301	1.029384
H373	H	0.138832	-0.606554	0.941627
H374	H	0.638832	-0.106554	1.441627
H375	H	0.167007	-0.486271	0.814352
H376	H	0.667007	0.013729	1.314352
C377	C	0.006005	-0.409147	0.821156
C378	C	0.506005	0.090853	1.321156
C379	C	-0.018835	-0.380486	0.788695
C380	C	0.481165	0.119514	1.288695
C381	C	-0.067844	-0.368376	0.813547
C382	C	0.432156	0.131624	1.313547
H383	H	-0.002216	-0.437290	0.840598
H384	H	0.497784	0.062710	1.340598
H385	H	-0.002170	-0.392221	0.840587
H386	H	0.497830	0.107779	1.340587
H387	H	-0.010663	-0.397412	0.769272
H388	H	0.489337	0.102588	1.269272
H389	H	-0.010628	-0.352337	0.769252
H390	H	0.489372	0.147663	1.269252
H391	H	-0.076019	-0.351450	0.832977
H392	H	0.423981	0.148550	1.332977
H393	H	-0.076060	-0.396521	0.832988
H394	H	0.423940	0.103479	1.332988
H395	H	-0.084704	-0.348924	0.791526
H396	H	0.415296	0.151076	1.291526
H397	H	0.197059	-0.456117	0.723950
H398	H	0.697059	0.043883	1.223950
H399	H	0.049217	-0.382297	0.551240
H400	H	0.549217	0.117703	1.051240
H401	H	0.166679	-0.486211	0.447227
H402	H	0.666679	0.013789	0.947227
H403	H	0.196836	-0.456064	0.477324
H404	H	0.696836	0.043936	0.977324
H405	H	0.332881	-0.492283	0.542031
H406	H	0.832881	0.007717	1.042031
C407	C	0.017991	-0.651495	0.409563
C408	C	0.517991	-0.151495	0.909563
C409	C	0.046585	-0.676322	0.438269
C410	C	0.546585	-0.176322	0.938269
C411	C	0.058674	-0.725338	0.450353
C412	C	0.558674	-0.225338	0.950353
H413	H	-0.010160	-0.659696	0.426448
H414	H	0.489840	-0.159696	0.926448
H415	H	0.034956	-0.659703	0.381401
H416	H	0.534956	-0.159703	0.881401
H417	H	0.029620	-0.668117	0.466427
H418	H	0.529620	-0.168117	0.966427
H419	H	0.074742	-0.668136	0.421394
H420	H	0.574742	-0.168136	0.921394
H421	H	0.075639	-0.733546	0.422190
H422	H	0.575639	-0.233546	0.922190
H423	H	0.030520	-0.733534	0.467235
H424	H	0.530520	-0.233534	0.967235
H425	H	0.078080	-0.742189	0.469827
H426	H	0.578080	-0.242189	0.969827
C427	C	0.429961	-0.535615	0.513820
C428	C	0.929961	-0.035615	1.013820
C429	C	0.397490	-0.560102	0.538142
C430	C	0.897490	-0.060102	1.038142
C431	C	0.422329	-0.608746	0.545270
C432	C	0.922329	-0.108746	1.045270
H433	H	0.449381	-0.540295	0.483905
H434	H	0.949381	-0.040295	0.983905
H435	H	0.449411	-0.547323	0.532082
H436	H	0.949411	-0.047323	1.032082
H437	H	0.378048	-0.548398	0.519880
H438	H	0.878048	-0.048398	1.019880
H439	H	0.378069	-0.555436	0.568062
H440	H	0.878069	-0.055436	1.068062
H441	H	0.441779	-0.620455	0.563533
H442	H	0.941779	-0.120455	1.063533
H443	H	0.441748	-0.613422	0.515353
H444	H	0.941748	-0.113422	1.015353
H445	H	0.400301	-0.625368	0.561777
H446	H	0.900301	-0.125368	1.061777
H447	H	0.423225	-0.376108	0.456057
H448	H	0.923225	0.123892	0.956057
C449	C	0.326140	-0.332781	0.484303
C450	C	0.826140	0.167219	0.984303
C451	C	0.358615	-0.308300	0.460004
C452	C	0.858615	0.191700	0.960004
C453	C	0.333780	-0.259663	0.452920
C454	C	0.833780	0.240337	0.952920
H455	H	0.306679	-0.321031	0.466045
H456	H	0.806679	0.178969	0.966045
H457	H	0.306731	-0.328143	0.514245
H458	H	0.806731	0.171857	1.014245
H459	H	0.378016	-0.312935	0.430067
H460	H	0.878016	0.187065	0.930067
H461	H	0.378076	-0.320035	0.478255
H462	H	0.878076	0.179965	0.978255
H463	H	0.314370	-0.255024	0.482861
H464	H	0.814370	0.244976	0.982861
H465	H	0.314320	-0.247918	0.434662
H466	H	0.814320	0.252082	0.934662
H467	H	0.355810	-0.243047	0.436436
H468	H	0.855810	0.256953	0.936436
C469	C	-0.225023	-0.523925	0.281687
C470	C	0.274977	-0.023925	0.781687
C471	C	-0.257453	-0.495262	0.256812
C472	C	0.242547	0.004738	0.756812
C473	C	-0.232568	-0.483218	0.207808
C474	C	0.267432	0.016782	0.707808
H475	H	-0.205576	-0.507021	0.273494
H476	H	0.294424	-0.007021	0.773494
H477	H	-0.205596	-0.552106	0.273511
H478	H	0.294404	-0.052106	0.773511
H479	H	-0.276873	-0.467086	0.264984
H480	H	0.223127	0.032914	0.764984
H481	H	-0.276902	-0.512157	0.264990
H482	H	0.223098	-0.012157	0.764990
H483	H	-0.213141	-0.511398	0.199633
H484	H	0.286859	-0.011398	0.699633
H485	H	-0.213122	-0.466315	0.199620
H486	H	0.286878	0.033685	0.699620
H487	H	-0.254568	-0.463772	0.190925
H488	H	0.245432	0.036228	0.690925
C489	C	0.167601	-0.216049	0.431589
C490	C	0.667601	0.283951	0.931589
C491	C	0.174530	-0.183550	0.385135
C492	C	0.674530	0.316450	0.885135
C493	C	0.203132	-0.208361	0.352650
C494	C	0.703132	0.291639	0.852650
H495	H	0.197509	-0.235484	0.436288
H496	H	0.697509	0.264516	0.936288
H497	H	0.152388	-0.235486	0.436361
H498	H	0.652388	0.264514	0.936361
H499	H	0.189743	-0.164122	0.380364
H500	H	0.689743	0.335878	0.880364
H501	H	0.144631	-0.164115	0.380420
H502	H	0.644631	0.335885	0.880420
H503	H	0.187919	-0.227797	0.357423
H504	H	0.687919	0.272203	0.857423
H505	H	0.233038	-0.227794	0.357354
H506	H	0.733038	0.272206	0.857354
H507	H	0.207833	-0.186314	0.321128
H508	H	0.707833	0.313686	0.821128
H509	H	0.055974	-0.119015	0.558014
H510	H	0.555974	0.380985	1.058014
C511	C	-0.031804	-0.447117	0.062205
C512	C	0.468196	0.052883	0.562205
C513	C	-0.060494	-0.422289	0.094673
C514	C	0.439506	0.077711	0.594673
C515	C	-0.072571	-0.373273	0.069830
C516	C	0.427429	0.126727	0.569830
H517	H	-0.003651	-0.438911	0.042808
H518	H	0.496349	0.061089	0.542808
H519	H	-0.048696	-0.438914	0.042730
H520	H	0.451304	0.061086	0.542730
H521	H	-0.043602	-0.430488	0.114140
H522	H	0.456398	0.069512	0.614140
H523	H	-0.088653	-0.430480	0.114071
H524	H	0.411347	0.069520	0.614071
H525	H	-0.089463	-0.365070	0.050355
H526	H	0.410537	0.134930	0.550355
H527	H	-0.044417	-0.365073	0.050434
H528	H	0.455583	0.134927	0.550434
H529	H	-0.092042	-0.356422	0.091856
H530	H	0.407958	0.143578	0.591856
H531	H	-0.058738	-0.490513	0.159288
H532	H	0.441262	0.009487	0.659288
C533	C	0.053081	-0.616983	0.062301
C534	C	0.553081	-0.116983	0.562301
C535	C	0.060014	-0.663435	0.094808
C536	C	0.560014	-0.163435	0.594808
C537	C	0.088697	-0.695930	0.070010
C538	C	0.588697	-0.195930	0.570010
H539	H	0.037939	-0.612242	0.042816
H540	H	0.537939	-0.112242	0.542816
H541	H	0.082982	-0.612262	0.042918
H542	H	0.582982	-0.112262	0.542918
H543	H	0.030118	-0.668154	0.114183
H544	H	0.530118	-0.168154	0.614183
H545	H	0.075162	-0.668191	0.114295
H546	H	0.575162	-0.168191	0.614295
H547	H	0.118599	-0.691208	0.050626
H548	H	0.618599	-0.191208	0.550626
H549	H	0.073553	-0.691184	0.050525
H550	H	0.573553	-0.191184	0.550525
H551	H	0.093409	-0.727450	0.092062
H552	H	0.593409	-0.227450	0.592062
H553	H	0.015032	-0.638195	0.159378
H554	H	0.515032	-0.138195	0.659378
C555	C	-0.066765	-0.481635	0.324535
C556	C	0.433235	0.018365	0.824535
C557	C	-0.073743	-0.435182	0.317566
C558	C	0.426257	0.064818	0.817566
C559	C	-0.102355	-0.402690	0.288880
C560	C	0.397645	0.097310	0.788880
H561	H	-0.051552	-0.486373	0.294644
H562	H	0.448448	0.013627	0.794644
H563	H	-0.096657	-0.486362	0.339702
H564	H	0.403343	0.013638	0.839702
H565	H	-0.043856	-0.430456	0.302398
H566	H	0.456144	0.069544	0.802398
H567	H	-0.088961	-0.430428	0.347448
H568	H	0.411039	0.069572	0.847448
H569	H	-0.132248	-0.407418	0.304047
H570	H	0.367752	0.092582	0.804047
H571	H	-0.087140	-0.407433	0.258991
H572	H	0.412860	0.092567	0.758991
H573	H	-0.107097	-0.371168	0.284151
H574	H	0.392903	0.128832	0.784151
H575	H	-0.028907	-0.460416	0.362542
H576	H	0.471093	0.039584	0.862542
C577	C	0.052450	-0.616832	0.444353
C578	C	0.552450	-0.116832	0.944353
C579	C	0.029872	-0.609644	0.488326
C580	C	0.529872	-0.109644	0.988326
C581	C	0.058403	-0.641992	0.517113
C582	C	0.558403	-0.141992	1.017113
H583	H	0.057243	-0.648403	0.449197
H584	H	0.557243	-0.148403	0.949197
H585	H	0.082325	-0.612072	0.429210
H586	H	0.582325	-0.112072	0.929210
H587	H	0.000006	-0.614407	0.503466
H588	H	0.500006	-0.114407	1.003466
H589	H	0.025080	-0.578080	0.483497
H590	H	0.525080	-0.078080	0.983497
H591	H	0.088278	-0.637233	0.501969
H592	H	0.588278	-0.137233	1.001969
H593	H	0.063195	-0.673561	0.521952
H594	H	0.563195	-0.173561	1.021952
H595	H	0.043091	-0.637117	0.546949
H596	H	0.543091	-0.137117	1.046949
C597	C	0.059719	-0.767464	0.335021
C598	C	0.559719	-0.267464	0.835021
C599	C	0.105826	-0.799990	0.332469
C600	C	0.605826	-0.299990	0.832469
C601	C	0.137939	-0.775212	0.308881
C602	C	0.637939	-0.275212	0.808881
H603	H	0.058557	-0.748027	0.303766
H604	H	0.558557	-0.248027	0.803766
H605	H	0.051392	-0.748032	0.352012
H606	H	0.551392	-0.248032	0.852012
H607	H	0.114151	-0.819414	0.315477
H608	H	0.614151	-0.319414	0.815477
H609	H	0.107003	-0.819428	0.363717
H610	H	0.607003	-0.319428	0.863717
H611	H	0.129612	-0.755780	0.325873
H612	H	0.629612	-0.255780	0.825873
H613	H	0.136773	-0.755776	0.277629
H614	H	0.636773	-0.255776	0.777629
H615	H	0.169226	-0.797277	0.307151
H616	H	0.669226	-0.297277	0.807151
H617	H	0.129672	-0.118967	0.410356
H618	H	0.629672	0.381033	0.910356
H619	H	-0.095331	-0.773979	0.396956
H620	H	0.404669	-0.273979	0.896956
C621	C	-0.073996	-0.871082	0.433467
C622	C	0.426004	-0.371082	0.933467
C623	C	-0.097102	-0.858937	0.403094
C624	C	0.402898	-0.358937	0.903094
C625	C	-0.129179	-0.883749	0.426646
C626	C	0.370821	-0.383749	0.926646
H627	H	-0.057219	-0.904342	0.442375
H628	H	0.442781	-0.404342	0.942375
H629	H	-0.096865	-0.862884	0.461137
H630	H	0.403135	-0.362884	0.961137
H631	H	-0.074236	-0.867138	0.375433
H632	H	0.425764	-0.367138	0.875433
H633	H	-0.113888	-0.825680	0.394185
H634	H	0.386112	-0.325680	0.894185
H635	H	-0.152049	-0.875551	0.454316
H636	H	0.347951	-0.375551	0.954316
H637	H	-0.112399	-0.917009	0.435552
H638	H	0.387601	-0.417009	0.935552
H639	H	-0.144864	-0.875509	0.406043
H640	H	0.355136	-0.375509	0.906043
C641	C	-0.225291	-0.608762	0.451607
C642	C	0.274709	-0.108762	0.951607
C643	C	-0.257832	-0.615694	0.498037
C644	C	0.242168	-0.115694	0.998037
C645	C	-0.233075	-0.644333	0.530571
C646	C	0.266925	-0.144333	1.030571
H647	H	-0.205858	-0.638669	0.446905
H648	H	0.294142	-0.138669	0.946905
H649	H	-0.205860	-0.593572	0.446886
H650	H	0.294140	-0.093572	0.946886
H651	H	-0.277255	-0.630885	0.502756
H652	H	0.222745	-0.130885	1.002756
H653	H	-0.277266	-0.585796	0.502754
H654	H	0.222734	-0.085796	1.002754
H655	H	-0.213644	-0.629143	0.525850
H656	H	0.286356	-0.129143	1.025850
H657	H	-0.213643	-0.674237	0.525865
H658	H	0.286357	-0.174237	1.025865
H659	H	-0.255150	-0.649036	0.562077
H660	H	0.244850	-0.149036	1.062077
C661	C	-0.329201	-0.574057	0.485995
C662	C	0.170799	-0.074057	0.985995
C663	C	-0.357829	-0.598911	0.497841
C664	C	0.142171	-0.098911	0.997841
C665	C	-0.382884	-0.610939	0.546808
C666	C	0.117116	-0.110939	1.046808
H667	H	-0.307322	-0.593539	0.503010
H668	H	0.192678	-0.093539	1.003010
H669	H	-0.348666	-0.545872	0.494159
H670	H	0.151334	-0.045872	0.994159
H671	H	-0.338366	-0.627092	0.489682
H672	H	0.161634	-0.127092	0.989682
H673	H	-0.379717	-0.579438	0.480838
H674	H	0.120283	-0.079438	0.980838
H675	H	-0.402349	-0.582754	0.554972
H676	H	0.097651	-0.082754	1.054972
H677	H	-0.361002	-0.630419	0.563819
H678	H	0.138998	-0.130419	1.063819
H679	H	-0.402314	-0.627800	0.554852
H680	H	0.097686	-0.127800	1.054852
H681	H	-0.322118	-0.496994	0.324987
H682	H	0.177882	0.003006	0.824987
