data_functionalizedCrystal
_audit_creation_method	'MofGen! by Chris Wilmer'
_symmetry_space_group_name_H-M	'P1'
_symmetry_Int_Tables_number	1
_symmetry_cell_setting	triclinic
loop_
_symmetry_equiv_pos_as_xyz
  x,y,z
_cell_length_a	14.519731
_cell_length_b	14.519709
_cell_length_c	13.596369
_cell_angle_alpha	89.994278
_cell_angle_beta	89.993626
_cell_angle_gamma	96.315501
loop_
_atom_site_label
_atom_site_type_symbol
_atom_site_fract_x
_atom_site_fract_y
_atom_site_fract_z
O1	O	1.223841	-0.120986	0.081796
O2	O	1.723841	0.379014	0.581796
O3	O	0.955366	-0.135202	0.081797
O4	O	1.455366	0.364798	0.581797
O5	O	1.096722	0.006143	0.081788
O6	O	1.596722	0.506143	0.581788
O7	O	1.082485	-0.262332	0.081805
O8	O	1.582485	0.237668	0.581805
O9	O	1.096739	0.006151	-0.081795
O10	O	1.596739	0.506151	0.418205
O11	O	0.955384	-0.135195	-0.081785
O12	O	1.455384	0.364805	0.418215
O13	O	1.223858	-0.120979	-0.081787
O14	O	1.723858	0.379021	0.418213
Zn15	Zn	1.089624	-0.128085	-0.107759
Zn16	Zn	1.589624	0.371915	0.392241
Zn17	Zn	1.089601	-0.128096	0.107769
Zn18	Zn	1.589601	0.371904	0.607769
O19	O	1.082503	-0.262325	-0.081777
O20	O	1.582503	0.237675	0.418223
C21	C	0.921016	-0.134532	0.000006
C22	C	1.421016	0.365468	0.500006
C23	C	0.818635	-0.132536	0.000007
C24	C	1.318635	0.367464	0.500007
C25	C	0.735491	-0.130915	0.000010
C26	C	1.235491	0.369085	0.500010
C27	C	0.631182	-0.128888	0.000011
C28	C	1.131182	0.371112	0.500011
C29	C	0.548043	-0.127280	0.000010
C30	C	1.048043	0.372720	0.500010
C31	C	0.443728	-0.125253	0.000012
C32	C	0.943728	0.374747	0.500012
C33	C	1.096067	0.040507	-0.000004
C34	C	1.596067	0.540507	0.499996
C35	C	1.094079	0.142889	-0.000005
C36	C	1.594079	0.642889	0.499995
C37	C	1.258209	-0.121649	0.000006
C38	C	1.758209	0.378351	0.500006
C39	C	1.360589	-0.123645	0.000012
C40	C	1.860589	0.376355	0.500012
N41	N	1.089586	-0.128096	0.254861
N42	N	1.589586	0.371904	0.754861
C43	C	1.083157	-0.296688	0.000016
C44	C	1.583157	0.203312	0.500016
C45	C	1.085146	-0.399070	0.000023
C46	C	1.585146	0.100930	0.500023
C47	C	1.086759	0.517785	0.000021
C48	C	1.586759	1.017785	0.500021
C49	C	1.088792	0.413477	0.000014
C50	C	1.588792	0.913477	0.500014
C51	C	1.090419	0.330340	0.000007
C52	C	1.590419	0.830340	0.500007
C53	C	1.092452	0.226025	0.000002
C54	C	1.592452	0.726025	0.500002
N55	N	1.089646	-0.128078	-0.254851
N56	N	1.589646	0.371922	0.245149
C57	C	1.089589	-0.128097	0.343859
C58	C	1.589589	0.371903	0.843859
C59	C	1.089602	-0.128095	0.455510
C60	C	1.589602	0.371905	0.955510
C61	C	1.089618	-0.128088	0.544500
C62	C	1.589618	0.371912	1.044500
C63	C	1.089630	-0.128085	0.656159
C64	C	1.589630	0.371915	1.156159
