data_functionalizedCrystal
_audit_creation_method	'MofGen! by Chris Wilmer'
_symmetry_space_group_name_H-M	'P1'
_symmetry_Int_Tables_number	1
_symmetry_cell_setting	triclinic
loop_
_symmetry_equiv_pos_as_xyz
  x,y,z
_cell_length_a	13.897449
_cell_length_b	16.625546
_cell_length_c	13.897449
_cell_angle_alpha	90.013119
_cell_angle_beta	90.005980
_cell_angle_gamma	90.023748
loop_
_atom_site_label
_atom_site_type_symbol
_atom_site_fract_x
_atom_site_fract_y
_atom_site_fract_z
Zn1	Zn	1.474530	-0.321110	0.545362
Zn2	Zn	1.807863	0.012223	0.878695
Zn3	Zn	2.141197	0.345556	1.212028
Zn4	Zn	1.474452	-0.455913	0.384055
Zn5	Zn	1.807786	-0.122579	0.717388
Zn6	Zn	2.141119	0.210754	1.050722
Zn7	Zn	1.313261	-0.321101	0.384080
Zn8	Zn	1.646594	0.012233	0.717413
Zn9	Zn	1.979927	0.345566	1.050747
Zn10	Zn	1.313188	-0.455907	0.545308
Zn11	Zn	1.646521	-0.122574	0.878641
Zn12	Zn	1.979854	0.210759	1.211974
O13	O	1.393858	-0.388508	0.464701
O14	O	1.727191	-0.055174	0.798034
O15	O	2.060524	0.278159	1.131368
O16	O	1.609501	-0.338998	0.523976
O17	O	1.942835	-0.005665	0.857309
O18	O	2.276168	0.327669	1.190643
O19	O	1.453068	-0.438028	0.249077
O20	O	1.786401	-0.104694	0.582410
O21	O	2.119735	0.228639	0.915744
O22	O	1.334717	-0.208270	0.405508
O23	O	1.668050	0.125064	0.738841
O24	O	2.001383	0.458397	1.072174
O25	O	1.609444	-0.438037	0.405465
O26	O	1.942777	-0.104704	0.738798
O27	O	2.276111	0.228630	1.072132
O28	O	1.453201	-0.208277	0.524000
O29	O	1.786534	0.125057	0.857334
O30	O	2.119867	0.458390	1.190667
O31	O	1.334641	-0.338982	0.249095
O32	O	1.667975	-0.005649	0.582429
O33	O	2.001308	0.327685	0.915762
O34	O	1.178269	-0.338977	0.405455
O35	O	1.511603	-0.005644	0.738789
O36	O	1.844936	0.327690	1.072122
O37	O	1.334592	-0.438028	0.680296
O38	O	1.667925	-0.104695	1.013630
O39	O	2.001259	0.228639	1.346963
O40	O	1.178216	-0.438019	0.523908
O41	O	1.511549	-0.104686	0.857242
O42	O	1.844882	0.228648	1.190575
O43	O	1.453130	-0.338993	0.680336
O44	O	1.786463	-0.005660	1.013669
O45	O	2.119796	0.327674	1.347003
O46	O	1.452997	-0.568744	0.405413
O47	O	1.786330	-0.235411	0.738746
O48	O	2.119663	0.097922	1.072079
O49	O	1.334516	-0.568741	0.523884
O50	O	1.667850	-0.235407	0.857217
O51	O	2.001183	0.097926	1.190551
C52	C	1.143243	-0.388497	0.464679
C53	C	1.476577	-0.055164	0.798012
C54	C	1.809910	0.278170	1.131346
C55	C	1.036029	-0.388512	0.464693
C56	C	1.369363	-0.055178	0.798026
C57	C	1.702696	0.278155	1.131359
C58	C	0.839734	-0.388515	0.464718
C59	C	1.173068	-0.055181	0.798051
C60	C	1.506401	0.278152	1.131385
C61	C	0.948967	-0.388511	0.464701
C62	C	1.282300	-0.055177	0.798035
C63	C	1.615633	0.278156	1.131368
C64	C	1.393766	-0.597999	0.464661
C65	C	1.727100	-0.264665	0.797994
C66	C	2.060433	0.068668	1.131327
C67	C	1.393816	-0.687620	0.464676
C68	C	1.727149	-0.354286	0.798009
C69	C	2.060482	-0.020953	1.131342
C70	C	1.393984	-1.015795	0.464776
C71	C	1.727317	-0.682462	0.798110
C72	C	2.060650	-0.349129	1.131443
C73	C	1.393934	-0.924487	0.464751
C74	C	1.727267	-0.591154	0.798084
C75	C	2.060601	-0.257820	1.131418
C76	C	1.393899	-0.851710	0.464725
C77	C	1.727232	-0.518377	0.798059
C78	C	2.060566	-0.185044	1.131392
C79	C	1.393851	-0.760396	0.464701
C80	C	1.727184	-0.427063	0.798035
C81	C	2.060517	-0.093729	1.131368
C82	C	1.645451	-0.388519	0.464724
C83	C	1.978784	-0.055186	0.798057
C84	C	2.312117	0.278148	1.131390
C85	C	1.752664	-0.388524	0.464733
C86	C	2.085998	-0.055191	0.798067
C87	C	2.419331	0.278143	1.131400
C88	C	1.393861	-0.388511	0.716294
C89	C	1.727195	-0.055178	1.049627
C90	C	2.060528	0.278156	1.382961
C91	C	1.393863	-0.388513	0.823508
C92	C	1.727196	-0.055179	1.156841
C93	C	2.060529	0.278154	1.490175
C94	C	1.393976	-0.178199	0.464763
C95	C	1.727309	0.155134	0.798096
C96	C	2.060642	0.488468	1.131429
C97	C	1.394026	-0.088578	0.464789
C98	C	1.727359	0.244756	0.798122
C99	C	2.060692	0.578089	1.131456
C100	C	1.393838	-0.388516	1.019803
C101	C	1.727172	-0.055183	1.353136
C102	C	2.060505	0.278150	1.686470
C103	C	1.393849	-0.388516	0.910571
C104	C	1.727182	-0.055183	1.243904
C105	C	2.060516	0.278150	1.577237
C106	C	1.393845	-0.388521	1.214087
C107	C	1.727178	-0.055187	1.547420
C108	C	2.060511	0.278146	1.880753
C109	C	1.393837	-0.388514	1.106873
C110	C	1.727171	-0.055181	1.440206
C111	C	2.060504	0.278152	1.773540
