data_functionalizedCrystal
_audit_creation_method	'MofGen! by Chris Wilmer'
_symmetry_space_group_name_H-M	'P1'
_symmetry_Int_Tables_number	1
_symmetry_cell_setting	triclinic
loop_
_symmetry_equiv_pos_as_xyz
  x,y,z
_cell_length_a	16.793024
_cell_length_b	16.793047
_cell_length_c	33.586455
_cell_angle_alpha	113.253857
_cell_angle_beta	66.219990
_cell_angle_gamma	112.758327
loop_
_atom_site_label
_atom_site_type_symbol
_atom_site_fract_x
_atom_site_fract_y
_atom_site_fract_z
O1	O	0.005016	-0.570216	-0.583573
O2	O	-0.034529	-0.474528	-0.453458
O3	O	0.114723	-0.474535	-0.528082
O4	O	-0.144235	-0.570209	-0.508949
O5	O	0.108729	-0.346329	-0.530229
O6	O	-0.040523	-0.346322	-0.455605
O7	O	-0.000977	-0.442010	-0.585721
Zn8	Zn	-0.021701	-0.373810	-0.521004
Zn9	Zn	-0.013805	-0.542728	-0.518175
O10	O	-0.150229	-0.442003	-0.511097
C11	C	0.005100	-0.790970	-0.238461
C12	C	0.009223	-0.693065	-0.217557
C13	C	0.003804	-0.645758	-0.241627
C14	C	-0.075059	-0.538459	-0.266316
C15	C	0.049838	-0.422849	-0.250165
C16	C	-0.040584	-0.395375	-0.435637
C17	C	-0.044693	-0.353446	-0.386631
C18	C	-0.039275	-0.401741	-0.363054
C19	C	-0.040566	-0.125547	-0.300731
C20	C	-0.044689	-0.223451	-0.321635
C21	C	-0.039266	-0.270752	-0.297563
C22	C	0.039597	-0.378051	-0.272874
C23	C	-0.085304	-0.493667	-0.289026
C24	C	0.005118	-0.521142	-0.103554
C25	C	0.009231	-0.563064	-0.152559
C26	C	0.003809	-0.514775	-0.176138
C27	C	0.010758	-0.652581	-0.172822
C28	C	0.001010	-0.556371	-0.220792
C29	C	-0.008251	-0.506059	-0.245823
C30	C	-0.046224	-0.263935	-0.366370
C31	C	-0.036476	-0.360146	-0.318399
C32	C	-0.027211	-0.410451	-0.293367
C33	C	0.815184	-0.521162	-0.508596
C34	C	0.415541	-0.125553	-0.528781
C35	C	0.375032	-0.223457	-0.531493
C36	C	0.423813	-0.270761	-0.529101
C37	C	0.149318	-0.395376	-0.530584
C38	C	0.246774	-0.353455	-0.532364
C39	C	0.294574	-0.401748	-0.529976
C40	C	0.548961	-0.790984	-0.510398
C41	C	0.286104	-0.263940	-0.532530
C42	C	0.383336	-0.360149	-0.528302
C43	C	0.432207	-0.407971	-0.525810
C44	C	0.392316	-0.497392	-0.524993
C45	C	0.303554	-0.538991	-0.526667
C46	C	0.254683	-0.491169	-0.529159
C47	C	0.263666	-0.628421	-0.525851
C48	C	0.312537	-0.676243	-0.523359
C49	C	0.401299	-0.634644	-0.521685
C50	C	0.441190	-0.545223	-0.522502
C51	C	0.529952	-0.503624	-0.520828
C52	C	0.578823	-0.551446	-0.518336
C53	C	0.538939	-0.640864	-0.517520
C54	C	0.450177	-0.682463	-0.519194
C55	C	0.587810	-0.688687	-0.515028
C56	C	0.676572	-0.647088	-0.513354
C57	C	0.716463	-0.557666	-0.514172
C58	C	0.667586	-0.509847	-0.516662
C59	C	0.569840	-0.414195	-0.521644
C60	C	0.658602	-0.372596	-0.519970
C61	C	0.707476	-0.420426	-0.517480
C62	C	0.698493	-0.283174	-0.520788
C63	C	0.649622	-0.235352	-0.523280
C64	C	0.560860	-0.276951	-0.524954
C65	C	0.520969	-0.366372	-0.524136
C66	C	0.511989	-0.229129	-0.527446
C67	C	-0.040530	-0.395407	-0.935652
C68	C	0.005063	-0.791004	-0.738448
C69	C	0.009186	-0.693099	-0.717543
C70	C	0.003779	-0.645796	-0.741620
C71	C	0.005077	-0.521171	-0.603544
C72	C	0.009198	-0.563096	-0.652550
C73	C	0.003786	-0.514804	-0.676131
C74	C	-0.040516	-0.125574	-0.800747
C75	C	0.010719	-0.652613	-0.672809
C76	C	0.000994	-0.556406	-0.720789
C77	C	-0.004621	-0.508585	-0.744908
C78	C	-0.007444	-0.419162	-0.724369
C79	C	-0.004651	-0.377560	-0.679711
C80	C	0.000964	-0.425381	-0.655592
C81	C	-0.007471	-0.288129	-0.659174
C82	C	-0.013086	-0.240308	-0.683293
C83	C	-0.015878	-0.281910	-0.727951
C84	C	-0.013056	-0.371333	-0.748490
C85	C	-0.015848	-0.412935	-0.793148
C86	C	-0.021463	-0.365114	-0.817267
C87	C	-0.024282	-0.275694	-0.796731
C88	C	-0.021490	-0.234092	-0.752073
C89	C	-0.029897	-0.227873	-0.820850
C90	C	-0.032690	-0.269476	-0.865508
C91	C	-0.029867	-0.358899	-0.886047
C92	C	-0.024255	-0.406717	-0.861925
C93	C	-0.013028	-0.502367	-0.813685
C94	C	-0.015821	-0.543969	-0.858343
C95	C	-0.021433	-0.496140	-0.882464
C96	C	-0.012998	-0.633392	-0.878882
C97	C	-0.007383	-0.681213	-0.854763
C98	C	-0.004591	-0.639611	-0.810105
C99	C	-0.007414	-0.550188	-0.789566
C100	C	0.001024	-0.687432	-0.785986
O101	O	-0.000965	0.173549	-0.277957
O102	O	-0.040516	-0.085616	-0.325254
O103	O	0.108737	0.059592	-0.327284
O104	O	-0.150219	0.028341	-0.275927
O105	O	0.114753	0.055151	-0.263265
O106	O	-0.034500	-0.090057	-0.261234
O107	O	0.005051	0.169108	-0.213937
Zn108	Zn	-0.013769	0.038820	-0.227421
Zn109	Zn	-0.021696	0.044672	-0.311770
O110	O	-0.144202	0.023900	-0.211907
O111	O	-0.034458	-0.474571	0.046517
O112	O	0.005076	-0.570190	-0.083599
O113	O	-0.144170	-0.570237	-0.008972
O114	O	0.114787	-0.474523	-0.028110
O115	O	-0.150200	-0.442024	-0.011093
O116	O	-0.000954	-0.441976	-0.085720
O117	O	-0.040488	-0.346357	0.044396
Zn118	Zn	-0.021679	-0.373810	-0.020999
Zn119	Zn	-0.013734	-0.542737	-0.018204
O120	O	0.108757	-0.346309	-0.030231
C121	C	-0.850734	0.086244	-0.289716
C122	C	-0.753280	0.087165	-0.312001
C123	C	-0.705462	0.081107	-0.288506
C124	C	-0.599592	0.000085	-0.264184
C125	C	-0.481080	0.121287	-0.283645
C126	C	-0.450996	0.035117	-0.097351
C127	C	-0.410501	0.028587	-0.146852
C128	C	-0.459292	0.034683	-0.169840
C129	C	-0.184802	0.024283	-0.235878
C130	C	-0.282257	0.023363	-0.213592
C131	C	-0.330068	0.029423	-0.237088
C132	C	-0.435938	0.110445	-0.261411
C133	C	-0.554456	-0.010759	-0.241948
C134	C	-0.584541	0.075410	-0.428242
C135	C	-0.625029	0.081943	-0.378743
C136	C	-0.576244	0.075844	-0.355753
C137	C	-0.713963	0.086424	-0.357292
C138	C	-0.616708	0.075351	-0.310510
C139	C	-0.565963	0.065400	-0.286043
C140	C	-0.321573	0.024104	-0.168302
C141	C	-0.418828	0.035176	-0.215083
C142	C	-0.469568	0.045131	-0.239552
O143	O	0.585213	0.169090	-0.504004
O144	O	0.494056	-0.090076	-0.525516
O145	O	0.488081	0.055124	-0.449918
O146	O	0.591189	0.023889	-0.579602
O147	O	0.359978	0.059584	-0.452885
O148	O	0.365953	-0.085616	-0.528483
O149	O	0.457110	0.173550	-0.506971
Zn150	Zn	0.391193	0.044675	-0.518198
Zn151	Zn	0.559974	0.038798	-0.514289
O152	O	0.463086	0.028349	-0.582569
C153	C	0.815354	-0.521094	-0.008709
C154	C	0.717898	-0.563028	-0.006927
C155	C	0.670072	-0.514739	-0.009298
C156	C	0.564182	-0.463204	-0.048354
C157	C	0.445681	-0.498945	0.013847
C158	C	0.415547	-0.125494	-0.028771
C159	C	0.375059	-0.223405	-0.031498
C160	C	0.423859	-0.270708	-0.029121
C161	C	0.149365	-0.395355	-0.030599
C162	C	0.246820	-0.353421	-0.032381
C163	C	0.294640	-0.401713	-0.030008
C164	C	0.400530	-0.453248	0.009048
C165	C	0.519038	-0.417504	-0.053155
C166	C	0.549171	-0.790955	-0.010537
C167	C	0.589653	-0.693047	-0.007809
C168	C	0.540859	-0.645741	-0.010187
C169	C	0.678588	-0.652551	-0.006775
C170	C	0.581317	-0.556344	-0.010973
C171	C	0.530562	-0.506029	-0.015250
C172	C	0.286131	-0.263897	-0.032533
C173	C	0.383402	-0.360104	-0.028335
C174	C	0.434150	-0.410423	-0.024057
O175	O	-0.620614	0.089309	0.052274
O176	O	-0.529507	0.043784	-0.078544
O177	O	-0.523494	0.194833	-0.006033
O178	O	-0.626628	-0.061740	-0.020236
O179	O	-0.395386	0.185419	-0.005549
O180	O	-0.401400	0.034370	-0.078059
O181	O	-0.492507	0.079895	0.052758
Zn182	Zn	-0.426614	0.055638	-0.012574
Zn183	Zn	-0.595401	0.068041	-0.013212
O184	O	-0.498521	-0.071154	-0.019752
C185	C	-0.437537	0.048335	0.402491
C186	C	-0.397043	0.041789	0.352989
C187	C	-0.445822	0.047883	0.329994
C188	C	-0.496646	0.126653	0.277022
C189	C	-0.465894	-0.000633	0.218811
C190	C	-0.837226	0.099430	0.210091
C191	C	-0.739773	0.100339	0.187806
C192	C	-0.691967	0.094287	0.211308
C193	C	-0.571027	0.088563	0.071568
C194	C	-0.611521	0.095108	0.121070
C195	C	-0.562739	0.089011	0.144061
C196	C	-0.511915	0.010241	0.197033
C197	C	-0.542670	0.137531	0.255247
C198	C	-0.171338	0.037467	0.263967
C199	C	-0.268788	0.036555	0.286249
C200	C	-0.316597	0.042611	0.262750
C201	C	-0.308112	0.037305	0.331542
C202	C	-0.405351	0.048369	0.284750
C203	C	-0.456092	0.058317	0.260279
C204	C	-0.700452	0.099593	0.142516
C205	C	-0.603213	0.088528	0.189308
C206	C	-0.552469	0.078578	0.213776
O207	O	-0.040608	-1.085661	-0.825229
O208	O	-0.001018	-0.826491	-0.777938
O209	O	-0.150287	-0.971682	-0.775894
O210	O	0.108661	-0.940470	-0.827272
O211	O	-0.144253	-0.976123	-0.711878
O212	O	0.005016	-0.830932	-0.713922
O213	O	-0.034575	-1.090102	-0.761213
Zn214	Zn	-0.013821	-0.961222	-0.727403
Zn215	Zn	-0.021771	-0.955371	-0.811747
O216	O	0.114695	-0.944911	-0.763256
C217	C	-0.036360	-0.225025	-0.248200
N218	N	-0.034177	-0.190584	-0.211019
H219	H	0.544602	-0.156012	-0.528109
C220	C	-0.341346	0.173483	-0.259714
N221	N	-0.270098	0.220969	-0.258435
C222	C	0.805522	-0.374472	-0.515631
N223	N	0.879368	-0.339862	-0.514238
C224	C	0.402667	-0.544380	0.052305
N225	N	0.370270	-0.578602	0.081272
H226	H	-0.669612	-0.046576	-0.265443
H227	H	0.710767	-0.684484	-0.506030
H228	H	0.468233	-0.679598	-0.011487
C229	C	0.105110	-0.285314	-0.276744
N230	N	0.154458	-0.215461	-0.279659
H231	H	-0.449229	0.177371	-0.300885
C232	C	-0.024559	-0.542110	-0.931786
N233	N	-0.026931	-0.576737	-0.968931
C234	C	0.000889	-0.691493	-0.290988
N235	N	-0.001307	-0.725944	-0.328167
H236	H	-0.586315	-0.066836	-0.224702
C237	C	0.733133	-0.706465	-0.005359
N238	N	0.774212	-0.747073	-0.004290
C239	C	0.165627	-0.674370	-0.527699
N240	N	0.091781	-0.708984	-0.529092
C241	C	0.014265	-0.706521	-0.645893
N242	N	0.016931	-0.747125	-0.625618
H243	H	-0.015274	-0.667410	-0.915397
C244	C	0.714544	-0.415924	-0.010076
N245	N	0.748042	-0.341496	-0.010661
C246	C	-0.004390	-0.242175	-0.609848
N247	N	-0.002070	-0.207557	-0.572694
C248	C	-0.487646	0.193178	0.323265
N249	N	-0.480873	0.243284	0.358096
C250	C	0.796538	-0.237223	-0.518940
N251	N	0.870383	-0.202610	-0.517546
H252	H	-0.574318	0.196197	0.271049
C253	C	0.521977	-0.224974	-0.027368
N254	N	0.595879	-0.190525	-0.026046
C255	C	0.693686	-0.136579	-0.524184
N256	N	0.726879	-0.062186	-0.524867
C257	C	0.000914	-0.415968	-0.153237
N258	N	-0.001265	-0.341545	-0.135988
H259	H	-0.518563	-0.039000	0.162804
C260	C	-0.557409	0.040851	-0.145645
N261	N	-0.631310	0.045497	-0.127421
C262	C	-0.267013	0.019804	-0.142089
N263	N	-0.225914	0.016571	-0.122345
H264	H	0.279916	-0.749353	-0.522691
C265	C	-0.736442	0.093931	0.261316
N266	N	-0.769943	0.093660	0.298982
H267	H	-0.503619	0.071273	-0.373665
H268	H	-0.283673	0.042875	0.225734
H269	H	0.245727	-0.224039	-0.533582
C270	C	0.127384	-0.381306	-0.228511
N271	N	0.185790	-0.350015	-0.212200
C272	C	-0.016199	-0.141534	-0.660605
N273	N	-0.018546	-0.067137	-0.643516
C274	C	0.156643	-0.537124	-0.531009
N275	N	0.082796	-0.571739	-0.532400
C276	C	0.014314	-0.706490	-0.145909
N277	N	0.016988	-0.747094	-0.125636
H278	H	0.417564	-0.755580	-0.518528
H279	H	-0.267732	0.034117	0.350946
C280	C	0.305940	-0.447305	0.041852
N281	N	0.234692	-0.442825	0.066562
C282	C	-0.140574	-0.631198	-0.262439
N283	N	-0.189918	-0.701051	-0.259521
H284	H	-0.740818	0.102779	0.123104
C285	C	-0.162848	-0.535215	-0.310681
N286	N	-0.221255	-0.566509	-0.326992
H287	H	-0.754334	0.089615	-0.376700
C288	C	-0.036379	-0.500549	-0.385954
N289	N	-0.034197	-0.574971	-0.403203
C290	C	-0.543935	0.054063	0.354190
N291	N	-0.617834	0.058716	0.372415
C292	C	0.004049	-0.379423	-0.606266
N293	N	0.006369	-0.344808	-0.569112
H294	H	-0.048864	-0.224020	-0.386283
H295	H	0.261721	-0.474856	-0.029430
H296	H	-0.023809	-0.160979	-0.735279
H297	H	0.634201	-0.467612	-0.072637
C298	C	-0.053134	-0.218954	-0.888276
N299	N	-0.068530	-0.180900	-0.905425
C300	C	-0.004269	-0.779989	-0.877450
N301	N	-0.001921	-0.854386	-0.894539
C302	C	0.004137	-0.786209	-0.808671
N303	N	0.006484	-0.860606	-0.825758
C304	C	0.562058	-0.372062	-0.091611
N305	N	0.594461	-0.337836	-0.120577
C306	C	-0.423139	-0.079889	0.197468
N307	N	-0.390933	-0.139583	0.181392
C308	C	0.231561	-0.209989	-0.033932
N309	N	0.190455	-0.169384	-0.034983
H310	H	-0.297145	0.029698	-0.274103
C311	C	-0.749941	0.080737	-0.238500
N312	N	-0.783444	0.080459	-0.200836
C313	C	-0.464624	0.082836	0.119869
N314	N	-0.390722	0.078191	0.101647
