data_functionalizedCrystal
_audit_creation_method	'MofGen! by Chris Wilmer'
_symmetry_space_group_name_H-M	'P1'
_symmetry_Int_Tables_number	1
_symmetry_cell_setting	triclinic
loop_
_symmetry_equiv_pos_as_xyz
  x,y,z
_cell_length_a	23.532407
_cell_length_b	23.532407
_cell_length_c	11.295483
_cell_angle_alpha	94.064566
_cell_angle_beta	85.923202
_cell_angle_gamma	82.848712
loop_
_atom_site_label
_atom_site_type_symbol
_atom_site_fract_x
_atom_site_fract_y
_atom_site_fract_z
O1	O	0.759115	0.065281	-0.098961
O2	O	0.593252	0.075283	-0.098981
O3	O	0.681184	-0.012649	-0.098949
O4	O	0.671183	0.153213	-0.098993
O5	O	0.673461	-0.004938	0.099099
O6	O	0.585529	0.082994	0.099067
O7	O	0.751392	0.072992	0.099087
Cu8	Cu	0.667755	0.078697	0.117160
Cu9	Cu	0.676889	0.069578	-0.117054
O10	O	0.663460	0.160924	0.099054
C11	C	0.568175	0.078884	0.000040
C12	C	0.504958	0.078118	0.000034
C13	C	0.238789	0.022924	0.000081
C14	C	0.298189	0.023636	0.000080
O15	O	0.334931	-0.020148	0.000133
N16	N	0.320816	0.075911	0.000058
C17	C	0.284039	0.127479	0.000048
O18	O	0.308739	0.172009	0.000031
C19	C	0.224639	0.126767	0.000057
C20	C	0.202016	0.074488	0.000068
C21	C	0.216165	-0.029351	0.000092
C22	C	0.156769	-0.030062	0.000091
C23	C	0.119996	0.021502	0.000077
C24	C	0.142620	0.073777	0.000066
C25	C	0.187863	0.178335	0.000056
C26	C	0.128460	0.177619	0.000066
C27	C	0.105837	0.125339	0.000076
C28	C	0.046452	0.124629	0.000051
N29	N	0.023825	0.072354	0.000073
C30	C	0.060597	0.020790	0.000086
C31	C	0.408782	0.128970	0.000032
C32	C	0.468181	0.129682	0.000014
C33	C	0.482327	0.025838	0.000048
C34	C	0.422927	0.025126	0.000057
C35	C	0.386155	0.076694	0.000054
C36	C	-0.064140	0.019300	0.000082
C37	C	-0.123541	0.018593	0.000075
C38	C	-0.137682	0.122437	0.000047
C39	C	-0.078286	0.123144	0.000048
C40	C	-0.041515	0.071571	0.000069
O41	O	0.009674	0.168390	0.000003
O42	O	0.035888	-0.023732	0.000120
C43	C	0.677068	-0.030009	0.000078
C44	C	0.676302	-0.093226	0.000087
C45	C	0.723537	-0.492331	0.000028
C46	C	0.722826	-0.551732	0.000019
O47	O	0.766614	-0.588478	-0.000020
N48	N	0.670550	-0.574358	0.000013
C49	C	0.618982	-0.537581	0.000005
O50	O	0.574452	-0.562281	-0.000002
C51	C	0.619694	-0.478182	0.000005
C52	C	0.671973	-0.455559	0.000023
C53	C	0.775812	-0.469707	0.000044
C54	C	0.776523	-0.410311	0.000056
C55	C	0.724959	-0.373538	0.000051
C56	C	0.672684	-0.396162	0.000034
C57	C	0.568127	-0.441406	-0.000012
C58	C	0.568844	-0.382004	-0.000012
C59	C	0.621123	-0.359380	0.000006
C60	C	0.621831	-0.299993	0.000041
N61	N	0.674107	-0.277366	0.000046
C62	C	0.725671	-0.314139	0.000051
C63	C	0.617491	-0.662324	0.000001
C64	C	0.616778	-0.721721	0.000009
C65	C	0.720622	-0.735868	0.000021
C66	C	0.721334	-0.676469	0.000022
C67	C	0.669767	-0.639697	0.000007
C68	C	0.727160	-0.189401	0.000076
C69	C	0.727866	-0.129999	0.000092
C70	C	0.624022	-0.115857	0.000074
C71	C	0.623315	-0.175254	0.000064
C72	C	0.674889	-0.212026	0.000061
O73	O	0.578067	-0.263212	0.000074
O74	O	0.770194	-0.289431	0.000042
C75	C	0.776469	0.069391	0.000063
C76	C	0.839686	0.070157	0.000062
C77	C	0.667576	0.178284	0.000025
C78	C	0.668343	0.241501	0.000008
N79	N	0.661335	0.085111	0.281894
N80	N	0.683313	0.063159	-0.281788
C81	C	0.729527	0.016957	0.531209
C82	C	0.724680	0.021808	0.655871
C83	C	0.646790	0.099661	0.655882
C84	C	0.651638	0.094810	0.531220
C85	C	0.693008	0.053457	0.468888
C86	C	0.697858	0.048609	0.344224
C87	C	0.619966	0.126460	0.344237
C88	C	0.615119	0.131311	0.468899
H89	H	0.512278	-0.016148	0.000059
H90	H	0.526851	-0.352066	-0.000026
H91	H	0.378845	0.170965	0.000020
H92	H	0.246100	-0.071343	0.000107
Cl93	Cl	0.216288	0.244062	0.000044
H94	H	0.580744	-0.193674	0.000083
H95	H	0.582040	-0.085906	0.000074
Cl96	Cl	0.394493	-0.040598	0.000076
Cl97	Cl	0.496614	0.195406	-0.000023
Cl98	Cl	0.082235	0.242451	0.000067
H99	H	0.575496	-0.632386	-0.000001
Cl100	Cl	0.791996	-0.235619	0.000074
H101	H	0.817804	-0.499643	0.000044
H102	H	0.763217	-0.016711	0.480457
Cl103	Cl	0.594779	0.151639	0.734254
Cl104	Cl	-0.049844	0.188866	0.000020
H105	H	0.754417	-0.007915	0.706609
Cl106	Cl	0.749867	-0.003376	0.265866
Cl107	Cl	-0.151977	-0.047135	0.000080
Cl108	Cl	0.787059	-0.648035	0.000043
Cl109	Cl	0.502401	-0.469832	-0.000042
H110	H	0.581434	0.164978	0.519664
Cl111	Cl	-0.183921	0.187256	0.000026
H112	H	0.770439	-0.111582	0.000110
H113	H	0.819094	-0.391897	0.000065
Cl114	Cl	0.574058	0.172351	0.265880
H115	H	0.762609	-0.765820	0.000021
H116	H	-0.034207	-0.022695	0.000099
H117	H	0.574206	-0.740135	0.000015
H118	H	0.138355	-0.072633	0.000104
