data_functionalizedCrystal
_audit_creation_method	'MofGen! by Chris Wilmer'
_symmetry_space_group_name_H-M	'P1'
_symmetry_Int_Tables_number	1
_symmetry_cell_setting	triclinic
loop_
_symmetry_equiv_pos_as_xyz
  x,y,z
_cell_length_a	18.101397
_cell_length_b	16.625547
_cell_length_c	16.625539
_cell_angle_alpha	90.027058
_cell_angle_beta	89.970842
_cell_angle_gamma	89.981048
loop_
_atom_site_label
_atom_site_type_symbol
_atom_site_fract_x
_atom_site_fract_y
_atom_site_fract_z
Zn1	Zn	-0.294844	-1.232696	-0.456044
Zn2	Zn	-0.044844	-0.982696	-0.206044
Zn3	Zn	0.205156	-0.732696	0.043956
Zn4	Zn	0.455156	-0.482696	0.293956
Zn5	Zn	-0.418693	-1.232605	-0.321209
Zn6	Zn	-0.168693	-0.982605	-0.071209
Zn7	Zn	0.081307	-0.732605	0.178791
Zn8	Zn	0.331307	-0.482605	0.428791
Zn9	Zn	-0.294868	-1.097857	-0.321209
Zn10	Zn	-0.044868	-0.847857	-0.071209
Zn11	Zn	0.205132	-0.597857	0.178791
Zn12	Zn	0.455132	-0.347857	0.428791
Zn13	Zn	-0.418647	-1.097834	-0.455984
Zn14	Zn	-0.168647	-0.847834	-0.205984
Zn15	Zn	0.081353	-0.597834	0.044016
Zn16	Zn	0.331353	-0.347834	0.294016
O17	O	-0.356763	-1.165248	-0.388612
O18	O	-0.106763	-0.915248	-0.138612
O19	O	0.143237	-0.665248	0.111388
O20	O	0.393237	-0.415248	0.361388
O21	O	-0.311282	-1.345516	-0.438183
O22	O	-0.061282	-1.095516	-0.188183
O23	O	0.188718	-0.845516	0.061817
O24	O	0.438718	-0.595516	0.311817
O25	O	-0.402297	-1.214703	-0.208377
O26	O	-0.152297	-0.964703	0.041623
O27	O	0.097703	-0.714703	0.291623
O28	O	0.347703	-0.464703	0.541623
O29	O	-0.191232	-1.115792	-0.339121
O30	O	0.058768	-0.865792	-0.089121
O31	O	0.308768	-0.615792	0.160879
O32	O	0.558768	-0.365792	0.410879
O33	O	-0.402274	-1.345450	-0.339121
O34	O	-0.152274	-1.095450	-0.089121
O35	O	0.097726	-0.845450	0.160879
O36	O	0.347726	-0.595450	0.410879
O37	O	-0.191215	-1.214857	-0.438183
O38	O	0.058785	-0.964857	-0.188183
O39	O	0.308785	-0.714857	0.061817
O40	O	0.558785	-0.464857	0.311817
O41	O	-0.311324	-1.115704	-0.208377
O42	O	-0.061324	-0.865704	0.041623
O43	O	0.188676	-0.615704	0.291623
O44	O	0.438676	-0.365704	0.541623
O45	O	-0.311278	-0.985022	-0.339062
O46	O	-0.061278	-0.735022	-0.089062
O47	O	0.188722	-0.485022	0.160938
O48	O	0.438722	-0.235022	0.410938
O49	O	-0.402194	-1.115752	-0.568824
O50	O	-0.152194	-0.865752	-0.318824
O51	O	0.097806	-0.615752	-0.068824
O52	O	0.347806	-0.365752	0.181176
O53	O	-0.402218	-0.985005	-0.438081
O54	O	-0.152218	-0.735005	-0.188081
O55	O	0.097782	-0.485005	0.061919
O56	O	0.347782	-0.235005	0.311919
O57	O	-0.311237	-1.214834	-0.568869
O58	O	-0.061237	-0.964834	-0.318869
O59	O	0.188763	-0.714834	-0.068869
O60	O	0.438763	-0.464834	0.181131
O61	O	-0.522320	-1.214680	-0.339062
O62	O	-0.272320	-0.964680	-0.089062
O63	O	-0.022320	-0.714680	0.160938
O64	O	0.227680	-0.464680	0.410938
O65	O	-0.522286	-1.115664	-0.438081
O66	O	-0.272286	-0.865664	-0.188081
O67	O	-0.022286	-0.615664	0.061919
O68	O	0.227714	-0.365664	0.311919
C69	C	-0.356746	-0.955757	-0.388565
C70	C	-0.106746	-0.705757	-0.138565
C71	C	0.143254	-0.455757	0.111435
C72	C	0.393254	-0.205757	0.361435
C73	C	-0.356757	-0.866136	-0.388565
C74	C	-0.106757	-0.616136	-0.138565
C75	C	0.143243	-0.366136	0.111435
C76	C	0.393243	-0.116136	0.361435
C77	C	-0.356757	-0.793354	-0.388572
C78	C	-0.106757	-0.543354	-0.138572
C79	C	0.143243	-0.293354	0.111428
C80	C	0.393243	-0.043354	0.361428
C81	C	-0.356760	-0.702045	-0.388589
C82	C	-0.106760	-0.452045	-0.138589
C83	C	0.143240	-0.202045	0.111411
C84	C	0.393240	0.047955	0.361411
C85	C	-0.356766	-0.629269	-0.388606
C86	C	-0.106766	-0.379269	-0.138606
C87	C	0.143234	-0.129269	0.111394
C88	C	0.393234	0.120731	0.361394
C89	C	-0.356770	-0.537955	-0.388622
C90	C	-0.106770	-0.287955	-0.138622
C91	C	0.143230	-0.037955	0.111378
C92	C	0.393230	0.212045	0.361378
C93	C	-0.549174	-1.165182	-0.388583
C94	C	-0.299174	-0.915182	-0.138583
C95	C	-0.049174	-0.665182	0.111417
C96	C	0.200826	-0.415182	0.361417
C97	C	-0.631488	-1.165227	-0.388597
C98	C	-0.381488	-0.915227	-0.138597
C99	C	-0.131488	-0.665227	0.111403
C100	C	0.118512	-0.415227	0.361403
C101	C	-0.782196	-1.165276	-0.388624
C102	C	-0.532196	-0.915276	-0.138624
C103	C	-0.282196	-0.665276	0.111376
C104	C	-0.032196	-0.415276	0.361376
C105	C	-0.813540	-1.227636	-0.326385
C106	C	-0.563540	-0.977636	-0.076385
C107	C	-0.313540	-0.727636	0.173615
C108	C	-0.063540	-0.477636	0.423615
C109	C	-0.899159	-1.227480	-0.326156
C110	C	-0.649159	-0.977480	-0.076156
C111	C	-0.399159	-0.727480	0.173844
C112	C	-0.149159	-0.477480	0.423844
C113	C	-0.930579	-1.165326	-0.388651
C114	C	-0.680579	-0.915326	-0.138651
C115	C	-0.430579	-0.665326	0.111349
C116	C	-0.180579	-0.415326	0.361349
C117	C	-0.899562	-1.080290	-0.365770
C118	C	-0.649562	-0.830290	-0.115770
C119	C	-0.399562	-0.580290	0.134230
C120	C	-0.149562	-0.330290	0.384230
C121	C	-0.813917	-1.080622	-0.365302
C122	C	-0.563917	-0.830622	-0.115302
C123	C	-0.313917	-0.580622	0.134698
C124	C	-0.063917	-0.330622	0.384698
C125	C	-0.813690	-1.187220	-0.473907
C126	C	-0.563690	-0.937220	-0.223907
C127	C	-0.313690	-0.687220	0.026093
C128	C	-0.063690	-0.437220	0.276093
C129	C	-0.899339	-1.189123	-0.473469
C130	C	-0.649339	-0.939123	-0.223469
C131	C	-0.399339	-0.689123	0.026531
C132	C	-0.149339	-0.439123	0.276531
C133	C	-1.014438	-1.165348	-0.388668
C134	C	-0.764438	-0.915348	-0.138668
C135	C	-0.514438	-0.665348	0.111332
C136	C	-0.264438	-0.415348	0.361332
C137	C	-0.698337	-1.165248	-0.388606
C138	C	-0.448337	-0.915248	-0.138606
C139	C	-0.198337	-0.665248	0.111394
C140	C	0.051663	-0.415248	0.361394
C141	C	-0.163601	-1.165337	-0.388659
C142	C	0.086399	-0.915337	-0.138659
C143	C	0.336399	-0.665337	0.111341
C144	C	0.586399	-0.415337	0.361341
C145	C	-0.081287	-1.165375	-0.388679
C146	C	0.168713	-0.915375	-0.138679
C147	C	0.418713	-0.665375	0.111321
C148	C	0.668713	-0.415375	0.361321
C149	C	-0.356708	-1.165301	-0.598921
C150	C	-0.106708	-0.915301	-0.348921
C151	C	0.143292	-0.665301	-0.098921
C152	C	0.393292	-0.415301	0.151079
C153	C	-0.356684	-1.165323	-0.688542
C154	C	-0.106684	-0.915323	-0.438542
C155	C	0.143316	-0.665323	-0.188542
C156	C	0.393316	-0.415323	0.061458
C157	C	-0.356778	-0.375557	-0.388649
C158	C	-0.106778	-0.125557	-0.138649
C159	C	0.143222	0.124443	0.111351
C160	C	0.393222	0.374443	0.361351
C161	C	-0.356776	-0.465178	-0.388640
C162	C	-0.106776	-0.215178	-0.138640
C163	C	0.143224	0.034822	0.111360
C164	C	0.393224	0.284822	0.361360
C165	C	-0.356602	-1.165360	-1.016718
C166	C	-0.106602	-0.915360	-0.766718
C167	C	0.143398	-0.665360	-0.516718
C168	C	0.393398	-0.415360	-0.266718
C169	C	-0.356627	-1.165348	-0.925409
C170	C	-0.106627	-0.915348	-0.675409
C171	C	0.143373	-0.665348	-0.425409
C172	C	0.393373	-0.415348	-0.175409
C173	C	-0.356644	-1.165342	-0.852633
C174	C	-0.106644	-0.915342	-0.602633
C175	C	0.143356	-0.665342	-0.352633
C176	C	0.393356	-0.415342	-0.102633
C177	C	-0.356668	-1.165328	-0.761318
C178	C	-0.106668	-0.915328	-0.511318
C179	C	0.143332	-0.665328	-0.261318
C180	C	0.393332	-0.415328	-0.011318
C181	C	-0.356765	-1.165242	-0.179121
C182	C	-0.106765	-0.915242	0.070879
C183	C	0.143235	-0.665242	0.320879
C184	C	0.393235	-0.415242	0.570879
C185	C	-0.356580	-1.165376	-0.089500
C186	C	-0.106580	-0.915376	0.160500
C187	C	0.143420	-0.665376	0.410500
C188	C	0.393420	-0.415376	0.660500
H189	H	-0.920128	-1.290529	-0.340450
H190	H	-0.670128	-1.040529	-0.090450
H191	H	-0.420128	-0.790529	0.159550
H192	H	-0.170128	-0.540529	0.409550
H193	H	-0.793414	-1.141806	-0.520279
H194	H	-0.543414	-0.891806	-0.270279
H195	H	-0.293414	-0.641806	-0.020279
H196	H	-0.043414	-0.391806	0.229721
H197	H	-0.921067	-1.061414	-0.304128
H198	H	-0.671067	-0.811414	-0.054128
H199	H	-0.421067	-0.561414	0.195872
H200	H	-0.171067	-0.311414	0.445872
H201	H	-0.792902	-1.290867	-0.340513
H202	H	-0.542902	-1.040867	-0.090513
H203	H	-0.292902	-0.790867	0.159487
H204	H	-0.042902	-0.540867	0.409487
Cl205	Cl	-0.930984	-1.006617	-0.433616
Cl206	Cl	-0.680984	-0.756617	-0.183616
Cl207	Cl	-0.430984	-0.506617	0.066384
Cl208	Cl	-0.180984	-0.256617	0.316384
H209	H	-0.792035	-1.248156	-0.494760
H210	H	-0.542035	-0.998156	-0.244760
H211	H	-0.292035	-0.748156	0.005240
H212	H	-0.042035	-0.498156	0.255240
H213	H	-0.919606	-1.251702	-0.490726
H214	H	-0.669606	-1.001702	-0.240726
H215	H	-0.419606	-0.751702	0.009274
H216	H	-0.169606	-0.501702	0.259274
H217	H	-0.920723	-1.147049	-0.522317
H218	H	-0.670723	-0.897049	-0.272317
H219	H	-0.420723	-0.647049	-0.022317
H220	H	-0.170723	-0.397049	0.227683
H221	H	-0.793996	-1.062055	-0.302968
H222	H	-0.543996	-0.812055	-0.052968
H223	H	-0.293996	-0.562055	0.197032
H224	H	-0.043996	-0.312055	0.447032
H225	H	-0.792067	-1.213273	-0.263555
H226	H	-0.542067	-0.963273	-0.013555
H227	H	-0.292067	-0.713273	0.236445
H228	H	-0.042067	-0.463273	0.486445
H229	H	-0.793184	-1.032566	-0.408675
H230	H	-0.543184	-0.782566	-0.158675
H231	H	-0.293184	-0.532566	0.091325
H232	H	-0.043184	-0.282566	0.341325
Cl233	Cl	-0.930880	-1.205048	-0.228607
Cl234	Cl	-0.680880	-0.955048	0.021393
Cl235	Cl	-0.430880	-0.705048	0.271393
Cl236	Cl	-0.180880	-0.455048	0.521393
