data_functionalizedCrystal
_audit_creation_method	'MofGen! by Chris Wilmer'
_symmetry_space_group_name_H-M	'P1'
_symmetry_Int_Tables_number	1
_symmetry_cell_setting	triclinic
loop_
_symmetry_equiv_pos_as_xyz
  x,y,z
_cell_length_a	6.817900
_cell_length_b	19.551136
_cell_length_c	11.168144
_cell_angle_alpha	94.562696
_cell_angle_beta	108.508840
_cell_angle_gamma	101.650842
loop_
_atom_site_label
_atom_site_type_symbol
_atom_site_fract_x
_atom_site_fract_y
_atom_site_fract_z
V1	V	-4.075338	-0.096687	-0.394321
O2	O	-4.071124	0.004636	-0.386175
O3	O	-4.017677	-0.191703	-0.392239
O4	O	-4.052159	-0.095204	-0.566017
O5	O	-4.036404	-0.092532	-0.211194
V6	V	-4.556898	-0.084567	-0.372343
O7	O	-4.340903	-0.123272	-0.442532
O8	O	-4.741531	-0.057981	-0.324132
O9	O	-4.391352	0.010450	-0.374424
O10	O	-4.678509	-0.185889	-0.380489
O11	O	-4.713229	-0.088722	-0.555470
O12	O	-4.356871	-0.086049	-0.200647
C13	C	-3.859609	-0.214866	-0.386178
C14	C	-3.893920	-0.292544	-0.385620
C15	C	-3.853823	-0.319031	-0.269644
C16	C	-3.886127	-0.392016	-0.269082
C17	C	-3.958489	-0.438509	-0.384501
C18	C	-3.998601	-0.412015	-0.500493
C19	C	-3.966316	-0.339032	-0.501052
C20	C	-3.935293	-0.559522	-0.468189
C21	C	-3.967563	-0.632503	-0.467623
C22	C	-4.058077	-0.663614	-0.382779
C23	C	-4.116282	-0.621732	-0.298477
C24	C	-4.083997	-0.548749	-0.299037
C25	C	-3.993504	-0.517648	-0.383907
C26	C	-4.053007	-0.769238	-0.266185
C27	C	-4.085327	-0.842225	-0.265628
C28	C	-4.197781	-0.862222	-0.497041
C29	C	-4.165481	-0.789238	-0.497596
C30	C	-4.093085	-0.742749	-0.382164
C31	C	-3.903593	-0.091771	-0.607847
C32	C	-3.965864	-0.091187	-0.748213
C33	C	-4.028713	-0.151739	-0.828323
C34	C	-4.093074	-0.151137	-0.973400
C35	C	-4.212762	0.033609	-0.380483
C36	C	-4.157690	0.111286	-0.381048
C37	C	-4.168778	-0.089485	-0.158810
C38	C	-4.085746	-0.090065	-0.018442
H39	H	-4.189967	-0.647058	-0.229381
C40	C	-4.165911	-0.221170	-1.066368
H41	H	-4.199629	-0.211579	-1.151680
H42	H	-4.054636	-0.245340	-1.048271
H43	H	-4.288445	-0.249796	-1.056525
C44	C	-3.842011	-0.421163	-0.141506
H45	H	-3.871618	-0.471287	-0.157708
H46	H	-3.696736	-0.402830	-0.090018
H47	H	-3.930500	-0.407361	-0.098095
H48	H	-4.052685	-0.863788	-0.171183
H49	H	-4.057523	-0.449875	-0.594468
H50	H	-3.994057	-0.731385	-0.172193
C51	C	-4.277353	-0.913356	-0.624000
H52	H	-4.290822	-0.960616	-0.607058
H53	H	-4.412038	-0.907770	-0.675689
H54	H	-4.178255	-0.903237	-0.667572
H55	H	-3.959715	-0.038901	-0.787033
C56	C	-4.010317	-0.309889	-0.628625
H57	H	-3.980705	-0.259764	-0.612426
H58	H	-3.921801	-0.323704	-0.671993
H59	H	-4.155590	-0.328210	-0.680152
H60	H	-4.198118	-0.767672	-0.592036
H61	H	-4.034884	-0.204025	-0.789505
H62	H	-3.920160	-0.666598	-0.536264
C63	C	-3.774204	-0.267899	-0.142675
H64	H	-3.754966	-0.294131	-0.073523
H65	H	-3.642397	-0.236748	-0.134040
H66	H	-3.876163	-0.241277	-0.142124
C67	C	-4.148057	-0.502684	-0.206333
H68	H	-4.206608	-0.531660	-0.155727
H69	H	-4.025913	-0.468138	-0.152359
H70	H	-4.251224	-0.479842	-0.253735
H71	H	-3.861588	-0.534200	-0.537285
C72	C	-4.012915	-0.020027	-0.925487
H73	H	-4.016653	0.018367	-0.972566
H74	H	-4.105466	-0.019847	-0.877399
H75	H	-3.871658	-0.015387	-0.869153
