data_functionalizedCrystal
_audit_creation_method	'MofGen! by Chris Wilmer'
_symmetry_space_group_name_H-M	'P1'
_symmetry_Int_Tables_number	1
_symmetry_cell_setting	triclinic
loop_
_symmetry_equiv_pos_as_xyz
  x,y,z
_cell_length_a	16.120530
_cell_length_b	16.120484
_cell_length_c	16.120297
_cell_angle_alpha	95.614431
_cell_angle_beta	90.128140
_cell_angle_gamma	90.167327
loop_
_atom_site_label
_atom_site_type_symbol
_atom_site_fract_x
_atom_site_fract_y
_atom_site_fract_z
Zn1	Zn	1.224987	-0.422264	-0.554813
Zn2	Zn	1.724987	0.077736	-0.054813
Zn3	Zn	1.224883	-0.554948	-0.422118
Zn4	Zn	1.724883	-0.054948	0.077882
Zn5	Zn	1.093726	-0.408180	-0.408056
Zn6	Zn	1.593726	0.091820	0.091944
Zn7	Zn	1.078880	-0.554181	-0.554051
Zn8	Zn	1.578880	-0.054181	-0.054051
O9	O	1.155619	-0.484893	-0.484760
O10	O	1.655619	0.015107	0.015240
O11	O	1.341009	-0.446081	-0.543415
O12	O	1.841009	0.053919	-0.043415
O13	O	1.213654	-0.529906	-0.303620
O14	O	1.713654	-0.029906	0.196380
O15	O	1.117395	-0.293418	-0.421958
O16	O	1.617395	0.206582	0.078042
O17	O	1.340932	-0.543563	-0.445925
O18	O	1.840932	-0.043563	0.054075
O19	O	1.213832	-0.303765	-0.529780
O20	O	1.713832	0.196235	-0.029780
O21	O	1.117294	-0.422076	-0.293289
O22	O	1.617294	0.077924	0.206711
O23	O	0.975721	-0.421332	-0.421218
O24	O	1.475721	0.078668	0.078782
O25	O	1.092092	-0.542255	-0.670785
O26	O	1.592092	-0.042255	-0.170785
O27	O	0.964814	-0.528598	-0.528480
O28	O	1.464814	-0.028598	-0.028480
O29	O	1.199436	-0.445336	-0.671345
O30	O	1.699436	0.054664	-0.171345
O31	O	1.199258	-0.671477	-0.445185
O32	O	1.699258	-0.171477	0.054815
O33	O	1.091990	-0.670913	-0.542116
O34	O	1.591990	-0.170913	-0.042116
C35	C	0.940181	-0.473354	-0.473241
C36	C	1.440181	0.026646	0.026759
C37	C	0.848013	-0.468438	-0.468334
C38	C	1.348013	0.031562	0.031666
C39	C	0.679262	-0.459445	-0.459381
C40	C	1.179262	0.040555	0.040619
C41	C	0.632810	-0.510407	-0.510202
C42	C	1.132810	-0.010407	-0.010202
C43	C	0.538911	-0.505403	-0.505220
C44	C	1.038911	-0.005403	-0.005220
C45	C	0.773169	-0.464448	-0.464361
C46	C	1.273169	0.035552	0.035639
C47	C	1.144023	-0.701438	-0.495113
C48	C	1.644023	-0.201438	0.004887
C49	C	1.139137	-0.794083	-0.499574
C50	C	1.639137	-0.294083	0.000426
C51	C	1.130220	-0.963706	-0.507736
C52	C	1.630220	-0.463706	-0.007736
C53	C	1.181166	-1.005249	-0.461804
C54	C	1.681166	-0.505249	0.038196
C55	C	1.176204	-1.099633	-0.466346
C56	C	1.676204	-0.599633	0.033654
C57	C	1.135180	-0.869313	-0.503196
C58	C	1.635180	-0.369313	-0.003196
C59	C	1.371899	-0.496479	-0.496324
C60	C	1.871899	0.003521	0.003676
C61	C	1.464064	-0.501416	-0.501252
C62	C	1.964064	-0.001416	-0.001252
C63	C	1.144119	-0.495281	-0.702152
C64	C	1.644119	0.004719	-0.202152
C65	C	1.139219	-0.499708	-0.794791
C66	C	1.639219	0.000292	-0.294791
C67	C	1.167282	-0.267505	-0.474385
C68	C	1.667282	0.232495	0.025615
C69	C	1.172251	-0.174867	-0.469964
C70	C	1.672251	0.325133	0.030036
C71	C	1.130243	-0.507770	-0.964403
C72	C	1.630243	-0.007770	-0.464403
C73	C	1.181172	-0.461776	-1.005965
C74	C	1.681172	0.038224	-0.505965
C75	C	1.176177	-0.466262	-1.100342
C76	C	1.676177	0.033738	-0.600342
C77	C	1.135236	-0.503285	-0.870017
C78	C	1.635236	-0.003285	-0.370017
C79	C	1.167125	-0.474489	-0.268213
C80	C	1.667125	0.025511	0.231787
C81	C	1.172198	-0.469836	-0.175571
C82	C	1.672198	0.030164	0.324429
H83	H	0.648511	-0.412060	-0.412135
H84	H	1.148511	0.087940	0.087865
C85	C	1.066258	-1.011416	-0.565457
C86	C	1.566258	-0.511416	-0.065457
N87	N	1.018079	-1.047361	-0.608926
N88	N	1.518079	-0.547361	-0.108926
C89	C	0.674354	-0.574433	-0.574029
C90	C	1.174354	-0.074433	-0.074029
N91	N	0.705648	-0.622658	-0.622099
N92	N	1.205648	-0.122658	-0.122099
H93	H	1.082894	-0.550512	-0.999698
H94	H	1.582894	-0.050512	-0.499698
C95	C	1.245118	-0.957537	-0.404065
C96	C	1.745118	-0.457537	0.095935
N97	N	1.293282	-0.921596	-0.360573
N98	N	1.793282	-0.421596	0.139427
C99	C	1.245151	-0.404037	-0.958283
C100	C	1.745151	0.095963	-0.458283
N101	N	1.293341	-0.360553	-0.922365
N102	N	1.793341	0.139447	-0.422365
