data_functionalizedCrystal
_audit_creation_method	'MofGen! by Chris Wilmer'
_symmetry_space_group_name_H-M	'P1'
_symmetry_Int_Tables_number	1
_symmetry_cell_setting	triclinic
loop_
_symmetry_equiv_pos_as_xyz
  x,y,z
_cell_length_a	19.902436
_cell_length_b	14.446369
_cell_length_c	14.446369
_cell_angle_alpha	59.995450
_cell_angle_beta	90.000742
_cell_angle_gamma	59.998044
loop_
_atom_site_label
_atom_site_type_symbol
_atom_site_fract_x
_atom_site_fract_y
_atom_site_fract_z
Zr1	Zr	0.647326	1.013143	-0.121454
O2	O	0.540033	1.206288	-0.269284
O3	O	0.680216	0.820016	-0.076130
O4	O	0.680214	1.013146	-0.269260
O5	O	0.540036	1.013150	0.076182
O6	O	0.790793	1.013128	-0.269247
O7	O	0.540034	1.013158	-0.076155
O8	O	0.790795	0.667654	0.076226
O9	O	0.540034	1.358624	-0.269291
O10	O	0.776768	0.899432	-0.056798
O11	O	0.694245	0.899439	0.056880
O12	O	0.694244	1.126825	-0.170505
O13	O	0.611722	1.126832	-0.056827
Zr14	Zr	0.823689	1.013101	0.121526
Zr15	Zr	0.823686	1.013115	-0.121434
Zr16	Zr	0.647329	1.013130	0.121506
Zr17	Zr	0.647327	1.256101	-0.121465
Zr18	Zr	0.823688	0.770143	0.121537
O19	O	0.790799	1.206228	0.076202
O20	O	0.790794	1.206247	-0.269256
O21	O	0.540037	1.206269	0.076174
O22	O	0.930982	0.819957	0.269356
O23	O	0.930977	0.819976	-0.076102
O24	O	0.680220	0.819997	0.269328
O25	O	0.930979	1.013095	-0.076111
O26	O	0.790800	1.013099	0.269331
O27	O	0.680221	1.013117	0.269319
O28	O	0.930981	1.013086	0.076226
O29	O	0.680217	1.358601	-0.269276
O30	O	0.790798	0.667644	0.269347
O31	O	0.930981	0.667621	0.269363
O32	O	0.930978	0.667631	0.076242
O33	O	0.540036	1.358613	-0.076170
O34	O	0.680219	1.358590	-0.076155
O35	O	0.776771	0.899420	0.170577
O36	O	0.859293	0.899413	0.056899
O37	O	0.776769	1.126805	-0.056809
O38	O	0.694247	1.126812	0.056870
C39	C	0.735505	0.709219	0.000050
C40	C	0.735505	0.606077	0.000054
C41	C	0.514907	1.013158	0.000011
C42	C	0.440038	1.013170	0.000003
C43	C	0.683707	0.459072	0.072080
C44	C	0.683426	0.566692	0.071789
C45	C	0.697535	0.655086	-0.123491
C46	C	0.697145	0.547853	-0.123117
C47	C	0.825309	0.372602	0.050512
C48	C	0.825177	0.478752	0.053033
C49	C	0.168036	1.013106	0.000047
C50	C	0.144469	1.156549	-0.071338
C51	C	0.222306	1.156639	-0.071735
C52	C	0.302979	1.013139	0.000025
C53	C	0.300566	0.941907	-0.052270
C54	C	0.222339	0.942824	-0.052798
C55	C	0.223328	0.939868	0.123759
C56	C	0.300250	0.942564	0.123569
C57	C	0.379246	1.013150	0.000013
C58	C	0.091771	1.013091	0.000054
C59	C	0.956107	1.013086	0.000061
C60	C	1.030977	1.013074	0.000069
C61	C	0.735503	1.013139	-0.303870
C62	C	0.735502	1.013145	-0.407013
C63	C	0.735509	1.317026	0.000022
C64	C	0.735510	1.420168	0.000017
C65	C	0.683203	1.156546	-0.625395
C66	C	0.683424	1.156643	-0.518163
C67	C	0.825172	0.941898	-0.410323
C68	C	0.824891	0.942809	-0.518093
C69	C	0.698873	0.939876	-0.516743
C70	C	0.697053	0.942579	-0.410774
C71	C	0.735511	1.013106	0.303942
C72	C	0.735513	1.013100	0.407085
C73	C	0.956105	0.709183	0.000074
C74	C	1.030974	0.606029	0.000088
C75	C	0.735509	0.709202	0.303956
C76	C	0.735510	0.606055	0.407103
C77	C	0.956109	0.709166	0.303981
C78	C	1.030980	0.606007	0.407137
C79	C	0.514905	1.317078	-0.303909
C80	C	0.440035	1.420238	-0.407065
C81	C	0.514909	1.317061	-0.000003
C82	C	0.440040	1.420216	-0.000016
C83	C	0.735505	1.317042	-0.303884
C84	C	0.735505	1.420190	-0.407032
C85	C	1.023056	0.557597	-0.059265
C86	C	1.093397	0.460686	-0.059275
C87	C	1.171655	0.412202	0.000074
C88	C	1.179571	0.460644	0.059428
C89	C	1.109231	0.557560	0.059432
C90	C	1.109223	0.557558	0.396241
C91	C	1.179578	0.460642	0.493158
C92	C	1.171689	0.412170	0.600969
C93	C	1.093437	0.460628	0.611863
C94	C	1.023084	0.557549	0.514947
C95	C	0.361792	1.468698	-0.396169
C96	C	0.291437	1.565645	-0.493086
C97	C	0.299326	1.614122	-0.600897
C98	C	0.377577	1.565658	-0.611791
C99	C	0.447931	1.468720	-0.514875
C100	C	0.447958	1.468658	0.059326
C101	C	0.377618	1.565595	0.059310
C102	C	0.299360	1.614083	-0.000043
C103	C	0.291443	1.565636	-0.059393
C104	C	0.361783	1.468707	-0.059382
C105	C	0.683211	0.459740	0.482091
C106	C	0.683431	0.566673	0.374752
C107	C	0.825181	0.479179	0.481677
C108	C	0.824900	0.371792	0.588547
C109	C	0.698883	0.546785	0.590111
C110	C	0.697062	0.655267	0.481428
H111	H	0.708895	0.529972	0.162763
Cl112	Cl	1.260142	0.290322	0.722797
Cl113	Cl	0.751644	0.513915	-0.210504
H114	H	1.243298	0.421154	0.107748
H115	H	0.221029	1.212812	-0.036930
H116	H	0.617393	1.212554	-0.519796
Cl117	Cl	1.083426	0.399803	-0.133892
Cl118	Cl	0.752957	0.699599	-0.209996
H119	H	1.087026	0.421147	0.699655
Cl120	Cl	0.596487	0.797619	-0.186331
Cl121	Cl	0.924724	0.618436	0.528664
H122	H	0.959341	0.597071	-0.107608
Cl123	Cl	0.546291	1.407800	-0.528593
H124	H	0.302116	0.991384	-0.142439
Cl125	Cl	0.388948	0.780906	0.212592
H126	H	0.708845	0.529206	0.320967
H127	H	1.243287	0.421197	0.484268
Cl128	Cl	1.119200	0.618425	0.134063
Cl129	Cl	1.260075	0.290361	0.000062
H130	H	0.511674	1.429187	0.107666
Cl131	Cl	0.581485	0.704646	0.290936
Cl132	Cl	0.387589	1.626473	0.133933
H133	H	0.220531	1.212872	-0.162991
H134	H	1.115662	0.597010	0.308464
Cl135	Cl	0.351852	1.407775	-0.260646
H136	H	0.708388	0.370070	0.481062
Cl137	Cl	0.193074	1.626546	-0.479365
Cl138	Cl	0.193056	1.626600	-0.133997
H139	H	0.867026	0.500250	0.006006
H140	H	0.736803	0.521984	0.668335
H141	H	0.383991	1.605140	-0.699582
Cl142	Cl	0.351815	1.407811	-0.133983
Cl143	Cl	0.887969	0.513506	0.523729
Cl144	Cl	0.722658	1.243477	-0.521945
H145	H	0.633851	0.586368	0.594218
Cl146	Cl	0.210872	1.735986	-0.722725
Cl147	Cl	0.210940	1.735935	-0.000042
Cl148	Cl	0.388280	0.779003	0.024140
H149	H	0.617012	0.496991	0.479747
Cl150	Cl	0.870181	0.231667	0.588136
Cl151	Cl	0.888352	0.325509	0.709885
Cl152	Cl	0.870785	0.419639	0.402009
Cl153	Cl	0.595057	0.794976	0.402036
Cl154	Cl	0.874270	0.227894	0.188836
Cl155	Cl	0.868976	0.417592	0.193558
H156	H	0.731202	0.687386	0.506954
H157	H	0.709042	0.370195	0.163281
H158	H	0.617860	0.494847	0.037365
H159	H	0.617188	0.655505	0.036782
H160	H	0.631066	0.588564	-0.163540
Cl161	Cl	0.885179	0.332495	-0.030138
Cl162	Cl	0.083995	1.243480	-0.017466
H163	H	0.104556	1.212577	-0.162047
H164	H	0.187017	0.985766	0.167444
H165	H	0.185795	0.993450	-0.143833
H166	H	0.299873	0.994501	0.162636
Cl167	Cl	0.580992	1.243485	-0.708716
Cl168	Cl	0.254094	0.776718	0.206260
Cl169	Cl	0.722069	1.243038	-0.710286
Cl170	Cl	0.870174	1.020963	-0.595826
Cl171	Cl	0.252204	0.780343	0.022269
H172	H	0.865983	0.837564	-0.491429
H173	H	0.865837	0.836388	-0.332046
Cl174	Cl	0.598471	1.010754	-0.593987
Cl175	Cl	0.595059	1.022774	-0.411582
Cl176	Cl	0.870779	1.018275	-0.407029
H177	H	0.731193	0.837888	-0.331608
H178	H	0.736792	0.834203	-0.489285
