data_functionalizedCrystal
_audit_creation_method	'MofGen! by Chris Wilmer'
_symmetry_space_group_name_H-M	'P1'
_symmetry_Int_Tables_number	1
_symmetry_cell_setting	triclinic
loop_
_symmetry_equiv_pos_as_xyz
  x,y,z
_cell_length_a	14.519709
_cell_length_b	14.971486
_cell_length_c	13.596369
_cell_angle_alpha	89.999401
_cell_angle_beta	89.999684
_cell_angle_gamma	83.647137
loop_
_atom_site_label
_atom_site_type_symbol
_atom_site_fract_x
_atom_site_fract_y
_atom_site_fract_z
O1	O	-1.223800	-0.117245	0.081664
O2	O	-0.723800	0.382755	0.581664
O3	O	-0.955315	-0.131053	0.081694
O4	O	-0.455315	0.368947	0.581694
O5	O	-1.096754	0.006047	0.081671
O6	O	-0.596754	0.506047	0.581671
O7	O	-1.082361	-0.254345	0.081687
O8	O	-0.582361	0.245655	0.581687
O9	O	-1.096736	0.006040	-0.081912
O10	O	-0.596736	0.506040	0.418088
O11	O	-0.955297	-0.131060	-0.081889
O12	O	-0.455297	0.368940	0.418111
O13	O	-1.223783	-0.117252	-0.081919
O14	O	-0.723783	0.382748	0.418081
Zn15	Zn	-1.089537	-0.124158	-0.107876
Zn16	Zn	-0.589537	0.375842	0.392124
Zn17	Zn	-1.089560	-0.124147	0.107651
Zn18	Zn	-0.589560	0.375853	0.607651
O19	O	-1.082344	-0.254352	-0.081896
O20	O	-0.582344	0.245648	0.418104
C21	C	-0.920947	-0.130413	-0.000094
C22	C	-0.420947	0.369587	0.499906
C23	C	-0.818567	-0.128485	-0.000082
C24	C	-0.318567	0.371515	0.499918
C25	C	-1.096101	0.039369	-0.000120
C26	C	-0.596101	0.539369	0.499880
C27	C	-1.094172	0.138667	-0.000119
C28	C	-0.594172	0.638667	0.499881
C29	C	-1.258151	-0.117892	-0.000129
C30	C	-0.758151	0.382108	0.499871
C31	C	-1.360531	-0.119820	-0.000134
C32	C	-0.860531	0.380180	0.499866
C33	C	-0.443675	-0.121386	-0.000128
C34	C	0.056325	0.378614	0.499872
C35	C	-0.547982	-0.123357	-0.000115
C36	C	-0.047982	0.376643	0.499885
C37	C	-0.631118	-0.124935	-0.000104
C38	C	-0.131118	0.375065	0.499896
C39	C	-0.735431	-0.126907	-0.000093
C40	C	-0.235431	0.373093	0.499907
C41	C	-1.082996	-0.287674	-0.000103
C42	C	-0.582996	0.212326	0.499897
C43	C	-1.084925	-0.386972	-0.000098
C44	C	-0.584925	0.113028	0.499902
N45	N	-1.089528	-0.124164	-0.254968
N46	N	-0.589528	0.375836	0.245032
C47	C	-1.177264	0.195845	-0.000129
C48	C	-0.677264	0.695845	0.499871
C49	C	-1.175446	0.289146	-0.000119
C50	C	-0.675446	0.789146	0.499881
C51	C	-1.090536	0.325266	-0.000106
C52	C	-0.590536	0.825266	0.499894
C53	C	-1.007438	0.268080	-0.000093
C54	C	-0.507438	0.768080	0.499907
C55	C	-1.009257	0.174781	-0.000096
C56	C	-0.509257	0.674781	0.499904
C57	C	-1.003653	0.462545	-0.000089
C58	C	-0.503653	0.962545	0.499911
C59	C	-1.001834	0.555850	-0.000088
C60	C	-0.501834	1.055850	0.499912
C61	C	-1.169842	0.576909	-0.000112
C62	C	-0.669842	1.076909	0.499888
C63	C	-1.171661	0.483610	-0.000115
C64	C	-0.671661	0.983610	0.499885
C65	C	-1.088563	0.426431	-0.000104
C66	C	-0.588563	0.926431	0.499896
C67	C	-1.089533	-0.124166	-0.343966
C68	C	-0.589533	0.375834	0.156034
C69	C	-1.089542	-0.124160	-0.455617
C70	C	-0.589542	0.375840	0.044383
C71	C	-1.089554	-0.124150	-0.544608
C72	C	-0.589554	0.375850	-0.044608
C73	C	-1.089564	-0.124144	-0.656266
C74	C	-0.589564	0.375856	-0.156266
N75	N	-1.089576	-0.124134	0.254743
N76	N	-0.589576	0.375866	0.754743
H77	H	-1.246407	0.166444	-0.000146
H78	H	-0.746407	0.666444	0.499854
H79	H	-1.237504	0.623470	-0.000118
H80	H	-0.737504	1.123470	0.499882
H81	H	-0.932692	0.585255	-0.000093
H82	H	-0.432692	1.085255	0.499907
H83	H	-1.243107	0.335698	-0.000129
H84	H	-0.743107	0.835698	0.499871
H85	H	-0.938303	0.297496	-0.000076
H86	H	-0.438303	0.797496	0.499924
H87	H	-0.935985	0.415991	-0.000077
H88	H	-0.435985	0.915991	0.499923
H89	H	-0.941595	0.128227	-0.000087
H90	H	-0.441595	0.628227	0.499913
H91	H	-1.240802	0.454205	-0.000133
H92	H	-0.740802	0.954205	0.499867
