data_functionalizedCrystal
_audit_creation_method	'MofGen! by Chris Wilmer'
_symmetry_space_group_name_H-M	'P1'
_symmetry_Int_Tables_number	1
_symmetry_cell_setting	triclinic
loop_
_symmetry_equiv_pos_as_xyz
  x,y,z
_cell_length_a	16.776229
_cell_length_b	17.699083
_cell_length_c	17.699083
_cell_angle_alpha	83.283015
_cell_angle_beta	89.998886
_cell_angle_gamma	89.992455
loop_
_atom_site_label
_atom_site_type_symbol
_atom_site_fract_x
_atom_site_fract_y
_atom_site_fract_z
O1	O	-0.066178	0.095713	1.004078
O2	O	0.267155	0.429046	1.337412
O3	O	0.600489	0.762380	1.670745
O4	O	-0.066204	0.108165	0.783700
O5	O	0.267129	0.441499	1.117033
O6	O	0.600462	0.774832	1.450367
O7	O	-0.066183	-0.008250	0.900116
O8	O	0.267150	0.325083	1.233449
O9	O	0.600483	0.658417	1.566782
O10	O	-0.066199	0.212128	0.887663
O11	O	0.267134	0.545462	1.220996
O12	O	0.600468	0.878795	1.554330
O13	O	0.066393	-0.008257	0.900100
O14	O	0.399726	0.325076	1.233433
O15	O	0.733060	0.658410	1.566767
O16	O	0.066372	0.108158	0.783685
O17	O	0.399705	0.441492	1.117018
O18	O	0.733039	0.774825	1.450351
O19	O	0.066398	0.095706	1.004063
O20	O	0.399732	0.429039	1.337396
O21	O	0.733065	0.762373	1.670730
Zn22	Zn	0.087435	0.101931	0.893871
Zn23	Zn	0.420768	0.435264	1.227205
Zn24	Zn	0.754101	0.768598	1.560538
Zn25	Zn	-0.087241	0.101940	0.893892
Zn26	Zn	0.246093	0.435274	1.227225
Zn27	Zn	0.579426	0.768607	1.560558
O28	O	0.066378	0.212121	0.887648
O29	O	0.399711	0.545455	1.220981
O30	O	0.733044	0.878788	1.554314
C31	C	0.000105	-0.036451	0.899662
C32	C	0.333438	0.296883	1.232995
C33	C	0.666772	0.630216	1.566328
C34	C	0.000105	-0.120469	0.898323
C35	C	0.333438	0.212865	1.231656
C36	C	0.666772	0.546198	1.564990
C37	C	0.000081	0.107716	0.755495
C38	C	0.333414	0.441049	1.088829
C39	C	0.666747	0.774382	1.422162
C40	C	0.000071	0.106377	0.671477
C41	C	0.333404	0.439710	1.004811
C42	C	0.666737	0.773044	1.338144
N43	N	0.206646	0.101924	0.893863
N44	N	0.539979	0.435257	1.227196
N45	N	0.873313	0.768591	1.560530
N46	N	-0.206452	0.101941	0.893906
N47	N	0.126882	0.435275	1.227239
N48	N	0.460215	0.768608	1.560573
C49	C	0.248372	0.050396	0.945428
C50	C	0.581706	0.383730	1.278761
C51	C	0.915039	0.717063	1.612094
C52	C	0.331824	0.050396	0.945432
C53	C	0.665158	0.383729	1.278765
C54	C	0.998491	0.717062	1.612098
C55	C	0.373549	0.101927	0.893875
C56	C	0.706882	0.435260	1.227208
C57	C	1.040215	0.768594	1.560541
C58	C	0.331817	0.153457	0.842305
C59	C	0.665150	0.486790	1.175638
C60	C	0.998483	0.820124	1.508971
C61	C	0.248366	0.153454	0.842297
C62	C	0.581699	0.486787	1.175631
C63	C	0.915033	0.820120	1.508964
C64	C	0.668364	0.153472	0.842332
C65	C	1.001697	0.486805	1.175665
C66	C	1.335030	0.820139	1.508999
C67	C	0.751820	0.153473	0.842345
C68	C	1.085154	0.486806	1.175678
C69	C	1.418487	0.820140	1.509011
C70	C	0.751822	0.050414	0.945466
C71	C	1.085156	0.383748	1.278800
C72	C	1.418489	0.717081	1.612133
C73	C	0.668372	0.050411	0.945459
C74	C	1.001705	0.383744	1.278792
C75	C	1.335038	0.717077	1.612126
C76	C	0.626647	0.101938	0.893887
C77	C	0.959980	0.435271	1.227220
C78	C	1.293313	0.768604	1.560554
C79	C	0.536158	0.101937	0.893882
C80	C	0.869492	0.435270	1.227215
C81	C	1.202825	0.768603	1.560549
C82	C	0.464036	0.101932	0.893882
C83	C	0.797369	0.435265	1.227216
C84	C	1.130702	0.768599	1.560549
C85	C	0.000114	-0.169090	0.966656
C86	C	0.333448	0.164244	1.299990
C87	C	0.666781	0.497577	1.633323
C88	C	0.000107	-0.248033	0.965394
C89	C	0.333440	0.085300	1.298727
C90	C	0.666774	0.418634	1.632061
C91	C	0.000096	-0.278354	0.895798
C92	C	0.333430	0.054980	1.229131
C93	C	0.666763	0.388313	1.562464
C94	C	0.000085	-0.229727	0.827459
C95	C	0.333418	0.103607	1.160792
C96	C	0.666751	0.436940	1.494126
C97	C	0.000086	-0.150785	0.828722
C98	C	0.333420	0.182549	1.162055
C99	C	0.666753	0.515882	1.495389
C100	C	0.000078	-0.548090	0.822364
C101	C	0.333411	-0.214756	1.155697
C102	C	0.666744	0.118577	1.489030
C103	C	0.000078	-0.627038	0.821106
C104	C	0.333412	-0.293704	1.154439
C105	C	0.666745	0.039629	1.487773
C106	C	0.000099	-0.645338	0.959036
C107	C	0.333432	-0.312004	1.292369
C108	C	0.666765	0.021329	1.625703
C109	C	0.000100	-0.566396	0.960299
C110	C	0.333433	-0.233063	1.293632
C111	C	0.666767	0.100271	1.626966
C112	C	0.000084	-0.517776	0.891961
C113	C	0.333418	-0.184442	1.225294
C114	C	0.666751	0.148891	1.558627
C115	C	0.000090	-0.432177	0.893330
C116	C	0.333424	-0.098843	1.226664
C117	C	0.666757	0.234490	1.559997
C118	C	0.000096	-0.363951	0.894427
C119	C	0.333429	-0.030618	1.227761
C120	C	0.666762	0.302715	1.561094
C121	C	0.000087	0.240322	0.888102
C122	C	0.333421	0.573655	1.221435
C123	C	0.666754	0.906989	1.554768
C124	C	0.000082	0.324340	0.889440
C125	C	0.333415	0.657673	1.222773
C126	C	0.666749	0.991007	1.556107
C127	C	0.000066	0.174710	0.622856
C128	C	0.333400	0.508044	0.956190
C129	C	0.666733	0.841377	1.289523
C130	C	0.000077	0.173448	0.543913
C131	C	0.333410	0.506782	0.877246
C132	C	0.666743	0.840115	1.210580
C133	C	0.000086	0.103852	0.513592
C134	C	0.333419	0.437185	0.846926
C135	C	0.666753	0.770518	1.180259
C136	C	0.000093	0.035513	0.562219
C137	C	0.333426	0.368846	0.895553
C138	C	0.666760	0.702180	1.228886
C139	C	0.000088	0.036776	0.641161
C140	C	0.333421	0.370109	0.974495
C141	C	0.666755	0.703443	1.307828
C142	C	0.000113	0.030418	0.243856
C143	C	0.333446	0.363751	0.577190
C144	C	0.666780	0.697085	0.910523
C145	C	0.000115	0.029160	0.164908
C146	C	0.333449	0.362493	0.498242
C147	C	0.666782	0.695827	0.831575
C148	C	0.000101	0.167090	0.146608
C149	C	0.333435	0.500423	0.479942
C150	C	0.666768	0.833757	0.813275
C151	C	0.000097	0.168353	0.225550
C152	C	0.333430	0.501686	0.558883
C153	C	0.666763	0.835020	0.892217
C154	C	0.000108	0.100015	0.274170
C155	C	0.333441	0.433348	0.607504
C156	C	0.666774	0.766681	0.940837
C157	C	0.000098	0.101384	0.359769
C158	C	0.333431	0.434718	0.693103
C159	C	0.666765	0.768051	1.026436
C160	C	0.000090	0.102481	0.427995
C161	C	0.333423	0.435815	0.761328
C162	C	0.666757	0.769148	1.094661
C163	C	0.000112	0.096156	1.032268
C164	C	0.333445	0.429489	1.365601
C165	C	0.666778	0.762822	1.698934
C166	C	0.000116	0.097494	1.116286
C167	C	0.333450	0.430828	1.449619
C168	C	0.666783	0.764161	1.782953
H169	H	0.214406	0.008437	0.987414
H170	H	0.547739	0.341770	1.320748
H171	H	0.881072	0.675104	1.654081
H172	H	0.000071	-0.651721	0.764429
H173	H	0.333405	-0.318388	1.097762
H174	H	0.666738	0.014946	1.431096
Br175	Br	0.000125	-0.065299	0.123759
Br176	Br	0.333459	0.268035	0.457093
Br177	Br	0.666792	0.601368	0.790426
Br178	Br	0.611748	-0.019522	1.015435
Br179	Br	0.945082	0.313811	1.348769
Br180	Br	1.278415	0.647144	1.682102
Br181	Br	0.611742	0.223401	0.772345
Br182	Br	0.945075	0.556734	1.105678
Br183	Br	1.278408	0.890067	1.439012
Br184	Br	0.000130	-0.062327	0.309831
Br185	Br	0.333463	0.271006	0.643165
Br186	Br	0.666797	0.604339	0.976498
H187	H	0.365798	0.008438	0.987419
H188	H	0.699131	0.341771	1.320752
H189	H	1.032464	0.675104	1.654085
Br190	Br	0.000067	-0.084798	0.735980
Br191	Br	0.333400	0.248536	1.069314
Br192	Br	0.666734	0.581869	1.402647
Br193	Br	0.000113	-0.058941	0.521071
Br194	Br	0.333447	0.274393	0.854404
Br195	Br	0.666780	0.607726	1.187738
H196	H	0.000072	0.229092	0.504328
H197	H	0.333405	0.562426	0.837662
H198	H	0.666739	0.895759	1.170995
H199	H	0.000128	-0.144409	1.023330
H200	H	0.333461	0.188924	1.356663
H201	H	0.666795	0.522258	1.689997
Br202	Br	0.808453	-0.019518	1.015458
Br203	Br	1.141786	0.313815	1.348791
Br204	Br	1.475119	0.647148	1.682125
H205	H	0.000085	0.225025	0.250232
H206	H	0.333419	0.558359	0.583566
H207	H	0.666752	0.891692	0.916899
H208	H	0.365793	0.195412	0.800322
H209	H	0.699127	0.528746	1.133655
H210	H	1.032460	0.862079	1.466989
H211	H	0.000107	-0.684934	1.014680
H212	H	0.333441	-0.351601	1.348013
H213	H	0.666774	-0.018268	1.681347
Br214	Br	0.000045	0.269168	0.663998
Br215	Br	0.333379	0.602501	0.997331
Br216	Br	0.666712	0.935835	1.330664
H217	H	0.785791	0.195437	0.800358
H218	H	1.119124	0.528771	1.133691
H219	H	1.452458	0.862104	1.467024
H220	H	0.214393	0.195412	0.800308
H221	H	0.547726	0.528745	1.133641
H222	H	0.881060	0.862078	1.466974
Br223	Br	0.000120	-0.314016	1.058137
Br224	Br	0.333453	0.019317	1.391470
Br225	Br	0.666786	0.352650	1.724803
H226	H	0.000113	-0.541714	1.016971
H227	H	0.333446	-0.208380	1.350305
H228	H	0.666779	0.124953	1.683638
H229	H	0.000065	-0.508512	0.766718
H230	H	0.333398	-0.175179	1.100052
H231	H	0.666732	0.158155	1.433385
H232	H	0.000097	0.222734	0.107012
H233	H	0.333430	0.556067	0.440345
H234	H	0.666763	0.889401	0.773678
Br235	Br	0.000057	-0.270875	0.733005
Br236	Br	0.333390	0.062458	1.066339
Br237	Br	0.666723	0.395792	1.399672
H238	H	0.000091	-0.018868	0.680748
H239	H	0.333425	0.314465	1.014082
H240	H	0.666758	0.647799	1.347415
