data_functionalizedCrystal
_audit_creation_method	'MofGen! by Chris Wilmer'
_symmetry_space_group_name_H-M	'P1'
_symmetry_Int_Tables_number	1
_symmetry_cell_setting	triclinic
loop_
_symmetry_equiv_pos_as_xyz
  x,y,z
_cell_length_a	12.811438
_cell_length_b	15.944493
_cell_length_c	14.421503
_cell_angle_alpha	90.008352
_cell_angle_beta	84.561025
_cell_angle_gamma	83.760965
loop_
_atom_site_label
_atom_site_type_symbol
_atom_site_fract_x
_atom_site_fract_y
_atom_site_fract_z
O1	O	1.392672	0.113119	-0.194205
O2	O	1.087082	0.125424	-0.168509
O3	O	1.248254	-0.002978	-0.182069
O4	O	1.231500	0.241521	-0.180645
O5	O	1.248228	-0.002963	-0.027844
O6	O	1.087057	0.125438	-0.014284
O7	O	1.392646	0.113134	-0.039979
Cu8	Cu	1.239849	0.119287	-0.013050
Cu9	Cu	1.239879	0.119270	-0.195439
O10	O	1.231475	0.241535	-0.026420
C11	C	1.047965	0.124742	-0.088109
C12	C	0.931447	0.122679	-0.078312
C13	C	0.767205	0.119779	0.019560
C14	C	0.876685	0.121718	0.010359
C15	C	0.876721	0.121703	-0.157787
C16	C	0.767242	0.119763	-0.148586
C17	C	0.712488	0.118800	-0.059910
C18	C	0.603007	0.116855	-0.050710
C19	C	0.603045	0.116846	-0.218855
C20	C	0.712524	0.118785	-0.228056
C21	C	1.247556	-0.034268	-0.104903
C22	C	1.245503	-0.127523	-0.104742
C23	C	1.340372	-0.362957	-0.112702
C24	C	1.289226	-0.413708	-0.184441
C25	C	1.241699	-0.298258	-0.104411
C26	C	1.289177	-0.413670	-0.032384
C27	C	1.238032	-0.463180	-0.104087
C28	C	1.190579	-0.347781	-0.176215
C29	C	1.190545	-0.347739	-0.024091
C30	C	1.139326	-0.398458	-0.095843
C31	C	1.243815	-0.203250	-0.104598
C32	C	1.235909	-0.558184	-0.103906
C33	C	1.431763	0.113815	-0.120382
C34	C	1.548282	0.115879	-0.130185
C35	C	1.232172	0.272825	-0.103588
C36	C	1.234225	0.366081	-0.103755
N37	N	1.239835	0.119299	0.115233
N38	N	1.239901	0.119252	-0.323722
C39	C	1.165925	0.179141	0.432905
C40	C	1.144706	0.103397	0.372856
C41	C	1.239879	0.119266	0.487118
C42	C	1.261026	0.195024	0.363079
C43	C	1.239855	0.119286	0.304399
C44	C	1.218613	0.043483	0.428434
C45	C	1.334975	0.135160	0.418659
C46	C	1.313796	0.059361	0.358635
C47	C	1.239890	0.119255	0.592378
C48	C	1.239844	0.119288	0.199141
H49	H	0.722623	0.118999	0.091764
H50	H	1.200622	-0.020590	0.456975
O51	O	0.935698	0.122785	0.096075
H52	H	0.924052	0.065235	0.137368
O53	O	1.135428	-0.309814	-0.256826
H54	H	1.176140	-0.336911	-0.323229
O55	O	1.083050	0.246119	0.475860
H56	H	1.004174	0.232722	0.457744
O57	O	1.026648	-0.419317	-0.086398
H58	H	0.985952	-0.392675	-0.146150
H59	H	1.064277	0.089959	0.352465
O60	O	0.544011	0.115770	-0.304565
H61	H	0.574400	0.058943	-0.347415
O62	O	1.396630	-0.007763	0.315920
H63	H	1.378811	-0.070538	0.342298
H64	H	1.415379	0.148627	0.439069
H65	H	0.757119	0.119572	-0.300253
H66	H	1.278937	0.259086	0.334449
H67	H	0.558427	0.116076	0.021495
H68	H	0.921319	0.122494	-0.229983
O69	O	1.135383	-0.309544	0.065700
H70	H	1.176512	-0.336056	0.125274
H71	H	1.425366	-0.347036	-0.119925
O72	O	1.344432	-0.451888	-0.274230
H73	H	1.427825	-0.437973	-0.281086
H74	H	1.330858	-0.442451	0.028392
