data_functionalizedCrystal
_audit_creation_method	'MofGen! by Chris Wilmer'
_symmetry_space_group_name_H-M	'P1'
_symmetry_Int_Tables_number	1
_symmetry_cell_setting	triclinic
loop_
_symmetry_equiv_pos_as_xyz
  x,y,z
_cell_length_a	12.759401
_cell_length_b	12.759400
_cell_length_c	12.759393
_cell_angle_alpha	89.968436
_cell_angle_beta	90.018496
_cell_angle_gamma	89.985155
loop_
_atom_site_label
_atom_site_type_symbol
_atom_site_fract_x
_atom_site_fract_y
_atom_site_fract_z
Zn1	Zn	1.606255	0.418200	0.593981
Zn2	Zn	1.606150	0.593919	0.418301
Zn3	Zn	1.430557	0.418255	0.418321
Zn4	Zn	1.430546	0.593838	0.593943
O5	O	1.518377	0.506053	0.506137
O6	O	1.753262	0.441520	0.570685
O7	O	1.582818	0.570673	0.271283
O8	O	1.453913	0.271226	0.441647
O9	O	1.753185	0.570620	0.441614
O10	O	1.582998	0.271186	0.570704
O11	O	1.453811	0.441614	0.271297
O12	O	1.283535	0.441535	0.441609
O13	O	1.453894	0.570482	0.740969
O14	O	1.283527	0.570536	0.570638
O15	O	1.582987	0.441442	0.740997
O16	O	1.582807	0.740929	0.441577
O17	O	1.453791	0.740870	0.570620
C18	C	1.245410	0.506033	0.506122
C19	C	1.128633	0.506050	0.506141
C20	C	1.518315	0.779020	0.506115
C21	C	1.518384	0.895797	0.506140
C22	C	1.073794	0.573328	0.573215
C23	C	0.964070	0.573342	0.573227
C24	C	0.964034	0.438796	0.439081
C25	C	1.073756	0.438778	0.439075
C26	C	1.128672	0.640600	0.640281
C27	C	1.073833	0.707885	0.707360
C28	C	0.964109	0.707898	0.707371
C29	C	0.909224	0.640627	0.640304
C30	C	1.518451	0.505947	0.780170
C31	C	1.518482	0.505902	0.896947
C32	C	1.792410	0.506073	0.506152
C33	C	1.909187	0.506082	0.506158
C34	C	1.518468	0.232019	0.506182
C35	C	1.518507	0.115243	0.506201
C36	C	1.585637	0.950655	0.439022
C37	C	1.585702	1.060379	0.439054
C38	C	1.451252	1.060377	0.573327
C39	C	1.451193	0.950655	0.573299
C40	C	1.652828	0.895797	0.371864
C41	C	1.720086	0.950655	0.304739
C42	C	1.720150	1.060379	0.304771
C43	C	1.652957	1.115245	0.371929
C44	C	1.518364	0.506083	0.233169
C45	C	1.518537	0.505832	0.116393
C46	C	1.585710	0.438704	0.951825
C47	C	1.585735	0.438666	1.061549
C48	C	1.451301	0.573033	1.061507
C49	C	1.451272	0.573064	0.951785
C50	C	1.652920	0.371541	0.896987
C51	C	1.720155	0.304339	0.951866
C52	C	1.720180	0.304301	1.061590
C53	C	1.652970	0.371465	1.116436
H54	H	1.218015	0.640599	0.640277
H55	H	1.396431	0.905989	0.627954
O56	O	1.785452	0.897526	0.239473
C57	C	1.918767	0.909110	0.106249
C58	C	1.844809	0.969405	0.180128
H59	H	1.966760	0.967198	0.058233
H60	H	1.973719	0.857680	0.154460
H61	H	1.870509	0.857801	0.051304
H62	H	1.892982	1.020770	0.235088
H63	H	1.789854	1.020768	0.131851
O64	O	1.127305	0.773190	0.772410
C65	C	1.296354	0.832753	0.831896
C66	C	1.235931	0.758759	0.758153
H67	H	1.384188	0.821095	0.820410
H68	H	1.274840	0.917473	0.813300
H69	H	1.274755	0.814416	0.916634
H70	H	1.257498	0.777000	0.673390
H71	H	1.257450	0.674060	0.776839
H72	H	1.774922	1.105041	0.250123
O73	O	0.910999	0.773348	0.772565
C74	C	0.922622	0.906755	0.905660
C75	C	0.982896	0.832697	0.831867
H76	H	0.980724	0.954742	0.953641
H77	H	0.871255	0.961709	0.857383
H78	H	0.871253	0.858577	0.960641
H79	H	1.034322	0.880790	0.776871
H80	H	1.034197	0.777740	0.880209
O81	O	0.802637	0.640771	0.640447
C82	C	0.645201	0.714495	0.714185
C83	C	0.765905	0.714471	0.714096
H84	H	0.615467	0.774059	0.773740
H85	H	0.615272	0.736252	0.632834
H86	H	0.615505	0.633124	0.736096
H87	H	0.795691	0.795818	0.692231
H88	H	0.795763	0.692655	0.795457
O89	O	0.910559	0.373564	0.373959
C90	C	0.741508	0.313938	0.314546
C91	C	0.801934	0.387878	0.388339
H92	H	0.653674	0.325469	0.326163
H93	H	0.762973	0.332293	0.229776
H94	H	0.763152	0.229248	0.333121
H95	H	0.780322	0.472593	0.369859
H96	H	0.780464	0.369432	0.473087
O97	O	1.127195	0.373463	0.374017
C98	C	1.296217	0.313857	0.314520
C99	C	1.235827	0.387868	0.388265
H100	H	1.384056	0.325493	0.325998
H101	H	1.274739	0.229142	0.333120
H102	H	1.274551	0.332196	0.229783
H103	H	1.257461	0.369624	0.473027
H104	H	1.257310	0.472560	0.369575
O105	O	1.386013	1.113833	0.638454
C106	C	1.326559	1.282867	0.698041
C107	C	1.400481	1.222462	0.624217
H108	H	1.338247	1.370704	0.686572
H109	H	1.241818	1.261454	0.679512
H110	H	1.344939	1.261151	0.782757
H111	H	1.382196	1.244145	0.539476
H112	H	1.485200	1.243880	0.642837
O113	O	1.386126	0.638246	1.114943
C114	C	1.326560	0.697709	1.283960
C115	C	1.400438	0.623814	1.223577
H116	H	1.338090	0.686050	1.371800
H117	H	1.344979	0.782455	1.262442
H118	H	1.241854	0.679273	1.262328
H119	H	1.485169	0.642154	1.245176
H120	H	1.381928	0.539089	1.245099
H121	H	1.652984	0.371417	1.205780
O122	O	1.785288	0.239041	0.898480
C123	C	1.799436	0.097189	0.774688
C124	C	1.725557	0.171094	0.835058
H125	H	1.751173	0.042221	0.723413
H126	H	1.854329	0.145385	0.723241
H127	H	1.847509	0.049201	0.832784
H128	H	1.677416	0.219098	0.777037
H129	H	1.670733	0.122838	0.886520
O130	O	1.785582	0.238988	1.114738
C131	C	1.918878	0.105677	1.103193
C132	C	1.844874	0.179606	1.042876
H133	H	1.966819	0.057632	1.045120
H134	H	1.973877	0.153852	1.154527
H135	H	1.870661	0.050762	1.154599
H136	H	1.893007	0.234535	0.991413
H137	H	1.789872	0.131365	0.991609
H138	H	1.652780	0.806454	0.371827
H139	H	1.653024	1.204589	0.371958
H140	H	1.652910	0.371567	0.807644
H141	H	1.396513	0.627767	0.907102
