data_functionalizedCrystal
_audit_creation_method	'MofGen! by Chris Wilmer'
_symmetry_space_group_name_H-M	'P1'
_symmetry_Int_Tables_number	1
_symmetry_cell_setting	triclinic
loop_
_symmetry_equiv_pos_as_xyz
  x,y,z
_cell_length_a	13.897449
_cell_length_b	16.625545
_cell_length_c	13.897441
_cell_angle_alpha	89.969815
_cell_angle_beta	89.978743
_cell_angle_gamma	90.026384
loop_
_atom_site_label
_atom_site_type_symbol
_atom_site_fract_x
_atom_site_fract_y
_atom_site_fract_z
Zn1	Zn	1.474630	-0.320966	-0.545446
Zn2	Zn	1.724630	-0.070966	-0.295446
Zn3	Zn	1.974630	0.179034	-0.045446
Zn4	Zn	2.224630	0.429034	0.204554
Zn5	Zn	1.474507	-0.455814	-0.384146
Zn6	Zn	1.724507	-0.205814	-0.134146
Zn7	Zn	1.974507	0.044186	0.115854
Zn8	Zn	2.224507	0.294186	0.365854
Zn9	Zn	1.313325	-0.321001	-0.384157
Zn10	Zn	1.563325	-0.071001	-0.134157
Zn11	Zn	1.813325	0.178999	0.115843
Zn12	Zn	2.063325	0.428999	0.365843
Zn13	Zn	1.313278	-0.455762	-0.545391
Zn14	Zn	1.563278	-0.205762	-0.295391
Zn15	Zn	1.813278	0.044238	-0.045391
Zn16	Zn	2.063278	0.294238	0.204609
O17	O	1.393935	-0.388386	-0.464785
O18	O	1.643935	-0.138386	-0.214785
O19	O	1.893935	0.111614	0.035215
O20	O	2.143935	0.361614	0.285215
O21	O	1.609595	-0.338861	-0.524068
O22	O	1.859595	-0.088861	-0.274068
O23	O	2.109595	0.161139	-0.024068
O24	O	2.359595	0.411139	0.225932
O25	O	1.453095	-0.437967	-0.249165
O26	O	1.703095	-0.187967	0.000835
O27	O	1.953095	0.062033	0.250835
O28	O	2.203095	0.312033	0.500835
O29	O	1.334793	-0.208164	-0.405580
O30	O	1.584793	0.041836	-0.155580
O31	O	1.834793	0.291836	0.094420
O32	O	2.084793	0.541836	0.344420
O33	O	1.609505	-0.437933	-0.405561
O34	O	1.859505	-0.187933	-0.155561
O35	O	2.109505	0.062067	0.094439
O36	O	2.359505	0.312067	0.344439
O37	O	1.453303	-0.208138	-0.524078
O38	O	1.703303	0.041862	-0.274078
O39	O	1.953303	0.291862	-0.024078
O40	O	2.203303	0.541862	0.225922
O41	O	1.334674	-0.338920	-0.249174
O42	O	1.584674	-0.088920	0.000826
O43	O	1.834674	0.161080	0.250826
O44	O	2.084674	0.411080	0.500826
O45	O	1.178337	-0.338870	-0.405526
O46	O	1.428337	-0.088870	-0.155526
O47	O	1.678337	0.161130	0.094474
O48	O	1.928337	0.411130	0.344474
O49	O	1.334714	-0.437845	-0.680380
O50	O	1.584714	-0.187845	-0.430380
O51	O	1.834714	0.062155	-0.180380
O52	O	2.084714	0.312155	0.069620
O53	O	1.178303	-0.437879	-0.523984
O54	O	1.428303	-0.187879	-0.273984
O55	O	1.678303	0.062121	-0.023984
O56	O	1.928303	0.312121	0.226016
O57	O	1.453258	-0.338811	-0.680420
O58	O	1.703258	-0.088811	-0.430420
O59	O	1.953258	0.161189	-0.180420
O60	O	2.203258	0.411189	0.069580
O61	O	1.453050	-0.568639	-0.405508
O62	O	1.703050	-0.318639	-0.155508
O63	O	1.953050	-0.068639	0.094492
O64	O	2.203050	0.181361	0.344492
O65	O	1.334595	-0.568601	-0.523974
O66	O	1.584595	-0.318601	-0.273974
O67	O	1.834595	-0.068601	-0.023974
O68	O	2.084595	0.181399	0.226026
C69	C	1.143321	-0.388373	-0.464751
C70	C	1.393321	-0.138373	-0.214751
C71	C	1.643321	0.111627	0.035249
C72	C	1.893321	0.361627	0.285249
C73	C	1.036107	-0.388387	-0.464760
C74	C	1.286107	-0.138387	-0.214760
C75	C	1.536107	0.111613	0.035240
C76	C	1.786107	0.361613	0.285240
C77	C	0.949037	-0.388390	-0.464776
C78	C	1.199037	-0.138390	-0.214776
C79	C	1.449037	0.111610	0.035224
C80	C	1.699037	0.361610	0.285224
C81	C	0.839804	-0.388396	-0.464805
C82	C	1.089804	-0.138396	-0.214805
C83	C	1.339804	0.111604	0.035195
C84	C	1.589804	0.361604	0.285195
C85	C	1.393830	-0.597877	-0.464754
C86	C	1.643830	-0.347877	-0.214754
C87	C	1.893830	-0.097877	0.035246
C88	C	2.143830	0.152123	0.285246
C89	C	1.393874	-0.687498	-0.464774
C90	C	1.643874	-0.437498	-0.214774
C91	C	1.893874	-0.187498	0.035226
C92	C	2.143874	0.062502	0.285226
C93	C	1.393911	-0.760280	-0.464793
C94	C	1.643911	-0.510280	-0.214793
C95	C	1.893911	-0.260280	0.035207
C96	C	2.143911	-0.010280	0.285207
C97	C	1.393967	-0.851589	-0.464814
C98	C	1.643967	-0.601589	-0.214814
C99	C	1.893967	-0.351589	0.035186
C100	C	2.143967	-0.101589	0.285186
C101	C	1.394017	-0.924365	-0.464826
C102	C	1.644017	-0.674365	-0.214826
C103	C	1.894017	-0.424365	0.035174
C104	C	2.144017	-0.174365	0.285174
C105	C	1.394072	-1.015679	-0.464846
C106	C	1.644072	-0.765679	-0.214846
C107	C	1.894072	-0.515679	0.035154
C108	C	2.144072	-0.265679	0.285154
C109	C	1.645528	-0.388399	-0.464819
C110	C	1.895528	-0.138399	-0.214819
C111	C	2.145528	0.111601	0.035181
C112	C	2.395528	0.361601	0.285181
C113	C	1.752742	-0.388404	-0.464834
C114	C	2.002742	-0.138404	-0.214834
C115	C	2.252742	0.111596	0.035166
C116	C	2.502742	0.361596	0.285166
C117	C	1.393994	-0.388318	-0.716378
C118	C	1.643994	-0.138318	-0.466378
C119	C	1.893994	0.111682	-0.216378
C120	C	2.143994	0.361682	0.033622
C121	C	1.394019	-0.388289	-0.823592
C122	C	1.644019	-0.138289	-0.573592
C123	C	1.894019	0.111711	-0.323592
C124	C	2.144019	0.361711	-0.073592
C125	C	1.394066	-0.178077	-0.464836
C126	C	1.644066	0.071923	-0.214836
C127	C	1.894066	0.321923	0.035164
C128	C	2.144066	0.571923	0.285164
C129	C	1.394123	-0.088456	-0.464858
C130	C	1.644123	0.161544	-0.214858
C131	C	1.894123	0.411544	0.035142
C132	C	2.144123	0.661544	0.285142
C133	C	1.394039	-0.388266	-0.910662
C134	C	1.644039	-0.138266	-0.660662
C135	C	1.894039	0.111734	-0.410662
C136	C	2.144039	0.361734	-0.160662
C137	C	1.394067	-0.388230	-1.019894
C138	C	1.644067	-0.138230	-0.769894
C139	C	1.894067	0.111770	-0.519894
C140	C	2.144067	0.361770	-0.269894
C141	C	1.393932	-0.388395	-0.214170
C142	C	1.643932	-0.138395	0.035830
C143	C	1.893932	0.111605	0.285830
C144	C	2.143932	0.361605	0.535830
C145	C	1.394093	-0.388197	-0.106957
C146	C	1.644093	-0.138197	0.143043
C147	C	1.894093	0.111803	0.393043
C148	C	2.144093	0.361803	0.643043
