data_functionalizedCrystal
_audit_creation_method	'MofGen! by Chris Wilmer'
_symmetry_space_group_name_H-M	'P1'
_symmetry_Int_Tables_number	1
_symmetry_cell_setting	triclinic
loop_
_symmetry_equiv_pos_as_xyz
  x,y,z
_cell_length_a	18.215407
_cell_length_b	18.215405
_cell_length_c	18.215399
_cell_angle_alpha	90.030551
_cell_angle_beta	90.019833
_cell_angle_gamma	90.025333
loop_
_atom_site_label
_atom_site_type_symbol
_atom_site_fract_x
_atom_site_fract_y
_atom_site_fract_z
Zn1	Zn	1.125072	-0.292983	0.416103
Zn2	Zn	1.124980	-0.416054	0.293031
Zn3	Zn	1.002005	-0.293007	0.293050
Zn4	Zn	1.001970	-0.416013	0.416056
O5	O	1.063507	-0.354514	0.354560
O6	O	1.228044	-0.309316	0.399788
O7	O	1.108643	-0.399759	0.190049
O8	O	1.018382	-0.190020	0.309401
O9	O	1.227977	-0.399736	0.309368
O10	O	1.108799	-0.190002	0.399807
O11	O	1.018293	-0.309357	0.190063
O12	O	0.899016	-0.309317	0.309355
O13	O	1.018324	-0.399666	0.519046
O14	O	0.898991	-0.399689	0.399727
O15	O	1.108766	-0.309276	0.519081
O16	O	1.108610	-0.519033	0.309322
O17	O	1.018235	-0.519003	0.399708
C18	C	0.872301	-0.354502	0.354539
C19	C	0.790502	-0.354514	0.354547
C20	C	0.602314	-0.401645	0.401544
C21	C	0.525455	-0.401647	0.401554
C22	C	0.525452	-0.307397	0.307591
C23	C	0.602309	-0.307392	0.307586
C24	C	0.640738	-0.354520	0.354562
C25	C	0.487022	-0.354528	0.354576
C26	C	0.403688	-0.354530	0.354585
C27	C	0.724077	-0.354517	0.354553
C28	C	1.063429	-0.545721	0.354524
C29	C	1.063463	-0.627520	0.354534
C30	C	1.110632	-0.815705	0.307556
C31	C	1.110665	-0.892563	0.307574
C32	C	1.016476	-0.892572	0.401616
C33	C	1.016447	-0.815715	0.401601
C34	C	1.063524	-0.777283	0.354567
C35	C	1.063586	-0.930999	0.354600
C36	C	1.063621	-1.014333	0.354619
C37	C	1.063490	-0.693944	0.354548
C38	C	1.255460	-0.354528	0.354581
C39	C	1.337259	-0.354533	0.354591
C40	C	1.063552	-0.354464	0.546513
C41	C	1.063571	-0.354442	0.628312
C42	C	1.063605	-0.162561	0.354611
C43	C	1.063647	-0.080763	0.354633
C44	C	1.063504	-0.354512	0.163353
C45	C	1.063628	-0.354326	0.081555
C46	C	1.110681	-0.307332	0.816525
C47	C	1.110690	-0.307311	0.893384
C48	C	1.016513	-0.401438	0.893336
C49	C	1.016501	-0.401455	0.816479
C50	C	1.063589	-0.354403	0.778075
C51	C	1.063610	-0.354365	0.931791
C52	C	1.063619	-0.354342	1.015125
C53	C	1.063579	-0.354425	0.694736
H54	H	0.633601	-0.440018	0.439797
C55	C	0.964689	-0.934851	0.453345
C56	C	0.881027	-0.924355	0.447257
C57	C	0.829237	-0.966632	0.498985
C58	C	0.861108	-1.019406	0.556801
C59	C	0.944775	-1.029904	0.562891
C60	C	0.996565	-0.987627	0.511163
H61	H	0.857430	-0.885286	0.404456
H62	H	0.767301	-0.958860	0.494476
H63	H	0.822770	-1.050702	0.595093
H64	H	0.968372	-1.068973	0.605692
H65	H	1.058500	-0.995399	0.515672
C66	C	1.162471	-0.255571	0.774280
C67	C	1.220230	-0.287470	0.721446
C68	C	1.272020	-0.235705	0.679204
C69	C	1.266051	-0.152041	0.689796
C70	C	1.208290	-0.120138	0.742633
C71	C	1.156500	-0.171902	0.784875
H72	H	1.224650	-0.349407	0.713603
H73	H	1.314779	-0.259323	0.640091
H74	H	1.304389	-0.113722	0.658526
H75	H	1.203870	-0.058201	0.750476
H76	H	1.113742	-0.148285	0.823988
C77	C	0.644582	-0.255551	0.255901
C78	C	0.729122	-0.255543	0.255899
C79	C	0.771395	-0.203703	0.204219
C80	C	0.729128	-0.151870	0.152541
C81	C	0.644583	-0.151876	0.152541
C82	C	0.602310	-0.203716	0.204221
H83	H	0.760415	-0.293915	0.294156
H84	H	0.833981	-0.203699	0.204220
H85	H	0.760421	-0.113495	0.114285
H86	H	0.613290	-0.113505	0.114284
H87	H	0.539724	-0.203720	0.204221
H88	H	1.148966	-0.784415	0.269260
C89	C	1.162493	-0.255532	0.935678
C90	C	1.214284	-0.203778	0.893432
C91	C	1.266088	-0.151996	0.935727
C92	C	1.266101	-0.151968	1.020267
C93	C	1.214308	-0.203724	1.062517
C94	C	1.162504	-0.255506	1.020223
H95	H	1.214276	-0.203797	0.830847
H96	H	1.304429	-0.113682	0.904450
H97	H	1.304450	-0.113635	1.051576
H98	H	1.214316	-0.203705	1.125103
H99	H	1.124163	-0.293820	1.051500
H100	H	0.494174	-0.440020	0.439813
H101	H	0.978148	-0.439786	0.785173
C102	C	0.964626	-0.773445	0.453318
C103	C	0.912838	-0.815715	0.505048
C104	C	0.861023	-0.773444	0.556765
C105	C	0.860996	-0.688904	0.556751
C106	C	0.912786	-0.646630	0.505019
C107	C	0.964601	-0.688900	0.453302
H108	H	0.912856	-0.878301	0.505060
H109	H	0.822685	-0.804739	0.595060
H110	H	0.822640	-0.657613	0.595035
H111	H	0.912768	-0.584044	0.505008
H112	H	1.002940	-0.657605	0.415007
C113	C	1.162484	-0.934827	0.255861
C114	C	1.214266	-0.892551	0.204130
C115	C	1.266089	-0.934814	0.152416
C116	C	1.266130	-1.019354	0.152433
C117	C	1.214346	-1.061636	0.204166
C118	C	1.162523	-1.019372	0.255880
H119	H	1.214237	-0.829965	0.204116
H120	H	1.304423	-0.903515	0.114120
H121	H	1.304493	-1.050641	0.114151
H122	H	1.214375	-1.124222	0.204180
H123	H	1.124189	-1.050672	0.294176
H124	H	0.494153	-0.269028	0.269344
C125	C	0.964729	-0.453210	0.935576
C126	C	0.881067	-0.447219	0.924998
C127	C	0.829288	-0.498999	0.967233
C128	C	0.861170	-0.556771	1.020047
C129	C	0.944836	-0.562765	1.030627
C130	C	0.996616	-0.510984	0.988392
H131	H	0.857462	-0.404451	0.885901
H132	H	0.767352	-0.494562	0.959401
H133	H	0.822839	-0.595102	1.051312
H134	H	0.968441	-0.605533	1.069725
H135	H	1.058551	-0.515422	0.996225
