data_functionalizedCrystal
_audit_creation_method	'MofGen! by Chris Wilmer'
_symmetry_space_group_name_H-M	'P1'
_symmetry_Int_Tables_number	1
_symmetry_cell_setting	triclinic
loop_
_symmetry_equiv_pos_as_xyz
  x,y,z
_cell_length_a	8.634740
_cell_length_b	9.798715
_cell_length_c	8.559649
_cell_angle_alpha	90.001415
_cell_angle_beta	85.174486
_cell_angle_gamma	90.003487
loop_
_atom_site_label
_atom_site_type_symbol
_atom_site_fract_x
_atom_site_fract_y
_atom_site_fract_z
O1	O	1.985470	0.113482	0.511627
O2	O	1.541599	0.113484	0.468724
O3	O	1.802640	0.113482	0.263594
O4	O	1.724429	0.113485	0.716757
O5	O	1.802623	-0.113501	0.263591
O6	O	1.541582	-0.113498	0.468721
O7	O	1.985453	-0.113500	0.511624
Zn8	Zn	1.763514	-0.149537	0.490172
Zn9	Zn	1.763537	0.149522	0.490176
O10	O	1.724412	-0.113497	0.716754
C11	C	1.485291	-0.000006	0.459004
C12	C	1.317539	-0.000005	0.430026
N13	N	1.763510	-0.353637	0.490170
C14	C	1.873170	-0.421415	0.403600
C15	C	1.873195	-0.578578	0.403598
C16	C	2.041761	-0.000006	0.521344
C17	C	2.209512	0.000001	0.550322
C18	C	1.808558	-0.000007	0.204975
C19	C	1.826201	0.000001	0.030311
N20	N	1.763555	0.353621	0.490168
C21	C	1.718493	-0.000006	0.775373
C22	C	1.700851	-0.000004	0.950037
H23	H	1.245360	-0.000010	0.675483
H24	H	1.281685	0.000033	0.304857
H25	H	1.580036	-0.000008	0.014934
C26	C	2.007301	0.116677	-0.151512
C27	C	1.989315	-0.000001	-0.057289
H28	H	2.108003	0.116678	-0.205583
H29	H	1.931040	0.116658	-0.225270
H30	H	1.995083	0.195825	-0.087575
H31	H	2.001521	-0.079150	-0.121227
H32	H	2.065599	0.000005	0.016478
H33	H	1.967032	-0.363093	0.329478
H34	H	1.669670	-0.588101	0.564294
C35	C	1.993561	-0.622814	0.145440
C36	C	1.999941	-0.657251	0.303532
H37	H	2.071818	-0.671381	0.083664
H38	H	1.894393	-0.646189	0.113103
H39	H	2.010174	-0.527518	0.132333
H40	H	1.983317	-0.752546	0.316641
H41	H	2.099133	-0.633885	0.335879
H42	H	1.669639	-0.411960	0.564278
