data_functionalizedCrystal
_audit_creation_method	'MofGen! by Chris Wilmer'
_symmetry_space_group_name_H-M	'P1'
_symmetry_Int_Tables_number	1
_symmetry_cell_setting	triclinic
loop_
_symmetry_equiv_pos_as_xyz
  x,y,z
_cell_length_a	18.426585
_cell_length_b	14.560432
_cell_length_c	14.560432
_cell_angle_alpha	90.000464
_cell_angle_beta	60.001874
_cell_angle_gamma	60.000354
loop_
_atom_site_label
_atom_site_type_symbol
_atom_site_fract_x
_atom_site_fract_y
_atom_site_fract_z
Zr1	Zr	0.794368	0.884744	-0.120489
O2	O	0.945764	0.738098	-0.267129
O3	O	0.642970	0.929700	-0.075541
O4	O	0.794369	0.929700	-0.267137
O5	O	0.794365	0.738098	0.075606
O6	O	0.794372	1.080837	-0.267137
O7	O	0.794365	0.738099	-0.075534
O8	O	0.523546	1.080838	0.075592
O9	O	1.065191	0.738098	-0.267124
O10	O	0.705245	1.061664	-0.056366
O11	O	0.705243	0.948872	0.056428
O12	O	0.883496	0.948871	-0.169151
O13	O	0.883494	0.836079	-0.056357
Zr14	Zr	0.794373	1.125791	0.120560
Zr15	Zr	0.794373	1.125791	-0.120490
Zr16	Zr	0.794368	0.884744	0.120561
Zr17	Zr	0.984839	0.884743	-0.120480
Zr18	Zr	0.603902	1.125792	0.120551
O19	O	0.945772	1.080835	0.075612
O20	O	0.945771	1.080836	-0.267130
O21	O	0.945765	0.738097	0.075613
O22	O	0.642977	1.272437	0.267200
O23	O	0.642977	1.272438	-0.075542
O24	O	0.642970	0.929699	0.267201
O25	O	0.794376	1.272437	-0.075535
O26	O	0.794372	1.080835	0.267208
O27	O	0.794369	0.929698	0.267208
O28	O	0.794376	1.272436	0.075605
O29	O	1.065195	0.929698	-0.267124
O30	O	0.523546	1.080837	0.267195
O31	O	0.523550	1.272437	0.267195
O32	O	0.523550	1.272438	0.075592
O33	O	1.065191	0.738097	-0.075521
O34	O	1.065195	0.929697	-0.075521
O35	O	0.705245	1.061664	0.169222
O36	O	0.705247	1.174456	0.056428
O37	O	0.883498	1.061663	-0.056357
O38	O	0.883496	0.948871	0.056437
C39	C	0.794364	0.703754	0.000036
C40	C	0.794362	0.601424	0.000036
C41	C	0.556120	1.005269	0.000024
C42	C	0.475260	1.005270	0.000021
C43	C	0.608266	0.719163	0.117774
C44	C	0.515222	0.729956	0.176637
C45	C	0.515226	0.633804	0.176635
C46	C	0.608285	0.526850	0.117765
C47	C	0.701330	0.516057	0.058901
C48	C	0.701315	0.612218	0.058908
C49	C	0.887423	0.398318	-0.058829
C50	C	0.887421	0.494470	-0.058834
C51	C	0.980483	0.291364	-0.117699
C52	C	1.073529	0.280570	-0.176570
C53	C	1.073521	0.376731	-0.176566
C54	C	0.980466	0.483677	-0.117697
C55	C	0.179150	1.005263	0.000053
C56	C	0.261537	1.005262	0.000047
C57	C	0.327203	1.005265	0.000036
C58	C	0.409594	1.005266	0.000031
C59	C	1.032621	1.005266	0.000047
C60	C	1.113481	1.005265	0.000051
C61	C	0.794370	1.005269	-0.301481
C62	C	0.794370	1.005269	-0.403813
C63	C	0.794377	1.306781	0.000035
C64	C	0.794379	1.409111	0.000035
C65	C	0.980467	0.887498	-0.713862
C66	C	1.073515	0.828619	-0.724661
C67	C	1.073519	0.828623	-0.628514
C68	C	0.980464	0.887508	-0.521559
C69	C	0.887415	0.946387	-0.510760
C70	C	0.887422	0.946380	-0.606916
C71	C	0.701322	1.064147	-0.393014
C72	C	0.701316	1.064152	-0.489160
C73	C	0.608266	1.123033	-0.286059
C74	C	0.515216	1.181919	-0.275259
C75	C	0.515216	1.181914	-0.371415
C76	C	0.608267	1.123030	-0.478362
C77	C	0.794371	1.005266	0.301552
C78	C	0.794371	1.005266	0.403885
C79	C	0.556126	1.306782	0.000024
C80	C	0.475268	1.409114	0.000020
C81	C	0.556120	1.005268	0.301541
C82	C	0.475260	1.005268	0.403869
C83	C	0.556126	1.306781	0.301541
C84	C	0.475268	1.409112	0.403869
C85	C	1.032615	0.703754	-0.301469
C86	C	1.113473	0.601423	-0.403798
C87	C	1.032615	0.703753	0.000047
C88	C	1.113473	0.601422	0.000051
C89	C	1.032621	1.005267	-0.301470
C90	C	1.113481	1.005267	-0.403798
C91	C	0.437295	1.398293	-0.058869
C92	C	0.361331	1.494435	-0.058896
C93	C	0.323336	1.601396	-0.000026
C94	C	0.361316	1.612214	0.058865
C95	C	0.437284	1.516074	0.058884
C96	C	0.437289	1.064144	0.510811
C97	C	0.361323	1.064140	0.606969
C98	C	0.323324	1.005266	0.596182
C99	C	0.361303	0.946382	0.489229
C100	C	0.437273	0.946381	0.393074
C101	C	0.437298	1.516055	0.393046
C102	C	0.361334	1.612215	0.489185
C103	C	0.323336	1.601430	0.596145
C104	C	0.361314	1.494476	0.606966
C105	C	0.437282	1.398318	0.510828
C106	C	1.151453	0.494480	-0.392975
C107	C	1.227440	0.398320	-0.489113
C108	C	1.265442	0.409105	-0.596074
C109	C	1.227459	0.516059	-0.606895
C110	C	1.151477	0.612217	-0.510757
C111	C	1.151454	0.612242	0.058930
C112	C	1.227439	0.516100	0.058930
C113	C	1.265437	0.409139	0.000057
C114	C	1.227453	0.398321	-0.058830
C115	C	1.151474	0.494461	-0.058835
C116	C	1.151455	1.064153	-0.392976
C117	C	1.227422	1.064175	-0.489115
C118	C	1.265418	1.005303	-0.596075
C119	C	1.227436	0.946416	-0.606896
C120	C	1.151466	0.946401	-0.510758
H121	H	0.608254	0.797462	0.117773
Br122	Br	1.368560	0.278593	-0.726538
H123	H	0.468230	1.311209	-0.106822
H124	H	0.330420	1.699292	0.480354
Br125	Br	1.279041	0.530677	-0.752065
Br126	Br	0.309800	1.479727	-0.138822
Br127	Br	0.980468	0.887514	-0.844353
Br128	Br	0.309723	0.866487	0.474609
Br129	Br	0.488800	1.253186	0.525537
Br130	Br	0.220221	1.005279	0.726692
H131	H	0.261478	1.679737	0.674418
H132	H	1.120516	0.485678	-0.305890
H133	H	0.330366	1.485711	0.694066
Br134	Br	1.368523	1.005333	-0.726539
Br135	Br	1.278970	0.253184	-0.474402
Br136	Br	1.099937	0.757349	-0.525466
Br137	Br	0.388933	0.875107	0.256557
Br138	Br	1.278956	1.144094	-0.474403
H139	H	1.120522	0.699326	0.106880
Br140	Br	0.980470	0.887493	-0.391073
H141	H	0.261477	1.679671	-0.000049
H142	H	0.468179	0.898440	0.306001
H143	H	1.258402	0.311220	-0.106763
H144	H	1.258353	0.524930	0.106887
Br145	Br	0.488805	1.530779	0.138820
Br146	Br	0.608269	1.123032	-0.155571
Br147	Br	0.488854	1.530722	0.247897
H148	H	0.330370	1.699315	0.106795
H149	H	1.149279	0.780674	-0.811753
Br150	Br	0.388951	0.648447	0.256529
Br151	Br	1.368552	0.278672	0.000076
Br152	Br	1.099933	0.479756	-0.138745
Br153	Br	1.199799	0.748716	-0.643165
H154	H	1.120531	1.112093	-0.305892
H155	H	0.608280	0.448563	0.117779
H156	H	1.120556	0.898444	-0.519585
Br157	Br	0.980491	0.160869	-0.117691
Br158	Br	1.199810	0.135424	-0.256443
H159	H	1.258384	0.898484	-0.693996
H160	H	0.980450	0.561977	-0.117691
Br161	Br	1.199804	0.362070	-0.256445
H162	H	0.439458	1.229853	-0.188174
H163	H	0.330409	1.112094	0.694045
Br164	Br	0.608275	1.123028	-0.608856
Br165	Br	0.388928	1.261815	-0.356746
Br166	Br	0.488836	1.144061	0.525481
