data_functionalizedCrystal
_audit_creation_method	'MofGen! by Chris Wilmer'
_symmetry_space_group_name_H-M	'P1'
_symmetry_Int_Tables_number	1
_symmetry_cell_setting	triclinic
loop_
_symmetry_equiv_pos_as_xyz
  x,y,z
_cell_length_a	8.597340
_cell_length_b	8.559649
_cell_length_c	7.088929
_cell_angle_alpha	95.344185
_cell_angle_beta	103.954719
_cell_angle_gamma	102.374957
loop_
_atom_site_label
_atom_site_type_symbol
_atom_site_fract_x
_atom_site_fract_y
_atom_site_fract_z
O1	O	2.074465	-0.219480	0.182749
O2	O	2.574465	0.280520	0.682749
O3	O	1.606585	-0.245569	0.105672
O4	O	2.106585	0.254431	0.605672
O5	O	1.881746	0.000135	0.151003
O6	O	2.381746	0.500135	0.651003
O7	O	1.799304	-0.465184	0.137418
O8	O	2.299304	0.034816	0.637418
O9	O	1.918527	0.033046	0.475038
O10	O	2.418527	0.533046	0.975038
O11	O	1.643366	-0.212659	0.429707
O12	O	2.143366	0.287341	0.929707
O13	O	2.111247	-0.186570	0.506784
O14	O	2.611247	0.313430	1.006784
Cu15	Cu	1.880665	-0.196609	0.497833
Cu16	Cu	2.380665	0.303391	0.997833
Cu17	Cu	1.837167	-0.235529	0.114624
Cu18	Cu	2.337167	0.264471	0.614624
O19	O	1.836086	-0.432274	0.461453
O20	O	2.336086	0.067726	0.961453
C21	C	1.565631	-0.228145	0.257914
C22	C	2.065631	0.271855	0.757914
C23	C	1.388806	-0.225241	0.228784
C24	C	1.888806	0.274759	0.728784
C25	C	1.906384	0.076129	0.314046
C26	C	2.406384	0.576129	0.814046
C27	C	1.924980	0.253534	0.317099
C28	C	2.424980	0.753534	0.817099
C29	C	2.152200	-0.203994	0.354539
C30	C	2.652200	0.296006	0.854539
C31	C	2.329024	-0.206900	0.383656
C32	C	2.829024	0.293100	0.883656
N33	N	1.911271	-0.169234	0.767363
N34	N	2.411271	0.330766	1.267363
C35	C	1.811447	-0.508268	0.298406
C36	C	2.311447	-0.008268	0.798406
C37	C	1.792850	-0.685674	0.295340
C38	C	2.292850	-0.185674	0.795340
N39	N	1.806574	-0.262892	-0.154904
N40	N	2.306574	0.237108	0.345096
H41	H	1.413123	-0.193407	0.538542
H42	H	1.913123	0.306593	1.038542
H43	H	2.019794	-0.072183	0.866897
H44	H	2.519794	0.427817	1.366897
H45	H	1.304701	-0.238722	0.073888
H46	H	1.804701	0.261278	0.573888
O47	O	1.641026	0.214276	0.270235
O48	O	2.141026	0.714276	0.770235
C49	C	1.655632	0.053479	0.272677
C50	C	2.155632	0.553479	0.772677
H51	H	1.773317	0.041193	0.231866
H52	H	2.273317	0.541193	0.731866
H53	H	1.661372	0.021043	0.426167
H54	H	2.161372	0.521043	0.926167
C55	C	1.360319	-0.046664	0.173255
C56	C	1.860319	0.453336	0.673255
C57	C	1.504855	-0.061757	0.123114
C58	C	2.004855	0.438243	0.623114
H59	H	1.267310	-0.117749	0.081005
H60	H	1.767310	0.382251	0.581005
H61	H	1.350477	0.061668	0.171617
H62	H	1.850477	0.561668	0.671617
H63	H	1.365125	-0.073691	0.301166
H64	H	1.865125	0.426309	0.801166
H65	H	1.500056	-0.034710	-0.004784
H66	H	2.000056	0.465290	0.495216
H67	H	1.514693	-0.170088	0.124727
H68	H	2.014693	0.329912	0.624727
H69	H	2.052339	0.337220	0.338095
H70	H	2.552339	0.837220	0.838095
H71	H	1.698069	-0.359948	0.745574
H72	H	2.198069	0.140052	1.245574
