data_functionalizedCrystal
_audit_creation_method	'MofGen! by Chris Wilmer'
_symmetry_space_group_name_H-M	'P1'
_symmetry_Int_Tables_number	1
_symmetry_cell_setting	triclinic
loop_
_symmetry_equiv_pos_as_xyz
  x,y,z
_cell_length_a	18.101395
_cell_length_b	12.759401
_cell_length_c	12.759393
_cell_angle_alpha	90.020011
_cell_angle_beta	89.966555
_cell_angle_gamma	89.972817
loop_
_atom_site_label
_atom_site_type_symbol
_atom_site_fract_x
_atom_site_fract_y
_atom_site_fract_z
Zn1	Zn	-0.294863	-1.606136	-0.594010
Zn2	Zn	-0.418725	-1.605980	-0.418324
Zn3	Zn	-0.294893	-1.430438	-0.418345
Zn4	Zn	-0.418659	-1.430376	-0.593961
O5	O	-0.356785	-1.518232	-0.506160
O6	O	-0.311309	-1.753136	-0.570717
O7	O	-0.402339	-1.582654	-0.271306
O8	O	-0.191256	-1.453835	-0.441676
O9	O	-0.402310	-1.753021	-0.441641
O10	O	-0.191234	-1.582920	-0.570737
O11	O	-0.311360	-1.453684	-0.271321
O12	O	-0.311296	-1.283408	-0.441629
O13	O	-0.402197	-1.453730	-0.740989
O14	O	-0.402226	-1.283363	-0.570653
O15	O	-0.311245	-1.582860	-0.741025
O16	O	-0.522349	-1.582594	-0.441594
O17	O	-0.522301	-1.453579	-0.570634
C18	C	-0.356758	-1.245265	-0.506139
C19	C	-0.356764	-1.128488	-0.506154
C20	C	-0.309467	-1.073679	-0.573467
C21	C	-0.309478	-0.963955	-0.573471
C22	C	-0.404087	-0.963859	-0.438847
C23	C	-0.404073	-1.073581	-0.438838
C24	C	-0.262159	-1.128586	-0.640783
C25	C	-0.214859	-1.073776	-0.708101
C26	C	-0.214869	-0.964052	-0.708105
C27	C	-0.262179	-0.909138	-0.640790
C28	C	-0.549196	-1.518092	-0.506129
C29	C	-0.631510	-1.518128	-0.506151
C30	C	-0.930601	-1.518358	-0.506208
C31	C	-0.899276	-1.437373	-0.587597
C32	C	-0.813658	-1.436989	-0.587343
C33	C	-0.782218	-1.518244	-0.506180
C34	C	-0.813377	-1.488263	-0.395455
C35	C	-0.899022	-1.487741	-0.395942
C36	C	-0.898948	-1.629501	-0.534569
C37	C	-0.813296	-1.628847	-0.536997
C38	C	-0.698359	-1.518181	-0.506158
C39	C	-1.014460	-1.518418	-0.506222
C40	C	-0.163623	-1.518402	-0.506214
C41	C	-0.081309	-1.518474	-0.506237
C42	C	-0.356711	-1.518306	-0.780194
C43	C	-0.356679	-1.518337	-0.896970
C44	C	-0.356804	-0.792265	-0.506176
C45	C	-0.356789	-0.909042	-0.506166
C46	C	-0.309315	-1.585584	-0.951853
C47	C	-0.309289	-1.585609	-1.061577
C48	C	-0.403995	-1.451137	-1.061526
C49	C	-0.404017	-1.451108	-0.951804
C50	C	-0.261977	-1.652814	-0.897019
C51	C	-0.214610	-1.720067	-0.951901
C52	C	-0.214583	-1.720092	-1.061625
C53	C	-0.261923	-1.652864	-1.116467
C54	C	-0.356806	-1.518219	-0.233193
C55	C	-0.356629	-1.518392	-0.116417
H56	H	-0.262145	-1.217929	-0.640787
H57	H	-0.261889	-1.652877	-1.205812
H58	H	-0.261995	-1.652803	-0.807676
H59	H	-0.262168	-0.819793	-0.640776
H60	H	-0.919205	-1.689837	-0.475290
H61	H	-0.176336	-1.118495	-0.762900
C62	C	-0.172597	-1.779738	-0.783726
C63	C	-0.162572	-1.793957	-0.891624
H64	H	-0.140472	-1.825359	-0.746517
H65	H	-0.161755	-1.709161	-0.765747
H66	H	-0.222363	-1.795069	-0.765738
H67	H	-0.112808	-1.778618	-0.909613
H68	H	-0.173409	-1.864550	-0.909610
H69	H	-0.442536	-1.396402	-1.106187
C70	C	-0.120978	-1.853014	-1.050649
C71	C	-0.162519	-1.794014	-1.121954
H72	H	-0.088840	-1.898658	-1.087894
H73	H	-0.092654	-1.807257	-1.007862
H74	H	-0.153269	-1.893155	-1.007843
H75	H	-0.130228	-1.753866	-1.164755
H76	H	-0.190845	-1.839777	-1.164758
C77	C	-0.497660	-1.318235	-0.962767
C78	C	-0.456100	-1.377217	-0.891469
H79	H	-0.529820	-1.272628	-0.925516
H80	H	-0.465388	-1.278065	-1.005558
H81	H	-0.525968	-1.364013	-1.005569
H82	H	-0.427787	-1.331439	-0.848672
H83	H	-0.488376	-1.417390	-0.848661
C84	C	-0.446123	-0.795618	-0.379097
C85	C	-0.456095	-0.903499	-0.364869
H86	H	-0.478237	-0.758357	-0.333431
H87	H	-0.396361	-0.777654	-0.363841
H88	H	-0.457021	-0.777677	-0.449666
H89	H	-0.445192	-0.921441	-0.294300
H90	H	-0.505869	-0.921469	-0.380117
H91	H	-0.176350	-0.919429	-0.762911
H92	H	-0.792928	-1.651455	-0.618485
H93	H	-0.442586	-1.118208	-0.384027
C94	C	-0.967293	-1.760088	-0.629147
C95	C	-0.928027	-1.666401	-0.641710
H96	H	-0.985250	-1.782854	-0.695293
H97	H	-0.935563	-1.812095	-0.600684
H98	H	-1.007705	-1.748846	-0.582954
H99	H	-0.887613	-1.677645	-0.687897
H100	H	-0.959760	-1.614382	-0.670187
C101	C	-0.707853	-1.462003	-0.698158
C102	C	-0.785208	-1.462306	-0.698176
H103	H	-0.690294	-1.477638	-0.766585
H104	H	-0.690531	-1.394844	-0.677519
H105	H	-0.690274	-1.513338	-0.650369
H106	H	-0.802787	-1.410966	-0.745960
H107	H	-0.802537	-1.529475	-0.718828
C108	C	-0.967090	-1.376940	-0.737541
C109	C	-0.927004	-1.462427	-0.698799
H110	H	-0.984206	-1.392408	-0.806197
H111	H	-1.008097	-1.363571	-0.693017
H112	H	-0.936145	-1.316869	-0.739698
H113	H	-0.957950	-1.522497	-0.696635
H114	H	-0.885990	-1.475809	-0.743335
C115	C	-0.737915	-1.669460	-0.387653
C116	C	-0.784405	-1.714617	-0.462806
H117	H	-0.720083	-1.722410	-0.341843
H118	H	-0.697415	-1.636551	-0.421668
H119	H	-0.764724	-1.618804	-0.348470
H120	H	-0.757594	-1.765268	-0.501995
H121	H	-0.824910	-1.747543	-0.428789
C122	C	-0.866618	-1.609788	-0.260336
C123	C	-0.927006	-1.563897	-0.311276
H124	H	-0.883894	-1.656793	-0.208060
H125	H	-0.837501	-1.647046	-0.309855
H126	H	-0.837513	-1.556648	-0.228530
H127	H	-0.956108	-1.617037	-0.343089
H128	H	-0.956135	-1.526639	-0.261749
H129	H	-0.793014	-1.545393	-0.333160
H130	H	-0.920860	-1.355493	-0.569048
C131	C	-0.846703	-1.259246	-0.546926
C132	C	-0.786077	-1.325782	-0.561965
H133	H	-0.829674	-1.190592	-0.531247
H134	H	-0.875693	-1.257522	-0.608927
H135	H	-0.875852	-1.284492	-0.490391
H136	H	-0.756931	-1.300540	-0.618505
H137	H	-0.757075	-1.327502	-0.499957
H138	H	-0.919063	-1.406496	-0.371917
H139	H	-0.791990	-1.407879	-0.370999
