data_functionalizedCrystal
_audit_creation_method	'MofGen! by Chris Wilmer'
_symmetry_space_group_name_H-M	'P1'
_symmetry_Int_Tables_number	1
_symmetry_cell_setting	triclinic
loop_
_symmetry_equiv_pos_as_xyz
  x,y,z
_cell_length_a	10.654550
_cell_length_b	10.654550
_cell_length_c	9.130313
_cell_angle_alpha	89.999706
_cell_angle_beta	89.997543
_cell_angle_gamma	95.515070
loop_
_atom_site_label
_atom_site_type_symbol
_atom_site_fract_x
_atom_site_fract_y
_atom_site_fract_z
O1	O	1.667839	-0.176390	-0.121779
O2	O	1.302361	-0.193196	-0.121787
O3	O	1.493503	-0.002054	-0.121774
O4	O	1.476697	-0.367533	-0.121792
O5	O	1.493490	-0.002065	0.121825
O6	O	1.302348	-0.193208	0.121812
O7	O	1.667826	-0.176402	0.121819
Cu8	Cu	1.485086	-0.184806	0.144058
Cu9	Cu	1.485101	-0.184792	-0.144025
O10	O	1.476684	-0.367544	0.121807
C11	C	1.255556	-0.191968	0.000012
C12	C	1.116113	-0.188276	0.000009
C13	C	1.492263	0.044738	0.000025
C14	C	1.488571	0.184181	0.000023
C15	C	1.714631	-0.177630	0.000018
C16	C	1.854074	-0.181322	0.000011
C17	C	1.477925	-0.414336	0.000005
C18	C	1.481616	-0.553779	-0.000003
C19	C	1.933560	-0.068780	0.000011
C20	C	2.064580	-0.072257	0.000016
C21	C	2.036617	-0.300826	0.000013
C22	C	1.905599	-0.297349	0.000019
N23	N	1.485084	-0.184814	0.346681
C24	C	1.601112	0.263667	0.000024
C25	C	1.597636	0.394688	0.000006
C26	C	1.369066	0.366725	-0.000009
C27	C	1.372544	0.235706	-0.000001
N28	N	1.485113	-0.184774	-0.346648
C29	C	1.561913	-0.261689	0.423344
C30	C	1.561932	-0.261666	0.576681
C31	C	1.408281	-0.107890	0.576678
C32	C	1.408270	-0.107908	0.423344
C33	C	1.638728	-0.338596	0.346682
C34	C	1.715562	-0.415478	0.423345
C35	C	1.715581	-0.415455	0.576682
C36	C	1.638764	-0.338550	0.653355
H37	H	1.891613	0.025696	0.000007
H38	H	1.345706	-0.045311	0.360923
Cl39	Cl	1.638805	-0.338509	0.846124
Cl40	Cl	2.164501	0.069231	0.000022
H41	H	1.778152	-0.478047	0.639098
H42	H	2.078585	-0.395291	0.000017
H43	H	1.840878	-0.388999	0.000024
Cl44	Cl	1.746974	0.198897	0.000051
Cl45	Cl	1.739124	0.494608	0.000006
H46	H	1.274601	0.408693	-0.000025
H47	H	1.345738	-0.045280	0.639117
Cl48	Cl	1.638706	-0.338634	0.153916
H49	H	1.778110	-0.478085	0.360908
H50	H	1.280893	0.170985	-0.000007
