data_functionalizedCrystal
_audit_creation_method	'MofGen! by Chris Wilmer'
_symmetry_space_group_name_H-M	'P1'
_symmetry_Int_Tables_number	1
_symmetry_cell_setting	triclinic
loop_
_symmetry_equiv_pos_as_xyz
  x,y,z
_cell_length_a	10.540535
_cell_length_b	10.540539
_cell_length_c	9.730223
_cell_angle_alpha	90.000775
_cell_angle_beta	90.002158
_cell_angle_gamma	84.524567
loop_
_atom_site_label
_atom_site_type_symbol
_atom_site_fract_x
_atom_site_fract_y
_atom_site_fract_z
O1	O	1.685883	0.178868	-0.114208
O2	O	1.316470	0.195729	-0.114226
O3	O	1.509604	0.002592	-0.114215
O4	O	1.492748	0.372005	-0.114219
O5	O	1.509602	0.002597	0.114365
O6	O	1.316467	0.195734	0.114354
O7	O	1.685881	0.178872	0.114372
Zn8	Zn	1.501174	0.187304	0.150655
Zn9	Zn	1.501177	0.187298	-0.150509
O10	O	1.492746	0.372010	0.114361
C11	C	1.269165	0.194469	0.000061
C12	C	1.128217	0.190689	0.000054
C13	C	1.091546	0.049675	0.000061
C14	C	0.944946	0.045698	0.000594
C15	C	0.918880	0.255062	0.130346
C16	C	1.065645	0.258063	0.130442
C17	C	1.065532	0.260109	-0.129505
C18	C	0.919185	0.253587	-0.131204
C19	C	1.508339	-0.044709	0.000073
C20	C	1.504557	-0.185657	0.000065
C21	C	1.359640	-0.369081	-0.000455
C22	C	1.363474	-0.222463	0.000059
C23	C	1.572452	-0.247313	0.130599
C24	C	1.567637	-0.393857	0.130709
C25	C	1.570509	-0.394381	-0.129229
C26	C	1.571808	-0.247399	-0.130955
C27	C	1.733185	0.180133	0.000082
C28	C	1.874134	0.183913	0.000080
C29	C	1.494011	0.419311	0.000070
C30	C	1.497793	0.560259	0.000069
N31	N	1.501181	0.187308	0.356191
N32	N	1.501179	0.187284	-0.356045
C33	C	1.586723	0.101816	0.428122
C34	C	1.586720	0.101800	0.572005
C35	C	1.415628	0.272780	0.572014
C36	C	1.415626	0.272789	0.428133
C37	C	1.685506	0.003105	0.428119
C38	C	1.685503	0.003090	0.572002
H39	H	1.105816	0.210016	0.228192
C40	C	1.704708	-0.458666	0.138737
N41	N	1.807949	-0.507474	0.144793
C42	C	1.817268	0.032615	0.624770
N43	N	1.916498	0.054891	0.664515
C44	C	1.710775	-0.214690	-0.141593
N45	N	1.815451	-0.190059	-0.149593
H46	H	1.345960	0.342392	0.369568
H47	H	0.915609	-0.009946	-0.092767
C48	C	1.810036	0.044908	0.367830
N49	N	1.903834	0.076394	0.322420
H50	H	1.663797	-0.094475	0.389065
H51	H	1.107992	0.216105	-0.228277
H52	H	1.654628	-0.089127	0.616617
H53	H	1.133516	-0.004478	-0.093342
H54	H	1.135003	-0.003567	0.093341
C55	C	0.906498	-0.029075	0.127511
N56	N	0.877539	-0.085387	0.223118
C57	C	0.880535	0.183647	-0.261403
N58	N	0.851414	0.130967	-0.359467
C59	C	1.096763	0.397715	0.137946
N60	N	1.120195	0.502899	0.143608
C61	C	0.852959	0.389881	-0.142355
N62	N	0.803080	0.492545	-0.150742
H63	H	1.087716	0.363860	-0.130767
C64	C	1.321521	0.366802	0.651163
N65	N	1.250637	0.437621	0.710777
H66	H	1.310051	-0.179861	-0.093513
H67	H	1.304134	-0.399286	0.092623
C68	C	1.284339	-0.407733	-0.126906
N69	N	1.227620	-0.436858	-0.222150
H70	H	0.871523	0.356828	0.134822
H71	H	1.517458	-0.422054	0.228280
C72	C	1.290797	-0.166044	0.126679
N73	N	1.236056	-0.123550	0.222055
H74	H	0.887977	0.206252	0.227665
H75	H	1.676060	-0.224960	0.135457
H76	H	1.525287	-0.204710	0.227733
H77	H	1.524848	-0.425935	-0.228165
C78	C	1.504760	-0.192130	-0.261416
N79	N	1.454247	-0.150505	-0.359677
H80	H	1.672413	-0.441608	-0.130102
