data_functionalizedCrystal
_audit_creation_method	'MofGen! by Chris Wilmer'
_symmetry_space_group_name_H-M	'P1'
_symmetry_Int_Tables_number	1
_symmetry_cell_setting	triclinic
loop_
_symmetry_equiv_pos_as_xyz
  x,y,z
_cell_length_a	17.699077
_cell_length_b	10.540558
_cell_length_c	16.176319
_cell_angle_alpha	89.999964
_cell_angle_beta	89.993140
_cell_angle_gamma	96.093155
loop_
_atom_site_label
_atom_site_type_symbol
_atom_site_fract_x
_atom_site_fract_y
_atom_site_fract_z
O1	O	1.005131	-0.160483	-0.068723
O2	O	1.505131	0.339517	0.431277
O3	O	0.784889	-0.181375	-0.068726
O4	O	1.284889	0.318625	0.431274
O5	O	0.900028	0.013868	-0.068733
O6	O	1.400028	0.513868	0.431267
O7	O	0.889993	-0.355726	-0.068716
O8	O	1.389993	0.144274	0.431284
O9	O	0.900012	0.013880	0.068760
O10	O	1.400012	0.513880	0.568760
O11	O	0.784873	-0.181362	0.068768
O12	O	1.284873	0.318638	0.568768
O13	O	1.005115	-0.160471	0.068770
O14	O	1.505115	0.339529	0.568770
Cu15	Cu	0.894993	-0.170915	0.081323
Cu16	Cu	1.394993	0.329085	0.581323
Cu17	Cu	0.895012	-0.170930	-0.081279
Cu18	Cu	1.395012	0.329070	0.418721
O19	O	0.889977	-0.355713	0.068777
O20	O	1.389977	0.144287	0.568777
C21	C	0.756679	-0.180621	0.000020
C22	C	1.256679	0.319379	0.500020
C23	C	0.672646	-0.178379	0.000019
C24	C	1.172646	0.321621	0.500019
C25	C	0.633163	-0.177316	0.074967
C26	C	1.133163	0.322684	0.574967
C27	C	0.554207	-0.175189	0.074968
C28	C	1.054207	0.324811	0.574968
C29	C	0.514734	-0.174135	0.000019
C30	C	1.014734	0.325865	0.500019
C31	C	0.554223	-0.175194	-0.074935
C32	C	1.054223	0.324806	0.425065
C33	C	0.633179	-0.177312	-0.074935
C34	C	1.133179	0.322688	0.425065
C35	C	0.235804	-0.166652	-0.074937
C36	C	0.735804	0.333348	0.425063
C37	C	0.156842	-0.164538	-0.074931
C38	C	0.656842	0.335462	0.425069
C39	C	0.156832	-0.164530	0.074966
C40	C	0.656832	0.335470	0.574966
C41	C	0.235787	-0.166647	0.074966
C42	C	0.735787	0.333353	0.574966
C43	C	0.275270	-0.167700	0.000012
C44	C	0.775270	0.332300	0.500012
C45	C	0.360884	-0.170004	0.000012
C46	C	0.860884	0.329996	0.500012
C47	C	0.429121	-0.171840	0.000019
C48	C	0.929121	0.328160	0.500019
C49	C	0.899264	0.061163	0.000009
C50	C	1.399264	0.561163	0.500009
C51	C	0.897004	0.202068	-0.000003
C52	C	1.397004	0.702068	0.499997
C53	C	0.810597	0.383910	-0.000322
C54	C	1.310597	0.883910	0.499678
C55	C	0.812889	0.237335	-0.000005
C56	C	1.312889	0.737335	0.499995
C57	C	0.937471	0.264474	0.078510
C58	C	1.437471	0.764474	0.578510
C59	C	0.934595	0.410965	0.078569
C60	C	1.434595	0.910965	0.578569
C61	C	0.936324	0.411501	-0.077787
C62	C	1.436324	0.911501	0.422213
C63	C	0.937104	0.264534	-0.078817
C64	C	1.437104	0.764534	0.421183
C65	C	1.033325	-0.161224	0.000022
C66	C	1.533325	0.338776	0.500022
C67	C	1.117358	-0.163466	0.000018
C68	C	1.617358	0.336534	0.500018
N69	N	0.894985	-0.170904	0.195688
N70	N	1.394985	0.329096	0.695688
C71	C	0.890730	0.596989	0.000020
C72	C	1.390730	1.096989	0.500020
C73	C	0.892961	0.456077	-0.000013
C74	C	1.392961	0.956077	0.499987
N75	N	0.895026	-0.170931	-0.195644
N76	N	1.395026	0.329069	0.304356
C77	C	0.945984	-0.084486	0.238949
C78	C	1.445984	0.415514	0.738949
C79	C	0.945988	-0.084485	0.325496
C80	C	1.445988	0.415515	0.825496
C81	C	0.894996	-0.170909	0.368781
C82	C	1.394996	0.329091	0.868781
C83	C	0.843991	-0.257331	0.325514
C84	C	1.343991	0.242669	0.825514
C85	C	0.843984	-0.257325	0.238968
C86	C	1.343984	0.242675	0.738968
C87	C	0.844017	-0.257355	0.674542
C88	C	1.344017	0.242645	1.174542
C89	C	0.844030	-0.257356	0.761094
C90	C	1.344030	0.242644	1.261094
C91	C	0.946021	-0.084514	0.761070
C92	C	1.446021	0.415486	1.261070
C93	C	0.946014	-0.084508	0.674524
C94	C	1.446014	0.415492	1.174524
C95	C	0.895007	-0.170926	0.631265
C96	C	1.395007	0.329074	1.131265
C97	C	0.895002	-0.170925	0.537421
C98	C	1.395002	0.329075	1.037421
C99	C	0.895003	-0.170917	0.462623
C100	C	1.395003	0.329083	0.962623
H101	H	0.781046	0.194144	-0.056286
H102	H	1.281046	0.694144	0.443714
Br103	Br	0.774822	-0.374655	0.819837
Br104	Br	1.274822	0.125345	1.319837
H105	H	0.777498	0.413516	0.055665
H106	H	1.277498	0.913516	0.555665
H107	H	0.802487	-0.327721	0.639327
H108	H	1.302487	0.172279	1.139327
Br109	Br	0.774763	-0.374604	0.180257
Br110	Br	1.274763	0.125396	0.680257
Br111	Br	0.500658	-0.173707	-0.176652
Br112	Br	1.000658	0.326293	0.323348
Br113	Br	0.759416	0.166756	0.093960
Br114	Br	1.259416	0.666756	0.593960
H115	H	0.904671	0.438621	0.137258
H116	H	1.404671	0.938621	0.637258
Br117	Br	0.686765	-0.178743	-0.176654
Br118	Br	1.186765	0.321257	0.323346
Br119	Br	0.686724	-0.178760	0.176689
Br120	Br	1.186724	0.321240	0.676689
H121	H	0.267922	-0.167512	0.135997
H122	H	0.767922	0.332488	0.635997
Br123	Br	0.103245	-0.163099	0.176691
Br124	Br	0.603245	0.336901	0.676691
Br125	Br	1.015197	0.032802	0.180215
Br126	Br	1.515197	0.532802	0.680215
Br127	Br	0.888175	0.194705	-0.175641
Br128	Br	1.388175	0.694705	0.324359
Br129	Br	0.755221	0.430547	-0.094173
Br130	Br	1.255221	0.930547	0.405827
H131	H	0.998431	0.241436	-0.083556
H132	H	1.498431	0.741436	0.416444
Br133	Br	0.500624	-0.173768	0.176688
Br134	Br	1.000624	0.326232	0.676688
H135	H	0.802469	-0.327695	0.360761
H136	H	1.302469	0.172305	0.860761
H137	H	0.124706	-0.163679	-0.135967
H138	H	0.624706	0.336321	0.364033
H139	H	0.267941	-0.167505	-0.135969
H140	H	0.767941	0.332495	0.364031
Br141	Br	1.035413	0.492771	0.084513
Br142	Br	1.535413	0.992771	0.584513
H143	H	0.999242	0.243253	0.081432
H144	H	1.499242	0.743253	0.581432
H145	H	0.987539	-0.014138	0.639285
H146	H	1.487539	0.485862	1.139285
H147	H	0.909347	0.221365	0.136941
H148	H	1.409347	0.721365	0.636941
H149	H	0.909106	0.442549	-0.137299
H150	H	1.409106	0.942549	0.362701
Br151	Br	1.037582	0.492067	-0.078672
Br152	Br	1.537582	0.992067	0.421328
Br153	Br	1.015245	0.032772	0.819783
Br154	Br	1.515245	0.532772	1.319783
Br155	Br	1.015199	0.032803	0.384210
Br156	Br	1.515199	0.532803	0.884210
