data_functionalizedCrystal
_audit_creation_method	'MofGen! by Chris Wilmer'
_symmetry_space_group_name_H-M	'P1'
_symmetry_Int_Tables_number	1
_symmetry_cell_setting	triclinic
loop_
_symmetry_equiv_pos_as_xyz
  x,y,z
_cell_length_a	16.120530
_cell_length_b	16.120444
_cell_length_c	18.215399
_cell_angle_alpha	87.129468
_cell_angle_beta	92.916648
_cell_angle_gamma	90.168401
loop_
_atom_site_label
_atom_site_type_symbol
_atom_site_fract_x
_atom_site_fract_y
_atom_site_fract_z
Zn1	Zn	1.254465	-0.395615	0.489893
Zn2	Zn	1.587798	-0.062282	0.823226
Zn3	Zn	1.921132	0.271052	1.156560
Zn4	Zn	1.247306	-0.534674	0.372727
Zn5	Zn	1.580639	-0.201340	0.706061
Zn6	Zn	1.913973	0.131993	1.039394
Zn7	Zn	1.115405	-0.388580	0.360309
Zn8	Zn	1.448738	-0.055247	0.693643
Zn9	Zn	1.782072	0.278086	1.026976
Zn10	Zn	1.108315	-0.527569	0.489221
Zn11	Zn	1.441648	-0.194235	0.822554
Zn12	Zn	1.774981	0.139098	1.155888
O13	O	1.181373	-0.461609	0.428038
O14	O	1.514706	-0.128276	0.761371
O15	O	1.848039	0.205057	1.094704
O16	O	1.369881	-0.419979	0.479829
O17	O	1.703214	-0.086646	0.813162
O18	O	2.036547	0.246688	1.146496
O19	O	1.229780	-0.515323	0.268096
O20	O	1.563114	-0.181990	0.601429
O21	O	1.896447	0.151343	0.934763
O22	O	1.139815	-0.273150	0.372583
O23	O	1.473148	0.060183	0.705916
O24	O	1.806482	0.393517	1.039250
O25	O	1.364621	-0.522145	0.393748
O26	O	1.697954	-0.188811	0.727081
O27	O	2.031288	0.144522	1.060415
O28	O	1.241982	-0.278318	0.467788
O29	O	1.575315	0.055015	0.801121
O30	O	1.908648	0.388348	1.134454
O31	O	1.132873	-0.407989	0.258972
O32	O	1.466207	-0.074656	0.592306
O33	O	1.799540	0.258677	0.925639
O34	O	0.998099	-0.401100	0.371931
O35	O	1.331432	-0.067766	0.705265
O36	O	1.664766	0.265567	1.038598
O37	O	1.127731	-0.510035	0.592295
O38	O	1.461064	-0.176702	0.925628
O39	O	1.794397	0.156631	1.258961
O40	O	0.992890	-0.503214	0.466642
O41	O	1.326223	-0.169881	0.799976
O42	O	1.659557	0.163453	1.133309
O43	O	1.235107	-0.413090	0.592788
O44	O	1.568440	-0.079756	0.926122
O45	O	1.901773	0.253577	1.259455
O46	O	1.222905	-0.650095	0.393096
O47	O	1.556238	-0.316761	0.726430
O48	O	1.889572	0.016572	1.059763
O49	O	1.120789	-0.644875	0.478684
O50	O	1.454122	-0.311541	0.812017
O51	O	1.787456	0.021792	1.145351
C52	C	0.965322	-0.450623	0.417867
C53	C	1.298656	-0.117290	0.751200
C54	C	1.631989	0.216044	1.084534
C55	C	0.872894	-0.445943	0.413534
C56	C	1.206227	-0.112610	0.746867
C57	C	1.539561	0.220723	1.080201
C58	C	1.170323	-0.677658	0.437182
C59	C	1.503657	-0.344324	0.770515
C60	C	1.836990	-0.010991	1.103849
C61	C	1.165672	-0.770088	0.441122
C62	C	1.499006	-0.436755	0.774455
C63	C	1.832339	-0.103421	1.107789
C64	C	0.703667	-0.437379	0.405629
C65	C	1.037000	-0.104046	0.738962
C66	C	1.370334	0.229287	1.072296
C67	C	0.659916	-0.485901	0.450503
C68	C	0.993249	-0.152567	0.783836
C69	C	1.326582	0.180766	1.117170
C70	C	0.565752	-0.481136	0.446104
C71	C	0.899085	-0.147802	0.779438
C72	C	1.232419	0.185531	1.112771
C73	C	0.797839	-0.442143	0.410026
C74	C	1.131173	-0.108810	0.743360
C75	C	1.464506	0.224523	1.076693
C76	C	1.205703	-0.983061	0.407766
C77	C	1.539036	-0.649727	0.741099
C78	C	1.872370	-0.316394	1.074433
C79	C	1.157197	-0.939315	0.448324
C80	C	1.490530	-0.605981	0.781658
C81	C	1.823863	-0.272648	1.114991
C82	C	1.161914	-0.845148	0.444316
C83	C	1.495247	-0.511815	0.777649
C84	C	1.828581	-0.178481	1.110982
C85	C	1.200987	-1.077236	0.411774
C86	C	1.534320	-0.743903	0.745107
C87	C	1.867653	-0.410569	1.078440
C88	C	1.398267	-0.472639	0.438249
C89	C	1.731600	-0.139306	0.771582
C90	C	2.064933	0.194028	1.104915
C91	C	1.490694	-0.477339	0.442600
C92	C	1.824027	-0.144006	0.775933
C93	C	2.157361	0.189327	1.109267
C94	C	1.181426	-0.461555	0.619991
C95	C	1.514760	-0.128221	0.953324
C96	C	1.848093	0.205112	1.286657
C97	C	1.181449	-0.461531	0.701790
C98	C	1.514782	-0.128198	1.035123
C99	C	1.848116	0.205135	1.368456
C100	C	1.192488	-0.244719	0.418875
C101	C	1.525821	0.088615	0.752208
C102	C	1.859155	0.421948	1.085542
C103	C	1.197224	-0.152293	0.414970
C104	C	1.530558	0.181041	0.748304
C105	C	1.863891	0.514374	1.081637
C106	C	1.181370	-0.461606	0.236831
C107	C	1.514704	-0.128273	0.570165
C108	C	1.848037	0.205060	0.903498
C109	C	1.181520	-0.461404	0.155030
C110	C	1.514854	-0.128070	0.488364
C111	C	1.848187	0.205263	0.821697
C112	C	1.237381	-0.411003	0.890241
C113	C	1.570715	-0.077670	1.223574
C114	C	1.904048	0.255664	1.556907
C115	C	1.237393	-0.410979	0.967099
C116	C	1.570726	-0.077646	1.300432
C117	C	1.904059	0.255687	1.633766
C118	C	1.125582	-0.511934	0.966574
C119	C	1.458915	-0.178601	1.299907
C120	C	1.792249	0.154733	1.633240
C121	C	1.125568	-0.511953	0.889717
C122	C	1.458901	-0.178619	1.223050
C123	C	1.792234	0.154714	1.556383
C124	C	1.181472	-0.461489	0.851552
C125	C	1.514805	-0.128155	1.184886
C126	C	1.848139	0.205178	1.518219
C127	C	1.181498	-0.461446	1.005268
C128	C	1.514831	-0.128113	1.338601
C129	C	1.848164	0.205220	1.671934
C130	C	1.181509	-0.461421	1.088601
C131	C	1.514843	-0.128088	1.421934
C132	C	1.848176	0.205246	1.755267
C133	C	1.181459	-0.461513	0.768214
C134	C	1.514793	-0.128179	1.101547
C135	C	1.848126	0.205154	1.434880
H136	H	0.693179	-0.531018	0.492225
H137	H	1.026512	-0.197685	0.825558
H138	H	1.359845	0.135648	1.158892
Br139	Br	1.082073	-0.994760	0.511215
Br140	Br	1.415406	-0.661427	0.844548
Br141	Br	1.748739	-0.328094	1.177881
Br142	Br	1.280819	-0.927613	0.344877
Br143	Br	1.614153	-0.594280	0.678211
Br144	Br	1.947486	-0.260946	1.011544
H145	H	1.282900	-0.369909	0.859169
H146	H	1.616233	-0.036576	1.192503
H147	H	1.949567	0.296757	1.525836
Br148	Br	0.648230	-0.362182	0.336095
Br149	Br	0.981563	-0.028849	0.669428
Br150	Br	1.314897	0.304485	1.002761
H151	H	1.282918	-0.369867	0.998595
H152	H	1.616252	-0.036534	1.331929
H153	H	1.949585	0.296800	1.665262
H154	H	1.080069	-0.553022	0.997657
H155	H	1.413402	-0.219689	1.330990
H156	H	1.746735	0.113645	1.664323
H157	H	1.080034	-0.553063	0.858215
H158	H	1.413367	-0.219730	1.191549
H159	H	1.746700	0.113603	1.524882
