data_functionalizedCrystal
_audit_creation_method	'MofGen! by Chris Wilmer'
_symmetry_space_group_name_H-M	'P1'
_symmetry_Int_Tables_number	1
_symmetry_cell_setting	triclinic
loop_
_symmetry_equiv_pos_as_xyz
  x,y,z
_cell_length_a	31.640172
_cell_length_b	20.919309
_cell_length_c	20.919320
_cell_angle_alpha	60.099535
_cell_angle_beta	90.003392
_cell_angle_gamma	62.590278
loop_
_atom_site_label
_atom_site_type_symbol
_atom_site_fract_x
_atom_site_fract_y
_atom_site_fract_z
Zr1	Zr	0.427747	0.692363	-0.106748
O2	O	0.366142	0.817902	-0.209860
O3	O	0.444167	0.561531	-0.071676
O4	O	0.450764	0.684714	-0.204849
O5	O	0.357145	0.702599	0.024422
O6	O	0.520320	0.684701	-0.204835
O7	O	0.359544	0.694719	-0.076688
O8	O	0.508519	0.464350	0.033386
O9	O	0.368946	0.922950	-0.213799
O10	O	0.506057	0.617296	-0.060892
O11	O	0.452358	0.623186	0.014555
O12	O	0.460125	0.768218	-0.142239
O13	O	0.406425	0.774108	-0.066792
Zr14	Zr	0.534854	0.704912	0.054532
Zr15	Zr	0.538681	0.692344	-0.106726
Zr16	Zr	0.423920	0.704932	0.054510
Zr17	Zr	0.432220	0.859904	-0.113031
Zr18	Zr	0.530381	0.537371	0.060814
O19	O	0.518435	0.835744	0.019460
O20	O	0.523876	0.817874	-0.209829
O21	O	0.360700	0.835772	0.019428
O22	O	0.596460	0.579374	0.157644
O23	O	0.601901	0.561503	-0.071645
O24	O	0.438725	0.579402	0.157612
O25	O	0.605457	0.694676	-0.076638
O26	O	0.511837	0.712562	0.152632
O27	O	0.442281	0.712574	0.152618
O28	O	0.603057	0.702556	0.024471
O29	O	0.457124	0.922935	-0.213782
O30	O	0.505477	0.474340	0.161565
O31	O	0.593655	0.474325	0.161583
O32	O	0.596697	0.464335	0.033404
O33	O	0.365905	0.932941	-0.085621
O34	O	0.454083	0.932925	-0.085603
O35	O	0.502476	0.629058	0.090022
O36	O	0.556176	0.623168	0.014576
O37	O	0.510244	0.774089	-0.066771
O38	O	0.456544	0.779980	0.008675
C39	C	0.475705	0.489070	-0.018250
C40	C	0.473806	0.417944	-0.015583
C41	C	0.500943	0.381455	-0.053712
C42	C	0.499160	0.314621	-0.051199
C43	C	0.470237	0.284282	-0.010560
C44	C	0.443099	0.320774	0.027574
C45	C	0.444885	0.387603	0.025065
C46	C	0.463443	0.082652	-0.001009
C47	C	0.461658	0.015821	0.001495
C48	C	0.517720	0.009671	-0.077277
C49	C	0.519502	0.076504	-0.079786
C50	C	0.492366	0.112988	-0.041649
C51	C	0.468412	0.215968	-0.007992
C52	C	0.494194	0.181296	-0.044212
C53	C	0.342539	0.698662	-0.026136
C54	C	0.295444	0.698670	-0.026146
C55	C	0.027412	0.619851	0.016369
C56	C	-0.149574	0.619836	0.016385
O57	O	-0.152070	0.552839	0.052525
N58	N	-0.195680	0.698615	-0.026078
C59	C	-0.197538	0.777404	-0.068544
O60	O	-0.240815	0.844410	-0.104655
C61	C	-0.020553	0.777418	-0.068555
C62	C	0.025552	0.698633	-0.026095
C63	C	0.073515	0.541073	0.058826
C64	C	0.117759	0.541077	0.058819
C65	C	0.115899	0.619859	0.016354
C66	C	0.069796	0.698637	-0.026103
C67	C	-0.022412	0.856205	-0.111016
C68	C	0.021839	0.856202	-0.111013
C69	C	0.067944	0.777418	-0.068554
C70	C	0.112180	0.777424	-0.068575
N71	N	0.158286	0.698645	-0.026112
C72	C	0.160145	0.619863	0.016353
C73	C	-0.290456	0.777391	-0.068537
C74	C	-0.334702	0.777387	-0.068536
C75	C	-0.286735	0.619820	0.016395
C76	C	-0.242488	0.619824	0.016389
C77	C	-0.244351	0.698612	-0.026074
C78	C	0.253058	0.619877	0.016333
C79	C	0.297304	0.619888	0.016319
C80	C	0.249333	0.777455	-0.068608
C81	C	0.205091	0.777445	-0.068598
C82	C	0.206957	0.698649	-0.026121
O83	O	0.114713	0.844386	-0.104689
O84	O	0.203427	0.552867	0.052472
C85	C	-0.016832	0.619847	0.016377
C86	C	-0.062935	0.698625	-0.026080
C87	C	-0.064795	0.777407	-0.068545
C88	C	-0.107181	0.698621	-0.026078
C89	C	-0.105322	0.619839	0.016386
C90	C	-0.059216	0.541060	0.058849
C91	C	-0.014972	0.541065	0.058842
C92	C	-0.110901	0.856186	-0.111008
C93	C	-0.155142	0.856175	-0.110997
C94	C	-0.153283	0.777393	-0.068533
C95	C	0.620063	0.698613	-0.026080
C96	C	0.667157	0.698605	-0.026071
C97	C	0.486087	0.682917	-0.227817
C98	C	0.487712	0.677581	-0.296276
C99	C	0.486896	0.908206	-0.033967
C100	C	0.488795	0.979331	-0.036634
C101	C	0.498103	0.643424	-0.681316
C102	C	0.496578	0.648444	-0.616996
C103	C	0.471836	0.729735	-0.627302
C104	C	0.448622	0.806011	-0.701935
C105	C	0.450150	0.800990	-0.766253
C106	C	0.466026	0.748836	-0.435226
C107	C	0.464498	0.753851	-0.370900
C108	C	0.512456	0.596284	-0.285966
C109	C	0.513979	0.591270	-0.350290
C110	C	0.490767	0.667546	-0.424916
C111	C	0.470276	0.734868	-0.561558
C112	C	0.492331	0.662412	-0.490659
C113	C	0.476514	0.714359	0.175601
C114	C	0.474889	0.719694	0.244059
C115	C	0.614467	0.489045	-0.018222
C116	C	0.659663	0.417912	-0.015545
C117	C	0.470919	0.504791	0.183459
C118	C	0.467395	0.439001	0.254585
C119	C	0.609680	0.504766	0.183487
C120	C	0.653251	0.438968	0.254622
C121	C	0.352921	0.892509	-0.235704
C122	C	0.309350	0.958307	-0.306839
C123	C	0.348134	0.908230	-0.033995
C124	C	0.302939	0.979364	-0.036671
C125	C	0.491683	0.892485	-0.235676
C126	C	0.495206	0.958275	-0.306801
C127	C	0.654726	0.381441	-0.053688
C128	C	0.697188	0.314611	-0.051189
C129	C	0.744587	0.284250	-0.010541
C130	C	0.749523	0.320727	0.027603
C131	C	0.707061	0.387560	0.025098
C132	C	0.491901	0.411171	0.327386
C133	C	0.488589	0.349364	0.394222
C134	C	0.460772	0.315384	0.388255
C135	C	0.436263	0.343220	0.315446
C136	C	0.439573	0.405030	0.248611
C137	C	0.701748	0.404994	0.248645
C138	C	0.742692	0.343179	0.315478
C139	C	0.735139	0.315334	0.388286
C140	C	0.686637	0.349314	0.394261
C141	C	0.645694	0.411133	0.327429
C142	C	0.260853	0.992289	-0.300862
C143	C	0.219910	1.054126	-0.367695
C144	C	0.227464	1.081974	-0.440504
C145	C	0.275965	1.047989	-0.446479
C146	C	0.316908	0.986159	-0.379646
C147	C	0.307876	1.015841	0.001465
C148	C	0.265414	1.082688	-0.001053
C149	C	0.218016	1.113052	-0.041703
C150	C	0.213080	1.076571	-0.079844
C151	C	0.255541	1.009730	-0.077330
C152	C	0.523027	0.992236	-0.300809
C153	C	0.526347	1.054044	-0.367633
C154	C	0.501844	1.081894	-0.440447
C155	C	0.474023	1.047927	-0.446438
C156	C	0.470705	0.986115	-0.379615
H157	H	0.539814	-0.020041	-0.108325
H158	H	0.269443	1.112379	0.030009
H159	H	0.549002	1.081694	-0.362740
H160	H	-0.372240	0.841541	-0.103120
H161	H	0.517745	0.205997	-0.077297
H162	H	0.448049	0.958471	-0.384505
Cl163	Cl	0.175987	1.159704	-0.524515
H164	H	0.711088	0.417246	0.056164
Cl165	Cl	0.797963	0.200228	-0.007398
Cl166	Cl	0.526875	0.453874	0.334908
H167	H	0.788120	0.295997	0.060697
Cl168	Cl	0.429331	0.128506	0.046939
Cl169	Cl	0.519406	0.314380	0.485743
Cl170	Cl	0.456617	0.237677	0.472284
Cl171	Cl	0.401297	0.300491	0.307957
Cl172	Cl	0.285453	1.083004	-0.538015
H173	H	0.180421	1.081786	-0.362816
Cl174	Cl	0.249325	0.963875	-0.125272
Cl175	Cl	0.153489	1.114749	-0.130940
H176	H	0.356395	0.958490	-0.384521
Cl177	Cl	0.584727	0.453831	0.334956
H178	H	0.542981	0.969570	-0.241526
H179	H	0.247827	0.841598	-0.103184
H180	H	0.419618	0.427680	0.189336
Cl181	Cl	0.436840	0.844726	-0.529034
Cl182	Cl	0.711258	0.439992	0.157123
Cl183	Cl	0.042984	0.442016	0.112224
Cl184	Cl	0.506018	1.159605	-0.524447
Cl185	Cl	0.443216	1.082957	-0.537983
H186	H	0.444346	0.820051	-0.379300
H187	H	0.334844	0.555730	0.050897
H188	H	0.524494	0.406156	-0.086808
Cl189	Cl	0.367457	0.977688	0.052569
H190	H	0.438102	-0.008877	0.034588
Cl191	Cl	0.164640	1.197080	-0.044854
H192	H	0.155296	0.476922	0.093391
Cl193	Cl	0.595144	0.419599	-0.104798
Cl194	Cl	0.251344	0.957293	-0.209340
H195	H	0.521258	0.284911	-0.082246
H196	H	0.534127	0.525075	-0.341889
Cl197	Cl	0.555861	0.114645	-0.130882
H198	H	0.419551	0.296063	0.060667
H199	H	0.444862	0.191259	0.025096
Cl200	Cl	0.410769	0.433474	0.073003
Cl201	Cl	0.803660	0.300469	0.307949
H202	H	0.768481	0.264996	0.442698
Cl203	Cl	0.677149	0.314299	0.485798
H204	H	0.254585	0.555714	0.050922
H205	H	0.075038	0.476916	0.093410
H206	H	-0.285227	0.555672	0.050967
Cl207	Cl	-0.292807	0.876449	-0.121927
Cl208	Cl	-0.184531	0.520777	0.069770
H209	H	0.020317	0.920363	-0.145583
Cl210	Cl	0.147129	0.876488	-0.121991
Cl211	Cl	-0.056887	0.442021	0.112231
Cl212	Cl	-0.080364	0.955256	-0.164390
H213	H	-0.112423	0.920341	-0.145590
Cl214	Cl	-0.213101	0.955229	-0.164383
H215	H	0.518248	0.577228	-0.672916
Cl216	Cl	0.525745	0.552557	-0.523183
H217	H	0.531354	0.534185	-0.225200
H218	H	0.428479	0.872200	-0.710321
Cl219	Cl	0.420968	0.896876	-0.860069
Cl220	Cl	0.439171	0.837059	-0.574507
Cl221	Cl	0.523435	0.560221	-0.477706
H222	H	0.693160	0.284919	-0.082250
