data_functionalizedCrystal
_audit_creation_method	'MofGen! by Chris Wilmer'
_symmetry_space_group_name_H-M	'P1'
_symmetry_Int_Tables_number	1
_symmetry_cell_setting	triclinic
loop_
_symmetry_equiv_pos_as_xyz
  x,y,z
_cell_length_a	15.995350
_cell_length_b	15.995350
_cell_length_c	13.101039
_cell_angle_alpha	93.364563
_cell_angle_beta	86.645958
_cell_angle_gamma	83.492375
loop_
_atom_site_label
_atom_site_type_symbol
_atom_site_fract_x
_atom_site_fract_y
_atom_site_fract_z
O1	O	1.115587	0.103310	-0.085122
O2	O	0.871813	0.116637	-0.085143
O3	O	1.000363	-0.011914	-0.085131
O4	O	0.987036	0.231861	-0.085134
O5	O	0.991140	-0.002675	0.085298
O6	O	0.862589	0.125875	0.085286
O7	O	1.106363	0.112549	0.085307
Zn8	Zn	0.983012	0.120679	0.112356
Zn9	Zn	0.995164	0.108507	-0.112192
O10	O	0.977813	0.241100	0.085295
C11	C	0.836006	0.120705	0.000069
C12	C	0.743056	0.119053	0.000061
C13	C	0.405308	0.113122	0.000082
C14	C	0.452721	0.021590	0.000464
C15	C	0.549432	0.023221	0.000072
C16	C	0.572869	0.116064	0.000072
C17	C	0.537048	0.155945	-0.097248
C18	C	0.440417	0.153641	-0.097322
C19	C	0.429589	0.166038	0.096488
C20	C	0.526465	0.166086	0.097767
C21	C	0.667567	0.117731	0.000063
C22	C	0.310610	0.111457	0.000085
C23	C	0.995201	-0.038490	0.000081
C24	C	0.993549	-0.131440	0.000075
C25	C	0.987617	-0.469188	0.000078
C26	C	0.896086	-0.421775	-0.000312
C27	C	0.897717	-0.325064	0.000073
C28	C	0.990559	-0.301627	0.000076
C29	C	1.030449	-0.337429	0.097402
C30	C	1.028145	-0.434060	0.097483
C31	C	1.040525	-0.444924	-0.096327
C32	C	1.040573	-0.348049	-0.097613
C33	C	0.992227	-0.206930	0.000079
C34	C	0.985952	-0.563885	0.000083
C35	C	1.142170	0.108481	0.000092
C36	C	1.235120	0.110132	0.000094
C37	C	0.982975	0.267675	0.000080
C38	C	0.984627	0.360625	0.000079
N39	N	0.974724	0.128986	0.265603
N40	N	1.003458	0.100193	-0.265440
C41	C	0.963449	0.140295	0.474645
C42	C	1.014731	0.088887	0.525525
C43	C	1.008457	0.095179	0.641843
C44	C	0.969722	0.134003	0.358316
H45	H	0.430422	-0.011222	0.070256
H46	H	1.063347	0.040149	0.481727
O47	O	0.431740	-0.031659	-0.091460
H48	H	0.387692	0.006785	-0.137421
O49	O	0.591355	-0.029123	-0.092499
H50	H	0.542550	-0.055694	-0.137167
H51	H	0.914837	0.189030	0.518438
H52	H	0.991279	-0.448418	0.170232
H53	H	0.574086	-0.008492	0.069835
H54	H	0.426045	0.116767	-0.170071
H55	H	0.408407	0.220617	-0.101739
O56	O	1.116855	-0.476468	0.103361
H57	H	1.161209	-0.427930	0.106140
H58	H	0.551369	0.223957	-0.100866
O59	O	0.397121	0.131684	0.194207
H60	H	0.363310	0.076504	0.175147
O61	O	1.120537	-0.318453	0.102221
H62	H	1.137875	-0.283216	0.035140
O63	O	0.842856	-0.442730	0.091624
H64	H	0.839440	-0.511740	0.088899
H65	H	0.569342	0.120655	-0.169675
O66	O	0.852604	-0.451327	-0.092755
H67	H	0.794665	-0.478464	-0.067115
O68	O	0.557482	0.127600	0.193144
H69	H	0.605749	0.073074	0.171072
H70	H	0.541512	0.234108	0.103645
O71	O	0.387463	0.255495	0.097380
H72	H	0.349410	0.262279	0.029534
O73	O	1.130680	-0.328132	-0.105393
H74	H	1.142835	-0.297777	-0.177985
O75	O	1.002064	-0.317060	-0.192991
H76	H	1.049949	-0.288840	-0.240411
O77	O	0.845392	-0.283125	0.092647
H78	H	0.818829	-0.331922	0.137321
H79	H	0.865997	-0.300424	-0.069694
H80	H	0.995166	-0.305122	0.169825
O81	O	1.006166	-0.477417	-0.194046
H82	H	0.950989	-0.511226	-0.174987
O83	O	1.129983	-0.487045	-0.097206
H84	H	1.136773	-0.525083	-0.029355
