data_functionalizedCrystal
_audit_creation_method	'MofGen! by Chris Wilmer'
_symmetry_space_group_name_H-M	'P1'
_symmetry_Int_Tables_number	1
_symmetry_cell_setting	triclinic
loop_
_symmetry_equiv_pos_as_xyz
  x,y,z
_cell_length_a	13.897449
_cell_length_b	11.169416
_cell_length_c	11.169409
_cell_angle_alpha	89.969184
_cell_angle_beta	89.977245
_cell_angle_gamma	90.011620
loop_
_atom_site_label
_atom_site_type_symbol
_atom_site_fract_x
_atom_site_fract_y
_atom_site_fract_z
Zn1	Zn	1.474771	-0.477670	-0.678625
Zn2	Zn	1.974771	0.022330	-0.178625
Zn3	Zn	1.474680	-0.678410	-0.477947
Zn4	Zn	1.974680	-0.178410	0.022053
Zn5	Zn	1.313455	-0.477744	-0.477952
Zn6	Zn	1.813455	0.022256	0.022048
Zn7	Zn	1.313463	-0.678314	-0.678584
Zn8	Zn	1.813463	-0.178314	-0.178584
O9	O	1.394092	-0.578034	-0.578277
O10	O	1.894092	-0.078034	-0.078277
O11	O	1.609741	-0.504307	-0.652020
O12	O	2.109741	-0.004307	-0.152020
O13	O	1.453252	-0.651862	-0.309998
O14	O	1.953252	-0.151862	0.190002
O15	O	1.334888	-0.309784	-0.504591
O16	O	1.834888	0.190216	-0.004591
O17	O	1.609674	-0.651790	-0.504583
O18	O	2.109674	-0.151790	-0.004583
O19	O	1.453407	-0.309730	-0.652024
O20	O	1.953407	0.190270	-0.152024
O21	O	1.334800	-0.504434	-0.310001
O22	O	1.834800	-0.004434	0.189999
O23	O	1.178474	-0.504341	-0.504551
O24	O	1.678474	-0.004341	-0.004551
O25	O	1.334902	-0.651627	-0.846540
O26	O	1.834902	-0.151627	-0.346540
O27	O	1.178480	-0.651699	-0.651955
O28	O	1.678480	-0.151699	-0.151955
O29	O	1.453415	-0.504214	-0.846570
O30	O	1.953415	-0.004214	-0.346570
O31	O	1.453260	-0.846347	-0.504543
O32	O	1.953260	-0.346347	-0.004543
O33	O	1.334814	-0.846276	-0.651950
O34	O	1.834814	-0.346276	-0.151950
C35	C	1.394054	-0.889859	-0.578268
C36	C	1.894054	-0.389859	-0.078268
C37	C	1.394126	-1.023259	-0.578304
C38	C	1.894126	-0.523259	-0.078304
C39	C	1.143478	-0.578018	-0.578250
C40	C	1.643478	-0.078018	-0.078250
C41	C	1.036264	-0.578040	-0.578267
C42	C	1.536264	-0.078040	-0.078267
C43	C	0.839969	-0.578045	-0.578298
C44	C	1.339969	-0.078045	-0.078298
C45	C	0.949201	-0.578039	-0.578277
C46	C	1.449201	-0.078039	-0.078277
C47	C	1.645685	-0.578051	-0.578305
C48	C	2.145685	-0.078051	-0.078305
C49	C	1.752899	-0.578059	-0.578317
C50	C	2.252899	-0.078059	-0.078317
C51	C	1.394169	-0.577901	-0.891320
C52	C	1.894169	-0.077901	-0.391320
C53	C	1.394202	-0.577845	-1.024720
C54	C	1.894202	-0.077845	-0.524720
C55	C	1.394157	-0.264992	-0.578313
C56	C	1.894157	0.235008	-0.078313
C57	C	1.394184	-0.131592	-0.578328
C58	C	1.894184	0.368408	-0.078328
C59	C	1.394071	-0.578080	-0.266452
C60	C	1.894071	-0.078080	0.233548
C61	C	1.394225	-0.577799	-0.133053
C62	C	1.894225	-0.077799	0.366947
