data_functionalizedCrystal
_audit_creation_method	'MofGen! by Chris Wilmer'
_symmetry_space_group_name_H-M	'P1'
_symmetry_Int_Tables_number	1
_symmetry_cell_setting	triclinic
loop_
_symmetry_equiv_pos_as_xyz
  x,y,z
_cell_length_a	18.050589
_cell_length_b	18.215407
_cell_length_c	18.215399
_cell_angle_alpha	89.982187
_cell_angle_beta	89.976397
_cell_angle_gamma	90.022734
loop_
_atom_site_label
_atom_site_type_symbol
_atom_site_fract_x
_atom_site_fract_y
_atom_site_fract_z
Zn1	Zn	-0.295776	1.125055	-0.416098
Zn2	Zn	-0.419971	1.124956	-0.293041
Zn3	Zn	-0.295787	1.001987	-0.293050
Zn4	Zn	-0.419917	1.001946	-0.416071
O5	O	-0.357863	1.063486	-0.354565
O6	O	-0.312268	1.228026	-0.399783
O7	O	-0.403525	1.108620	-0.190058
O8	O	-0.191861	1.018371	-0.309388
O9	O	-0.403514	1.227953	-0.309373
O10	O	-0.191853	1.108788	-0.399791
O11	O	-0.312288	1.018275	-0.190065
O12	O	-0.312235	0.898998	-0.309361
O13	O	-0.403422	1.018301	-0.519059
O14	O	-0.403433	0.898967	-0.399744
O15	O	-0.312216	1.108748	-0.519079
O16	O	-0.523888	1.108580	-0.309346
O17	O	-0.523848	1.018205	-0.399735
C18	C	-0.357830	0.872280	-0.354551
C19	C	-0.357834	0.790481	-0.354562
C20	C	-0.310443	0.525456	-0.401716
C21	C	-0.310431	0.602314	-0.401714
C22	C	-0.405307	0.602258	-0.307430
C23	C	-0.405322	0.525401	-0.307437
C24	C	-0.357886	0.487001	-0.354579
C25	C	-0.357858	0.640717	-0.354570
C26	C	-0.357846	0.724051	-0.354567
C27	C	-0.357899	0.403662	-0.354583
C28	C	-0.550815	1.063397	-0.354553
C29	C	-0.633361	1.063427	-0.354572
C30	C	-0.832816	1.014329	-0.403709
C31	C	-0.882255	0.996389	-0.336555
C32	C	-0.784491	1.063499	-0.354582
C33	C	-0.882134	1.081475	-0.421743
C34	C	-0.930476	1.063567	-0.354597
C35	C	-0.832842	1.045524	-0.287393
C36	C	-0.832717	1.130641	-0.372626
C37	C	-0.882133	1.112726	-0.305426
C38	C	-0.700393	1.063458	-0.354574
C39	C	-1.014572	1.063609	-0.354597
C40	C	-0.164157	1.063595	-0.354594
C41	C	-0.081611	1.063642	-0.354606
C42	C	-0.357811	1.063531	-0.546518
C43	C	-0.357790	1.063550	-0.628317
C44	C	-0.357896	1.255439	-0.354580
C45	C	-0.357910	1.337238	-0.354586
C46	C	-0.310254	1.110663	-0.816523
C47	C	-0.310233	1.110672	-0.893382
C48	C	-0.405210	1.016489	-0.893349
C49	C	-0.405227	1.016477	-0.816492
C50	C	-0.357751	1.063568	-0.778081
C51	C	-0.357712	1.063589	-0.931797
C52	C	-0.357689	1.063598	-1.015131
C53	C	-0.357773	1.063558	-0.694742
C54	C	-0.357860	1.063484	-0.163359
C55	C	-0.357673	1.063607	-0.081560
H56	H	-0.811162	0.972687	-0.445195
H57	H	-0.271817	0.494193	-0.440102
H58	H	-0.810943	1.187375	-0.387906
Cl59	Cl	-0.464896	0.957296	-0.941643
Cl60	Cl	-0.464938	0.957263	-0.768161
Cl61	Cl	-0.250787	0.650653	-0.460978
H62	H	-0.443960	0.494090	-0.269051
Cl63	Cl	-0.464934	0.650536	-0.248166
H64	H	-0.811280	1.030281	-0.230586
Cl65	Cl	-0.915357	1.176972	-0.241224
Cl66	Cl	-0.915849	0.908772	-0.312993
Cl67	Cl	-0.915566	1.104906	-0.509423
Cl68	Cl	-0.250567	1.169860	-0.768237
H69	H	-0.271555	1.149020	-0.924678
