data_functionalizedCrystal
_audit_creation_method	'MofGen! by Chris Wilmer'
_symmetry_space_group_name_H-M	'P1'
_symmetry_Int_Tables_number	1
_symmetry_cell_setting	triclinic
loop_
_symmetry_equiv_pos_as_xyz
  x,y,z
_cell_length_a	14.044191
_cell_length_b	13.101039
_cell_length_c	14.044220
_cell_angle_alpha	93.667477
_cell_angle_beta	86.809673
_cell_angle_gamma	93.662449
loop_
_atom_site_label
_atom_site_type_symbol
_atom_site_fract_x
_atom_site_fract_y
_atom_site_fract_z
O1	O	1.281976	0.085169	-0.225377
O2	O	1.615310	0.418503	0.107956
O3	O	1.948643	0.751836	0.441289
O4	O	1.005305	0.085182	-0.217064
O5	O	1.338638	0.418515	0.116269
O6	O	1.671971	0.751849	0.449603
O7	O	1.139487	0.085166	-0.082885
O8	O	1.472820	0.418499	0.250448
O9	O	1.806154	0.751832	0.583781
O10	O	1.147794	0.085186	-0.359556
O11	O	1.481127	0.418519	-0.026223
O12	O	1.814461	0.751852	0.307111
O13	O	1.129861	-0.085263	-0.092530
O14	O	1.463194	0.248070	0.240803
O15	O	1.796528	0.581404	0.574137
O16	O	0.995679	-0.085247	-0.226708
O17	O	1.329012	0.248087	0.106625
O18	O	1.662345	0.581420	0.439958
O19	O	1.272350	-0.085259	-0.235022
O20	O	1.605684	0.248074	0.098311
O21	O	1.939017	0.581407	0.431645
Zn22	Zn	1.132486	-0.112312	-0.232396
Zn23	Zn	1.465820	0.221021	0.100937
Zn24	Zn	1.799153	0.554354	0.434270
Zn25	Zn	1.145169	0.112235	-0.219689
Zn26	Zn	1.478502	0.445568	0.113644
Zn27	Zn	1.811836	0.778902	0.446977
O28	O	1.138168	-0.085243	-0.369200
O29	O	1.471501	0.248090	-0.035867
O30	O	1.804835	0.581424	0.297466
C31	C	0.964870	-0.000031	-0.218250
C32	C	1.298203	0.333303	0.115084
C33	C	1.631536	0.666636	0.448417
C34	C	0.858727	-0.000026	-0.207402
C35	C	1.192060	0.333307	0.125931
C36	C	1.525394	0.666641	0.459265
C37	C	0.613268	-0.000032	-0.264503
C38	C	0.946601	0.333301	0.068831
C39	C	1.279935	0.666634	0.402164
C40	C	0.664393	-0.000036	-0.187587
C41	C	0.997727	0.333297	0.145747
C42	C	1.331060	0.666631	0.479080
C43	C	0.772531	-0.000031	-0.198615
C44	C	1.105864	0.333303	0.134719
C45	C	1.439197	0.666636	0.468052
C46	C	0.505121	-0.000038	-0.253476
C47	C	0.838454	0.333296	0.079857
C48	C	1.171788	0.666629	0.413190
N49	N	1.123838	-0.265560	-0.241069
N50	N	1.457171	0.067774	0.092265
N51	N	1.790504	0.401107	0.425598
C52	C	1.112072	-0.474601	-0.252876
C53	C	1.445405	-0.141267	0.080457
C54	C	1.778738	0.192066	0.413790
C55	C	1.165588	-0.525483	-0.199205
C56	C	1.498921	-0.192150	0.134128
C57	C	1.832254	0.141184	0.467461
C58	C	1.159041	-0.641801	-0.205775
C59	C	1.492374	-0.308467	0.127558
C60	C	1.825708	0.024866	0.460891
C61	C	1.118617	-0.358273	-0.246308
C62	C	1.451951	-0.024939	0.087026
C63	C	1.785284	0.308394	0.420359
C64	C	1.312785	-0.000044	-0.233836
C65	C	1.646119	0.333289	0.099497
C66	C	1.979452	0.666622	0.432831
C67	C	1.418929	-0.000042	-0.244683
C68	C	1.752262	0.333291	0.088650
C69	C	2.085595	0.666625	0.421983
C70	C	1.131038	-0.000049	-0.052086
C71	C	1.464372	0.333285	0.281248
C72	C	1.797705	0.666618	0.614581
C73	C	1.120194	-0.000050	0.054057
C74	C	1.453527	0.333284	0.387391
C75	C	1.786860	0.666617	0.720724
N76	N	1.153824	0.265482	-0.211010
N77	N	1.487158	0.598816	0.122323
N78	N	1.820491	0.932149	0.455657
C79	C	1.146617	-0.000026	-0.400000
C80	C	1.479950	0.333307	-0.066667
C81	C	1.813283	0.666640	0.266667
C82	C	1.157462	-0.000019	-0.506143
C83	C	1.490795	0.333315	-0.172809
C84	C	1.824128	0.666648	0.160524
C85	C	1.100368	-0.000034	0.248396
C86	C	1.433702	0.333299	0.581730
C87	C	1.767035	0.666633	0.915063
C88	C	1.177283	-0.000034	0.299524
C89	C	1.510616	0.333299	0.632858
C90	C	1.843950	0.666632	0.966191
C91	C	1.166252	-0.000026	0.407661
C92	C	1.499585	0.333308	0.740995
C93	C	1.832919	0.666641	1.074328
C94	C	1.111398	-0.000043	0.140250
C95	C	1.444731	0.333291	0.473583
C96	C	1.778065	0.666624	0.806916
H97	H	0.650710	-0.000024	-0.338629
H98	H	0.984043	0.333309	-0.005296
H99	H	1.317377	0.666643	0.328038
H100	H	0.626954	0.000031	-0.113451
H101	H	0.960287	0.333364	0.219883
H102	H	1.293620	0.666697	0.553216
H103	H	1.061342	-0.518392	-0.303757
H104	H	1.394675	-0.185058	0.029576
H105	H	1.728009	0.148275	0.362909
H106	H	1.216322	-0.481687	-0.148323
H107	H	1.549655	-0.148354	0.185011
H108	H	1.882988	0.184980	0.518344
H109	H	1.251420	0.000031	0.262087
H110	H	1.584754	0.333364	0.595420
H111	H	1.918087	0.666698	0.928754
H112	H	1.026241	-0.000028	0.285836
H113	H	1.359574	0.333305	0.619169
H114	H	1.692908	0.666639	0.952502
