data_functionalizedCrystal
_audit_creation_method	'MofGen! by Chris Wilmer'
_symmetry_space_group_name_H-M	'P1'
_symmetry_Int_Tables_number	1
_symmetry_cell_setting	triclinic
loop_
_symmetry_equiv_pos_as_xyz
  x,y,z
_cell_length_a	12.645331
_cell_length_b	18.050589
_cell_length_c	12.645323
_cell_angle_alpha	89.974557
_cell_angle_beta	89.977324
_cell_angle_gamma	90.027200
loop_
_atom_site_label
_atom_site_type_symbol
_atom_site_fract_x
_atom_site_fract_y
_atom_site_fract_z
Zn1	Zn	1.620654	-0.295674	-0.599442
Zn2	Zn	1.620503	-0.419873	-0.422180
Zn3	Zn	1.443368	-0.295699	-0.422186
Zn4	Zn	1.443317	-0.419824	-0.599396
O5	O	1.531961	-0.357767	-0.510801
O6	O	1.768981	-0.312159	-0.575945
O7	O	1.596964	-0.403432	-0.273834
O8	O	1.466970	-0.191771	-0.445722
O9	O	1.768870	-0.403407	-0.445711
O10	O	1.597221	-0.191753	-0.575951
O11	O	1.466824	-0.312202	-0.273838
O12	O	1.295014	-0.312155	-0.445677
O13	O	1.466883	-0.403325	-0.747749
O14	O	1.294977	-0.403349	-0.575872
O15	O	1.597172	-0.312112	-0.747783
O16	O	1.596914	-0.523791	-0.445666
O17	O	1.466737	-0.523755	-0.575866
C18	C	1.256531	-0.357750	-0.510770
C19	C	1.138701	-0.357760	-0.510783
C20	C	0.971125	-0.300126	-0.429329
C21	C	1.093685	-0.300275	-0.428970
C22	C	1.094160	-0.435993	-0.480267
C23	C	0.971562	-0.435678	-0.479711
C24	C	0.971557	-0.337906	-0.623067
C25	C	1.094163	-0.336158	-0.622443
C26	C	1.531833	-0.550720	-0.510784
C27	C	1.531875	-0.633265	-0.510811
C28	C	1.461154	-0.832724	-0.581589
C29	C	1.435307	-0.882166	-0.484854
C30	C	1.531979	-0.784396	-0.510825
C31	C	1.557878	-0.882035	-0.607571
C32	C	1.532078	-0.930381	-0.510847
C33	C	1.506082	-0.832751	-0.414039
C34	C	1.628697	-0.832616	-0.536821
C35	C	1.602887	-0.882036	-0.440020
C36	C	1.531919	-0.700297	-0.510814
C37	C	1.532137	-1.014477	-0.510847
C38	C	1.808466	-0.357786	-0.510832
C39	C	1.926296	-0.357793	-0.510846
C40	C	1.532039	-0.357710	-0.787307
C41	C	1.532072	-0.357686	-0.905137
C42	C	1.532118	-0.164062	-0.510842
C43	C	1.532185	-0.081516	-0.510859
C44	C	1.449855	-0.414797	-1.072679
C45	C	1.450070	-0.415080	-0.950119
C46	C	1.643766	-0.378927	-0.949656
C47	C	1.643315	-0.379285	-1.072254
C48	C	1.503651	-0.279014	-1.072336
C49	C	1.501159	-0.279485	-0.949729
C50	C	1.531944	-0.357771	-0.235371
C51	C	1.532116	-0.357586	-0.117542
H52	H	0.940675	-0.281854	-0.650819
H53	H	1.124810	-0.375097	-0.686428
Cl54	Cl	1.680566	-0.467965	-1.116431
H55	H	1.367244	-0.401788	-0.920018
H56	H	1.353563	-0.903947	-0.462887
H57	H	0.941676	-0.241938	-0.448251
H58	H	1.706683	-0.339424	-1.101934
H59	H	0.942911	-0.452544	-0.397672
H60	H	1.123801	-0.242262	-0.448097
H61	H	1.556698	-0.234606	-0.919109
Cl62	Cl	1.321592	-0.394471	-1.118174
H63	H	1.122959	-0.313420	-0.345809
H64	H	0.941905	-0.480100	-0.536495
Cl65	Cl	1.591636	-0.915463	-0.733874
Cl66	Cl	1.374247	-0.254755	-0.904817
Cl67	Cl	1.368551	-0.799290	-0.673852
Cl68	Cl	1.478517	-0.504158	-1.120336
Cl69	Cl	1.479140	-0.505003	-0.904852
H70	H	1.710423	-0.810837	-0.558835
Cl71	Cl	1.596154	-0.213205	-1.117130
Cl72	Cl	1.472178	-0.799469	-0.287697
H73	H	1.123318	-0.480108	-0.537776
Cl74	Cl	1.139139	-0.247280	-0.657986
Cl75	Cl	0.923473	-0.320180	-0.301693
H76	H	1.706699	-0.338575	-0.920522
Cl77	Cl	1.141475	-0.462482	-0.354962
H78	H	0.942567	-0.379909	-0.683804
Cl79	Cl	1.695428	-0.915256	-0.347540
Cl80	Cl	1.681664	-0.466678	-0.902279
Cl81	Cl	1.380091	-0.249122	-1.120043
