data_functionalizedCrystal
_audit_creation_method	'MofGen! by Chris Wilmer'
_symmetry_space_group_name_H-M	'P1'
_symmetry_Int_Tables_number	1
_symmetry_cell_setting	triclinic
loop_
_symmetry_equiv_pos_as_xyz
  x,y,z
_cell_length_a	12.759395
_cell_length_b	18.101397
_cell_length_c	12.759387
_cell_angle_alpha	89.961826
_cell_angle_beta	89.982262
_cell_angle_gamma	90.020311
loop_
_atom_site_label
_atom_site_type_symbol
_atom_site_fract_x
_atom_site_fract_y
_atom_site_fract_z
Zn1	Zn	1.606209	-0.294785	-0.593929
Zn2	Zn	1.606087	-0.418648	-0.418231
Zn3	Zn	1.430512	-0.294824	-0.418270
Zn4	Zn	1.430482	-0.418589	-0.593873
O5	O	1.518323	-0.356712	-0.506076
O6	O	1.753214	-0.311224	-0.570630
O7	O	1.582759	-0.402263	-0.271215
O8	O	1.453883	-0.191186	-0.441611
O9	O	1.753124	-0.402225	-0.441545
O10	O	1.582966	-0.191157	-0.570668
O11	O	1.453765	-0.311291	-0.271243
O12	O	1.283487	-0.311234	-0.441557
O13	O	1.453831	-0.402125	-0.740902
O14	O	1.283465	-0.402163	-0.570572
O15	O	1.582937	-0.311167	-0.740943
O16	O	1.582729	-0.522273	-0.441490
O17	O	1.453713	-0.522230	-0.570534
C18	C	1.245355	-0.356697	-0.506063
C19	C	1.128578	-0.356708	-0.506082
C20	C	1.128652	-0.262102	-0.640716
C21	C	1.073828	-0.214808	-0.708041
C22	C	0.964107	-0.214821	-0.708054
C23	C	0.909207	-0.262132	-0.640732
C24	C	0.964030	-0.309426	-0.573407
C25	C	1.073755	-0.309409	-0.573404
C26	C	0.963956	-0.404028	-0.438770
C27	C	1.073678	-0.404019	-0.438761
C28	C	0.909056	-0.451339	-0.371449
C29	C	0.963880	-0.498638	-0.304127
C30	C	1.073608	-0.498623	-0.304118
C31	C	1.128502	-0.451314	-0.371436
C32	C	1.518233	-0.549122	-0.506025
C33	C	1.518290	-0.631436	-0.506038
C34	C	1.518424	-0.930527	-0.506134
C35	C	1.599372	-0.899198	-0.424726
C36	C	1.599652	-0.813580	-0.424937
C37	C	1.518358	-0.782145	-0.506086
C38	C	1.548376	-0.813142	-0.616826
C39	C	1.549002	-0.898787	-0.616383
C40	C	1.407244	-0.899039	-0.477760
C41	C	1.407793	-0.813389	-0.475288
C42	C	1.518319	-0.698285	-0.506065
C43	C	1.518466	-1.014387	-0.506162
C44	C	1.792356	-0.356727	-0.506089
C45	C	1.909133	-0.356733	-0.506095
C46	C	1.518394	-0.356635	-0.780109
C47	C	1.518424	-0.356603	-0.896886
C48	C	1.518441	-0.163550	-0.506150
C49	C	1.518492	-0.081236	-0.506181
C50	C	1.384112	-0.261866	-0.896935
C51	C	1.316974	-0.214484	-0.951820
C52	C	1.317006	-0.214457	-1.061542
C53	C	1.384180	-0.261820	-1.116381
C54	C	1.451317	-0.309202	-1.061496
C55	C	1.451280	-0.309222	-0.951771
C56	C	1.585622	-0.403941	-1.061447
C57	C	1.585598	-0.403965	-0.951725
C58	C	1.652796	-0.451304	-1.116286
C59	C	1.719940	-0.498684	-1.061401
C60	C	1.719907	-0.498708	-0.951673
C61	C	1.652735	-0.451348	-0.896840
C62	C	1.518312	-0.356734	-0.233108
C63	C	1.518485	-0.356558	-0.116332
H64	H	0.919469	-0.176305	-0.762870
H65	H	1.681278	-0.920665	-0.443283
H66	H	0.819865	-0.262132	-0.640740
H67	H	1.580872	-0.792626	-0.342824
Cl68	Cl	1.372838	-0.782119	-0.349468
H69	H	1.118239	-0.537134	-0.249290
Cl70	Cl	1.266439	-0.451294	-0.371433
H71	H	1.630270	-0.918704	-0.640419
H72	H	0.819715	-0.451344	-0.371461
H73	H	1.262281	-0.175924	-0.907158
Cl74	Cl	1.232610	-0.154886	-1.130543
Cl75	Cl	1.142850	-0.155333	-0.792668
Cl76	Cl	0.894859	-0.558103	-0.219498
Cl77	Cl	1.652691	-0.451372	-0.758903
H78	H	1.217993	-0.262083	-0.640707
Cl79	Cl	1.570737	-0.931086	-0.297566
H80	H	1.682009	-0.793035	-0.443710
H81	H	1.492626	-0.919507	-0.679128
H82	H	1.379936	-0.920706	-0.398409
H83	H	1.628734	-0.791632	-0.641268
H84	H	1.384088	-0.261878	-0.807594
H85	H	1.491220	-0.792776	-0.679113
Cl86	Cl	1.309662	-0.780367	-0.560130
Cl87	Cl	1.314126	-0.930320	-0.569300
H88	H	1.384190	-0.261800	-1.205722
Cl89	Cl	1.652825	-0.451278	-1.254223
H90	H	1.774623	-0.537246	-1.106060
Cl91	Cl	1.804307	-0.558283	-0.882684
