data_functionalizedCrystal
_audit_creation_method	'MofGen! by Chris Wilmer'
_symmetry_space_group_name_H-M	'P1'
_symmetry_Int_Tables_number	1
_symmetry_cell_setting	triclinic
loop_
_symmetry_equiv_pos_as_xyz
  x,y,z
_cell_length_a	15.944493
_cell_length_b	15.021413
_cell_length_c	10.654559
_cell_angle_alpha	90.006655
_cell_angle_beta	96.018136
_cell_angle_gamma	90.006749
loop_
_atom_site_label
_atom_site_type_symbol
_atom_site_fract_x
_atom_site_fract_y
_atom_site_fract_z
O1	O	1.115498	0.074015	-0.161602
O2	O	0.871058	0.074019	-0.181646
O3	O	0.998894	0.074017	0.011189
O4	O	0.987662	0.074017	-0.354437
O5	O	0.998874	-0.074047	0.011161
O6	O	0.871038	-0.074045	-0.181674
O7	O	1.115478	-0.074049	-0.161629
Zn8	Zn	0.993255	-0.097556	-0.171656
Zn9	Zn	0.993281	0.097525	-0.171620
O10	O	0.987642	-0.074047	-0.354465
C11	C	0.839749	-0.000013	-0.180841
C12	C	0.746486	-0.000011	-0.178385
C13	C	0.511385	-0.000010	-0.291892
C14	C	0.460461	-0.073018	-0.230696
C15	C	0.575738	-0.000013	-0.173834
C16	C	0.460486	0.072962	-0.230641
C17	C	0.410803	-0.000011	-0.169446
C18	C	0.526043	-0.073080	-0.112669
C19	C	0.526071	0.072965	-0.112631
C20	C	0.475179	-0.000060	-0.051348
C21	C	0.670753	-0.000015	-0.176364
C22	C	0.315791	-0.000015	-0.166906
N23	N	0.993242	-0.230693	-0.171680
C24	C	0.934122	-0.470376	-0.260805
C25	C	1.010166	-0.529711	-0.285162
C26	C	0.993264	-0.412300	-0.171649
C27	C	0.917241	-0.529706	-0.147320
C28	C	0.993278	-0.587724	-0.171621
C29	C	1.069346	-0.470329	-0.196062
C30	C	0.976371	-0.470319	-0.058171
C31	C	1.052470	-0.529628	-0.082479
C32	C	0.993255	-0.311243	-0.171668
C33	C	0.993295	-0.688779	-0.171601
C34	C	1.146788	-0.000016	-0.162435
C35	C	1.240050	-0.000011	-0.164891
C36	C	0.998058	-0.000013	0.057962
C37	C	0.995585	-0.000008	0.197372
N38	N	0.993300	0.230663	-0.171586
C39	C	0.988478	-0.000015	-0.401238
C40	C	0.990951	-0.000015	-0.540648
C41	C	0.917994	-0.000004	0.247884
C42	C	0.915676	-0.000011	0.378875
C43	C	1.068548	-0.000021	0.408833
C44	C	1.070865	-0.000021	0.277843
C45	C	0.829734	0.000005	0.230589
C46	C	0.827416	-0.000001	0.361580
H47	H	0.554572	-0.134864	-0.062853
C48	C	1.119159	-0.564284	0.018055
C49	C	1.117983	-0.657484	0.017701
C50	C	1.179399	-0.689442	0.110302
H51	H	1.173158	-0.543938	0.000692
H52	H	1.107606	-0.543097	0.098484
H53	H	1.129542	-0.678663	-0.062709
H54	H	1.063999	-0.677854	0.035079
H55	H	1.167846	-0.668254	0.190731
H56	H	1.233394	-0.669089	0.092931
H57	H	1.178604	-0.752681	0.110082
H58	H	0.527600	-0.000079	-0.393587
H59	H	0.554736	0.134689	-0.062800
C60	C	0.453806	-0.000296	0.084371
C61	C	0.487277	-0.076866	0.145575
C62	C	0.467594	-0.077125	0.270592
H63	H	0.477260	0.051013	0.126760
H64	H	0.394288	0.000144	0.085266
H65	H	0.546784	-0.077299	0.144688
H66	H	0.463829	-0.128188	0.103224
H67	H	0.408076	-0.076684	0.271487
H68	H	0.491049	-0.025812	0.312969
H69	H	0.490294	-0.129080	0.312132
H70	H	1.133658	-0.444357	-0.216742
H71	H	0.962047	-0.444211	0.037752
C72	C	0.867384	-0.435797	-0.361330
C73	C	0.788048	-0.467188	-0.336764
C74	C	0.726556	-0.435361	-0.429351
H75	H	0.867391	-0.372566	-0.360220
H76	H	0.879477	-0.456161	-0.441915
H77	H	0.775958	-0.446820	-0.256200
H78	H	0.788014	-0.530415	-0.337886
H79	H	0.738649	-0.455724	-0.509936
H80	H	0.726570	-0.372130	-0.428233
H81	H	0.672720	-0.456661	-0.412702
C82	C	0.831546	-0.564430	-0.119623
C83	C	0.813475	-0.533064	-0.001664
C84	C	0.734545	-0.565039	0.023889
H85	H	0.789506	-0.544163	-0.182934
H86	H	0.832308	-0.627670	-0.118970
H87	H	0.812707	-0.469837	-0.002327
H88	H	0.855494	-0.553328	0.061672
H89	H	0.735307	-0.628280	0.024542
H90	H	0.692513	-0.544771	-0.039429
H91	H	0.722278	-0.543769	0.103930
C92	C	1.155192	0.000008	0.223244
C93	C	1.220619	0.000019	0.321757
C94	C	1.298316	0.000055	0.271510
H95	H	1.159378	-0.051613	0.172778
H96	H	1.159335	0.051660	0.172813
H97	H	1.216478	-0.051628	0.372167
H98	H	1.216461	0.051636	0.372232
H99	H	1.302459	0.051707	0.221079
H100	H	1.302493	-0.051567	0.221044
H101	H	1.342717	0.000071	0.338343
H102	H	1.129838	-0.000032	0.474368
H103	H	0.431805	-0.134739	-0.280565
C104	C	0.781275	0.082519	0.400193
C105	C	0.710669	0.056924	0.459296
C106	C	0.668143	0.132916	0.494864
H107	H	0.817949	0.116996	0.457016
H108	H	0.763634	0.116948	0.327393
H109	H	0.728311	0.022509	0.532087
H110	H	0.673976	0.022457	0.402497
H111	H	0.650502	0.167345	0.422063
H112	H	0.704823	0.167388	0.551682
H113	H	0.620228	0.115560	0.534958
C114	C	0.785381	-0.082685	0.174554
C115	C	0.755933	-0.133267	0.271233
C116	C	0.715082	-0.209451	0.219664
H117	H	0.739157	-0.065585	0.115980
H118	H	0.823879	-0.117163	0.132580
H119	H	0.717437	-0.098796	0.313187
H120	H	0.802140	-0.150390	0.329814
H121	H	0.753581	-0.243928	0.177690
H122	H	0.668861	-0.192342	0.161091
H123	H	0.695103	-0.243784	0.285253
H124	H	0.431846	0.134675	-0.280511
H125	H	0.803079	0.063938	0.184606
C126	C	1.029069	-0.564456	-0.413205
C127	C	0.966947	-0.534460	-0.506203
C128	C	0.984321	-0.566454	-0.624170
H129	H	1.082640	-0.543273	-0.431266
H130	H	1.029409	-0.627697	-0.412086
H131	H	0.966616	-0.471232	-0.507324
H132	H	0.913369	-0.555641	-0.488184
H133	H	0.984660	-0.629696	-0.623052
H134	H	1.037893	-0.545269	-0.642218
H135	H	0.942169	-0.546114	-0.687282
H136	H	0.799283	-0.063926	0.396822
