data_functionalizedCrystal
_audit_creation_method	'MofGen! by Chris Wilmer'
_symmetry_space_group_name_H-M	'P1'
_symmetry_Int_Tables_number	1
_symmetry_cell_setting	triclinic
loop_
_symmetry_equiv_pos_as_xyz
  x,y,z
_cell_length_a	13.897448
_cell_length_b	10.685969
_cell_length_c	13.897431
_cell_angle_alpha	85.675917
_cell_angle_beta	89.924096
_cell_angle_gamma	94.348258
loop_
_atom_site_label
_atom_site_type_symbol
_atom_site_fract_x
_atom_site_fract_y
_atom_site_fract_z
Zn1	Zn	-0.496635	-1.929333	-0.432099
Zn2	Zn	0.003365	-1.429333	0.067901
Zn3	Zn	-0.658070	-1.929087	-0.270815
Zn4	Zn	-0.158070	-1.429087	0.229185
Zn5	Zn	-0.484431	-1.718225	-0.283213
Zn6	Zn	0.015569	-1.218225	0.216787
Zn7	Zn	-0.645521	-1.718308	-0.444444
Zn8	Zn	-0.145521	-1.218308	0.055556
O9	O	-0.571164	-1.823738	-0.357643
O10	O	-0.071164	-1.323738	0.142357
O11	O	-0.528408	-2.105862	-0.400350
O12	O	-0.028408	-1.605862	0.099650
O13	O	-0.635181	-1.900978	-0.137485
O14	O	-0.135181	-1.400978	0.362515
O15	O	-0.351072	-1.746297	-0.302985
O16	O	0.148928	-1.246297	0.197015
O17	O	-0.647014	-2.105681	-0.281855
O18	O	-0.147014	-1.605681	0.218145
O19	O	-0.360038	-1.901397	-0.412372
O20	O	0.139962	-1.401397	0.087628
O21	O	-0.507609	-1.746059	-0.146594
O22	O	-0.007609	-1.246059	0.353406
O23	O	-0.495441	-1.541674	-0.314955
O24	O	0.004559	-1.041674	0.185045
O25	O	-0.625626	-1.746438	-0.577780
O26	O	-0.125626	-1.246438	-0.077780
O27	O	-0.613793	-1.541735	-0.433411
O28	O	-0.113793	-1.041735	0.066589
O29	O	-0.516240	-1.901477	-0.568711
O30	O	-0.016240	-1.401477	-0.068711
O31	O	-0.791383	-1.901059	-0.293825
O32	O	-0.291383	-1.401059	0.206175
O33	O	-0.782163	-1.746200	-0.421389
O34	O	-0.282163	-1.246200	0.078611
C35	C	-0.551932	-1.495924	-0.376869
C36	C	-0.051932	-0.995924	0.123131
C37	C	-0.543727	-1.355684	-0.385116
C38	C	-0.043727	-0.855684	0.114884
C39	C	-0.821773	-1.823646	-0.357620
C40	C	-0.321773	-1.323646	0.142380
C41	C	-0.928991	-1.823722	-0.357636
C42	C	-0.428991	-1.323722	0.142364
C43	C	-1.125294	-1.823855	-0.357689
C44	C	-0.625294	-1.323855	0.142311
C45	C	-1.016057	-1.823777	-0.357663
C46	C	-0.516057	-1.323777	0.142337
C47	C	-0.319579	-1.823865	-0.357684
C48	C	0.180421	-1.323865	0.142316
C49	C	-0.212368	-1.823919	-0.357702
C50	C	0.287632	-1.323919	0.142298
C51	C	-0.570895	-1.823994	-0.609221
C52	C	-0.070895	-1.323994	-0.109221
C53	C	-0.570780	-1.824104	-0.716429
C54	C	-0.070780	-1.324104	-0.216429
C55	C	-0.590463	-1.152832	-0.338331
C56	C	-0.090463	-0.652832	0.161669
C57	C	-0.598663	-1.293072	-0.330074
C58	C	-0.098663	-0.793072	0.169926
C59	C	-0.571367	-1.823555	-0.107039
C60	C	-0.071367	-1.323555	0.392961
C61	C	-0.571224	-1.823691	0.000183
C62	C	-0.071224	-1.323691	0.500183
C63	C	-0.571095	-1.823822	0.087260
C64	C	-0.071095	-1.323822	0.587260
C65	C	-0.570923	-1.823982	0.196502
C66	C	-0.070923	-1.323982	0.696502
H67	H	-0.651983	-1.346762	-0.276639
H68	H	-0.151983	-0.846762	0.223361
C69	C	-0.521813	-1.207517	-0.523504
C70	C	-0.021813	-0.707517	-0.023504
C71	C	-0.471757	-1.283220	-0.457258
C72	C	0.028243	-0.783220	0.042742
H73	H	-0.477379	-1.162770	-0.568037
H74	H	0.022621	-0.662770	-0.068037
H75	H	-0.566820	-1.258969	-0.557333
H76	H	-0.066820	-0.758969	-0.057333
H77	H	-0.555175	-1.149454	-0.490067
H78	H	-0.055175	-0.649454	0.009933
H79	H	-0.438401	-1.341289	-0.490694
H80	H	0.061599	-0.841289	0.009306
H81	H	-0.426734	-1.231763	-0.423426
H82	H	0.073266	-0.731763	0.076574
