data_functionalizedCrystal
_audit_creation_method	'MofGen! by Chris Wilmer'
_symmetry_space_group_name_H-M	'P1'
_symmetry_Int_Tables_number	1
_symmetry_cell_setting	triclinic
loop_
_symmetry_equiv_pos_as_xyz
  x,y,z
_cell_length_a	23.096457
_cell_length_b	23.196402
_cell_length_c	23.196401
_cell_angle_alpha	59.997774
_cell_angle_beta	90.004056
_cell_angle_gamma	60.004015
loop_
_atom_site_label
_atom_site_type_symbol
_atom_site_fract_x
_atom_site_fract_y
_atom_site_fract_z
Zr1	Zr	0.557815	0.630999	-0.075657
O2	O	0.465361	0.751274	-0.167708
O3	O	0.586148	0.510733	-0.047442
O4	O	0.586138	0.631015	-0.167717
O5	O	0.465389	0.630976	0.047446
O6	O	0.681418	0.631017	-0.167720
O7	O	0.465371	0.630992	-0.047433
O8	O	0.681436	0.415854	0.047430
O9	O	0.465371	0.846138	-0.167705
O10	O	0.669349	0.560198	-0.035407
O11	O	0.598255	0.560184	0.035403
O12	O	0.598243	0.701801	-0.106206
O13	O	0.527150	0.701787	-0.035396
Zr14	Zr	0.709804	0.630975	0.075658
Zr15	Zr	0.709776	0.631001	-0.075663
Zr16	Zr	0.557843	0.630973	0.075664
Zr17	Zr	0.557830	0.782296	-0.075651
Zr18	Zr	0.709789	0.479678	0.075652
O19	O	0.681470	0.751241	0.047443
O20	O	0.681430	0.751278	-0.167716
O21	O	0.465401	0.751237	0.047451
O22	O	0.802257	0.510700	0.167709
O23	O	0.802217	0.510737	-0.047450
O24	O	0.586188	0.510696	0.167717
O25	O	0.802229	0.630998	-0.047445
O26	O	0.681481	0.630959	0.167718
O27	O	0.586200	0.630957	0.167721
O28	O	0.802247	0.630982	0.047434
O29	O	0.586160	0.846140	-0.167709
O30	O	0.681459	0.415834	0.167710
O31	O	0.802248	0.415836	0.167706
O32	O	0.802225	0.415856	0.047426
O33	O	0.465393	0.846118	-0.047425
O34	O	0.586182	0.846120	-0.047429
O35	O	0.669375	0.560173	0.106207
O36	O	0.740469	0.560187	0.035397
O37	O	0.669363	0.701790	-0.035402
O38	O	0.598270	0.701776	0.035408
C39	C	0.633790	0.441737	-0.000007
C40	C	0.633784	0.377507	-0.000009
C41	C	0.686285	0.295071	0.052254
C42	C	0.686289	0.234710	0.052260
C43	C	0.633798	0.256792	-0.000007
C44	C	0.581288	0.339242	-0.052274
C45	C	0.581281	0.399600	-0.052275
C46	C	0.617443	0.201215	-0.063803
C47	C	0.617455	0.140856	-0.063803
C48	C	0.633818	0.070630	-0.000004
C49	C	0.650183	0.060760	0.063798
C50	C	0.650175	0.121118	0.063797
C51	C	0.633800	0.191349	-0.000011
C52	C	0.686327	-0.077260	0.052270
C53	C	0.686327	-0.137620	0.052277
C54	C	0.581328	-0.033085	-0.052263
C55	C	0.581326	0.027272	-0.052264
C56	C	0.633828	0.005179	0.000002
C57	C	0.443729	0.630984	0.000007
C58	C	0.379217	0.630983	0.000010
C59	C	0.386028	0.557070	0.036959
C60	C	0.325413	0.557068	0.036962
C61	C	0.257987	0.630985	0.000002
C62	C	0.251179	0.704907	-0.036949
C63	C	0.311794	0.704906	-0.036945
N64	N	0.135185	0.686010	-0.060151
N65	N	0.077606	0.686006	-0.060154
C66	C	0.075354	0.630992	-0.000010
N67	N	0.132863	0.575970	0.060134
N68	N	0.190449	0.575972	0.060135
C69	C	0.192256	0.630994	-0.000006
C70	C	0.016441	0.557072	0.036946
C71	C	-0.044177	0.557074	0.036951
C72	C	-0.118411	0.704915	-0.036968
C73	C	-0.057793	0.704911	-0.036966
C74	C	0.009631	0.630988	-0.000011
C75	C	0.823890	0.630990	-0.000006
C76	C	0.888401	0.630991	-0.000009
C77	C	0.633774	0.631020	-0.189279
C78	C	0.633762	0.631031	-0.253518
C79	C	0.633828	0.820237	0.000008
C80	C	0.633835	0.884466	0.000010
C81	C	0.686255	0.631033	-0.283683
C82	C	0.686270	0.631016	-0.344030
C83	C	0.633783	0.631014	-0.374217
C84	C	0.581286	0.631007	-0.344043
C85	C	0.581275	0.631015	-0.283693
C86	C	0.569729	0.678506	-0.493595
C87	C	0.569739	0.678503	-0.553946
C88	C	0.633814	0.630985	-0.560354
C89	C	0.697883	0.583481	-0.506408
C90	C	0.697873	0.583489	-0.446059
C91	C	0.633788	0.631005	-0.439656
C92	C	0.686328	0.630969	-0.655953
C93	C	0.686344	0.630947	-0.716298
C94	C	0.581354	0.630946	-0.716314
C95	C	0.581343	0.630959	-0.655966
C96	C	0.633830	0.630974	-0.625791
C97	C	0.633844	0.630954	0.189280
C98	C	0.633856	0.630943	0.253519
C99	C	0.823870	0.441740	-0.000014
C100	C	0.888375	0.377512	-0.000018
C101	C	0.633825	0.441705	0.189273
C102	C	0.633831	0.377464	0.253510
C103	C	0.823905	0.441708	0.189266
C104	C	0.888422	0.377468	0.253501
C105	C	0.443713	0.820266	-0.189265
C106	C	0.379196	0.884506	-0.253500
C107	C	0.443748	0.820234	0.000015
C108	C	0.379243	0.884462	0.000019
C109	C	0.633793	0.820269	-0.189272
C110	C	0.633788	0.884510	-0.253509
C111	C	0.881544	0.347355	-0.036986
C112	C	0.942147	0.287014	-0.037005
C113	C	1.009582	0.256826	-0.000051
C114	C	1.016412	0.286989	0.036918
C115	C	0.955809	0.347333	0.036932
C116	C	0.670957	0.347290	0.320642
C117	C	0.670959	0.286938	0.381005
C118	C	0.633839	0.256756	0.374235
C119	C	0.596708	0.286936	0.307096
C120	C	0.596702	0.347291	0.246734
C121	C	0.955837	0.347308	0.246704
C122	C	1.016463	0.286956	0.307054
C123	C	1.009674	0.256762	0.374199
C124	C	0.942252	0.286929	0.380994
C125	C	0.881627	0.347283	0.320645
C126	C	0.311782	0.914674	-0.246703
C127	C	0.251155	0.975044	-0.307053
C128	C	0.257945	1.005241	-0.374198
C129	C	0.325366	0.975071	-0.380993
C130	C	0.385991	0.914706	-0.320644
C131	C	0.386075	0.914625	0.036981
C132	C	0.325471	0.974983	0.036983
C133	C	0.258037	1.005173	0.000027
C134	C	0.251207	0.975007	-0.036939
C135	C	0.311809	0.914655	-0.036945
C136	C	0.670915	0.914673	-0.246716
C137	C	0.670924	0.975026	-0.307068
C138	C	0.633801	1.005219	-0.374212
C139	C	0.596672	0.975050	-0.381003
C140	C	0.596668	0.914694	-0.320652
H141	H	0.663502	0.003583	0.115749
H142	H	-0.038625	0.496883	0.067045
H143	H	0.440978	0.890049	0.067079
H144	H	-0.173309	0.765099	-0.067062
H145	H	0.826738	0.371832	0.326189
H146	H	0.701145	0.890098	-0.192050
H147	H	0.306237	0.890098	-0.067041
H148	H	0.604133	0.148897	-0.115754
H149	H	0.330886	0.999665	-0.435670
H150	H	0.538550	0.631003	-0.368623
H151	H	0.701185	0.371857	0.326168
H152	H	0.566431	0.890143	-0.326193
H153	H	0.566486	0.262353	0.301594
H154	H	0.701157	0.999582	-0.301525
H155	H	0.936734	0.262336	0.435672
H156	H	0.538529	0.631013	-0.259132
H157	H	0.633850	0.207611	0.423392
H158	H	0.330958	0.496878	0.067052
H159	H	0.701198	0.262372	0.435667
H160	H	0.633810	1.054365	-0.423348
H161	H	0.306240	0.890091	-0.192035
H162	H	0.208575	1.054394	-0.423333
H163	H	0.331046	0.999534	0.067087
H164	H	0.729036	0.277075	0.094814
H165	H	0.729043	0.167578	0.094821
H166	H	0.208696	1.054316	0.000037
H167	H	0.538549	0.357217	-0.094830
H168	H	-0.063342	0.765100	-0.067059
H169	H	0.566472	0.371851	0.192075
H170	H	0.663498	0.113080	0.115747
H171	H	0.196276	0.765090	-0.067042
H172	H	0.729075	-0.095250	0.094832
H173	H	0.196293	0.999597	-0.067028
H174	H	0.729079	-0.204746	0.094840
H175	H	0.961378	0.371883	0.192036
H176	H	0.961381	0.371879	0.067040
H177	H	0.538525	0.466727	-0.094833
H178	H	1.059044	0.207617	0.423334
H179	H	0.196264	0.999599	-0.301506
H180	H	1.071355	0.262401	0.301508
H181	H	0.566447	0.999643	-0.435680
H182	H	0.826641	0.371933	-0.067087
H183	H	0.440881	0.890143	-0.326187
H184	H	0.538589	-0.015105	-0.094819
H185	H	0.306243	0.765097	-0.067033
H186	H	0.538577	0.094398	-0.094826
H187	H	0.750059	0.544787	-0.511622
H188	H	0.936572	0.262463	-0.067109
H189	H	0.604111	0.258399	-0.115760
H190	H	0.729093	0.630944	-0.740856
H191	H	0.071341	0.496879	0.067052
H192	H	0.728994	0.631042	-0.259115
H193	H	0.440923	0.496875	0.067047
H194	H	0.729068	0.630977	-0.631382
H195	H	0.750040	0.544808	-0.402137
H196	H	0.729018	0.631018	-0.368595
H197	H	0.538596	0.630962	-0.631406
H198	H	0.538619	0.630939	-0.740890
H199	H	0.517571	0.717188	-0.597867
H200	H	1.058923	0.207689	-0.000067
H201	H	0.517547	0.717193	-0.488382
H202	H	1.071325	0.262401	0.067004
