data_functionalizedCrystal
_audit_creation_method	'MofGen! by Chris Wilmer'
_symmetry_space_group_name_H-M	'P1'
_symmetry_Int_Tables_number	1
_symmetry_cell_setting	triclinic
loop_
_symmetry_equiv_pos_as_xyz
  x,y,z
_cell_length_a	13.897448
_cell_length_b	13.033385
_cell_length_c	13.032268
_cell_angle_alpha	105.160384
_cell_angle_beta	82.851959
_cell_angle_gamma	97.153102
loop_
_atom_site_label
_atom_site_type_symbol
_atom_site_fract_x
_atom_site_fract_y
_atom_site_fract_z
Zn1	Zn	-0.611412	-1.547436	0.393984
Zn2	Zn	-0.278078	-1.214102	0.727317
Zn3	Zn	0.055255	-0.880769	1.060650
Zn4	Zn	-0.754546	-1.569889	0.216387
Zn5	Zn	-0.421213	-1.236556	0.549720
Zn6	Zn	-0.087879	-0.903223	0.883054
Zn7	Zn	-0.575126	-1.392389	0.238985
Zn8	Zn	-0.241792	-1.059056	0.572318
Zn9	Zn	0.091541	-0.725722	0.905652
Zn10	Zn	-0.754504	-1.369808	0.416530
Zn11	Zn	-0.421171	-1.036474	0.749863
Zn12	Zn	-0.087837	-0.703141	1.083196
O13	O	-0.673897	-1.469880	0.316471
O14	O	-0.340564	-1.136547	0.649805
O15	O	-0.007230	-0.803214	0.983138
O16	O	-0.645602	-1.699037	0.351532
O17	O	-0.312269	-1.365703	0.684866
O18	O	0.021064	-1.032370	1.018199
O19	O	-0.715577	-1.565191	0.070757
O20	O	-0.382244	-1.231857	0.404090
O21	O	-0.048911	-0.898524	0.737424
O22	O	-0.444966	-1.413010	0.259568
O23	O	-0.111633	-1.079677	0.592901
O24	O	0.221700	-0.746343	0.926234
O25	O	-0.750762	-1.715533	0.221053
O26	O	-0.417429	-1.382200	0.554386
O27	O	-0.084096	-1.048866	0.887720
O28	O	-0.471625	-1.526922	0.373445
O29	O	-0.138292	-1.193589	0.706778
O30	O	0.195041	-0.860255	1.040111
O31	O	-0.583758	-1.434782	0.087359
O32	O	-0.250424	-1.101449	0.420693
O33	O	0.082909	-0.768115	0.754026
O34	O	-0.583717	-1.240771	0.281430
O35	O	-0.250384	-0.907438	0.614763
O36	O	0.082950	-0.574105	0.948096
O37	O	-0.750691	-1.374523	0.562167
O38	O	-0.417358	-1.041190	0.895500
O39	O	-0.084024	-0.707857	1.228833
O40	O	-0.715506	-1.224181	0.411871
O41	O	-0.382172	-0.890847	0.745204
O42	O	-0.048839	-0.557514	1.078537
O43	O	-0.645562	-1.505026	0.545602
O44	O	-0.312228	-1.171693	0.878936
O45	O	0.021105	-0.838359	1.212269
O46	O	-0.889513	-1.543294	0.242915
O47	O	-0.556180	-1.209961	0.576248
O48	O	-0.222847	-0.876628	0.909581
O49	O	-0.889483	-1.396295	0.389959
O50	O	-0.556149	-1.062962	0.723292
O51	O	-0.222816	-0.729629	1.056625
C52	C	-0.645670	-1.193940	0.351549
C53	C	-0.312337	-0.860606	0.684883
C54	C	0.020997	-0.527273	1.018216
C55	C	-0.633620	-1.075888	0.366581
C56	C	-0.300287	-0.742555	0.699915
C57	C	0.033046	-0.409221	1.033248
C58	C	-0.667725	-0.909415	0.324161
C59	C	-0.334392	-0.576082	0.657495
C60	C	-0.001059	-0.242749	0.990828
C61	C	-0.680182	-1.031429	0.308620
C62	C	-0.346849	-0.698095	0.641953
C63	C	-0.013516	-0.364762	0.975287
C64	C	-0.924500	-1.469807	0.316451
C65	C	-0.591167	-1.136474	0.649784
C66	C	-0.257834	-0.803140	0.983117
C67	C	-1.031723	-1.469868	0.316465
C68	C	-0.698390	-1.136535	0.649798
C69	C	-0.365056	-0.803201	0.983131
C70	C	-1.228036	-1.469971	0.316517
C71	C	-0.894703	-1.136638	0.649850
C72	C	-0.561370	-0.803304	0.983184
C73	C	-1.118794	-1.469910	0.316492
C74	C	-0.785460	-1.136577	0.649825
C75	C	-0.452127	-0.803244	0.983158
C76	C	-0.422320	-1.469980	0.316512
C77	C	-0.088987	-1.136647	0.649845
C78	C	0.244346	-0.803314	0.983179
C79	C	-0.315113	-1.470023	0.316529
C80	C	0.018220	-1.136690	0.649863
C81	C	0.351553	-0.803356	0.983196
C82	C	-0.702169	-1.434751	0.593500
C83	C	-0.368836	-1.101418	0.926833
C84	C	-0.035503	-0.768084	1.260166
C85	C	-0.714217	-1.419781	0.711553
C86	C	-0.380884	-1.086448	1.044886
C87	C	-0.047551	-0.753114	1.378219
C88	C	-0.702227	-0.746900	0.281246
C89	C	-0.368894	-0.413567	0.614580
C90	C	-0.035561	-0.080233	0.947913
C91	C	-0.714281	-0.864953	0.266208
C92	C	-0.380948	-0.531619	0.599541
C93	C	-0.047614	-0.198286	0.932875
C94	C	-0.645671	-1.504934	0.040513
C95	C	-0.312338	-1.171601	0.373846
C96	C	0.020995	-0.838268	0.707180
C97	C	-0.633373	-1.520110	-0.077565
C98	C	-0.300039	-1.186777	0.255768
C99	C	0.033294	-0.853443	0.589101
C100	C	-0.667573	-1.477677	0.755989
C101	C	-0.334239	-1.144344	1.089322
C102	C	-0.000906	-0.811010	1.422655
C103	C	-0.680024	-1.462206	0.878002
C104	C	-0.346690	-1.128873	1.211336
C105	C	-0.013357	-0.795539	1.544669
H106	H	-0.763367	-0.917215	0.205092
H107	H	-0.430034	-0.583882	0.538426
H108	H	-0.096700	-0.250549	0.871759
C109	C	-0.471853	-1.576223	0.881553
C110	C	-0.138519	-1.242889	1.214887
C111	C	0.194814	-0.909556	1.548220
C112	C	-0.567003	-1.602490	0.851876
C113	C	-0.233669	-1.269157	1.185209
C114	C	0.099664	-0.935823	1.518543
H115	H	-0.430878	-1.627076	0.837992
H116	H	-0.097545	-1.293743	1.171325
H117	H	0.235789	-0.960410	1.504658
H118	H	-0.471532	-1.576632	0.954284
H119	H	-0.138198	-1.243299	1.287617
H120	H	0.195135	-0.909965	1.620951
H121	H	-0.448614	-1.507150	0.872493
H122	H	-0.115281	-1.173817	1.205827
H123	H	0.218053	-0.840483	1.539160
H124	H	-0.590244	-1.671560	0.860944
H125	H	-0.256911	-1.338227	1.194277
H126	H	0.076422	-1.004893	1.527610
H127	H	-0.567327	-1.602092	0.779128
H128	H	-0.233994	-1.268758	1.112461
H129	H	0.099339	-0.935425	1.445795
H130	H	-0.618417	-1.538693	0.703702
H131	H	-0.285084	-1.205360	1.037035
H132	H	0.048250	-0.872027	1.370369
H133	H	-0.763362	-1.358754	0.763840
H134	H	-0.430029	-1.025420	1.097174
H135	H	-0.096695	-0.692087	1.430507
H136	H	-0.584539	-1.023629	0.427710
H137	H	-0.251206	-0.690295	0.761044
H138	H	0.082127	-0.356962	1.094377
C139	C	-0.745884	-1.380453	1.055784
C140	C	-0.412551	-1.047119	1.389117
C141	C	-0.079217	-0.713786	1.722450
C142	C	-0.746390	-1.379830	0.948573
C143	C	-0.413057	-1.046496	1.281907
C144	C	-0.079724	-0.713163	1.615240
H145	H	-0.786862	-1.329604	1.099348
H146	H	-0.453528	-0.996270	1.432682
H147	H	-0.120195	-0.662937	1.766015
H148	H	-0.681333	-1.362644	1.075891
H149	H	-0.348000	-1.029311	1.409225
H150	H	-0.014666	-0.695978	1.742558
H151	H	-0.769131	-1.449532	1.064821
H152	H	-0.435798	-1.116198	1.398154
H153	H	-0.102464	-0.782865	1.731488
H154	H	-0.723136	-1.310753	0.939534
H155	H	-0.389803	-0.977419	1.272868
H156	H	-0.056470	-0.644086	1.606201
H157	H	-0.810955	-1.397632	0.928459
H158	H	-0.477621	-1.064298	1.261792
H159	H	-0.144288	-0.730965	1.595126
H160	H	-0.618650	-0.857151	0.385287
H161	H	-0.285316	-0.523818	0.718620
H162	H	0.048017	-0.190485	1.051954
H163	H	-0.729272	-1.083688	0.247500
H164	H	-0.395938	-0.750355	0.580833
H165	H	-0.062605	-0.417022	0.914166
