data_functionalizedCrystal
_audit_creation_method	'MofGen! by Chris Wilmer'
_symmetry_space_group_name_H-M	'P1'
_symmetry_Int_Tables_number	1
_symmetry_cell_setting	triclinic
loop_
_symmetry_equiv_pos_as_xyz
  x,y,z
_cell_length_a	10.654541
_cell_length_b	14.044220
_cell_length_c	9.130307
_cell_angle_alpha	89.995545
_cell_angle_beta	89.999822
_cell_angle_gamma	88.836403
loop_
_atom_site_label
_atom_site_type_symbol
_atom_site_fract_x
_atom_site_fract_y
_atom_site_fract_z
O1	O	1.681226	0.133219	-0.121759
O2	O	2.181226	0.633219	0.378241
O3	O	1.317023	0.145915	-0.121772
O4	O	1.817023	0.645915	0.378228
O5	O	1.493658	0.001547	-0.121751
O6	O	1.993658	0.501547	0.378249
O7	O	1.504591	0.277588	-0.121780
O8	O	2.004591	0.777588	0.378220
O9	O	1.493651	0.001545	0.121848
O10	O	1.993651	0.501545	0.621848
O11	O	1.317016	0.145914	0.121827
O12	O	1.817016	0.645914	0.621827
O13	O	1.681220	0.133218	0.121840
O14	O	2.181220	0.633218	0.621840
Cu15	Cu	1.499117	0.139565	0.144076
Cu16	Cu	1.999117	0.639565	0.644076
Cu17	Cu	1.499125	0.139567	-0.144008
Cu18	Cu	1.999125	0.639567	0.355992
O19	O	1.504585	0.277586	0.121819
O20	O	2.004585	0.777586	0.621819
C21	C	1.270128	0.144983	0.000026
C22	C	1.770128	0.644983	0.500026
C23	C	1.130404	0.142195	0.000021
C24	C	1.630404	0.642195	0.500021
C25	C	1.119781	0.314827	-0.000015
C26	C	1.619781	0.814827	0.499985
C27	C	1.048829	0.399829	-0.000039
C28	C	1.548829	0.899829	0.499961
C29	C	0.917547	0.397204	-0.000040
C30	C	1.417547	0.897204	0.499960
C31	C	0.857215	0.309567	-0.000013
C32	C	1.357215	0.809567	0.499987
C33	C	0.928167	0.224565	0.000011
C34	C	1.428167	0.724565	0.500011
C35	C	1.059452	0.227199	0.000008
C36	C	1.559452	0.727199	0.500008
C37	C	0.938790	0.051935	0.000058
C38	C	1.438790	0.551935	0.500058
C39	C	1.070072	0.054558	0.000049
C40	C	1.570072	0.554558	0.500049
C41	C	0.878458	-0.035701	0.000085
C42	C	1.378458	0.464299	0.500085
C43	C	0.949411	-0.120706	0.000098
C44	C	1.449411	0.379294	0.500098
C45	C	1.080701	-0.118077	0.000098
C46	C	1.580701	0.381923	0.500098
C47	C	1.141025	-0.030444	0.000072
C48	C	1.641025	0.469556	0.500072
C49	C	1.488869	-0.033800	0.000049
C50	C	1.988869	0.466200	0.500049
C51	C	1.474593	-0.139120	0.000050
C52	C	1.974593	0.360880	0.500050
C53	C	1.448494	-0.331952	0.000028
C54	C	1.948494	0.168048	0.500028
C55	C	1.549742	-0.388921	0.000027
C56	C	2.049742	0.111079	0.500027
C57	C	1.535221	-0.496219	0.000015
C58	C	2.035221	0.003781	0.500015
C59	C	1.463014	-0.224644	0.000040
C60	C	1.963014	0.275356	0.500040
C61	C	1.728114	0.134150	0.000039
C62	C	2.228114	0.634150	0.500039
C63	C	1.867838	0.136938	0.000034
C64	C	2.367838	0.636938	0.500034
C65	C	1.509374	0.312933	0.000016
C66	C	2.009374	0.812933	0.500016
C67	C	1.523649	0.418252	0.000005
C68	C	2.023649	0.918252	0.500005
N69	N	1.499121	0.139564	0.346699
N70	N	1.999121	0.639564	0.846699
N71	N	1.499130	0.139561	-0.346631
N72	N	1.999130	0.639561	0.153369
C73	C	1.655605	0.011763	0.346707
C74	C	2.155605	0.511763	0.846707
C75	C	1.733855	-0.052134	0.423378
C76	C	2.233855	0.447866	0.923378
C77	C	1.733868	-0.052135	0.576712
C78	C	2.233868	0.447865	1.076712
C79	C	1.655619	0.011767	0.653378
C80	C	2.155619	0.511767	1.153378
C81	C	1.577368	0.075664	0.576707
C82	C	2.077368	0.575664	1.076707
C83	C	1.577367	0.075660	0.423370
C84	C	2.077367	0.575660	0.923370
C85	C	1.420880	0.203459	0.576698
C86	C	1.920880	0.703459	1.076698
C87	C	1.420872	0.203466	0.423365
C88	C	1.920872	0.703466	0.923365
C89	C	1.342631	0.267361	0.653364
C90	C	1.842631	0.767361	1.153364
C91	C	1.264385	0.331265	0.576693
C92	C	1.764385	0.831265	1.076693
C93	C	1.264377	0.331263	0.423351
C94	C	1.764377	0.831263	0.923351
C95	C	1.342621	0.267363	0.346694
C96	C	1.842621	0.767363	0.846694
H97	H	1.097966	0.471181	-0.000057
H98	H	1.597966	0.971181	0.499943
H99	H	1.247921	-0.028295	0.000055
H100	H	1.747921	0.471705	0.500055
H101	H	1.226677	0.316973	-0.000046
H102	H	1.726677	0.816973	0.499954
H103	H	1.655622	0.011755	0.778230
H104	H	2.155622	0.511755	1.278230
H105	H	1.655614	0.011765	0.221855
H106	H	2.155614	0.511765	0.721855
H107	H	0.771562	-0.037833	0.000092
H108	H	1.271562	0.462167	0.500092
H109	H	1.797563	-0.104165	0.360944
H110	H	2.297563	0.395835	0.860944
H111	H	1.647330	-0.357109	-0.000067
H112	H	2.147330	0.142891	0.499933
H113	H	1.350915	-0.363762	0.000021
H114	H	1.850915	0.136238	0.500021
H115	H	1.797581	-0.104169	0.639138
H116	H	2.297581	0.395831	1.139138
H117	H	1.200674	0.383285	0.639124
H118	H	1.700674	0.883285	1.139124
H119	H	1.342638	0.267354	0.778217
H120	H	1.842638	0.767354	1.278217
H121	H	1.342627	0.267360	0.221842
H122	H	1.842627	0.767360	0.721842
H123	H	0.859777	0.466420	-0.000049
H124	H	1.359777	0.966420	0.499951
H125	H	0.900278	-0.192053	0.000119
H126	H	1.400278	0.307947	0.500119
H127	H	0.750318	0.307437	0.000004
H128	H	1.250318	0.807437	0.500004
H129	H	1.138463	-0.187297	0.000123
H130	H	1.638463	0.312703	0.500123
H131	H	1.200651	0.383293	0.360933
H132	H	1.700651	0.883293	0.860933
