data_functionalizedCrystal
_audit_creation_method	'MofGen! by Chris Wilmer'
_symmetry_space_group_name_H-M	'P1'
_symmetry_Int_Tables_number	1
_symmetry_cell_setting	triclinic
loop_
_symmetry_equiv_pos_as_xyz
  x,y,z
_cell_length_a	12.759401
_cell_length_b	12.759399
_cell_length_c	12.759393
_cell_angle_alpha	89.969792
_cell_angle_beta	89.981504
_cell_angle_gamma	90.015597
loop_
_atom_site_label
_atom_site_type_symbol
_atom_site_fract_x
_atom_site_fract_y
_atom_site_fract_z
Zn1	Zn	1.606250	-0.418200	-0.593991
Zn2	Zn	1.606142	-0.593919	-0.418316
Zn3	Zn	1.430552	-0.418255	-0.418331
Zn4	Zn	1.430538	-0.593838	-0.593957
O5	O	1.518371	-0.506053	-0.506149
O6	O	1.753257	-0.441520	-0.570695
O7	O	1.582810	-0.570673	-0.271296
O8	O	1.453910	-0.271226	-0.441653
O9	O	1.753177	-0.570620	-0.441627
O10	O	1.582994	-0.271186	-0.570710
O11	O	1.453805	-0.441614	-0.271308
O12	O	1.283529	-0.441535	-0.441620
O13	O	1.453886	-0.570482	-0.740983
O14	O	1.283519	-0.570536	-0.570652
O15	O	1.582981	-0.441442	-0.741008
O16	O	1.582797	-0.740929	-0.441594
O17	O	1.453782	-0.740870	-0.570637
C18	C	1.245403	-0.506033	-0.506134
C19	C	1.128627	-0.506050	-0.506153
C20	C	1.073787	-0.573328	-0.573229
C21	C	0.964063	-0.573342	-0.573240
C22	C	0.964028	-0.438796	-0.439091
C23	C	1.073750	-0.438778	-0.439086
C24	C	1.128664	-0.640600	-0.640296
C25	C	1.073824	-0.707885	-0.707377
C26	C	0.964100	-0.707898	-0.707388
C27	C	0.909215	-0.640627	-0.640319
C28	C	1.518305	-0.779020	-0.506133
C29	C	1.518373	-0.895797	-0.506162
C30	C	1.451323	-1.060492	-0.438944
C31	C	1.451253	-0.950768	-0.438925
C32	C	1.585558	-0.950555	-0.573429
C33	C	1.585622	-1.060277	-0.573452
C34	C	1.384207	-1.115458	-0.371695
C35	C	1.317019	-1.060708	-0.304429
C36	C	1.316950	-0.950984	-0.304410
C37	C	1.384067	-0.896010	-0.371658
C38	C	1.792404	-0.506073	-0.506164
C39	C	1.909180	-0.506082	-0.506170
C40	C	1.518444	-0.505947	-0.780182
C41	C	1.518476	-0.505902	-0.896959
C42	C	1.518465	-0.232019	-0.506187
C43	C	1.518506	-0.115243	-0.506204
C44	C	1.585704	-0.438704	-0.951836
C45	C	1.585729	-0.438666	-1.061560
C46	C	1.451294	-0.573033	-1.061521
C47	C	1.451264	-0.573064	-0.951798
C48	C	1.652916	-0.371541	-0.896996
C49	C	1.720151	-0.304339	-0.951873
C50	C	1.720176	-0.304301	-1.061597
C51	C	1.652966	-0.371465	-1.116444
C52	C	1.518358	-0.506083	-0.233181
C53	C	1.518530	-0.505832	-0.116405
H54	H	1.218006	-0.640599	-0.640293
Br55	Br	1.384546	-1.264368	-0.371469
H56	H	1.118518	-0.762647	-0.761988
Br57	Br	0.889676	-0.799198	-0.798435
H58	H	1.384003	-0.806666	-0.371640
H59	H	1.652979	-0.371417	-1.205789
H60	H	1.262368	-1.105474	-0.249685
Br61	Br	1.676640	-0.875948	-0.664688
Br62	Br	1.652892	-0.371595	-0.748085
H63	H	1.774864	-0.249649	-0.907209
H64	H	1.640316	-1.104856	-0.628233
H65	H	1.774914	-0.249574	-1.106275
Br66	Br	1.225754	-0.876681	-0.213138
H67	H	1.118402	-0.383987	-0.384475
H68	H	1.396574	-0.627714	-1.106186
H69	H	1.396504	-0.627767	-0.907117
H70	H	0.819871	-0.640634	-0.640343
H71	H	0.919332	-0.384028	-0.384486
