data_functionalizedCrystal
_audit_creation_method	'MofGen! by Chris Wilmer'
_symmetry_space_group_name_H-M	'P1'
_symmetry_Int_Tables_number	1
_symmetry_cell_setting	triclinic
loop_
_symmetry_equiv_pos_as_xyz
  x,y,z
_cell_length_a	6.817900
_cell_length_b	12.840946
_cell_length_c	15.301126
_cell_angle_alpha	81.449352
_cell_angle_beta	104.177575
_cell_angle_gamma	88.344365
loop_
_atom_site_label
_atom_site_type_symbol
_atom_site_fract_x
_atom_site_fract_y
_atom_site_fract_z
V1	V	-3.901766	0.325538	-0.126898
O2	O	-3.888213	0.319015	0.003898
O3	O	-3.857452	0.323626	-0.249503
O4	O	-3.797338	0.467374	-0.125912
O5	O	-3.948742	0.174272	-0.120548
V6	V	-4.392124	0.307408	-0.111140
O7	O	-4.148030	0.365310	-0.161467
O8	O	-4.596057	0.267636	-0.076571
O9	O	-4.213232	0.309320	0.011465
O10	O	-4.523074	0.313931	-0.241936
O11	O	-4.462545	0.458674	-0.117490
O12	O	-4.273345	0.165572	-0.112126
C13	C	-3.705259	0.318571	-0.279361
C14	C	-3.749941	0.317953	-0.379598
C15	C	-3.951110	0.322877	-0.431316
C16	C	-3.993081	0.322302	-0.525500
C17	C	-3.833880	0.316795	-0.567962
C18	C	-3.632695	0.311874	-0.516237
C19	C	-3.590727	0.312457	-0.422057
C20	C	-3.720182	0.310658	-0.712540
C21	C	-3.762153	0.310073	-0.806727
C22	C	-4.122537	0.320503	-0.815984
C23	C	-4.080569	0.321086	-0.721803
C24	C	-3.879385	0.316162	-0.670084
C25	C	-3.628591	0.501935	-0.121704
C26	C	-3.624443	0.620067	-0.121707
C27	C	-4.088464	0.012883	-0.116369
C28	C	-4.105464	0.131011	-0.116349
V29	V	-3.884737	0.811706	-0.126924
O30	O	-3.921109	0.962897	-0.120585
O31	O	-3.790443	0.664519	-0.125926
O32	O	-3.838886	0.853422	-0.249529
O33	O	-3.872331	0.772686	0.003873
V34	V	-4.373152	0.849112	-0.111173
O35	O	-4.132937	0.796267	-0.161493
O36	O	-4.574357	0.887237	-0.076610
O37	O	-4.244633	0.985051	-0.112168
O38	O	-4.453971	0.703837	-0.117514
O39	O	-4.502749	0.894047	-0.241972
O40	O	-4.196190	0.796148	0.011434
C41	C	-4.028767	0.314372	0.041318
C42	C	-3.963322	0.314997	0.141554
C43	C	-3.686245	0.861032	-0.279381
C44	C	-3.729593	0.898279	-0.379618
C45	C	-4.012764	0.771569	0.041296
C46	C	-3.948692	0.733286	0.141534
C47	C	-3.930141	0.921236	-0.431322
C48	C	-3.970897	0.956249	-0.525504
C49	C	-3.811104	0.968296	-0.567980
C50	C	-3.610540	0.945339	-0.516268
C51	C	-3.569785	0.910335	-0.422087
C52	C	-3.744669	0.702896	0.183993
C53	C	-3.684435	0.666936	0.278179
C54	C	-3.828228	0.661361	0.329904
C55	C	-4.032268	0.691758	0.287440
C56	C	-4.092497	0.727723	0.193256
H57	H	-4.210207	0.325563	-0.687232
H58	H	-3.503074	0.307397	-0.550819
H59	H	-4.134218	0.974933	-0.567596
H60	H	-3.632515	0.305621	-0.841302
H61	H	-4.258635	0.752460	0.158694
H62	H	-3.844317	0.996800	-0.644669
H63	H	-3.480448	0.955154	-0.550867
H64	H	-3.556361	0.306657	-0.670434
H65	H	-4.080755	0.327351	-0.396749
H66	H	-3.518290	0.642189	0.312739
H67	H	-3.406477	0.891640	-0.379996
H68	H	-3.627555	0.707434	0.141890
H69	H	-4.060278	0.911428	-0.396752
H70	H	-3.779160	0.632072	0.406593
H71	H	-4.149330	0.687213	0.329569
H72	H	-3.426917	0.308451	-0.379949
H73	H	-4.156889	0.326313	-0.567606
H74	H	-4.286349	0.324496	-0.858096
