data_functionalizedCrystal
_audit_creation_method	'MofGen! by Chris Wilmer'
_symmetry_space_group_name_H-M	'P1'
_symmetry_Int_Tables_number	1
_symmetry_cell_setting	triclinic
loop_
_symmetry_equiv_pos_as_xyz
  x,y,z
_cell_length_a	12.827893
_cell_length_b	12.594516
_cell_length_c	12.827885
_cell_angle_alpha	89.967116
_cell_angle_beta	89.980728
_cell_angle_gamma	90.013684
loop_
_atom_site_label
_atom_site_type_symbol
_atom_site_fract_x
_atom_site_fract_y
_atom_site_fract_z
Zn1	Zn	1.597683	-0.423684	-0.590828
Zn2	Zn	1.597583	-0.601701	-0.416079
Zn3	Zn	1.422925	-0.423737	-0.416101
Zn4	Zn	1.422916	-0.601621	-0.590779
O5	O	1.510277	-0.512686	-0.503447
O6	O	1.743906	-0.447309	-0.567658
O7	O	1.574376	-0.578149	-0.269846
O8	O	1.446152	-0.274784	-0.439309
O9	O	1.743832	-0.578097	-0.439271
O10	O	1.574547	-0.274745	-0.567679
O11	O	1.446055	-0.447400	-0.269862
O12	O	1.276687	-0.447323	-0.439262
O13	O	1.446137	-0.577962	-0.737022
O14	O	1.276681	-0.578014	-0.567597
O15	O	1.574538	-0.447232	-0.737057
O16	O	1.574367	-0.750636	-0.439224
O17	O	1.446040	-0.750578	-0.567575
C18	C	1.238767	-0.512666	-0.503427
C19	C	1.122614	-0.512683	-0.503443
C20	C	0.950748	-0.577318	-0.439847
C21	C	1.070799	-0.577302	-0.439829
C22	C	1.510220	-0.789227	-0.503414
C23	C	1.510291	-0.907532	-0.503436
C24	C	1.580217	-1.047542	-0.433747
C25	C	1.484854	-0.976859	-0.408068
C26	C	1.605643	-0.976644	-0.529067
C27	C	1.414986	-1.047635	-0.477798
C28	C	1.535839	-1.047426	-0.598842
C29	C	1.440410	-0.976775	-0.573199
C30	C	1.782847	-0.512706	-0.503467
C31	C	1.899000	-0.512715	-0.503476
C32	C	1.510348	-0.512583	-0.776017
C33	C	1.510378	-0.512539	-0.892170
C34	C	1.510362	-0.235065	-0.503502
C35	C	1.510398	-0.116759	-0.503525
C36	C	1.446934	-0.447783	-1.064007
C37	C	1.446901	-0.447827	-0.943957
C38	C	1.510266	-0.512712	-0.231937
C39	C	1.510438	-0.512456	-0.115784
H40	H	1.078118	-0.457375	-0.557924
H41	H	1.392530	-0.392462	-0.899430
Br42	Br	0.876468	-0.669521	-0.349059
H43	H	1.686235	-0.945462	-0.550707
H44	H	1.564748	-0.567911	-0.936690
Br45	Br	1.601029	-0.604791	-1.041544
H46	H	1.392594	-0.392379	-1.108556
Br47	Br	1.144965	-0.669503	-0.349036
H48	H	0.943573	-0.457389	-0.557933
Br49	Br	1.678582	-1.099334	-0.335389
Br50	Br	1.448901	-0.925180	-0.273657
Br51	Br	1.280620	-1.099377	-0.441571
H52	H	1.381253	-0.945899	-0.632170
H53	H	1.557438	-1.078449	-0.679464
