data_functionalizedCrystal
_audit_creation_method	'MofGen! by Chris Wilmer'
_symmetry_space_group_name_H-M	'P1'
_symmetry_Int_Tables_number	1
_symmetry_cell_setting	triclinic
loop_
_symmetry_equiv_pos_as_xyz
  x,y,z
_cell_length_a	18.050591
_cell_length_b	21.295417
_cell_length_c	18.050582
_cell_angle_alpha	89.973245
_cell_angle_beta	89.989456
_cell_angle_gamma	90.029348
loop_
_atom_site_label
_atom_site_type_symbol
_atom_site_fract_x
_atom_site_fract_y
_atom_site_fract_z
Zn1	Zn	1.135281	-0.250669	-0.419804
Zn2	Zn	1.135186	-0.355930	-0.295605
Zn3	Zn	1.011100	-0.250676	-0.295638
Zn4	Zn	1.011043	-0.355902	-0.419763
O5	O	1.073152	-0.303294	-0.357703
O6	O	1.239193	-0.264640	-0.403332
O7	O	1.118710	-0.341983	-0.191685
O8	O	1.027636	-0.162586	-0.312140
O9	O	1.239123	-0.341975	-0.312084
O10	O	1.118871	-0.162580	-0.403364
O11	O	1.027545	-0.264654	-0.191709
O12	O	0.907168	-0.264626	-0.312100
O13	O	1.027539	-0.341927	-0.523693
O14	O	0.907126	-0.341935	-0.403294
O15	O	1.118816	-0.264613	-0.523723
O16	O	1.118655	-0.444016	-0.312044
O17	O	1.027448	-0.443995	-0.403262
C18	C	0.880200	-0.303279	-0.357696
C19	C	0.797655	-0.303287	-0.357711
C20	C	0.548828	-0.345415	-0.407235
C21	C	0.598197	-0.360732	-0.339448
C22	C	0.500534	-0.303307	-0.357710
C23	C	0.598247	-0.288010	-0.425494
C24	C	0.646519	-0.303299	-0.357714
C25	C	0.548816	-0.318654	-0.289887
C26	C	0.548861	-0.245905	-0.375979
C27	C	0.598208	-0.261201	-0.308145
C28	C	0.416436	-0.303314	-0.357709
C29	C	0.730616	-0.303293	-0.357708
C30	C	1.073055	-0.466846	-0.357661
C31	C	1.073081	-0.536814	-0.357669
C32	C	1.120615	-0.569670	-0.310220
C33	C	1.120650	-0.635413	-0.310237
C34	C	1.073138	-0.668296	-0.357694
C35	C	1.025600	-0.635432	-0.405152
C36	C	1.025572	-0.569691	-0.405139
N37	N	1.008171	-0.771562	-0.363354
N38	N	1.008200	-0.834013	-0.363362
C39	C	1.073221	-0.866371	-0.357737
N40	N	1.138214	-0.833919	-0.352089
N41	N	1.138184	-0.771461	-0.352078
C42	C	1.073163	-0.739582	-0.357714
C43	C	1.120797	-0.970513	-0.310304
C44	C	1.120833	-1.036257	-0.310326
C45	C	1.025776	-1.036275	-0.405237
C46	C	1.025747	-0.970532	-0.405219
C47	C	1.073256	-0.937655	-0.357749
C48	C	1.266858	-0.303310	-0.357709
C49	C	1.349404	-0.303317	-0.357712
C50	C	1.073182	-0.303266	-0.551408
C51	C	1.073194	-0.303254	-0.633954
C52	C	1.073270	-0.139104	-0.357760
C53	C	1.073321	-0.069136	-0.357785
C54	C	1.023596	-0.345241	-0.833388
C55	C	1.091350	-0.360629	-0.882773
C56	C	1.073231	-0.303206	-0.785085
C57	C	1.005513	-0.287800	-0.882781
C58	C	1.073260	-0.303161	-0.931070
C59	C	1.141021	-0.318625	-0.833382
C60	C	1.055138	-0.245770	-0.833386
C61	C	1.122939	-0.261136	-0.882749
C62	C	1.073213	-0.303234	-0.700986
C63	C	1.073286	-0.303133	-1.015166
C64	C	1.073166	-0.303277	-0.164750
C65	C	1.073298	-0.303111	-0.082205
H66	H	0.619868	-0.409273	-0.323992
O67	O	0.522905	-0.334177	-0.221535
C68	C	0.444799	-0.334005	-0.222362
H69	H	0.424361	-0.341073	-0.281527
H70	H	0.423673	-0.287131	-0.200401
C71	C	0.440731	-0.378912	-0.100339
C72	C	0.415628	-0.387597	-0.173006
H73	H	0.422735	-0.411967	-0.069892
H74	H	0.493352	-0.379025	-0.099780
H75	H	0.423124	-0.339847	-0.082048
H76	H	0.433242	-0.426657	-0.191299
H77	H	0.363009	-0.387491	-0.173567
H78	H	1.159361	-0.662170	-0.271598
O79	O	0.979323	-0.537868	-0.451255
C80	C	0.937409	-0.580986	-0.493165
H81	H	0.934878	-0.627868	-0.462756
H82	H	0.964573	-0.587924	-0.549591
C83	C	0.861460	-0.497800	-0.541146
C84	C	0.858346	-0.555380	-0.503794
H85	H	0.812691	-0.482005	-0.547706
H86	H	0.889700	-0.468750	-0.512913
H87	H	0.884100	-0.503589	-0.588164
H88	H	0.835715	-0.549588	-0.456774
H89	H	0.830100	-0.584428	-0.532020
O90	O	0.623885	-0.218787	-0.258027
C91	C	0.598546	-0.235136	-0.186686
H92	H	0.584728	-0.287362	-0.185162
H93	H	0.546810	-0.206747	-0.172951
C94	C	0.676392	-0.156653	-0.131241
C95	C	0.659426	-0.220798	-0.129367
H96	H	0.713943	-0.147806	-0.095883
H97	H	0.693461	-0.145636	-0.179305
H98	H	0.633273	-0.133002	-0.119797
H99	H	0.702541	-0.244447	-0.140820
H100	H	0.642365	-0.231819	-0.081304
O101	O	0.979649	-1.068307	-0.451271
C102	C	0.989882	-1.133378	-0.441126
H103	H	1.014243	-1.142372	-0.383835
H104	H	1.029413	-1.151978	-0.485213
C105	C	0.884832	-1.156139	-0.518248
C106	C	0.914747	-1.167186	-0.447879
H107	H	0.838486	-1.176994	-0.522417
H108	H	0.877939	-1.112300	-0.525086
H109	H	0.917781	-1.171639	-0.554979
H110	H	0.881802	-1.151679	-0.411150
H111	H	0.921633	-1.211024	-0.441035
O112	O	1.173023	-0.218707	-0.908568
C113	C	1.172081	-0.218790	-0.986673
H114	H	1.116512	-0.237508	-1.007005
H115	H	1.218562	-0.250063	-1.008239
C116	C	1.251580	-0.128361	-0.990419
C117	C	1.183326	-0.151346	-1.015391
H118	H	1.258520	-0.086760	-1.008135
H119	H	1.252217	-0.128307	-0.937799
H120	H	1.290306	-0.154428	-1.008393
H121	H	1.144601	-0.125284	-0.997409
H122	H	1.182683	-0.151395	-1.068009
H123	H	0.948233	-0.274789	-0.904481
O124	O	0.522890	-0.188064	-0.394523
C125	C	0.478848	-0.192713	-0.458791
H126	H	0.457187	-0.242773	-0.464478
H127	H	0.513605	-0.180261	-0.509456
C128	C	0.439654	-0.085505	-0.445885
C129	C	0.413044	-0.146988	-0.452866
H130	H	0.399064	-0.057298	-0.442233
H131	H	0.469328	-0.082371	-0.402588
H132	H	0.468617	-0.075137	-0.488108
H133	H	0.384089	-0.157358	-0.410640
H134	H	0.383364	-0.150122	-0.496156
O135	O	0.624062	-0.272647	-0.493933
C136	C	0.598917	-0.317181	-0.545960
H137	H	0.546899	-0.341136	-0.523904
H138	H	0.643887	-0.353852	-0.555593
C139	C	0.644860	-0.254511	-0.646663
C140	C	0.580967	-0.283929	-0.619576
H141	H	0.633790	-0.234001	-0.692075
H142	H	0.661804	-0.224508	-0.611612
H143	H	0.682329	-0.285075	-0.654685
H144	H	0.543503	-0.253364	-0.611547
H145	H	0.564016	-0.313926	-0.654628
H146	H	1.159302	-0.542904	-0.271568
H147	H	1.039798	-0.197230	-0.811676
O148	O	1.109749	-0.418510	-0.908701
C149	C	1.174789	-0.414150	-0.951668
H150	H	1.207173	-0.370464	-0.934809
H151	H	1.159402	-0.410848	-1.012798
C152	C	1.183099	-0.526517	-0.959507
C153	C	1.222877	-0.472864	-0.938796
H154	H	1.212761	-0.562735	-0.951571
H155	H	1.139279	-0.529455	-0.930562
H156	H	1.170279	-0.523756	-1.010448
H157	H	1.235688	-0.475621	-0.887855
H158	H	1.266700	-0.469928	-0.967733
O159	O	0.979549	-0.667441	-0.451288
C160	C	1.021817	-0.705402	-0.499308
H161	H	1.078118	-0.715223	-0.473163
H162	H	1.029931	-0.680032	-0.554346
C163	C	0.911822	-0.755810	-0.544842
C164	C	0.980970	-0.767877	-0.512728
H165	H	0.886626	-0.794346	-0.553123
H166	H	0.883345	-0.730234	-0.512493
H167	H	0.918594	-0.734667	-0.590704
H168	H	0.974198	-0.789012	-0.466863
H169	H	1.009446	-0.793458	-0.545070
H170	H	0.987037	-0.943779	-0.443853
O171	O	1.167017	-0.938669	-0.264173
C172	C	1.208972	-0.981771	-0.222286
H173	H	1.211549	-1.028613	-0.252720
H174	H	1.181815	-0.988818	-0.165863
C175	C	1.284841	-0.898523	-0.174259
C176	C	1.288011	-0.956055	-0.211641
H177	H	1.333595	-0.882660	-0.167689
H178	H	1.256574	-0.869484	-0.202476
H179	H	1.262207	-0.904404	-0.127244
H180	H	1.310637	-0.950172	-0.258659
H181	H	1.316284	-0.985092	-0.183431
O182	O	1.167150	-1.068175	-0.264371
C183	C	1.215095	-1.106113	-0.306751
H184	H	1.219545	-1.086264	-0.365248
H185	H	1.192215	-1.155974	-0.309272
C186	C	1.286899	-1.131390	-0.198773
C187	C	1.292369	-1.107008	-0.270618
H188	H	1.334564	-1.131945	-0.176484
H189	H	1.254596	-1.105833	-0.170220
H190	H	1.267829	-1.172939	-0.200884
H191	H	1.311430	-1.065458	-0.268506
H192	H	1.324677	-1.132559	-0.299171
H193	H	0.981660	-0.380834	-0.811716
O194	O	0.522989	-0.388015	-0.457051
C195	C	0.548144	-0.448466	-0.437520
H196	H	0.561987	-0.449582	-0.375917
H197	H	0.599826	-0.460305	-0.471020
C198	C	0.470103	-0.495629	-0.529808
C199	C	0.487100	-0.497001	-0.454145
H200	H	0.432451	-0.525568	-0.540066
H201	H	0.453158	-0.454902	-0.542969
H202	H	0.513177	-0.505493	-0.557716
H203	H	0.444029	-0.487129	-0.426239
H204	H	0.504037	-0.537727	-0.440979
H205	H	1.198317	-0.331692	-0.811774
