data_functionalizedCrystal
_audit_creation_method	'MofGen! by Chris Wilmer'
_symmetry_space_group_name_H-M	'P1'
_symmetry_Int_Tables_number	1
_symmetry_cell_setting	triclinic
loop_
_symmetry_equiv_pos_as_xyz
  x,y,z
_cell_length_a	11.026607
_cell_length_b	10.489741
_cell_length_c	10.065875
_cell_angle_alpha	98.879541
_cell_angle_beta	79.302338
_cell_angle_gamma	96.562595
loop_
_atom_site_label
_atom_site_type_symbol
_atom_site_fract_x
_atom_site_fract_y
_atom_site_fract_z
O1	O	1.632468	0.520484	-0.113500
O2	O	2.132468	1.020484	0.386500
O3	O	1.278630	0.459543	-0.113501
O4	O	1.778630	0.959543	0.386499
O5	O	1.463599	0.306188	-0.113492
O6	O	1.963599	0.806188	0.386508
O7	O	1.447499	0.673839	-0.113509
O8	O	1.947499	1.173839	0.386491
O9	O	1.428329	0.335581	0.113495
O10	O	1.928329	0.835581	0.613495
O11	O	1.243360	0.488935	0.113486
O12	O	1.743360	0.988935	0.613486
O13	O	1.597198	0.549877	0.113487
O14	O	2.097198	1.049877	0.613487
Zn15	Zn	1.414679	0.524073	0.149526
Zn16	Zn	1.914679	1.024073	0.649526
Zn17	Zn	1.461149	0.485347	-0.149540
Zn18	Zn	1.961149	0.985347	0.350460
O19	O	1.412229	0.703232	0.113478
O20	O	1.912229	1.203232	0.613478
C21	C	1.215686	0.462996	-0.000008
C22	C	1.715686	0.962996	0.499992
C23	C	1.080679	0.429482	-0.000008
C24	C	1.580679	0.929482	0.499992
C25	C	1.007682	0.522021	-0.000013
C26	C	1.507682	1.022021	0.499987
C27	C	0.868146	0.487384	-0.000013
C28	C	1.368146	0.987384	0.499987
C29	C	1.444748	0.273085	0.000000
C30	C	1.944748	0.773085	0.500000
C31	C	1.441110	0.130655	-0.000002
C32	C	1.941110	0.630655	0.499998
C33	C	1.323420	0.036624	-0.000012
C34	C	1.823420	0.536624	0.499988
C35	C	1.361626	-0.028776	0.111904
C36	C	1.861626	0.471224	0.611904
C37	C	1.396427	-0.057724	-0.111887
C38	C	1.896427	0.442276	0.388113
C39	C	1.479350	0.067142	0.112007
C40	C	1.979350	0.567142	0.612007
C41	C	1.514151	0.038187	-0.111885
C42	C	2.014151	0.538187	0.388115
C43	C	1.552438	-0.027164	0.000059
C44	C	2.052438	0.472836	0.500059
C45	C	1.660143	0.546423	-0.000009
C46	C	2.160143	1.046423	0.499991
C47	C	1.795151	0.579937	-0.000018
C48	C	2.295151	1.079937	0.499982
C49	C	1.431080	0.736334	-0.000017
C50	C	1.931080	1.236334	0.499983
C51	C	1.434720	0.878763	-0.000024
C52	C	1.934720	1.378763	0.499976
N53	N	1.382974	0.550504	0.353630
N54	N	1.882974	1.050504	0.853630
N55	N	1.492864	0.458908	-0.353644
N56	N	1.992864	0.958908	0.146356
C57	C	1.450110	0.494533	0.421412
C58	C	1.950110	0.994533	0.921412
C59	C	1.425718	0.514887	0.578578
C60	C	1.925718	1.014887	1.078578
H61	H	1.039875	0.324609	-0.000038
H62	H	1.539875	0.824609	0.499962
Cl63	Cl	1.533447	0.150571	0.258252
Cl64	Cl	2.033447	0.650571	0.758252
H65	H	1.226637	0.065005	0.000100
H66	H	1.726637	0.565005	0.500100
H67	H	1.649281	-0.055275	0.000121
H68	H	2.149281	0.444725	0.500121
H69	H	1.048490	0.626890	-0.000010
H70	H	1.548490	1.126890	0.499990
H71	H	1.297126	-0.058490	0.206521
H72	H	1.797126	0.441510	0.706521
H73	H	1.361318	-0.111898	-0.206513
H74	H	1.861318	0.388102	0.293487
Cl75	Cl	1.266343	0.647747	0.443666
Cl76	Cl	1.766343	1.147747	0.943666
H77	H	1.578609	0.067924	-0.206507
H78	H	2.078609	0.567924	0.293493
H79	H	1.525641	0.431539	0.363091
H80	H	2.025641	0.931539	0.863091
Cl81	Cl	1.609756	0.361984	0.556329
Cl82	Cl	2.109756	0.861984	1.056329
Cl83	Cl	0.805156	0.325464	0.000004
Cl84	Cl	1.305156	0.825464	0.500004
Cl85	Cl	0.858133	0.741861	-0.000006
Cl86	Cl	1.358133	1.241861	0.499994
Cl87	Cl	1.309082	0.612134	0.668609
Cl88	Cl	1.809082	1.112134	1.168609
