data_functionalizedCrystal
_audit_creation_method	'MofGen! by Chris Wilmer'
_symmetry_space_group_name_H-M	'P1'
_symmetry_Int_Tables_number	1
_symmetry_cell_setting	triclinic
loop_
_symmetry_equiv_pos_as_xyz
  x,y,z
_cell_length_a	14.519710
_cell_length_b	10.654550
_cell_length_c	9.130313
_cell_angle_alpha	90.000110
_cell_angle_beta	90.000703
_cell_angle_gamma	95.917476
loop_
_atom_site_label
_atom_site_type_symbol
_atom_site_fract_x
_atom_site_fract_y
_atom_site_fract_z
O1	O	1.224716	-0.164617	-0.121763
O2	O	1.724716	0.335383	0.378237
O3	O	0.956339	-0.184004	-0.121773
O4	O	1.456339	0.315996	0.378227
O5	O	1.096698	0.008488	-0.121763
O6	O	1.596698	0.508488	0.378237
O7	O	1.084357	-0.357109	-0.121774
O8	O	1.584357	0.142891	0.378226
O9	O	1.096696	0.008483	0.121836
O10	O	1.596696	0.508483	0.621836
O11	O	0.956338	-0.184009	0.121826
O12	O	1.456338	0.315991	0.621826
O13	O	1.224714	-0.164623	0.121835
O14	O	1.724714	0.335377	0.621835
Cu15	Cu	1.090526	-0.174316	0.144073
Cu16	Cu	1.590526	0.325684	0.644073
Cu17	Cu	1.090528	-0.174310	-0.144011
Cu18	Cu	1.590528	0.325690	0.355989
O19	O	1.084355	-0.357114	0.121825
O20	O	1.584355	0.142886	0.621825
C21	C	0.921974	-0.183103	0.000025
C22	C	1.421974	0.316897	0.500025
C23	C	0.819579	-0.180396	0.000022
C24	C	1.319579	0.319604	0.500022
C25	C	1.259079	-0.165524	0.000034
C26	C	1.759079	0.334476	0.500034
C27	C	1.361475	-0.168231	0.000028
C28	C	1.861475	0.331769	0.500028
C29	C	1.095791	0.055275	0.000035
C30	C	1.595791	0.555275	0.500035
C31	C	1.093080	0.194692	0.000030
C32	C	1.593080	0.694692	0.500030
C33	C	1.736422	-0.178198	0.000027
C34	C	2.236422	0.321802	0.500027
C35	C	1.632100	-0.175430	0.000027
C36	C	2.132100	0.324570	0.500027
C37	C	1.548952	-0.173215	0.000026
C38	C	2.048952	0.326785	0.500026
C39	C	1.444623	-0.170446	0.000029
C40	C	1.944623	0.329554	0.500029
C41	C	1.085262	-0.403901	0.000024
C42	C	1.585262	0.096099	0.500024
C43	C	1.087973	-0.543318	0.000020
C44	C	1.587973	-0.043318	0.500020
N45	N	1.090531	-0.174320	0.346696
N46	N	1.590531	0.325680	0.846696
C47	C	1.175721	0.274972	0.000037
C48	C	1.675721	0.774972	0.500037
C49	C	1.173168	0.405968	0.000027
C50	C	1.673168	0.905968	0.500027
C51	C	1.005326	0.376391	0.000008
C52	C	1.505326	0.876391	0.500008
C53	C	1.007880	0.245397	0.000008
C54	C	1.507880	0.745397	0.500008
C55	C	1.272623	0.292049	0.000054
C56	C	1.772623	0.792049	0.500054
C57	C	1.270070	0.423046	0.000044
C58	C	1.770070	0.923046	0.500044
N59	N	1.090530	-0.174297	-0.346633
N60	N	1.590530	0.325703	0.153367
C61	C	1.152698	-0.089113	0.423352
C62	C	1.652698	0.410887	0.923352
C63	C	1.152695	-0.089098	0.576689
C64	C	1.652695	0.410902	1.076689
C65	C	1.028356	-0.259507	0.576699
C66	C	1.528356	0.240493	1.076699
C67	C	1.028355	-0.259515	0.423365
C68	C	1.528355	0.240485	0.923365
C69	C	1.224487	0.009267	0.423348
C70	C	1.724487	0.509267	0.923348
C71	C	1.224484	0.009283	0.576685
C72	C	1.724484	0.509283	1.076685
H73	H	0.940586	0.180037	-0.000019
H74	H	1.440586	0.680037	0.499981
H75	H	0.935959	0.417692	-0.000011
H76	H	1.435959	0.917692	0.499989
O77	O	1.203640	0.136921	0.368165
O78	O	1.703640	0.636921	0.868165
H79	H	1.134632	0.157170	0.408691
H80	H	1.634632	0.657170	0.908691
O81	O	1.313504	0.245247	0.139374
O82	O	1.813504	0.745247	0.639374
H83	H	1.261520	0.177455	0.194461
H84	H	1.761520	0.677455	0.694461
O85	O	1.318353	-0.018335	0.631817
O86	O	1.818353	0.481665	1.131817
H87	H	1.310619	-0.105405	0.699355
H88	H	1.810619	0.394595	1.199355
H89	H	1.291445	-0.020677	0.375791
H90	H	1.791445	0.479323	0.875791
O91	O	1.308857	0.483899	-0.139269
O92	O	1.808857	0.983899	0.360731
H93	H	1.305181	0.587322	-0.133524
H94	H	1.805181	1.087322	0.366476
H95	H	1.202078	0.100290	0.624233
H96	H	1.702078	0.600290	1.124233
O97	O	0.961296	-0.351402	0.340675
O98	O	1.461296	0.148598	0.840675
H99	H	0.973663	-0.449344	0.370098
H100	H	1.473663	0.050656	0.870098
H101	H	1.310526	0.263058	-0.101883
H102	H	1.810526	0.763058	0.398117
H103	H	1.306581	0.465155	0.101989
H104	H	1.806581	0.965155	0.601989
O105	O	0.961303	-0.351405	0.659390
O106	O	1.461303	0.148595	1.159390
H107	H	0.971751	-0.337092	0.778893
H108	H	1.471751	0.162908	1.278893
