data_functionalizedCrystal
_audit_creation_method	'MofGen! by Chris Wilmer'
_symmetry_space_group_name_H-M	'P1'
_symmetry_Int_Tables_number	1
_symmetry_cell_setting	triclinic
loop_
_symmetry_equiv_pos_as_xyz
  x,y,z
_cell_length_a	26.210047
_cell_length_b	14.519709
_cell_length_c	14.519709
_cell_angle_alpha	83.680145
_cell_angle_beta	90.003565
_cell_angle_gamma	89.996562
loop_
_atom_site_label
_atom_site_type_symbol
_atom_site_fract_x
_atom_site_fract_y
_atom_site_fract_z
O1	O	0.042364	-1.223875	-0.120878
O2	O	0.292364	-0.973875	0.129122
O3	O	0.542364	-0.723875	0.379122
O4	O	0.792364	-0.473875	0.629122
O5	O	0.042379	-0.955398	-0.135115
O6	O	0.292379	-0.705398	0.114885
O7	O	0.542379	-0.455398	0.364885
O8	O	0.792379	-0.205398	0.614885
O9	O	0.042367	-1.096755	0.006242
O10	O	0.292367	-0.846755	0.256242
O11	O	0.542367	-0.596755	0.506242
O12	O	0.792367	-0.346755	0.756242
O13	O	0.042377	-1.082518	-0.262235
O14	O	0.292377	-0.832518	-0.012235
O15	O	0.542377	-0.582518	0.237765
O16	O	0.792377	-0.332518	0.487765
O17	O	-0.042492	-1.096728	0.006220
O18	O	0.207508	-0.846728	0.256220
O19	O	0.457508	-0.596728	0.506220
O20	O	0.707508	-0.346728	0.756220
O21	O	-0.042479	-0.955371	-0.135137
O22	O	0.207521	-0.705371	0.114863
O23	O	0.457521	-0.455371	0.364863
O24	O	0.707521	-0.205371	0.614863
O25	O	-0.042494	-1.223848	-0.120900
O26	O	0.207506	-0.973848	0.129100
O27	O	0.457506	-0.723848	0.379100
O28	O	0.707506	-0.473848	0.629100
Cu29	Cu	-0.050235	-1.089607	-0.128020
Cu30	Cu	0.199765	-0.839607	0.121980
Cu31	Cu	0.449765	-0.589607	0.371980
Cu32	Cu	0.699765	-0.339607	0.621980
Cu33	Cu	0.050120	-1.089639	-0.127994
Cu34	Cu	0.300120	-0.839639	0.122006
Cu35	Cu	0.550120	-0.589639	0.372006
Cu36	Cu	0.800120	-0.339639	0.622006
O37	O	-0.042482	-1.082491	-0.262257
O38	O	0.207518	-0.832491	-0.012257
O39	O	0.457518	-0.582491	0.237743
O40	O	0.707518	-0.332491	0.487743
C41	C	-0.000048	-0.921025	-0.134462
C42	C	0.249952	-0.671025	0.115538
C43	C	0.499952	-0.421025	0.365538
C44	C	0.749952	-0.171025	0.615538
C45	C	-0.000042	-0.818643	-0.132474
C46	C	0.249958	-0.568643	0.117526
C47	C	0.499958	-0.318643	0.367526
C48	C	0.749958	-0.068643	0.617526
C49	C	-0.000063	-1.096078	0.040591
C50	C	0.249937	-0.846078	0.290591
C51	C	0.499937	-0.596078	0.540591
C52	C	0.749937	-0.346078	0.790591
C53	C	-0.000063	-1.094089	0.142972
C54	C	0.249937	-0.844089	0.392972
C55	C	0.499937	-0.594089	0.642972
C56	C	0.749937	-0.344089	0.892972
N57	N	-0.120819	-1.089591	-0.128038
N58	N	0.129181	-0.839591	0.121962
N59	N	0.379181	-0.589591	0.371962
N60	N	0.629181	-0.339591	0.621962
C61	C	-0.473338	-1.152225	-0.065416
C62	C	-0.223338	-0.902225	0.184584
C63	C	0.026662	-0.652225	0.434584
C64	C	0.276662	-0.402225	0.684584
C65	C	-0.686997	-1.152246	-0.065403
C66	C	-0.436997	-0.902246	0.184597
C67	C	-0.186997	-0.652246	0.434597
C68	C	0.063003	-0.402246	0.684597
O69	O	-0.714624	-1.205464	-0.012163
O70	O	-0.464624	-0.955464	0.237837
O71	O	-0.214624	-0.705464	0.487837
O72	O	0.035376	-0.455464	0.737837
N73	N	-0.713713	-1.089644	-0.127974
N74	N	-0.463713	-0.839644	0.122026
N75	N	-0.213713	-0.589644	0.372026
N76	N	0.036287	-0.339644	0.622026
C77	C	-0.687010	-1.027029	-0.190549
C78	C	-0.437010	-0.777029	0.059451
C79	C	-0.187010	-0.527029	0.309451
C80	C	0.062990	-0.277029	0.559451
O81	O	-0.714636	-0.973776	-0.243763
O82	O	-0.464636	-0.723776	0.006237
O83	O	-0.214636	-0.473776	0.256237
O84	O	0.035364	-0.223776	0.506237
C85	C	-0.473353	-1.027005	-0.190556
C86	C	-0.223353	-0.777005	0.059444
C87	C	0.026647	-0.527005	0.309444
C88	C	0.276647	-0.277005	0.559444
C89	C	-0.446640	-1.089617	-0.127987
C90	C	-0.196640	-0.839617	0.122013
C91	C	0.053360	-0.589617	0.372013
C92	C	0.303360	-0.339617	0.622013
C93	C	-0.446626	-1.214832	-0.002851
C94	C	-0.196626	-0.964832	0.247149
C95	C	0.053374	-0.714832	0.497149
C96	C	0.303374	-0.464832	0.747149
C97	C	-0.393214	-1.214830	-0.002858
C98	C	-0.143214	-0.964830	0.247142
C99	C	0.106786	-0.714830	0.497142
C100	C	0.356786	-0.464830	0.747142
C101	C	-0.366515	-1.152221	-0.065430
C102	C	-0.116515	-0.902221	0.184570
C103	C	0.133485	-0.652221	0.434570
C104	C	0.383485	-0.402221	0.684570
C105	C	-0.393228	-1.089614	-0.127995
C106	C	-0.143228	-0.839614	0.122005
C107	C	0.106772	-0.589614	0.372005
C108	C	0.356772	-0.339614	0.622005
C109	C	-0.446651	-0.964385	-0.253126
C110	C	-0.196651	-0.714385	-0.003126
C111	C	0.053349	-0.464385	0.246874
C112	C	0.303349	-0.214385	0.496874
C113	C	-0.393233	-0.964383	-0.253121
C114	C	-0.143233	-0.714383	-0.003121
C115	C	0.106767	-0.464383	0.246879
C116	C	0.356767	-0.214383	0.496879
C117	C	-0.366521	-1.026996	-0.190552
C118	C	-0.116521	-0.776996	0.059448
C119	C	0.133479	-0.526996	0.309448
C120	C	0.383479	-0.276996	0.559448
C121	C	-0.313118	-1.027003	-0.190574
C122	C	-0.063118	-0.777003	0.059426
C123	C	0.186882	-0.527003	0.309426
C124	C	0.436882	-0.277003	0.559426
N125	N	-0.286403	-1.089605	-0.128002
N126	N	-0.036403	-0.839605	0.121998
N127	N	0.213597	-0.589605	0.371998
N128	N	0.463597	-0.339605	0.621998
C129	C	-0.313101	-1.152214	-0.065431
C130	C	-0.063101	-0.902214	0.184569
C131	C	0.186899	-0.652214	0.434569
C132	C	0.436899	-0.402214	0.684569
C133	C	-0.799184	-1.027047	-0.190542
C134	C	-0.549184	-0.777047	0.059458
C135	C	-0.299184	-0.527047	0.309458
C136	C	-0.049184	-0.277047	0.559458
C137	C	-0.852598	-1.027054	-0.190541
C138	C	-0.602598	-0.777054	0.059459
C139	C	-0.352598	-0.527054	0.309459
C140	C	-0.102598	-0.277054	0.559459
C141	C	-0.852581	-1.152270	-0.065394
C142	C	-0.602581	-0.902270	0.184606
C143	C	-0.352581	-0.652270	0.434606
C144	C	-0.102581	-0.402270	0.684606
C145	C	-0.799166	-1.152267	-0.065399
C146	C	-0.549166	-0.902267	0.184601
C147	C	-0.299166	-0.652267	0.434601
C148	C	-0.049166	-0.402267	0.684601
C149	C	-0.772468	-1.089649	-0.127970
C150	C	-0.522468	-0.839649	0.122030
C151	C	-0.272468	-0.589649	0.372030
C152	C	-0.022468	-0.339649	0.622030
C153	C	-0.200933	-1.152205	-0.065451
C154	C	0.049067	-0.902205	0.184549
C155	C	0.299067	-0.652205	0.434549
C156	C	0.549067	-0.402205	0.684549
C157	C	-0.147517	-1.152199	-0.065466
C158	C	0.102483	-0.902199	0.184534
C159	C	0.352483	-0.652199	0.434534
C160	C	0.602483	-0.402199	0.684534
C161	C	-0.147539	-1.026980	-0.190610
C162	C	0.102461	-0.776980	0.059390
C163	C	0.352461	-0.526980	0.309390
C164	C	0.602461	-0.276980	0.559390
C165	C	-0.200950	-1.026989	-0.190598
C166	C	0.049050	-0.776989	0.059402
C167	C	0.299050	-0.526989	0.309402
C168	C	0.549050	-0.276989	0.559402
C169	C	-0.227646	-1.089604	-0.128011
C170	C	0.022354	-0.839604	0.121989
C171	C	0.272354	-0.589604	0.371989
C172	C	0.522354	-0.339604	0.621989
O173	O	-0.285459	-0.973806	-0.243779
O174	O	-0.035459	-0.723806	0.006221
O175	O	0.214541	-0.473806	0.256221
O176	O	0.464541	-0.223806	0.506221
O177	O	-0.285466	-1.205445	-0.012211
O178	O	-0.035466	-0.955445	0.237789
O179	O	0.214534	-0.705445	0.487789
O180	O	0.464534	-0.455445	0.737789
C181	C	-0.526750	-1.152228	-0.065408
C182	C	-0.276750	-0.902228	0.184592
C183	C	-0.026750	-0.652228	0.434592
C184	C	0.223250	-0.402228	0.684592
C185	C	-0.553463	-1.089621	-0.127973
C186	C	-0.303463	-0.839621	0.122027
C187	C	-0.053463	-0.589621	0.372027
C188	C	0.196537	-0.339621	0.622027
C189	C	-0.526764	-1.027013	-0.190545
C190	C	-0.276764	-0.777013	0.059455
C191	C	-0.026764	-0.527013	0.309455
C192	C	0.223236	-0.277013	0.559455
C193	C	-0.606877	-1.089628	-0.127972
C194	C	-0.356877	-0.839628	0.122028
C195	C	-0.106877	-0.589628	0.372028
C196	C	0.143123	-0.339628	0.622028
C197	C	-0.633575	-1.152237	-0.065401
C198	C	-0.383575	-0.902237	0.184599
C199	C	-0.133575	-0.652237	0.434599
C200	C	0.116425	-0.402237	0.684599
C201	C	-0.606860	-1.214839	-0.002830
C202	C	-0.356860	-0.964839	0.247170
C203	C	-0.106860	-0.714839	0.497170
C204	C	0.143140	-0.464839	0.747170
C205	C	-0.553448	-1.214836	-0.002837
C206	C	-0.303448	-0.964836	0.247163
C207	C	-0.053448	-0.714836	0.497163
C208	C	0.196552	-0.464836	0.747163
C209	C	-0.553480	-0.964411	-0.253116
C210	C	-0.303480	-0.714411	-0.003116
C211	C	-0.053480	-0.464411	0.246884
C212	C	0.196520	-0.214411	0.496884
C213	C	-0.606891	-0.964419	-0.253104
C214	C	-0.356891	-0.714419	-0.003104
C215	C	-0.106891	-0.464419	0.246896
C216	C	0.143109	-0.214419	0.496896
C217	C	-0.633590	-1.027028	-0.190533
C218	C	-0.383590	-0.777028	0.059467
C219	C	-0.133590	-0.527028	0.309467
C220	C	0.116410	-0.277028	0.559467
N221	N	0.120704	-1.089662	-0.127969
N222	N	0.370704	-0.839662	0.122031
N223	N	0.620704	-0.589662	0.372031
N224	N	0.870704	-0.339662	0.622031
C225	C	-0.000066	-1.258221	-0.121553
C226	C	0.249934	-1.008221	0.128447
C227	C	0.499934	-0.758221	0.378447
C228	C	0.749934	-0.508221	0.628447
C229	C	-0.000069	-1.360602	-0.123541
C230	C	0.249931	-1.110602	0.126459
C231	C	0.499931	-0.860602	0.376459
C232	C	0.749931	-0.610602	0.626459
C233	C	-0.000065	-0.443748	-0.125154
C234	C	0.249935	-0.193748	0.124846
C235	C	0.499935	0.056252	0.374846
C236	C	0.749935	0.306252	0.624846
C237	C	-0.000059	-0.548056	-0.127187
C238	C	0.249941	-0.298056	0.122813
C239	C	0.499941	-0.048056	0.372813
C240	C	0.749941	0.201944	0.622813
C241	C	-0.000053	-0.631192	-0.128814
C242	C	0.249947	-0.381192	0.121186
C243	C	0.499947	-0.131192	0.371186
C244	C	0.749947	0.118808	0.621186
C245	C	-0.000047	-0.735507	-0.130847
C246	C	0.249953	-0.485507	0.119153
C247	C	0.499953	-0.235507	0.369153
C248	C	0.749953	0.014493	0.619153
C249	C	-0.000051	-1.083168	-0.296606
C250	C	0.249949	-0.833168	-0.046606
C251	C	0.499949	-0.583168	0.203394
C252	C	0.749949	-0.333168	0.453394
C253	C	-0.000048	-1.085156	-0.398987
C254	C	0.249952	-0.835156	-0.148987
C255	C	0.499952	-0.585156	0.101013
C256	C	0.749952	-0.335156	0.351013
C257	C	-0.000049	-1.086770	0.517868
C258	C	0.249951	-0.836770	0.767868
C259	C	0.499951	-0.586770	1.017868
C260	C	0.749951	-0.336770	1.267868
C261	C	-0.000053	-1.088803	0.413560
C262	C	0.249947	-0.838803	0.663560
C263	C	0.499947	-0.588803	0.913560
C264	C	0.749947	-0.338803	1.163560
C265	C	-0.000056	-1.090430	0.330423
C266	C	0.249944	-0.840430	0.580423
C267	C	0.499944	-0.590430	0.830423
C268	C	0.749944	-0.340430	1.080423
C269	C	-0.000059	-1.092463	0.226109
C270	C	0.249941	-0.842463	0.476109
C271	C	0.499941	-0.592463	0.726109
C272	C	0.749941	-0.342463	0.976109
H273	H	-0.125769	-1.203189	-0.014515
H274	H	0.124231	-0.953189	0.235485
H275	H	0.374231	-0.703189	0.485485
H276	H	0.624231	-0.453189	0.735485
H277	H	-0.874344	-0.976079	-0.241500
H278	H	-0.624344	-0.726079	0.008500
H279	H	-0.374344	-0.476079	0.258500
H280	H	-0.124344	-0.226079	0.508500
Br281	Br	-0.237155	-1.237184	0.019490
Br282	Br	0.012845	-0.987184	0.269490
Br283	Br	0.262845	-0.737184	0.519490
Br284	Br	0.512845	-0.487184	0.769490
H285	H	-0.531746	-0.913426	-0.304068
H286	H	-0.281746	-0.663426	-0.054068
H287	H	-0.031746	-0.413426	0.195932
H288	H	0.218254	-0.163426	0.445932
Br289	Br	-0.643138	-0.879443	-0.338033
Br290	Br	-0.393138	-0.629443	-0.088033
Br291	Br	-0.143138	-0.379443	0.161967
Br292	Br	0.106862	-0.129443	0.411967
H293	H	-0.371468	-1.265811	0.048093
H294	H	-0.121468	-1.015811	0.298093
H295	H	0.128532	-0.765811	0.548093
H296	H	0.378532	-0.515811	0.798093
H297	H	-0.777450	-0.976054	-0.241497
H298	H	-0.527450	-0.726054	0.008503
H299	H	-0.277450	-0.476054	0.258503
H300	H	-0.027450	-0.226054	0.508503
H301	H	-0.531703	-1.265821	0.048113
H302	H	-0.281703	-1.015821	0.298113
H303	H	-0.031703	-0.765821	0.548113
H304	H	0.218297	-0.515821	0.798113
Br305	Br	-0.357005	-0.879392	-0.338040
Br306	Br	-0.107005	-0.629392	-0.088040
Br307	Br	0.142995	-0.379392	0.161960
Br308	Br	0.392995	-0.129392	0.411960
Br309	Br	-0.888826	-1.237238	0.019524
Br310	Br	-0.638826	-0.987238	0.269524
Br311	Br	-0.388826	-0.737238	0.519524
Br312	Br	-0.138826	-0.487238	0.769524
H313	H	-0.468359	-1.265815	0.048107
H314	H	-0.218359	-1.015815	0.298107
H315	H	0.031641	-0.765815	0.548107
H316	H	0.281641	-0.515815	0.798107
Br317	Br	-0.762918	-1.237243	0.019519
Br318	Br	-0.512918	-0.987243	0.269519
Br319	Br	-0.262918	-0.737243	0.519519
Br320	Br	-0.012918	-0.487243	0.769519
Br321	Br	-0.237202	-0.942025	-0.275528
Br322	Br	0.012798	-0.692025	-0.025528
Br323	Br	0.262798	-0.442025	0.224472
Br324	Br	0.512798	-0.192025	0.474472
H325	H	-0.468393	-0.913401	-0.304075
H326	H	-0.218393	-0.663401	-0.054075
H327	H	0.031607	-0.413401	0.195925
H328	H	0.281607	-0.163401	0.445925
Br329	Br	-0.111297	-0.942017	-0.275528
Br330	Br	0.138703	-0.692017	-0.025528
Br331	Br	0.388703	-0.442017	0.224472
Br332	Br	0.638703	-0.192017	0.474472
Br333	Br	-0.643104	-1.299812	0.082084
Br334	Br	-0.393104	-1.049812	0.332084
Br335	Br	-0.143104	-0.799812	0.582084
Br336	Br	0.106896	-0.549812	0.832084
