data_functionalizedCrystal
_audit_creation_method	'MofGen! by Chris Wilmer'
_symmetry_space_group_name_H-M	'P1'
_symmetry_Int_Tables_number	1
_symmetry_cell_setting	triclinic
loop_
_symmetry_equiv_pos_as_xyz
  x,y,z
_cell_length_a	12.827893
_cell_length_b	16.120484
_cell_length_c	12.827885
_cell_angle_alpha	92.863928
_cell_angle_beta	89.980728
_cell_angle_gamma	92.925431
loop_
_atom_site_label
_atom_site_type_symbol
_atom_site_fract_x
_atom_site_fract_y
_atom_site_fract_z
Zn1	Zn	1.576504	-0.331866	-0.611895
Zn2	Zn	1.567505	-0.471301	-0.445998
Zn3	Zn	1.401742	-0.331907	-0.437171
Zn4	Zn	1.392841	-0.471239	-0.620694
O5	O	1.484648	-0.401579	-0.528940
O6	O	1.721545	-0.350372	-0.589900
O7	O	1.545475	-0.452853	-0.298594
O8	O	1.432416	-0.215236	-0.452972
O9	O	1.714934	-0.452814	-0.468017
O10	O	1.560812	-0.215206	-0.581341
O11	O	1.423690	-0.350441	-0.292109
O12	O	1.254326	-0.350381	-0.461505
O13	O	1.417245	-0.452708	-0.765761
O14	O	1.247787	-0.452748	-0.596338
O15	O	1.552181	-0.350311	-0.759296
O16	O	1.536844	-0.587959	-0.476549
O17	O	1.408520	-0.587913	-0.604897
C18	C	1.213139	-0.401562	-0.528919
C19	C	1.096985	-0.401576	-0.528936
C20	C	1.041987	-0.452309	-0.595563
C21	C	0.921936	-0.452324	-0.595582
C22	C	1.470768	-0.618186	-0.542658
C23	C	1.464925	-0.710851	-0.548562
C24	C	1.454265	-0.880512	-0.559362
C25	C	1.515219	-0.921804	-0.498534
C26	C	1.509287	-1.016209	-0.504544
C27	C	1.460195	-0.786099	-0.553355
C28	C	1.757217	-0.401595	-0.528962
C29	C	1.873370	-0.401602	-0.528971
C30	C	1.484724	-0.401498	-0.801505
C31	C	1.484757	-0.401464	-0.917656
C32	C	1.498611	-0.184125	-0.515191
C33	C	1.504561	-0.091460	-0.509332
C34	C	1.551535	-0.350785	-0.966241
C35	C	1.551570	-0.350749	-1.086289
C36	C	1.484636	-0.401598	-0.257431
C37	C	1.484821	-0.401397	-0.141266
H38	H	1.083779	-0.495730	-0.652594
H39	H	1.427651	-0.444791	-1.099479
H40	H	1.397630	-0.916059	-0.615947
H41	H	1.571857	-0.886255	-0.441944
H42	H	1.608744	-0.307363	-1.128084
H43	H	1.427605	-0.444820	-0.964935
C44	C	0.858067	-0.511006	-0.672648
C45	C	0.738025	-0.510937	-0.672557
C46	C	0.674154	-0.569621	-0.749625
C47	C	0.730323	-0.628374	-0.826784
C48	C	0.850371	-0.628445	-0.826877
C49	C	0.914243	-0.569761	-0.749809
H50	H	0.696440	-0.467443	-0.615437
H51	H	0.585286	-0.569568	-0.749555
H52	H	0.683042	-0.671815	-0.883834
H53	H	0.891957	-0.671939	-0.883997
H54	H	1.003110	-0.569814	-0.749879
C55	C	0.937232	-0.342918	-0.451902
C56	C	1.016495	-0.277552	-0.493234
C57	C	1.080366	-0.218868	-0.416166
C58	C	1.064975	-0.225550	-0.297766
C59	C	0.985709	-0.290919	-0.256428
C60	C	0.921838	-0.349603	-0.333496
H61	H	1.027891	-0.272603	-0.580887
H62	H	1.139044	-0.170478	-0.446768
H63	H	1.112256	-0.182109	-0.240715
H64	H	0.974313	-0.295868	-0.168776
H65	H	0.863160	-0.397993	-0.302894
C66	C	1.628739	-0.292203	-0.902379
C67	C	1.626316	-0.197411	-0.911286
C68	C	1.703522	-0.138828	-0.847426
C69	C	1.783150	-0.175036	-0.774658
C70	C	1.785576	-0.269833	-0.765748
C71	C	1.708370	-0.328417	-0.829608
H72	H	1.567367	-0.170603	-0.965156
H73	H	1.701725	-0.068653	-0.854022
H74	H	1.840303	-0.131669	-0.727385
H75	H	1.844525	-0.296641	-0.711878
H76	H	1.710167	-0.398592	-0.823012
H77	H	1.055194	-0.358148	-0.471913
