data_functionalizedCrystal
_audit_creation_method	'MofGen! by Chris Wilmer'
_symmetry_space_group_name_H-M	'P1'
_symmetry_Int_Tables_number	1
_symmetry_cell_setting	triclinic
loop_
_symmetry_equiv_pos_as_xyz
  x,y,z
_cell_length_a	27.440280
_cell_length_b	20.919309
_cell_length_c	20.919292
_cell_angle_alpha	59.202373
_cell_angle_beta	93.159200
_cell_angle_gamma	62.590440
loop_
_atom_site_label
_atom_site_type_symbol
_atom_site_fract_x
_atom_site_fract_y
_atom_site_fract_z
Zr1	Zr	0.485624	0.700692	-0.111240
O2	O	0.407259	0.834268	-0.218685
O3	O	0.507050	0.567125	-0.074694
O4	O	0.505189	0.700690	-0.213464
O5	O	0.413542	0.700700	0.025444
O6	O	0.585392	0.700678	-0.213450
O7	O	0.409120	0.700703	-0.079915
O8	O	0.588722	0.461754	0.034783
O9	O	0.410213	0.939624	-0.222790
O10	O	0.579180	0.622050	-0.063457
O11	O	0.522626	0.622057	0.015161
O12	O	0.520435	0.779313	-0.148223
O13	O	0.463880	0.779320	-0.069605
Zr14	Zr	0.620591	0.700668	0.056817
Zr15	Zr	0.613539	0.700672	-0.111219
Zr16	Zr	0.492677	0.700688	0.056795
Zr17	Zr	0.490335	0.868722	-0.117787
Zr18	Zr	0.615880	0.532637	0.063364
O19	O	0.599165	0.834234	0.020271
O20	O	0.589137	0.834240	-0.218654
O21	O	0.417287	0.834262	0.020240
O22	O	0.698956	0.567091	0.164262
O23	O	0.688928	0.567097	-0.074663
O24	O	0.517078	0.567119	0.164231
O25	O	0.692673	0.700659	-0.079867
O26	O	0.601026	0.700669	0.159040
O27	O	0.520823	0.700681	0.159027
O28	O	0.697095	0.700657	0.025492
O29	O	0.511888	0.939608	-0.222772
O30	O	0.594327	0.461751	0.168349
O31	O	0.696002	0.461735	0.168366
O32	O	0.690396	0.461739	0.034801
O33	O	0.415819	0.939621	-0.089224
O34	O	0.517494	0.939605	-0.089207
O35	O	0.585781	0.622046	0.093799
O36	O	0.642335	0.622039	0.015181
O37	O	0.583589	0.779302	-0.069584
O38	O	0.527035	0.779309	0.009034
C39	C	0.547215	0.490499	-0.019023
C40	C	0.545215	0.419166	-0.016243
C41	C	0.573794	0.385649	-0.055976
C42	C	0.571917	0.318619	-0.053357
C43	C	0.541456	0.285111	-0.011010
C44	C	0.512876	0.318630	0.028727
C45	C	0.514757	0.385655	0.026113
C46	C	0.534302	0.082737	-0.001057
C47	C	0.532421	0.015710	0.001552
C48	C	0.591463	0.015702	-0.080531
C49	C	0.593339	0.082732	-0.083146
C50	C	0.564762	0.116242	-0.043405
C51	C	0.539534	0.216598	-0.008334
C52	C	0.566687	0.184749	-0.046077
C53	C	0.393106	0.700704	-0.027239
C54	C	0.338803	0.700713	-0.027248
C55	C	0.032771	0.618575	0.017057
C56	C	-0.018247	0.618570	0.017064
O57	O	-0.018555	0.548756	0.054718
N58	N	-0.074429	0.700659	-0.027183
C59	C	-0.079591	0.782758	-0.071434
O60	O	-0.132062	0.852581	-0.109068
C61	C	-0.028573	0.782762	-0.071436
C62	C	0.027608	0.700668	-0.027192
C63	C	0.088949	0.536488	0.061298
C64	C	0.139964	0.536493	0.061289
C65	C	0.134800	0.618586	0.017040
C66	C	0.078622	0.700673	-0.027201
C67	C	-0.033735	0.864860	-0.115682
C68	C	0.017289	0.864857	-0.115679
C69	C	0.073469	0.782763	-0.071436
C70	C	0.124473	0.782771	-0.071459
N71	N	0.180655	0.700683	-0.027211
C72	C	0.185818	0.618590	0.017038
C73	C	-0.186730	0.782743	-0.071425
C74	C	-0.237747	0.782740	-0.071428
C75	C	-0.176400	0.618552	0.017071
C76	C	-0.125382	0.618556	0.017069
C77	C	-0.130548	0.700654	-0.027178
C78	C	0.292950	0.618607	0.017016
C79	C	0.343967	0.618620	0.017001
C80	C	0.282615	0.782808	-0.071495
C81	C	0.231603	0.782796	-0.071483
C82	C	0.236775	0.700688	-0.027222
O83	O	0.124827	0.852550	-0.109091
O84	O	0.238292	0.548779	0.054675
C85	C	0.713109	0.700655	-0.027184
C86	C	0.767412	0.700647	-0.027175
C87	C	0.544286	0.700685	-0.237398
C88	C	0.541292	0.700687	-0.308734
C89	C	0.559001	0.910860	-0.035401
C90	C	0.561001	0.982194	-0.038180
C91	C	0.584069	0.700681	-0.342240
C92	C	0.581258	0.700675	-0.409263
C93	C	0.535665	0.700680	-0.442782
C94	C	0.492885	0.700683	-0.409270
C95	C	0.495700	0.700683	-0.342245
C96	C	0.524959	0.700675	-0.645152
C97	C	0.522146	0.700678	-0.712183
C98	C	0.610519	0.700669	-0.712171
C99	C	0.613328	0.700674	-0.645147
C100	C	0.570550	0.700672	-0.611638
C101	C	0.532789	0.700677	-0.511292
C102	C	0.573429	0.700669	-0.543126
C103	C	0.561930	0.700675	0.182975
C104	C	0.564924	0.700673	0.254311
C105	C	0.707216	0.490474	-0.018995
C106	C	0.759519	0.419133	-0.016207
C107	C	0.556037	0.490494	0.191164
C108	C	0.557031	0.419159	0.265279
C109	C	0.716038	0.490469	0.191191
C110	C	0.771335	0.419126	0.265315
C111	C	0.390177	0.910890	-0.245615
C112	C	0.334880	0.982234	-0.319739
C113	C	0.398999	0.910885	-0.035428
C114	C	0.346696	0.982227	-0.038216
C115	C	0.550179	0.910866	-0.245587
C116	C	0.549185	0.982201	-0.319702
C117	C	0.751115	0.385636	-0.055953
C118	C	0.800254	0.318612	-0.053349
C119	C	0.857797	0.285081	-0.010994
C120	C	0.866200	0.318585	0.028753
C121	C	0.817062	0.385612	0.026144
C122	C	0.590464	0.385653	0.341139
C123	C	0.591396	0.318636	0.410784
C124	C	0.558898	0.285120	0.404567
C125	C	0.525461	0.318632	0.328698
C126	C	0.524526	0.385653	0.259055
C127	C	0.826830	0.385618	0.259087
C128	C	0.878792	0.318593	0.328727
C129	C	0.875259	0.285071	0.404596
C130	C	0.819758	0.318586	0.410822
C131	C	0.767797	0.385614	0.341182
C132	C	0.279386	1.015749	-0.313511
C133	C	0.227424	1.082796	-0.383152
C134	C	0.230958	1.116320	-0.459020
C135	C	0.286458	1.082802	-0.465247
C136	C	0.338418	1.015762	-0.395607
C137	C	0.355100	1.015731	0.001522
C138	C	0.305961	1.082773	-0.001101
C139	C	0.248418	1.116306	-0.043459
C140	C	0.240015	1.082799	-0.083202
C141	C	0.289153	1.015762	-0.080583
C142	C	0.581689	1.015695	-0.313459
C143	C	0.580767	1.082713	-0.383091
C144	C	0.547336	1.116240	-0.458965
C145	C	0.514831	1.082739	-0.465207
C146	C	0.515757	1.015718	-0.395576
H147	H	0.598596	0.412931	-0.090463
Cl148	Cl	0.414593	0.515408	0.072625
H149	H	0.401951	0.988434	0.036020
H150	H	0.559665	0.230548	0.461281
H151	H	0.490126	0.700676	-0.617876
Cl152	Cl	0.435571	0.700683	-0.451404
Cl153	Cl	0.938544	0.276419	0.082001
Cl154	Cl	0.621631	1.124819	-0.375226
Cl155	Cl	0.484611	0.276487	0.320895
H156	H	0.610552	0.700660	-0.515830
Cl157	Cl	0.919565	0.200815	-0.007719
H158	H	0.312815	1.110043	0.031267
H159	H	0.208412	1.170891	-0.045585
H160	H	0.495666	0.700683	-0.538590
H161	H	0.497302	0.412925	0.197289
H162	H	0.383602	0.988474	-0.400687
Cl163	Cl	0.678781	0.427778	-0.109210
Cl164	Cl	0.167671	1.124960	-0.136445
H165	H	0.618627	0.291358	0.472553
H166	H	-0.190944	0.849602	-0.107460
Cl167	Cl	0.278578	0.973645	-0.130540
H168	H	0.829718	0.412902	0.197318
Cl169	Cl	0.631325	0.427770	0.348977
Cl170	Cl	0.948555	0.276471	0.320881
H171	H	0.182239	1.110075	-0.378066
Cl172	Cl	0.607833	0.276505	-0.103327
Cl173	Cl	0.641386	0.700681	-0.300112
Cl174	Cl	-0.054759	0.515348	0.072694
Cl175	Cl	0.274928	0.973617	-0.218142
H176	H	-0.283488	0.849590	-0.107466
Cl177	Cl	0.623722	0.973559	-0.218082
Cl178	Cl	0.165629	1.200599	-0.546562
H179	H	0.722614	0.412887	0.346265
H180	H	-0.172203	0.551707	0.053099
H181	H	0.917573	0.230492	0.461295
H182	H	0.816890	0.291283	0.472604
Cl183	Cl	0.441922	0.700684	-0.300121
H184	H	0.793400	0.291341	-0.085716
H185	H	0.488077	0.291338	0.063212
H186	H	0.618143	0.110013	-0.117628
Cl187	Cl	0.827638	0.427709	0.076123
H188	H	0.507613	-0.011568	0.036036
H189	H	0.591491	0.212030	-0.080552
H190	H	0.289328	1.110107	-0.527027
Cl191	Cl	0.478828	0.427788	0.076066
Cl192	Cl	0.472800	1.124906	-0.560599
Cl193	Cl	0.474883	0.973628	-0.403439
H194	H	0.614731	-0.011588	-0.112885
Cl195	Cl	0.299460	0.515385	0.072658
Cl196	Cl	0.210586	0.433283	0.116920
Cl197	Cl	0.498378	0.124852	0.048906
Cl198	Cl	0.501250	0.174458	0.044912
H199	H	0.093164	0.469634	0.097335
H200	H	0.013076	0.931713	-0.151701
Cl201	Cl	-0.104352	0.968072	-0.171298
Cl202	Cl	0.276136	0.886004	-0.127106
Cl203	Cl	0.160974	0.886001	-0.127120
Cl204	Cl	0.670644	0.700669	-0.603009
Cl205	Cl	0.635036	0.700667	-0.451385
Cl206	Cl	0.664296	0.700667	-0.754296
Cl207	Cl	0.464823	0.700687	-0.754319
H208	H	0.546587	1.170814	-0.515657
