data_functionalizedCrystal
_audit_creation_method	'MofGen! by Chris Wilmer'
_symmetry_space_group_name_H-M	'P1'
_symmetry_Int_Tables_number	1
_symmetry_cell_setting	triclinic
loop_
_symmetry_equiv_pos_as_xyz
  x,y,z
_cell_length_a	14.446369
_cell_length_b	27.440280
_cell_length_c	14.446369
_cell_angle_alpha	90.005311
_cell_angle_beta	60.000250
_cell_angle_gamma	59.999534
loop_
_atom_site_label
_atom_site_type_symbol
_atom_site_fract_x
_atom_site_fract_y
_atom_site_fract_z
Zr1	Zr	1.013131	0.469506	-0.121408
O2	O	1.206259	0.391688	-0.269237
O3	O	0.820009	0.493361	-0.076085
O4	O	1.013117	0.493362	-0.269204
O5	O	1.013159	0.391687	0.076211
O6	O	1.013099	0.573565	-0.269185
O7	O	1.013150	0.391687	-0.076118
O8	O	0.667663	0.573563	0.076270
O9	O	1.358595	0.391689	-0.269244
O10	O	0.899427	0.563390	-0.056748
O11	O	0.899446	0.503535	0.056919
O12	O	1.126807	0.503537	-0.170454
O13	O	1.126826	0.443682	-0.056787
Zr14	Zr	1.013115	0.597420	0.121569
Zr15	Zr	1.013102	0.597420	-0.121378
Zr16	Zr	1.013144	0.469506	0.121539
Zr17	Zr	1.256088	0.469507	-0.121419
Zr18	Zr	0.770157	0.597419	0.121580
O19	O	1.206237	0.573566	0.076246
O20	O	1.206218	0.573566	-0.269194
O21	O	1.206278	0.391688	0.076202
O22	O	0.819987	0.675238	0.269398
O23	O	0.819968	0.675239	-0.076041
O24	O	0.820028	0.493361	0.269354
O25	O	1.013087	0.675239	-0.076050
O26	O	1.013129	0.573564	0.269365
O27	O	1.013147	0.493362	0.269346
O28	O	1.013096	0.675239	0.076279
O29	O	1.358572	0.493364	-0.269220
O30	O	0.667674	0.573563	0.269381
O31	O	0.667651	0.675238	0.269405
O32	O	0.667641	0.675238	0.076294
O33	O	1.358605	0.391689	-0.076134
O34	O	1.358583	0.493364	-0.076109
O35	O	0.899439	0.563390	0.170615
O36	O	0.899420	0.623244	0.056948
O37	O	1.126800	0.563391	-0.056758
O38	O	1.126819	0.503537	0.056909
C39	C	0.709220	0.533462	0.000094
C40	C	0.606078	0.533461	0.000099
C41	C	1.013159	0.373462	0.000042
C42	C	1.013171	0.319159	0.000029
C43	C	0.459080	0.495892	0.072117
C44	C	0.566700	0.495688	0.071826
C45	C	0.655073	0.505923	-0.123442
C46	C	0.547840	0.505641	-0.123068
C47	C	0.372608	0.598596	0.050559
C48	C	0.478759	0.598500	0.053080
C49	C	0.894411	0.013704	0.059465
C50	C	0.894404	-0.037314	0.059475
O51	O	0.793463	-0.037131	0.109987
N52	N	1.013093	-0.094074	0.000121
C53	C	1.131797	-0.099814	-0.059238
O54	O	1.232750	-0.152777	-0.109722
C55	C	1.131802	-0.048796	-0.059241
C56	C	1.013106	0.007963	0.000108
C57	C	0.775725	0.070461	0.118810
C58	C	0.775732	0.121475	0.118798
C59	C	0.894427	0.115734	0.059441
C60	C	1.013114	0.058978	0.000096
C61	C	1.250505	-0.054537	-0.118593
C62	C	1.250500	-0.003513	-0.118590
C63	C	1.131804	0.053246	-0.059241
C64	C	1.131816	0.104251	-0.059273
N65	N	1.013127	0.161010	0.000081
C66	C	0.894433	0.166752	0.059438
C67	C	1.131775	-0.206953	-0.059226
C68	C	1.131771	-0.257970	-0.059231
C69	C	0.894378	-0.195466	0.059484
C70	C	0.894384	-0.144449	0.059482
C71	C	1.013086	-0.150193	0.000128
C72	C	0.894458	0.273884	0.059408
C73	C	0.894476	0.324901	0.059387
C74	C	1.131868	0.262393	-0.059323
C75	C	1.131851	0.211381	-0.059308
C76	C	1.013135	0.217130	0.000066
O77	O	1.232706	0.104114	-0.109756
O78	O	0.793496	0.219717	0.109926
C79	C	1.317026	0.533465	0.000066
C80	C	1.420168	0.533465	0.000062
C81	C	1.013106	0.533464	-0.303809
C82	C	1.013101	0.533464	-0.406946
C83	C	1.013087	0.693464	0.000119
C84	C	1.013075	0.747767	0.000131
C85	C	0.869707	0.571401	-0.481913
C86	C	0.869610	0.571237	-0.374584
C87	C	1.084343	0.468428	-0.481525
C88	C	1.083433	0.468635	-0.588384
C89	C	1.086365	0.560037	-0.589936
C90	C	1.083663	0.561353	-0.481263
C91	C	1.013140	0.533463	0.303970
C92	C	1.013145	0.533463	0.407107
C93	C	0.709184	0.693463	0.000132
C94	C	0.606030	0.747765	0.000150
C95	C	0.709236	0.533462	0.303984
C96	C	0.606100	0.533461	0.407126
C97	C	0.709201	0.693463	0.304022
C98	C	0.606052	0.747765	0.407177
C99	C	1.317045	0.373464	-0.303861
C100	C	1.420194	0.319161	-0.407016
C101	C	1.317062	0.373464	0.000028
C102	C	1.420216	0.319161	0.000011
C103	C	1.317010	0.533465	-0.303823
C104	C	1.420146	0.533466	-0.406965
C105	C	0.557591	0.742023	-0.059200
C106	C	0.460681	0.793041	-0.059206
C107	C	0.412203	0.849801	0.000145
C108	C	0.460652	0.855542	0.059497
C109	C	0.557567	0.804525	0.059496
C110	C	0.557602	0.804515	0.396286
C111	C	0.460697	0.855543	0.493202
C112	C	0.412237	0.849819	0.601007
C113	C	0.460696	0.793064	0.611895
C114	C	0.557606	0.742037	0.514981
C115	C	1.468655	0.262412	-0.396126
C116	C	1.565591	0.211384	-0.493041
C117	C	1.614056	0.217107	-0.600846
C118	C	1.565591	0.273863	-0.611734
C119	C	1.468664	0.324890	-0.514820
C120	C	1.468665	0.324904	0.059350
C121	C	1.565602	0.273886	0.059330
C122	C	1.614083	0.217126	-0.000025
C123	C	1.565630	0.211385	-0.059372
C124	C	1.468701	0.262402	-0.059357
C125	C	0.459794	0.495528	0.482106
C126	C	0.566715	0.495689	0.374772
C127	C	0.479233	0.598498	0.481701
C128	C	0.371858	0.598294	0.588564
C129	C	0.546851	0.506894	0.590121
C130	C	0.655321	0.505574	0.481444
H131	H	0.529991	0.514160	0.162797
F132	F	0.338647	0.635359	-0.017712
H133	H	0.529242	0.514122	0.320993
H134	H	0.813366	0.552807	-0.320800
F135	F	0.508299	0.637051	0.517303
H136	H	1.228503	0.165164	-0.107649
H137	H	0.421246	0.788355	-0.107537
F138	F	0.609154	0.681641	0.526589
F139	F	0.773590	0.442941	0.414229
F140	F	1.417090	0.256307	-0.281400
F141	F	1.017276	0.440829	-0.588038
F142	F	1.376844	-0.009633	-0.181761
H143	H	0.522058	0.534396	0.668343
H144	H	1.188345	0.536593	-0.506789
H145	H	1.692980	0.175553	-0.679751
H146	H	0.597045	0.809186	0.308515
F147	F	0.649398	0.181878	0.181973
H148	H	1.429257	0.257718	-0.107675
H149	H	0.333326	0.891373	0.679912
F150	F	0.342932	0.519916	0.191329
H151	H	0.439158	0.619073	0.144094
H152	H	0.333287	0.891338	0.000138
F153	F	0.505761	0.433477	0.026786
F154	F	0.598587	0.445242	0.595488
F155	F	0.692744	0.539957	-0.196667
F156	F	0.775736	0.443878	-0.176644
H157	H	1.228506	0.257728	-0.107655
H158	H	0.421251	0.901751	0.484317
H159	H	1.034875	0.447003	-0.429925
F160	F	1.417090	0.385286	-0.526428
F161	F	0.332688	0.637253	0.691286
F162	F	0.250111	0.628659	0.167659
H163	H	1.605036	0.278572	0.107661
H164	H	1.040456	0.607205	-0.594038
H165	H	0.421225	0.788412	0.699683
F166	F	0.683513	0.433091	0.303815
H167	H	0.500252	0.628853	0.006059
F168	F	1.617151	0.150986	-0.481430
H169	H	0.596994	0.809209	0.107832
H170	H	1.429199	0.371116	0.107691
F171	F	0.697318	0.537935	0.514803
F172	F	1.015768	0.623980	-0.414036
F173	F	0.796541	0.633833	-0.303618
F174	F	0.428821	0.626502	0.414259
H175	H	1.605064	0.278516	-0.699521
H176	H	1.693009	0.175589	-0.000027
H177	H	1.605118	0.165164	-0.107696
F178	F	0.342590	0.519393	0.480762
F179	F	1.376840	-0.114936	-0.181753
F180	F	0.253229	0.626098	0.588219
F181	F	0.682790	0.432894	0.026057
F182	F	0.601042	0.442997	-0.175904
H183	H	0.813697	0.553138	-0.480881
H184	H	1.228443	-0.211638	-0.107565
F185	F	0.649382	0.076584	0.181996
F186	F	0.768138	0.385308	0.122554
H187	H	0.525863	0.531240	-0.179673
H188	H	0.797788	0.278575	0.107757
H189	H	0.597060	0.695811	-0.107544
H190	H	0.797730	-0.098236	0.107819
H191	H	0.497044	0.447514	0.479758
H192	H	0.421167	0.901763	0.107818
H193	H	1.188671	0.438830	-0.666975
H194	H	1.228425	-0.304182	-0.107574
F195	F	0.796105	0.634160	-0.478839
F196	F	0.768051	-0.189364	0.122659
H197	H	1.189847	0.438933	-0.508767
H198	H	1.192042	0.532526	-0.668146
