data_functionalizedCrystal
_audit_creation_method	'MofGen! by Chris Wilmer'
_symmetry_space_group_name_H-M	'P1'
_symmetry_Int_Tables_number	1
_symmetry_cell_setting	triclinic
loop_
_symmetry_equiv_pos_as_xyz
  x,y,z
_cell_length_a	15.995350
_cell_length_b	14.519709
_cell_length_c	13.596369
_cell_angle_alpha	89.999709
_cell_angle_beta	89.996243
_cell_angle_gamma	96.413740
loop_
_atom_site_label
_atom_site_type_symbol
_atom_site_fract_x
_atom_site_fract_y
_atom_site_fract_z
O1	O	0.109760	-1.223669	-0.081658
O2	O	0.443093	-0.890336	0.251675
O3	O	0.776427	-0.557002	0.585008
O4	O	0.122685	-0.955169	-0.081688
O5	O	0.456019	-0.621835	0.251646
O6	O	0.789352	-0.288502	0.584979
O7	O	-0.005654	-1.096759	-0.081671
O8	O	0.327679	-0.763425	0.251662
O9	O	0.661013	-0.430092	0.584995
O10	O	0.238099	-1.082079	-0.081675
O11	O	0.571433	-0.748746	0.251659
O12	O	0.904766	-0.415413	0.584992
O13	O	-0.005661	-1.096744	0.081912
O14	O	0.327673	-0.763411	0.415245
O15	O	0.661006	-0.430078	0.748578
O16	O	0.122679	-0.955155	0.081895
O17	O	0.456012	-0.621821	0.415228
O18	O	0.789345	-0.288488	0.748562
O19	O	0.109753	-1.223655	0.081925
O20	O	0.443086	-0.890322	0.415258
O21	O	0.776420	-0.556988	0.748591
Zn22	Zn	0.116215	-1.089403	0.107882
Zn23	Zn	0.449548	-0.756069	0.441215
Zn24	Zn	0.782881	-0.422736	0.774549
Zn25	Zn	0.116224	-1.089421	-0.107645
Zn26	Zn	0.449557	-0.756088	0.225688
Zn27	Zn	0.782890	-0.422754	0.559021
O28	O	0.238093	-1.082065	0.081908
O29	O	0.571426	-0.748732	0.415241
O30	O	0.904759	-0.415399	0.748575
C31	C	0.122080	-0.920803	0.000100
C32	C	0.455413	-0.587470	0.333433
C33	C	0.788746	-0.254136	0.666766
C34	C	0.120275	-0.818425	0.000088
C35	C	0.453608	-0.485092	0.333422
C36	C	0.786941	-0.151758	0.666755
C37	C	-0.036853	-1.096145	0.000118
C38	C	0.296480	-0.762811	0.333452
C39	C	0.629814	-0.429478	0.666785
C40	C	-0.129806	-1.094325	0.000112
C41	C	0.203527	-0.760992	0.333446
C42	C	0.536861	-0.427659	0.666779
N43	N	0.116208	-1.089397	0.254974
N44	N	0.449541	-0.756063	0.588307
N45	N	0.782875	-0.422730	0.921641
C46	C	-0.467563	-1.087791	0.000115
C47	C	-0.134230	-0.754458	0.333448
C48	C	0.199103	-0.421125	0.666782
C49	C	-0.420280	-0.986954	-0.000263
C50	C	-0.086947	-0.653620	0.333070
C51	C	0.246386	-0.320287	0.666404
C52	C	-0.323587	-0.988773	0.000106
C53	C	0.009746	-0.655440	0.333439
C54	C	0.343079	-0.322107	0.666773
C55	C	-0.299998	-1.091032	0.000113
C56	C	0.033335	-0.757699	0.333446
C57	C	0.366669	-0.424366	0.666780
C58	C	-0.341005	-1.140761	0.093531
C59	C	-0.007672	-0.807428	0.426864
C60	C	0.325662	-0.474094	0.760197
C61	C	-0.437644	-1.138228	0.093609
C62	C	-0.104311	-0.804895	0.426942
C63	C	0.229022	-0.471561	0.760275
C64	C	-0.437992	-1.140327	-0.092415
C65	C	-0.104658	-0.806994	0.240918
C66	C	0.228675	-0.473660	0.574251
C67	C	-0.341046	-1.140303	-0.093650
C68	C	-0.007713	-0.806970	0.239683
C69	C	0.325620	-0.473636	0.573017
C70	C	-0.205298	-1.092869	0.000115
C71	C	0.128036	-0.759536	0.333449
C72	C	0.461369	-0.426203	0.666782
C73	C	-0.562264	-1.085957	0.000119
C74	C	-0.228931	-0.752624	0.333453
C75	C	0.104403	-0.419291	0.666786
C76	C	0.269292	-1.082679	0.000116
C77	C	0.602625	-0.749346	0.333450
C78	C	0.935958	-0.416012	0.666783
C79	C	0.362245	-1.084498	0.000116
C80	C	0.695578	-0.751165	0.333449
C81	C	1.028911	-0.417832	0.666782
C82	C	0.110359	-1.258021	0.000135
C83	C	0.443692	-0.924687	0.333468
C84	C	0.777026	-0.591354	0.666801
C85	C	0.112164	-1.360399	0.000140
C86	C	0.445497	-1.027065	0.333473
C87	C	0.778831	-0.693732	0.666806
C88	C	0.113629	-0.443541	0.000133
C89	C	0.446962	-0.110208	0.333467
C90	C	0.780296	0.223125	0.666800
C91	C	0.115475	-0.547846	0.000120
C92	C	0.448808	-0.214513	0.333454
C93	C	0.782141	0.118821	0.666787
C94	C	0.116952	-0.630980	0.000110
C95	C	0.450285	-0.297647	0.333443
C96	C	0.783618	0.035687	0.666777
C97	C	0.118797	-0.735291	0.000099
C98	C	0.452131	-0.401958	0.333432
C99	C	0.785464	-0.068624	0.666766
N100	N	0.116224	-1.089434	-0.254737
N101	N	0.449557	-0.756101	0.078596
N102	N	0.782890	-0.422768	0.411929
C103	C	0.116225	-1.089420	0.656265
C104	C	0.449558	-0.756087	0.989598
C105	C	0.782891	-0.422753	1.322932
C106	C	0.116223	-1.089411	0.544614
C107	C	0.449556	-0.756077	0.877947
C108	C	0.782890	-0.422744	1.211280
C109	C	0.116217	-1.089409	0.455623
C110	C	0.449550	-0.756075	0.788956
C111	C	0.782884	-0.422742	1.122290
C112	C	0.116214	-1.089399	0.343965
C113	C	0.449547	-0.756065	0.677298
C114	C	0.782881	-0.422732	1.010631
H115	H	-0.295221	-0.949683	-0.066860
H116	H	0.038112	-0.616350	0.266474
H117	H	0.371446	-0.283016	0.599807
H118	H	-0.469641	-1.214674	-0.093038
H119	H	-0.136308	-0.881341	0.240295
H120	H	0.197025	-0.548007	0.573629
Cl121	Cl	-0.280655	-0.927994	0.103657
Cl122	Cl	0.052678	-0.594661	0.436991
Cl123	Cl	0.386012	-0.261327	0.770324
H124	H	-0.469782	-1.212261	0.097852
H125	H	-0.136449	-0.878928	0.431186
H126	H	0.196885	-0.545594	0.764519
H127	H	-0.458578	-1.107364	-0.163220
H128	H	-0.125244	-0.774031	0.170113
H129	H	0.208089	-0.440698	0.503447
Cl130	Cl	-0.448978	-0.924731	-0.103694
Cl131	Cl	-0.115645	-0.591397	0.229639
Cl132	Cl	0.217688	-0.258064	0.562972
Cl133	Cl	-0.297276	-1.087419	0.200857
Cl134	Cl	0.036058	-0.754085	0.534190
Cl135	Cl	0.369391	-0.420752	0.867523
H136	H	-0.439937	-0.946823	0.066347
H137	H	-0.106604	-0.613490	0.399680
H138	H	0.226729	-0.280156	0.733014
Cl139	Cl	-0.298566	-1.084630	-0.200365
Cl140	Cl	0.034767	-0.751297	0.132968
Cl141	Cl	0.368101	-0.417963	0.466302
Cl142	Cl	-0.465992	-1.082218	0.201410
Cl143	Cl	-0.132659	-0.748885	0.534744
Cl144	Cl	0.200675	-0.415552	0.868077
H145	H	-0.326767	-1.215888	0.097010
H146	H	0.006566	-0.882554	0.430343
H147	H	0.339900	-0.549221	0.763677
Cl148	Cl	-0.317153	-1.255437	-0.102357
Cl149	Cl	0.016180	-0.922104	0.230976
Cl150	Cl	0.349514	-0.588770	0.564309
