data_functionalizedCrystal
_audit_creation_method	'MofGen! by Chris Wilmer'
_symmetry_space_group_name_H-M	'P1'
_symmetry_Int_Tables_number	1
_symmetry_cell_setting	triclinic
loop_
_symmetry_equiv_pos_as_xyz
  x,y,z
_cell_length_a	14.044220
_cell_length_b	27.732048
_cell_length_c	13.101039
_cell_angle_alpha	93.329410
_cell_angle_beta	86.340132
_cell_angle_gamma	87.915767
loop_
_atom_site_label
_atom_site_type_symbol
_atom_site_fract_x
_atom_site_fract_y
_atom_site_fract_z
O1	O	1.261246	0.114020	-0.085126
O2	O	1.761246	0.614020	0.414874
O3	O	0.985339	0.109817	-0.085151
O4	O	1.485339	0.609817	0.414849
O5	O	1.131860	0.041925	-0.085119
O6	O	1.631860	0.541925	0.414881
O7	O	1.114725	0.181913	-0.085159
O8	O	1.614725	0.681913	0.414841
O9	O	1.121348	0.046805	0.085309
O10	O	1.621348	0.546805	0.585309
O11	O	0.974827	0.114697	0.085276
O12	O	1.474827	0.614697	0.585276
O13	O	1.250733	0.118900	0.085301
O14	O	1.750733	0.618900	0.585301
Zn15	Zn	1.111111	0.117574	0.112348
Zn16	Zn	1.611111	0.617574	0.612348
Zn17	Zn	1.124962	0.111144	-0.112198
Zn18	Zn	1.624962	0.611144	0.387802
O19	O	1.104212	0.186793	0.085268
O20	O	1.604212	0.686793	0.585268
C21	C	0.944796	0.110418	0.000059
C22	C	1.444796	0.610418	0.500059
C23	C	0.839651	0.104930	0.000051
C24	C	1.339651	0.604930	0.500051
C25	C	0.647135	0.094899	0.000074
C26	C	1.147135	0.594899	0.500074
C27	C	0.588932	0.133816	0.000067
C28	C	1.088932	0.633816	0.500067
C29	C	0.481810	0.128235	0.000080
C30	C	0.981810	0.628235	0.500080
C31	C	0.754268	0.100480	0.000061
C32	C	1.254268	0.600480	0.500061
C33	C	1.126244	0.026341	0.000098
C34	C	1.626244	0.526341	0.500098
C35	C	1.125160	-0.027364	0.000106
C36	C	1.625160	0.472636	0.500106
C37	C	1.204929	-0.362438	0.000061
C38	C	1.704929	0.137562	0.500061
C39	C	1.200910	-0.564286	0.000046
C40	C	1.700910	-0.064286	0.500046
O41	O	1.273853	-0.592120	0.000008
O42	O	1.773853	-0.092120	0.500008
N43	N	1.114029	-0.587487	0.000039
N44	N	1.614029	-0.087487	0.500039
C45	C	1.028146	-0.560223	0.000029
C46	C	1.528146	-0.060223	0.500029
O47	O	0.954156	-0.584589	0.000012
O48	O	1.454156	-0.084589	0.500012
C49	C	1.032166	-0.358376	0.000037
C50	C	1.532166	0.141624	0.500037
C51	C	1.119052	-0.335177	0.000054
C52	C	1.619052	0.164823	0.500054
C53	C	1.291808	-0.339239	0.000077
C54	C	1.791808	0.160761	0.500077
C55	C	1.292812	-0.288779	0.000086
C56	C	1.792812	0.211221	0.500086
C57	C	1.206935	-0.261519	0.000079
C58	C	1.706935	0.238481	0.500079
C59	C	1.120056	-0.284718	0.000063
C60	C	1.620056	0.215282	0.500063
C61	C	0.946285	-0.331113	0.000019
C62	C	1.446285	0.168887	0.500019
C63	C	0.947297	-0.280648	0.000018
C64	C	1.447297	0.219352	0.500018
C65	C	1.034184	-0.257449	0.000036
C66	C	1.534184	0.242551	0.500036
C67	C	1.035183	-0.206998	0.000066
C68	C	1.535183	0.293002	0.500066
N69	N	1.122064	-0.183797	0.000072
N70	N	1.622064	0.316203	0.500072
C71	C	1.207941	-0.211057	0.000079
C72	C	1.707941	0.288943	0.500079
C73	C	1.026042	-0.666196	0.000027
C74	C	1.526042	-0.166196	0.500027
C75	C	1.025036	-0.716658	0.000027
C76	C	1.525036	-0.216658	0.500027
C77	C	1.197801	-0.720717	0.000043
C78	C	1.697801	-0.220717	0.500043
C79	C	1.198805	-0.670255	0.000050
C80	C	1.698805	-0.170255	0.500050
C81	C	1.112923	-0.642995	0.000034
C82	C	1.612923	-0.142995	0.500034
C83	C	1.210041	-0.105089	0.000100
C84	C	1.710041	0.394911	0.500100
C85	C	1.211037	-0.054625	0.000113
C86	C	1.711037	0.445375	0.500113
C87	C	1.038273	-0.050570	0.000093
C88	C	1.538273	0.449430	0.500093
C89	C	1.037276	-0.101030	0.000085
C90	C	1.537276	0.398970	0.500085
C91	C	1.123168	-0.128288	0.000085
C92	C	1.623168	0.371712	0.500085
O93	O	0.962280	-0.179134	0.000092
O94	O	1.462280	0.320866	0.500092
O95	O	1.281921	-0.186683	0.000073
O96	O	1.781921	0.313317	0.500073
C97	C	1.203925	-0.412897	0.000052
C98	C	1.703925	0.087103	0.500052
C99	C	1.117046	-0.436096	0.000035
C100	C	1.617046	0.063904	0.500035
C101	C	1.031169	-0.408835	0.000029
C102	C	1.531169	0.091165	0.500029
C103	C	1.116040	-0.486557	0.000035
C104	C	1.616040	0.013443	0.500035
C105	C	1.201917	-0.513818	0.000042
C106	C	1.701917	-0.013818	0.500042
C107	C	1.288798	-0.490617	0.000049
C108	C	1.788798	0.009383	0.500049
C109	C	1.289802	-0.440157	0.000059
C110	C	1.789802	0.059843	0.500059
C111	C	0.944288	-0.432037	0.000022
C112	C	1.444288	0.067963	0.500022
C113	C	0.943292	-0.482496	0.000013
C114	C	1.443292	0.017504	0.500013
C115	C	1.029168	-0.509756	0.000020
C116	C	1.529168	-0.009756	0.500020
C117	C	1.291277	0.118300	0.000088
C118	C	1.791277	0.618300	0.500088
C119	C	1.396422	0.123787	0.000090
C120	C	1.896422	0.623787	0.500090
C121	C	1.109828	0.202376	0.000050
C122	C	1.609828	0.702376	0.500050
C123	C	1.110913	0.256082	0.000034
C124	C	1.610913	0.756082	0.500034
N125	N	1.101664	0.121962	0.265594
N126	N	1.601664	0.621962	0.765594
N127	N	1.134415	0.106752	-0.265444
N128	N	1.634415	0.606752	0.234556
C129	C	1.088813	0.127936	0.474634
C130	C	1.588813	0.627936	0.974634
C131	C	1.147264	0.100779	0.525523
C132	C	1.647264	0.600779	1.025523
C133	C	1.140113	0.104104	0.641839
C134	C	1.640113	0.604104	1.141839
C135	C	1.095962	0.124612	0.358306
C136	C	1.595962	0.624612	0.858306
H137	H	1.281793	-0.035739	0.000130
H138	H	1.781793	0.464261	0.500130
C139	C	0.847703	-0.508009	-0.000005
C140	C	1.347703	-0.008009	0.499995
N141	N	0.775707	-0.527223	-0.000028
N142	N	1.275707	-0.027223	0.499972
C143	C	1.388395	-0.263268	0.000095
C144	C	1.888395	0.236732	0.500095
N145	N	1.460394	-0.244056	0.000096
N146	N	1.960394	0.255944	0.500096
H147	H	0.875533	-0.349993	-0.000001
H148	H	1.375533	0.150007	0.499999
C149	C	1.222135	0.066003	0.466367
C150	C	1.722135	0.566003	0.966367
N151	N	1.278531	0.039813	0.421807
N152	N	1.778531	0.539813	0.921807
H153	H	1.033404	0.153681	0.518418
H154	H	1.533404	0.653681	1.018418
H155	H	0.619555	0.171325	0.000051
H156	H	1.119555	0.671325	0.500051
H157	H	0.616514	0.057393	0.000090
H158	H	1.116514	0.557393	0.500090
H159	H	1.279983	-0.127277	0.000096
H160	H	1.779983	0.372723	0.500096
C161	C	1.386287	-0.369217	0.000096
C162	C	1.886287	0.130783	0.500096
N163	N	1.457454	-0.391793	0.000121
N164	N	1.957454	0.108207	0.500121
C165	C	0.852818	-0.250666	0.000005
C166	C	1.352818	0.249334	0.500005
N167	N	0.781655	-0.228084	-0.000001
N168	N	1.281655	0.271916	0.499999
C169	C	0.931558	-0.636217	0.000011
C170	C	1.431558	-0.136217	0.500011
N171	N	0.860392	-0.613639	0.000002
N172	N	1.360392	-0.113639	0.500002
C173	C	1.294386	-0.644741	0.000060
C174	C	1.794386	-0.144741	0.500060
N175	N	1.366383	-0.625527	0.000064
N176	N	1.866383	-0.125527	0.500064
H177	H	0.966524	-0.119918	0.000099
H178	H	1.466524	0.380082	0.500099
H179	H	1.267725	-0.742921	0.000049
H180	H	1.767725	-0.242921	0.500049
H181	H	0.874355	-0.409846	0.000014
H182	H	1.374355	0.090154	0.500014
C183	C	0.943814	-0.020574	0.000078
C184	C	1.443814	0.479426	0.500078
N185	N	0.872667	0.002020	0.000057
N186	N	1.372667	0.502020	0.500057
C187	C	0.929454	-0.742170	0.000021
C188	C	1.429454	-0.242170	0.500021
N189	N	0.857458	-0.761385	0.000010
N190	N	1.357458	-0.261385	0.500010
H191	H	1.360554	-0.421273	0.000072
H192	H	1.860554	0.078727	0.500072
H193	H	1.358722	-0.512821	0.000060
H194	H	1.858722	-0.012821	0.500060
