data_functionalizedCrystal
_audit_creation_method	'MofGen! by Chris Wilmer'
_symmetry_space_group_name_H-M	'P1'
_symmetry_Int_Tables_number	1
_symmetry_cell_setting	triclinic
loop_
_symmetry_equiv_pos_as_xyz
  x,y,z
_cell_length_a	15.995292
_cell_length_b	15.995350
_cell_length_c	14.048226
_cell_angle_alpha	89.997187
_cell_angle_beta	90.009436
_cell_angle_gamma	96.519504
loop_
_atom_site_label
_atom_site_type_symbol
_atom_site_fract_x
_atom_site_fract_y
_atom_site_fract_z
O1	O	-0.107931	1.110965	-0.079086
O2	O	-0.121259	0.867187	-0.079107
O3	O	0.007296	0.995765	-0.079083
O4	O	-0.236486	0.982387	-0.079111
O5	O	0.007303	0.995750	0.079239
O6	O	-0.121252	0.867172	0.079215
O7	O	-0.107924	1.110950	0.079235
Zn8	Zn	-0.114587	0.989058	0.104362
Zn9	Zn	-0.114596	0.989079	-0.104234
O10	O	-0.236479	0.982372	0.079211
C11	C	-0.120704	0.835985	0.000051
C12	C	-0.119053	0.743035	0.000044
C13	C	-0.113120	0.405288	0.000065
C14	C	-0.021566	0.452742	0.000428
C15	C	-0.023218	0.549431	0.000065
C16	C	-0.116063	0.572848	0.000055
C17	C	-0.161225	0.531761	-0.090356
C18	C	-0.158925	0.435125	-0.090424
C19	C	-0.160808	0.434769	0.089616
C20	C	-0.160786	0.531714	0.090805
C21	C	-0.117731	0.667546	0.000046
C22	C	-0.111455	0.310591	0.000067
C23	C	-0.267678	0.982924	0.000046
C24	C	-0.360631	0.984556	0.000036
C25	C	-0.698369	0.990557	0.000067
C26	C	-0.675057	0.897753	0.000410
C27	C	-0.578382	0.895989	0.000044
C28	C	-0.530814	0.987580	0.000052
C29	C	-0.559930	1.033986	-0.090347
C30	C	-0.656721	1.035104	-0.090413
C31	C	-0.656547	1.036981	0.089628
C32	C	-0.560054	1.033541	0.090813
C33	C	-0.436117	0.985902	0.000041
C34	C	-0.793065	0.992238	0.000073
C35	C	0.038495	0.995213	0.000080
C36	C	0.131448	0.993581	0.000084
C37	C	-0.108479	1.142152	0.000075
C38	C	-0.110130	1.235102	0.000076
N39	N	-0.114579	0.989050	0.246722
N40	N	-0.114597	0.989093	-0.246594
C41	C	-0.057679	1.046003	0.296551
C42	C	-0.057678	1.046008	0.396209
C43	C	-0.114583	0.989065	0.446036
C44	C	-0.171486	0.932107	0.396200
C45	C	-0.171482	0.932098	0.296544
C46	C	-0.171492	0.932131	0.603914
C47	C	-0.171498	0.932141	0.703577
C48	C	-0.057688	1.046042	0.703579
C49	C	-0.057684	1.046033	0.603923
C50	C	-0.114589	0.989075	0.554094
H51	H	0.012515	0.577303	-0.064850
C52	C	-0.552658	0.846888	0.087580
C53	C	-0.459451	0.835657	0.104389
C54	C	-0.433733	0.786550	0.191926
C55	C	-0.501221	0.748675	0.262655
C56	C	-0.594433	0.759905	0.245849
C57	C	-0.620151	0.809012	0.158311
H58	H	-0.409487	0.863696	0.052029
H59	H	-0.364731	0.778237	0.204367
H60	H	-0.482183	0.712323	0.327456
H61	H	-0.644397	0.731866	0.298209
H62	H	-0.689153	0.817325	0.145871
H63	H	-0.670542	1.105290	0.090250
H64	H	-0.011345	1.092383	0.436779
H65	H	-0.129863	0.560148	-0.157634
H66	H	0.015034	0.434221	0.065266
H67	H	-0.228491	0.547064	0.096258
H68	H	-0.541475	0.999751	0.157690
C69	C	-0.120367	0.407036	0.182198
C70	C	-0.043517	0.357256	0.177663
C71	C	-0.003066	0.329525	0.270239
C72	C	-0.039464	0.351574	0.367349
C73	C	-0.116318	0.401356	0.371887
C74	C	-0.156770	0.429088	0.279312
H75	H	-0.016569	0.340932	0.105773
H76	H	0.053827	0.292672	0.266878
H77	H	-0.009520	0.331045	0.435879
H78	H	-0.143266	0.417681	0.443778
H79	H	-0.213662	0.465940	0.282672
H80	H	-0.217827	0.885747	0.563347
C81	C	-0.249727	0.391534	-0.095989
C82	C	-0.266156	0.294795	-0.097189
C83	C	-0.356956	0.251209	-0.102761
C84	C	-0.431327	0.304362	-0.107132
C85	C	-0.414901	0.401107	-0.105931
C86	C	-0.324101	0.444693	-0.100360
H87	H	-0.211099	0.255443	-0.093953
H88	H	-0.369115	0.179591	-0.103649
H89	H	-0.498543	0.272096	-0.111256
H90	H	-0.469957	0.440459	-0.109167
H91	H	-0.311942	0.516310	-0.099471
H92	H	-0.011344	1.092376	0.255988
H93	H	-0.217816	0.885738	0.436775
H94	H	-0.229436	0.545872	-0.093724
H95	H	-0.127818	0.559031	0.157690
C96	C	-0.234089	0.869496	0.758384
C97	C	-0.298157	0.902191	0.826870
C98	C	-0.360749	0.839545	0.881675
C99	C	-0.359274	0.744203	0.867994
C100	C	-0.295203	0.711503	0.799505
C101	C	-0.232611	0.774150	0.744700
H102	H	-0.299251	0.972773	0.837000
H103	H	-0.408178	0.863752	0.932374
H104	H	-0.405608	0.697828	0.908563
H105	H	-0.294109	0.640921	0.789375
H106	H	-0.185182	0.749943	0.694000
C107	C	0.024745	0.587847	0.087613
C108	C	0.032637	0.683553	0.104427
C109	C	0.080606	0.721964	0.191977
C110	C	0.120682	0.664668	0.262713
C111	C	0.112790	0.568956	0.245901
C112	C	0.064822	0.530545	0.158351
H113	H	0.002970	0.725972	0.052063
H114	H	0.086447	0.792816	0.204422
H115	H	0.156191	0.693102	0.327523
H116	H	0.142458	0.526537	0.298266
H117	H	0.058981	0.459693	0.145906
H118	H	-0.217815	0.885720	0.255974
C119	C	0.027650	0.426292	-0.086663
C120	C	-0.014928	0.361850	-0.158010
C121	C	0.034286	0.335400	-0.245103
C122	C	0.126077	0.373392	-0.260849
C123	C	0.168660	0.437837	-0.189499
C124	C	0.119447	0.464288	-0.102406
H125	H	-0.082881	0.333723	-0.146356
H126	H	0.002762	0.287693	-0.297920
H127	H	0.162507	0.353812	-0.325320
H128	H	0.236614	0.465964	-0.201153
H129	H	0.150970	0.511995	-0.049589
C130	C	-0.714267	0.849700	-0.086687
C131	C	-0.767304	0.894355	-0.158021
C132	C	-0.806516	0.846304	-0.245118
C133	C	-0.792691	0.753597	-0.260881
C134	C	-0.739650	0.708937	-0.189546
C135	C	-0.700438	0.756988	-0.102448
H136	H	-0.777541	0.962987	-0.146353
H137	H	-0.845780	0.879366	-0.297925
H138	H	-0.821718	0.718027	-0.325356
H139	H	-0.729413	0.640305	-0.201213
H140	H	-0.661174	0.723926	-0.049641
H141	H	-0.125997	0.416830	-0.158002
C142	C	-0.251998	0.391841	0.090444
C143	C	-0.325991	0.445555	0.087639
C144	C	-0.417177	0.402623	0.088459
C145	C	-0.434369	0.305978	0.092084
C146	C	-0.360374	0.252259	0.094890
C147	C	-0.269188	0.295191	0.094070
H148	H	-0.313267	0.517102	0.084955
H149	H	-0.471953	0.442390	0.086382
H150	H	-0.501870	0.274198	0.092691
H151	H	-0.373099	0.180712	0.097574
H152	H	-0.214412	0.255424	0.096147
C153	C	-0.553530	0.846628	-0.087673
C154	C	-0.573449	0.876803	-0.188397
C155	C	-0.548601	0.827443	-0.276122
C156	C	-0.503834	0.747907	-0.263122
C157	C	-0.483912	0.717728	-0.162394
C158	C	-0.508760	0.767088	-0.074669
H159	H	-0.606590	0.935684	-0.198024
H160	H	-0.563348	0.849784	-0.350687
H161	H	-0.485440	0.711367	-0.328061
H162	H	-0.450771	0.658847	-0.152767
H163	H	-0.494013	0.744747	-0.000104
H164	H	-0.683549	1.002976	-0.157996
C165	C	-0.676387	1.127024	-0.095950
C166	C	-0.604047	1.199178	-0.100302
C167	C	-0.623709	1.291096	-0.105843
C168	C	-0.715710	1.310859	-0.107031
C169	C	-0.788055	1.238703	-0.102679
C170	C	-0.768394	1.146785	-0.097138
H171	H	-0.535937	1.184550	-0.099422
H172	H	-0.570154	1.344511	-0.109064
H173	H	-0.730265	1.378902	-0.111133
H174	H	-0.856165	1.253331	-0.103559
H175	H	-0.821949	1.093370	-0.093917
C176	C	-0.532857	0.990469	-0.181252
C177	C	-0.484368	0.912888	-0.173645
C178	C	-0.457298	0.869365	-0.264547
C179	C	-0.478717	0.903423	-0.363055
C180	C	-0.527208	0.981007	-0.370666
C181	C	-0.554279	1.024530	-0.279764
H182	H	-0.468510	0.887673	-0.100719
H183	H	-0.421401	0.811932	-0.258912
H184	H	-0.458678	0.871204	-0.430346
H185	H	-0.543066	1.006223	-0.443591
H186	H	-0.590175	1.081964	-0.285399
C187	C	-0.694718	0.997718	0.182202
C188	C	-0.764365	0.922992	0.177652
C189	C	-0.802548	0.883727	0.270220
C190	C	-0.771086	0.919188	0.367336
C191	C	-0.701436	0.993919	0.371889
C192	C	-0.663252	1.033183	0.279322
H193	H	-0.787659	0.896737	0.105757
H194	H	-0.854108	0.828407	0.266848
H195	H	-0.799351	0.890122	0.435860
H196	H	-0.678142	1.020173	0.443784
H197	H	-0.611692	1.088504	0.282693
H198	H	-0.703047	0.861974	0.065240
C199	C	0.004909	1.108669	0.549108
C200	C	0.100262	1.107293	0.562824
C201	C	0.162857	1.169928	0.508008
C202	C	0.130098	1.233940	0.439475
C203	C	0.034740	1.235319	0.425756
C204	C	-0.027854	1.172684	0.480572
H205	H	0.124516	1.059905	0.613559
H206	H	0.233447	1.168907	0.518164
H207	H	0.176435	1.280306	0.398897
H208	H	0.010486	1.282706	0.375021
H209	H	-0.098445	1.173705	0.470416
H210	H	-0.527080	1.100391	0.096282
H211	H	-0.528062	1.101385	-0.093703
H212	H	-0.011355	1.092418	0.744155
