data_functionalizedCrystal
_audit_creation_method	'MofGen! by Chris Wilmer'
_symmetry_space_group_name_H-M	'P1'
_symmetry_Int_Tables_number	1
_symmetry_cell_setting	triclinic
loop_
_symmetry_equiv_pos_as_xyz
  x,y,z
_cell_length_a	12.594516
_cell_length_b	14.908795
_cell_length_c	14.908694
_cell_angle_alpha	83.203537
_cell_angle_beta	93.272183
_cell_angle_gamma	93.308798
loop_
_atom_site_label
_atom_site_type_symbol
_atom_site_fract_x
_atom_site_fract_y
_atom_site_fract_z
Zn1	Zn	-0.367929	1.413403	-0.591796
Zn2	Zn	-0.536231	1.404576	-0.440438
Zn3	Zn	-0.367956	1.253299	-0.431700
Zn4	Zn	-0.555559	1.262004	-0.583010
O5	O	-0.456919	1.333321	-0.511736
O6	O	-0.382154	1.538903	-0.579051
O7	O	-0.505831	1.377172	-0.312611
O8	O	-0.219004	1.274588	-0.452958
O9	O	-0.505805	1.532418	-0.467849
O10	O	-0.218984	1.392215	-0.570579
O11	O	-0.382200	1.266030	-0.306192
O12	O	-0.400942	1.127783	-0.444439
O13	O	-0.538747	1.289424	-0.710843
O14	O	-0.538774	1.134178	-0.555605
O15	O	-0.400896	1.400656	-0.717298
O16	O	-0.687743	1.385613	-0.459330
O17	O	-0.701943	1.280866	-0.564077
C18	C	-0.471959	1.098136	-0.498121
C19	C	-0.478421	0.997525	-0.492318
C20	C	-0.551787	0.852337	-0.426152
C21	C	-0.545720	0.946871	-0.431604
C22	C	-0.417181	0.953638	-0.547581
C23	C	-0.423248	0.859105	-0.542129
C24	C	-0.490554	0.808457	-0.481413
C25	C	-0.496626	0.713922	-0.475966
C26	C	-0.368082	0.720691	-0.591938
C27	C	-0.362015	0.815225	-0.597390
C28	C	-0.733463	1.333252	-0.511720
C29	C	-0.851767	1.333307	-0.511748
C30	C	-0.999541	1.276382	-0.568692
C31	C	-0.924770	1.360186	-0.595668
C32	C	-0.924968	1.249514	-0.484812
C33	C	-0.987774	1.417306	-0.538811
C34	C	-0.987980	1.306577	-0.427914
C35	C	-0.913235	1.390435	-0.454862
C36	C	-0.179294	1.333415	-0.511774
C37	C	-0.060987	1.333456	-0.511790
C38	C	-0.471975	1.346996	-0.747832
C39	C	-0.478391	1.352823	-0.848442
C40	C	-0.441820	1.569423	-0.525405
C41	C	-0.435386	1.670036	-0.531230
C42	C	-0.361714	1.248020	-1.030815
C43	C	-0.367739	1.253492	-1.125347
C44	C	-0.496471	1.369235	-1.132039
C45	C	-0.490446	1.363763	-1.037507
C46	C	-0.423064	1.303154	-0.986898
C47	C	-0.417034	1.297687	-0.892365
C48	C	-0.545771	1.413425	-0.899059
C49	C	-0.551796	1.418897	-0.993591
C50	C	-0.441841	1.319751	-0.276562
C51	C	-0.435114	1.314099	-0.175962
H52	H	-0.595581	0.982594	-0.386604
H53	H	-0.896878	1.382862	-0.666582
H54	H	-0.307214	0.856475	-0.646820
H55	H	-0.362164	1.248340	-0.851161
H56	H	-0.362377	0.994891	-0.597007
H57	H	-1.015365	1.488257	-0.561692
H58	H	-0.306839	1.198678	-0.989609
H59	H	-0.595723	1.458322	-0.863292
H60	H	-0.317782	1.208596	-1.161100
H61	H	-0.606660	1.468240	-1.034809
H62	H	-1.037178	1.228246	-0.616873
H63	H	-0.551434	0.672687	-0.426532
H64	H	-0.875787	1.438696	-0.406727
H65	H	-0.606599	0.811100	-0.376723
H66	H	-0.318223	0.684955	-0.636937
H67	H	-1.015898	1.283877	-0.357019
H68	H	-0.551345	1.418567	-1.173260
H69	H	-0.897248	1.178588	-0.462014
