data_functionalizedCrystal
_audit_creation_method	'MofGen! by Chris Wilmer'
_symmetry_space_group_name_H-M	'P1'
_symmetry_Int_Tables_number	1
_symmetry_cell_setting	triclinic
loop_
_symmetry_equiv_pos_as_xyz
  x,y,z
_cell_length_a	14.560438
_cell_length_b	14.628931
_cell_length_c	14.628931
_cell_angle_alpha	60.000000
_cell_angle_beta	90.001459
_cell_angle_gamma	60.000085
loop_
_atom_site_label
_atom_site_type_symbol
_atom_site_fract_x
_atom_site_fract_y
_atom_site_fract_z
Zr1	Zr	0.884766	1.000564	-0.119934
O2	O	0.738117	1.191273	-0.265900
O3	O	0.929722	0.809857	-0.075187
O4	O	0.929722	1.000563	-0.265893
O5	O	0.738118	1.000567	0.075238
O6	O	1.080863	1.000560	-0.265888
O7	O	0.738117	1.000567	-0.075194
O8	O	1.080864	0.659422	0.075250
O9	O	0.738116	1.341705	-0.265900
O10	O	1.061690	0.888295	-0.056100
O11	O	0.948896	0.888297	0.056162
O12	O	0.948895	1.112829	-0.168370
O13	O	0.836100	1.112831	-0.056108
Zr14	Zr	1.125819	1.000559	0.119995
Zr15	Zr	1.125819	1.000559	-0.119926
Zr16	Zr	0.884767	1.000564	0.119988
Zr17	Zr	0.884766	1.240486	-0.119934
Zr18	Zr	1.125820	0.760637	0.119996
O19	O	1.080863	1.191266	0.075249
O20	O	1.080862	1.191266	-0.265889
O21	O	0.738117	1.191273	0.075238
O22	O	1.272468	0.809851	0.265961
O23	O	1.272468	0.809851	-0.075176
O24	O	0.929723	0.809857	0.265950
O25	O	1.272467	1.000557	-0.075176
O26	O	1.080864	1.000560	0.265955
O27	O	0.929723	1.000563	0.265950
O28	O	1.272468	1.000557	0.075255
O29	O	0.929721	1.341701	-0.265894
O30	O	1.080864	0.659422	0.265955
O31	O	1.272469	0.659419	0.265962
O32	O	1.272468	0.659419	0.075256
O33	O	0.738117	1.341705	-0.075195
O34	O	0.929721	1.341701	-0.075188
O35	O	1.061691	0.888295	0.168431
O36	O	1.174485	0.888293	0.056169
O37	O	1.061690	1.112827	-0.056100
O38	O	0.948895	1.112829	0.056162
C39	C	1.005293	0.700456	0.000031
C40	C	1.005293	0.598603	0.000032
C41	C	0.926162	0.631954	-0.078731
C42	C	0.926161	0.526686	-0.078732
C43	C	0.703773	1.000567	0.000021
C44	C	0.601440	1.000569	0.000018
C45	C	0.553356	1.000571	-0.082855
C46	C	0.457211	1.000559	-0.082840
C47	C	0.457238	1.000548	0.082925
C48	C	0.553386	1.000551	0.082913
C49	C	0.601410	1.000589	-0.165750
C50	C	0.553325	1.000593	-0.248630
C51	C	0.457180	1.000581	-0.248615
C52	C	0.409118	1.000565	-0.165720
C53	C	1.306812	1.000556	0.000041
C54	C	1.409145	1.000554	0.000044
C55	C	1.005292	1.000562	-0.300074
C56	C	1.005292	1.000562	-0.401927
C57	C	1.005292	1.300668	0.000030
C58	C	1.005292	1.402521	0.000030
C59	C	1.084422	1.000560	-0.447334
C60	C	1.084424	1.000560	-0.552604
C61	C	1.005293	1.000562	0.300136
C62	C	1.005293	1.000562	0.401989
C63	C	1.306813	0.700450	0.000041
C64	C	1.409146	0.598595	0.000045
C65	C	1.005294	0.700456	0.300137
C66	C	1.005294	0.598603	0.401990
C67	C	1.306814	0.700450	0.300146
C68	C	1.409147	0.598595	0.402003
C69	C	0.703772	1.300673	-0.300085
C70	C	0.601438	1.402528	-0.401941
C71	C	0.703772	1.300673	0.000020
C72	C	0.601439	1.402528	0.000017
C73	C	1.005291	1.300668	-0.300075
C74	C	1.005291	1.402521	-0.401928
C75	C	1.398816	0.553186	-0.055647
C76	C	1.504581	0.447913	-0.055644
C77	C	1.061248	0.553192	0.503092
C78	C	1.061250	0.447922	0.608364
C79	C	1.510724	0.553184	0.391724
C80	C	1.616493	0.447911	0.496997
H81	H	1.073041	0.492116	0.067460
O82	O	0.600118	1.000735	0.163258
C83	C	0.599762	1.112113	0.112514
H84	H	0.595489	1.149236	0.021989
H85	H	0.679967	1.087076	0.160087
H86	H	0.523546	1.190090	0.114434
O87	O	1.513130	0.551801	0.057077
C88	C	1.572236	0.417689	0.139255
H89	H	1.509812	0.391557	0.161059
H90	H	1.625499	0.390073	0.217519
H91	H	1.629191	0.362993	0.105641
O92	O	1.165234	1.000444	-0.400566
C93	C	1.226116	0.889099	-0.289519
H94	H	1.172489	0.851919	-0.256707
H95	H	1.248620	0.914205	-0.234721
H96	H	1.306467	0.811139	-0.287332
H97	H	1.109156	0.408868	0.695096
H98	H	1.311670	0.592251	-0.103333
O99	O	0.845176	0.560649	-0.159093
C100	C	0.738565	0.634455	-0.153860
H101	H	0.748180	0.612335	-0.066473
H102	H	0.682068	0.609022	-0.172695
H103	H	0.699237	0.741687	-0.218178
O104	O	1.494428	0.401230	-0.112509
C105	C	1.602289	0.306496	-0.099829
H106	H	1.665945	0.322298	-0.078237
H107	H	1.601328	0.314193	-0.181362
H108	H	1.626811	0.206395	-0.029639
O109	O	1.720382	0.401560	0.486547
C110	C	1.732792	0.503624	0.427577
H111	H	1.646267	0.599388	0.374669
H112	H	1.783459	0.489103	0.370778
H113	H	1.778684	0.504913	0.489597
O114	O	1.165341	1.000328	-0.599108
C115	C	1.226173	0.888987	-0.598818
H116	H	1.218056	0.811156	-0.531002
H117	H	1.318596	0.851605	-0.581305
H118	H	1.191059	0.914167	-0.683908
O119	O	0.845483	0.759032	-0.159205
C120	C	0.896509	0.819275	-0.219789
H121	H	0.987476	0.761539	-0.166375
H122	H	0.848775	0.921606	-0.242255
H123	H	0.894537	0.823396	-0.299726
H124	H	1.519021	0.441547	0.606726
H125	H	0.937549	1.000556	-0.440983
O126	O	0.948306	0.449071	0.494553
C127	C	1.023950	0.425660	0.435747
H128	H	1.101460	0.413651	0.472400
H129	H	0.981300	0.510709	0.343662
H130	H	1.050257	0.333691	0.443627
H131	H	0.957386	0.559550	0.393368
O132	O	0.315631	1.000734	-0.165685
C133	C	0.227563	1.112113	-0.175935
H134	H	0.264327	1.149233	-0.146102
H135	H	0.175814	1.087075	-0.122673
H136	H	0.171333	1.190091	-0.267316
H137	H	1.109147	0.592254	0.511714
H138	H	1.073038	0.374132	0.067469
O139	O	1.520868	0.599873	0.288170
C140	C	1.413005	0.694605	0.206114
H141	H	1.349351	0.678802	0.243510
H142	H	1.413962	0.686906	0.132280
H143	H	1.388482	0.794707	0.176199
O144	O	1.398947	0.552029	0.505533
C145	C	1.451073	0.575439	0.564341
H146	H	1.516516	0.587449	0.527689
H147	H	1.493878	0.490387	0.656426
H148	H	1.384979	0.667406	0.556464
O149	O	0.600125	1.000658	-0.329092
C150	C	0.695312	1.000635	-0.311322
H151	H	0.688002	1.041344	-0.260451
H152	H	0.700483	1.063063	-0.395471
H153	H	0.774422	0.897485	-0.263677
O154	O	0.694900	1.000411	-0.165561
C155	C	0.782982	0.889026	-0.064441
H156	H	0.746233	0.851898	0.002525
H157	H	0.834744	0.914057	-0.036223
H158	H	0.839196	0.811055	-0.077854
O159	O	0.410586	1.000635	-0.329226
C160	C	0.473639	1.000616	-0.402371
H161	H	0.521727	1.041327	-0.398433
H162	H	0.414488	1.063044	-0.491545
H163	H	0.535686	0.897466	-0.376284
H164	H	0.937539	1.000570	-0.558973
O165	O	0.410561	1.000718	0.163408
C166	C	0.378094	1.112094	0.158125
H167	H	0.429254	1.149217	0.115992
H168	H	0.393970	1.087052	0.246465
H169	H	0.284806	1.190072	0.107648
O170	O	1.616656	0.449102	0.056858
C171	C	1.675900	0.504554	0.013774
H172	H	1.729064	0.461293	-0.029078
H173	H	1.732959	0.483666	0.085101
H174	H	1.613586	0.613539	-0.049537
