data_functionalizedCrystal
_audit_creation_method	'MofGen! by Chris Wilmer'
_symmetry_space_group_name_H-M	'P1'
_symmetry_Int_Tables_number	1
_symmetry_cell_setting	triclinic
loop_
_symmetry_equiv_pos_as_xyz
  x,y,z
_cell_length_a	12.784893
_cell_length_b	14.048226
_cell_length_c	14.971486
_cell_angle_alpha	89.993360
_cell_angle_beta	101.639808
_cell_angle_gamma	90.005968
loop_
_atom_site_label
_atom_site_type_symbol
_atom_site_fract_x
_atom_site_fract_y
_atom_site_fract_z
O1	O	-1.410329	-0.079138	0.005594
O2	O	-1.100922	-0.079145	0.043898
O3	O	-1.263918	-0.079135	-0.106107
O4	O	-1.247332	-0.079149	0.155598
O5	O	-1.263899	0.079186	-0.106113
O6	O	-1.100902	0.079176	0.043891
O7	O	-1.410309	0.079183	0.005587
Zn8	Zn	-1.255602	0.104316	0.024738
Zn9	Zn	-1.255628	-0.104279	0.024747
O10	O	-1.247313	0.079172	0.155592
C11	C	-1.061316	0.000014	0.046386
C12	C	-0.943331	0.000012	0.053799
C13	C	-1.263167	0.000025	-0.139376
C14	C	-1.260944	0.000025	-0.238499
C15	C	-0.764472	0.000007	0.146698
C16	C	-0.875329	0.000006	0.139739
C17	C	-0.900470	0.000015	-0.025188
C18	C	-0.789614	0.000015	-0.018229
C19	C	-0.721618	0.000012	0.067717
C20	C	-0.610760	0.000019	0.074675
C21	C	-0.635904	0.000021	-0.090251
C22	C	-0.746760	0.000021	-0.097210
N23	N	-1.255593	0.246677	0.024731
C24	C	-0.449915	0.000022	0.003100
C25	C	-0.567900	0.000022	-0.004311
N26	N	-1.255647	-0.246639	0.024746
C27	C	-1.327790	0.296500	-0.041668
C28	C	-1.327797	0.396157	-0.041669
C29	C	-1.255611	0.445991	0.024734
C30	C	-1.183406	0.396161	0.091136
C31	C	-1.183395	0.296505	0.091132
C32	C	-1.183437	0.603875	0.091140
C33	C	-1.183449	0.703538	0.091145
C34	C	-1.327839	0.703527	-0.041661
C35	C	-1.327828	0.603872	-0.041665
C36	C	-1.255624	0.554049	0.024739
C37	C	-1.356700	0.000027	-0.303258
C38	C	-1.354605	0.000018	-0.396393
C39	C	-1.256753	0.000012	-0.424766
C40	C	-1.160990	0.000006	-0.359998
C41	C	-1.163086	0.000009	-0.266865
C42	C	-1.156628	0.000003	-0.554117
C43	C	-1.154531	0.000002	-0.647256
C44	C	-1.348147	0.000011	-0.683645
C45	C	-1.350243	0.000014	-0.590512
C46	C	-1.254479	0.000010	-0.525751
C47	C	-1.248064	0.000010	0.188862
C48	C	-1.250287	0.000005	0.287984
H49	H	-0.555399	0.000022	0.144657
H50	H	-1.078646	-0.000003	-0.501390
H51	H	-0.802136	0.000020	-0.167184
Br52	Br	-1.489506	0.000049	-0.264763
H53	H	-1.124603	0.255940	0.145200
H54	H	-0.601001	-0.000050	-0.154563
Br55	Br	-1.484565	0.000021	-0.484279
Br56	Br	-1.483043	0.000019	-0.552006
Br57	Br	-1.425771	0.228879	-0.131785
Br58	Br	-1.425777	0.463777	-0.131785
Br59	Br	-1.425834	0.771147	-0.131775
Br60	Br	-1.478113	0.000015	-0.771534
Br61	Br	-1.021731	-0.000001	-0.685762
Br62	Br	-1.028188	-0.000017	-0.398503
H63	H	-1.085111	0.000007	-0.214137
H64	H	-0.910215	0.000004	0.204053
Br65	Br	-0.672188	0.000025	0.263334
Br66	Br	-0.992766	0.000013	-0.141819
Br67	Br	-1.085478	0.771162	0.181266
Br68	Br	-1.425803	0.536237	-0.131774
Br69	Br	-1.085438	0.536261	0.181257
H70	H	-1.124625	0.436741	0.145200
