data_functionalizedCrystal
_audit_creation_method	'MofGen! by Chris Wilmer'
_symmetry_space_group_name_H-M	'P1'
_symmetry_Int_Tables_number	1
_symmetry_cell_setting	triclinic
loop_
_symmetry_equiv_pos_as_xyz
  x,y,z
_cell_length_a	16.625548
_cell_length_b	19.077068
_cell_length_c	19.076919
_cell_angle_alpha	85.529249
_cell_angle_beta	92.280941
_cell_angle_gamma	87.671886
loop_
_atom_site_label
_atom_site_type_symbol
_atom_site_fract_x
_atom_site_fract_y
_atom_site_fract_z
Zn1	Zn	1.200104	0.296663	-0.409849
Zn2	Zn	1.200004	0.409817	-0.296694
Zn3	Zn	1.070916	0.291950	-0.291979
Zn4	Zn	1.059584	0.414516	-0.414538
O5	O	1.132652	0.353236	-0.353265
O6	O	1.312922	0.311679	-0.394850
O7	O	1.187581	0.390242	-0.197422
O8	O	1.092838	0.193926	-0.303680
O9	O	1.312849	0.394813	-0.311715
O10	O	1.187751	0.197389	-0.390279
O11	O	1.092741	0.303646	-0.193958
O12	O	0.956582	0.308202	-0.308226
O13	O	1.073523	0.402822	-0.512563
O14	O	0.948256	0.398251	-0.398269
O15	O	1.176762	0.316236	-0.509118
O16	O	1.176592	0.509089	-0.316261
O17	O	1.073426	0.512542	-0.402841
C18	C	1.123790	0.536395	-0.360587
C19	C	1.120071	0.614752	-0.363742
C20	C	0.923163	0.353225	-0.353245
C21	C	0.833540	0.353238	-0.353254
C22	C	1.123890	0.360579	-0.537134
C23	C	1.120156	0.363708	-0.615488
C24	C	0.505363	0.353244	-0.353284
C25	C	0.596672	0.353241	-0.353273
C26	C	0.669449	0.353242	-0.353268
C27	C	0.760764	0.353237	-0.353259
C28	C	1.342959	0.353248	-0.353286
C29	C	1.432580	0.353253	-0.353294
C30	C	1.141570	0.169363	-0.345930
C31	C	1.145370	0.091008	-0.342805
C32	C	1.172076	0.649745	-0.320185
C33	C	1.168583	0.723370	-0.323158
C34	C	1.113081	0.762000	-0.369684
C35	C	1.061075	0.727002	-0.413246
C36	C	1.064572	0.653379	-0.410277
C37	C	1.096861	0.982386	-0.383397
C38	C	1.093366	1.056015	-0.386362
C39	C	1.200875	1.052377	-0.296274
C40	C	1.204365	0.978752	-0.293306
C41	C	1.152361	0.943761	-0.336870
N42	N	1.109508	0.837257	-0.372722
N43	N	1.155939	0.868506	-0.333836
C44	C	1.172150	0.320099	-0.650506
C45	C	1.168632	0.323036	-0.724128
C46	C	1.113123	0.369586	-0.762730
C47	C	1.061123	0.413196	-0.727706
C48	C	1.064638	0.410255	-0.654086
C49	C	1.096844	0.383213	-0.983104
C50	C	1.093334	0.386153	-1.056729
C51	C	1.200843	0.295991	-1.053146
C52	C	1.204356	0.293057	-0.979525
C53	C	1.152353	0.336665	-0.944507
N54	N	1.109527	0.372591	-0.837983
N55	N	1.155946	0.333656	-0.869255
C56	C	1.141429	0.345872	-0.170110
C57	C	1.145329	0.342544	-0.091748
H58	H	1.210930	0.751857	-0.287688
O59	O	1.039514	0.431442	-1.094266
C60	C	1.081172	0.478669	-1.138689
H61	H	1.145520	0.482154	-1.116681
H62	H	1.082356	0.459094	-1.193612
C63	C	0.959123	0.547709	-1.169779
C64	C	1.038154	0.551994	-1.142746
H65	H	0.932586	0.592939	-1.172285
H66	H	0.931055	0.515890	-1.139853
H67	H	0.960120	0.531394	-1.215546
H68	H	1.037155	0.568300	-1.096976
H69	H	1.066219	0.583818	-1.172664
H70	H	1.022226	0.624888	-0.445746
H71	H	1.217354	0.282195	-0.619082
O72	O	1.046366	0.948486	-0.425808
C73	C	1.059726	0.969230	-0.496806
H74	H	1.088120	1.022718	-0.500446
H75	H	1.101983	0.928699	-0.518919
C76	C	0.944004	0.908692	-0.535101
C77	C	0.978872	0.974389	-0.539572
H78	H	0.894131	0.911872	-0.561483
H79	H	0.935005	0.894714	-0.487269
H80	H	0.979227	0.874924	-0.553527
H81	H	0.943654	1.008154	-0.521138
H82	H	0.987864	0.988373	-0.587403
H83	H	1.210973	0.287527	-0.752637
O84	O	1.046287	0.425634	-0.949205
C85	C	0.996524	0.467332	-0.999065
H86	H	1.026937	0.471886	-1.051641
H87	H	0.936177	0.441810	-1.005869
C88	C	0.945247	0.535612	-0.908742
C89	C	0.982604	0.541210	-0.973315
H90	H	0.936657	0.581182	-0.892857
H91	H	0.978771	0.507518	-0.875149
H92	H	0.894962	0.514341	-0.914420
H93	H	1.032892	0.562473	-0.967634
H94	H	0.949089	0.569310	-1.006906
O95	O	1.258329	0.247921	-0.941987
C96	C	1.310483	0.286334	-0.900976
H97	H	1.311758	0.342739	-0.925378
H98	H	1.288068	0.286547	-0.845285
C99	C	1.394443	0.182534	-0.868475
C100	C	1.396014	0.251810	-0.898449
H101	H	1.447202	0.161238	-0.866913
H102	H	1.359304	0.156654	-0.896103
H103	H	1.375760	0.182721	-0.822069
H104	H	1.414687	0.251622	-0.944858
H105	H	1.431158	0.277690	-0.870830
O106	O	1.007244	0.764499	-0.458542
C107	C	1.022297	0.749260	-0.528087
H108	H	1.087500	0.729117	-0.530880
H109	H	0.980204	0.707283	-0.544758
C110	C	0.927440	0.841268	-0.574332
C111	C	1.007526	0.816533	-0.577763
H112	H	0.918325	0.882764	-0.604975
H113	H	0.917296	0.851533	-0.527478
H114	H	0.892372	0.806281	-0.588223
H115	H	1.042592	0.851516	-0.563863
H116	H	1.017675	0.806275	-0.624615
H117	H	1.243179	0.260488	-1.081666
O118	O	1.007130	0.458434	-0.765094
C119	C	0.962006	0.496306	-0.718396
H120	H	0.963117	0.465332	-0.664766
H121	H	0.989310	0.549534	-0.712703
C122	C	0.872962	0.545653	-0.813391
C123	C	0.874322	0.507609	-0.747523
H124	H	0.818876	0.552629	-0.831358
H125	H	0.903365	0.520141	-0.844853
H126	H	0.895720	0.590006	-0.808638
H127	H	0.851574	0.463254	-0.752278
H128	H	0.843913	0.533114	-0.716062
O129	O	1.014251	0.452649	-0.619986
C130	C	1.059986	0.496490	-0.579237
H131	H	1.122822	0.471189	-0.567233
H132	H	1.064955	0.549868	-0.609691
C133	C	0.941172	0.537529	-0.524546
C134	C	1.018347	0.506450	-0.509797
H135	H	0.915487	0.543676	-0.481714
H136	H	0.910359	0.507995	-0.552001
H137	H	0.945324	0.582007	-0.549926
H138	H	1.014194	0.461969	-0.484426
H139	H	1.049159	0.535978	-0.482336
H140	H	1.048179	1.087466	-0.424262
O141	O	1.226061	0.612330	-0.274969
C142	C	1.271198	0.659007	-0.237150
H143	H	1.270095	0.712626	-0.268144
H144	H	1.243897	0.664745	-0.183906
C145	C	1.360225	0.563957	-0.187827
C146	C	1.358876	0.629811	-0.225898
H147	H	1.414308	0.545947	-0.180883
H148	H	1.329814	0.532509	-0.213304
H149	H	1.337470	0.568748	-0.143461
H150	H	1.381621	0.625018	-0.270265
H151	H	1.389293	0.661258	-0.200428
H152	H	1.243215	1.080875	-0.260807
O153	O	1.258358	0.941337	-0.248098
C154	C	1.303500	0.988011	-0.210279
H155	H	1.302392	1.041632	-0.241268
H156	H	1.276207	0.993743	-0.157031
C157	C	1.392534	0.892958	-0.160974
C158	C	1.391179	0.958815	-0.199038
H159	H	1.446618	0.874949	-0.154036
H160	H	1.362120	0.861512	-0.186451
H161	H	1.369786	0.897744	-0.116604
H162	H	1.413918	0.954027	-0.243409
H163	H	1.421600	0.990260	-0.173568
