data_functionalizedCrystal
_audit_creation_method	'MofGen! by Chris Wilmer'
_symmetry_space_group_name_H-M	'P1'
_symmetry_Int_Tables_number	1
_symmetry_cell_setting	triclinic
loop_
_symmetry_equiv_pos_as_xyz
  x,y,z
_cell_length_a	17.699083
_cell_length_b	14.044220
_cell_length_c	16.776229
_cell_angle_alpha	89.992645
_cell_angle_beta	89.998886
_cell_angle_gamma	88.235946
loop_
_atom_site_label
_atom_site_type_symbol
_atom_site_fract_x
_atom_site_fract_y
_atom_site_fract_z
O1	O	1.012346	0.119850	-0.066178
O2	O	1.345679	0.453183	0.267156
O3	O	1.679013	0.786517	0.600489
O4	O	0.793043	0.135443	-0.066204
O5	O	1.126377	0.468776	0.267129
O6	O	1.459710	0.802110	0.600463
O7	O	0.899403	-0.010330	-0.066183
O8	O	1.232736	0.323003	0.267150
O9	O	1.566070	0.656336	0.600483
O10	O	0.905986	0.265624	-0.066198
O11	O	1.239320	0.598957	0.267135
O12	O	1.572653	0.932290	0.600468
O13	O	0.899387	-0.010339	0.066393
O14	O	1.232720	0.322994	0.399726
O15	O	1.566054	0.656327	0.733060
O16	O	0.793027	0.135434	0.066372
O17	O	1.126361	0.468767	0.399706
O18	O	1.459694	0.802101	0.733039
O19	O	1.012330	0.119841	0.066399
O20	O	1.345663	0.453175	0.399732
O21	O	1.678997	0.786508	0.733065
Zn22	Zn	0.902676	0.127636	0.087435
Zn23	Zn	1.236009	0.460970	0.420768
Zn24	Zn	1.569343	0.794303	0.754102
Zn25	Zn	0.902697	0.127648	-0.087240
Zn26	Zn	1.236031	0.460981	0.246093
Zn27	Zn	1.569364	0.794315	0.579426
O28	O	0.905970	0.265615	0.066378
O29	O	1.239304	0.598948	0.399711
O30	O	1.572637	0.932281	0.733045
C31	C	0.764800	0.134880	0.000081
C32	C	1.098133	0.468213	0.333414
C33	C	1.431466	0.801546	0.666748
C34	C	0.680666	0.133204	0.000071
C35	C	1.013999	0.466537	0.333404
C36	C	1.347333	0.799870	0.666738
C37	C	0.896513	-0.045643	0.000105
C38	C	1.229846	0.287691	0.333438
C39	C	1.563180	0.621024	0.666771
C40	C	0.887917	-0.150849	0.000105
C41	C	1.221250	0.182485	0.333438
C42	C	1.554584	0.515818	0.666771
C43	C	0.637948	0.218769	0.000067
C44	C	0.971281	0.552103	0.333400
C45	C	1.304614	0.885436	0.666733
C46	C	0.558895	0.217189	0.000077
C47	C	0.892229	0.550522	0.333410
C48	C	1.225562	0.883856	0.666744
C49	C	0.522563	0.130041	0.000086
C50	C	0.855896	0.463375	0.333419
C51	C	1.189229	0.796708	0.666753
C52	C	0.565287	0.044469	0.000093
C53	C	0.898620	0.377802	0.333426
C54	C	1.231954	0.711136	0.666760
C55	C	0.644338	0.046050	0.000088
C56	C	0.977671	0.379384	0.333422
C57	C	1.311005	0.712717	0.666755
C58	C	0.246484	0.038089	0.000113
C59	C	0.579817	0.371422	0.333446
C60	C	0.913150	0.704755	0.666780
C61	C	0.167427	0.036514	0.000115
C62	C	0.500760	0.369847	0.333449
C63	C	0.834094	0.703180	0.666782
C64	C	0.161041	0.209227	0.000102
C65	C	0.494374	0.542560	0.333435
C66	C	0.827708	0.875894	0.666768
C67	C	0.240092	0.210809	0.000097
C68	C	0.573425	0.544142	0.333430
C69	C	0.906759	0.877475	0.666764
C70	C	0.282809	0.125237	0.000108
C71	C	0.616143	0.458570	0.333441
C72	C	0.949476	0.791903	0.666775
C73	C	0.368527	0.126952	0.000098
C74	C	0.701860	0.460285	0.333432
C75	C	1.035193	0.793618	0.666765
C76	C	0.436847	0.128325	0.000090
C77	C	0.770180	0.461659	0.333424
C78	C	1.103513	0.794992	0.666757
C79	C	0.872202	-0.343474	0.000091
C80	C	1.205535	-0.010141	0.333425
C81	C	1.538869	0.323193	0.666758
C82	C	0.933168	-0.401248	0.000096
C83	C	1.266501	-0.067914	0.333430
C84	C	1.599835	0.265419	0.666763
C85	C	0.924424	-0.508431	0.000089
C86	C	1.257757	-0.175097	0.333422
C87	C	1.591090	0.158236	0.666756
C88	C	0.880945	-0.236281	0.000099
C89	C	1.214278	0.097053	0.333432
C90	C	1.547612	0.430386	0.666765
C91	C	1.040574	0.120404	0.000112
C92	C	1.373907	0.453738	0.333445
C93	C	1.707240	0.787071	0.666779
C94	C	1.124707	0.122081	0.000117
C95	C	1.458041	0.455414	0.333450
C96	C	1.791374	0.788747	0.666783
C97	C	0.908860	0.300927	0.000088
C98	C	1.242193	0.634260	0.333421
C99	C	1.575527	0.967594	0.666755
C100	C	0.917456	0.406133	0.000083
C101	C	1.250789	0.739466	0.333416
C102	C	1.584123	1.072800	0.666750
N103	N	0.902667	0.127628	0.206646
N104	N	1.236000	0.460961	0.539980
N105	N	1.569334	0.794294	0.873313
N106	N	0.902712	0.127649	-0.206452
N107	N	1.236045	0.460982	0.126882
N108	N	1.569378	0.794316	0.460215
C109	C	0.949781	0.063106	0.248372
C110	C	1.283114	0.396439	0.581706
C111	C	1.616447	0.729772	0.915039
C112	C	0.949785	0.063105	0.331825
C113	C	1.283118	0.396438	0.665158
C114	C	1.616451	0.729771	0.998491
C115	C	0.902679	0.127631	0.373549
C116	C	1.236012	0.460965	0.706882
C117	C	1.569345	0.794298	1.040216
C118	C	0.855560	0.192156	0.331817
C119	C	1.188893	0.525490	0.665150
C120	C	1.522227	0.858823	0.998484
C121	C	0.855552	0.192152	0.248366
C122	C	1.188886	0.525485	0.581700
C123	C	1.522219	0.858819	0.915033
C124	C	0.855589	0.192175	0.668364
C125	C	1.188922	0.525508	1.001698
C126	C	1.522255	0.858842	1.335031
C127	C	0.855601	0.192176	0.751821
C128	C	1.188935	0.525510	1.085154
C129	C	1.522268	0.858843	1.418487
C130	C	0.949821	0.063128	0.751822
C131	C	1.283154	0.396461	1.085156
C132	C	1.616488	0.729794	1.418489
C133	C	0.949813	0.063123	0.668372
C134	C	1.283147	0.396457	1.001705
C135	C	1.616480	0.729790	1.335038
C136	C	0.902692	0.127645	0.626647
C137	C	1.236025	0.460978	0.959980
C138	C	1.569359	0.794311	1.293314
C139	C	0.902687	0.127644	0.536159
C140	C	1.236020	0.460977	0.869492
C141	C	1.569354	0.794310	1.202825
C142	C	0.902687	0.127638	0.464036
C143	C	1.236021	0.460971	0.797369
C144	C	1.569354	0.794304	1.130703
H145	H	0.667523	0.289735	0.000059
H146	H	1.000857	0.623068	0.333392
H147	H	1.334190	0.956402	0.666725
H148	H	0.679119	-0.023626	0.000091
H149	H	1.012452	0.309707	0.333425
H150	H	1.345785	0.643040	0.666758
H151	H	0.991930	-0.370212	0.000050
H152	H	1.325263	-0.036878	0.333383
H153	H	1.658596	0.296455	0.666716
H154	H	0.817187	0.244691	0.214394
H155	H	1.150520	0.578024	0.547727
H156	H	1.483854	0.911358	0.881060
N157	N	0.794369	-0.384574	0.000081
N158	N	1.127702	-0.051241	0.333414
N159	N	1.461035	0.282093	0.666748
H160	H	0.799077	-0.456427	0.000080
H161	H	1.132411	-0.123094	0.333413
H162	H	1.465744	0.210240	0.666746
H163	H	0.765980	-0.362361	0.049229
H164	H	1.099314	-0.029027	0.382563
H165	H	1.432647	0.304306	0.715896
H166	H	0.126251	0.278904	0.000097
H167	H	0.459584	0.612237	0.333430
H168	H	0.792918	0.945571	0.666764
H169	H	0.817222	0.244712	0.634398
H170	H	1.150556	0.578045	0.967732
H171	H	1.483889	0.911379	1.301065
N172	N	0.512819	0.309477	0.000162
N173	N	0.846153	0.642811	0.333496
N174	N	1.179486	0.976144	0.666829
H175	H	0.547831	0.364924	0.000180
H176	H	0.881164	0.698257	0.333514
H177	H	1.214498	1.031591	0.666847
H178	H	0.479841	0.312657	-0.048953
H179	H	0.813174	0.645990	0.284380
H180	H	1.146508	0.979324	0.617714
H181	H	0.988143	0.010565	0.214406
H182	H	1.321476	0.343898	0.547739
H183	H	1.654810	0.677231	0.881072
H184	H	0.269670	0.281773	0.000086
H185	H	0.603003	0.615106	0.333419
H186	H	0.936336	0.948440	0.666753
N187	N	0.804754	0.261760	0.376812
N188	N	1.138087	0.595094	0.710145
N189	N	1.471420	0.928427	1.043478
H190	H	0.750307	0.250927	0.362298
H191	H	1.083641	0.584261	0.695632
H192	H	1.416974	0.917594	1.028965
H193	H	0.811971	0.251945	0.435995
H194	H	1.145304	0.585278	0.769329
H195	H	1.478637	0.918611	1.102662
H196	H	0.988148	0.010565	0.365798
H197	H	1.321481	0.343899	0.699131
H198	H	1.654814	0.677232	1.032464
H199	H	0.535699	-0.026488	0.000112
H200	H	0.869032	0.306845	0.333445
H201	H	1.202366	0.640178	0.666778
H202	H	0.281255	-0.031590	0.000123
H203	H	0.614588	0.301744	0.333456
H204	H	0.947922	0.635077	0.666789
N205	N	0.128237	-0.057485	0.000126
N206	N	0.461571	0.275848	0.333459
N207	N	0.794904	0.609182	0.666793
H208	H	0.167293	-0.111456	0.000135
H209	H	0.500626	0.221878	0.333468
H210	H	0.833960	0.555211	0.666801
H211	H	0.095577	-0.061897	0.049275
H212	H	0.428910	0.271437	0.382608
H213	H	0.762244	0.604770	0.715942
N214	N	1.000624	-0.006468	0.623369
N215	N	1.333957	0.326865	0.956702
N216	N	1.667290	0.660198	1.290035
H217	H	1.030470	-0.047346	0.662466
H218	H	1.363804	0.285988	0.995799
H219	H	1.697137	0.619321	1.329133
H220	H	0.968821	-0.048322	0.588755
H221	H	1.302154	0.285011	0.922088
H222	H	1.635488	0.618345	1.255421
N223	N	1.000646	-0.006468	0.796825
N224	N	1.333979	0.326866	1.130159
N225	N	1.667312	0.660199	1.463492
H226	H	0.993504	0.003320	0.856022
H227	H	1.326837	0.336654	1.189356
H228	H	1.660170	0.669987	1.522689
H229	H	0.987371	-0.073689	0.782247
H230	H	1.320704	0.259644	1.115581
H231	H	1.654037	0.592977	1.448914
H232	H	0.817239	0.244723	0.785791
H233	H	1.150573	0.578057	1.119125
H234	H	1.483906	0.911390	1.452458
