data_functionalizedCrystal
_audit_creation_method	'MofGen! by Chris Wilmer'
_symmetry_space_group_name_H-M	'P1'
_symmetry_Int_Tables_number	1
_symmetry_cell_setting	triclinic
loop_
_symmetry_equiv_pos_as_xyz
  x,y,z
_cell_length_a	12.594517
_cell_length_b	12.827892
_cell_length_c	12.594509
_cell_angle_alpha	90.027931
_cell_angle_beta	89.978673
_cell_angle_gamma	89.984808
loop_
_atom_site_label
_atom_site_type_symbol
_atom_site_fract_x
_atom_site_fract_y
_atom_site_fract_z
Zn1	Zn	1.627272	0.416007	-0.601862
Zn2	Zn	2.127272	0.916007	-0.101862
Zn3	Zn	1.627165	0.590779	-0.423885
Zn4	Zn	2.127165	1.090779	0.076115
Zn5	Zn	1.449276	0.416052	-0.423891
Zn6	Zn	1.949276	0.916052	0.076109
Zn7	Zn	1.449260	0.590706	-0.601815
Zn8	Zn	1.949260	1.090706	-0.101815
O9	O	1.538243	0.503386	-0.512863
O10	O	2.038243	1.003386	-0.012863
O11	O	1.776203	0.439203	-0.578270
O12	O	2.276203	0.939203	-0.078270
O13	O	1.603529	0.567650	-0.274940
O14	O	2.103529	1.067650	0.225060
O15	O	1.472939	0.269810	-0.447522
O16	O	1.972939	0.769810	0.052478
O17	O	1.776125	0.567607	-0.447511
O18	O	2.276125	1.067607	0.052489
O19	O	1.603712	0.269777	-0.578277
O20	O	2.103712	0.769777	-0.078277
O21	O	1.472835	0.439279	-0.274944
O22	O	1.972835	0.939279	0.225056
O23	O	1.300328	0.439208	-0.447476
O24	O	1.800328	0.939208	0.052524
O25	O	1.472912	0.567483	-0.750767
O26	O	1.972912	1.067483	-0.250767
O27	O	1.300316	0.567526	-0.578196
O28	O	1.800316	1.067526	-0.078196
O29	O	1.603696	0.439132	-0.750802
O30	O	2.103696	0.939132	-0.250802
O31	O	1.603514	0.737005	-0.447465
O32	O	2.103514	1.237005	0.052535
O33	O	1.472808	0.736952	-0.578189
O34	O	1.972808	1.236952	-0.078189
C35	C	1.538177	0.774896	-0.512844
C36	C	2.038177	1.274896	-0.012844
C37	C	1.538245	0.891049	-0.512872
C38	C	2.038245	1.391049	-0.012872
C39	C	1.261702	0.503365	-0.512832
C40	C	1.761702	1.003365	-0.012832
C41	C	1.143397	0.503381	-0.512844
C42	C	1.643397	1.003381	-0.012844
C43	C	1.538314	0.503294	-0.790484
C44	C	2.038314	1.003294	-0.290484
C45	C	1.538345	0.503255	-0.908790
C46	C	2.038345	1.003255	-0.408790
C47	C	1.074119	0.433494	-0.441881
C48	C	1.574119	0.933494	0.058119
C49	C	1.003309	0.528816	-0.415701
C50	C	1.503309	1.028816	0.084299
C51	C	1.003408	0.408106	-0.539041
C52	C	1.503408	0.908106	-0.039041
C53	C	1.074145	0.598754	-0.486613
C54	C	1.574145	1.098754	0.013387
C55	C	1.074250	0.477979	-0.609999
C56	C	1.574250	0.977979	-0.109999
C57	C	1.003472	0.573367	-0.583856
C58	C	1.503472	1.073367	-0.083856
C59	C	1.815864	0.503408	-0.512895
C60	C	2.315864	1.003408	-0.012895
C61	C	1.934169	0.503417	-0.512909
C62	C	2.434169	1.003417	-0.012909
C63	C	1.538339	0.230816	-0.512905
C64	C	2.038339	0.730816	-0.012905
C65	C	1.538380	0.114663	-0.512923
C66	C	2.038380	0.614663	-0.012923
C67	C	1.603000	0.942826	-0.448257
C68	C	2.103000	1.442826	0.051743
C69	C	1.603072	1.062876	-0.448284
C70	C	2.103072	1.562876	0.051716
C71	C	1.467233	0.573026	-0.978024
C72	C	1.967233	1.073026	-0.478024
C73	C	1.564354	0.598559	-1.048815
C74	C	2.064354	1.098559	-0.548815
C75	C	1.441300	0.477659	-1.048798
C76	C	1.941300	0.977659	-0.548798
C77	C	1.635516	0.528839	-0.978022
C78	C	2.135516	1.028839	-0.478022
C79	C	1.512396	0.407895	-0.978000
C80	C	2.012396	0.907895	-0.478000
C81	C	1.609584	0.433392	-1.048758
C82	C	2.109584	0.933392	-0.548758
C83	C	1.538233	0.503402	-0.236322
C84	C	2.038233	1.003402	0.263678
C85	C	1.538409	0.503146	-0.118017
C86	C	2.038409	1.003146	0.381983
H87	H	1.105139	0.374450	-0.381796
H88	H	1.605139	0.874450	0.118204
Cl89	Cl	1.452773	1.045930	-0.598333
Cl90	Cl	1.952773	1.545930	-0.098333
H91	H	1.658389	0.898279	-0.392921
H92	H	2.158389	1.398279	0.107079
H93	H	1.105434	0.456441	-0.692108
H94	H	1.605434	0.956441	-0.192108
Cl95	Cl	0.955199	0.562024	-0.288895
Cl96	Cl	1.455199	1.062024	0.211105
Cl97	Cl	0.955426	0.283686	-0.573208
Cl98	Cl	1.455426	0.783686	-0.073208
Cl99	Cl	1.478413	0.283492	-0.929934
Cl100	Cl	1.978413	0.783492	-0.429934
H101	H	1.658508	1.107402	-0.392962
H102	H	2.158508	1.607402	0.107038
Cl103	Cl	1.452737	0.959820	-0.598322
Cl104	Cl	1.952737	1.459820	-0.098322
H105	H	1.407144	0.632120	-0.946967
H106	H	1.907144	1.132120	-0.446967
Cl107	Cl	1.121911	0.723213	-0.452297
Cl108	Cl	1.621911	1.223213	0.047703
Cl109	Cl	1.598295	0.722994	-1.096842
Cl110	Cl	2.098295	1.222994	-0.596842
Cl111	Cl	1.762303	0.562348	-0.930231
Cl112	Cl	2.262303	1.062348	-0.430231
H113	H	0.972647	0.632552	-0.643895
H114	H	1.472647	1.132552	-0.143895
H115	H	1.669818	0.374343	-1.079620
H116	H	2.169818	0.874343	-0.579620
H117	H	1.359203	0.456055	-1.079888
H118	H	1.859203	0.956055	-0.579888
