data_functionalizedCrystal
_audit_creation_method	'MofGen! by Chris Wilmer'
_symmetry_space_group_name_H-M	'P1'
_symmetry_Int_Tables_number	1
_symmetry_cell_setting	triclinic
loop_
_symmetry_equiv_pos_as_xyz
  x,y,z
_cell_length_a	12.811457
_cell_length_b	14.044190
_cell_length_c	12.503584
_cell_angle_alpha	93.840024
_cell_angle_beta	91.883523
_cell_angle_gamma	88.597539
loop_
_atom_site_label
_atom_site_type_symbol
_atom_site_fract_x
_atom_site_fract_y
_atom_site_fract_z
O1	O	1.401690	0.130596	0.047204
O2	O	1.099238	0.142684	0.017739
O3	O	1.245919	-0.001389	0.032050
O4	O	1.255009	0.274668	0.032893
O5	O	1.234889	0.009466	0.209616
O6	O	1.088208	0.153539	0.195305
O7	O	1.390660	0.141451	0.224770
Cu8	Cu	1.238427	0.148486	0.226250
Cu9	Cu	1.251471	0.135649	0.016258
O10	O	1.243979	0.285523	0.210459
C11	C	1.054782	0.147101	0.102729
C12	C	0.938749	0.144080	0.091425
C13	C	0.708682	0.150222	0.263789
C14	C	0.599658	0.147383	0.253175
C15	C	0.611675	0.135559	0.059582
C16	C	0.720699	0.138397	0.070197
C17	C	0.769198	0.145730	0.172304
C18	C	0.878224	0.148575	0.182918
C19	C	0.890239	0.136744	-0.010674
C20	C	0.781215	0.133906	-0.021289
C21	C	1.236429	-0.031315	0.120449
C22	C	1.224570	-0.136658	0.119303
C23	C	1.286994	-0.386328	0.125342
C24	C	1.202910	-0.329533	0.117158
C25	C	1.214964	-0.222207	0.118352
C26	C	1.274941	-0.493663	0.124149
C27	C	1.435116	0.137033	0.139778
C28	C	1.551150	0.140053	0.151074
C29	C	1.253470	0.315449	0.122058
C30	C	1.265329	0.420792	0.123197
N31	N	1.229260	0.157514	0.373948
C32	C	1.215775	0.170804	0.591748
C33	C	1.274125	0.113336	0.650768
C34	C	1.266622	0.120730	0.771959
C35	C	1.223277	0.163411	0.470546
N36	N	1.260643	0.126622	0.868561
H37	H	0.748171	0.156205	0.346929
H38	H	1.368027	-0.354350	0.133247
C39	C	0.598736	0.159364	0.445597
C40	C	0.533137	0.152327	0.353738
H41	H	0.557666	0.162421	0.507682
H42	H	0.644319	0.105015	0.445990
H43	H	0.638699	0.215440	0.445422
H44	H	0.493179	0.096247	0.353908
H45	H	0.487536	0.206681	0.353345
C46	C	0.449878	0.125945	-0.042637
C47	C	0.558351	0.127492	-0.052647
H48	H	0.416960	0.120970	-0.111924
H49	H	0.432372	0.072701	-0.004328
H50	H	0.426737	0.183126	-0.004884
H51	H	0.581494	0.070308	-0.090393
H52	H	0.575866	0.180742	-0.090972
H53	H	0.939523	0.133092	-0.085169
C54	C	1.068023	0.197700	0.704005
C55	C	1.140743	0.244720	0.646404
H56	H	1.021710	0.243336	0.737762
H57	H	1.029384	0.155278	0.656379
H58	H	1.103662	0.162611	0.756951
H59	H	1.105105	0.279804	0.593452
H60	H	1.179387	0.287158	0.694034
H61	H	1.121870	-0.361512	0.109257
H62	H	1.329715	0.058584	0.610279
H63	H	0.741712	0.127931	-0.104422
C64	C	0.998013	0.077235	0.307568
C65	C	0.931543	0.156631	0.295149
H66	H	1.030931	0.082212	0.376855
H67	H	0.958544	0.020681	0.299683
H68	H	1.049655	0.074979	0.254596
H69	H	0.879895	0.158884	0.348117
H70	H	0.971014	0.213201	0.303045
