data_functionalizedCrystal
_audit_creation_method	'MofGen! by Chris Wilmer'
_symmetry_space_group_name_H-M	'P1'
_symmetry_Int_Tables_number	1
_symmetry_cell_setting	triclinic
loop_
_symmetry_equiv_pos_as_xyz
  x,y,z
_cell_length_a	11.792254
_cell_length_b	11.792241
_cell_length_c	10.268362
_cell_angle_alpha	89.994572
_cell_angle_beta	90.004525
_cell_angle_gamma	95.803993
loop_
_atom_site_label
_atom_site_type_symbol
_atom_site_fract_x
_atom_site_fract_y
_atom_site_fract_z
O1	O	-1.506900	0.155637	-0.108300
O2	O	-1.173567	0.488971	0.225034
O3	O	-0.840234	0.822304	0.558367
O4	O	-1.176561	0.171655	-0.108303
O5	O	-0.843228	0.504988	0.225031
O6	O	-0.509894	0.838322	0.558364
O7	O	-1.349747	-0.001524	-0.108292
O8	O	-1.016414	0.331809	0.225041
O9	O	-0.683080	0.665143	0.558375
O10	O	-1.333714	0.328816	-0.108310
O11	O	-1.000381	0.662150	0.225023
O12	O	-0.667048	0.995483	0.558356
O13	O	-1.349732	-0.001531	0.108309
O14	O	-1.016399	0.331802	0.441642
O15	O	-0.683065	0.665135	0.774975
O16	O	-1.176546	0.171648	0.108298
O17	O	-0.843213	0.504981	0.441631
O18	O	-0.509879	0.838315	0.774965
O19	O	-1.506885	0.155630	0.108301
O20	O	-1.173552	0.488963	0.441634
O21	O	-0.840218	0.822297	0.774968
Cu22	Cu	-1.341714	0.163638	0.128077
Cu23	Cu	-1.008381	0.496972	0.461410
Cu24	Cu	-0.675047	0.830305	0.794744
Cu25	Cu	-1.341732	0.163647	-0.128079
Cu26	Cu	-1.008399	0.496980	0.205255
Cu27	Cu	-0.675065	0.830313	0.538588
O28	O	-1.333699	0.328809	0.108290
O29	O	-1.000366	0.662142	0.441624
O30	O	-0.667032	0.995476	0.774957
C31	C	-1.134263	0.170642	-0.000003
C32	C	-0.800929	0.503976	0.333331
C33	C	-0.467596	0.837309	0.666664
C34	C	-1.008250	0.167622	-0.000003
C35	C	-0.674916	0.500956	0.333330
C36	C	-0.341583	0.834289	0.666663
C37	C	-1.348732	-0.043819	0.000008
C38	C	-1.015399	0.289515	0.333341
C39	C	-0.682066	0.622848	0.666675
C40	C	-1.345718	-0.169832	0.000007
C41	C	-1.012385	0.163501	0.333340
C42	C	-0.679051	0.496834	0.666673
C43	C	-1.340175	-0.400545	-0.000015
C44	C	-1.006842	-0.067212	0.333318
C45	C	-0.673508	0.266122	0.666652
C46	C	-1.343255	-0.272160	-0.000003
C47	C	-1.009921	0.061174	0.333330
C48	C	-0.676588	0.394507	0.666663
C49	C	-1.549183	0.156643	-0.000002
C50	C	-1.215850	0.489976	0.333331
C51	C	-0.882517	0.823309	0.666665
C52	C	-1.675196	0.159663	-0.000010
C53	C	-1.341863	0.492996	0.333324
C54	C	-1.008530	0.826329	0.666657
C55	C	-0.905913	0.165168	-0.000009
C56	C	-0.572580	0.498502	0.333324
C57	C	-0.239247	0.831835	0.666658
C58	C	-0.777527	0.162100	-0.000010
C59	C	-0.444193	0.495433	0.333324
C60	C	-0.110860	0.828767	0.666657
C61	C	-1.334714	0.371104	-0.000012
C62	C	-1.001380	0.704437	0.333321
C63	C	-0.668047	1.037770	0.666654
C64	C	-1.337728	0.497118	-0.000020
C65	C	-1.004395	0.830451	0.333314
C66	C	-0.671061	1.163784	0.666647
N67	N	-1.341710	0.163632	0.308243
N68	N	-1.008376	0.496965	0.641576
N69	N	-0.675043	0.830298	0.974909
N70	N	-1.341745	0.163645	-0.308244
N71	N	-1.008412	0.496978	0.025089
N72	N	-0.675079	0.830311	0.358422
C73	C	-1.341726	0.163644	0.573913
C74	C	-1.008393	0.496978	0.907247
C75	C	-0.675060	0.830311	1.240580
C76	C	-1.341713	0.163641	0.426075
C77	C	-1.008380	0.496974	0.759409
C78	C	-0.675047	0.830307	1.092742
