data_functionalizedCrystal
_audit_creation_method	'MofGen! by Chris Wilmer'
_symmetry_space_group_name_H-M	'P1'
_symmetry_Int_Tables_number	1
_symmetry_cell_setting	triclinic
loop_
_symmetry_equiv_pos_as_xyz
  x,y,z
_cell_length_a	17.699083
_cell_length_b	17.038272
_cell_length_c	16.176319
_cell_angle_alpha	89.993159
_cell_angle_beta	89.998611
_cell_angle_gamma	87.197286
loop_
_atom_site_label
_atom_site_type_symbol
_atom_site_fract_x
_atom_site_fract_y
_atom_site_fract_z
O1	O	1.010620	0.098861	-0.068631
O2	O	0.791093	0.111723	-0.068658
O3	O	0.899552	-0.008521	-0.068638
O4	O	0.902161	0.219105	-0.068651
O5	O	0.899535	-0.008529	0.068855
O6	O	0.791077	0.111715	0.068835
O7	O	1.010604	0.098853	0.068862
Cu8	Cu	0.900839	0.105284	0.081403
Cu9	Cu	0.900858	0.105293	-0.081199
O10	O	0.902145	0.219098	0.068842
C11	C	0.762857	0.111258	0.000085
C12	C	0.678748	0.109876	0.000075
C13	C	0.634797	0.180457	0.000071
C14	C	0.555767	0.179153	0.000082
C15	C	0.520690	0.107267	0.000091
C16	C	0.564647	0.036681	0.000097
C17	C	0.643675	0.037986	0.000092
C18	C	0.245935	0.031418	0.000118
C19	C	0.166901	0.030119	0.000120
C20	C	0.158028	0.172585	0.000108
C21	C	0.237056	0.173890	0.000103
C22	C	0.281006	0.103304	0.000113
C23	C	0.366699	0.104719	0.000103
C24	C	0.434999	0.105852	0.000095
C25	C	0.897170	-0.037649	0.000108
C26	C	0.890090	-0.124431	0.000107
C27	C	0.955100	-0.174651	0.000116
C28	C	0.948442	-0.256191	0.000107
C29	C	0.876773	-0.287509	0.000096
C30	C	0.811758	-0.237282	0.000084
C31	C	0.818417	-0.155744	0.000087
C32	C	0.853251	-0.533228	0.000081
C33	C	0.846597	-0.614773	0.000081
C34	C	0.983282	-0.633676	0.000103
C35	C	0.989934	-0.552135	0.000110
C36	C	0.924919	-0.501916	0.000095
C37	C	0.869967	-0.370855	0.000089
C38	C	0.931726	-0.418571	0.000095
C39	C	1.038840	0.099318	0.000117
C40	C	1.122949	0.100701	0.000122
C41	C	0.904526	0.248226	0.000094
C42	C	0.911607	0.335007	0.000090
N43	N	0.900830	0.105277	0.195768
N44	N	0.900872	0.105293	-0.195564
C45	C	0.948873	0.052054	0.239041
C46	C	0.948877	0.052054	0.325588
C47	C	0.900841	0.105280	0.368861
C48	C	0.852793	0.158505	0.325582
C49	C	0.852786	0.158501	0.239036
C50	C	0.852820	0.158519	0.674610
C51	C	0.852833	0.158520	0.761162
C52	C	0.948911	0.052072	0.761162
C53	C	0.948904	0.052068	0.674617
C54	C	0.900853	0.105290	0.631345
C55	C	0.900849	0.105289	0.537501
C56	C	0.900849	0.105285	0.462703
H57	H	0.281710	-0.026057	0.000127
N58	N	1.000722	-0.005332	0.372250
H59	H	0.988461	-0.060814	0.357201
H60	H	1.054978	0.003702	0.357141
H61	H	0.536080	-0.021849	0.000116
H62	H	0.811613	-0.396363	0.000082
N63	N	0.783130	-0.479070	0.000070
H64	H	0.752101	-0.489128	-0.050903
H65	H	0.752147	-0.489161	0.051069
H66	H	0.813678	0.201840	0.360819
N67	N	1.000734	-0.005336	0.807838
H68	H	0.988454	-0.060811	0.792785
H69	H	1.054999	0.003675	0.792747
H70	H	0.788233	-0.640268	0.000085
N71	N	0.691083	-0.038140	0.000102
H72	H	0.656871	-0.083878	0.000108
H73	H	0.724067	-0.040703	-0.050868
N74	N	0.800965	0.215901	0.192359
H75	H	0.770536	0.249621	0.232903
H76	H	0.832154	0.250424	0.156438
N77	N	1.032400	-0.140875	0.000136
H78	H	1.072573	-0.185065	0.000139
H79	H	1.038148	-0.107449	-0.050832
N80	N	0.734457	-0.271056	0.000066
H81	H	0.740102	-0.330331	0.000069
H82	H	0.705771	-0.252680	0.051033
H83	H	0.988021	0.008729	0.639387
N84	N	1.018560	-0.310357	0.000122
H85	H	1.064972	-0.278145	0.000137
H86	H	1.018761	-0.344605	0.051092
H87	H	0.987992	0.008715	0.203814
N88	N	0.129068	-0.047419	0.000146
H89	H	0.072335	-0.037532	0.000146
H90	H	0.144817	-0.078306	-0.050817
N91	N	0.110625	0.248721	0.000099
H92	H	0.055238	0.236991	0.000106
H93	H	0.122505	0.280056	0.051063
N94	N	0.801016	0.215926	0.807837
H95	H	0.770572	0.249639	0.767293
H96	H	0.765646	0.186031	0.843755
N97	N	1.067234	-0.518358	0.000128
H98	H	1.107409	-0.562546	0.000132
H99	H	1.072982	-0.484930	-0.050839
N100	N	0.800993	0.215916	0.627945
H101	H	0.770566	0.249634	0.668493
H102	H	0.832177	0.250441	0.592021
N103	N	1.053398	-0.687845	0.000118
H104	H	1.053689	-0.722091	-0.050851
H105	H	1.099772	-0.655580	0.000158
N106	N	0.748299	-0.101574	0.000073
H107	H	0.701886	-0.133785	0.000066
H108	H	0.748076	-0.067335	0.051042
H109	H	0.519986	0.236627	0.000078
N110	N	0.672628	0.257991	0.000052
H111	H	0.632790	0.302505	0.000052
H112	H	0.705227	0.261636	0.051019
N113	N	1.009023	-0.384794	0.000117
H114	H	1.049202	-0.428978	0.000126
H115	H	1.014771	-0.351368	-0.050851
H116	H	0.265612	0.232426	0.000092
