data_functionalizedCrystal
_audit_creation_method	'MofGen! by Chris Wilmer'
_symmetry_space_group_name_H-M	'P1'
_symmetry_Int_Tables_number	1
_symmetry_cell_setting	triclinic
loop_
_symmetry_equiv_pos_as_xyz
  x,y,z
_cell_length_a	16.109301
_cell_length_b	15.944551
_cell_length_c	14.586319
_cell_angle_alpha	89.995256
_cell_angle_beta	89.999213
_cell_angle_gamma	83.480109
loop_
_atom_site_label
_atom_site_type_symbol
_atom_site_fract_x
_atom_site_fract_y
_atom_site_fract_z
O1	O	1.103166	0.107966	-0.076184
O2	O	1.436499	0.441300	0.257149
O3	O	1.769832	0.774633	0.590482
O4	O	0.861108	0.121403	-0.076199
O5	O	1.194441	0.454736	0.257134
O6	O	1.527775	0.788069	0.590468
O7	O	0.988747	-0.007593	-0.076183
O8	O	1.322080	0.325741	0.257150
O9	O	1.655414	0.659074	0.590484
O10	O	0.975527	0.236961	-0.076200
O11	O	1.308860	0.570295	0.257133
O12	O	1.642194	0.903628	0.590466
O13	O	0.988738	-0.007595	0.076298
O14	O	1.322071	0.325739	0.409631
O15	O	1.655405	0.659072	0.742964
O16	O	0.861099	0.121401	0.076282
O17	O	1.194433	0.454734	0.409615
O18	O	1.527766	0.788067	0.742948
O19	O	1.103157	0.107964	0.076296
O20	O	1.436490	0.441298	0.409630
O21	O	1.769824	0.774631	0.742963
Cu22	Cu	0.982127	0.114682	0.090212
Cu23	Cu	1.315461	0.448016	0.423545
Cu24	Cu	1.648794	0.781349	0.756878
Cu25	Cu	0.982138	0.114685	-0.090114
Cu26	Cu	1.315471	0.448018	0.243219
Cu27	Cu	1.648804	0.781351	0.576552
O28	O	0.975518	0.236960	0.076280
O29	O	1.308851	0.570293	0.409614
O30	O	1.642185	0.903626	0.742947
C31	C	0.830129	0.120857	0.000039
C32	C	1.163462	0.454191	0.333373
C33	C	1.496795	0.787524	0.666706
C34	C	0.737833	0.119226	0.000034
C35	C	1.071166	0.452559	0.333367
C36	C	1.404499	0.785892	0.666701
C37	C	0.988194	-0.038887	0.000057
C38	C	1.321527	0.294446	0.333391
C39	C	1.654860	0.627779	0.666724
C40	C	0.986548	-0.132133	0.000058
C41	C	1.319882	0.201201	0.333391
C42	C	1.653215	0.534534	0.666725
C43	C	0.515584	0.191975	0.000040
C44	C	0.848917	0.525308	0.333373
C45	C	1.182251	0.858641	0.666706
C46	C	0.428863	0.190435	0.000046
C47	C	0.762196	0.523768	0.333379
C48	C	1.095530	0.857102	0.666712
C49	C	0.448688	0.037387	0.000053
C50	C	0.782021	0.370720	0.333386
C51	C	1.115355	0.704053	0.666719
C52	C	0.535407	0.038927	0.000053
C53	C	0.868740	0.372260	0.333386
C54	C	1.202074	0.705594	0.666720
C55	C	0.568853	0.116224	0.000042
C56	C	0.902186	0.449557	0.333375
C57	C	1.235519	0.782890	0.666709
C58	C	0.395412	0.113143	0.000047
C59	C	0.728746	0.446477	0.333381
C60	C	1.062079	0.779810	0.666714
C61	C	0.301386	0.111473	0.000054
C62	C	0.634719	0.444807	0.333387
C63	C	0.968053	0.778140	0.666721
C64	C	0.662885	0.117894	0.000037
C65	C	0.996218	0.451227	0.333370
C66	C	1.329552	0.784561	0.666704
C67	C	0.903499	-0.346962	0.000040
C68	C	1.236832	-0.013629	0.333373
C69	C	1.570166	0.319705	0.666707
C70	C	0.942060	-0.407993	0.075225
C71	C	1.275393	-0.074660	0.408558
C72	C	1.608727	0.258674	0.741891
C73	C	0.983572	-0.302858	0.000051
C74	C	1.316905	0.030476	0.333384
C75	C	1.650238	0.363809	0.666717
C76	C	0.942088	-0.407975	-0.075109
C77	C	1.275421	-0.074641	0.258224
C78	C	1.608754	0.258692	0.591557
C79	C	0.980691	-0.467769	0.000040
C80	C	1.314024	-0.134436	0.333373
C81	C	1.647357	0.198897	0.666706
C82	C	1.022155	-0.362660	0.075297
C83	C	1.355488	-0.029327	0.408631
C84	C	1.688821	0.304006	0.741964
C85	C	1.022171	-0.362636	-0.075104
C86	C	1.355504	-0.029302	0.258229
C87	C	1.688838	0.304031	0.591562
C88	C	1.060790	-0.423649	0.000099
C89	C	1.394124	-0.090316	0.333432
C90	C	1.727457	0.243018	0.666765
C91	C	0.985229	-0.207856	0.000058
C92	C	1.318563	0.125477	0.333391
C93	C	1.651896	0.458811	0.666724
C94	C	0.979039	-0.562770	0.000039
C95	C	1.312373	-0.229437	0.333372
C96	C	1.645706	0.103897	0.666706
C97	C	1.134136	0.108510	0.000056
C98	C	1.467470	0.441843	0.333389
C99	C	1.800803	0.775176	0.666723
C100	C	1.226432	0.110141	0.000055
C101	C	1.559766	0.443475	0.333389
C102	C	1.893099	0.776808	0.666722
C103	C	0.976071	0.268254	0.000038
C104	C	1.309405	0.601588	0.333371
C105	C	1.642738	0.934921	0.666705
C106	C	0.977717	0.361500	0.000031
C107	C	1.311050	0.694833	0.333365
C108	C	1.644383	1.028166	0.666698
N109	N	0.982126	0.114680	0.217044
N110	N	1.315459	0.448014	0.550377
N111	N	1.648793	0.781347	0.883710
N112	N	0.982146	0.114680	-0.216946
N113	N	1.315479	0.448013	0.116387
N114	N	1.648812	0.781347	0.449720
C115	C	1.038663	0.057580	0.452057
C116	C	1.371996	0.390914	0.785390
C117	C	1.705330	0.724247	1.118724
C118	C	1.038666	0.057578	0.548038
C119	C	1.371999	0.390912	0.881372
C120	C	1.705332	0.724245	1.214705
C121	C	0.925602	0.171783	0.548034
C122	C	1.258936	0.505116	0.881367
C123	C	1.592269	0.838449	1.214700
C124	C	0.925597	0.171780	0.452054
C125	C	1.258930	0.505113	0.785387
C126	C	1.592263	0.838447	1.118721
C127	C	0.982132	0.114680	0.404068
C128	C	1.315465	0.448013	0.737402
C129	C	1.648798	0.781346	1.070735
C130	C	0.982140	0.114680	0.596029
C131	C	1.315473	0.448014	0.929362
C132	C	1.648807	0.781347	1.262696
C133	C	0.982142	0.114679	0.700096
C134	C	1.315475	0.448012	1.033430
C135	C	1.648809	0.781345	1.366763
C136	C	0.982129	0.114680	0.299995
C137	C	1.315462	0.448014	0.633328
C138	C	1.648795	0.781347	0.966661
H139	H	0.542812	0.254914	0.000037
H140	H	0.876145	0.588248	0.333371
H141	H	1.209479	0.921581	0.666704
H142	H	1.055990	-0.342682	0.138930
H143	H	1.389323	-0.009349	0.472263
H144	H	1.722657	0.323985	0.805596
H145	H	0.837035	-0.313632	0.000111
H146	H	1.170368	0.019701	0.333444
H147	H	1.503702	0.353034	0.666778
H148	H	1.084697	0.011082	0.587108
H149	H	1.418031	0.344415	0.920442
H150	H	1.751364	0.677748	1.253775
H151	H	0.879574	0.218274	0.587113
H152	H	1.212907	0.551607	0.920446
H153	H	1.546241	0.884940	1.253780
H154	H	0.908189	-0.428091	0.138783
H155	H	1.241522	-0.094758	0.472117
H156	H	1.574855	0.238576	0.805450
H157	H	0.879558	0.218278	0.412979
H158	H	1.212891	0.551611	0.746312
H159	H	1.546225	0.884944	1.079646
H160	H	0.385495	0.252119	0.000045
H161	H	0.718828	0.585452	0.333379
H162	H	1.052161	0.918786	0.666712
H163	H	0.421446	-0.025546	0.000067
H164	H	0.754779	0.307788	0.333400
H165	H	1.088112	0.641121	0.666734
H166	H	1.127313	-0.456830	0.000145
H167	H	1.460646	-0.123496	0.333478
H168	H	1.793979	0.209837	0.666812
H169	H	0.578781	-0.022762	0.000058
H170	H	0.912114	0.310571	0.333391
H171	H	1.245448	0.643904	0.666724
H172	H	1.056013	-0.342516	-0.138666
H173	H	1.389347	-0.009182	0.194667
H174	H	1.722680	0.324151	0.528000
H175	H	1.084696	0.011085	0.412989
H176	H	1.418030	0.344418	0.746323
H177	H	1.751363	0.677751	1.079656
H178	H	0.908213	-0.428039	-0.138677
H179	H	1.241547	-0.094706	0.194657
H180	H	1.574880	0.238627	0.527990
