data_functionalizedCrystal
_audit_creation_method	'MofGen! by Chris Wilmer'
_symmetry_space_group_name_H-M	'P1'
_symmetry_Int_Tables_number	1
_symmetry_cell_setting	triclinic
loop_
_symmetry_equiv_pos_as_xyz
  x,y,z
_cell_length_a	25.639242
_cell_length_b	29.839131
_cell_length_c	29.839125
_cell_angle_alpha	89.982291
_cell_angle_beta	89.978980
_cell_angle_gamma	90.036947
loop_
_atom_site_label
_atom_site_type_symbol
_atom_site_fract_x
_atom_site_fract_y
_atom_site_fract_z
Zn1	Zn	0.799209	-0.178970	-0.254114
Zn2	Zn	0.799130	-0.254082	-0.178983
Zn3	Zn	0.711787	-0.178961	-0.178984
Zn4	Zn	0.711726	-0.254068	-0.254073
O5	O	0.755463	-0.216520	-0.216539
O6	O	0.872364	-0.188943	-0.244164
O7	O	0.787536	-0.244119	-0.116116
O8	O	0.723442	-0.116095	-0.188968
O9	O	0.872306	-0.244128	-0.188966
O10	O	0.787671	-0.116102	-0.244165
O11	O	0.723366	-0.188928	-0.116117
O12	O	0.638614	-0.188914	-0.188928
O13	O	0.723339	-0.244104	-0.316946
O14	O	0.638569	-0.244095	-0.244096
O15	O	0.787612	-0.188930	-0.316975
O16	O	0.787477	-0.316947	-0.188927
O17	O	0.723262	-0.316937	-0.244095
C18	C	0.619621	-0.216502	-0.216508
C19	C	0.561507	-0.216506	-0.216506
C20	C	0.755369	-0.333243	-0.216516
C21	C	0.755376	-0.383177	-0.216522
C22	C	0.201129	-0.245301	-0.245237
C23	C	0.146525	-0.245303	-0.245244
O24	O	0.118276	-0.269764	-0.269647
N25	N	0.119224	-0.216533	-0.216568
C26	C	0.146531	-0.187754	-0.187886
O27	O	0.118295	-0.163282	-0.163496
C28	C	0.201134	-0.187749	-0.187881
C29	C	0.228432	-0.216525	-0.216556
C30	C	0.228427	-0.274074	-0.273910
C31	C	0.283028	-0.274072	-0.273902
C32	C	0.310330	-0.245296	-0.245221
C33	C	0.283032	-0.216523	-0.216549
C34	C	0.228439	-0.158968	-0.159202
C35	C	0.283046	-0.158966	-0.159200
C36	C	0.310344	-0.187742	-0.187875
C37	C	0.364936	-0.187745	-0.187860
N38	N	0.392236	-0.216516	-0.216536
C39	C	0.364934	-0.245292	-0.245217
C40	C	0.031860	-0.187765	-0.187898
C41	C	-0.022742	-0.187772	-0.187900
C42	C	-0.022744	-0.245321	-0.245259
C43	C	0.031859	-0.245316	-0.245254
C44	C	0.059161	-0.216536	-0.216574
C45	C	0.479599	-0.245285	-0.245198
C46	C	0.534204	-0.245281	-0.245186
C47	C	0.534201	-0.187731	-0.187829
C48	C	0.479601	-0.187736	-0.187839
C49	C	0.452301	-0.216514	-0.216527
O50	O	0.393219	-0.163296	-0.163471
O51	O	0.393176	-0.269755	-0.269607
C52	C	0.788961	-0.692813	-0.187855
C53	C	0.789025	-0.880486	-0.187872
O54	O	0.817505	-0.904745	-0.163481
N55	N	0.755572	-0.903962	-0.216572
C56	C	0.722102	-0.880517	-0.245273
O57	O	0.693653	-0.904791	-0.269688
C58	C	0.722040	-0.692845	-0.245257
C59	C	0.755493	-0.669371	-0.216552
C60	C	0.822411	-0.669340	-0.159152
C61	C	0.822392	-0.622424	-0.159146
C62	C	0.788924	-0.598982	-0.187843
C63	C	0.755474	-0.622456	-0.216546
C64	C	0.688573	-0.669400	-0.273959
C65	C	0.688562	-0.622479	-0.273954
C66	C	0.722014	-0.599006	-0.245248
C67	C	0.721987	-0.552098	-0.245237
N68	N	0.755441	-0.528623	-0.216537
C69	C	0.788909	-0.552065	-0.187840
C70	C	0.722136	-0.979047	-0.245278
C71	C	0.722150	-1.025965	-0.245282
C72	C	0.789075	-1.025932	-0.187881
C73	C	0.789057	-0.979013	-0.187876
C74	C	0.755590	-0.955572	-0.216578
C75	C	0.788868	-0.453539	-0.187829
C76	C	0.788845	-0.406619	-0.187825
C77	C	0.721922	-0.406657	-0.245226
C78	C	0.721943	-0.453573	-0.245230
C79	C	0.755420	-0.477012	-0.216529
O80	O	0.693526	-0.527811	-0.269619
O81	O	0.817362	-0.527783	-0.163435
C82	C	0.788979	-0.739729	-0.187860
C83	C	0.755529	-0.763202	-0.216563
C84	C	0.722061	-0.739760	-0.245260
C85	C	0.755544	-0.810120	-0.216567
C86	C	0.789012	-0.833562	-0.187870
C87	C	0.822466	-0.810086	-0.159169
C88	C	0.822448	-0.763171	-0.159163
C89	C	0.688607	-0.763236	-0.273961
C90	C	0.688628	-0.810151	-0.273964
C91	C	0.722097	-0.833594	-0.245267
C92	C	0.891836	-0.216538	-0.216569
C93	C	0.949950	-0.216546	-0.216583
C94	C	0.755477	-0.216516	-0.333717
C95	C	0.755483	-0.216514	-0.383651
C96	C	0.755572	-0.099342	-0.216571
C97	C	0.755619	-0.049407	-0.216585
C98	C	0.788986	-0.187710	-0.693313
C99	C	0.789012	-0.187672	-0.880987
O100	O	0.817458	-0.163224	-0.905267
N101	N	0.755553	-0.216394	-0.904437
C102	C	0.722083	-0.245126	-0.880966
O103	O	0.693621	-0.269552	-0.905218
C104	C	0.722054	-0.245162	-0.693293
C105	C	0.755519	-0.216441	-0.669846
C106	C	0.822447	-0.158991	-0.669866
C107	C	0.822443	-0.159003	-0.622950
C108	C	0.788976	-0.187733	-0.599482
C109	C	0.755514	-0.216452	-0.622930
C110	C	0.688582	-0.273891	-0.669823
C111	C	0.688577	-0.273897	-0.622902
C112	C	0.722042	-0.245176	-0.599455
C113	C	0.722043	-0.245194	-0.552547
N114	N	0.755502	-0.216472	-0.529097
C115	C	0.788968	-0.187741	-0.552565
C116	C	0.722101	-0.245106	-0.979496
C117	C	0.722108	-0.245098	-1.026414
C118	C	0.789037	-0.187643	-1.026432
C119	C	0.789031	-0.187653	-0.979513
C120	C	0.755559	-0.216383	-0.956046
C121	C	0.788956	-0.187768	-0.454039
C122	C	0.788950	-0.187784	-0.407119
C123	C	0.722020	-0.245237	-0.407106
C124	C	0.722028	-0.245223	-0.454021
C125	C	0.755498	-0.216485	-0.477487
O126	O	0.693608	-0.269626	-0.528238
O127	O	0.817418	-0.163312	-0.528304
C128	C	0.788991	-0.187698	-0.740229
C129	C	0.755529	-0.216417	-0.763677
C130	C	0.722062	-0.245148	-0.740209
C131	C	0.755536	-0.216409	-0.810595
C132	C	0.789003	-0.187679	-0.834062
C133	C	0.822462	-0.158956	-0.810612
C134	C	0.822457	-0.158968	-0.763697
C135	C	0.688604	-0.273870	-0.763659
C136	C	0.688612	-0.273857	-0.810575
C137	C	0.722078	-0.245126	-0.834042
C138	C	0.755479	-0.216492	-0.099816
C139	C	0.755575	-0.216367	-0.049882
H140	H	0.556428	-0.268716	-0.268537
H141	H	0.556441	-0.164304	-0.164477
H142	H	-0.044964	-0.164344	-0.164546
H143	H	0.694671	-0.387563	-0.268590
H144	H	0.816085	-0.387509	-0.164448
H145	H	0.206203	-0.297507	-0.297268
C146	C	0.651786	-0.305479	-0.737853
C147	C	0.592354	-0.301804	-0.744301
C148	C	0.555535	-0.333417	-0.718499
C149	C	0.578147	-0.368704	-0.686250
C150	C	0.637582	-0.372380	-0.679801
C151	C	0.674402	-0.340768	-0.705603
H152	H	0.575612	-0.275681	-0.768175
H153	H	0.511537	-0.330695	-0.723273
H154	H	0.550891	-0.392106	-0.667150
H155	H	0.654324	-0.398504	-0.655927
H156	H	0.718400	-0.343489	-0.700829
C157	C	0.313076	-0.127307	-0.127649
C158	C	0.350580	-0.146714	-0.092335
C159	C	0.380608	-0.115056	-0.060784
C160	C	0.373133	-0.063991	-0.064547
C161	C	0.335628	-0.044581	-0.099862
C162	C	0.305599	-0.076239	-0.131414
H163	H	0.356115	-0.184517	-0.089549
H164	H	0.408372	-0.129424	-0.034641
H165	H	0.395361	-0.040556	-0.041191
H166	H	0.330092	-0.006777	-0.102649
H167	H	0.277836	-0.061871	-0.157557
C168	C	0.825688	-0.479318	-0.156257
C169	C	0.821454	-0.472886	-0.105182
C170	C	0.858271	-0.498666	-0.073607
C171	C	0.899322	-0.530877	-0.093107
C172	C	0.903558	-0.537310	-0.144185
C173	C	0.866741	-0.511531	-0.175760
H174	H	0.791064	-0.449040	-0.090744
H175	H	0.855135	-0.493903	-0.035796
H176	H	0.926576	-0.549960	-0.069733
H177	H	0.933948	-0.561156	-0.158622
H178	H	0.869877	-0.516293	-0.213571
H179	H	0.816326	-1.045026	-0.164515
C180	C	0.859229	-0.695120	-0.127580
C181	C	0.854997	-0.688683	-0.076506
C182	C	0.891815	-0.714459	-0.044929
C183	C	0.932865	-0.746672	-0.064427
C184	C	0.937100	-0.753111	-0.115504
C185	C	0.900282	-0.727335	-0.147081
H186	H	0.824607	-0.664836	-0.062070
H187	H	0.888680	-0.709692	-0.007118
H188	H	0.960120	-0.765753	-0.041052
H189	H	0.967489	-0.776958	-0.129940
H190	H	0.903416	-0.732101	-0.184891
C191	C	0.685348	-1.051783	-0.276855
C192	C	0.648538	-1.025991	-0.308421
C193	C	0.611737	-1.051806	-0.339998
C194	C	0.611747	-1.103414	-0.340008
C195	C	0.648558	-1.129209	-0.308440
C196	C	0.685359	-1.103394	-0.276864
H197	H	0.648530	-0.987785	-0.308415
H198	H	0.584487	-1.032711	-0.363366
H199	H	0.584504	-1.122525	-0.363383
H200	H	0.648567	-1.167415	-0.308446
H201	H	0.712610	-1.122489	-0.253495
C202	C	0.825858	-0.953194	-0.156303
C203	C	0.821636	-0.959670	-0.105228
C204	C	0.858440	-0.933854	-0.073654
C205	C	0.899466	-0.901562	-0.093155
C206	C	0.903689	-0.895084	-0.144233
C207	C	0.866885	-0.920900	-0.175807
H208	H	0.791265	-0.983576	-0.090790
H209	H	0.855313	-0.938650	-0.035843
H210	H	0.926710	-0.882452	-0.069783
H211	H	0.934060	-0.871178	-0.158671
H212	H	0.870012	-0.916105	-0.213617
H213	H	0.054081	-0.268748	-0.268605
C214	C	0.449574	-0.276943	-0.276752
C215	C	0.457051	-0.328008	-0.272986
C216	C	0.427027	-0.359669	-0.304537
C217	C	0.389524	-0.340265	-0.339854
C218	C	0.382045	-0.289198	-0.343621
C219	C	0.412070	-0.257537	-0.312070
H220	H	0.484814	-0.342374	-0.246841
H221	H	0.432563	-0.397472	-0.301748
H222	H	0.367298	-0.363702	-0.363209
H223	H	0.354282	-0.274832	-0.369766
H224	H	0.406533	-0.219734	-0.314859
C225	C	0.685220	-0.276824	-0.479810
C226	C	0.644184	-0.257353	-0.512053
C227	C	0.607373	-0.288954	-0.537834
C228	C	0.611597	-0.340026	-0.531372
C229	C	0.652635	-0.359500	-0.499128
C230	C	0.689447	-0.327899	-0.473347
H231	H	0.641056	-0.219544	-0.516837
H232	H	0.576994	-0.274538	-0.561704
H233	H	0.584347	-0.363419	-0.550457
H234	H	0.655763	-0.397310	-0.494343
H235	H	0.719825	-0.342316	-0.449477
H236	H	0.661331	-0.297279	-0.688907
H237	H	0.661331	-0.688504	-0.297332
C238	C	-0.052784	-0.276973	-0.276811
C239	C	-0.112845	-0.276972	-0.276816
C240	C	-0.142886	-0.308623	-0.308366
C241	C	-0.112866	-0.340274	-0.339911
C242	C	-0.052801	-0.340276	-0.339907
C243	C	-0.022760	-0.308626	-0.308358
H244	H	-0.135071	-0.253541	-0.253463
H245	H	-0.187351	-0.308621	-0.308368
H246	H	-0.135104	-0.363704	-0.363266
H247	H	-0.030575	-0.363708	-0.363260
H248	H	0.021704	-0.308627	-0.308355
H249	H	0.661309	-0.603396	-0.297328
H250	H	0.849707	-0.135580	-0.744610
H251	H	0.054086	-0.164329	-0.164540
H252	H	0.849633	-0.603315	-0.135773
C253	C	0.651827	-0.835968	-0.305543
C254	C	0.592390	-0.829566	-0.301827
C255	C	0.555594	-0.855380	-0.333408
C256	C	0.578235	-0.887598	-0.368706
C257	C	0.637675	-0.894002	-0.372424
C258	C	0.674471	-0.868187	-0.340843
H259	H	0.575627	-0.805715	-0.275696
H260	H	0.511592	-0.850639	-0.330656
H261	H	0.550996	-0.906707	-0.392085
H262	H	0.654438	-0.917852	-0.398555
H263	H	0.718473	-0.872928	-0.343595
H264	H	0.694881	-0.959965	-0.268651
C265	C	0.825839	-0.156057	-0.953723
C266	C	0.821620	-0.104985	-0.960184
C267	C	0.858429	-0.073386	-0.934396
C268	C	0.899456	-0.092860	-0.902147
C269	C	0.903677	-0.143936	-0.895684
C270	C	0.866869	-0.175534	-0.921472
H271	H	0.791247	-0.090566	-0.984058
H272	H	0.855304	-0.035577	-0.939181
H273	H	0.926704	-0.069469	-0.883058
H274	H	0.934050	-0.158354	-0.871810
H275	H	0.869993	-0.213343	-0.916687
C276	C	0.198426	-0.127314	-0.127655
C277	C	0.205979	-0.076249	-0.131416
C278	C	0.175969	-0.044592	-0.099865
C279	C	0.138404	-0.064001	-0.064553
C280	C	0.130849	-0.115069	-0.060791
C281	C	0.160859	-0.146726	-0.092342
H282	H	0.233789	-0.061878	-0.157557
H283	H	0.181562	-0.006788	-0.102650
H284	H	0.116188	-0.040568	-0.041197
H285	H	0.103040	-0.129439	-0.034651
H286	H	0.155266	-0.184529	-0.089557
H287	H	0.661314	-0.297288	-0.603798
H288	H	0.457374	-0.164305	-0.164489
C289	C	0.685216	-0.276842	-0.381281
C290	C	0.644188	-0.257376	-0.349013
C291	C	0.607385	-0.288981	-0.323185
C292	C	0.611609	-0.340052	-0.329625
C293	C	0.652638	-0.359521	-0.361894
C294	C	0.689441	-0.327916	-0.387722
H295	H	0.641060	-0.219567	-0.344244
H296	H	0.577012	-0.274568	-0.299297
H297	H	0.584365	-0.363448	-0.310505
H298	H	0.655766	-0.397330	-0.366663
H299	H	0.719814	-0.342329	-0.411610
C300	C	0.685145	-0.479398	-0.276802
C301	C	0.625707	-0.473003	-0.273082
C302	C	0.588913	-0.498826	-0.304659
C303	C	0.611556	-0.531044	-0.339955
C304	C	0.670997	-0.537440	-0.343676
C305	C	0.707791	-0.511618	-0.312100
H306	H	0.608942	-0.449152	-0.246953
H307	H	0.544911	-0.494091	-0.301904
H308	H	0.584319	-0.550160	-0.363329
H309	H	0.687762	-0.561291	-0.369805
H310	H	0.751794	-0.516353	-0.314854
H311	H	0.849688	-0.744062	-0.135789
H312	H	0.849716	-0.829181	-0.135802
H313	H	0.305249	-0.297503	-0.297253
C314	C	0.651792	-0.305450	-0.836362
C315	C	0.655997	-0.356525	-0.829906
C316	C	0.619173	-0.388113	-0.855690
C317	C	0.578143	-0.368626	-0.887930
C318	C	0.573936	-0.317549	-0.894387
C319	C	0.610760	-0.285961	-0.868603
H320	H	0.686372	-0.370952	-0.806039
H321	H	0.622288	-0.425923	-0.850910
H322	H	0.550883	-0.392009	-0.907017
H323	H	0.543561	-0.303122	-0.918254
H324	H	0.607646	-0.248151	-0.873383
C325	C	0.825761	-0.156187	-0.381327
C326	C	0.866791	-0.175664	-0.349082
C327	C	0.903600	-0.144068	-0.323291
C328	C	0.899379	-0.092995	-0.329746
C329	C	0.858347	-0.073515	-0.361993
C330	C	0.821538	-0.105111	-0.387783
H331	H	0.869917	-0.213474	-0.344302
H332	H	0.933974	-0.158489	-0.299420
H333	H	0.926627	-0.069606	-0.310654
H334	H	0.855221	-0.035705	-0.366772
H335	H	0.791164	-0.090691	-0.411654
H336	H	0.661354	-0.744153	-0.297330
H337	H	0.816287	-0.164249	-1.045547
H338	H	0.816209	-0.164366	-0.473139
C339	C	0.859250	-0.127403	-0.597163
C340	C	0.855025	-0.076331	-0.603627
C341	C	0.891833	-0.044729	-0.577844
C342	C	0.932867	-0.064198	-0.545598
C343	C	0.937094	-0.115272	-0.539132
C344	C	0.900286	-0.146875	-0.564915
H345	H	0.824648	-0.061917	-0.627499
H346	H	0.888704	-0.006920	-0.582631
H347	H	0.960114	-0.040803	-0.526512
H348	H	0.967471	-0.129687	-0.515260
H349	H	0.903415	-0.184684	-0.560128
H350	H	0.849700	-0.135593	-0.688968
C351	C	0.685297	-0.276692	-1.052204
C352	C	0.648482	-0.308289	-1.026383
C353	C	0.611665	-0.339881	-1.052171
C354	C	0.611663	-0.339875	-1.103779
C355	C	0.648480	-0.308277	-1.129602
C356	C	0.685297	-0.276685	-1.103814
H357	H	0.648482	-0.308294	-0.988178
H358	H	0.584411	-0.363272	-1.033054
H359	H	0.584409	-0.363261	-1.122868
H360	H	0.648480	-0.308271	-1.167808
H361	H	0.712551	-0.253294	-1.122931
H362	H	0.694844	-0.268504	-0.960394
H363	H	0.849713	-0.135564	-0.829728
