data_functionalizedCrystal
_audit_creation_method	'MofGen! by Chris Wilmer'
_symmetry_space_group_name_H-M	'P1'
_symmetry_Int_Tables_number	1
_symmetry_cell_setting	triclinic
loop_
_symmetry_equiv_pos_as_xyz
  x,y,z
_cell_length_a	10.654559
_cell_length_b	14.586319
_cell_length_c	10.654550
_cell_angle_alpha	89.998997
_cell_angle_beta	84.486794
_cell_angle_gamma	90.006102
loop_
_atom_site_label
_atom_site_type_symbol
_atom_site_fract_x
_atom_site_fract_y
_atom_site_fract_z
O1	O	1.667838	0.076243	0.176445
O2	O	1.302361	0.076243	0.193239
O3	O	1.493502	0.076240	0.002103
O4	O	1.476696	0.076247	0.367581
O5	O	1.493479	-0.076241	0.002115
O6	O	1.302337	-0.076237	0.193251
O7	O	1.667814	-0.076238	0.176456
Cu8	Cu	1.485074	-0.090160	0.184855
Cu9	Cu	1.485101	0.090166	0.184841
O10	O	1.476673	-0.076234	0.367592
C11	C	1.255551	0.000003	0.192009
C12	C	1.116109	0.000003	0.188313
C13	C	1.064569	-0.000001	0.072301
C14	C	0.933547	0.000005	0.068835
C15	C	0.905614	0.000018	0.297404
C16	C	1.036634	0.000017	0.300869
C17	C	1.080694	-0.000012	-0.059662
C18	C	0.949672	-0.000005	-0.063128
N19	N	1.485063	-0.216992	0.184863
C20	C	1.561916	-0.451997	0.261727
C21	C	1.561929	-0.547978	0.261719
C22	C	1.408266	-0.547991	0.107950
C23	C	1.408260	-0.452011	0.107953
C24	C	1.485083	-0.404017	0.184849
C25	C	1.485102	-0.595978	0.184837
C26	C	1.485115	-0.700045	0.184827
C27	C	1.485072	-0.299943	0.184857
C28	C	1.714624	0.000004	0.177686
C29	C	1.854067	0.000010	0.181383
C30	C	1.492257	0.000000	-0.044689
C31	C	1.488565	0.000004	-0.184132
N32	N	1.485122	0.216998	0.184823
C33	C	1.601106	0.000001	-0.263614
C34	C	1.597629	0.000007	-0.394635
C35	C	1.369061	0.000016	-0.366679
C36	C	1.372539	0.000016	-0.235661
C37	C	1.733068	-0.000008	-0.279756
C38	C	1.729592	-0.000002	-0.410777
C39	C	1.477919	0.000007	0.414385
C40	C	1.481610	0.000010	0.553828
H41	H	0.920293	-0.063820	-0.114724
H42	H	1.624495	-0.587040	0.324319
H43	H	1.624470	-0.412923	0.324341
H44	H	1.779303	-0.063813	-0.452530
H45	H	1.775080	-0.065846	-0.244123
H46	H	1.345693	-0.412945	0.045343
H47	H	1.078592	0.000036	0.395337
H48	H	1.345718	-0.587079	0.045346
H49	H	1.280897	0.000031	-0.170950
H50	H	1.122452	0.063796	-0.109397
C51	C	0.742079	0.078414	0.426093
C52	C	0.818250	0.000028	0.421119
H53	H	0.688141	0.078414	0.502469
H54	H	0.793785	0.131575	0.422694
H55	H	0.692637	0.078403	0.356498
H56	H	0.867699	0.000042	0.490710
H57	H	0.766538	-0.053147	0.424531
H58	H	1.126326	-0.065852	-0.099525
C59	C	1.173193	0.078415	-0.383197
C60	C	1.241530	0.000027	-0.423328
H61	H	1.094463	0.078422	-0.418175
H62	H	1.159158	0.078404	-0.293803
H63	H	1.219607	0.131580	-0.410418
H64	H	1.195120	-0.053139	-0.396099
H65	H	1.255561	0.000029	-0.512741
C66	C	1.739372	0.164510	-0.276184
C67	C	1.802745	0.086132	-0.240112
H68	H	1.782382	0.217687	-0.251702
H69	H	1.737018	0.164506	-0.365074
H70	H	1.655739	0.164498	-0.236221
H71	H	1.886376	0.086140	-0.280082
H72	H	1.805113	0.086137	-0.151205
H73	H	0.914053	0.065832	-0.105163
H74	H	1.769483	0.065835	-0.456423
