data_functionalizedCrystal
_audit_creation_method	'MofGen! by Chris Wilmer'
_symmetry_space_group_name_H-M	'P1'
_symmetry_Int_Tables_number	1
_symmetry_cell_setting	triclinic
loop_
_symmetry_equiv_pos_as_xyz
  x,y,z
_cell_length_a	12.759395
_cell_length_b	16.625546
_cell_length_c	12.759387
_cell_angle_alpha	90.035560
_cell_angle_beta	90.020509
_cell_angle_gamma	90.024005
loop_
_atom_site_label
_atom_site_type_symbol
_atom_site_fract_x
_atom_site_fract_y
_atom_site_fract_z
Zn1	Zn	1.606212	-0.320926	0.593970
Zn2	Zn	2.106212	0.179074	1.093970
Zn3	Zn	1.606079	-0.455781	0.418276
Zn4	Zn	2.106079	0.044219	0.918276
Zn5	Zn	1.430510	-0.320970	0.418307
Zn6	Zn	1.930510	0.179030	0.918307
Zn7	Zn	1.430479	-0.455724	0.593915
Zn8	Zn	1.930479	0.044276	1.093915
O9	O	1.518320	-0.388350	0.506117
O10	O	2.018320	0.111650	1.006117
O11	O	1.753215	-0.338820	0.570674
O12	O	2.253215	0.161180	1.070674
O13	O	1.582747	-0.437941	0.271259
O14	O	2.082747	0.062059	0.771259
O15	O	1.453886	-0.208132	0.441645
O16	O	1.953886	0.291868	0.941645
O17	O	1.753118	-0.437898	0.441592
O18	O	2.253118	0.062102	0.941592
O19	O	1.582974	-0.208099	0.570704
O20	O	2.082974	0.291901	1.070704
O21	O	1.453757	-0.338895	0.271282
O22	O	1.953757	0.161105	0.771282
O23	O	1.283485	-0.338840	0.441592
O24	O	1.783485	0.161160	0.941592
O25	O	1.453833	-0.437800	0.740944
O26	O	1.953833	0.062200	1.240944
O27	O	1.283462	-0.437843	0.570610
O28	O	1.783462	0.062157	1.070610
O29	O	1.582943	-0.338765	0.740984
O30	O	2.082943	0.161235	1.240984
O31	O	1.582716	-0.568606	0.441539
O32	O	2.082716	-0.068606	0.941539
O33	O	1.453704	-0.568564	0.570580
O34	O	1.953704	-0.068564	1.070580
C35	C	1.245352	-0.388341	0.506099
C36	C	1.745352	0.111659	1.006099
C37	C	1.128576	-0.388356	0.506116
C38	C	1.628576	0.111644	1.006116
C39	C	1.518220	-0.597841	0.506073
C40	C	2.018220	-0.097841	1.006073
C41	C	1.518274	-0.687462	0.506090
C42	C	2.018274	-0.187462	1.006090
C43	C	1.128590	-0.491615	0.640246
C44	C	1.628590	0.008385	1.140246
C45	C	1.073737	-0.543250	0.707314
C46	C	1.573737	-0.043250	1.207314
C47	C	0.964015	-0.543260	0.707327
C48	C	1.464015	-0.043260	1.207327
C49	C	0.909144	-0.491627	0.640267
C50	C	1.409144	0.008373	1.140267
C51	C	0.963998	-0.439991	0.573199
C52	C	1.463998	0.060009	1.073199
C53	C	1.073722	-0.439989	0.573191
C54	C	1.573722	0.060011	1.073191
C55	C	0.963984	-0.336730	0.439076
C56	C	1.463984	0.163270	0.939076
C57	C	1.073705	-0.336723	0.439056
C58	C	1.573705	0.163277	0.939056
C59	C	0.909113	-0.285096	0.372016
C60	C	1.409113	0.214904	0.872016
C61	C	0.963967	-0.233463	0.304942
C62	C	1.463967	0.266537	0.804942
C63	C	1.073695	-0.233456	0.304931
C64	C	1.573695	0.266544	0.804931
C65	C	1.128559	-0.285087	0.371989
C66	C	1.628559	0.214913	0.871989
C67	C	1.518457	-1.015638	0.506199
C68	C	2.018457	-0.515638	1.006199
C69	C	1.518403	-0.924329	0.506171
C70	C	2.018403	-0.424329	1.006171
C71	C	1.518365	-0.851553	0.506144
C72	C	2.018365	-0.351553	1.006144
C73	C	1.518312	-0.760239	0.506117
C74	C	2.018312	-0.260239	1.006117
C75	C	1.792353	-0.388361	0.506136
C76	C	2.292353	0.111639	1.006136
C77	C	1.909130	-0.388365	0.506144
C78	C	2.409130	0.111635	1.006144
C79	C	1.518399	-0.388271	0.780151
C80	C	2.018399	0.111729	1.280151
C81	C	1.518433	-0.388238	0.896928
C82	C	2.018433	0.111762	1.396928
C83	C	1.518448	-0.178041	0.506184
C84	C	2.018448	0.321959	1.006184
C85	C	1.518503	-0.088420	0.506213
C86	C	2.018503	0.411580	1.006213
C87	C	1.518301	-0.388371	0.233150
C88	C	2.018301	0.111629	0.733150
C89	C	1.518471	-0.388177	0.116374
C90	C	2.018471	0.111823	0.616374
C91	C	1.652885	-0.285119	0.896990
C92	C	2.152885	0.214881	1.396990
C93	C	1.720126	-0.233547	0.951881
C94	C	2.220126	0.266453	1.451881
C95	C	1.720151	-0.233518	1.061603
C96	C	2.220151	0.266482	1.561603
C97	C	1.652927	-0.285064	1.116435
C98	C	2.152927	0.214936	1.616435
C99	C	1.585686	-0.336635	1.061544
C100	C	2.085686	0.163365	1.561544
C101	C	1.585670	-0.336661	0.951819
C102	C	2.085670	0.163339	1.451819
C103	C	1.451230	-0.439749	1.061482
C104	C	1.951230	0.060251	1.561482
C105	C	1.451209	-0.439784	0.951760
C106	C	1.951209	0.060216	1.451760
C107	C	1.384006	-0.491295	1.116314
C108	C	1.884006	0.008705	1.616314
C109	C	1.316769	-0.542872	1.061422
C110	C	1.816769	-0.042872	1.561422
C111	C	1.316747	-0.542900	0.951694
C112	C	1.816747	-0.042900	1.451694
C113	C	1.383968	-0.491355	0.896868
C114	C	1.883968	0.008645	1.396868
H115	H	1.118424	-0.585288	0.761914
H116	H	1.618424	-0.085288	1.261914
H117	H	1.384028	-0.491264	1.205655
H118	H	1.884028	0.008736	1.705655
H119	H	1.261980	-0.584887	0.907008
H120	H	1.761980	-0.084887	1.407008
C121	C	1.652946	-0.285029	1.237126
C122	C	2.152946	0.214971	1.737126
H123	H	1.603279	-0.323110	1.261920
H124	H	2.103279	0.176890	1.761920
H125	H	1.720738	-0.298970	1.261958
H126	H	2.220738	0.201030	1.761958
H127	H	1.634810	-0.232985	1.261958
H128	H	2.134810	0.267015	1.761958
H129	H	1.262035	-0.584832	1.106076
H130	H	1.762035	-0.084832	1.606076
C131	C	1.383941	-0.491385	0.776178
C132	C	1.883941	0.008615	1.276178
H133	H	1.334272	-0.529483	0.751336
H134	H	1.834272	-0.029483	1.251336
H135	H	1.365811	-0.439355	0.751377
H136	H	1.865811	0.060645	1.251377
H137	H	1.451728	-0.505348	0.751362
H138	H	1.951728	-0.005348	1.251362
H139	H	1.217931	-0.491618	0.640234
H140	H	1.717931	0.008382	1.140234
C141	C	1.794071	-0.176854	0.891565
C142	C	2.294071	0.323146	1.391565
H143	H	1.784436	-0.184261	0.818357
H144	H	2.284436	0.315739	1.318357
H145	H	1.778744	-0.122672	0.909563
H146	H	2.278744	0.377328	1.409563
H147	H	1.864658	-0.188667	0.909556
H148	H	2.364658	0.311333	1.409556
C149	C	0.903674	-0.600022	0.781145
C150	C	1.403674	-0.100022	1.281145
H151	H	0.952062	-0.630764	0.821092
H152	H	1.452062	-0.130764	1.321092
H153	H	0.860927	-0.569192	0.826982
H154	H	1.360927	-0.069192	1.326982
H155	H	0.860817	-0.635131	0.740906
H156	H	1.360817	-0.135131	1.240906
H157	H	0.819803	-0.491632	0.640292
H158	H	1.319803	0.008368	1.140292
H159	H	1.217900	-0.285088	0.371983
H160	H	1.717900	0.214912	0.871983
H161	H	0.919282	-0.191424	0.250352
H162	H	1.419282	0.308576	0.750352
C163	C	0.788422	-0.285102	0.372027
C164	C	1.288422	0.214898	0.872027
H165	H	0.763603	-0.246953	0.322491
H166	H	1.263603	0.253047	0.822491
H167	H	0.763568	-0.337116	0.353732
H168	H	1.263568	0.162884	0.853732
H169	H	0.763639	-0.271222	0.439867
H170	H	1.263639	0.228778	0.939867
H171	H	1.118350	-0.191402	0.250323
H172	H	1.618350	0.308598	0.750323
H173	H	1.652881	-0.285145	0.807648
H174	H	2.152881	0.214855	1.307648
H175	H	1.774898	-0.191519	1.106296
H176	H	2.274898	0.308481	1.606296
