data_functionalizedCrystal
_audit_creation_method	'MofGen! by Chris Wilmer'
_symmetry_space_group_name_H-M	'P1'
_symmetry_Int_Tables_number	1
_symmetry_cell_setting	triclinic
loop_
_symmetry_equiv_pos_as_xyz
  x,y,z
_cell_length_a	16.625547
_cell_length_b	16.959454
_cell_length_c	16.959447
_cell_angle_alpha	90.026818
_cell_angle_beta	89.977696
_cell_angle_gamma	89.979987
loop_
_atom_site_label
_atom_site_type_symbol
_atom_site_fract_x
_atom_site_fract_y
_atom_site_fract_z
Zn1	Zn	1.232674	0.314667	-0.447041
Zn2	Zn	1.732674	0.814667	0.052959
Zn3	Zn	1.232589	0.446859	-0.314871
Zn4	Zn	1.732589	0.946859	0.185129
Zn5	Zn	1.097842	0.314698	-0.314867
Zn6	Zn	1.597842	0.814698	0.185133
Zn7	Zn	1.097812	0.446807	-0.446997
Zn8	Zn	1.597812	0.946807	0.053003
O9	O	1.165229	0.380758	-0.380944
O10	O	1.665229	0.880758	0.119056
O11	O	1.345495	0.332211	-0.429529
O12	O	1.845495	0.832211	0.070471
O13	O	1.214691	0.429363	-0.204260
O14	O	1.714691	0.929363	0.295740
O15	O	1.115776	0.204083	-0.332416
O16	O	1.615776	0.704083	0.167584
O17	O	1.345432	0.429332	-0.332424
O18	O	1.845432	0.929332	0.167576
O19	O	1.214836	0.204060	-0.429525
O20	O	1.714836	0.704060	0.070475
O21	O	1.115693	0.332265	-0.204256
O22	O	1.615693	0.832265	0.295744
O23	O	0.985005	0.332214	-0.332374
O24	O	1.485005	0.832214	0.167626
O25	O	1.115725	0.429243	-0.557614
O26	O	1.615725	0.929243	-0.057614
O27	O	0.984983	0.429274	-0.429450
O28	O	1.484983	0.929274	0.070550
O29	O	1.214807	0.332160	-0.557647
O30	O	1.714807	0.832160	-0.057647
O31	O	1.214662	0.557463	-0.332381
O32	O	1.714662	1.057463	0.167619
O33	O	1.115642	0.557425	-0.429454
O34	O	1.615642	1.057425	0.070546
C35	C	1.165161	0.586124	-0.380931
C36	C	1.665161	1.086124	0.119069
C37	C	1.165206	0.673981	-0.380951
C38	C	1.665206	1.173981	0.119049
C39	C	0.955738	0.380742	-0.380907
C40	C	1.455738	0.880742	0.119093
C41	C	0.866117	0.380755	-0.380910
C42	C	1.366117	0.880755	0.119090
C43	C	1.165272	0.380692	-0.587112
C44	C	1.665272	0.880692	-0.087112
C45	C	1.165291	0.380664	-0.674969
C46	C	1.665291	0.880664	-0.174969
C47	C	0.793335	0.380756	-0.380919
C48	C	1.293335	0.880756	0.119081
C49	C	0.702026	0.380761	-0.380939
C50	C	1.202026	0.880761	0.119061
C51	C	0.629250	0.380768	-0.380959
C52	C	1.129250	0.880768	0.119041
C53	C	0.537935	0.380773	-0.380978
C54	C	1.037935	0.880773	0.119022
C55	C	1.375538	0.380774	-0.380982
C56	C	1.875538	0.880774	0.119018
C57	C	1.465159	0.380781	-0.380998
C58	C	1.965159	0.880781	0.119002
C59	C	1.165319	0.174590	-0.380975
C60	C	1.665319	0.674590	0.119025
C61	C	1.165357	0.086733	-0.380988
C62	C	1.665357	0.586733	0.119012
C63	C	1.113744	1.045466	-0.431484
C64	C	1.613744	1.545466	0.068516
C65	C	1.216938	1.045446	-0.330484
C66	C	1.716938	1.545446	0.169516
C67	C	1.216910	0.962900	-0.330477
C68	C	1.716910	1.462900	0.169523
C69	C	1.165297	0.921634	-0.380973
C70	C	1.665297	1.421634	0.119027
C71	C	1.113713	0.962913	-0.431477
C72	C	1.613713	1.462913	0.068523
C73	C	1.268488	0.921615	-0.279969
C74	C	1.768488	1.421615	0.220031
C75	C	1.268462	0.839064	-0.279959
C76	C	1.768462	1.339064	0.220041
C77	C	1.216852	0.797796	-0.330460
C78	C	1.716852	1.297796	0.169540
C79	C	1.165266	0.839080	-0.380966
C80	C	1.665266	1.339080	0.119034
C81	C	1.113653	0.797813	-0.431462
C82	C	1.613653	1.297813	0.068538
C83	C	1.062070	0.839096	-0.481973
C84	C	1.562070	1.339096	0.018027
C85	C	1.062103	0.921644	-0.481978
C86	C	1.562103	1.421644	0.018022
C87	C	1.216819	0.715247	-0.330455
C88	C	1.716819	1.215247	0.169545
C89	C	1.113622	0.715260	-0.431455
C90	C	1.613622	1.215260	0.068545
C91	C	1.113818	0.330026	-1.046449
C92	C	1.613818	0.830026	-0.546449
C93	C	1.216905	0.431135	-1.046440
C94	C	1.716905	0.931135	-0.546440
C95	C	1.216891	0.431154	-0.963895
C96	C	1.716891	0.931154	-0.463895
C97	C	1.165339	0.380609	-0.922622
C98	C	1.665339	0.880609	-0.422622
C99	C	1.113801	0.330045	-0.963896
C100	C	1.613801	0.830045	-0.463896
C101	C	1.268423	0.481722	-0.922615
C102	C	1.768423	0.981722	-0.422615
C103	C	1.268410	0.481743	-0.840064
C104	C	1.768410	0.981743	-0.340064
C105	C	1.216862	0.431193	-0.798790
C106	C	1.716862	0.931193	-0.298790
C107	C	1.165322	0.380627	-0.840069
C108	C	1.665322	0.880627	-0.340069
C109	C	1.113769	0.330082	-0.798796
C110	C	1.613769	0.830082	-0.298796
C111	C	1.062233	0.279511	-0.840074
C112	C	1.562233	0.779511	-0.340074
C113	C	1.062252	0.279495	-0.922622
C114	C	1.562252	0.779495	-0.422622
C115	C	1.216843	0.431209	-0.716241
C116	C	1.716843	0.931209	-0.216241
C117	C	1.113752	0.330100	-0.716243
C118	C	1.613752	0.830100	-0.216243
C119	C	1.165232	0.380766	-0.175578
C120	C	1.665232	0.880766	0.324422
C121	C	1.165370	0.380572	-0.087722
C122	C	1.665370	0.880572	0.412278
H123	H	1.020043	0.805487	-0.523084
H124	H	1.520043	1.305487	-0.023084
O125	O	1.012274	0.230266	-0.962681
O126	O	1.512274	0.730266	-0.462681
C127	C	1.029909	0.151491	-0.942522
C128	C	1.529909	0.651491	-0.442522
H129	H	1.094321	0.147505	-0.919845
H130	H	1.594321	0.647505	-0.419845
H131	H	0.986680	0.130836	-0.894603
H132	H	1.486680	0.630836	-0.394603
C133	C	0.941447	0.103620	-1.043720
C134	C	1.441447	0.603620	-0.543720
C135	C	1.020561	0.098725	-1.015873
C136	C	1.520561	0.598725	-0.515873
H137	H	0.935677	0.071070	-1.088964
H138	H	1.435677	0.571070	-0.588964
H139	H	0.929563	0.156692	-1.057299
H140	H	1.429563	0.656692	-0.557299
H141	H	0.905431	0.086410	-1.003780
H142	H	1.405431	0.586410	-0.503780
H143	H	1.056574	0.115945	-1.055809
H144	H	1.556574	0.615945	-0.555809
H145	H	1.032451	0.045654	-1.002302
H146	H	1.532451	0.545654	-0.502302
H147	H	1.020106	0.955264	-0.523100
H148	H	1.520106	1.455264	-0.023100
H149	H	1.258813	0.681639	-0.289326
H150	H	1.758813	1.181639	0.210674
H151	H	1.310503	0.955221	-0.238852
H152	H	1.810503	1.455221	0.261148
H153	H	1.071749	1.079082	-0.472611
H154	H	1.571749	1.579082	0.027389
O155	O	1.267016	1.085652	-0.281479
O156	O	1.767016	1.585652	0.218521
C157	C	1.255948	1.167363	-0.292283
C158	C	1.755948	1.667363	0.207717
H159	H	1.229545	1.178632	-0.353272
H160	H	1.729545	1.678632	0.146728
H161	H	1.213008	1.190817	-0.245379
H162	H	1.713008	1.690817	0.254621
C163	C	1.369960	1.195877	-0.210148
C164	C	1.869960	1.695877	0.289852
C165	C	1.337537	1.209718	-0.285059
C166	C	1.837537	1.709718	0.214941
H167	H	1.420286	1.222004	-0.205689
H168	H	1.920286	1.722004	0.294311
H169	H	1.377415	1.140826	-0.202867
H170	H	1.877415	1.640826	0.297133
H171	H	1.334168	1.215421	-0.171070
H172	H	1.834168	1.715421	0.328930
H173	H	1.373324	1.190164	-0.324135
H174	H	1.873324	1.690164	0.175865
H175	H	1.330090	1.264766	-0.292347
H176	H	1.830090	1.764766	0.207653
H177	H	1.310463	0.805457	-0.238831
H178	H	1.810463	1.305457	0.261169
H179	H	1.071775	0.288936	-0.682645
H180	H	1.571775	0.788936	-0.182645
H181	H	1.020256	0.238360	-0.806459
H182	H	1.520256	0.738360	-0.306459
H183	H	1.071860	0.288851	-1.080061
H184	H	1.571860	0.788851	-0.580061
O185	O	1.267061	0.480122	-1.086567
O186	O	1.767061	0.980122	-0.586567
C187	C	1.319151	0.435116	-1.134358
C188	C	1.819151	0.935116	-0.634358
H189	H	1.324159	0.372868	-1.109498
H190	H	1.824159	0.872868	-0.609498
H191	H	1.294227	0.432377	-1.196914
H192	H	1.794227	0.932377	-0.696914
C193	C	1.396802	0.550197	-1.166176
C194	C	1.896802	1.050197	-0.666176
C195	C	1.402959	0.473744	-1.135639
C196	C	1.902959	0.973744	-0.635639
H197	H	1.448498	0.574025	-1.166969
H198	H	1.948498	1.074025	-0.666969
H199	H	1.361707	0.580519	-1.133980
H200	H	1.861707	1.080519	-0.633980
H201	H	1.376029	0.547904	-1.218303
H202	H	1.876029	1.047904	-0.718303
H203	H	1.423722	0.476039	-1.083510
H204	H	1.923722	0.976039	-0.583510
H205	H	1.438060	0.443423	-1.167826
H206	H	1.938060	0.943423	-0.667826
H207	H	1.310385	0.522882	-0.956225
H208	H	1.810385	1.022882	-0.456225
H209	H	1.258808	0.472378	-0.682637
H210	H	1.758808	0.972378	-0.182637
H211	H	1.310374	0.522922	-0.806463
H212	H	1.810374	1.022922	-0.306463
H213	H	1.071595	0.681665	-0.472578
H214	H	1.571595	1.181665	0.027422
