data_functionalizedCrystal
_audit_creation_method	'MofGen! by Chris Wilmer'
_symmetry_space_group_name_H-M	'P1'
_symmetry_Int_Tables_number	1
_symmetry_cell_setting	triclinic
loop_
_symmetry_equiv_pos_as_xyz
  x,y,z
_cell_length_a	17.077404
_cell_length_b	16.625545
_cell_length_c	17.077396
_cell_angle_alpha	90.027926
_cell_angle_beta	90.018362
_cell_angle_gamma	90.023528
loop_
_atom_site_label
_atom_site_type_symbol
_atom_site_fract_x
_atom_site_fract_y
_atom_site_fract_z
Zn1	Zn	1.200040	-0.321045	0.443822
Zn2	Zn	1.199941	-0.455888	0.312557
Zn3	Zn	1.068772	-0.321068	0.312572
Zn4	Zn	1.068734	-0.455835	0.443783
O5	O	1.134372	-0.388459	0.378184
O6	O	1.309874	-0.338945	0.426419
O7	O	1.182516	-0.438036	0.202712
O8	O	1.086242	-0.208233	0.330005
O9	O	1.309801	-0.438013	0.329979
O10	O	1.182684	-0.208216	0.426434
O11	O	1.086146	-0.338984	0.202723
O12	O	0.958920	-0.338933	0.329968
O13	O	1.086177	-0.437923	0.553635
O14	O	0.958892	-0.437945	0.426368
O15	O	1.182647	-0.338894	0.553664
O16	O	1.182479	-0.568713	0.329942
O17	O	1.086081	-0.568674	0.426353
C18	C	0.930424	-0.388436	0.378166
C19	C	0.843174	-0.388446	0.378177
C20	C	0.802222	-0.336953	0.428470
C21	C	0.720242	-0.336958	0.428474
C22	C	0.679215	-0.388461	0.378188
C23	C	0.720172	-0.439956	0.327889
C24	C	0.802151	-0.439947	0.327882
C25	C	0.549302	-0.439975	0.327909
C26	C	0.467317	-0.439986	0.327917
C27	C	0.467393	-0.336986	0.428500
C28	C	0.549372	-0.336976	0.428493
C29	C	0.590324	-0.388473	0.378196
C30	C	1.134286	-0.597950	0.378159
C31	C	1.134322	-0.687571	0.378175
C32	C	1.134352	-0.760354	0.378190
C33	C	1.134398	-0.851662	0.378208
C34	C	1.134439	-0.924438	0.378218
C35	C	1.134483	-1.015753	0.378234
C36	C	1.339116	-0.388483	0.378202
C37	C	1.426366	-0.388493	0.378210
C38	C	1.134419	-0.388400	0.582928
C39	C	1.134439	-0.388374	0.670178
C40	C	1.134479	-0.178150	0.378226
C41	C	1.134524	-0.088529	0.378244
C42	C	1.134370	-0.388460	0.174236
C43	C	1.134501	-0.388258	0.086986
C44	C	1.184673	-0.336806	0.711184
C45	C	1.184683	-0.336779	0.793165
C46	C	1.134462	-0.388325	0.834137
C47	C	1.084222	-0.439897	0.793125
C48	C	1.084209	-0.439919	0.711146
C49	C	1.084254	-0.439848	0.963996
C50	C	1.084268	-0.439827	1.045980
C51	C	1.184727	-0.336708	1.046014
C52	C	1.184714	-0.336730	0.964035
C53	C	1.134476	-0.388303	0.923028
H54	H	0.686903	-0.295029	0.469429
H55	H	0.835492	-0.481877	0.286928
Cl56	Cl	1.021123	-0.504621	1.097488
H57	H	1.043332	-0.481831	0.930611
Cl58	Cl	1.247816	-0.272004	0.659683
H59	H	0.582642	-0.481907	0.286949
H60	H	1.225613	-0.294761	0.930677
H61	H	0.582774	-0.295043	0.469445
Cl62	Cl	0.415741	-0.504753	0.264718
Cl63	Cl	1.021084	-0.504696	0.844634
Cl64	Cl	1.247885	-0.271875	1.097564
H65	H	0.686761	-0.481887	0.286942
Cl66	Cl	0.415912	-0.272245	0.491729
H67	H	1.043296	-0.481903	0.677760
H68	H	1.225590	-0.294788	0.826548
H69	H	0.835621	-0.295015	0.469421
