data_functionalizedCrystal
_audit_creation_method	'MofGen! by Chris Wilmer'
_symmetry_space_group_name_H-M	'P1'
_symmetry_Int_Tables_number	1
_symmetry_cell_setting	triclinic
loop_
_symmetry_equiv_pos_as_xyz
  x,y,z
_cell_length_a	14.853567
_cell_length_b	17.699083
_cell_length_c	16.176319
_cell_angle_alpha	90.007696
_cell_angle_beta	89.995559
_cell_angle_gamma	96.541027
loop_
_atom_site_label
_atom_site_type_symbol
_atom_site_fract_x
_atom_site_fract_y
_atom_site_fract_z
O1	O	1.196004	-0.098817	-0.068691
O2	O	1.696004	0.401183	0.431309
O3	O	0.933502	-0.110588	-0.068706
O4	O	1.433502	0.389412	0.431294
O5	O	1.072169	0.005467	-0.068691
O6	O	1.572169	0.505467	0.431309
O7	O	1.057337	-0.214872	-0.068706
O8	O	1.557337	0.285128	0.431294
O9	O	1.072150	0.005475	0.068802
O10	O	1.572150	0.505475	0.568802
O11	O	0.933483	-0.110581	0.068788
O12	O	1.433483	0.389419	0.568788
O13	O	1.195985	-0.098809	0.068802
O14	O	1.695985	0.401191	0.568802
Cu15	Cu	1.064732	-0.104694	0.081349
Cu16	Cu	1.564732	0.395306	0.581349
Cu17	Cu	1.064755	-0.104703	-0.081253
Cu18	Cu	1.564755	0.395297	0.418747
O19	O	1.057318	-0.214865	0.068787
O20	O	1.557318	0.285135	0.568787
C21	C	0.899905	-0.110051	0.000039
C22	C	1.399905	0.389949	0.500039
C23	C	0.799828	-0.108453	0.000034
C24	C	1.299828	0.391547	0.500034
C25	C	1.071628	0.033670	0.000056
C26	C	1.571628	0.533670	0.500056
C27	C	1.070034	0.117692	0.000056
C28	C	1.570034	0.617692	0.500056
N29	N	1.064723	-0.104688	0.195714
N30	N	1.564723	0.395312	0.695714
C31	C	0.387572	-0.032757	0.000058
C32	C	0.887572	0.467243	0.500058
C33	C	0.365784	-0.170634	0.000047
C34	C	0.865784	0.329366	0.500047
C35	C	0.459812	-0.172136	0.000045
C36	C	0.959812	0.327864	0.500045
C37	C	0.517725	-0.103948	0.000047
C38	C	1.017725	0.396052	0.500047
C39	C	0.481610	-0.034258	0.000053
C40	C	0.981610	0.465742	0.500053
C41	C	0.495934	-0.241826	0.000031
C42	C	0.995934	0.258174	0.500031
C43	C	0.589968	-0.243332	0.000027
C44	C	1.089968	0.256668	0.500027
C45	C	0.647883	-0.175143	0.000036
C46	C	1.147883	0.324857	0.500036
C47	C	0.611762	-0.105449	0.000042
C48	C	1.111762	0.394551	0.500042
C49	C	0.669675	-0.037261	0.000045
C50	C	1.169675	0.462739	0.500045
C51	C	0.633556	0.032433	0.000057
C52	C	1.133556	0.532433	0.500057
C53	C	0.539524	0.033931	0.000061
C54	C	1.039524	0.533931	0.500061
C55	C	0.741915	-0.176641	0.000031
C56	C	1.241915	0.323359	0.500031
C57	C	0.763712	-0.038762	0.000039
C58	C	1.263712	0.461238	0.500039
C59	C	1.229582	-0.099347	0.000055
C60	C	1.729582	0.400653	0.500055
C61	C	1.329659	-0.100945	0.000055
C62	C	1.829659	0.399055	0.500055
C63	C	1.057859	-0.243067	0.000039
C64	C	1.557859	0.256933	0.500039
C65	C	1.059453	-0.327089	0.000033
C66	C	1.559453	0.172911	0.500033
C67	C	1.151429	0.166101	0.000062
C68	C	1.651429	0.666101	0.500062
C69	C	1.149925	0.245049	0.000054
C70	C	1.649925	0.745049	0.500054
C71	C	1.067026	0.275585	0.000047
C72	C	1.567026	0.775585	0.500047
C73	C	0.985625	0.227169	0.000039
C74	C	1.485625	0.727169	0.500039
C75	C	0.987129	0.148223	0.000041
C76	C	1.487129	0.648223	0.500041
C77	C	0.979555	0.545548	0.000032
C78	C	1.479555	1.045548	0.500032
C79	C	0.978057	0.624499	0.000033
C80	C	1.478057	1.124499	0.500033
C81	C	1.142352	0.642373	0.000046
C82	C	1.642352	1.142373	0.500046
C83	C	1.143856	0.563428	0.000047
C84	C	1.643856	1.063428	0.500047
C85	C	1.062455	0.515019	0.000035
C86	C	1.562455	1.015019	0.500035
C87	C	1.064087	0.429415	0.000041
C88	C	1.564087	0.929415	0.500041
C89	C	1.065394	0.361187	0.000047
C90	C	1.565394	0.861187	0.500047
N91	N	1.064771	-0.104704	-0.195618
N92	N	1.564771	0.395296	0.304382
C93	C	1.126144	-0.053319	0.238985
C94	C	1.626144	0.446681	0.738985
C95	C	1.126148	-0.053319	0.325532
C96	C	1.626148	0.446681	0.825532
C97	C	1.064736	-0.104690	0.368807
C98	C	1.564736	0.395310	0.868807
C99	C	1.003309	-0.156061	0.325530
C100	C	1.503309	0.343939	0.825530
C101	C	1.003301	-0.156058	0.238984
C102	C	1.503301	0.343942	0.738984
C103	C	1.003340	-0.156075	0.674558
C104	C	1.503340	0.343925	1.174558
C105	C	1.003354	-0.156076	0.761110
C106	C	1.503354	0.343924	1.261110
C107	C	1.126187	-0.053336	0.761106
C108	C	1.626187	0.446664	1.261106
C109	C	1.126179	-0.053333	0.674560
C110	C	1.626179	0.446667	1.174560
C111	C	1.064749	-0.104701	0.631291
C112	C	1.564749	0.395299	1.131291
C113	C	1.064744	-0.104700	0.537447
C114	C	1.564744	0.395300	1.037447
C115	C	1.064745	-0.104695	0.462649
C116	C	1.564745	0.395305	0.962649
H117	H	0.680721	0.087952	0.000053
H118	H	1.180721	0.587952	0.500053
H119	H	0.448775	-0.297341	0.000020
H120	H	0.948775	0.202659	0.500020
O121	O	1.192413	0.002077	0.372196
O122	O	1.692413	0.502077	0.872196
H123	H	1.181079	0.061101	0.355591
H124	H	1.681079	0.561101	0.855591
O125	O	1.230150	0.694590	0.000051
O126	O	1.730150	1.194590	0.500051
H127	H	1.269812	0.683734	0.056101
H128	H	1.769812	1.183734	0.556101
O129	O	1.192369	0.002095	0.192305
O130	O	1.692369	0.502095	0.692305
H131	H	1.262630	-0.007644	0.208899
H132	H	1.762630	0.492356	0.708899
O133	O	0.937078	-0.211475	0.372205
O134	O	1.437078	0.288525	0.872205
H135	H	0.894363	-0.247191	0.327574
H136	H	1.394363	0.252809	0.827574
H137	H	0.910546	0.649358	0.000029
H138	H	1.410546	1.149358	0.500029
H139	H	1.176189	-0.011504	0.639329
H140	H	1.676189	0.488496	1.139329
H141	H	0.953342	-0.197911	0.796343
H142	H	1.453342	0.302089	1.296343
H143	H	0.953285	-0.197886	0.203754
H144	H	1.453285	0.302114	0.703754
O145	O	1.240844	0.133169	0.000071
O146	O	1.740844	0.633169	0.500071
H147	H	1.245461	0.097617	-0.055965
H148	H	1.745461	0.597617	0.444035
O149	O	0.826169	0.034788	0.000049
O150	O	1.326169	0.534788	0.500049
H151	H	0.897625	0.022039	0.000048
H152	H	1.397625	0.522039	0.500048
H153	H	0.510108	0.090673	0.000091
H154	H	1.010108	0.590673	0.500091
H155	H	1.176204	-0.011507	0.796345
H156	H	1.676204	0.488493	1.296345
O157	O	0.937095	-0.211483	0.627893
O158	O	1.437095	0.288517	1.127893
H159	H	0.894403	-0.247210	0.672527
H160	H	1.394403	0.252790	1.172527
O161	O	0.628925	-0.318496	0.000034
O162	O	1.128925	0.181504	0.500034
H163	H	0.572856	-0.365658	0.000042
H164	H	1.072856	0.134342	0.500042
H165	H	1.216206	0.284461	0.000061
H166	H	1.716206	0.784461	0.500061
H167	H	0.358160	0.023987	0.000071
H168	H	0.858160	0.523987	0.500071
H169	H	1.211361	0.538570	0.000057
H170	H	1.711361	1.038570	0.500057
O171	O	0.780877	-0.251800	0.000024
O172	O	1.280877	0.248200	0.500024
H173	H	0.724809	-0.298963	0.000026
H174	H	1.224809	0.201037	0.500026
O175	O	0.303328	-0.244178	0.000053
O176	O	0.803328	0.255822	0.500053
H177	H	0.231874	-0.231426	0.000065
H178	H	0.731874	0.268574	0.500065
O179	O	0.899337	0.096007	0.000046
O180	O	1.399337	0.596007	0.500046
H181	H	0.859659	0.106869	-0.055992
H182	H	1.359659	0.606869	0.444008
H183	H	0.913274	0.506142	0.000022
H184	H	1.413274	1.006142	0.500022
O185	O	0.896207	0.260098	0.000040
O186	O	1.396207	0.760098	0.500040
H187	H	0.908834	0.323127	0.000052
H188	H	1.408834	0.823127	0.500052
