data_functionalizedCrystal
_audit_creation_method	'MofGen! by Chris Wilmer'
_symmetry_space_group_name_H-M	'P1'
_symmetry_Int_Tables_number	1
_symmetry_cell_setting	triclinic
loop_
_symmetry_equiv_pos_as_xyz
  x,y,z
_cell_length_a	25.639243
_cell_length_b	25.639239
_cell_length_c	25.639233
_cell_angle_alpha	89.981253
_cell_angle_beta	90.015962
_cell_angle_gamma	89.958590
loop_
_atom_site_label
_atom_site_type_symbol
_atom_site_fract_x
_atom_site_fract_y
_atom_site_fract_z
Zn1	Zn	0.799225	0.208176	0.295656
Zn2	Zn	0.799149	0.295595	0.208220
Zn3	Zn	0.711801	0.208180	0.208229
Zn4	Zn	0.711746	0.295587	0.295619
O5	O	0.755480	0.251885	0.251931
O6	O	0.872380	0.219775	0.284069
O7	O	0.787553	0.284004	0.135056
O8	O	0.723453	0.135014	0.219846
O9	O	0.872324	0.284001	0.219830
O10	O	0.787683	0.135012	0.284077
O11	O	0.723379	0.219781	0.135063
O12	O	0.638629	0.219772	0.219810
O13	O	0.723360	0.283987	0.368789
O14	O	0.638589	0.283990	0.284016
O15	O	0.787630	0.219767	0.368816
O16	O	0.787499	0.368759	0.219795
O17	O	0.723286	0.368753	0.284007
C18	C	0.619638	0.251881	0.251910
C19	C	0.561524	0.251892	0.251914
C20	C	0.201184	0.218495	0.285436
C21	C	0.146580	0.218494	0.285439
O22	O	0.118363	0.190088	0.313915
N23	N	0.119241	0.251883	0.251945
C24	C	0.146510	0.285271	0.218443
O25	O	0.118242	0.313670	0.189954
C26	C	0.201113	0.285268	0.218437
C27	C	0.228449	0.251881	0.251937
C28	C	0.228520	0.185109	0.318932
C29	C	0.283121	0.185111	0.318930
C30	C	0.310385	0.218497	0.285431
C31	C	0.283049	0.251882	0.251934
C32	C	0.228380	0.318653	0.184932
C33	C	0.282987	0.318647	0.184929
C34	C	0.310323	0.285260	0.218429
C35	C	0.364915	0.285270	0.218432
N36	N	0.392253	0.251881	0.251926
C37	C	0.364989	0.218494	0.285425
C38	C	0.031839	0.285273	0.218456
C39	C	-0.022763	0.285279	0.218464
C40	C	-0.022689	0.218501	0.285460
C41	C	0.031914	0.218499	0.285454
C42	C	0.059178	0.251884	0.251950
C43	C	0.479654	0.218500	0.285417
C44	C	0.534259	0.218506	0.285413
C45	C	0.534180	0.285281	0.218415
C46	C	0.479580	0.285278	0.218421
C47	C	0.452318	0.251883	0.251924
O48	O	0.393166	0.313659	0.189969
O49	O	0.393263	0.190095	0.313904
C50	C	0.755392	0.387727	0.251907
C51	C	0.755403	0.445841	0.251914
C52	C	0.755497	0.251875	0.388304
C53	C	0.755504	0.251871	0.446418
C54	C	0.891853	0.251888	0.251952
C55	C	0.949967	0.251890	0.251961
C56	C	0.755583	0.115512	0.251967
C57	C	0.755627	0.057397	0.251982
C58	C	0.789004	0.806195	0.218553
C59	C	0.789024	0.860799	0.218560
O60	O	0.817502	0.889028	0.190169
N61	N	0.755572	0.888124	0.251966
C62	C	0.722102	0.860841	0.285371
O63	O	0.693651	0.889096	0.313786
C64	C	0.722085	0.806238	0.285366
C65	C	0.755535	0.778916	0.251954
C66	C	0.822452	0.778873	0.185144
C67	C	0.822431	0.724273	0.185137
C68	C	0.788962	0.696994	0.218538
C69	C	0.755514	0.724315	0.251946
C70	C	0.688617	0.778956	0.318773
C71	C	0.688603	0.724349	0.318765
C72	C	0.722053	0.697027	0.285354
C73	C	0.722024	0.642436	0.285340
N74	N	0.755475	0.615112	0.251934
C75	C	0.788944	0.642390	0.218533
C76	C	0.722141	0.975511	0.285379
C77	C	0.722155	1.030114	0.285381
C78	C	0.789078	1.030068	0.218571
C79	C	0.789061	0.975465	0.218566
C80	C	0.755593	0.948187	0.251973
C81	C	0.788897	0.527725	0.218519
C82	C	0.788872	0.473120	0.218513
C83	C	0.721951	0.473170	0.285325
C84	C	0.721974	0.527771	0.285329
C85	C	0.755452	0.555047	0.251925
O86	O	0.693562	0.614173	0.313718
O87	O	0.817396	0.614128	0.190127
C88	C	0.755494	0.251856	0.116089
C89	C	0.755588	0.251713	0.057975
C90	C	0.789012	0.218333	0.806801
C91	C	0.789019	0.218318	0.861405
O92	O	0.817466	0.189864	0.889659
N93	N	0.755562	0.251749	0.888701
C94	C	0.722093	0.285192	0.861389
O95	O	0.693636	0.313626	0.889620
C96	C	0.722084	0.285204	0.806786
C97	C	0.755547	0.251775	0.779493
C98	C	0.822472	0.184906	0.779508
C99	C	0.822466	0.184921	0.724908
C100	C	0.789001	0.218363	0.697600
C101	C	0.755541	0.251790	0.724893
C102	C	0.688613	0.318644	0.779475
C103	C	0.688607	0.318653	0.724868
C104	C	0.722069	0.285223	0.697576
C105	C	0.722070	0.285247	0.642984
N106	N	0.755526	0.251817	0.615689
C107	C	0.788992	0.218375	0.642996
C108	C	0.722113	0.285165	0.976060
C109	C	0.722124	0.285157	1.030662
C110	C	0.789049	0.218282	1.030675
C111	C	0.789041	0.218293	0.976071
C112	C	0.755570	0.251735	0.948764
C113	C	0.788977	0.218410	0.528331
C114	C	0.788970	0.218429	0.473726
C115	C	0.722043	0.285302	0.473719
C116	C	0.722052	0.285285	0.528319
C117	C	0.755521	0.251834	0.555624
O118	O	0.693635	0.313686	0.614696
O119	O	0.817439	0.189941	0.614759
H120	H	0.556389	0.312465	0.191142
H121	H	0.694857	0.312400	0.953830
N122	N	0.686036	0.946089	0.321404
H123	H	0.694130	0.955570	0.358770
H124	H	0.648703	0.955649	0.313200
N125	N	0.685945	0.321368	0.444261
H126	H	0.694034	0.358725	0.453758
H127	H	0.691036	0.316256	0.405539
N128	N	0.199126	0.149096	0.355072
H129	H	0.176468	0.170378	0.379268
H130	H	0.176509	0.124836	0.333841
N131	N	0.450260	0.182483	0.321556
H132	H	0.427599	0.203765	0.345751
H133	H	0.427646	0.158223	0.300323
H134	H	0.816229	0.191169	0.550557
N135	N	0.652519	0.354698	0.808905
H136	H	0.660606	0.392057	0.799396
H137	H	0.615184	0.346528	0.799380
H138	H	0.305183	0.345834	0.157644
N139	N	0.563743	0.182496	0.321548
H140	H	0.538182	0.161345	0.342768
H141	H	0.586410	0.158267	0.300310
H142	H	0.849714	0.157699	0.702691
H143	H	0.694881	0.312384	1.052880
N144	N	0.825000	0.557144	0.182491
H145	H	0.862348	0.547595	0.190643
H146	H	0.816853	0.547653	0.145140
N147	N	0.652501	0.354717	0.695416
H148	H	0.631305	0.375889	0.720995
H149	H	0.673756	0.378924	0.672761
N150	N	0.652545	0.808413	0.354818
H151	H	0.657630	0.847146	0.349761
H152	H	0.615205	0.798911	0.346649
H153	H	0.661350	0.702142	0.345971
H154	H	0.816298	0.191050	1.052918
H155	H	0.206133	0.345840	0.157652
H156	H	0.694699	0.450951	0.312518
N157	N	0.312601	0.149098	0.355060
H158	H	0.287037	0.127950	0.376278
H159	H	0.335264	0.124868	0.333820
H160	H	0.457322	0.312470	0.191149
N161	N	0.061396	0.182489	0.321585
H162	H	0.035834	0.161342	0.342807
H163	H	0.084059	0.158257	0.300347
N164	N	-0.052101	0.182490	0.321592
H165	H	-0.090839	0.187559	0.316508
H166	H	-0.042535	0.145136	0.313521
N167	N	0.686068	1.059575	0.321412
H168	H	0.694158	1.050044	0.358775
H169	H	0.691169	1.098297	0.316309
N170	N	-0.052244	0.321296	0.182339
H171	H	-0.026682	0.342444	0.161119
H172	H	-0.074891	0.299979	0.158181
H173	H	0.054034	0.312464	0.191174
H174	H	0.816111	0.450876	0.191304
N175	N	0.858517	0.694808	0.149108
H176	H	0.879723	0.720381	0.127955
H177	H	0.882690	0.672123	0.170417
N178	N	0.858554	0.808290	0.149116
H179	H	0.879737	0.782689	0.127955
H180	H	0.837296	0.830976	0.124899
N181	N	0.825141	0.945999	0.182532
H182	H	0.846344	0.971570	0.161375
H183	H	0.849317	0.923311	0.203836
H184	H	0.816333	1.052289	0.191376
H185	H	0.694809	0.312510	0.550542
H186	H	0.816221	0.191207	0.451507
H187	H	0.694738	0.550017	0.312538
H188	H	0.849724	0.157671	0.801736
H189	H	0.816288	0.191071	0.953853
