data_functionalizedCrystal
_audit_creation_method	'MofGen! by Chris Wilmer'
_symmetry_space_group_name_H-M	'P1'
_symmetry_Int_Tables_number	1
_symmetry_cell_setting	triclinic
loop_
_symmetry_equiv_pos_as_xyz
  x,y,z
_cell_length_a	12.759401
_cell_length_b	12.827892
_cell_length_c	12.759393
_cell_angle_alpha	90.027958
_cell_angle_beta	89.981433
_cell_angle_gamma	89.983626
loop_
_atom_site_label
_atom_site_type_symbol
_atom_site_fract_x
_atom_site_fract_y
_atom_site_fract_z
Zn1	Zn	1.606236	0.415998	-0.594010
Zn2	Zn	1.606122	0.590779	-0.418341
Zn3	Zn	1.430538	0.416049	-0.418349
Zn4	Zn	1.430519	0.590695	-0.593982
O5	O	1.518354	0.503380	-0.506170
O6	O	1.753242	0.439197	-0.570715
O7	O	1.582791	0.567657	-0.271321
O8	O	1.453901	0.269807	-0.441666
O9	O	1.753159	0.567607	-0.441652
O10	O	1.582985	0.269769	-0.570723
O11	O	1.453790	0.439284	-0.271327
O12	O	1.283515	0.439203	-0.441639
O13	O	1.453868	0.567464	-0.741007
O14	O	1.283500	0.567514	-0.570676
O15	O	1.582966	0.439115	-0.741027
O16	O	1.582773	0.737004	-0.441625
O17	O	1.453757	0.736942	-0.570668
C18	C	1.245387	0.503356	-0.506156
C19	C	1.128610	0.503370	-0.506174
C20	C	1.073784	0.436633	-0.573482
C21	C	0.964060	0.436653	-0.573488
C22	C	0.963997	0.570157	-0.438877
C23	C	1.073719	0.570131	-0.438866
C24	C	1.073820	0.359559	-0.651202
C25	C	0.964096	0.359579	-0.651208
C26	C	1.518279	0.774890	-0.506166
C27	C	1.518343	0.891043	-0.506199
C28	C	1.582258	0.942824	-0.442418
C29	C	1.582326	1.062874	-0.442450
C30	C	1.792387	0.503406	-0.506186
C31	C	1.909164	0.503416	-0.506192
C32	C	1.518427	0.503275	-0.780204
C33	C	1.518459	0.503230	-0.896981
C34	C	1.518449	1.230810	-0.506211
C35	C	1.518468	1.114657	-0.506261
C36	C	1.585690	0.436392	-0.951855
C37	C	1.585715	0.436354	-1.061579
C38	C	1.451275	0.570001	-1.061545
C39	C	1.451245	0.570033	-0.951823
C40	C	1.663311	0.359235	-0.951875
C41	C	1.663336	0.359198	-1.061600
C42	C	1.518341	0.503410	-0.233203
C43	C	1.518513	0.503160	-0.116427
H44	H	0.919291	0.624511	-0.384078
O45	O	1.132853	0.642094	-0.366252
H46	H	1.111808	0.724142	-0.384123
H47	H	0.934350	0.381357	-0.732545
H48	H	1.103591	0.278591	-0.629543
H49	H	1.107884	0.388635	-0.728441
H50	H	1.396496	0.624455	-0.907148
H51	H	1.463741	1.070135	-0.560865
H52	H	1.636933	0.898281	-0.387791
H53	H	0.930058	0.282664	-0.622204
H54	H	1.463678	0.935589	-0.560832
O55	O	1.654834	1.121845	-0.370131
H56	H	1.643523	1.206883	-0.381520
O57	O	1.378782	0.642052	-1.120694
H58	H	1.390097	0.630804	-1.206211
H59	H	1.641546	0.278305	-0.922114
H60	H	1.740581	0.388250	-0.917841
H61	H	1.634226	0.282301	-1.095643
O62	O	1.771109	0.387923	-1.101062
H63	H	1.823849	0.402027	-1.033365
