data_functionalizedCrystal
_audit_creation_method	'MofGen! by Chris Wilmer'
_symmetry_space_group_name_H-M	'P1'
_symmetry_Int_Tables_number	1
_symmetry_cell_setting	triclinic
loop_
_symmetry_equiv_pos_as_xyz
  x,y,z
_cell_length_a	13.032831
_cell_length_b	18.101395
_cell_length_c	13.032268
_cell_angle_alpha	97.146252
_cell_angle_beta	90.886977
_cell_angle_gamma	82.835691
loop_
_atom_site_label
_atom_site_type_symbol
_atom_site_fract_x
_atom_site_fract_y
_atom_site_fract_z
Zn1	Zn	1.498320	-0.500117	-0.780796
Zn2	Zn	1.748320	-0.250117	-0.530796
Zn3	Zn	1.998320	-0.000117	-0.280796
Zn4	Zn	2.248320	0.249883	-0.030796
Zn5	Zn	1.520028	-0.610451	-0.608808
Zn6	Zn	1.770028	-0.360451	-0.358808
Zn7	Zn	2.020028	-0.110451	-0.108808
Zn8	Zn	2.270028	0.139549	0.141192
Zn9	Zn	1.348189	-0.469181	-0.587040
Zn10	Zn	1.598189	-0.219181	-0.337040
Zn11	Zn	1.848189	0.030819	-0.087040
Zn12	Zn	2.098189	0.280819	0.162960
Zn13	Zn	1.326277	-0.606447	-0.758934
Zn14	Zn	1.576277	-0.356447	-0.508934
Zn15	Zn	1.826277	-0.106447	-0.258934
Zn16	Zn	2.076277	0.143553	-0.008934
O17	O	1.423203	-0.546549	-0.683894
O18	O	1.673203	-0.296549	-0.433894
O19	O	1.923203	-0.046549	-0.183894
O20	O	2.173203	0.203451	0.066106
O21	O	1.645116	-0.529375	-0.776242
O22	O	1.895116	-0.279375	-0.526242
O23	O	2.145116	-0.029375	-0.276242
O24	O	2.395116	0.220625	-0.026242
O25	O	1.515487	-0.580440	-0.462005
O26	O	1.765487	-0.330440	-0.212005
O27	O	2.015487	-0.080440	0.037995
O28	O	2.265487	0.169560	0.287995
O29	O	1.368189	-0.369663	-0.612782
O30	O	1.618189	-0.119663	-0.362782
O31	O	1.868189	0.130337	-0.112782
O32	O	2.118189	0.380337	0.137218
O33	O	1.661064	-0.610437	-0.649882
O34	O	1.911064	-0.360437	-0.399882
O35	O	2.161064	-0.110437	-0.149882
O36	O	2.411064	0.139563	0.100118
O37	O	1.478491	-0.392391	-0.755134
O38	O	1.728491	-0.142391	-0.505134
O39	O	1.978491	0.107609	-0.255134
O40	O	2.228491	0.357609	-0.005134
O41	O	1.389238	-0.476650	-0.446012
O42	O	1.639238	-0.226650	-0.196012
O43	O	1.889238	0.023350	0.053988
O44	O	2.139238	0.273350	0.303988
O45	O	1.201366	-0.472767	-0.591582
O46	O	1.451366	-0.222767	-0.341582
O47	O	1.701366	0.027233	-0.091582
O48	O	1.951366	0.277233	0.158418
O49	O	1.330844	-0.603613	-0.905750
O50	O	1.580844	-0.353613	-0.655750
O51	O	1.830844	-0.103613	-0.405750
O52	O	2.080844	0.146387	-0.155750
O53	O	1.185268	-0.573616	-0.717872
O54	O	1.435268	-0.323616	-0.467872
O55	O	1.685268	-0.073616	-0.217872
O56	O	1.935268	0.176384	0.032128
O57	O	1.457244	-0.525493	-0.921812
O58	O	1.707244	-0.275493	-0.671812
O59	O	1.957244	-0.025493	-0.421812
O60	O	2.207244	0.224507	-0.171812
O61	O	1.494241	-0.713541	-0.628683
O62	O	1.744241	-0.463541	-0.378683
O63	O	1.994241	-0.213541	-0.128683
O64	O	2.244241	0.036459	0.121317
O65	O	1.351893	-0.710600	-0.738979
O66	O	1.601893	-0.460600	-0.488979
O67	O	1.851893	-0.210600	-0.238979
O68	O	2.101893	0.039400	0.011021
C69	C	1.156001	-0.519401	-0.649993
C70	C	1.406001	-0.269401	-0.399993
C71	C	1.656001	-0.019401	-0.149993
C72	C	1.906001	0.230599	0.100007
C73	C	1.041687	-0.507806	-0.635514
C74	C	1.291687	-0.257806	-0.385514
C75	C	1.541687	-0.007806	-0.135514
C76	C	1.791687	0.242194	0.114486
C77	C	0.982797	-0.552600	-0.691451
C78	C	1.232797	-0.302600	-0.441451
C79	C	1.482797	-0.052600	-0.191451
C80	C	1.732797	0.197400	0.058549
C81	C	0.864648	-0.540618	-0.676488
C82	C	1.114648	-0.290618	-0.426488
C83	C	1.364648	-0.040618	-0.176488
C84	C	1.614648	0.209382	0.073512
C85	C	1.423070	-0.738943	-0.683847
C86	C	1.673070	-0.488943	-0.433847
C87	C	1.923070	-0.238943	-0.183847
C88	C	2.173070	0.011057	0.066153
C89	C	1.423102	-0.821262	-0.683873
C90	C	1.673102	-0.571262	-0.433873
C91	C	1.923102	-0.321262	-0.183873
C92	C	2.173102	-0.071262	0.066127
C93	C	1.423321	-1.120381	-0.683957
C94	C	1.673321	-0.870381	-0.433957
C95	C	1.923321	-0.620381	-0.183957
C96	C	2.173321	-0.370381	0.066043
C97	C	1.333919	-1.087270	-0.753573
C98	C	1.583919	-0.837270	-0.503573
C99	C	1.833919	-0.587270	-0.253573
C100	C	2.083919	-0.337270	-0.003573
C101	C	1.333573	-1.001594	-0.753276
C102	C	1.583573	-0.751594	-0.503276
C103	C	1.833573	-0.501594	-0.253276
C104	C	2.083573	-0.251594	-0.003276
C105	C	1.423212	-0.971985	-0.683916
C106	C	1.673212	-0.721985	-0.433916
C107	C	1.923212	-0.471985	-0.183916
C108	C	2.173212	-0.221985	0.066084
C109	C	1.407642	-0.991648	-0.571811
C110	C	1.657642	-0.741648	-0.321811
C111	C	1.907642	-0.491648	-0.071811
C112	C	2.157642	-0.241648	0.178189
C113	C	1.407070	-1.077279	-0.572223
C114	C	1.657070	-0.827279	-0.322223
C115	C	1.907070	-0.577279	-0.072223
C116	C	2.157070	-0.327279	0.177777
C117	C	1.528588	-1.101951	-0.725513
C118	C	1.778588	-0.851951	-0.475513
C119	C	2.028588	-0.601951	-0.225513
C120	C	2.278588	-0.351951	0.024487
C121	C	1.527646	-1.016421	-0.727809
C122	C	1.777646	-0.766421	-0.477809
C123	C	2.027646	-0.516421	-0.227809
C124	C	2.277646	-0.266421	0.022191
C125	C	1.423153	-0.888117	-0.683886
C126	C	1.673153	-0.638117	-0.433886
C127	C	1.923153	-0.388117	-0.183886
C128	C	2.173153	-0.138117	0.066114
C129	C	1.423378	-1.204247	-0.683979
C130	C	1.673378	-0.954247	-0.433979
C131	C	1.923378	-0.704247	-0.183979
C132	C	2.173378	-0.454247	0.066021
C133	C	1.691449	-0.573804	-0.717929
C134	C	1.941449	-0.323804	-0.467929
C135	C	2.191449	-0.073804	-0.217929
C136	C	2.441449	0.176196	0.032071
C137	C	1.805759	-0.585418	-0.732432
C138	C	2.055759	-0.335418	-0.482432
C139	C	2.305759	-0.085418	-0.232432
C140	C	2.555759	0.164582	0.017568
C141	C	1.389178	-0.567557	-0.952140
C142	C	1.639178	-0.317557	-0.702140
C143	C	1.889178	-0.067557	-0.452140
C144	C	2.139178	0.182443	-0.202140
C145	C	1.374679	-0.576509	-1.066450
C146	C	1.624679	-0.326509	-0.816450
C147	C	1.874679	-0.076509	-0.566450
C148	C	2.124679	0.173491	-0.316450
C149	C	1.423363	-0.353408	-0.683968
C150	C	1.673363	-0.103408	-0.433968
C151	C	1.923363	0.146592	-0.183968
C152	C	2.173363	0.396592	0.066032
C153	C	1.423431	-0.271103	-0.684000
C154	C	1.673431	-0.021103	-0.434000
C155	C	1.923431	0.228897	-0.184000
C156	C	2.173431	0.478897	0.066000
C157	C	1.430755	-0.541848	-1.125361
C158	C	1.680755	-0.291848	-0.875361
C159	C	1.930755	-0.041848	-0.625361
C160	C	2.180755	0.208152	-0.375361
C161	C	1.415770	-0.551100	-1.243507
C162	C	1.665770	-0.301100	-0.993507
C163	C	1.915770	-0.051100	-0.743507
C164	C	2.165770	0.198900	-0.493507
C165	C	1.457155	-0.525575	-0.416700
C166	C	1.707155	-0.275575	-0.166700
C167	C	1.957155	-0.025575	0.083300
C168	C	2.207155	0.224425	0.333300
C169	C	1.471854	-0.516434	-0.302416
C170	C	1.721854	-0.266434	-0.052416
C171	C	1.971854	-0.016434	0.197584
C172	C	2.221854	0.233566	0.447584
H173	H	1.019848	-0.599818	-0.750422
H174	H	1.269848	-0.349818	-0.500422
H175	H	1.519848	-0.099818	-0.250422
H176	H	1.769848	0.150182	-0.000422
H177	H	0.842804	-0.632638	-0.791410
H178	H	1.092804	-0.382638	-0.541410
H179	H	1.342804	-0.132638	-0.291410
H180	H	1.592804	0.117362	-0.041410
H181	H	0.827601	-0.493392	-0.617521
H182	H	1.077601	-0.243392	-0.367521
H183	H	1.327601	0.006608	-0.117521
H184	H	1.577601	0.256608	0.132479
H185	H	1.470108	-1.098787	-0.517844
H186	H	1.720108	-0.848787	-0.267844
H187	H	1.970108	-0.598787	-0.017844
H188	H	2.220108	-0.348787	0.232156
H189	H	1.004636	-0.460583	-0.576551
H190	H	1.254636	-0.210583	-0.326551
H191	H	1.504636	0.039417	-0.076551
H192	H	1.754636	0.289417	0.173449
H193	H	1.341720	-0.988702	-0.835969
H194	H	1.591720	-0.738702	-0.585969
H195	H	1.841720	-0.488702	-0.335969
H196	H	2.091720	-0.238702	-0.085969
H197	H	1.530954	-0.479903	-1.265390
H198	H	1.780954	-0.229903	-1.015390
H199	H	2.030954	0.020097	-0.765390
H200	H	2.280954	0.270097	-0.515390
H201	H	1.356658	-0.587621	-1.280533
H202	H	1.606658	-0.337621	-1.030533
H203	H	1.856658	-0.087621	-0.780533
H204	H	2.106658	0.162379	-0.530533
H205	H	1.341850	-1.115992	-0.836504
H206	H	1.591850	-0.865992	-0.586504
H207	H	1.841850	-0.615992	-0.336504
H208	H	2.091850	-0.365992	-0.086504
H209	H	1.256075	-1.099292	-0.725253
H210	H	1.506075	-0.849292	-0.475253
H211	H	1.756075	-0.599292	-0.225253
H212	H	2.006075	-0.349292	0.024747
H213	H	1.255269	-0.971539	-0.724662
H214	H	1.505269	-0.721539	-0.474662
H215	H	1.755269	-0.471539	-0.224662
H216	H	2.005269	-0.221539	0.025338
H217	H	1.330530	-1.087401	-0.538622
H218	H	1.580530	-0.837401	-0.288622
H219	H	1.830530	-0.587401	-0.038622
H220	H	2.080530	-0.337401	0.211378
H221	H	1.471316	-0.972170	-0.517925
H222	H	1.721316	-0.722170	-0.267925
H223	H	1.971316	-0.472170	-0.017925
H224	H	2.221316	-0.222170	0.232075
H225	H	1.331997	-0.960395	-0.537896
H226	H	1.581997	-0.710395	-0.287896
H227	H	1.831997	-0.460395	-0.037896
H228	H	2.081997	-0.210395	0.212104
H229	H	1.545469	-1.132313	-0.806592
H230	H	1.795469	-0.882313	-0.556592
H231	H	2.045469	-0.632313	-0.306592
H232	H	2.295469	-0.382313	-0.056592
H233	H	1.315571	-0.613028	-1.103481
H234	H	1.565571	-0.363028	-0.853481
H235	H	1.815571	-0.113028	-0.603481
H236	H	2.065571	0.136972	-0.353481
H237	H	1.539638	-1.004566	-0.810379
H238	H	1.789638	-0.754566	-0.560379
H239	H	2.039638	-0.504566	-0.310379
H240	H	2.289638	-0.254566	-0.060379
H241	H	1.596674	-0.997101	-0.681897
H242	H	1.846674	-0.747101	-0.431897
H243	H	2.096674	-0.497101	-0.181897
H244	H	2.346674	-0.247101	0.068103
H245	H	1.595027	-1.123643	-0.674977
H246	H	1.845027	-0.873643	-0.424977
H247	H	2.095027	-0.623643	-0.174977
H248	H	2.345027	-0.373643	0.075023
H249	H	1.489853	-0.505321	-1.088329
H250	H	1.739853	-0.255321	-0.838329
H251	H	1.989853	-0.005321	-0.588329
H252	H	2.239853	0.244679	-0.338329
