data_functionalizedCrystal
_audit_creation_method	'MofGen! by Chris Wilmer'
_symmetry_space_group_name_H-M	'P1'
_symmetry_Int_Tables_number	1
_symmetry_cell_setting	triclinic
loop_
_symmetry_equiv_pos_as_xyz
  x,y,z
_cell_length_a	16.109295
_cell_length_b	14.586319
_cell_length_c	16.109301
_cell_angle_alpha	90.005214
_cell_angle_beta	96.539666
_cell_angle_gamma	89.999424
loop_
_atom_site_label
_atom_site_type_symbol
_atom_site_fract_x
_atom_site_fract_y
_atom_site_fract_z
O1	O	-1.103134	0.076181	0.106844
O2	O	-0.603134	0.576181	0.606844
O3	O	-0.861071	0.076197	0.120148
O4	O	-0.361071	0.576197	0.620148
O5	O	-0.988752	0.076179	-0.007535
O6	O	-0.488752	0.576179	0.492465
O7	O	-0.975453	0.076199	0.234527
O8	O	-0.475453	0.576199	0.734527
O9	O	-0.988743	-0.076302	-0.007537
O10	O	-0.488743	0.423698	0.492463
O11	O	-0.861062	-0.076284	0.120146
O12	O	-0.361062	0.423716	0.620146
O13	O	-1.103125	-0.076300	0.106842
O14	O	-0.603125	0.423700	0.606842
Cu15	Cu	-0.982093	-0.090215	0.113494
Cu16	Cu	-0.482093	0.409785	0.613494
Cu17	Cu	-0.982103	0.090111	0.113496
Cu18	Cu	-0.482103	0.590111	0.613496
O19	O	-0.975444	-0.076282	0.234525
O20	O	-0.475444	0.423718	0.734525
C21	C	-0.830092	-0.000042	0.119609
C22	C	-0.330092	0.499958	0.619609
C23	C	-0.737796	-0.000036	0.117996
C24	C	-0.237796	0.499964	0.617996
C25	C	-0.515523	-0.000040	0.190008
C26	C	-0.015523	0.499960	0.690008
C27	C	-0.428803	-0.000046	0.188486
C28	C	0.071197	0.499954	0.688486
C29	C	-0.448677	-0.000054	0.036996
C30	C	0.051323	0.499946	0.536996
C31	C	-0.535396	-0.000055	0.038520
C32	C	-0.035396	0.499945	0.538520
C33	C	-0.568816	-0.000043	0.115028
C34	C	-0.068816	0.499957	0.615028
C35	C	-0.395377	-0.000048	0.111982
C36	C	0.104623	0.499952	0.611982
C37	C	-0.301351	-0.000054	0.110331
C38	C	0.198649	0.499946	0.610331
C39	C	-0.662849	-0.000039	0.116679
C40	C	-0.162849	0.499961	0.616679
N41	N	-0.982091	-0.217046	0.113492
N42	N	-0.482091	0.282954	0.613492
C43	C	-1.038647	-0.452061	0.056973
C44	C	-0.538647	0.047939	0.556973
C45	C	-1.038650	-0.548042	0.056971
C46	C	-0.538650	-0.048042	0.556971
C47	C	-0.925549	-0.548036	0.170014
C48	C	-0.425549	-0.048036	0.670014
C49	C	-0.925544	-0.452056	0.170011
C50	C	-0.425544	0.047944	0.670011
C51	C	-0.982097	-0.404071	0.113491
C52	C	-0.482097	0.095929	0.613491
C53	C	-0.982105	-0.596032	0.113492
C54	C	-0.482105	-0.096032	0.613492
C55	C	-0.982108	-0.700099	0.113490
C56	C	-0.482108	-0.200099	0.613490
C57	C	-0.982094	-0.299997	0.113492
C58	C	-0.482094	0.200003	0.613492
C59	C	-0.134104	-0.000058	0.107386
C60	C	0.365896	0.499942	0.607386
C61	C	-0.226397	-0.000055	0.109014
C62	C	0.273603	0.499945	0.609014
C63	C	-0.988209	-0.000062	-0.038511
C64	C	-0.488209	0.499938	0.461489
C65	C	-0.986594	-0.000063	-0.130806
C66	C	-0.486594	0.499937	0.369194
N67	N	-0.982111	0.216943	0.113492
N68	N	-0.482111	0.716943	0.613492
C69	C	-1.058602	-0.000053	-0.353080
C70	C	-0.558602	0.499947	0.146920
C71	C	-1.057078	-0.000046	-0.439800
C72	C	-0.557078	0.499954	0.060200
C73	C	-0.905588	-0.000039	-0.419923
C74	C	-0.405588	0.499961	0.080077
C75	C	-0.907113	-0.000040	-0.333204
C76	C	-0.407113	0.499960	0.166796
C77	C	-0.983622	-0.000052	-0.299785
C78	C	-0.483622	0.499948	0.200215
C79	C	-0.980573	-0.000043	-0.473225
C80	C	-0.480573	0.499957	0.026775
C81	C	-0.978920	-0.000035	-0.567251
C82	C	-0.478920	0.499965	-0.067251
C83	C	-0.985276	-0.000058	-0.205754
C84	C	-0.485276	0.499942	0.294246
C85	C	-0.975987	-0.000039	0.265501
C86	C	-0.475987	0.499961	0.765501
C87	C	-0.977602	-0.000032	0.357796
C88	C	-0.477602	0.499968	0.857796
H89	H	-0.421455	-0.000069	-0.025294
H90	H	0.078545	0.499931	0.474706
H91	H	-0.578790	-0.000060	-0.022542
H92	H	-0.078790	0.499940	0.477458
H93	H	-0.846052	-0.000037	-0.289809
H94	H	-0.346052	0.499963	0.210191
O95	O	-1.099643	-0.599806	-0.003988
O96	O	-0.599643	-0.099806	0.496012
H97	H	-1.140032	-0.643534	0.031026
H98	H	-0.640032	-0.143534	0.531026
H99	H	-1.118133	-0.000045	-0.483190
H100	H	-0.618133	0.499955	0.016810
O101	O	-0.551573	-0.000035	0.272524
O102	O	-0.051573	0.499965	0.772524
H103	H	-0.590611	-0.062181	0.276832
H104	H	-0.090611	0.437819	0.776832
O105	O	-1.099632	-0.400301	-0.003993
O106	O	-0.599632	0.099699	0.496007
H107	H	-1.138948	-0.449800	-0.043301
H108	H	-0.638948	0.050200	0.456699
H109	H	-1.120900	-0.000061	-0.325874
H110	H	-0.620900	0.499939	0.174126
H111	H	-0.879506	-0.587115	0.216032
H112	H	-0.379506	-0.087115	0.716032
H113	H	-0.385414	-0.000045	0.249542
H114	H	0.114586	0.499955	0.749542
H115	H	-0.879490	-0.412981	0.216036
H116	H	-0.379490	0.087019	0.716036
H117	H	-0.843297	-0.000032	-0.447144
H118	H	-0.343297	0.499968	0.052856
