data_functionalizedCrystal
_audit_creation_method	'MofGen! by Chris Wilmer'
_symmetry_space_group_name_H-M	'P1'
_symmetry_Int_Tables_number	1
_symmetry_cell_setting	triclinic
loop_
_symmetry_equiv_pos_as_xyz
  x,y,z
_cell_length_a	18.050590
_cell_length_b	25.639240
_cell_length_c	18.050582
_cell_angle_alpha	90.031820
_cell_angle_beta	89.999233
_cell_angle_gamma	90.021926
loop_
_atom_site_label
_atom_site_type_symbol
_atom_site_fract_x
_atom_site_fract_y
_atom_site_fract_z
Zn1	Zn	1.135269	-0.208335	0.419554
Zn2	Zn	1.135170	-0.295763	0.295344
Zn3	Zn	1.011088	-0.208327	0.295412
Zn4	Zn	1.011026	-0.295725	0.419526
O5	O	1.073138	-0.252037	0.357459
O6	O	1.239180	-0.219952	0.403060
O7	O	1.118695	-0.284177	0.191428
O8	O	1.027628	-0.135163	0.311920
O9	O	1.239108	-0.284185	0.311804
O10	O	1.118864	-0.135169	0.403126
O11	O	1.027532	-0.219938	0.191478
O12	O	0.907155	-0.219901	0.311893
O13	O	1.027523	-0.284120	0.523455
O14	O	0.907110	-0.284112	0.403079
O15	O	1.118804	-0.219915	0.523475
O16	O	1.118635	-0.368923	0.311777
O17	O	1.027427	-0.368895	0.403013
C18	C	0.880186	-0.252002	0.357491
C19	C	0.797640	-0.251999	0.357522
C20	C	0.598187	-0.287017	0.406992
C21	C	0.548799	-0.239344	0.425278
C22	C	0.646510	-0.252028	0.357486
C23	C	0.548816	-0.299728	0.339199
C24	C	0.500525	-0.252061	0.357452
C25	C	0.598210	-0.204330	0.375808
C26	C	0.598231	-0.264747	0.289697
C27	C	0.548866	-0.217041	0.307958
C28	C	0.730608	-0.252010	0.357507
C29	C	0.416428	-0.252073	0.357431
C30	C	1.073033	-0.387880	0.357401
C31	C	1.073056	-0.445994	0.357401
C32	C	1.120668	-0.806322	0.405036
C33	C	1.120690	-0.860926	0.405051
O34	O	1.161046	-0.889133	0.445492
N35	N	1.073241	-0.888277	0.357531
C36	C	1.025763	-0.861020	0.309998
O37	O	0.985405	-0.889297	0.269580
C38	C	1.025737	-0.806416	0.309987
C39	C	1.073194	-0.779069	0.357505
C40	C	1.168121	-0.778974	0.452551
C41	C	1.168099	-0.724374	0.452534
C42	C	1.120626	-0.697121	0.405003
C43	C	1.073173	-0.724468	0.357489
C44	C	0.978255	-0.779161	0.262458
C45	C	0.978234	-0.724554	0.262452
C46	C	1.025691	-0.697206	0.309970
C47	C	1.025679	-0.642615	0.309941
N48	N	1.073127	-0.615265	0.357462
C49	C	1.120601	-0.642517	0.404993
C50	C	1.025818	-0.975690	0.310025
C51	C	1.025846	-1.030293	0.310031
C52	C	1.120773	-1.030195	0.405086
C53	C	1.120748	-0.975592	0.405075
C54	C	1.073266	-0.948340	0.357545
C55	C	1.120553	-0.527852	0.404954
C56	C	1.120530	-0.473247	0.404932
C57	C	1.025601	-0.473349	0.309880
C58	C	1.025627	-0.527950	0.309900
C59	C	1.073105	-0.555200	0.357443
O60	O	0.985341	-0.614373	0.269523
O61	O	1.160944	-0.614233	0.445410
C62	C	1.266844	-0.252074	0.357427
C63	C	1.349390	-0.252089	0.357414
C64	C	1.073167	-0.252014	0.551165
C65	C	1.073180	-0.252004	0.633710
C66	C	1.073264	-0.115664	0.357534
C67	C	1.073317	-0.057550	0.357565
C68	C	1.073152	-0.252023	0.164507
C69	C	1.073284	-0.251885	0.081962
C70	C	1.023579	-0.286871	0.833150
C71	C	1.091333	-0.299661	0.882520
C72	C	1.073216	-0.251965	0.784841
C73	C	1.005500	-0.239161	0.882553
C74	C	1.073246	-0.251927	0.930826
C75	C	1.141006	-0.264779	0.833124
C76	C	1.055127	-0.204257	0.833152
C77	C	1.122927	-0.217028	0.882499
C78	C	1.073199	-0.251988	0.700743
C79	C	1.073271	-0.251904	1.014923
H80	H	0.619961	-0.275508	0.232401
N81	N	1.035903	-0.153676	0.805919
N82	N	1.074690	-0.115022	0.822623
H83	H	1.061108	-0.079299	0.803388
H84	H	0.527116	-0.340054	0.323748
N85	N	1.169045	-0.555691	0.453514
N86	N	1.142906	-0.586147	0.500835
H87	H	1.177155	-0.605809	0.535127
H88	H	0.981643	-0.316429	0.811482
N89	N	0.933642	-0.225600	0.909790
N90	N	0.878916	-0.253341	0.893975
H91	H	0.828165	-0.243768	0.913209
H92	H	0.987155	-0.953504	0.271314
N93	N	1.169011	-0.445305	0.453461
N94	N	1.168998	-0.396553	0.453436
H95	H	1.203241	-0.376819	0.487704
H96	H	0.939611	-0.801418	0.223763
H97	H	0.987210	-1.052554	0.271329
N98	N	0.977176	-0.555904	0.261358
N99	N	1.003362	-0.586390	0.214072
H100	H	0.969143	-0.606134	0.179791
N101	N	0.521538	-0.225858	0.497165
N102	N	0.481931	-0.186293	0.505357
H103	H	0.462677	-0.176771	0.556128
N104	N	1.216593	-0.696435	0.501047
N105	N	1.216595	-0.647683	0.501019
H106	H	1.250856	-0.627953	0.535273
H107	H	0.619815	-0.163992	0.391325
H108	H	0.619845	-0.316554	0.448904
N109	N	1.110560	-0.350253	0.909719
N110	N	1.123729	-0.386490	0.865281
H111	H	1.137305	-0.422222	0.884487
H112	H	1.206779	-0.801158	0.491261
N113	N	0.977123	-0.445497	0.261327
N114	N	0.977118	-0.396745	0.261325
H115	H	0.942879	-0.377072	0.227035
H116	H	0.939567	-0.702368	0.223748
H117	H	1.164965	-0.187492	0.904031
N118	N	0.521864	-0.179892	0.255431
N119	N	0.481470	-0.143159	0.276433
H120	H	0.462399	-0.116920	0.239340
N121	N	1.169230	-0.947668	0.453616
N122	N	1.211615	-0.972014	0.496045
H123	H	1.245857	-0.952295	0.530330
N124	N	1.169266	-1.058047	0.453632
N125	N	1.169275	-1.106800	0.453630
H126	H	1.203523	-1.126473	0.487911
H127	H	1.198302	-0.275639	0.811503
