data_functionalizedCrystal
_audit_creation_method	'MofGen! by Chris Wilmer'
_symmetry_space_group_name_H-M	'P1'
_symmetry_Int_Tables_number	1
_symmetry_cell_setting	triclinic
loop_
_symmetry_equiv_pos_as_xyz
  x,y,z
_cell_length_a	18.050591
_cell_length_b	18.050589
_cell_length_c	18.050582
_cell_angle_alpha	90.018205
_cell_angle_beta	90.020922
_cell_angle_gamma	90.024227
loop_
_atom_site_label
_atom_site_type_symbol
_atom_site_fract_x
_atom_site_fract_y
_atom_site_fract_z
Zn1	Zn	1.135293	-0.295786	0.420054
Zn2	Zn	1.635293	0.204214	0.920054
Zn3	Zn	1.135203	-0.419969	0.295873
Zn4	Zn	1.635203	0.080031	0.795873
Zn5	Zn	1.011112	-0.295789	0.295865
Zn6	Zn	1.511112	0.204211	0.795865
Zn7	Zn	1.011060	-0.419930	0.420009
Zn8	Zn	1.511060	0.080070	0.920009
O9	O	1.073167	-0.357868	0.357950
O10	O	1.573167	0.142132	0.857950
O11	O	1.239205	-0.312274	0.403603
O12	O	1.739205	0.187726	0.903603
O13	O	1.118727	-0.403514	0.191948
O14	O	1.618727	0.096486	0.691948
O15	O	1.027644	-0.191864	0.312354
O16	O	1.527644	0.308136	0.812354
O17	O	1.239140	-0.403511	0.312369
O18	O	1.739140	0.096489	0.812369
O19	O	1.118879	-0.191862	0.403595
O20	O	1.618879	0.308138	0.903595
O21	O	1.027557	-0.312279	0.191942
O22	O	1.527557	0.187721	0.691942
O23	O	0.907180	-0.312241	0.312311
O24	O	1.407180	0.187759	0.812311
O25	O	1.027555	-0.403444	0.523940
O26	O	1.527555	0.096556	1.023940
O27	O	0.907142	-0.403447	0.403519
O28	O	1.407142	0.096553	0.903519
O29	O	1.118828	-0.312236	0.523973
O30	O	1.618828	0.187764	1.023973
O31	O	1.118676	-0.523888	0.312325
O32	O	1.618676	-0.023888	0.812325
O33	O	1.027468	-0.523860	0.403527
O34	O	1.527468	-0.023860	0.903527
C35	C	0.880215	-0.357841	0.357909
C36	C	1.380215	0.142159	0.857909
C37	C	0.797669	-0.357847	0.357909
C38	C	1.297669	0.142153	0.857909
C39	C	0.598217	-0.308191	0.308425
C40	C	1.098217	0.191809	0.808425
C41	C	0.548798	-0.375927	0.290154
C42	C	1.048798	0.124073	0.790154
C43	C	0.646539	-0.357869	0.357943
C44	C	1.146539	0.142131	0.857943
C45	C	0.548877	-0.290157	0.376212
C46	C	1.048877	0.209843	0.876212
C47	C	0.500553	-0.357885	0.357974
C48	C	1.000553	0.142115	0.857974
C49	C	0.598206	-0.425641	0.339637
C50	C	1.098206	0.074359	0.839637
C51	C	0.598289	-0.339825	0.425726
C52	C	1.098289	0.160175	0.925726
C53	C	0.548892	-0.407607	0.407481
C54	C	1.048892	0.092393	0.907481
C55	C	0.730637	-0.357859	0.357923
C56	C	1.230637	0.142141	0.857923
C57	C	0.416457	-0.357903	0.357994
C58	C	0.916457	0.142097	0.857994
C59	C	1.073077	-0.550820	0.357938
C60	C	1.573077	-0.050820	0.857938
C61	C	1.073107	-0.633366	0.357958
C62	C	1.573107	-0.133366	0.857958
C63	C	1.023557	-0.832828	0.407536
C64	C	1.523557	-0.332828	0.907536
C65	C	1.005459	-0.882261	0.339767
C66	C	1.505459	-0.382261	0.839767
C67	C	1.073180	-0.784497	0.357967
C68	C	1.573180	-0.284497	0.857967
C69	C	1.091314	-0.882146	0.425744
C70	C	1.591314	-0.382146	0.925744
C71	C	1.073249	-0.930482	0.357983
C72	C	1.573249	-0.430482	0.857983
C73	C	1.055046	-0.832842	0.290162
C74	C	1.555046	-0.332842	0.790162
C75	C	1.140933	-0.832722	0.376186
C76	C	1.640933	-0.332722	0.876186
C77	C	1.122861	-0.882133	0.308370
C78	C	1.622861	-0.382133	0.808370
C79	C	1.073138	-0.700398	0.357959
C80	C	1.573138	-0.200398	0.857959
C81	C	1.073291	-1.014578	0.357983
C82	C	1.573291	-0.514578	0.857983
C83	C	1.266872	-0.357897	0.357992
C84	C	1.766872	0.142103	0.857992
C85	C	1.349418	-0.357909	0.358010
C86	C	1.849418	0.142091	0.858010
C87	C	1.073196	-0.357835	0.551656
C88	C	1.573196	0.142165	1.051656
C89	C	1.073208	-0.357821	0.634202
C90	C	1.573208	0.142179	1.134202
C91	C	1.073277	-0.164163	0.357979
C92	C	1.573277	0.335837	0.857979
C93	C	1.073324	-0.081617	0.357991
C94	C	1.573324	0.418383	0.857991
C95	C	1.073181	-0.357848	0.164998
C96	C	1.573181	0.142152	0.664998
C97	C	1.073312	-0.357652	0.082453
C98	C	1.573312	0.142348	0.582453
C99	C	1.023612	-0.407353	0.833635
C100	C	1.523612	0.092647	1.333635
C101	C	1.091367	-0.425511	0.883034
C102	C	1.591367	0.074489	1.383034
C103	C	1.073245	-0.357765	0.785332
C104	C	1.573245	0.142235	1.285332
C105	C	1.005527	-0.339586	0.883014
C106	C	1.505527	0.160414	1.383014
C107	C	1.073274	-0.357711	0.931317
C108	C	1.573274	0.142289	1.431317
C109	C	1.141036	-0.375958	0.833645
C110	C	1.641036	0.124042	1.333645
C111	C	1.055150	-0.290002	0.833620
C112	C	1.555150	0.209998	1.333620
C113	C	1.122952	-0.308134	0.882998
C114	C	1.622952	0.191866	1.382998
C115	C	1.073227	-0.357797	0.701234
C116	C	1.573227	0.142203	1.201234
C117	C	1.073300	-0.357679	1.015414
C118	C	1.573300	0.142321	1.515414
H119	H	0.619785	-0.482928	0.324134
H120	H	1.119785	0.017072	0.824134
H121	H	1.039669	-0.811275	0.232834
H122	H	1.539669	-0.311275	0.732834
H123	H	0.527169	-0.232894	0.391625
H124	H	1.027169	0.267106	0.891625
H125	H	1.039807	-0.232736	0.811899
H126	H	1.539807	0.267264	1.311899
Br127	Br	0.513018	-0.477716	0.477302
Br128	Br	1.013018	0.022284	0.977302
Br129	Br	1.236534	-0.401665	0.797657
Br130	Br	1.736534	0.098335	1.297657
Br131	Br	1.192858	-0.917989	0.238438
Br132	Br	1.692858	-0.417989	0.738438
H133	H	0.948195	-0.904037	0.324371
H134	H	1.448195	-0.404037	0.824371
Br135	Br	1.116909	-0.520984	0.919211
Br136	Br	1.616909	-0.020984	1.419211
H137	H	0.948246	-0.324232	0.904701
H138	H	1.448246	0.175768	1.404701
H139	H	0.981678	-0.449342	0.811961
H140	H	1.481678	0.050658	1.311961
Br141	Br	1.193007	-0.238201	0.918901
Br142	Br	1.693007	0.261799	1.418901
H143	H	1.106625	-0.903802	0.483056
H144	H	1.606625	-0.403802	0.983056
Br145	Br	0.634318	-0.238244	0.238558
Br146	Br	1.134318	0.261756	0.738558
Br147	Br	0.512566	-0.401388	0.194635
Br148	Br	1.012566	0.098612	0.694635
H149	H	0.620045	-0.324530	0.483019
H150	H	1.120045	0.175470	0.983019
H151	H	1.198184	-0.810948	0.391613
H152	H	1.698184	-0.310948	0.891613
Br153	Br	0.953516	-0.796742	0.477306
Br154	Br	1.453516	-0.296742	0.977306
