data_functionalizedCrystal
_audit_creation_method	'MofGen! by Chris Wilmer'
_symmetry_space_group_name_H-M	'P1'
_symmetry_Int_Tables_number	1
_symmetry_cell_setting	triclinic
loop_
_symmetry_equiv_pos_as_xyz
  x,y,z
_cell_length_a	15.297475
_cell_length_b	18.050589
_cell_length_c	18.050582
_cell_angle_alpha	89.981088
_cell_angle_beta	80.320135
_cell_angle_gamma	80.331321
loop_
_atom_site_label
_atom_site_type_symbol
_atom_site_fract_x
_atom_site_fract_y
_atom_site_fract_z
Zn1	Zn	1.379120	-0.492492	-0.616078
Zn2	Zn	1.879120	0.007508	-0.116078
Zn3	Zn	1.379009	-0.616661	-0.491881
Zn4	Zn	1.879009	-0.116661	0.008119
Zn5	Zn	1.228267	-0.470980	-0.470447
Zn6	Zn	1.728267	0.029020	0.029553
Zn7	Zn	1.228206	-0.595110	-0.594582
Zn8	Zn	1.728206	-0.095110	-0.094582
O9	O	1.303650	-0.543811	-0.543247
O10	O	1.803650	-0.043811	-0.043247
O11	O	1.505349	-0.526985	-0.617569
O12	O	2.005349	-0.026985	-0.117569
O13	O	1.358992	-0.597352	-0.385111
O14	O	1.858992	-0.097352	0.114889
O15	O	1.248350	-0.369919	-0.489791
O16	O	1.748350	0.130081	0.010209
O17	O	1.505267	-0.618212	-0.526323
O18	O	2.005267	-0.118212	-0.026323
O19	O	1.359180	-0.385724	-0.596785
O20	O	1.859180	0.114276	-0.096785
O21	O	1.248242	-0.490320	-0.369363
O22	O	1.748242	0.009680	0.130637
O23	O	1.102015	-0.469424	-0.468948
O24	O	1.602015	0.030576	0.031052
O25	O	1.248246	-0.581482	-0.701361
O26	O	1.748246	-0.081482	-0.201361
O27	O	1.101970	-0.560622	-0.560149
O28	O	1.601970	-0.060622	-0.060149
O29	O	1.359121	-0.506089	-0.717154
O30	O	1.859121	-0.006089	-0.217154
O31	O	1.358933	-0.717717	-0.505479
O32	O	1.858933	-0.217717	-0.005479
O33	O	1.248139	-0.701883	-0.580933
O34	O	1.748139	-0.201883	-0.080933
C35	C	1.069259	-0.510351	-0.509891
C36	C	1.569259	-0.010351	-0.009891
C37	C	0.968986	-0.496054	-0.495638
C38	C	1.468986	0.003946	0.004362
C39	C	0.686338	-0.645995	-0.645114
C40	C	1.186338	-0.145995	-0.145114
C41	C	0.780550	-0.659433	-0.658503
C42	C	1.280550	-0.159433	-0.158503
C43	C	0.827664	-0.618589	-0.617788
C44	C	1.327664	-0.118589	-0.117788
C45	C	0.780556	-0.564306	-0.563682
C46	C	1.280556	-0.064306	-0.063682
C47	C	0.686335	-0.550871	-0.550287
C48	C	1.186335	-0.050871	-0.050287
C49	C	0.827660	-0.523465	-0.522961
C50	C	1.327660	-0.023465	-0.022961
C51	C	0.780552	-0.469181	-0.468855
C52	C	1.280552	0.030819	0.031145
C53	C	0.686340	-0.455748	-0.455463
C54	C	1.186340	0.044252	0.044537
C55	C	0.639227	-0.496592	-0.496178
C56	C	1.139227	0.003408	0.003822
C57	C	0.921881	-0.536900	-0.536356
C58	C	1.421881	-0.036900	-0.036356
C59	C	0.921878	-0.441775	-0.441529
C60	C	1.421878	0.058225	0.058471
C61	C	0.827666	-0.428338	-0.428140
C62	C	1.327666	0.071662	0.071860
C63	C	1.303541	-0.736747	-0.543219
C64	C	1.803541	-0.236747	-0.043219
C65	C	1.303577	-0.819298	-0.543244
C66	C	1.803577	-0.319298	-0.043244
C67	C	1.243387	-1.010174	-0.584267
C68	C	1.743387	-0.510174	-0.084267
C69	C	1.221401	-1.056472	-0.513373
C70	C	1.721401	-0.556472	-0.013373
C71	C	1.303666	-0.970441	-0.543266
C72	C	1.803666	-0.470441	-0.043266
C73	C	1.325696	-1.071232	-0.614175
C74	C	1.825696	-0.571232	-0.114175
C75	C	1.303750	-1.116438	-0.543294
C76	C	1.803750	-0.616438	-0.043294
C77	C	1.281637	-1.015645	-0.472330
C78	C	1.781637	-0.515645	0.027670
C79	C	1.385970	-1.030406	-0.573183
C80	C	1.885970	-0.530406	-0.073183
C81	C	1.364016	-1.076686	-0.502247
C82	C	1.864016	-0.576686	-0.002247
C83	C	1.303615	-0.886336	-0.543251
C84	C	1.803615	-0.386336	-0.043251
C85	C	1.303801	-1.200542	-0.543301
C86	C	1.803801	-0.700542	-0.043301
C87	C	1.538957	-0.577402	-0.576735
C88	C	2.038957	-0.077402	-0.076735
C89	C	1.639230	-0.591717	-0.591005
C90	C	2.139230	-0.091717	-0.091005
C91	C	1.303689	-0.543781	-0.736958
C92	C	1.803689	-0.043781	-0.236958
C93	C	1.303706	-0.543768	-0.819507
C94	C	1.803706	-0.043768	-0.319507
C95	C	1.303784	-0.350124	-0.543295
C96	C	1.803784	0.149876	-0.043295
C97	C	1.303841	-0.267587	-0.543315
C98	C	1.803841	0.232413	-0.043315
C99	C	1.243468	-0.584694	-1.059752
C100	C	1.743468	-0.084694	-0.559752
C101	C	1.221432	-0.513813	-1.007225
C102	C	1.721432	-0.013813	-0.507225
C103	C	1.303782	-0.543670	-1.116638
C104	C	1.803782	-0.043670	-0.616638
C105	C	1.325738	-0.614590	-1.022072
C106	C	1.825738	-0.114590	-0.522072
C107	C	1.303743	-0.543722	-0.970647
C108	C	1.803743	-0.043722	-0.470647
C109	C	1.281704	-0.472746	-1.065192
C110	C	1.781704	0.027254	-0.565192
C111	C	1.386048	-0.573575	-1.080049
C112	C	1.886048	-0.073575	-0.580049
C113	C	1.364043	-0.502651	-1.027548
C114	C	1.864043	-0.002651	-0.527548
C115	C	1.303803	-0.543641	-1.200739
C116	C	1.803803	-0.043641	-0.700739
C117	C	1.303722	-0.543743	-0.886548
C118	C	1.803722	-0.043743	-0.386548
C119	C	1.303663	-0.543794	-0.350297
C120	C	1.803663	-0.043794	0.149703
C121	C	1.303822	-0.543623	-0.267774
C122	C	1.803822	-0.043623	0.232226
H123	H	0.647988	-0.411555	-0.411399
H124	H	1.147988	0.088445	0.088601
H125	H	1.344326	-0.674546	-1.003024
H126	H	1.844326	-0.174546	-0.503024
H127	H	1.262957	-0.991414	-0.412347
H128	H	1.762957	-0.491414	0.087653
H129	H	0.960237	-0.408518	-0.408374
H130	H	1.460237	0.091482	0.091626
H131	H	1.192336	-0.981242	-0.618870
H132	H	1.692336	-0.481242	-0.118870
H133	H	1.263038	-0.412763	-1.084139
H134	H	1.763038	0.087237	-0.584139
H135	H	0.904375	-0.629534	-0.628693
H136	H	1.404375	-0.129534	-0.128693
H137	H	1.415032	-0.467932	-1.013268
H138	H	1.915032	0.032068	-0.513268
H139	H	1.455615	-0.598867	-1.111663
H140	H	1.955615	-0.098867	-0.611663
H141	H	1.151838	-1.068326	-0.488090
H142	H	1.651838	-0.568326	0.011910
H143	H	1.455517	-1.018552	-0.598496
H144	H	1.955517	-0.518552	-0.098496
H145	H	1.415028	-1.105475	-0.467537
H146	H	1.915028	-0.605475	0.032463
H147	H	0.562512	-0.485653	-0.485281
H148	H	1.062512	0.014347	0.014719
H149	H	1.151845	-0.488538	-0.975624
H150	H	1.651845	0.011462	-0.475624
H151	H	1.344296	-1.095541	-0.674131
H152	H	1.844296	-0.595541	-0.174131
H153	H	1.192441	-0.619307	-1.074166
H154	H	1.692441	-0.119307	-0.574166
H155	H	0.818898	-0.703633	-0.702555
H156	H	1.318898	-0.203633	-0.202555
H157	H	0.647970	-0.679249	-0.678254
H158	H	1.147970	-0.179249	-0.178254
H159	H	0.789297	-0.384139	-0.384086
H160	H	1.289297	0.115861	0.115914
H161	H	0.960227	-0.581098	-0.580410
H162	H	1.460227	-0.081098	-0.080410
