data_functionalizedCrystal
_audit_creation_method	'MofGen! by Chris Wilmer'
_symmetry_space_group_name_H-M	'P1'
_symmetry_Int_Tables_number	1
_symmetry_cell_setting	triclinic
loop_
_symmetry_equiv_pos_as_xyz
  x,y,z
_cell_length_a	8.497374
_cell_length_b	17.077404
_cell_length_c	17.077402
_cell_angle_alpha	90.023108
_cell_angle_beta	89.987778
_cell_angle_gamma	89.996537
loop_
_atom_site_label
_atom_site_type_symbol
_atom_site_fract_x
_atom_site_fract_y
_atom_site_fract_z
Zn1	Zn	0.891988	-1.199930	0.312640
Zn2	Zn	0.628173	-1.199874	0.443874
Zn3	Zn	0.628207	-1.068699	0.312627
Zn4	Zn	0.891897	-1.068630	0.443868
O5	O	0.760066	-1.134283	0.378252
O6	O	0.857016	-1.309770	0.330056
O7	O	0.407415	-1.182479	0.426461
O8	O	0.663251	-1.086159	0.202782
O9	O	0.663193	-1.309729	0.426474
O10	O	0.857049	-1.182574	0.202791
O11	O	0.407440	-1.086105	0.330034
O12	O	0.663162	-0.958843	0.330028
O13	O	1.112671	-1.086042	0.426463
O14	O	0.856894	-0.958792	0.426450
O15	O	1.112738	-1.182508	0.330050
O16	O	0.663104	-1.182412	0.553720
O17	O	0.856861	-1.085988	0.553716
C18	C	0.760023	-0.930336	0.378238
C19	C	0.760042	-0.843086	0.378251
C20	C	0.760003	-1.134208	0.582200
C21	C	0.760029	-1.134247	0.669450
C22	C	0.760111	-1.339028	0.378267
C23	C	0.760130	-1.426277	0.378273
C24	C	1.171547	-1.134278	0.378253
C25	C	1.350191	-1.134279	0.378262
C26	C	0.760164	-1.134381	0.173508
C27	C	0.760206	-1.134422	0.086258
C28	C	0.860756	-0.802090	0.428533
C29	C	0.860781	-0.720109	0.428535
C30	C	0.760083	-0.679126	0.378257
C31	C	0.659364	-0.720128	0.327969
C32	C	0.659348	-0.802107	0.327964
C33	C	0.659402	-0.549258	0.327985
C34	C	0.659416	-0.467273	0.327991
C35	C	0.860835	-0.467260	0.428556
C36	C	0.860819	-0.549239	0.428551
C37	C	0.760098	-0.590235	0.378263
C38	C	0.659248	-1.184506	0.710416
C39	C	0.659289	-1.184545	0.792397
C40	C	0.760103	-1.134319	0.833409
C41	C	0.860895	-1.084058	0.792437
C42	C	0.860861	-1.084024	0.710458
C43	C	0.860955	-1.084130	0.963307
C44	C	0.860986	-1.084163	1.045291
C45	C	0.659382	-1.184651	1.045246
C46	C	0.659349	-1.184618	0.963267
C47	C	0.760139	-1.134355	0.922300
H48	H	0.942751	-0.835452	0.469478
H49	H	0.942929	-1.043098	0.677104
C50	C	0.548617	-0.594352	0.272667
H51	H	0.488637	-0.558204	0.242728
H52	H	0.609084	-0.626348	0.238511
H53	H	0.479759	-0.626316	0.302642
C54	C	0.548516	-1.239943	1.090301
H55	H	0.488457	-1.269843	1.054135
H56	H	0.608933	-1.274136	1.122240
H57	H	0.479735	-1.209952	1.122320
C58	C	0.548566	-0.847206	0.272655
H59	H	0.562989	-0.901899	0.279846
H60	H	0.442528	-0.833761	0.284056
H61	H	0.571863	-0.833789	0.219930
H62	H	0.577251	-1.225511	0.929875
C63	C	0.971635	-0.422169	0.483866
H64	H	0.957240	-0.367475	0.476663
H65	H	0.948353	-0.435582	0.536589
H66	H	1.077675	-0.435620	0.472457
C67	C	0.548353	-1.239757	0.665310
H68	H	0.488350	-1.269700	0.701452
H69	H	0.479545	-1.209749	0.633367
H70	H	0.608764	-1.273923	0.633291
H71	H	0.942807	-0.582606	0.469495
H72	H	0.943108	-1.043279	1.078682
H73	H	0.577222	-1.225471	0.825748
C74	C	0.548667	-0.422193	0.272679
H75	H	0.488696	-0.458348	0.242720
H76	H	0.479822	-0.390196	0.302649
H77	H	0.609171	-0.390231	0.238530
H78	H	0.577381	-0.686753	0.287029
H79	H	0.943034	-1.043203	0.929955
H80	H	0.942791	-0.686734	0.469481
C81	C	0.971796	-1.028812	0.837545
H82	H	1.031825	-0.998880	0.801403
H83	H	0.911405	-0.994647	0.869566
H84	H	1.040606	-1.058830	0.869484
