data_functionalizedCrystal
_audit_creation_method	'MofGen! by Chris Wilmer'
_symmetry_space_group_name_H-M	'P1'
_symmetry_Int_Tables_number	1
_symmetry_cell_setting	triclinic
loop_
_symmetry_equiv_pos_as_xyz
  x,y,z
_cell_length_a	29.839134
_cell_length_b	18.215405
_cell_length_c	18.215399
_cell_angle_alpha	90.030551
_cell_angle_beta	90.029416
_cell_angle_gamma	90.019746
loop_
_atom_site_label
_atom_site_type_symbol
_atom_site_fract_x
_atom_site_fract_y
_atom_site_fract_z
Zn1	Zn	-0.686804	0.293093	-0.416291
Zn2	Zn	-0.186804	0.793093	0.083709
Zn3	Zn	-0.686748	0.416164	-0.293219
Zn4	Zn	-0.186748	0.916164	0.206781
Zn5	Zn	-0.611677	0.293105	-0.293217
Zn6	Zn	-0.111677	0.793105	0.206783
Zn7	Zn	-0.611656	0.416111	-0.416223
Zn8	Zn	-0.111656	0.916111	0.083777
O9	O	-0.649222	0.354618	-0.354738
O10	O	-0.149222	0.854618	0.145262
O11	O	-0.749664	0.309435	-0.399994
O12	O	-0.249664	0.809435	0.100006
O13	O	-0.676775	0.399867	-0.190234
O14	O	-0.176775	0.899867	0.309766
O15	O	-0.621675	0.190119	-0.309571
O16	O	-0.121675	0.690119	0.190429
O17	O	-0.749623	0.399855	-0.309573
O18	O	-0.249623	0.899855	0.190427
O19	O	-0.676871	0.190110	-0.399992
O20	O	-0.176871	0.690110	0.100008
O21	O	-0.621621	0.309456	-0.190233
O22	O	-0.121621	0.809456	0.309767
O23	O	-0.548807	0.309405	-0.309506
O24	O	-0.048807	0.809405	0.190494
O25	O	-0.621640	0.399765	-0.519216
O26	O	-0.121640	0.899765	-0.019216
O27	O	-0.548792	0.399777	-0.399877
O28	O	-0.048792	0.899777	0.100123
O29	O	-0.676850	0.309384	-0.519266
O30	O	-0.176850	0.809384	-0.019266
O31	O	-0.676755	0.519141	-0.309508
O32	O	-0.176755	1.019141	0.190492
O33	O	-0.621585	0.519102	-0.399879
O34	O	-0.121585	1.019102	0.100121
C35	C	-0.532499	0.354587	-0.354684
C36	C	-0.032499	0.854587	0.145316
C37	C	-0.482565	0.354591	-0.354679
C38	C	0.017435	0.854591	0.145321
C39	C	-0.649174	0.545824	-0.354702
C40	C	-0.149174	1.045824	0.145298
C41	C	-0.649195	0.627623	-0.354712
C42	C	-0.149195	1.127623	0.145288
C43	C	-0.766400	0.354650	-0.354791
C44	C	-0.266400	0.854650	0.145209
C45	C	-0.816334	0.354664	-0.354814
C46	C	-0.316334	0.854664	0.145186
C47	C	-0.172923	0.401744	-0.401736
C48	C	0.327077	0.901744	0.098264
C49	C	0.014750	0.401765	-0.401769
C50	C	0.514750	0.901765	0.098231
O51	O	0.039014	0.441822	-0.441747
O52	O	0.539014	0.941822	0.058253
N53	N	0.038221	0.354645	-0.354793
N54	N	0.538221	0.854645	0.145207
C55	C	0.014770	0.307513	-0.307809
C56	C	0.514770	0.807513	0.192191
O57	O	0.039039	0.267430	-0.267859
O58	O	0.539039	0.767430	0.232141
C59	C	-0.172903	0.307489	-0.307780
C60	C	0.327097	0.807489	0.192220
C61	C	-0.196370	0.354618	-0.354754
C62	C	0.303630	0.854618	0.145246
C63	C	-0.196390	0.448868	-0.448707
C64	C	0.303610	0.948868	0.051293
C65	C	-0.243306	0.448866	-0.448696
C66	C	0.256694	0.948866	0.051304
C67	C	-0.266754	0.401739	-0.401713
C68	C	0.233246	0.901739	0.098287
C69	C	-0.243286	0.354615	-0.354743
C70	C	0.256714	0.854615	0.145257
C71	C	-0.196353	0.260354	-0.260800
C72	C	0.303647	0.760354	0.239200
C73	C	-0.243274	0.260351	-0.260799
C74	C	0.256726	0.760351	0.239201
C75	C	-0.266742	0.307479	-0.307772
C76	C	0.233258	0.807479	0.192228
C77	C	-0.313649	0.307485	-0.307749
C78	C	0.186351	0.807485	0.192251
N79	N	-0.337119	0.354605	-0.354725
N80	N	0.162881	0.854605	0.145275
C81	C	-0.313671	0.401732	-0.401707
C82	C	0.186329	0.901732	0.098293
C83	C	0.113300	0.307530	-0.307826
C84	C	0.613300	0.807530	0.192174
C85	C	0.160218	0.307537	-0.307832
C86	C	0.660218	0.807537	0.192168
C87	C	0.160196	0.401788	-0.401794
C88	C	0.660196	0.901788	0.098206
C89	C	0.113277	0.401784	-0.401783
C90	C	0.613277	0.901784	0.098217
C91	C	0.089830	0.354650	-0.354802
C92	C	0.589830	0.854650	0.145198
C93	C	-0.412197	0.401723	-0.401679
C94	C	0.087803	0.901723	0.098321
C95	C	-0.459117	0.401718	-0.401661
C96	C	0.040883	0.901718	0.098339
C97	C	-0.459090	0.307464	-0.307703
C98	C	0.040910	0.807464	0.192297
C99	C	-0.412175	0.307472	-0.307718
C100	C	0.087825	0.807472	0.192282
C101	C	-0.388729	0.354603	-0.354712
C102	C	0.111271	0.854603	0.145288
O103	O	-0.337941	0.267443	-0.267797
O104	O	0.162059	0.767443	0.232203
O105	O	-0.337949	0.441798	-0.441663
O106	O	0.162051	0.941798	0.058337
C107	C	-0.126007	0.401747	-0.401748
C108	C	0.373993	0.901747	0.098252
C109	C	-0.102539	0.354623	-0.354777
C110	C	0.397461	0.854623	0.145223
C111	C	-0.125987	0.307496	-0.307795
C112	C	0.374013	0.807496	0.192205
C113	C	-0.055622	0.354630	-0.354783
C114	C	0.444378	0.854630	0.145217
C115	C	-0.032174	0.401757	-0.401765
C116	C	0.467826	0.901757	0.098235
C117	C	-0.055644	0.448877	-0.448742
C118	C	0.444356	0.948877	0.051258
C119	C	-0.102560	0.448874	-0.448730
C120	C	0.397440	0.948874	0.051270
C121	C	-0.102517	0.260376	-0.260819
C122	C	0.397483	0.760376	0.239181
C123	C	-0.055602	0.260383	-0.260833
C124	C	0.444398	0.760383	0.239167
C125	C	-0.032154	0.307510	-0.307816
C126	C	0.467846	0.807510	0.192184
C127	C	-0.649249	0.354567	-0.546691
C128	C	-0.149249	0.854567	-0.046691
C129	C	-0.649261	0.354546	-0.628489
C130	C	-0.149261	0.854546	-0.128489
C131	C	-0.649281	0.162665	-0.354789
C132	C	-0.149281	0.662665	0.145211
C133	C	-0.649307	0.080866	-0.354811
C134	C	-0.149307	0.580866	0.145189
C135	C	-0.677989	0.815813	-0.307742
C136	C	-0.177989	1.315813	0.192258
C137	C	-0.678009	0.892672	-0.307760
C138	C	-0.178009	1.392672	0.192240
C139	C	-0.620511	0.892671	-0.401786
C140	C	-0.120511	1.392671	0.098214
C141	C	-0.620494	0.815814	-0.401771
C142	C	-0.120494	1.315814	0.098229
C143	C	-0.649232	0.777387	-0.354745
C144	C	-0.149232	1.277387	0.145255
C145	C	-0.649270	0.931103	-0.354778
C146	C	-0.149270	1.431103	0.145222
C147	C	-0.649291	1.014436	-0.354797
C148	C	-0.149291	1.514436	0.145203
C149	C	-0.649211	0.694048	-0.354726
C150	C	-0.149211	1.194048	0.145274
C151	C	-0.678019	0.307440	-0.816711
C152	C	-0.178019	0.807440	-0.316711
C153	C	-0.678025	0.307419	-0.893569
C154	C	-0.178025	0.807419	-0.393569
C155	C	-0.620534	0.401537	-0.893506
C156	C	-0.120534	0.901537	-0.393506
C157	C	-0.620527	0.401554	-0.816649
C158	C	-0.120527	0.901554	-0.316649
C159	C	-0.649272	0.354507	-0.778253
C160	C	-0.149272	0.854507	-0.278253
C161	C	-0.649284	0.354468	-0.931969
C162	C	-0.149284	0.854468	-0.431969
C163	C	-0.649290	0.354446	-1.015303
C164	C	-0.149290	0.854446	-0.515303
C165	C	-0.649266	0.354529	-0.694914
C166	C	-0.149266	0.854529	-0.194914
C167	C	-0.649220	0.354615	-0.163531
C168	C	-0.149220	0.854615	0.336469
C169	C	-0.649296	0.354430	-0.081733
C170	C	-0.149296	0.854430	0.418267
H171	H	-0.478222	0.440098	-0.439914
H172	H	0.021778	0.940098	0.060086
O173	O	-0.706017	0.929895	-0.262137
O174	O	-0.206017	1.429895	0.237863
C175	C	-0.750774	0.911028	-0.278333
C176	C	-0.250774	1.411028	0.221667
H177	H	-0.751660	0.855210	-0.306630
H178	H	-0.251660	1.355210	0.193370
H179	H	-0.770945	0.908381	-0.225266
H180	H	-0.270945	1.408381	0.274734
H181	H	-0.765910	0.954236	-0.316200
H182	H	-0.265910	1.454236	0.183800
H183	H	-0.597113	0.923968	-0.440072
H184	H	-0.097113	1.423968	0.059928
H185	H	-0.597131	0.439843	-0.924778
H186	H	-0.097131	0.939843	-0.424778
H187	H	-0.701424	0.269129	-0.785451
H188	H	-0.201424	0.769129	-0.285451
H189	H	-0.478190	0.269097	-0.269449
H190	H	0.021810	0.769097	0.230551
O191	O	-0.592586	0.447349	-0.779400
O192	O	-0.092586	0.947349	-0.279400
C193	C	-0.567211	0.488862	-0.829768
C194	C	-0.067211	0.988862	-0.329768
H195	H	-0.585616	0.491405	-0.884566
H196	H	-0.085616	0.991405	-0.384566
H197	H	-0.562401	0.546849	-0.807538
H198	H	-0.062401	1.046849	-0.307538
H199	H	-0.533100	0.461904	-0.837930
H200	H	-0.033100	0.961904	-0.337930
O201	O	-0.592515	0.778595	-0.447456
O202	O	-0.092515	1.278595	0.052544
C203	C	-0.567159	0.828991	-0.488974
C204	C	-0.067159	1.328991	0.011026
H205	H	-0.565624	0.883802	-0.458840
H206	H	-0.065624	1.383802	0.041160
H207	H	-0.531756	0.806816	-0.496756
H208	H	-0.031756	1.306816	0.003244
H209	H	-0.583592	0.837106	-0.544898
H210	H	-0.083592	1.337106	-0.044898
H211	H	-0.393114	0.440100	-0.439948
H212	H	0.106886	0.940100	0.060052
O213	O	-0.705971	0.261800	-0.931010
O214	O	-0.205971	0.761800	-0.431010
C215	C	-0.734985	0.303693	-0.975463
C216	C	-0.234985	0.803693	-0.475463
H217	H	-0.719126	0.359458	-0.986951
H218	H	-0.219126	0.859458	-0.486951
H219	H	-0.741017	0.273703	-1.029521
H220	H	-0.241017	0.773703	-0.529521
H221	H	-0.768275	0.311791	-0.945864
H222	H	-0.268275	0.811791	-0.445864
H223	H	-0.701390	0.784527	-0.269452
H224	H	-0.201390	1.284527	0.230548
O225	O	-0.266030	0.214645	-0.215051
O226	O	0.233970	0.714645	0.284949
C227	C	-0.254523	0.230624	-0.141678
C228	C	0.245477	0.730624	0.358322
H229	H	-0.241613	0.289412	-0.137860
H230	H	0.258387	0.789412	0.362140
H231	H	-0.285363	0.224236	-0.105322
H232	H	0.214637	0.724236	0.394678
H233	H	-0.227288	0.191145	-0.122521
H234	H	0.272712	0.691145	0.377479
O235	O	-0.266030	0.494665	-0.494401
O236	O	0.233970	0.994665	0.005599
C237	C	-0.235265	0.536267	-0.535854
C238	C	0.264735	1.036267	-0.035854
H239	H	-0.201828	0.506125	-0.538452
H240	H	0.298172	1.006125	-0.038452
H241	H	-0.248836	0.544188	-0.593824
H242	H	0.251164	1.044188	-0.093824
H243	H	-0.230255	0.592126	-0.508806
H244	H	0.269745	1.092126	-0.008806
H245	H	-0.177304	0.487245	-0.486970
H246	H	0.322696	0.987245	0.013030
H247	H	0.179295	0.440161	-0.440048
H248	H	0.679295	0.940161	0.059952
O249	O	0.090552	0.447584	-0.447487
O250	O	0.590552	0.947584	0.052513
C251	C	0.121314	0.489192	-0.488937
C252	C	0.621314	0.989192	0.011063
H253	H	0.154752	0.459054	-0.491538
H254	H	0.654752	0.959054	0.008462
H255	H	0.107743	0.497115	-0.546907
H256	H	0.607743	0.997115	-0.046907
H257	H	0.126322	0.545050	-0.461886
H258	H	0.626322	1.045050	0.038114
O259	O	-0.125332	0.494573	-0.494471
O260	O	0.374668	0.994573	0.005529
C261	C	-0.113884	0.478592	-0.567846
C262	C	0.386116	0.978592	-0.067846
H263	H	-0.101002	0.419803	-0.571665
H264	H	0.398998	0.919803	-0.071665
H265	H	-0.144748	0.484980	-0.604195
H266	H	0.355252	0.984980	-0.104195
H267	H	-0.086646	0.518069	-0.587010
H268	H	0.413354	1.018069	-0.087010
H269	H	0.094214	0.269147	-0.269565
H270	H	0.594214	0.769147	0.230435
O271	O	0.182942	0.261693	-0.262172
O272	O	0.682942	0.761693	0.237828
C273	C	0.152180	0.220112	-0.220695
C274	C	0.652180	0.720112	0.279305
H275	H	0.118725	0.217603	-0.250842
H276	H	0.618725	0.717603	0.249158
H277	H	0.165726	0.162118	-0.212951
H278	H	0.665726	0.662118	0.287049
H279	H	0.147214	0.246988	-0.164752
H280	H	0.647214	0.746988	0.335248
H281	H	-0.036498	0.222007	-0.222575
H282	H	0.463502	0.722007	0.277425
O283	O	-0.173553	0.214688	-0.215067
O284	O	0.326447	0.714688	0.284933
C285	C	-0.146391	0.256536	-0.167465
C286	C	0.353609	0.756536	0.332535
H287	H	-0.160512	0.314498	-0.162847
H288	H	0.339488	0.814498	0.337153
H289	H	-0.145866	0.229868	-0.110867
H290	H	0.354134	0.729868	0.389133
H291	H	-0.110833	0.259082	-0.190188
H292	H	0.389167	0.759082	0.309812
H293	H	-0.036545	0.487252	-0.486994
H294	H	0.463455	0.987252	0.013006
O295	O	-0.389421	0.261733	-0.261988
O296	O	0.110579	0.761733	0.238012
C297	C	-0.400835	0.277726	-0.188602
C298	C	0.099165	0.777726	0.311398
H299	H	-0.434895	0.306012	-0.187003
H300	H	0.065105	0.806012	0.312997
H301	H	-0.402433	0.224567	-0.155704
H302	H	0.097567	0.724567	0.344296
H303	H	-0.374409	0.315529	-0.163757
H304	H	0.125591	0.815529	0.336243
O305	O	-0.125221	0.214573	-0.215107
O306	O	0.374779	0.714573	0.284893
C307	C	-0.094440	0.172975	-0.173667
C308	C	0.405560	0.672975	0.326333
H309	H	-0.060990	0.203123	-0.171080
H310	H	0.439010	0.703123	0.328920
H311	H	-0.107969	0.165050	-0.115691
H312	H	0.392031	0.665050	0.384309
H313	H	-0.089470	0.117117	-0.200717
H314	H	0.410530	0.617117	0.299283
