data_functionalizedCrystal
_audit_creation_method	'MofGen! by Chris Wilmer'
_symmetry_space_group_name_H-M	'P1'
_symmetry_Int_Tables_number	1
_symmetry_cell_setting	triclinic
loop_
_symmetry_equiv_pos_as_xyz
  x,y,z
_cell_length_a	13.032831
_cell_length_b	25.639239
_cell_length_c	13.032268
_cell_angle_alpha	82.858283
_cell_angle_beta	89.113023
_cell_angle_gamma	82.842759
loop_
_atom_site_label
_atom_site_type_symbol
_atom_site_fract_x
_atom_site_fract_y
_atom_site_fract_z
Zn1	Zn	1.498234	-0.353075	0.780741
Zn2	Zn	1.519922	-0.430970	0.608740
Zn3	Zn	1.348108	-0.331235	0.586988
Zn4	Zn	1.326172	-0.428143	0.758866
O5	O	1.423109	-0.385856	0.683834
O6	O	1.645024	-0.373731	0.776183
O7	O	1.515387	-0.409782	0.461940
O8	O	1.368126	-0.260977	0.612741
O9	O	1.660959	-0.430960	0.649815
O10	O	1.478423	-0.277023	0.755090
O11	O	1.389156	-0.336508	0.445959
O12	O	1.201284	-0.333767	0.591530
O13	O	1.330740	-0.426142	0.905683
O14	O	1.185169	-0.404965	0.717808
O15	O	1.457153	-0.370990	0.921754
O16	O	1.494117	-0.503750	0.628604
O17	O	1.351770	-0.501673	0.738901
C18	C	1.155911	-0.366689	0.649935
C19	C	1.041600	-0.358504	0.635458
C20	C	0.982702	-0.390128	0.691390
C21	C	0.864555	-0.381668	0.676428
C22	C	1.422942	-0.521683	0.683765
C23	C	1.422960	-0.579799	0.683782
C24	C	1.497387	-0.941263	0.626536
C25	C	1.497425	-0.995870	0.626555
O26	O	1.560532	-1.025027	0.577808
N27	N	1.423281	-1.022111	0.683925
C28	C	1.349101	-0.993742	0.741288
O29	O	1.286040	-1.021077	0.790088
C30	C	1.349068	-0.939136	0.741275
C31	C	1.423210	-0.912897	0.683893
C32	C	1.571523	-0.915024	0.569160
C33	C	1.571484	-0.860419	0.569140
C34	C	1.497307	-0.832054	0.626496
C35	C	1.423171	-0.858293	0.683872
C36	C	1.274894	-0.910769	0.798643
C37	C	1.274868	-0.856159	0.798625
C38	C	1.349010	-0.829920	0.741243
C39	C	1.348955	-0.775323	0.741209
N40	N	1.423098	-0.749082	0.683839
C41	C	1.497275	-0.777448	0.626482
C42	C	1.349176	-1.108419	0.741314
C43	C	1.349204	-1.163024	0.741322
C44	C	1.497529	-1.165149	0.626590
C45	C	1.497496	-1.110542	0.626577
C46	C	1.423320	-1.082179	0.683944
C47	C	1.497185	-0.662774	0.626444
C48	C	1.497137	-0.608165	0.626425
C49	C	1.348815	-0.606046	0.741161
C50	C	1.348860	-0.660650	0.741176
C51	C	1.423054	-0.689013	0.683815
O52	O	1.285883	-0.746133	0.789934
O53	O	1.560333	-0.750108	0.577701
C54	C	1.691350	-0.405097	0.717865
C55	C	1.805658	-0.413297	0.732368
C56	C	1.389080	-0.400687	0.952077
C57	C	1.374579	-0.407007	1.066386
C58	C	1.423302	-0.249501	0.683929
C59	C	1.423384	-0.191395	0.683970
C60	C	1.457064	-0.371048	0.416642
C61	C	1.471765	-0.364595	0.302358
C62	C	1.430661	-0.382537	1.125301
C63	C	1.415675	-0.389069	1.243446
H64	H	1.019744	-0.423463	0.750355
O65	O	0.997393	-0.318800	0.564989
C66	C	0.943629	-0.340420	0.490659
H67	H	0.976846	-0.383539	0.488248
H68	H	0.952349	-0.316988	0.411410
H69	H	0.858221	-0.338216	0.512211
H70	H	1.489766	-0.356749	1.088273
O71	O	1.303985	-0.437772	1.110378
C72	C	1.254770	-0.459268	1.032663
H73	H	1.260885	-0.433396	0.955620
H74	H	1.169815	-0.460741	1.053499
H75	H	1.293810	-0.501048	1.026028
O76	O	1.345233	-0.419835	1.287775
C77	C	1.345941	-0.419502	1.395866
H78	H	1.423495	-0.408870	1.420514
H79	H	1.333767	-0.460405	1.435855
H80	H	1.281137	-0.388962	1.418636
O81	O	1.569264	-0.582763	0.570663
C82	C	1.634726	-0.619511	0.520027
H83	H	1.632932	-0.661008	0.562619
H84	H	1.717136	-0.608901	0.519397
H85	H	1.607045	-0.618341	0.437123
H86	H	1.557869	-1.089182	0.579852
H87	H	1.557930	-1.188254	0.579892
H88	H	1.557603	-0.685862	0.579737
O89	O	1.542409	-0.333871	1.258323
C90	C	1.641606	-0.354087	1.297461
H91	H	1.633898	-0.378618	1.375746
H92	H	1.687321	-0.319859	1.306891
H93	H	1.683813	-0.380132	1.241395
O94	O	0.849938	-0.453009	0.802784
C95	C	0.903660	-0.431391	0.877149
H96	H	0.924268	-0.390882	0.843032
H97	H	0.977487	-0.458829	0.900362
H98	H	0.852668	-0.426983	0.948184
H99	H	1.631859	-0.839059	0.522418
O100	O	0.820216	-0.341939	0.606082
C101	C	0.712123	-0.342335	0.606808
H102	H	0.693267	-0.383525	0.638526
H103	H	0.680984	-0.331570	0.524640
H104	H	0.674711	-0.312229	0.657842
O105	O	1.277266	-1.188500	0.797216
C106	C	1.286630	-1.182382	0.902564
H107	H	1.368109	-1.173510	0.918238
H108	H	1.271303	-1.220456	0.952256
H109	H	1.228051	-1.148235	0.922386
O110	O	1.643627	-0.942489	0.513343
C111	C	1.709061	-0.907611	0.462729
H112	H	1.667361	-0.865492	0.453798
H113	H	1.730382	-0.919700	0.383106
H114	H	1.782350	-0.909440	0.510352
O115	O	1.277075	-1.080799	0.796884
C116	C	1.218092	-1.041267	0.729848
H117	H	1.264306	-1.031373	0.656551
H118	H	1.198927	-1.004195	0.769969
H119	H	1.143350	-1.056266	0.708816
O120	O	1.202829	-0.936171	0.854482
C121	C	1.137352	-0.899413	0.905080
H122	H	1.179003	-0.863686	0.913989
H123	H	1.116053	-0.918863	0.984712
H124	H	1.064053	-0.885969	0.857456
H125	H	1.214465	-0.833068	0.845344
H126	H	1.288491	-0.682015	0.787904
H127	H	1.288419	-0.582942	0.787857
