data_functionalizedCrystal
_audit_creation_method	'MofGen! by Chris Wilmer'
_symmetry_space_group_name_H-M	'P1'
_symmetry_Int_Tables_number	1
_symmetry_cell_setting	triclinic
loop_
_symmetry_equiv_pos_as_xyz
  x,y,z
_cell_length_a	6.394989
_cell_length_b	17.699083
_cell_length_c	16.176319
_cell_angle_alpha	89.998611
_cell_angle_beta	89.996370
_cell_angle_gamma	84.890363
loop_
_atom_site_label
_atom_site_type_symbol
_atom_site_fract_x
_atom_site_fract_y
_atom_site_fract_z
O1	O	0.264132	1.006774	-0.068625
O2	O	0.298496	0.786747	-0.068651
O3	O	-0.022766	0.899883	-0.068639
O4	O	0.585394	0.893637	-0.068638
O5	O	-0.022787	0.899867	0.068855
O6	O	0.298475	0.786730	0.068842
O7	O	0.264111	1.006758	0.068868
Cu8	Cu	0.281291	0.896743	0.081409
Cu9	Cu	0.281315	0.896762	-0.081192
O10	O	0.585373	0.893621	0.068856
C11	C	0.297254	0.758529	0.000092
C12	C	0.293560	0.674473	0.000082
N13	N	0.281273	0.896735	0.195775
C14	C	0.482134	0.627777	0.000082
C15	C	0.478651	0.548798	0.000093
C16	C	0.286591	0.516517	0.000097
C17	C	0.098003	0.563220	0.000099
C18	C	0.101488	0.642197	0.000094
C19	C	0.083942	0.244713	0.000119
C20	C	0.080470	0.165730	0.000122
C21	C	0.461104	0.151314	0.000118
C22	C	0.464590	0.230291	0.000113
C23	C	0.276002	0.276987	0.000120
C24	C	0.279782	0.362625	0.000110
C25	C	0.282810	0.430881	0.000101
C26	C	0.663199	0.894864	0.000105
C27	C	0.899414	0.898639	0.000103
C28	C	0.265353	1.034976	0.000123
C29	C	0.269047	1.119031	0.000128
N30	N	0.281317	0.896776	-0.195558
C31	C	0.139076	0.946848	0.239044
C32	C	0.139074	0.946852	0.325591
C33	C	0.281280	0.896746	0.368867
C34	C	0.423484	0.846627	0.325591
C35	C	0.423474	0.846620	0.239046
C36	C	0.423523	0.846653	0.674620
C37	C	0.423526	0.846666	0.761171
C38	C	0.139123	0.946885	0.761165
C39	C	0.139113	0.946878	0.674620
C40	C	0.281308	0.896757	0.631351
C41	C	0.281306	0.896753	0.537507
C42	C	0.281294	0.896753	0.462710
H43	H	0.632207	0.510780	0.000092
H44	H	0.539264	0.805826	0.360831
C45	C	0.790123	0.242303	-0.070570
C46	C	0.675717	0.265766	0.000107
H47	H	0.920473	0.264199	-0.070568
H48	H	0.712507	0.258213	-0.118508
H49	H	0.815007	0.188582	-0.070557
H50	H	0.650819	0.319487	0.000092
H51	H	0.753350	0.249860	0.048058
H52	H	0.023285	0.987657	0.360821
H53	H	0.614661	0.113284	0.000117
H54	H	0.539263	0.805812	0.203816
H55	H	-0.058376	0.536930	0.000114
C56	C	-0.144287	0.085280	-0.070550
C57	C	-0.130660	0.130246	0.000130
H58	H	-0.274628	0.063378	-0.070547
H59	H	-0.032485	0.046171	-0.070548
H60	H	-0.135023	0.115800	-0.118492
H61	H	-0.139908	0.099725	0.048072
H62	H	-0.242492	0.169361	0.000135
H63	H	0.638531	0.654053	0.000078
C64	C	-0.142035	1.045939	0.683309
C65	C	-0.017211	1.001953	0.627052
H66	H	-0.238556	1.079935	0.653942
H67	H	-0.055187	1.073993	0.717054
H68	H	-0.217044	1.013715	0.717076
H69	H	0.057810	1.034176	0.593289
H70	H	-0.104070	0.973897	0.593293
C71	C	-0.221864	0.678810	-0.070593
C72	C	-0.105794	0.693532	0.000087
H73	H	-0.349827	0.710506	-0.070596
H74	H	-0.251427	0.627161	-0.070584
H75	H	-0.143061	0.688791	-0.118535
H76	H	-0.184591	0.683545	0.048029
H77	H	-0.076236	0.745192	0.000086
C78	C	-0.142066	1.045909	0.247741
C79	C	-0.017249	1.001926	0.191480
H80	H	-0.238588	1.079907	0.218376
H81	H	-0.055215	1.073961	0.281486
H82	H	-0.217075	1.013684	0.281506
H83	H	0.057772	1.034150	0.157718
H84	H	-0.104112	0.973871	0.157720
C85	C	0.704629	0.747578	0.752488
C86	C	0.579831	0.791577	0.808742
H87	H	0.801108	0.713569	0.781859
H88	H	0.779667	0.779786	0.718727
H89	H	0.617744	0.719531	0.718738
H90	H	0.666716	0.819629	0.842488
H91	H	0.504789	0.759366	0.842518
C92	C	0.707846	0.832933	0.577299
C93	C	0.579856	0.791571	0.627069
H94	H	0.804361	0.798926	0.547939
H95	H	0.782841	0.865153	0.611056
H96	H	0.623130	0.862763	0.539137
H97	H	0.664571	0.761746	0.665236
H98	H	0.504855	0.759339	0.593309
H99	H	0.023333	0.987694	0.796404
H100	H	-0.069618	0.282724	0.000125
