data_functionalizedCrystal
_audit_creation_method	'MofGen! by Chris Wilmer'
_symmetry_space_group_name_H-M	'P1'
_symmetry_Int_Tables_number	1
_symmetry_cell_setting	triclinic
loop_
_symmetry_equiv_pos_as_xyz
  x,y,z
_cell_length_a	6.817900
_cell_length_b	11.102289
_cell_length_c	10.992410
_cell_angle_alpha	91.891801
_cell_angle_beta	108.764651
_cell_angle_gamma	108.605707
loop_
_atom_site_label
_atom_site_type_symbol
_atom_site_fract_x
_atom_site_fract_y
_atom_site_fract_z
V1	V	-4.113419	-0.175839	-0.400593
O2	O	-4.072416	0.008450	-0.392967
O3	O	-4.090183	-0.348659	-0.397853
O4	O	-4.091024	-0.173134	-0.575305
O5	O	-4.071569	-0.168290	-0.214287
V6	V	-4.590417	-0.153796	-0.378309
O7	O	-4.388992	-0.224192	-0.449474
O8	O	-4.765042	-0.105443	-0.329428
O9	O	-4.390446	0.019024	-0.381049
O10	O	-4.748817	-0.338085	-0.385935
O11	O	-4.749664	-0.161345	-0.564615
O12	O	-4.389605	-0.156501	-0.203597
C13	C	-3.940464	-0.390789	-0.391533
C14	C	-4.002926	-0.532072	-0.390458
C15	C	-4.216309	-0.604920	-0.396362
C16	C	-4.274992	-0.737672	-0.395362
C17	C	-3.906887	-0.724714	-0.382549
C18	C	-3.848211	-0.591966	-0.383558
C19	C	-4.428829	-0.612402	-0.403753
C20	C	-4.487513	-0.745153	-0.402754
C21	C	-3.941535	-0.166888	-0.617890
C22	C	-4.004675	-0.165820	-0.760718
C23	C	-3.871844	-0.156090	-0.955842
C24	C	-3.806286	-0.157727	-0.807358
C25	C	-4.202100	-0.291131	-0.837822
C26	C	-4.266419	-0.290023	-0.986389
C27	C	-4.145329	-0.047376	-0.948357
C28	C	-4.074622	-0.046782	-0.799344
C29	C	-4.203508	0.061147	-0.387365
C30	C	-4.120285	0.202429	-0.388449
C31	C	-4.202436	-0.162751	-0.161005
C32	C	-4.118534	-0.163813	-0.018176
H33	H	-4.428470	-0.559175	-0.313164
H34	H	-4.619770	-0.803020	-0.497939
H35	H	-3.780932	-0.773496	-0.376932
H36	H	-4.538406	-0.770122	-0.314989
C37	C	-3.837609	-0.269118	-1.020653
C38	C	-4.032557	-0.368264	-1.129824
C39	C	-3.998334	-0.481298	-1.194632
C40	C	-3.769162	-0.495187	-1.150270
C41	C	-3.574198	-0.396037	-1.041094
C42	C	-3.608421	-0.283003	-0.976285
H43	H	-4.202218	-0.357986	-1.162668
H44	H	-4.142661	-0.554695	-1.275452
H45	H	-3.743828	-0.578861	-1.198246
H46	H	-3.404537	-0.406316	-1.008249
H47	H	-3.464094	-0.209607	-0.895466
C48	C	-4.580516	-0.586421	-0.529987
C49	C	-4.762078	-0.699600	-0.630741
C50	C	-4.913757	-0.673619	-0.756971
C51	C	-4.883873	-0.534458	-0.782449
C52	C	-4.702303	-0.421270	-0.681693
C53	C	-4.550624	-0.447251	-0.555463
H54	H	-4.784208	-0.802624	-0.611883
H55	H	-5.048168	-0.757409	-0.831557
H56	H	-4.996155	-0.515225	-0.875893
H57	H	-4.680173	-0.318246	-0.700551
H58	H	-4.416213	-0.363461	-0.480877
H59	H	-3.658255	-0.067623	-0.754018
H60	H	-3.755068	-0.065366	-0.974671
C61	C	-4.006877	0.081189	-0.975823
C62	C	-3.754431	0.118464	-0.935025
C63	C	-3.615948	0.247025	-0.962480
C64	C	-3.729911	0.338311	-1.030732
C65	C	-3.982371	0.301038	-1.071534
C66	C	-4.120854	0.172477	-1.044079
H67	H	-3.670057	0.050887	-0.884497
H68	H	-3.429060	0.274617	-0.932275
H69	H	-3.627397	0.433480	-1.051055
H70	H	-4.066745	0.368615	-1.122062
H71	H	-4.307742	0.144886	-1.074284
H72	H	-3.748706	-0.242550	-0.782544
H73	H	-3.674468	-0.532660	-0.378765
H74	H	-4.250441	-0.378187	-1.032659
H75	H	-4.448369	-0.300919	-1.029020
H76	H	-3.931806	0.045918	-0.746986
H77	H	-4.352427	-0.301578	-0.809019
H78	H	-4.155922	-0.379511	-0.812217
H79	H	-4.216742	-0.045310	-0.766832
H80	H	-4.324291	-0.051930	-0.989198
