data_functionalizedCrystal
_audit_creation_method	'MofGen! by Chris Wilmer'
_symmetry_space_group_name_H-M	'P1'
_symmetry_Int_Tables_number	1
_symmetry_cell_setting	triclinic
loop_
_symmetry_equiv_pos_as_xyz
  x,y,z
_cell_length_a	16.992694
_cell_length_b	13.339070
_cell_length_c	15.455313
_cell_angle_alpha	93.394339
_cell_angle_beta	87.142206
_cell_angle_gamma	103.148759
loop_
_atom_site_label
_atom_site_type_symbol
_atom_site_fract_x
_atom_site_fract_y
_atom_site_fract_z
O1	O	1.090408	0.214131	-0.072012
O2	O	0.861603	0.211734	-0.072038
O3	O	0.949746	0.063546	-0.072026
O4	O	1.002265	0.362319	-0.072025
O5	O	0.944697	0.071983	0.072236
O6	O	0.856554	0.220171	0.072223
O7	O	1.085360	0.222568	0.072249
Cu8	Cu	0.970496	0.222140	0.085408
Cu9	Cu	0.976466	0.212163	-0.085197
O10	O	0.997216	0.370756	0.072237
C11	C	0.829195	0.212871	0.000089
C12	C	0.740151	0.203676	0.000079
C13	C	0.709211	0.292390	0.000080
C14	C	0.625543	0.283745	0.000092
C15	C	0.572817	0.186386	0.000097
C16	C	0.603762	0.097666	0.000099
C17	C	0.687429	0.106311	0.000093
C18	C	0.321423	0.150552	0.000120
C19	C	0.237751	0.141912	0.000123
C20	C	0.259538	0.327993	0.000118
C21	C	0.343205	0.336630	0.000107
C22	C	0.374143	0.247910	0.000114
N23	N	0.487295	0.177547	0.000107
N24	N	0.459663	0.256750	0.000110
C25	C	0.938350	0.029358	0.000103
C26	C	0.911906	-0.085082	0.000097
C27	C	1.117519	-0.433251	0.000120
C28	C	1.142367	-0.325728	0.000131
C29	C	1.084754	-0.265562	0.000122
C30	C	1.002289	-0.312927	0.000103
C31	C	0.977439	-0.420460	0.000099
C32	C	0.944673	-0.252771	0.000101
C33	C	0.862209	-0.300136	0.000081
C34	C	0.837363	-0.407658	0.000077
C35	C	0.894976	-0.467825	0.000086
C36	C	0.969524	-0.145238	0.000105
C37	C	0.829443	-0.132447	0.000083
C38	C	0.804596	-0.239969	0.000072
C39	C	1.117767	0.221431	0.000120
C40	C	1.206811	0.230626	0.000124
C41	C	1.008612	0.404944	0.000106
C42	C	1.035056	0.519384	0.000107
N43	N	0.966302	0.229157	0.205403
N44	N	0.980664	0.205137	-0.205192
C45	C	1.003772	0.166228	0.250803
C46	C	1.000610	0.171545	0.341610
C47	C	0.959983	0.239798	0.387017
C48	C	0.922508	0.302729	0.341611
C49	C	0.925665	0.297406	0.250805
C50	C	0.946347	0.262746	0.658596
C51	C	0.943195	0.268067	0.749408
C52	C	1.021296	0.136880	0.749401
C53	C	1.024454	0.131568	0.658594
C54	C	0.986976	0.194496	0.613196
N55	N	0.956752	0.245237	0.479836
N56	N	0.990202	0.189051	0.520378
H57	H	0.346601	0.078309	0.000126
O58	O	0.595441	0.369897	0.000238
C59	C	0.545078	0.374832	0.074943
H60	H	0.562295	0.327708	0.127170
H61	H	0.552884	0.458492	0.100011
H62	H	0.479332	0.342290	0.058059
H63	H	1.036667	-0.106684	0.000121
O64	O	0.229347	0.414068	0.000158
C65	C	0.144197	0.385565	0.000142
H66	H	0.122457	0.306022	0.027453
H67	H	0.117897	0.444149	0.042028
H68	H	0.123382	0.383476	-0.069066
O69	O	0.909849	0.323733	0.614461
C70	C	0.850446	0.261502	0.561927
H71	H	0.830470	0.181787	0.589298
H72	H	0.796181	0.298291	0.560898
H73	H	0.876649	0.254106	0.493105
H74	H	0.752136	0.371670	0.000076
H75	H	0.889423	0.358298	0.378586
O76	O	0.724464	-0.285860	0.000173
C77	C	0.685309	-0.251353	0.074893
H78	H	0.722388	-0.173644	0.099811
H79	H	0.622675	-0.242809	0.058078
H80	H	0.679202	-0.309702	0.127208
H81	H	0.910110	0.323650	0.786374
O82	O	0.186419	0.047409	0.000098
C83	C	0.105940	0.058809	0.000120
H84	H	0.104829	0.135986	-0.027200
H85	H	0.068643	-0.006349	-0.041754
H86	H	0.079269	0.056008	0.069331
O87	O	1.222432	-0.279553	0.000180
C88	C	1.232012	-0.171749	0.000161
H89	H	1.174258	-0.149968	0.027468
H90	H	1.284721	-0.132521	0.042049
H91	H	1.244805	-0.145583	-0.069047
O92	O	1.173555	-0.491594	0.000014
C93	C	1.224841	-0.473607	-0.074703
H94	H	1.223848	-0.395172	-0.099615
H95	H	1.289173	-0.474808	-0.057888
H96	H	1.202976	-0.536296	-0.127023
O97	O	0.870943	-0.572291	-0.000039
C98	C	0.903662	-0.616081	-0.074764
H99	H	0.959747	-0.559300	-0.099664
H100	H	0.920887	-0.690178	-0.057964
H101	H	0.856810	-0.634173	-0.127088
O102	O	1.037072	0.110572	0.385811
C103	C	1.096494	0.172825	0.438310
H104	H	1.081748	0.251603	0.451906
H105	H	1.097552	0.134622	0.502170
H106	H	1.158229	0.182589	0.403309
H107	H	1.057536	0.075991	0.621626
H108	H	1.051808	0.085646	0.786373
H109	H	0.560826	0.018394	0.000115
H110	H	0.770215	-0.446220	0.000068
O111	O	0.773578	-0.073862	0.000033
C112	C	0.813193	0.031200	0.000058
H113	H	0.877735	0.038788	-0.027244
H114	H	0.779375	0.073704	-0.041831
H115	H	0.814501	0.066064	0.069268
H116	H	1.036859	0.110654	0.213839
O117	O	0.889257	0.358644	0.206836
C118	C	0.852705	0.420010	0.266382
H119	H	0.883434	0.427640	0.331107
H120	H	0.859325	0.499713	0.240137
H121	H	0.785799	0.382301	0.276052
H122	H	0.386130	0.415910	0.000093
H123	H	0.712618	0.034071	0.000092
H124	H	1.104990	-0.178013	0.000131
