data_functionalizedCrystal
_audit_creation_method	'MofGen! by Chris Wilmer'
_symmetry_space_group_name_H-M	'P1'
_symmetry_Int_Tables_number	1
_symmetry_cell_setting	triclinic
loop_
_symmetry_equiv_pos_as_xyz
  x,y,z
_cell_length_a	27.732064
_cell_length_b	27.731996
_cell_length_c	16.053802
_cell_angle_alpha	92.537600
_cell_angle_beta	87.447638
_cell_angle_gamma	82.635407
loop_
_atom_site_label
_atom_site_type_symbol
_atom_site_fract_x
_atom_site_fract_y
_atom_site_fract_z
O1	O	0.642962	0.055510	-0.069290
O2	O	1.142962	0.555510	0.430710
O3	O	0.502169	0.064247	-0.069326
O4	O	1.002169	0.564247	0.430674
O5	O	0.576951	-0.010519	-0.069289
O6	O	1.076951	0.489481	0.430711
O7	O	0.568180	0.130276	-0.069327
O8	O	1.068180	0.630276	0.430673
O9	O	0.572835	-0.006421	0.069568
O10	O	1.072835	0.493579	0.569568
O11	O	0.498053	0.068345	0.069531
O12	O	0.998053	0.568345	0.569531
O13	O	0.638846	0.059609	0.069567
O14	O	1.138846	0.559609	0.569567
Zn15	Zn	0.567796	0.064628	0.091595
Zn16	Zn	1.067796	0.564628	0.591595
Zn17	Zn	0.573219	0.059228	-0.091355
Zn18	Zn	1.073219	0.559228	0.408645
O19	O	0.564064	0.134375	0.069530
O20	O	1.064064	0.634375	0.569530
C21	C	0.482104	0.066111	0.000098
C22	C	0.982104	0.566111	0.500098
C23	C	0.428450	0.065555	0.000085
C24	C	0.928450	0.565555	0.500085
C25	C	0.051385	0.017588	0.000146
C26	C	0.551385	0.517588	0.500146
C27	C	0.253045	0.019634	0.000124
C28	C	0.753045	0.519634	0.500124
O29	O	0.284304	-0.017587	0.000165
O30	O	0.784304	0.482413	0.500165
N31	N	0.272165	0.063969	0.000108
N32	N	0.772165	0.563969	0.500108
C33	C	0.240866	0.107796	0.000103
C34	C	0.740866	0.607796	0.500103
O35	O	0.261755	0.145552	0.000098
O36	O	0.761755	0.645552	0.500098
C37	C	0.039206	0.105750	0.000131
C38	C	0.539206	0.605750	0.500131
C39	C	0.020090	0.061412	0.000139
C40	C	0.520090	0.561412	0.500139
C41	C	0.032268	-0.026746	0.000154
C42	C	0.532268	0.473254	0.500154
C43	C	-0.018144	-0.027257	0.000155
C44	C	0.481856	0.472743	0.500155
C45	C	-0.049439	0.016566	0.000148
C46	C	0.450561	0.516566	0.500148
C47	C	-0.030322	0.060900	0.000140
C48	C	0.469678	0.560900	0.500140
C49	C	0.007908	0.149576	0.000133
C50	C	0.507908	0.649576	0.500133
C51	C	-0.042510	0.149061	0.000142
C52	C	0.457490	0.649061	0.500142
C53	C	-0.061626	0.104723	0.000149
C54	C	0.438374	0.604723	0.500149
C55	C	-0.112029	0.104213	0.000133
C56	C	0.387971	0.604213	0.500133
N57	N	-0.131149	0.059878	0.000149
N58	N	0.368851	0.559878	0.500149
C59	C	-0.099854	0.016054	0.000156
C60	C	0.400146	0.516054	0.500156
C61	C	0.346741	0.108867	0.000087
C62	C	0.846741	0.608867	0.500087
C63	C	0.397155	0.109378	0.000078
C64	C	0.897155	0.609378	0.500078
C65	C	0.409331	0.021216	0.000100
C66	C	0.909331	0.521216	0.500100
C67	C	0.358916	0.020705	0.000103
C68	C	0.858916	0.520705	0.500103
C69	C	0.327621	0.064532	0.000102
C70	C	0.827621	0.564532	0.500102
C71	C	-0.205723	0.014984	0.000158
C72	C	0.294277	0.514984	0.500158
C73	C	-0.256140	0.014477	0.000155
C74	C	0.243860	0.514477	0.500155
C75	C	-0.268312	0.102639	0.000138
C76	C	0.231688	0.602639	0.500138
C77	C	-0.217899	0.103146	0.000136
C78	C	0.282101	0.603146	0.500136
C79	C	-0.186606	0.059315	0.000149
C80	C	0.313394	0.559315	0.500149
O81	O	-0.143316	0.141414	0.000102
O82	O	0.356684	0.641414	0.500102
O83	O	-0.120753	-0.021696	0.000180
O84	O	0.379247	0.478304	0.500180
C85	C	0.101797	0.018099	0.000145
C86	C	0.601797	0.518099	0.500145
C87	C	0.120914	0.062434	0.000137
C88	C	0.620914	0.562434	0.500137
C89	C	0.089619	0.106257	0.000129
C90	C	0.589619	0.606257	0.500129
C91	C	0.171329	0.062945	0.000128
C92	C	0.671329	0.562945	0.500128
C93	C	0.202624	0.019122	0.000135
C94	C	0.702624	0.519122	0.500135
C95	C	0.183504	-0.025213	0.000151
C96	C	0.683504	0.474787	0.500151
C97	C	0.133092	-0.025724	0.000152
C98	C	0.633092	0.474276	0.500152
C99	C	0.108738	0.150592	0.000114
C100	C	0.608738	0.650592	0.500114
C101	C	0.159151	0.151099	0.000112
C102	C	0.659151	0.651099	0.500112
C103	C	0.190446	0.107276	0.000119
C104	C	0.690446	0.607276	0.500119
C105	C	0.574712	-0.026477	0.000142
C106	C	1.074712	0.473523	0.500142
C107	C	0.574169	-0.080133	0.000151
C108	C	1.074169	0.419867	0.500151
C109	C	0.573000	-0.415085	-0.075582
C110	C	1.073000	0.084915	0.424418
C111	C	0.570939	-0.616744	-0.075597
C112	C	1.070939	-0.116744	0.424403
O113	O	0.572560	-0.644715	-0.139970
O114	O	1.072560	-0.144715	0.360030
N115	N	0.568439	-0.639727	0.000093
N116	N	1.068439	-0.139727	0.500093
C117	C	0.566452	-0.612292	0.075792
C118	C	1.066452	-0.112292	0.575792
O119	O	0.564273	-0.636467	0.140171
O120	O	1.064273	-0.136467	0.640171
C121	C	0.568509	-0.410633	0.075807
C122	C	1.068509	0.089367	0.575807
C123	C	0.571013	-0.387654	0.000112
C124	C	1.071013	0.112346	0.500112
C125	C	0.575504	-0.392105	-0.151271
C126	C	1.075504	0.107895	0.348729
C127	C	0.576021	-0.341694	-0.151266
C128	C	1.076021	0.158306	0.348734
C129	C	0.574035	-0.314262	-0.075573
C130	C	1.074035	0.185738	0.424427
C131	C	0.571531	-0.337242	0.000116
C132	C	1.071531	0.162758	0.500116
C133	C	0.566517	-0.383199	0.151505
C134	C	1.066517	0.116801	0.651505
C135	C	0.567031	-0.332781	0.151502
C136	C	1.067031	0.167219	0.651502
C137	C	0.569535	-0.309801	0.075807
C138	C	1.069535	0.190199	0.575807
C139	C	0.570063	-0.259400	0.075814
C140	C	1.070063	0.240600	0.575814
N141	N	0.572562	-0.236417	0.000124
N142	N	1.072562	0.263583	0.500124
C143	C	0.574548	-0.263848	-0.075569
C144	C	1.074548	0.236152	0.424431
C145	C	0.565373	-0.718166	0.075780
C146	C	1.065373	-0.218166	0.575780
C147	C	0.564859	-0.768580	0.075776
C148	C	1.064859	-0.268580	0.575776
C149	C	0.569346	-0.773029	-0.075614
C150	C	1.069346	-0.273029	0.424386
C151	C	0.569863	-0.722614	-0.075609
C152	C	1.069863	-0.222614	0.424391
C153	C	0.567872	-0.695182	0.000089
C154	C	1.067872	-0.195182	0.500089
C155	C	0.575636	-0.157980	-0.075554
C156	C	1.075636	0.342020	0.424446
C157	C	0.576156	-0.107565	-0.075543
C158	C	1.076156	0.392435	0.424457
C159	C	0.571666	-0.103120	0.075846
C160	C	1.071666	0.396880	0.575846
C161	C	0.571149	-0.153532	0.075836
C162	C	1.071149	0.346468	0.575836
C163	C	0.573133	-0.180961	0.000129
C164	C	1.073133	0.319039	0.500129
O165	O	0.568438	-0.231398	0.140153
O166	O	1.068438	0.268602	0.640153
O167	O	0.576716	-0.239663	-0.139938
O168	O	1.076716	0.260337	0.360062
C169	C	0.572482	-0.465496	-0.075586
C170	C	1.072482	0.034504	0.424414
C171	C	0.569978	-0.488476	0.000103
C172	C	1.069978	0.011524	0.500103
C173	C	0.567992	-0.461045	0.075796
C174	C	1.067992	0.038955	0.575796
C175	C	0.569465	-0.538891	0.000099
C176	C	1.069465	-0.038891	0.500099
C177	C	0.571451	-0.566322	-0.075594
C178	C	1.071451	-0.066322	0.424406
C179	C	0.573950	-0.543339	-0.151284
C180	C	1.073950	-0.043339	0.348716
C181	C	0.574468	-0.492928	-0.151280
C182	C	1.074468	0.007072	0.348720
C183	C	0.565492	-0.484028	0.151486
C184	C	1.065492	0.015972	0.651486
C185	C	0.564975	-0.534440	0.151475
C186	C	1.064975	-0.034440	0.651475
C187	C	0.566961	-0.561871	0.075782
C188	C	1.066961	-0.061871	0.575782
C189	C	0.658910	0.057744	0.000141
C190	C	1.158910	0.557744	0.500141
C191	C	0.712565	0.058301	0.000148
C192	C	1.212565	0.558301	0.500148
C193	C	0.566302	0.150333	0.000097
C194	C	1.066302	0.650333	0.500097
C195	C	0.566846	0.203989	0.000083
C196	C	1.066846	0.703989	0.500083
N197	N	0.564098	0.068313	0.216454
N198	N	1.064098	0.568313	0.716454
N199	N	0.576920	0.055539	-0.216213
N200	N	1.076920	0.555539	0.283787
C201	C	0.595929	0.036511	0.260164
C202	C	1.095929	0.536511	0.760164
C203	C	0.593347	0.039093	0.347569
C204	C	1.093347	0.539093	0.847569
C205	C	0.558936	0.073480	0.391263
C206	C	1.058936	0.573480	0.891263
C207	C	0.527102	0.105283	0.347547
C208	C	1.027102	0.605283	0.847547
C209	C	0.529682	0.102698	0.260143
C210	C	1.029682	0.602698	0.760143
C211	C	0.547666	0.084757	0.652667
C212	C	1.047666	0.584757	1.152667
C213	C	0.545089	0.087341	0.740077
C214	C	1.045089	0.587341	1.240077
C215	C	0.611335	0.021150	0.740093
C216	C	1.111335	0.521150	1.240093
C217	C	0.613914	0.018570	0.652687
C218	C	1.113914	0.518570	1.152687
C219	C	0.582077	0.050371	0.608979
C220	C	1.082077	0.550371	1.108979
N221	N	0.556297	0.076121	0.480606
N222	N	1.056297	0.576121	0.980606
N223	N	0.584715	0.047728	0.519638
N224	N	1.084715	0.547728	1.019638
H225	H	0.057744	-0.062435	0.000163
H226	H	0.557744	0.437565	0.500163
Br227	Br	0.451813	-0.038258	0.000107
Br228	Br	0.951813	0.461742	0.500107
H229	H	0.619266	0.013197	0.383157
H230	H	1.119266	0.513197	0.883157
H231	H	0.577249	-0.180307	-0.137202
H232	H	1.077249	0.319693	0.362798
Br233	Br	0.572040	-0.810266	-0.178340
Br234	Br	1.072040	-0.310266	0.321660
Br235	Br	0.486477	0.145857	0.200823
Br236	Br	0.986477	0.645857	0.700823
Br237	Br	0.480396	0.151949	0.406843
Br238	Br	0.980396	0.651949	0.906843
Br239	Br	0.564328	-0.295555	0.254242
Br240	Br	1.064328	0.204445	0.754242
H241	H	0.517066	0.115345	0.775649
H242	H	1.017066	0.615345	1.275649
Br243	Br	0.561579	-0.565620	0.254215
Br244	Br	1.061579	-0.065620	0.754215
H245	H	0.343355	-0.015399	0.000109
H246	H	0.843355	0.484601	0.500109
H247	H	0.641934	-0.009430	0.617113
H248	H	1.141934	0.490570	1.117113
Br249	Br	0.561472	-0.799762	0.178509
Br250	Br	1.061472	-0.299762	0.678509
Br251	Br	-0.310793	0.162110	0.000122
Br252	Br	0.189207	0.662110	0.500122
H253	H	-0.202334	0.139250	0.000129
H254	H	0.297666	0.639250	0.500129
Br255	Br	0.107157	-0.085901	0.000155
Br256	Br	0.607157	0.414099	0.500155
Br257	Br	0.066274	0.210073	0.000101
Br258	Br	0.566274	0.710073	0.500101
Br259	Br	0.504462	0.127916	0.593354
Br260	Br	1.004462	0.627916	1.093354
H261	H	-0.180250	-0.020707	0.000168
H262	H	0.319750	0.479293	0.500168
Br263	Br	0.225986	-0.084687	0.000156
Br264	Br	0.725986	0.415313	0.500156
H265	H	0.623953	0.008512	0.224593
H266	H	1.123953	0.508512	0.724593
H267	H	-0.033704	-0.063362	0.000165
H268	H	0.466296	0.436638	0.500165
H269	H	0.412715	0.145482	0.000060
H270	H	0.912715	0.645482	0.500060
H271	H	0.023463	0.185681	0.000123
H272	H	0.523463	0.685681	0.500123
Br273	Br	-0.282080	-0.045700	0.000156
Br274	Br	0.217920	0.454300	0.500156
Br275	Br	0.304276	0.168352	0.000081
Br276	Br	0.804276	0.668352	0.500081
Br277	Br	0.568972	-0.065883	0.178568
Br278	Br	1.068972	0.434117	0.678568
H279	H	-0.067989	0.184751	0.000145
H280	H	0.432011	0.684751	0.500145
H281	H	0.578196	-0.088857	-0.137185
H282	H	1.078196	0.411143	0.362815
Br283	Br	0.185088	0.211278	0.000093
Br284	Br	0.685088	0.711278	0.500093
Br285	Br	0.579417	-0.310515	-0.254001
Br286	Br	1.079417	0.189485	0.245999
Br287	Br	0.562667	-0.680944	0.178524
Br288	Br	1.062667	-0.180944	0.678524
H289	H	0.577119	-0.414435	-0.212913
H290	H	1.077119	0.085565	0.287087
H291	H	0.571902	-0.703907	-0.137247
H292	H	1.071902	-0.203907	0.362753
H293	H	0.564479	-0.401900	0.213144
H294	H	1.064479	0.098100	0.713144
H295	H	0.637254	-0.004742	0.775688
H296	H	1.137254	0.495258	1.275688
Br297	Br	0.567762	-0.184721	0.178565
Br298	Br	1.067762	0.315279	0.678565
H299	H	0.575570	-0.565683	-0.212917
H300	H	1.075570	-0.065683	0.287083
Br301	Br	0.562791	-0.446807	0.254224
Br302	Br	1.062791	0.053193	0.754224
Br303	Br	0.577868	-0.461749	-0.254015
Br304	Br	1.077868	0.038251	0.245985
