data_functionalizedCrystal
_audit_creation_method	'MofGen! by Chris Wilmer'
_symmetry_space_group_name_H-M	'P1'
_symmetry_Int_Tables_number	1
_symmetry_cell_setting	triclinic
loop_
_symmetry_equiv_pos_as_xyz
  x,y,z
_cell_length_a	10.489741
_cell_length_b	17.038272
_cell_length_c	8.965430
_cell_angle_alpha	90.000179
_cell_angle_beta	89.998843
_cell_angle_gamma	87.825365
loop_
_atom_site_label
_atom_site_type_symbol
_atom_site_fract_x
_atom_site_fract_y
_atom_site_fract_z
O1	O	1.704377	0.110369	-0.123948
O2	O	1.334150	0.120730	-0.123972
O3	O	1.517063	0.001722	-0.123948
O4	O	1.521464	0.229378	-0.123972
O5	O	1.517047	0.001729	0.124130
O6	O	1.334134	0.120738	0.124107
O7	O	1.704361	0.110377	0.124130
Cu8	Cu	1.519246	0.115558	0.146770
Cu9	Cu	1.519265	0.115549	-0.146612
O10	O	1.521448	0.229386	0.124107
C11	C	1.286537	0.119951	0.000065
C12	C	1.144689	0.117610	0.000056
C13	C	1.069466	0.041889	0.000078
C14	C	0.980693	0.077655	-0.122238
C15	C	0.980713	0.077681	0.122348
C16	C	1.057784	0.153408	-0.122361
C17	C	1.057813	0.153423	0.122335
C18	C	0.969072	0.189244	-0.000011
C19	C	1.513053	-0.027426	0.000091
C20	C	1.501111	-0.114288	0.000089
C21	C	1.610749	-0.163767	0.000098
C22	C	1.599521	-0.245383	0.000083
C23	C	1.478654	-0.277518	0.000070
C24	C	1.369007	-0.228032	0.000057
C25	C	1.380237	-0.146418	0.000062
C26	C	1.438983	-0.523505	0.000047
C27	C	1.427762	-0.605126	0.000048
C28	C	1.658277	-0.622471	0.000071
C29	C	1.669495	-0.540855	0.000084
C30	C	1.559849	-0.491376	0.000063
C31	C	1.467174	-0.360942	0.000060
C32	C	1.571330	-0.407954	0.000063
C33	C	1.751974	0.111156	0.000091
C34	C	1.893822	0.113497	0.000089
C35	C	1.525458	0.258533	0.000065
C36	C	1.537400	0.345395	0.000056
N37	N	1.519243	0.115564	0.353119
N38	N	1.519278	0.115537	-0.352961
C39	C	1.434622	0.170583	0.450415
C40	C	1.551599	0.186413	0.549834
C41	C	1.402315	0.099741	0.549828
C42	C	1.636282	0.131430	0.450350
C43	C	1.486918	0.044727	0.450335
C44	C	1.603976	0.060527	0.549709
H45	H	0.946731	0.045631	0.225757
O46	O	1.454460	-0.026731	0.398067
C47	C	1.555379	-0.059416	0.311533
H48	H	1.648493	-0.032005	0.345507
H49	H	1.535933	-0.047107	0.188468
C50	C	1.451739	-0.182444	0.295626
C51	C	1.566105	-0.148782	0.337363
H52	H	1.458353	-0.237569	0.311552
H53	H	1.383745	-0.160423	0.353921
H54	H	1.435547	-0.172178	0.193074
H55	H	1.582287	-0.159039	0.439917
H56	H	1.634102	-0.170807	0.279086
H57	H	1.113334	-0.020359	-0.000069
O58	O	1.688667	-0.376649	-0.000124
C59	C	1.702079	-0.329974	-0.128622
H60	H	1.603695	-0.310224	-0.171474
H61	H	1.754648	-0.365705	-0.218582
C62	C	1.899454	-0.281659	-0.036951
C63	C	1.778616	-0.257396	-0.089574
H64	H	1.946670	-0.236891	-0.012868
H65	H	1.890421	-0.313107	0.049619
H66	H	1.943245	-0.311435	-0.111926
H67	H	1.734821	-0.227629	-0.014593
H68	H	1.787643	-0.225942	-0.176131
H69	H	0.925476	0.251558	-0.000084
H70	H	1.363135	0.217154	0.406817
H71	H	1.767918	-0.514697	0.000094
O72	O	1.754393	0.147447	0.398704
C73	C	1.837022	0.158649	0.520258
H74	H	1.798775	0.127895	0.622976
H75	H	1.843051	0.224148	0.543899
C76	C	2.017782	0.161725	0.356188
C77	C	1.970810	0.123946	0.482344
H78	H	2.100310	0.140322	0.332800
H79	H	1.962113	0.154181	0.274293
H80	H	2.022795	0.216305	0.375905
H81	H	1.965783	0.069369	0.462619
H82	H	2.026482	0.131480	0.564235
H83	H	1.329333	-0.631286	0.000062
H84	H	1.709172	-0.137610	0.000117
H85	H	1.270594	-0.254202	0.000038
O86	O	0.940339	0.039379	-0.245643
C87	C	1.046767	0.014154	-0.331558
H88	H	1.134862	0.009218	-0.257201
H89	H	1.063097	0.058467	-0.424241
C90	C	0.913759	-0.060532	-0.491975
C91	C	1.021957	-0.066600	-0.400646
H92	H	0.898455	-0.110343	-0.534598
H93	H	0.842055	-0.043535	-0.434096
H94	H	0.927381	-0.023601	-0.569199
H95	H	1.008327	-0.103523	-0.323414
H96	H	1.093658	-0.083605	-0.458513
H97	H	1.290957	-0.106132	0.000054
H98	H	1.091613	0.185419	-0.225887
H99	H	1.091846	0.185439	0.225745
H100	H	1.303416	0.086371	0.593528
O101	O	1.689279	0.004918	0.601476
C102	C	1.624991	-0.050228	0.688036
H103	H	1.520142	-0.049534	0.654433
H104	H	1.633023	-0.034379	0.811131
C105	C	1.814325	-0.133666	0.702969
C106	C	1.685550	-0.132819	0.661688
H107	H	1.851682	-0.184612	0.686724
H108	H	1.857639	-0.096512	0.644658
H109	H	1.821001	-0.120455	0.805547
H110	H	1.678875	-0.146020	0.559109
H111	H	1.642235	-0.169977	0.719983
O112	O	1.332346	-0.475561	0.000113
C113	C	1.223263	-0.521429	0.000076
H114	H	1.249055	-0.582149	0.047037
H115	H	1.186631	-0.527441	-0.118940
C116	C	1.087072	-0.406809	0.039690
C117	C	1.118748	-0.481385	0.097381
H118	H	1.022599	-0.382108	0.099706
H119	H	1.160563	-0.375907	0.039710
H120	H	1.056553	-0.411830	-0.059489
H121	H	1.149281	-0.476363	0.196550
H122	H	1.045260	-0.512286	0.097380
H123	H	1.688801	-0.285666	0.000093
H124	H	1.747544	-0.662765	0.000085
H125	H	1.368763	-0.387115	0.000053
O126	O	1.584036	0.257917	0.601916
C127	C	1.494581	0.315772	0.551306
H128	H	1.400985	0.287212	0.523409
H129	H	1.533066	0.345204	0.447274
C130	C	1.586269	0.412873	0.708503
C131	C	1.471309	0.377795	0.674251
H132	H	1.571917	0.451134	0.784336
H133	H	1.646540	0.373896	0.742596
H134	H	1.618328	0.437393	0.621799
H135	H	1.439260	0.353268	0.760948
H136	H	1.411032	0.416770	0.640174
