data_functionalizedCrystal
_audit_creation_method	'MofGen! by Chris Wilmer'
_symmetry_space_group_name_H-M	'P1'
_symmetry_Int_Tables_number	1
_symmetry_cell_setting	triclinic
loop_
_symmetry_equiv_pos_as_xyz
  x,y,z
_cell_length_a	14.044220
_cell_length_b	16.109301
_cell_length_c	14.586319
_cell_angle_alpha	90.012306
_cell_angle_beta	90.000119
_cell_angle_gamma	91.674821
loop_
_atom_site_label
_atom_site_type_symbol
_atom_site_fract_x
_atom_site_fract_y
_atom_site_fract_z
O1	O	1.257645	-0.200444	-0.076149
O2	O	0.981678	-0.193211	-0.076172
O3	O	1.127243	-0.076361	-0.076150
O4	O	1.112080	-0.317295	-0.076170
O5	O	1.127229	-0.076341	0.076331
O6	O	0.981665	-0.193192	0.076309
O7	O	1.257632	-0.200425	0.076332
Cu8	Cu	1.119647	-0.196806	0.090243
Cu9	Cu	1.119663	-0.196830	-0.090083
O10	O	1.112067	-0.317275	0.076311
C11	C	0.946358	-0.190036	0.000066
C12	C	0.841135	-0.180592	0.000058
C13	C	1.126622	-0.045330	0.000091
C14	C	1.124781	0.047102	0.000092
N15	N	1.119674	-0.196840	-0.216915
C16	C	0.648479	-0.163326	0.000077
C17	C	0.590825	-0.230306	0.000075
C18	C	0.483625	-0.220699	0.000086
C19	C	0.755690	-0.172932	0.000066
C20	C	1.292952	-0.203600	0.000093
C21	C	1.398175	-0.213044	0.000095
C22	C	1.112688	-0.348305	0.000068
C23	C	1.114529	-0.440738	0.000061
C24	C	1.206874	0.263266	0.000084
C25	C	1.205137	0.350116	0.000076
C26	C	1.032429	0.343091	0.000066
C27	C	1.034168	0.256243	0.000067
C28	C	1.121393	0.216333	0.000081
C29	C	1.117917	0.390031	0.000072
C30	C	1.116032	0.484197	0.000064
C31	C	1.123278	0.122161	0.000087
C32	C	1.184238	-0.145198	-0.547899
C33	C	1.184242	-0.145204	-0.451918
C34	C	1.055073	-0.248434	-0.451947
C35	C	1.055065	-0.248423	-0.547927
C36	C	1.119653	-0.196806	-0.595900
C37	C	1.119665	-0.196824	-0.403939
C38	C	1.119669	-0.196831	-0.299872
C39	C	1.119648	-0.196797	-0.699974
N40	N	1.119643	-0.196790	0.217075
H41	H	0.621976	-0.294863	0.000066
C42	C	0.606397	-0.076117	0.000082
N43	N	0.574690	-0.010432	0.000082
H44	H	1.274744	0.388326	0.000077
C45	C	0.936486	0.387001	0.000068
N46	N	0.864220	0.420072	0.000077
H47	H	0.964554	0.218029	0.000061
C48	C	0.984062	-0.305246	-0.600731
N49	N	0.930601	-0.348059	-0.640503
C50	C	1.255279	-0.088411	-0.600666
N51	N	1.308786	-0.045634	-0.640408
C52	C	1.302824	0.219368	0.000089
N53	N	1.375097	0.186307	0.000089
H54	H	1.236832	-0.103179	-0.412838
H55	H	1.002488	-0.290461	-0.412878
