data_functionalizedCrystal
_audit_creation_method	'MofGen! by Chris Wilmer'
_symmetry_space_group_name_H-M	'P1'
_symmetry_Int_Tables_number	1
_symmetry_cell_setting	triclinic
loop_
_symmetry_equiv_pos_as_xyz
  x,y,z
_cell_length_a	14.519709
_cell_length_b	11.792254
_cell_length_c	10.868271
_cell_angle_alpha	89.995741
_cell_angle_beta	89.993918
_cell_angle_gamma	83.939371
loop_
_atom_site_label
_atom_site_type_symbol
_atom_site_fract_x
_atom_site_fract_y
_atom_site_fract_z
O1	O	0.126460	1.506199	-0.102324
O2	O	0.376460	1.756199	0.147676
O3	O	0.626460	2.006199	0.397676
O4	O	0.876460	2.256199	0.647676
O5	O	0.139475	1.175787	-0.102327
O6	O	0.389475	1.425787	0.147673
O7	O	0.639475	1.675787	0.397673
O8	O	0.889475	1.925787	0.647673
O9	O	-0.001238	1.349754	-0.102314
O10	O	0.248762	1.599754	0.147686
O11	O	0.498762	1.849754	0.397686
O12	O	0.748762	2.099754	0.647686
O13	O	0.267174	1.332233	-0.102337
O14	O	0.517174	1.582233	0.147663
O15	O	0.767174	1.832233	0.397663
O16	O	1.017174	2.082233	0.647663
O17	O	-0.001244	1.349739	0.102330
O18	O	0.248756	1.599739	0.352330
O19	O	0.498756	1.849739	0.602330
O20	O	0.748756	2.099739	0.852330
O21	O	0.139470	1.175773	0.102318
O22	O	0.389470	1.425773	0.352318
O23	O	0.639470	1.675773	0.602318
O24	O	0.889470	1.925773	0.852318
O25	O	0.126455	1.506184	0.102321
O26	O	0.376455	1.756184	0.352321
O27	O	0.626455	2.006184	0.602321
O28	O	0.876455	2.256184	0.852321
Zn29	Zn	0.132961	1.340977	0.134811
Zn30	Zn	0.382961	1.590977	0.384811
Zn31	Zn	0.632961	1.840977	0.634811
Zn32	Zn	0.882961	2.090977	0.884811
Zn33	Zn	0.132968	1.340995	-0.134817
Zn34	Zn	0.382968	1.590995	0.115183
Zn35	Zn	0.632968	1.840995	0.365183
Zn36	Zn	0.882968	2.090995	0.615183
O37	O	0.267168	1.332218	0.102308
O38	O	0.517168	1.582218	0.352308
O39	O	0.767168	1.832218	0.602308
O40	O	1.017168	2.082218	0.852308
C41	C	0.138652	1.133494	-0.000005
C42	C	0.388652	1.383494	0.249995
C43	C	0.638652	1.633494	0.499995
C44	C	0.888652	1.883494	0.749995
C45	C	0.136199	1.007495	-0.000006
C46	C	0.386199	1.257495	0.249994
C47	C	0.636199	1.507495	0.499994
C48	C	0.886199	1.757495	0.749994
C49	C	0.134205	0.905169	-0.000011
C50	C	0.384205	1.155169	0.249989
C51	C	0.634205	1.405169	0.499989
C52	C	0.884205	1.655169	0.749989
C53	C	0.131711	0.776796	-0.000011
C54	C	0.381711	1.026796	0.249989
C55	C	0.631711	1.276796	0.499989
C56	C	0.881711	1.526796	0.749989
C57	C	-0.035604	1.348930	0.000008
C58	C	0.214396	1.598930	0.250008
C59	C	0.464396	1.848930	0.500008
C60	C	0.714396	2.098930	0.750008
C61	C	-0.137994	1.346483	0.000009
C62	C	0.112006	1.596483	0.250009
C63	C	0.362006	1.846483	0.500009
C64	C	0.612006	2.096483	0.750009
C65	C	-0.512923	1.337475	-0.000023
C66	C	-0.262923	1.587475	0.249977
C67	C	-0.012923	1.837475	0.499977
C68	C	0.237077	2.087475	0.749977
C69	C	-0.408606	1.339976	-0.000014
C70	C	-0.158606	1.589976	0.249986
C71	C	0.091394	1.839976	0.499986
C72	C	0.341394	2.089976	0.749986
C73	C	-0.325462	1.341979	-0.000006
C74	C	-0.075462	1.591979	0.249994
C75	C	0.174538	1.841979	0.499994
C76	C	0.424538	2.091979	0.749994
C77	C	-0.221138	1.344481	0.000001
C78	C	0.028862	1.594481	0.250001
C79	C	0.278862	1.844481	0.500001
C80	C	0.528862	2.094481	0.750001
C81	C	0.301534	1.333042	-0.000017
C82	C	0.551534	1.583042	0.249983
C83	C	0.801534	1.833042	0.499983
C84	C	1.051534	2.083042	0.749983
C85	C	0.403924	1.335489	-0.000026
C86	C	0.653924	1.585489	0.249974
C87	C	0.903924	1.835489	0.499974
C88	C	1.153924	2.085489	0.749974
C89	C	0.127277	1.548478	-0.000004
C90	C	0.377277	1.798478	0.249996
C91	C	0.627277	2.048478	0.499996
C92	C	0.877277	2.298478	0.749996
C93	C	0.129731	1.674477	-0.000011
C94	C	0.379731	1.924477	0.249989
C95	C	0.629731	2.174477	0.499989
C96	C	0.879731	2.424477	0.749989
N97	N	0.132956	1.340972	0.318825
N98	N	0.382956	1.590972	0.568825
N99	N	0.632956	1.840972	0.818825
N100	N	0.882956	2.090972	1.068825
N101	N	0.132967	1.341009	-0.318831
N102	N	0.382967	1.591009	-0.068831
N103	N	0.632967	1.841009	0.181169
N104	N	0.882967	2.091009	0.431169
C105	C	0.132967	1.340989	0.569831
C106	C	0.382967	1.590989	0.819831
C107	C	0.632967	1.840989	1.069831
C108	C	0.882967	2.090989	1.319831
C109	C	0.132963	1.340976	0.430153
C110	C	0.382963	1.590976	0.680153
C111	C	0.632963	1.840976	0.930153
C112	C	0.882963	2.090976	1.180153
