data_functionalizedCrystal
_audit_creation_method	'MofGen! by Chris Wilmer'
_symmetry_space_group_name_H-M	'P1'
_symmetry_Int_Tables_number	1
_symmetry_cell_setting	triclinic
loop_
_symmetry_equiv_pos_as_xyz
  x,y,z
_cell_length_a	10.654554
_cell_length_b	17.699083
_cell_length_c	16.176319
_cell_angle_alpha	90.006703
_cell_angle_beta	89.996293
_cell_angle_gamma	96.115238
loop_
_atom_site_label
_atom_site_type_symbol
_atom_site_fract_x
_atom_site_fract_y
_atom_site_fract_z
O1	O	0.158804	-1.005090	-0.068727
O2	O	0.179466	-0.784843	-0.068731
O3	O	-0.013693	-0.900029	-0.068730
O4	O	0.351962	-0.889905	-0.068728
O5	O	-0.013705	-0.900013	0.068763
O6	O	0.179454	-0.784827	0.068762
O7	O	0.158791	-1.005074	0.068766
Cu8	Cu	0.169121	-0.894949	0.081318
Cu9	Cu	0.169136	-0.894968	-0.081283
O10	O	0.351950	-0.889889	0.068765
C11	C	0.178720	-0.756634	0.000015
C12	C	0.176499	-0.672601	0.000013
C13	C	0.175446	-0.633119	0.074962
C14	C	0.173339	-0.554163	0.074962
C15	C	0.172295	-0.514691	0.000014
C16	C	0.173344	-0.554179	-0.074940
C17	C	0.175442	-0.633134	-0.074940
C18	C	0.164884	-0.235763	-0.074943
C19	C	0.162790	-0.156802	-0.074937
C20	C	0.162781	-0.156792	0.074959
C21	C	0.164879	-0.235747	0.074960
C22	C	0.165921	-0.275229	0.000006
C23	C	0.168203	-0.360842	0.000006
C24	C	0.170022	-0.429079	0.000013
C25	C	-0.060484	-0.899277	0.000015
C26	C	-0.199888	-0.897051	0.000009
C27	C	-0.381189	-0.825045	0.000018
C28	C	-0.250204	-0.827136	0.000010
C29	C	-0.280564	-0.964878	0.000008
C30	C	-0.411547	-0.962786	0.000010
C31	C	-0.431497	-0.755126	0.000027
C32	C	-0.350829	-0.687298	0.000027
C33	C	-0.219844	-0.689389	0.000019
C34	C	-0.169527	-0.759309	0.000011
C35	C	0.398741	-0.890641	0.000019
C36	C	0.538145	-0.892867	0.000019
C37	C	0.159530	-0.033285	0.000018
C38	C	0.161728	-0.117319	0.000012
N39	N	0.169110	-0.894942	0.195684
N40	N	0.169137	-0.894982	-0.195648
C41	C	0.083615	-0.945961	0.238948
C42	C	0.083613	-0.945965	0.325495
C43	C	0.169115	-0.894952	0.368776
C44	C	0.254615	-0.843927	0.325505
C45	C	0.254609	-0.843920	0.238960
C46	C	0.254638	-0.843953	0.674534
C47	C	0.254640	-0.843965	0.761085
C48	C	0.083643	-0.945998	0.761069
C49	C	0.083637	-0.945991	0.674524
C50	C	0.169132	-0.894964	0.631260
C51	C	0.169131	-0.894959	0.537416
C52	C	0.169123	-0.894960	0.462619
H53	H	0.176307	-0.665251	0.135993
C54	C	0.348848	-0.787920	0.626955
N55	N	0.419869	-0.745749	0.591117
H56	H	0.176302	-0.665280	-0.135971
C57	C	0.348695	-0.787840	0.808692
N58	N	0.419532	-0.745567	0.844550
C59	C	0.166020	-0.279184	-0.157394
N60	N	0.166871	-0.311891	-0.219501
C61	C	0.172210	-0.510733	0.157411
N62	N	0.171369	-0.478022	0.219516
H63	H	0.014018	-0.987533	0.639287
C64	C	0.172192	-0.510757	-0.157385
N65	N	0.171328	-0.478052	-0.219484
H66	H	0.014024	-0.987546	0.796303
H67	H	-0.239585	-1.021803	-0.000010
H68	H	-0.538150	-0.753415	0.000035
H69	H	0.165735	-0.267881	0.135990
H70	H	-0.062869	-0.761006	0.000001
C71	C	0.348656	-0.787805	0.373117
N72	N	0.419489	-0.745532	0.408978
C73	C	0.161620	-0.113355	0.157411
N74	N	0.160747	-0.080640	0.219511
C75	C	-0.406182	-0.610391	0.000036
N76	N	-0.447871	-0.552463	0.000045
H77	H	-0.154168	-0.634161	0.000010
C78	C	-0.500284	-1.037394	0.000013
N79	N	-0.567122	-1.093591	0.000013
H80	H	0.161938	-0.124666	-0.135973
C81	C	-0.010446	-1.002080	0.191347
N82	N	-0.081299	-1.044348	0.155497
H83	H	0.013996	-0.987509	0.360721
C84	C	0.348671	-0.787800	0.191369
N85	N	0.419522	-0.745530	0.155525
