data_functionalizedCrystal
_audit_creation_method	'MofGen! by Chris Wilmer'
_symmetry_space_group_name_H-M	'P1'
_symmetry_Int_Tables_number	1
_symmetry_cell_setting	triclinic
loop_
_symmetry_equiv_pos_as_xyz
  x,y,z
_cell_length_a	16.109301
_cell_length_b	13.930277
_cell_length_c	16.109301
_cell_angle_alpha	90.005979
_cell_angle_beta	83.461481
_cell_angle_gamma	90.004498
loop_
_atom_site_label
_atom_site_type_symbol
_atom_site_fract_x
_atom_site_fract_y
_atom_site_fract_z
O1	O	1.103135	0.079773	0.106867
O2	O	1.603135	0.579773	0.606867
O3	O	0.861073	0.079789	0.120166
O4	O	1.361073	0.579789	0.620166
O5	O	0.988754	0.079771	-0.007515
O6	O	1.488754	0.579771	0.492485
O7	O	0.975455	0.079791	0.234547
O8	O	1.475455	0.579791	0.734547
O9	O	0.988736	-0.079891	-0.007518
O10	O	1.488736	0.420109	0.492482
O11	O	0.861056	-0.079873	0.120163
O12	O	1.361056	0.420127	0.620163
O13	O	1.103117	-0.079889	0.106864
O14	O	1.603117	0.420111	0.606864
Zn15	Zn	0.982084	-0.105231	0.113513
Zn16	Zn	1.482084	0.394769	0.613513
Zn17	Zn	0.982107	0.105131	0.113517
Zn18	Zn	1.482107	0.605131	0.613517
O19	O	0.975437	-0.079871	0.234544
O20	O	1.475437	0.420129	0.734544
C21	C	0.830090	-0.000040	0.119626
C22	C	1.330090	0.499960	0.619626
C23	C	0.737794	-0.000035	0.118011
C24	C	1.237794	0.499965	0.618011
N25	N	0.982074	-0.248797	0.113510
N26	N	1.482074	0.251203	0.613510
C27	C	0.515522	-0.000040	0.190018
C28	C	1.015522	0.499960	0.690018
C29	C	0.428801	-0.000046	0.188494
C30	C	0.928801	0.499954	0.688494
C31	C	0.448676	-0.000055	0.037006
C32	C	0.948676	0.499945	0.537006
C33	C	0.535394	-0.000055	0.038530
C34	C	1.035394	0.499945	0.538530
C35	C	0.568815	-0.000043	0.115039
C36	C	1.068815	0.499957	0.615039
C37	C	0.395376	-0.000049	0.111990
C38	C	0.895376	0.499951	0.611990
C39	C	0.301350	-0.000055	0.110337
C40	C	0.801350	0.499945	0.610337
C41	C	0.662847	-0.000038	0.116693
C42	C	1.162847	0.499962	0.616693
C43	C	0.925568	-0.701058	0.170031
C44	C	1.425568	-0.201058	0.670031
C45	C	1.038669	-0.701043	0.056995
C46	C	1.538669	-0.201043	0.556995
C47	C	1.038659	-0.600548	0.056993
C48	C	1.538659	-0.100548	0.556993
C49	C	0.982104	-0.550302	0.113511
C50	C	1.482104	-0.050302	0.613511
C51	C	0.925558	-0.600553	0.170032
C52	C	1.425558	-0.100553	0.670032
C53	C	1.095210	-0.550290	0.000478
C54	C	1.595210	-0.050290	0.500478
C55	C	1.095203	-0.449788	0.000474
C56	C	1.595203	0.050212	0.500474
C57	C	1.038642	-0.399541	0.056989
C58	C	1.538642	0.100459	0.556989
C59	C	0.982094	-0.449797	0.113512
C60	C	1.482094	0.050203	0.613512
C61	C	0.925538	-0.399552	0.170030
C62	C	1.425538	0.100448	0.670030
C63	C	0.868985	-0.449807	0.226550
C64	C	1.368985	0.050193	0.726550
C65	C	0.868998	-0.550306	0.226547
C66	C	1.368998	-0.050306	0.726547
C67	C	1.038629	-0.299042	0.056992
C68	C	1.538629	0.200958	0.556992
C69	C	0.925528	-0.299047	0.170031
C70	C	1.425528	0.200953	0.670031
C71	C	1.134101	-0.000057	0.107404
C72	C	1.634101	0.499943	0.607404
C73	C	1.226397	-0.000057	0.109019
C74	C	1.726397	0.499943	0.609019
N75	N	0.982123	0.248697	0.113513
N76	N	1.482123	0.748697	0.613513
C77	C	0.988206	-0.000061	-0.038491
C78	C	1.488206	0.499939	0.461509
C79	C	0.986591	-0.000062	-0.130786
C80	C	1.486591	0.499938	0.369214
C81	C	1.058599	-0.000051	-0.353059
C82	C	1.558599	0.499949	0.146941
C83	C	1.057075	-0.000043	-0.439779
C84	C	1.557075	0.499957	0.060221
C85	C	0.905586	-0.000037	-0.419905
C86	C	1.405586	0.499963	0.080095
C87	C	0.907111	-0.000038	-0.333186
C88	C	1.407111	0.499962	0.166814
C89	C	0.983620	-0.000050	-0.299766
C90	C	1.483620	0.499950	0.200234
C91	C	0.980571	-0.000041	-0.473205
C92	C	1.480571	0.499959	0.026795
C93	C	0.978918	-0.000032	-0.567231
C94	C	1.478918	0.499968	-0.067231
C95	C	0.985273	-0.000057	-0.205734
C96	C	1.485273	0.499943	0.294266
C97	C	0.975984	-0.000037	0.265521
C98	C	1.475984	0.499963	0.765521
C99	C	0.977600	-0.000030	0.357816
C100	C	1.477600	0.499970	0.857816
H101	H	0.542730	-0.000037	0.252317
H102	H	1.042730	0.499963	0.752317
C103	C	0.370182	-0.000035	0.270971
C104	C	0.870182	0.499965	0.770971
H105	H	0.402510	-0.000021	0.316752
H106	H	0.902510	0.499979	0.816752
H107	H	0.335936	-0.055712	0.273528
H108	H	0.835936	0.444288	0.773528
H109	H	0.335945	0.055650	0.273524
H110	H	0.835945	0.555650	0.773524
C111	C	1.157400	-0.394516	-0.061701
C112	C	1.657400	0.105484	0.438299
H113	H	1.191079	-0.438835	-0.095364
H114	H	1.691079	0.061165	0.404636
H115	H	1.191994	-0.355293	-0.031787
H116	H	1.691994	0.144707	0.468213
H117	H	1.127491	-0.355330	-0.096323
H118	H	1.627491	0.144670	0.403677
H119	H	1.084719	-0.741956	0.010984
H120	H	1.584719	-0.241956	0.510984
C121	C	0.411910	-0.000056	-0.047147
C122	C	0.911910	0.499944	0.452853
H123	H	0.352630	-0.000045	-0.037318
H124	H	0.852630	0.499955	0.462682
H125	H	0.430199	-0.055733	-0.078025
H126	H	0.930199	0.444267	0.421975
H127	H	0.430210	0.055629	-0.078012
H128	H	0.930210	0.555629	0.421988
H129	H	0.843295	-0.000029	-0.447127
H130	H	1.343295	0.499971	0.052873
C131	C	0.594021	-0.000055	-0.043951
C132	C	1.094021	0.499945	0.456049
H133	H	0.561698	-0.000048	-0.089735
H134	H	1.061698	0.499952	0.410265
H135	H	0.628260	-0.055732	-0.046507
H136	H	1.128260	0.444268	0.453493
H137	H	0.628265	0.055631	-0.046498
H138	H	1.128265	0.555631	0.453502
C139	C	0.863317	-0.243785	0.232204
C140	C	1.363317	0.256215	0.732204
H141	H	0.829646	-0.288110	0.265866
H142	H	1.329646	0.211890	0.765866
H143	H	0.828718	-0.204586	0.202288
H144	H	1.328718	0.295414	0.702288
H145	H	0.893215	-0.204575	0.266829
H146	H	1.393215	0.295425	0.766829
H147	H	0.822940	-0.408886	0.272571
H148	H	1.322940	0.091114	0.772571
C149	C	0.806804	-0.605587	0.288718
C150	C	1.306804	-0.105587	0.788718
H151	H	0.814919	-0.672636	0.280629
H152	H	1.314919	-0.172636	0.780629
H153	H	0.751318	-0.589137	0.279677
H154	H	1.251318	-0.089137	0.779677
H155	H	0.815822	-0.589105	0.344212
H156	H	1.315822	-0.089105	0.844212
C157	C	1.142754	-0.000053	-0.316298
C158	C	1.642754	0.499947	0.183702
H159	H	1.187190	-0.000044	-0.360461
H160	H	1.687190	0.499956	0.139539
H161	H	1.146498	-0.055731	-0.282887
H162	H	1.646498	0.444269	0.217113
H163	H	1.146500	0.055632	-0.282879
H164	H	1.646500	0.555632	0.217121
H165	H	0.879521	-0.741978	0.216047
H166	H	1.379521	-0.241978	0.716047
H167	H	1.141260	-0.591202	-0.045533
H168	H	1.641260	-0.091202	0.454467
C169	C	1.100829	-0.243766	-0.005171
C170	C	1.600829	0.256234	0.494829
H171	H	1.134511	-0.288084	-0.038833
H172	H	1.634511	0.211916	0.461167
H173	H	1.135419	-0.204545	0.024748
H174	H	1.635419	0.295455	0.524748
H175	H	1.070926	-0.204577	-0.039797
H176	H	1.570926	0.295423	0.460203
H177	H	1.118130	-0.000042	-0.483168
H178	H	1.618130	0.499958	0.016832
H179	H	0.846050	-0.000035	-0.289792
H180	H	1.346050	0.499965	0.210208
