data_functionalizedCrystal
_audit_creation_method	'MofGen! by Chris Wilmer'
_symmetry_space_group_name_H-M	'P1'
_symmetry_Int_Tables_number	1
_symmetry_cell_setting	triclinic
loop_
_symmetry_equiv_pos_as_xyz
  x,y,z
_cell_length_a	11.792241
_cell_length_b	11.792254
_cell_length_c	11.892095
_cell_angle_alpha	93.915908
_cell_angle_beta	86.078452
_cell_angle_gamma	84.196007
loop_
_atom_site_label
_atom_site_type_symbol
_atom_site_fract_x
_atom_site_fract_y
_atom_site_fract_z
O1	O	1.514120	0.148364	-0.093894
O2	O	2.014120	0.648364	0.406106
O3	O	1.183781	0.164395	-0.093920
O4	O	1.683781	0.664395	0.406080
O5	O	1.356959	-0.008790	-0.093898
O6	O	1.856959	0.491210	0.406102
O7	O	1.340942	0.321548	-0.093915
O8	O	1.840942	0.821548	0.406085
O9	O	1.342519	0.005628	0.094108
O10	O	1.842519	0.505628	0.594108
O11	O	1.169342	0.178812	0.094086
O12	O	1.669342	0.678812	0.594086
O13	O	1.499680	0.162781	0.094112
O14	O	1.999680	0.662781	0.594112
Zn15	Zn	1.332219	0.173086	0.123949
Zn16	Zn	1.832219	0.673086	0.623949
Zn17	Zn	1.351243	0.154090	-0.123757
Zn18	Zn	1.851243	0.654090	0.376243
O19	O	1.326503	0.335966	0.094090
O20	O	1.826503	0.835966	0.594090
C21	C	1.134271	0.170596	0.000080
C22	C	1.634271	0.670596	0.500080
C23	C	1.008258	0.167581	0.000070
C24	C	1.508258	0.667581	0.500070
C25	C	1.348730	-0.043872	0.000104
C26	C	1.848730	0.456128	0.500104
C27	C	1.345710	-0.169885	0.000103
C28	C	1.845710	0.330115	0.500103
C29	C	0.777543	0.162040	0.000102
C30	C	1.277543	0.662040	0.500102
C31	C	0.905930	0.165119	0.000084
C32	C	1.405930	0.665119	0.500084
C33	C	1.343256	-0.272222	0.000099
C34	C	1.843256	0.227778	0.500099
C35	C	1.340189	-0.400609	0.000088
C36	C	1.840189	0.099391	0.500088
C37	C	1.549191	0.156580	0.000110
C38	C	2.049191	0.656580	0.500110
C39	C	1.675204	0.159594	0.000113
C40	C	2.175204	0.659594	0.500113
C41	C	1.334732	0.371047	0.000085
C42	C	1.834732	0.871047	0.500085
C43	C	1.337752	0.497060	0.000079
C44	C	1.837752	0.997060	0.500079
N45	N	1.319243	0.186049	0.293001
N46	N	1.819243	0.686049	0.793001
N47	N	1.364227	0.141118	-0.292809
N48	N	1.864227	0.641118	0.207191
C49	C	1.454516	0.050848	0.529666
C50	C	1.954516	0.550848	1.029666
C51	C	1.445454	0.059918	0.648007
C52	C	1.945454	0.559918	1.148007
C53	C	1.292054	0.213252	0.648026
C54	C	1.792054	0.713252	1.148026
C55	C	1.301116	0.204182	0.529685
C56	C	1.801116	0.704182	1.029685
C57	C	1.382350	0.122979	0.470509
C58	C	1.882350	0.622979	0.970509
C59	C	1.391416	0.113915	0.352167
C60	C	1.891416	0.613915	0.852167
C61	C	1.238011	0.267243	0.352187
C62	C	1.738011	0.767243	0.852187
C63	C	1.228950	0.276313	0.470528
C64	C	1.728950	0.776313	0.970528
H65	H	1.520668	-0.015263	0.481485
H66	H	2.020668	0.484737	0.981485
Br67	Br	1.501667	0.003718	0.271858
Br68	Br	2.001667	0.503718	0.771858
Br69	Br	1.543392	-0.037983	0.728289
Br70	Br	2.043392	0.462017	1.228289
H71	H	1.225907	0.279358	0.696222
H72	H	1.725907	0.779358	1.196222
H73	H	1.162807	0.342424	0.518722
H74	H	1.662807	0.842424	1.018722
Br75	Br	1.140079	0.365149	0.271893
Br76	Br	1.640079	0.865149	0.771893
