data_functionalizedCrystal
_audit_creation_method	'MofGen! by Chris Wilmer'
_symmetry_space_group_name_H-M	'P1'
_symmetry_Int_Tables_number	1
_symmetry_cell_setting	triclinic
loop_
_symmetry_equiv_pos_as_xyz
  x,y,z
_cell_length_a	23.096457
_cell_length_b	19.377369
_cell_length_c	19.377372
_cell_angle_alpha	62.058157
_cell_angle_beta	89.996225
_cell_angle_gamma	48.635245
loop_
_atom_site_label
_atom_site_type_symbol
_atom_site_fract_x
_atom_site_fract_y
_atom_site_fract_z
Zr1	Zr	0.453579	0.759468	0.055788
O2	O	0.319282	0.943888	-0.042132
O3	O	0.505688	0.607664	0.064447
O4	O	0.455848	0.806501	-0.072936
O5	O	0.395993	0.696578	0.227918
O6	O	0.551130	0.806499	-0.072940
O7	O	0.369122	0.745052	0.095252
O8	O	0.640285	0.450817	0.172814
O9	O	0.306838	1.052260	-0.017836
O10	O	0.585803	0.658022	0.093942
O11	O	0.534749	0.621848	0.192952
O12	O	0.476069	0.855952	0.031201
O13	O	0.425015	0.819778	0.130211
Zr14	Zr	0.648400	0.682156	0.267370
Zr15	Zr	0.605543	0.759466	0.055782
Zr16	Zr	0.496436	0.682158	0.267375
Zr17	Zr	0.433733	0.932309	0.094537
Zr18	Zr	0.668246	0.509315	0.228621
O19	O	0.596292	0.833960	0.258711
O20	O	0.535355	0.943885	-0.042139
O21	O	0.380219	0.833963	0.258718
O22	O	0.782698	0.497736	0.365289
O23	O	0.721761	0.607661	0.064439
O24	O	0.566625	0.497740	0.365297
O25	O	0.705986	0.745046	0.095240
O26	O	0.646132	0.635123	0.396094
O27	O	0.550850	0.635125	0.396097
O28	O	0.732858	0.696573	0.227906
O29	O	0.427629	1.052258	-0.017840
O30	O	0.674350	0.389366	0.340998
O31	O	0.795141	0.389364	0.340993
O32	O	0.761076	0.450815	0.172810
O33	O	0.340904	0.990809	0.150348
O34	O	0.461695	0.990807	0.150344
O35	O	0.625911	0.585672	0.291957
O36	O	0.676965	0.621846	0.192947
O37	O	0.567230	0.819776	0.130206
O38	O	0.516176	0.783602	0.229216
C39	C	0.575814	0.504615	0.113109
C40	C	0.584239	0.431239	0.096659
C41	C	0.360906	0.720815	0.161586
C42	C	0.296394	0.720816	0.161588
C43	C	0.479058	0.095092	0.301248
C44	C	0.487086	0.026028	0.285861
C45	C	0.540383	0.063801	0.182502
C46	C	0.532363	0.132865	0.197884
C47	C	0.501699	0.148505	0.257257
C48	C	0.555004	0.186278	0.153892
C49	C	0.546981	0.255341	0.169269
C50	C	0.516316	0.270991	0.228638
C51	C	0.493676	0.217568	0.272634
C52	C	0.585662	0.170643	0.094515
C53	C	0.608303	0.224056	0.050524
C54	C	0.600286	0.293113	0.065905
C55	C	0.569621	0.308763	0.125273
C56	C	0.622926	0.346536	0.021909
C57	C	0.614903	0.415599	0.037286
C58	C	0.561598	0.377826	0.140650
C59	C	0.251285	0.747529	0.088498
C60	C	0.190674	0.747521	0.088496
C61	C	0.175161	0.720821	0.161581
C62	C	0.220283	0.694098	0.234683
C63	C	0.280899	0.694095	0.234686
N64	N	0.055237	0.765462	0.195528
N65	N	-0.002348	0.765468	0.195519
C66	C	-0.007469	0.720823	0.161576
N67	N	0.047160	0.676190	0.127626
N68	N	0.104747	0.676190	0.127631
C69	C	0.109436	0.720819	0.161586
C70	C	-0.118299	0.747527	0.088480
C71	C	-0.178907	0.747510	0.088483
C72	C	-0.149303	0.694098	0.234669
C73	C	-0.088690	0.694104	0.234667
C74	C	-0.073195	0.720825	0.161568
C75	C	0.741073	0.720809	0.161572
C76	C	0.805586	0.720808	0.161570
C77	C	0.497382	0.817515	-0.103085
C78	C	0.479189	0.850335	-0.192909
C79	C	0.526165	0.937010	0.210048
C80	C	0.517740	1.010385	0.226498
C81	C	0.705728	0.441701	-0.324583
C82	C	0.688614	0.472568	-0.408995
C83	C	0.574059	0.679191	-0.474483
C84	C	0.591167	0.648342	-0.390074
C85	C	0.657001	0.529595	-0.315130
C86	C	0.542440	0.736236	-0.380621
C87	C	0.559543	0.705389	-0.296220
C88	C	0.625373	0.586647	-0.221272
C89	C	0.674105	0.498748	-0.230728
C90	C	0.476601	0.854983	-0.455567
C91	C	0.427875	0.942877	-0.446114
C92	C	0.444982	0.912030	-0.361712
C93	C	0.510812	0.793289	-0.286764
C94	C	0.396250	0.999930	-0.352255
C95	C	0.413354	0.969082	-0.267854
C96	C	0.527915	0.762441	-0.202362
C97	C	0.604597	0.624109	0.426242
C98	C	0.622791	0.591289	0.516067
C99	C	0.765898	0.504611	0.113103
C100	C	0.838835	0.431235	0.096650
C101	C	0.629421	0.407912	0.377773
C102	C	0.656040	0.301716	0.451147
C103	C	0.819505	0.407909	0.377766
C104	C	0.910637	0.301712	0.451138
C105	C	0.282474	1.033716	-0.054609
C106	C	0.191343	1.139912	-0.127981
C107	C	0.336082	0.937013	0.210055
C108	C	0.263144	1.010389	0.226507
C109	C	0.472558	1.033712	-0.054615
C110	C	0.445939	1.139908	-0.127990
C111	C	0.825501	0.415664	0.037236
C112	C	0.894022	0.346735	0.021759
C113	C	0.975880	0.293373	0.065703
C114	C	0.989213	0.308950	0.125121
C115	C	0.920690	0.377884	0.140592
C116	C	0.716128	0.232959	0.537293
C117	C	0.741137	0.133183	0.606246
C118	C	0.706063	0.102163	0.589051
C119	C	0.645967	0.170931	0.502897
C120	C	0.620954	0.270709	0.433946
C121	C	0.980089	0.270724	0.433912
C122	C	1.065720	0.170953	0.502847
C123	C	1.081897	0.102168	0.589006
C124	C	1.012436	0.133164	0.606232
C125	C	0.926807	0.232938	0.537299
C126	C	0.121889	1.170909	-0.110753
C127	C	0.036256	1.270701	-0.179683
C128	C	0.020078	1.339490	-0.265841
C129	C	0.089540	1.308489	-0.283068
C130	C	0.175171	1.208704	-0.214137
C131	C	0.276476	1.025971	0.285915
C132	C	0.207948	1.094927	0.301372
C133	C	0.126089	1.148293	0.257426
C134	C	0.112757	1.132711	0.198011
C135	C	0.181283	1.063763	0.182550
C136	C	0.481030	1.170895	-0.110768
C137	C	0.456035	1.270665	-0.179705
C138	C	0.395945	1.339451	-0.265862
C139	C	0.360854	1.308456	-0.283084
C140	C	0.385853	1.208683	-0.214149
H141	H	0.536629	0.390560	0.188998
H142	H	1.025622	0.077145	0.676392
H143	H	0.070298	1.204432	0.270023
H144	H	0.744696	0.258201	0.551311
H145	H	0.759341	0.345005	-0.263557
H146	H	0.565346	0.051061	0.134158
H147	H	0.633267	0.211316	0.002180
H148	H	0.462678	0.880094	-0.524290
H149	H	0.373673	1.040654	-0.260159
H150	H	0.317628	0.672342	0.294206
H151	H	0.076357	1.364509	-0.353226
H152	H	0.170417	1.051079	0.134178
H153	H	0.520455	0.775875	-0.535513
H154	H	-0.161929	0.672351	0.294178
H155	H	-0.049652	1.420738	-0.321961
H156	H	1.151627	0.020929	0.645128
H157	H	0.572030	0.326683	0.363803
H158	H	0.728295	0.400985	-0.416683
H159	H	0.966933	0.326717	0.363762
H160	H	0.311925	1.364477	-0.353242
H161	H	0.484615	1.295886	-0.165665
H162	H	0.218820	1.107599	0.349754
H163	H	0.509780	0.327232	0.241153
H164	H	0.758850	0.459117	0.001438
H165	H	0.726437	0.020914	0.645203
H166	H	0.790072	0.077202	0.676391
H167	H	1.122268	0.145730	0.488806
H168	H	1.031669	0.237244	0.053099
H169	H	-0.020291	1.295923	-0.165640
H170	H	0.135046	1.114906	-0.040605
H171	H	0.592188	0.114413	0.081992
H172	H	0.883150	0.334063	-0.026623
H173	H	0.342643	1.096613	-0.413286
H174	H	0.647885	0.333801	-0.026439
H175	H	0.870262	0.258154	0.551336
H176	H	0.231719	1.183471	-0.228176
H177	H	0.046099	1.176171	0.162234
H178	H	0.633339	0.459091	0.001463
H179	H	0.343126	0.982521	0.321710
H180	H	0.263901	0.769283	0.028978
H181	H	0.529959	1.114901	-0.040619
H182	H	1.055871	0.265493	0.160895
H183	H	0.931561	0.390549	0.188977
H184	H	0.374270	1.039560	-0.507144
H185	H	0.375596	1.420690	-0.321985
H186	H	0.617414	0.145658	0.488908
H187	H	0.153940	0.769274	0.028975
H188	H	0.357271	1.183467	-0.228183
H189	H	0.454089	0.107826	0.349596
H190	H	0.468644	-0.017458	0.321686
H191	H	0.468707	0.230302	0.320982
H192	H	0.207651	0.672355	0.294191
H193	H	-0.215633	0.769257	0.028965
H194	H	-0.105680	0.769280	0.028960
H195	H	-0.051964	0.672358	0.294182
H196	H	0.581528	0.665745	-0.141336
H197	H	0.639293	0.561534	-0.152548
H198	H	0.727718	0.402052	-0.169702
