data_functionalizedCrystal
_audit_creation_method	'MofGen! by Chris Wilmer'
_symmetry_space_group_name_H-M	'P1'
_symmetry_Int_Tables_number	1
_symmetry_cell_setting	triclinic
loop_
_symmetry_equiv_pos_as_xyz
  x,y,z
_cell_length_a	23.532407
_cell_length_b	23.532407
_cell_length_c	22.010155
_cell_angle_alpha	90.000423
_cell_angle_beta	90.001992
_cell_angle_gamma	82.848674
loop_
_atom_site_label
_atom_site_type_symbol
_atom_site_fract_x
_atom_site_fract_y
_atom_site_fract_z
O1	O	-0.755264	-0.069127	-0.050440
O2	O	-0.589400	-0.079130	-0.050462
O3	O	-0.677334	0.008803	-0.050439
O4	O	-0.667330	-0.157060	-0.050463
O5	O	-0.677318	0.008790	0.050611
O6	O	-0.589384	-0.079143	0.050588
O7	O	-0.755248	-0.069140	0.050610
Cu8	Cu	-0.672315	-0.074143	0.059826
Cu9	Cu	-0.672333	-0.074127	-0.059678
O10	O	-0.667314	-0.157073	0.050587
C11	C	-0.568176	-0.078882	0.000060
C12	C	-0.504959	-0.078116	0.000052
C13	C	-0.677071	0.030013	0.000087
C14	C	-0.676305	0.093230	0.000092
N15	N	-0.672305	-0.074153	0.143878
C16	C	-0.105856	-0.125350	0.000065
C17	C	-0.046456	-0.124638	0.000068
O18	O	-0.009711	-0.168424	0.000083
N19	N	-0.023830	-0.072362	0.000074
C20	C	-0.060607	-0.020794	0.000083
O21	O	-0.035908	0.023737	0.000089
C22	C	-0.120006	-0.021506	0.000085
C23	C	-0.142629	-0.073785	0.000073
C24	C	-0.128479	-0.177625	0.000054
C25	C	-0.187876	-0.178336	0.000050
C26	C	-0.224649	-0.126772	0.000058
C27	C	-0.202025	-0.074496	0.000069
C28	C	-0.156783	0.030062	0.000099
C29	C	-0.216185	0.029345	0.000101
C30	C	-0.238808	-0.022934	0.000089
C31	C	-0.298194	-0.023643	0.000073
N32	N	-0.320820	-0.075920	0.000067
C33	C	-0.284048	-0.127484	0.000059
C34	C	0.064135	-0.019302	0.000081
C35	C	0.123533	-0.018589	0.000075
C36	C	0.137680	-0.122434	0.000060
C37	C	0.078281	-0.123146	0.000062
C38	C	0.041509	-0.071578	0.000075
C39	C	-0.408784	-0.128974	0.000051
C40	C	-0.468186	-0.129680	0.000045
C41	C	-0.482329	-0.025836	0.000062
C42	C	-0.422932	-0.025129	0.000065
C43	C	-0.386160	-0.076702	0.000062
O44	O	-0.334974	0.020119	0.000060
O45	O	-0.308755	-0.172007	0.000062
C46	C	0.223528	-0.069388	0.000081
C47	C	0.160311	-0.070154	0.000070
C48	C	-0.667577	-0.178283	0.000059
C49	C	-0.668343	-0.241500	0.000051
C50	C	-0.723539	0.492333	0.000065
C51	C	-0.722827	0.551733	0.000060
O52	O	-0.766613	0.588478	0.000043
N53	N	-0.670551	0.574359	0.000054
C54	C	-0.618983	0.537582	0.000046
O55	O	-0.574452	0.562281	0.000039
C56	C	-0.619695	0.478183	0.000046
C57	C	-0.671974	0.455560	0.000059
C58	C	-0.775814	0.469710	0.000077
C59	C	-0.776525	0.410313	0.000083
C60	C	-0.724961	0.373541	0.000076
C61	C	-0.672685	0.396164	0.000064
C62	C	-0.568127	0.441406	0.000034
C63	C	-0.568844	0.382004	0.000034
C64	C	-0.621123	0.359381	0.000046
C65	C	-0.621832	0.299995	0.000064
N66	N	-0.674109	0.277369	0.000071
C67	C	-0.725673	0.314141	0.000077
C68	C	-0.617491	0.662324	0.000044
C69	C	-0.616778	0.721722	0.000048
C70	C	-0.720623	0.735869	0.000061
C71	C	-0.721335	0.676470	0.000061
C72	C	-0.669767	0.639698	0.000050
C73	C	-0.727163	0.189405	0.000090
C74	C	-0.727869	0.130003	0.000098
C75	C	-0.624025	0.115860	0.000081
C76	C	-0.623318	0.175257	0.000076
C77	C	-0.674891	0.212029	0.000078
O78	O	-0.578070	0.263215	0.000078
O79	O	-0.770196	0.289434	0.000075
N80	N	-0.672347	-0.074112	-0.143730
C81	C	-0.711273	-0.035196	0.563668
C82	C	-0.711275	-0.035192	0.627275
O83	O	-0.744384	-0.002076	0.660175
N84	N	-0.672333	-0.074115	0.659085
C85	C	-0.633382	-0.113041	0.627284
O86	O	-0.600259	-0.146148	0.660182
C87	C	-0.633377	-0.113042	0.563678
C88	C	-0.672326	-0.074120	0.531871
C89	C	-0.750217	0.003723	0.531861
C90	C	-0.750215	0.003719	0.468258
C91	C	-0.711268	-0.035205	0.436461
C92	C	-0.672324	-0.074125	0.468268
C93	C	-0.594424	-0.151965	0.531878
C94	C	-0.594422	-0.151962	0.468268
C95	C	-0.633370	-0.113040	0.436461
C96	C	-0.633374	-0.113054	0.372868
N97	N	-0.672317	-0.074130	0.341058
C98	C	-0.711263	-0.035206	0.372855
C99	C	-0.633395	-0.113036	0.760862
C100	C	-0.633402	-0.113039	0.824468
C101	C	-0.711294	-0.035188	0.824454
C102	C	-0.711290	-0.035189	0.760848
C103	C	-0.672337	-0.074113	0.729052
C104	C	-0.711256	-0.035219	0.239284
C105	C	-0.711252	-0.035229	0.175675
C106	C	-0.633358	-0.113077	0.175694
C107	C	-0.633364	-0.113070	0.239297
C108	C	-0.672315	-0.074136	0.271090
O109	O	-0.600282	-0.146151	0.339928
O110	O	-0.744376	-0.002100	0.339950
H111	H	-0.486602	-0.172254	0.000034
H112	H	-0.378851	-0.170970	0.000050
H113	H	-0.762610	0.765821	0.000064
H114	H	-0.582043	0.085909	0.000079
H115	H	-0.525555	0.459814	0.000020
H116	H	0.167632	-0.164421	0.000057
H117	H	-0.819097	0.391900	0.000090
H118	H	0.034198	0.022693	0.000085
H119	H	-0.817806	0.499645	0.000080
H120	H	-0.742971	-0.003534	0.149780
H121	H	-0.138375	0.072634	0.000109
H122	H	-0.246123	0.071339	0.000112
H123	H	-0.404512	0.017441	0.000066
H124	H	-0.763906	0.658056	0.000071
H125	H	-0.601654	-0.144769	0.265195
H126	H	-0.512280	0.016146	0.000066
H127	H	-0.574207	0.740136	0.000048
H128	H	-0.575496	0.632387	0.000040
H129	H	-0.098544	-0.219617	0.000050
H130	H	-0.742973	-0.003515	0.265163
H131	H	-0.770443	0.111587	0.000110
H132	H	-0.601650	-0.144771	0.149795
H133	H	-0.526850	0.352066	0.000023
H134	H	-0.206289	-0.220908	0.000040
H135	H	0.141947	0.023982	0.000075
H136	H	0.059867	-0.165717	0.000056
H137	H	-0.769159	0.219338	0.000089
H138	H	-0.580748	0.193677	0.000083
H139	H	-0.781933	0.035423	0.557744
H140	H	-0.743004	-0.003495	0.734954
H141	H	-0.781929	0.035414	0.442364
H142	H	-0.743007	-0.003493	0.850354
H143	H	-0.601692	-0.144738	0.850360
H144	H	-0.601676	-0.144737	0.734978
H145	H	-0.562708	-0.183658	0.557767
H146	H	-0.562700	-0.183658	0.442383
