data_functionalizedCrystal
_audit_creation_method	'MofGen! by Chris Wilmer'
_symmetry_space_group_name_H-M	'P1'
_symmetry_Int_Tables_number	1
_symmetry_cell_setting	triclinic
loop_
_symmetry_equiv_pos_as_xyz
  x,y,z
_cell_length_a	13.635800
_cell_length_b	9.514063
_cell_length_c	17.078481
_cell_angle_alpha	86.741732
_cell_angle_beta	99.306161
_cell_angle_gamma	61.156686
loop_
_atom_site_label
_atom_site_type_symbol
_atom_site_fract_x
_atom_site_fract_y
_atom_site_fract_z
V1	V	2.032042	-0.221830	0.247987
O2	O	1.981920	0.011046	0.242622
O3	O	2.049532	-0.440223	0.246911
O4	O	1.996883	-0.218249	0.355860
O5	O	2.034934	-0.212465	0.132919
V6	V	2.269874	-0.193995	0.234149
O7	O	2.171291	-0.282887	0.278343
O8	O	2.355724	-0.132938	0.203793
O9	O	2.140781	0.024397	0.235225
O10	O	2.378695	-0.426871	0.239514
O11	O	2.325681	-0.203360	0.349217
O12	O	2.193430	-0.197577	0.126276
V13	V	2.532042	-0.221830	0.247987
O14	O	2.481920	0.011046	0.242622
O15	O	2.549532	-0.440223	0.246911
O16	O	2.496883	-0.218249	0.355860
O17	O	2.534934	-0.212465	0.132919
V18	V	2.769874	-0.193995	0.234149
O19	O	2.671291	-0.282887	0.278343
O20	O	2.855724	-0.132938	0.203793
O21	O	2.640781	0.024397	0.235225
O22	O	2.878695	-0.426871	0.239514
O23	O	2.825681	-0.203360	0.349217
O24	O	2.693430	-0.197577	0.126276
C25	C	1.982529	-0.493467	0.243159
C26	C	2.037400	-0.672005	0.242998
C27	C	1.915370	-0.210315	0.382133
C28	C	1.927541	-0.208832	0.470324
C29	C	2.039456	0.077634	0.238975
C30	C	1.974205	0.256170	0.239141
C31	C	2.106616	-0.205515	0.099998
C32	C	2.084062	-0.206990	0.011807
C33	C	2.482529	-0.493467	0.243159
C34	C	2.537400	-0.672005	0.242998
C35	C	2.415370	-0.210315	0.382133
C36	C	2.427541	-0.208832	0.470324
C37	C	2.025456	-0.216152	0.515820
C38	C	2.036886	-0.214758	0.598684
C39	C	1.950404	-0.206054	0.636051
C40	C	1.852480	-0.198729	0.590548
C41	C	1.841047	-0.200112	0.507685
C42	C	1.974706	-0.201048	0.883440
C43	C	1.986148	-0.199670	0.966311
C44	C	2.170553	-0.215696	0.974440
C45	C	2.159114	-0.217089	0.891576
C46	C	2.061189	-0.209754	0.846079
N47	N	1.962086	-0.204634	0.720752
N48	N	2.049504	-0.211163	0.761379
C49	C	2.539456	0.077634	0.238975
C50	C	2.474205	0.256170	0.239141
C51	C	2.606616	-0.205515	0.099998
C52	C	2.584062	-0.206990	0.011807
C53	C	2.525459	-0.216137	0.515805
C54	C	2.536902	-0.214722	0.598669
C55	C	2.450431	-0.206014	0.636050
C56	C	2.352504	-0.198704	0.590561
C57	C	2.341058	-0.200107	0.507699
C58	C	2.488298	-0.215680	-0.025554
C59	C	2.467085	-0.217047	-0.108420
C60	C	2.541643	-0.209736	-0.153923
C61	C	2.637413	-0.201041	-0.116557
C62	C	2.658620	-0.199662	-0.033694
H63	H	2.133480	-0.747096	0.246167
C64	C	1.844392	-0.642376	0.234843
N65	N	1.746618	-0.565959	0.231607
H66	H	1.782062	-0.191632	0.620979
H67	H	2.095884	-0.223250	0.485403
H68	H	2.633491	-0.747110	0.246186
C69	C	2.344398	-0.642382	0.234840
N70	N	2.246620	-0.565955	0.231584
H71	H	2.116614	-0.220710	0.635723
H72	H	2.229539	-0.224174	0.861157
C73	C	2.257336	-0.188948	0.631679
N74	N	2.185638	-0.181542	0.662648
H75	H	2.250279	-0.221665	1.011492
C76	C	1.891002	-0.190087	1.007412
N77	N	1.819343	-0.182869	1.038369
C78	C	2.719420	-0.193005	-0.166623
N79	N	2.781190	-0.186963	-0.204334
H80	H	2.261322	-0.194162	0.470674
C81	C	2.406262	-0.223711	0.024484
N82	N	2.344462	-0.229749	0.062167
H83	H	2.389099	-0.224127	-0.138831
H84	H	1.761303	-0.194111	0.470639
C85	C	2.620590	-0.225704	0.474701
N86	N	2.692246	-0.232899	0.443746
H87	H	1.894989	-0.195133	0.846412
C88	C	2.644634	-0.222774	0.648691
N89	N	2.725779	-0.228841	0.686366
H90	H	2.459765	-0.204874	0.703523
H91	H	2.524369	-0.210879	-0.221394
H92	H	2.736606	-0.192596	-0.003281
