data_functionalizedCrystal
_audit_creation_method	'MofGen! by Chris Wilmer'
_symmetry_space_group_name_H-M	'P1'
_symmetry_Int_Tables_number	1
_symmetry_cell_setting	triclinic
loop_
_symmetry_equiv_pos_as_xyz
  x,y,z
_cell_length_a	17.038272
_cell_length_b	16.109301
_cell_length_c	15.186229
_cell_angle_alpha	90.005167
_cell_angle_beta	89.997723
_cell_angle_gamma	87.286519
loop_
_atom_site_label
_atom_site_type_symbol
_atom_site_fract_x
_atom_site_fract_y
_atom_site_fract_z
O1	O	-1.037364	-0.180538	-0.073123
O2	O	-0.809733	-0.177672	-0.073149
O3	O	-0.929802	-0.058518	-0.073127
O4	O	-0.917296	-0.299692	-0.073146
O5	O	-0.929794	-0.058516	0.073331
O6	O	-0.809725	-0.177669	0.073308
O7	O	-1.037356	-0.180536	0.073334
Zn8	Zn	-0.923539	-0.179102	0.096574
Zn9	Zn	-0.923550	-0.179105	-0.096390
O10	O	-0.917288	-0.299690	0.073311
C11	C	-0.780601	-0.175063	0.000076
C12	C	-0.693808	-0.167284	0.000067
C13	C	-0.929291	-0.027506	0.000102
C14	C	-0.927773	0.064897	0.000103
C15	C	-1.066488	-0.183145	0.000106
C16	C	-1.153281	-0.190924	0.000110
C17	C	-0.643694	-0.238705	0.000062
C18	C	-0.562143	-0.231391	0.000074
C19	C	-0.530709	-0.152655	0.000086
C20	C	-0.580830	-0.081229	0.000093
C21	C	-0.662379	-0.088544	0.000087
C22	C	-0.284951	-0.126813	0.000111
C23	C	-0.203396	-0.119503	0.000115
C24	C	-0.184714	-0.269665	0.000098
C25	C	-0.266266	-0.276973	0.000086
C26	C	-0.316380	-0.205547	0.000098
C27	C	-0.447352	-0.145177	0.000096
C28	C	-0.399736	-0.213026	0.000094
C29	C	-0.917798	-0.330702	0.000080
C30	C	-0.919317	-0.423105	0.000073
N31	N	-0.923538	-0.179100	0.228267
C32	C	-0.995487	0.282360	0.000097
C33	C	-0.994054	0.369183	0.000090
C34	C	-0.851597	0.359425	0.000077
C35	C	-0.853031	0.272605	0.000078
C36	C	-0.924978	0.234075	0.000093
C37	C	-0.922111	0.407718	0.000084
C38	C	-0.920557	0.501854	0.000076
C39	C	-0.926533	0.139932	0.000099
N40	N	-0.923558	-0.179102	-0.228082
C41	C	-0.976722	-0.126359	0.454000
C42	C	-0.976725	-0.126357	0.546189
C43	C	-0.870368	-0.231845	0.546178
C44	C	-0.870362	-0.231842	0.453990
C45	C	-0.923544	-0.179100	0.407903
C46	C	-0.923552	-0.179101	0.592281
C47	C	-0.923554	-0.179100	0.692237
C48	C	-0.923541	-0.179100	0.307941
H49	H	-0.669280	-0.302820	0.000052
C50	C	-1.071616	0.422296	0.000098
C51	C	-1.130570	0.414393	0.076158
C52	C	-1.208135	0.467506	0.076164
C53	C	-1.226747	0.528522	0.000111
C54	C	-1.167792	0.536428	-0.075955
C55	C	-1.090226	0.483315	-0.075961
H56	H	-1.116793	0.369222	0.132463
H57	H	-1.251778	0.461653	0.132474
H58	H	-1.284166	0.567840	0.000116
H59	H	-1.181569	0.581598	-0.132259
H60	H	-1.046584	0.489168	-0.132271
H61	H	-0.521342	-0.289549	0.000069
H62	H	-0.827054	-0.274790	0.416456
C63	C	-0.772456	0.401808	0.000069
C64	C	-0.713894	0.385838	-0.075987
C65	C	-0.634750	0.428217	-0.075992
C66	C	-0.614169	0.486565	0.000059
C67	C	-0.672732	0.502537	0.076122
C68	C	-0.751876	0.460158	0.076127
H69	H	-0.729128	0.342643	-0.132290
H70	H	-0.591398	0.416393	-0.132299
H71	H	-0.555582	0.517936	0.000056
H72	H	-0.657498	0.545732	0.132425
H73	H	-0.795228	0.471982	0.132434
H74	H	-0.177806	-0.055384	0.000124
C75	C	-0.412774	-0.058567	0.000104
C76	C	-0.431681	0.002368	-0.075943
C77	C	-0.397103	0.088978	-0.075931
C78	C	-0.343617	0.114653	0.000128
C79	C	-0.324707	0.053717	0.076181
C80	C	-0.359286	-0.032893	0.076169
H81	H	-0.471277	-0.016637	-0.132252
H82	H	-0.411101	0.134087	-0.132231
H83	H	-0.318020	0.178767	0.000137
H84	H	-0.285111	0.072722	0.132490
H85	H	-0.345287	-0.078002	0.132469
H86	H	-0.291853	-0.341088	0.000066
C87	C	-0.129588	-0.348230	0.000094
C88	C	-0.070946	-0.363854	-0.075952
C89	C	-0.015819	-0.442422	-0.075952
C90	C	-0.019334	-0.505366	0.000095
C91	C	-0.077978	-0.489743	0.076146
C92	C	-0.133105	-0.411175	0.076146
H93	H	-0.068342	-0.317258	-0.132251
H94	H	0.027593	-0.453987	-0.132250
H95	H	0.021474	-0.563527	0.000095
H96	H	-0.080582	-0.536339	0.132445
H97	H	-0.176517	-0.399611	0.132445
C98	C	-1.035215	-0.068338	0.403304
C99	C	-1.033925	0.026430	0.415992
C100	C	-1.092417	0.084455	0.365299
C101	C	-1.152200	0.047711	0.301918
C102	C	-1.153492	-0.047062	0.289226
C103	C	-1.094999	-0.105087	0.339919
H104	H	-0.989669	0.053634	0.462914
H105	H	-1.091461	0.154612	0.374695
H106	H	-1.195499	0.090665	0.264392
H107	H	-1.197748	-0.074266	0.242305
H108	H	-1.095956	-0.175244	0.330524
H109	H	-0.325745	-0.068652	0.000122
H110	H	-0.555230	-0.017121	0.000115
C111	C	-0.717509	-0.009981	0.000091
C112	C	-0.714010	0.052964	0.076149
C113	C	-0.769140	0.131530	0.076158
C114	C	-0.827769	0.147151	0.000108
C115	C	-0.831271	0.084204	-0.075957
C116	C	-0.776141	0.005639	-0.075965
H117	H	-0.670607	0.041402	0.132451
H118	H	-0.766547	0.178127	0.132466
H119	H	-0.868580	0.205310	0.000114
H120	H	-0.874675	0.095766	-0.132259
H121	H	-0.778734	-0.040958	-0.132274
C122	C	-0.775465	0.219484	0.000074
C123	C	-0.756866	0.158451	-0.075981
C124	C	-0.679304	0.105330	-0.075989
C125	C	-0.620342	0.113244	0.000058
C126	C	-0.638940	0.174280	0.076119
C127	C	-0.716502	0.227400	0.076127
H128	H	-0.800514	0.152590	-0.132280
H129	H	-0.665537	0.060147	-0.132294
H130	H	-0.562927	0.073921	0.000052
H131	H	-0.595292	0.180141	0.132418
H132	H	-0.730269	0.272584	0.132432
C133	C	-1.035224	-0.068344	0.596896
C134	C	-1.093727	-0.010340	0.546200
C135	C	-1.152228	0.047676	0.596907
C136	C	-1.152226	0.047689	0.698311
C137	C	-1.093722	-0.010317	0.749012
C138	C	-1.035221	-0.068333	0.698305
H139	H	-1.093729	-0.010348	0.471131
H140	H	-1.195536	0.090616	0.559374
H141	H	-1.195532	0.090637	0.735847
H142	H	-1.093719	-0.010309	0.824082
H143	H	-0.991912	-0.111273	0.735838
H144	H	-0.425333	-0.277132	0.000090
C145	C	-0.811875	-0.289865	0.596875
C146	C	-0.811920	-0.289924	0.698278
C147	C	-0.753427	-0.347949	0.748971
C148	C	-0.694890	-0.405915	0.698260
C149	C	-0.694844	-0.405859	0.596852
C150	C	-0.753336	-0.347834	0.546159
H151	H	-0.855254	-0.247012	0.735821
H152	H	-0.753462	-0.347991	0.824040
H153	H	-0.651591	-0.448869	0.735786
H154	H	-0.651509	-0.448770	0.559308
H155	H	-0.753301	-0.347792	0.471089
H156	H	-1.054072	0.250992	0.000107
