data_functionalizedCrystal
_audit_creation_method	'MofGen! by Chris Wilmer'
_symmetry_space_group_name_H-M	'P1'
_symmetry_Int_Tables_number	1
_symmetry_cell_setting	triclinic
loop_
_symmetry_equiv_pos_as_xyz
  x,y,z
_cell_length_a	23.096457
_cell_length_b	21.606444
_cell_length_c	21.606444
_cell_angle_alpha	60.001331
_cell_angle_beta	89.999780
_cell_angle_gamma	59.997059
loop_
_atom_site_label
_atom_site_type_symbol
_atom_site_fract_x
_atom_site_fract_y
_atom_site_fract_z
Zr1	Zr	0.557765	0.677437	-0.081213
O2	O	0.465309	0.806562	-0.180034
O3	O	0.586109	0.548316	-0.050923
O4	O	0.586102	0.677440	-0.180041
O5	O	0.465321	0.677434	0.050938
O6	O	0.681384	0.677438	-0.180043
O7	O	0.465317	0.677438	-0.050916
O8	O	0.681397	0.446459	0.050926
O9	O	0.465308	0.908413	-0.180031
O10	O	0.669304	0.601422	-0.038002
O11	O	0.598200	0.601421	0.038012
O12	O	0.598191	0.753447	-0.114008
O13	O	0.527087	0.753446	-0.037994
Zr14	Zr	0.709737	0.677426	0.081229
Zr15	Zr	0.709730	0.677433	-0.081217
Zr16	Zr	0.557773	0.677430	0.081232
Zr17	Zr	0.557764	0.839877	-0.081208
Zr18	Zr	0.709739	0.514986	0.081223
O19	O	0.681394	0.806546	0.050938
O20	O	0.681383	0.806556	-0.180039
O21	O	0.465320	0.806552	0.050943
O22	O	0.802194	0.548301	0.180049
O23	O	0.802183	0.548311	-0.050927
O24	O	0.586120	0.548307	0.180054
O25	O	0.802182	0.677429	-0.050923
O26	O	0.681401	0.677422	0.180056
O27	O	0.586119	0.677425	0.180058
O28	O	0.802186	0.677425	0.050931
O29	O	0.586099	0.908410	-0.180033
O30	O	0.681403	0.446453	0.180049
O31	O	0.802195	0.446450	0.180046
O32	O	0.802189	0.446456	0.050923
O33	O	0.465314	0.908407	-0.050908
O34	O	0.586106	0.908404	-0.050911
O35	O	0.669312	0.601416	0.114023
O36	O	0.740416	0.601417	0.038009
O37	O	0.669303	0.753442	-0.037997
O38	O	0.598198	0.753441	0.038017
C39	C	0.633753	0.474243	0.000001
C40	C	0.633754	0.405283	-0.000001
C41	C	0.670868	0.372886	-0.039681
C42	C	0.670871	0.308086	-0.039676
C43	C	0.633755	0.275689	0.000005
C44	C	0.596639	0.308088	0.039690
C45	C	0.596641	0.372883	0.039689
C46	C	0.596631	0.046779	0.039696
C47	C	0.596630	-0.018018	0.039692
C48	C	0.670860	-0.018017	-0.039668
C49	C	0.670863	0.046777	-0.039670
C50	C	0.633751	0.079168	0.000018
C51	C	0.633749	0.149430	0.000013
C52	C	0.633751	0.205432	0.000006
C53	C	0.443667	0.677436	0.000012
C54	C	0.379154	0.677438	0.000013
C55	C	0.348849	0.677447	-0.056102
C56	C	0.288237	0.677439	-0.056102
C57	C	0.257924	0.677440	0.000008
C58	C	0.288239	0.677426	0.056134
C59	C	0.348854	0.677425	0.056136
N60	N	0.139572	0.726992	0.016997
N61	N	0.081989	0.726994	0.016989
C62	C	0.075295	0.677440	0.000004
N63	N	0.128353	0.627894	-0.016989
N64	N	0.185939	0.627895	-0.016985
C65	C	0.192197	0.677440	0.000012
C66	C	-0.020733	0.677439	-0.056115
C67	C	-0.081344	0.677426	-0.056110
C68	C	-0.081344	0.677421	0.056124
C69	C	-0.020730	0.677426	0.056121
C70	C	0.009570	0.677439	-0.000002
C71	C	0.823836	0.677427	0.000003
C72	C	0.888348	0.677425	0.000002
C73	C	0.633742	0.677440	-0.203187
C74	C	0.633739	0.677443	-0.272149
C75	C	0.633749	0.880619	0.000014
C76	C	0.633749	0.949580	0.000016
C77	C	0.596618	0.756798	-0.344222
C78	C	0.596624	0.756796	-0.409017
C79	C	0.633747	0.677437	-0.401738
C80	C	0.670872	0.598076	-0.329657
C81	C	0.670870	0.598080	-0.264864
C82	C	0.670884	0.598061	-0.590960
C83	C	0.670881	0.598064	-0.655761
C84	C	0.596638	0.756777	-0.735114
C85	C	0.596635	0.756781	-0.670320
C86	C	0.633763	0.677420	-0.598246
C87	C	0.633757	0.677424	-0.527988
C88	C	0.633749	0.677433	-0.471993
C89	C	0.633761	0.677423	0.203202
C90	C	0.633764	0.677420	0.272165
C91	C	0.823838	0.474239	-0.000003
C92	C	0.888351	0.405277	-0.000007
C93	C	0.633763	0.474235	0.203196
C94	C	0.633767	0.405272	0.272156
C95	C	0.823847	0.474230	0.203191
C96	C	0.888364	0.405265	0.272150
C97	C	0.443656	0.880633	-0.203176
C98	C	0.379139	0.949598	-0.272135
C99	C	0.443665	0.880624	0.000019
C100	C	0.379152	0.949586	0.000022
C101	C	0.633740	0.880628	-0.203180
C102	C	0.633736	0.949591	-0.272141
C103	C	0.881528	0.372894	-0.039692
C104	C	0.942139	0.308106	-0.039711
C105	C	1.009573	0.275698	-0.000039
C106	C	1.016395	0.308087	0.039647
C107	C	0.955785	0.372878	0.039661
C108	C	0.670888	0.372883	0.344224
C109	C	0.670889	0.308094	0.409026
C110	C	0.633773	0.275690	0.401757
C111	C	0.596647	0.308085	0.329682
C112	C	0.596642	0.372877	0.264882
C113	C	0.955784	0.372879	0.264855
C114	C	1.016410	0.308089	0.329643
C115	C	1.009615	0.275680	0.401725
C116	C	0.942188	0.308073	0.409018
C117	C	0.881563	0.372867	0.344231
C118	C	0.311719	0.981991	-0.264840
C119	C	0.251093	1.046802	-0.329628
C120	C	0.257888	1.079214	-0.401710
C121	C	0.325315	1.046817	-0.409003
C122	C	0.385940	0.982012	-0.344216
C123	C	0.385975	0.981975	0.039701
C124	C	0.325364	1.046781	0.039702
C125	C	0.257929	1.079192	0.000028
C126	C	0.251107	1.046800	-0.039656
C127	C	0.311718	0.982000	-0.039661
C128	C	0.670860	0.981975	-0.264848
C129	C	0.670870	1.046764	-0.329637
C130	C	0.633752	1.079174	-0.401718
C131	C	0.596626	1.046784	-0.409009
C132	C	0.596621	0.981991	-0.344221
H133	H	0.701093	0.281709	-0.071985
C134	C	0.807403	0.408481	0.352261
H135	H	0.772265	0.451716	0.303357
H136	H	0.802101	0.361954	0.379189
H137	H	0.802090	0.433760	0.379186
H138	H	0.633782	0.222932	0.454528
H139	H	0.003943	0.677424	0.101813
H140	H	0.701083	0.073156	-0.071984
H141	H	0.003940	0.677446	-0.101812
H142	H	-0.106016	0.677427	-0.101804
C143	C	0.711695	0.408522	-0.083330
H144	H	0.706377	0.451757	-0.077655
H145	H	0.760529	0.362003	-0.063739
H146	H	0.693356	0.433804	-0.135533
C147	C	0.460145	0.946334	0.083347
H148	H	0.455517	0.974919	0.106969
H149	H	0.485336	0.885160	0.120895
H150	H	0.485333	0.956957	0.049094
H151	H	0.961330	0.399256	0.206168
C152	C	0.555831	0.272425	0.321696
H153	H	0.561163	0.229191	0.370614
H154	H	0.506993	0.318929	0.294777
H155	H	0.574173	0.247133	0.294782
C156	C	0.711695	0.946330	-0.185566
H157	H	0.706376	0.903107	-0.148017
H158	H	0.760528	0.921048	-0.179886
H159	H	0.693364	0.992850	-0.179881
C160	C	0.332877	1.082404	0.083354
H161	H	0.287125	1.125648	0.077670
H162	H	0.358063	1.035884	0.135553
H163	H	0.358070	1.107673	0.063755
H164	H	0.701082	-0.044399	-0.071982
C165	C	1.090575	0.272424	0.083289
H166	H	1.125689	0.229192	0.077601
H167	H	1.095905	0.318927	0.063708
H168	H	1.095898	0.247129	0.135495
C169	C	0.807358	0.408537	-0.083339
H170	H	0.811985	0.379972	-0.106981
H171	H	0.782166	0.397916	-0.049097
H172	H	0.782170	0.469716	-0.120886
H173	H	0.208582	1.131957	0.000038
H174	H	0.566403	0.821402	-0.676255
C175	C	0.555812	0.408492	0.185611
H176	H	0.533715	0.379904	0.190570
H177	H	0.520682	0.469667	0.158676
H178	H	0.587854	0.397858	0.158686
C179	C	-0.114682	0.677424	0.117843
H180	H	-0.155125	0.677431	0.109803
H181	H	-0.081001	0.626658	0.166282
H182	H	-0.128500	0.728199	0.115512
H183	H	0.936571	0.281743	-0.072029
H184	H	0.306153	0.955630	-0.071970
C185	C	1.090570	0.272460	0.321607
H186	H	1.085929	0.301033	0.269397
H187	H	1.115768	0.283082	0.345222
H188	H	1.115761	0.211282	0.345233
C189	C	0.711702	1.082391	-0.321608
H190	H	0.706400	1.125614	-0.370513
H191	H	0.693365	1.107668	-0.294686
H192	H	0.760538	1.035863	-0.294678
C193	C	0.460098	0.946375	-0.352250
H194	H	0.455455	0.974957	-0.404459
H195	H	0.485303	0.956981	-0.328625
H196	H	0.485281	0.885200	-0.328634
C197	C	0.176931	1.082425	-0.321596
H198	H	0.141793	1.125671	-0.370500
H199	H	0.171619	1.035904	-0.294678
H200	H	0.171625	1.107691	-0.294661
C201	C	0.555804	0.844074	-0.814397
H202	H	0.561126	0.832711	-0.851946
H203	H	0.506969	0.876680	-0.820082
H204	H	0.574136	0.876679	-0.820078
H205	H	0.701114	0.399259	0.350156
C206	C	0.176928	1.082452	-0.083287
H207	H	0.141813	1.125675	-0.077589
H208	H	0.171594	1.107736	-0.135490
H209	H	0.171609	1.035934	-0.063683
C210	C	0.555802	0.082409	0.083342
H211	H	0.533690	0.053840	0.106966
H212	H	0.587839	0.071787	0.120890
H213	H	0.520672	0.143588	0.049090
H214	H	0.566417	0.399262	0.071998
H215	H	0.566422	0.281701	0.072003
H216	H	1.058985	0.222921	0.454473
H217	H	0.633762	1.131932	-0.454467
H218	H	0.936665	0.281676	0.467716
C219	C	0.555770	0.946388	-0.352248
H220	H	0.561079	0.903156	-0.303343
H221	H	0.506939	0.992921	-0.379174
H222	H	0.574098	0.921108	-0.379174
C223	C	0.191199	1.150494	-0.472971
H224	H	0.204897	1.165166	-0.516949
H225	H	0.163778	1.129253	-0.472967
H226	H	0.163783	1.201047	-0.472963
H227	H	0.566404	-0.044395	0.072008
C228	C	0.555749	1.082491	-0.488298
H229	H	0.533624	1.053940	-0.483371
H230	H	0.520637	1.143663	-0.515175
H231	H	0.587758	1.071899	-0.515264
C232	C	0.382181	0.677450	-0.117830
H233	H	0.355451	0.677447	-0.151247
H234	H	0.382082	0.728215	-0.145543
H235	H	0.429576	0.626674	-0.094776
H236	H	0.263558	0.677446	-0.101800
C237	C	0.332781	1.082469	-0.488295
H238	H	0.287015	1.125695	-0.525829
H239	H	0.357966	1.107749	-0.493993
H240	H	0.357957	1.035951	-0.493986
H241	H	0.961350	0.399235	0.071982
C242	C	0.555788	0.844086	-0.488295
H243	H	0.533671	0.891349	-0.483351
H244	H	0.587825	0.847389	-0.515222
H245	H	0.520662	0.847381	-0.515219
H246	H	0.306172	0.955606	-0.206153
C247	C	0.254899	0.677431	0.117853
H248	H	0.281634	0.677420	0.151278
H249	H	0.207505	0.728200	0.094803
H250	H	0.255002	0.626659	0.145568
C251	C	0.382187	0.677426	0.117861
H252	H	0.355453	0.677430	0.151278
H253	H	0.429582	0.626663	0.145576
H254	H	0.382076	0.728203	0.094805
C255	C	1.076239	0.204421	-0.000053
H256	H	1.062511	0.189775	-0.029365
H257	H	1.103666	0.225648	-0.021296
H258	H	1.103661	0.153856	0.050500
H259	H	0.701114	0.533437	-0.649825
C260	C	0.711715	0.510768	-0.511688
H261	H	0.733816	0.463508	-0.516635
H262	H	0.746841	0.507463	-0.484758
H263	H	0.679670	0.507472	-0.484765
H264	H	0.566383	0.821421	-0.350159
H265	H	0.701124	0.281726	0.467706
H266	H	0.701097	0.533460	-0.206178
C267	C	0.711706	0.510784	-0.321648
H268	H	0.706385	0.522146	-0.370559
H269	H	0.760540	0.478174	-0.294726
H270	H	0.693370	0.478182	-0.294726
