data_functionalizedCrystal
_audit_creation_method	'MofGen! by Chris Wilmer'
_symmetry_space_group_name_H-M	'P1'
_symmetry_Int_Tables_number	1
_symmetry_cell_setting	triclinic
loop_
_symmetry_equiv_pos_as_xyz
  x,y,z
_cell_length_a	19.188925
_cell_length_b	11.026607
_cell_length_c	10.065875
_cell_angle_alpha	79.268236
_cell_angle_beta	81.282196
_cell_angle_gamma	84.135717
loop_
_atom_site_label
_atom_site_type_symbol
_atom_site_fract_x
_atom_site_fract_y
_atom_site_fract_z
O1	O	0.953408	-0.133484	-0.113520
O2	O	0.752695	-0.153873	-0.113516
O3	O	0.836416	0.032885	-0.113513
O4	O	0.869687	-0.320242	-0.113524
O5	O	0.820470	-0.002870	0.113475
O6	O	0.736748	-0.189627	0.113472
O7	O	0.937462	-0.169239	0.113468
Zn8	Zn	0.834573	-0.185110	0.149509
Zn9	Zn	0.855583	-0.138002	-0.149558
O10	O	0.853740	-0.355996	0.113465
C11	C	0.822305	0.060186	-0.000020
C12	C	0.804009	0.194803	-0.000025
C13	C	0.718626	-0.171091	-0.000022
C14	C	0.640869	-0.169113	-0.000020
C15	C	0.091377	-0.265446	-0.000026
C16	C	0.164439	-0.267315	-0.000034
C17	C	0.195407	-0.157732	-0.000028
C18	C	0.153309	-0.046267	-0.000050
C19	C	0.080250	-0.044399	-0.000056
N20	N	0.300545	-0.090569	0.077243
N21	N	0.369948	-0.092351	0.077252
C22	C	0.415531	-0.163352	-0.000012
N23	N	0.389087	-0.232524	-0.077268
N24	N	0.319677	-0.230746	-0.077270
C25	C	0.274627	-0.159745	-0.000022
C26	C	0.536842	-0.276834	-0.000008
C27	C	0.609906	-0.278697	-0.000024
C28	C	0.598774	-0.057648	-0.000026
C29	C	0.525713	-0.055786	-0.000024
C30	C	0.494751	-0.165384	-0.000008
C31	C	0.971530	-0.152020	-0.000030
C32	C	1.049288	-0.153997	-0.000040
C33	C	0.867851	-0.383297	-0.000031
C34	C	0.886148	-0.517913	-0.000036
N35	N	0.820239	-0.217259	0.353614
C36	C	0.854529	0.268879	-0.000028
C37	C	0.835620	0.408013	-0.000033
N38	N	0.869922	-0.105843	-0.353663
C39	C	0.850591	-0.149180	0.421394
C40	C	0.839565	-0.173932	0.578561
H41	H	0.066173	-0.354688	-0.000020
C42	C	0.931875	0.215406	-0.000019
N43	N	0.990133	0.175131	-0.000008
H44	H	0.778366	0.447594	-0.000040
H45	H	0.904069	-0.029223	0.588018
H46	H	0.045981	0.046359	-0.000068
H47	H	0.943411	0.442526	-0.000139
C48	C	0.774103	-0.320755	0.432404
N49	N	0.739352	-0.398709	0.491746
C50	C	0.896709	-0.045660	0.342605
N51	N	0.931443	0.032320	0.283262
C52	C	0.479411	0.066814	-0.000010
N53	N	0.444536	0.159162	0.000002
H54	H	0.805412	-0.250543	0.636881
C55	C	0.210744	-0.389924	-0.000009
N56	N	0.245619	-0.482274	0.000014
H57	H	0.644175	-0.369454	-0.000023
C58	C	0.502784	-0.397389	-0.000016
N59	N	0.477133	-0.488190	-0.000028
H60	H	0.623988	0.031578	-0.000032
C61	C	0.187375	0.074273	-0.000035
N62	N	0.213033	0.165068	-0.000025
H63	H	0.746758	0.234390	-0.000033
