data_functionalizedCrystal
_audit_creation_method	'MofGen! by Chris Wilmer'
_symmetry_space_group_name_H-M	'P1'
_symmetry_Int_Tables_number	1
_symmetry_cell_setting	triclinic
loop_
_symmetry_equiv_pos_as_xyz
  x,y,z
_cell_length_a	18.050590
_cell_length_b	25.639240
_cell_length_c	25.639217
_cell_angle_alpha	89.879687
_cell_angle_beta	89.942874
_cell_angle_gamma	90.021926
loop_
_atom_site_label
_atom_site_type_symbol
_atom_site_fract_x
_atom_site_fract_y
_atom_site_fract_z
Zn1	Zn	1.135693	-0.207879	-0.295376
Zn2	Zn	1.135468	-0.295442	-0.207929
Zn3	Zn	1.011387	-0.208006	-0.207977
Zn4	Zn	1.011451	-0.295269	-0.295357
O5	O	1.073500	-0.251649	-0.251660
O6	O	1.239588	-0.219514	-0.283764
O7	O	1.118888	-0.283969	-0.134770
O8	O	1.027944	-0.134824	-0.219599
O9	O	1.239423	-0.283846	-0.219517
O10	O	1.119271	-0.134730	-0.283811
O11	O	1.027726	-0.219730	-0.134805
O12	O	0.907471	-0.219562	-0.219580
O13	O	1.028052	-0.283551	-0.368525
O14	O	0.907518	-0.283674	-0.283778
O15	O	1.119333	-0.219346	-0.368539
O16	O	1.118950	-0.368584	-0.219498
O17	O	1.027834	-0.368457	-0.283731
C18	C	0.880548	-0.251613	-0.251682
C19	C	0.798002	-0.251610	-0.251704
C20	C	0.598598	-0.286574	-0.286532
C21	C	0.549229	-0.238882	-0.299406
C22	C	0.646872	-0.251640	-0.251679
C23	C	0.549159	-0.299360	-0.238804
C24	C	0.500886	-0.251672	-0.251655
C25	C	0.598590	-0.203921	-0.264578
C26	C	0.598524	-0.264431	-0.203954
C27	C	0.549177	-0.216706	-0.216810
C28	C	0.730970	-0.251622	-0.251694
C29	C	0.416790	-0.251685	-0.251640
C30	C	1.073395	-0.387491	-0.251619
C31	C	1.073418	-0.445605	-0.251619
C32	C	1.121078	-0.805881	-0.285155
C33	C	1.121099	-0.860486	-0.285166
O34	O	1.161497	-0.888648	-0.313637
N35	N	1.073603	-0.887888	-0.251710
C36	C	1.026076	-0.860683	-0.218246
O37	O	0.985678	-0.889004	-0.189791
C38	C	1.026051	-0.806079	-0.218238
C39	C	1.073556	-0.778680	-0.251692
C40	C	1.168578	-0.778482	-0.318607
C41	C	1.168557	-0.723882	-0.318595
C42	C	1.121035	-0.696680	-0.285132
C43	C	1.073535	-0.724080	-0.251681
C44	C	0.978521	-0.778875	-0.184777
C45	C	0.978499	-0.724268	-0.184772
C46	C	1.026004	-0.696869	-0.218226
C47	C	1.025992	-0.642278	-0.218206
N48	N	1.073488	-0.614876	-0.251662
C49	C	1.121010	-0.642077	-0.285125
C50	C	1.026131	-0.975353	-0.218265
C51	C	1.026160	-1.029956	-0.218269
C52	C	1.121182	-1.029755	-0.285190
C53	C	1.121157	-0.975151	-0.285183
C54	C	1.073628	-0.947951	-0.251720
C55	C	1.120963	-0.527412	-0.285098
C56	C	1.120939	-0.472807	-0.285082
C57	C	1.025914	-0.473012	-0.218163
C58	C	1.025940	-0.527613	-0.218177
C59	C	1.073467	-0.554811	-0.251648
O60	O	0.985613	-0.614080	-0.189751
O61	O	1.161395	-0.613749	-0.313580
C62	C	1.267205	-0.251685	-0.251637
C63	C	1.349751	-0.251700	-0.251628
C64	C	1.073725	-0.251415	-0.388033
C65	C	1.073821	-0.251315	-0.446147
C66	C	1.073625	-0.115276	-0.251712
C67	C	1.073679	-0.057162	-0.251735
C68	C	1.073318	-0.251844	-0.115817
C69	C	1.073367	-0.251796	-0.057703
C70	C	1.120727	-0.217919	0.193330
C71	C	1.120685	-0.217962	0.138726
O72	O	1.160767	-0.189338	0.110353
N73	N	1.073488	-0.251656	0.111571
C74	C	1.026325	-0.285305	0.139023
O75	O	0.986176	-0.313968	0.110912
C76	C	1.026364	-0.285259	0.193626
C77	C	1.073569	-0.251567	0.220778
C78	C	1.167927	-0.184229	0.220482
C79	C	1.167970	-0.184188	0.275082
C80	C	1.120812	-0.217835	0.302531
C81	C	1.073612	-0.251525	0.275379
C82	C	0.979198	-0.318906	0.221077
C83	C	0.979240	-0.318857	0.275684
C84	C	1.026445	-0.285165	0.302836
C85	C	1.026497	-0.285131	0.357427
N86	N	1.073693	-0.251438	0.384582
C87	C	1.120851	-0.217790	0.357134
C88	C	1.026247	-0.285398	0.024352
C89	C	1.026211	-0.285446	-0.030250
C90	C	1.120570	-0.218103	-0.030543
C91	C	1.120609	-0.218057	0.024060
C92	C	1.073443	-0.251704	0.051507
C93	C	1.120938	-0.217705	0.471799
C94	C	1.120978	-0.217667	0.526404
C95	C	1.026617	-0.285009	0.526693
C96	C	1.026579	-0.285048	0.472092
C97	C	1.073742	-0.251392	0.444647
O98	O	0.986433	-0.313739	0.385835
O99	O	1.160986	-0.189127	0.385252
H100	H	0.527443	-0.339702	-0.227927
H101	H	0.988225	-0.312406	0.549051
H102	H	1.207237	-0.701576	-0.345838
H103	H	1.159839	-0.952846	-0.312424
H104	H	0.939793	-0.702124	-0.157524
H105	H	1.159340	-0.190297	0.449459
H106	H	1.159421	-0.190231	0.548509
H107	H	1.206408	-0.156751	0.297185
C108	C	0.520040	-0.176771	-0.176979
C109	C	0.471206	-0.194984	-0.131144
C110	C	0.442067	-0.155048	-0.091315
C111	C	0.461761	-0.096899	-0.097322
C112	C	0.510597	-0.078683	-0.143158
C113	C	0.539736	-0.118619	-0.182987
H114	H	0.456625	-0.238032	-0.126696
H115	H	0.405915	-0.168533	-0.057384
H116	H	0.440190	-0.067336	-0.067838
H117	H	0.525178	-0.035635	-0.147607
H118	H	0.575888	-0.105134	-0.216918
C119	C	0.973908	-1.060090	-0.181466
C120	C	0.979934	-1.052711	-0.122030
C121	C	0.927677	-1.082843	-0.085228
C122	C	0.869392	-1.120355	-0.107861
C123	C	0.863364	-1.127736	-0.167300
C124	C	0.915621	-1.097604	-0.204103
H125	H	1.023082	-1.024941	-0.105273
H126	H	0.932140	-1.077379	-0.041227
H127	H	0.830708	-1.142661	-0.080618
H128	H	0.820216	-1.155506	-0.184058
H129	H	0.911158	-1.103068	-0.248103
C130	C	1.173245	-0.557325	-0.321913
C131	C	1.231558	-0.594886	-0.299293
C132	C	1.283843	-0.624800	-0.336105
C133	C	1.277815	-0.617152	-0.395538
C134	C	1.219500	-0.579590	-0.418162
C135	C	1.167214	-0.549676	-0.381349
H136	H	1.236022	-0.600549	-0.255294
H137	H	1.327012	-0.652606	-0.319358
H138	H	1.316520	-0.639296	-0.422789
H139	H	1.215035	-0.573927	-0.462161
H140	H	1.124045	-0.521870	-0.398097
H141	H	1.206329	-0.156826	0.198139
H142	H	1.158967	-0.190703	-0.052902
C143	C	1.172529	-0.180992	0.053925
C144	C	1.165903	-0.121593	0.046244
C145	C	1.217825	-0.084525	0.076106
C146	C	1.276373	-0.106857	0.113648
C147	C	1.283001	-0.166259	0.121330
C148	C	1.231080	-0.203327	0.091469
H149	H	1.122561	-0.105059	0.018452
H150	H	1.212918	-0.040552	0.070419
H151	H	1.314808	-0.079417	0.135754
H152	H	1.326344	-0.182793	0.149123
H153	H	1.235987	-0.247300	0.097156
C154	C	0.627791	-0.149405	-0.279342
C155	C	0.572974	-0.104976	-0.291345
C156	C	0.602177	-0.050461	-0.306111
C157	C	0.686196	-0.040376	-0.308875
C158	C	0.741019	-0.084807	-0.296871
C159	C	0.711816	-0.139321	-0.282105
H160	H	0.510773	-0.112440	-0.289300
H161	H	0.561593	-0.017571	-0.314997
H162	H	0.707814	-0.000021	-0.319805
H163	H	0.803220	-0.077342	-0.298917
H164	H	0.752399	-0.172211	-0.273220
C165	C	0.519966	-0.224278	-0.353913
C166	C	0.471186	-0.175524	-0.361028
C167	C	0.441926	-0.160924	-0.415536
C168	C	0.461446	-0.195080	-0.462929
C169	C	0.510230	-0.243838	-0.455815
C170	C	0.539489	-0.258437	-0.401307
H171	H	0.456733	-0.150237	-0.325944
H172	H	0.405813	-0.124830	-0.420802
H173	H	0.439786	-0.184273	-0.503279
H174	H	0.524682	-0.269125	-0.490899
H175	H	0.575602	-0.294531	-0.396041
C176	C	0.627920	-0.326416	-0.326390
C177	C	0.607316	-0.384469	-0.321002
C178	C	0.636639	-0.424308	-0.360861
C179	C	0.686565	-0.406094	-0.406109
C180	C	0.707171	-0.348039	-0.411499
C181	C	0.677849	-0.308200	-0.371640
H182	H	0.570355	-0.397954	-0.287506
H183	H	0.621384	-0.467284	-0.356871
H184	H	0.708271	-0.435585	-0.435615
H185	H	0.744132	-0.334554	-0.444995
H186	H	0.693103	-0.265224	-0.375630
C187	C	0.973638	-0.443082	-0.181359
C188	C	1.005776	-0.405616	-0.140322
C189	C	0.953494	-0.375684	-0.103523
C190	C	0.869074	-0.383218	-0.107760
C191	C	0.836931	-0.420687	-0.148799
C192	C	0.889214	-0.450619	-0.185599
H193	H	1.068273	-0.400036	-0.137184
H194	H	0.977288	-0.347947	-0.073143
H195	H	0.830371	-0.361061	-0.080519
H196	H	0.774435	-0.426266	-0.151938
H197	H	0.865419	-0.478356	-0.215978
H198	H	0.620196	-0.275255	-0.163616
C199	C	0.974368	-0.322419	0.054541
C200	C	0.889900	-0.318578	0.047104
C201	C	0.838020	-0.355599	0.077289
C202	C	0.870609	-0.396460	0.114910
C203	C	0.955082	-0.400302	0.122349
C204	C	1.006961	-0.363282	0.092164
H205	H	0.865771	-0.288329	0.019253
H206	H	0.775488	-0.352754	0.071782
H207	H	0.832205	-0.423865	0.137254
H208	H	0.979210	-0.430552	0.150200
H209	H	1.069494	-0.366127	0.097671
C210	C	1.173194	-0.442668	-0.321886
C211	C	1.225462	-0.472594	-0.358697
C212	C	1.277713	-0.442457	-0.395500
C213	C	1.277697	-0.382396	-0.395493
C214	C	1.225428	-0.352467	-0.358681
C215	C	1.173177	-0.382603	-0.321877
H216	H	1.225475	-0.517058	-0.358703
H217	H	1.316406	-0.464613	-0.422751
H218	H	1.316377	-0.360087	-0.422737
H219	H	1.225414	-0.308003	-0.358674
H220	H	1.134483	-0.360448	-0.294626
H221	H	0.987263	-0.549922	-0.190932
H222	H	1.207276	-0.800624	-0.345859
H223	H	1.159876	-1.051912	-0.312439
H224	H	0.940823	-0.346251	0.298029
H225	H	0.987429	-0.953209	-0.191012
C226	C	0.926253	-0.809002	-0.147981
C227	C	0.932261	-0.801620	-0.088545
C228	C	0.879985	-0.831745	-0.051749
C229	C	0.821701	-0.869252	-0.074390
C230	C	0.815690	-0.876636	-0.133830
C231	C	0.867966	-0.846511	-0.170625
H232	H	0.975409	-0.773853	-0.071782
H233	H	0.884435	-0.826278	-0.007748
H234	H	0.783003	-0.891552	-0.047152
H235	H	0.772543	-0.904403	-0.150592
H236	H	0.863516	-0.851978	-0.214626
H237	H	0.987780	-0.312888	-0.052352
C238	C	0.974679	-0.322120	0.442214
C239	C	0.981328	-0.381520	0.449882
C240	C	0.929432	-0.418592	0.420004
C241	C	0.870887	-0.396264	0.382457
C242	C	0.864236	-0.336862	0.374787
C243	C	0.916132	-0.299790	0.404665
H244	H	1.024669	-0.398050	0.477679
H245	H	0.934356	-0.462565	0.425683
H246	H	0.832471	-0.423707	0.360340
H247	H	0.820896	-0.320331	0.346991
H248	H	0.911208	-0.255816	0.398986
H249	H	0.940758	-0.346341	0.198979
