data_functionalizedCrystal
_audit_creation_method	'MofGen! by Chris Wilmer'
_symmetry_space_group_name_H-M	'P1'
_symmetry_Int_Tables_number	1
_symmetry_cell_setting	triclinic
loop_
_symmetry_equiv_pos_as_xyz
  x,y,z
_cell_length_a	10.686220
_cell_length_b	19.121063
_cell_length_c	10.686551
_cell_angle_alpha	88.212799
_cell_angle_beta	90.308082
_cell_angle_gamma	96.652836
loop_
_atom_site_label
_atom_site_type_symbol
_atom_site_fract_x
_atom_site_fract_y
_atom_site_fract_z
Zn1	Zn	1.960178	-0.171149	-0.576393
Zn2	Zn	2.460178	0.328851	-0.076393
Zn3	Zn	1.934959	-0.298212	-0.377034
Zn4	Zn	2.434959	0.201788	0.122966
Zn5	Zn	1.733026	-0.189107	-0.384180
Zn6	Zn	2.233026	0.310893	0.115820
Zn7	Zn	1.741490	-0.296789	-0.602695
Zn8	Zn	2.241490	0.203211	-0.102695
O9	O	1.842413	-0.238814	-0.485075
O10	O	2.342413	0.261186	0.014925
O11	O	2.132864	-0.181084	-0.535949
O12	O	2.632864	0.318916	-0.035949
O13	O	1.894076	-0.291850	-0.203100
O14	O	2.394076	0.208150	0.296900
O15	O	1.770171	-0.088483	-0.401661
O16	O	2.270171	0.411517	0.098339
O17	O	2.114336	-0.274436	-0.389481
O18	O	2.614336	0.225564	0.110519
O19	O	1.937058	-0.075289	-0.542879
O20	O	2.437058	0.424711	-0.042879
O21	O	1.745717	-0.211691	-0.208351
O22	O	2.245717	0.288309	0.291649
O23	O	1.558117	-0.210311	-0.427165
O24	O	2.058117	0.289689	0.072835
O25	O	1.784596	-0.272012	-0.774087
O26	O	2.284596	0.227988	-0.274087
O27	O	1.564336	-0.289425	-0.587707
O28	O	2.064336	0.210575	-0.087707
O29	O	1.945265	-0.179704	-0.754764
O30	O	2.445265	0.320296	-0.254764
O31	O	1.902282	-0.396264	-0.414984
O32	O	2.402282	0.103736	0.085016
O33	O	1.760141	-0.395219	-0.580777
O34	O	2.260141	0.104781	-0.080777
C35	C	1.515583	-0.251663	-0.511066
C36	C	2.015583	0.248337	-0.011066
C37	C	1.375765	-0.257175	-0.522216
C38	C	1.875765	0.242825	-0.022216
C39	C	1.829430	-0.421212	-0.499984
C40	C	2.329430	0.078788	0.000016
C41	C	1.823994	-0.499236	-0.506394
C42	C	2.323994	0.000764	-0.006394
C43	C	1.895514	-0.536407	-0.423148
C44	C	2.395514	-0.036407	0.076852
C45	C	1.890409	-0.609719	-0.429183
C46	C	2.390409	-0.109719	0.070817
C47	C	1.813778	-0.645858	-0.518461
C48	C	2.313778	-0.145858	-0.018461
C49	C	1.742256	-0.608681	-0.601716
C50	C	2.242256	-0.108681	-0.101716
C51	C	1.747368	-0.535371	-0.595685
C52	C	2.247368	-0.035371	-0.095685
C53	C	1.794644	-0.867182	-0.540991
C54	C	2.294644	-0.367182	-0.040991
C55	C	1.789534	-0.940498	-0.547013
C56	C	2.289534	-0.440498	-0.047013
C57	C	1.937690	-0.941530	-0.374481
C58	C	2.437690	-0.441530	0.125519
C59	C	1.942789	-0.868219	-0.368454
C60	C	2.442789	-0.368219	0.131546
C61	C	1.871272	-0.831048	-0.451713
C62	C	2.371272	-0.331048	0.048287
C63	C	1.808556	-0.720794	-0.524630
C64	C	2.308556	-0.220794	-0.024630
C65	C	1.876502	-0.756113	-0.445549
C66	C	2.376502	-0.256113	0.054451
C67	C	2.170519	-0.225915	-0.458984
C68	C	2.670519	0.274085	0.041016
C69	C	2.310339	-0.220419	-0.447865
C70	C	2.810339	0.279581	0.052135
C71	C	1.868688	-0.223696	-0.811038
C72	C	2.368688	0.276304	-0.311038
C73	C	1.879884	-0.217254	-0.949944
C74	C	2.379884	0.282746	-0.449944
C75	C	1.855484	-0.055701	-0.470134
C76	C	2.355484	0.444299	0.029866
C77	C	1.861053	0.022331	-0.463766
C78	C	2.361053	0.522331	0.036234
C79	C	1.816317	-0.253820	-0.160371
C80	C	2.316317	0.246180	0.339629
C81	C	1.805378	-0.260055	-0.021430
C82	C	2.305378	0.239945	0.478570
H83	H	1.361289	-0.184734	-0.375679
H84	H	1.861289	0.315266	0.124321
H85	H	1.324808	-0.292868	-0.594399
H86	H	1.824808	0.207132	-0.094399
Cl87	Cl	1.712221	-0.766233	-0.636859
Cl88	Cl	2.212221	-0.266233	-0.136859
Cl89	Cl	1.657459	-0.488641	-0.700346
Cl90	Cl	2.157459	0.011359	-0.200346
Cl91	Cl	1.991847	-0.490983	-0.310900
Cl92	Cl	2.491847	0.009017	0.189100
Cl93	Cl	1.991610	-0.153067	-1.019521
Cl94	Cl	2.491610	0.346933	-0.519521
H95	H	1.995916	-0.971802	-0.306698
H96	H	2.495916	-0.471802	0.193302
Cl97	Cl	1.980328	-0.656445	-0.324529
Cl98	Cl	2.480328	-0.156445	0.175471
H99	H	2.005188	-0.838796	-0.295757
H100	H	2.505188	-0.338796	0.204243
Cl101	Cl	1.693173	-0.985931	-0.659241
Cl102	Cl	2.193173	-0.485931	-0.159241
Cl103	Cl	1.645927	-0.654113	-0.713957
Cl104	Cl	2.145927	-0.154113	-0.213957
Cl105	Cl	1.693671	-0.324245	-0.951856
Cl106	Cl	2.193671	0.175755	-0.451856
H107	H	1.938901	-0.726686	-0.372863
H108	H	2.438901	-0.226686	0.127137
Cl109	Cl	1.704733	-0.820463	-0.645658
Cl110	Cl	2.204733	-0.320463	-0.145658
