data_functionalizedCrystal
_audit_creation_method	'MofGen! by Chris Wilmer'
_symmetry_space_group_name_H-M	'P1'
_symmetry_Int_Tables_number	1
_symmetry_cell_setting	triclinic
loop_
_symmetry_equiv_pos_as_xyz
  x,y,z
_cell_length_a	15.625429
_cell_length_b	14.853567
_cell_length_c	14.185197
_cell_angle_alpha	75.240910
_cell_angle_beta	92.830976
_cell_angle_gamma	83.949492
loop_
_atom_site_label
_atom_site_type_symbol
_atom_site_fract_x
_atom_site_fract_y
_atom_site_fract_z
O1	O	0.092099	1.170771	0.116851
O2	O	0.105082	0.907273	0.121590
O3	O	-0.022950	1.055718	0.075007
O4	O	0.220131	1.022326	0.163433
O5	O	0.010905	1.089551	-0.079523
O6	O	0.138937	0.941107	-0.032941
O7	O	0.125955	1.204604	-0.037680
Cu8	Cu	0.135537	1.075945	-0.049420
Cu9	Cu	0.095500	1.035933	0.133330
O10	O	0.253987	1.056160	0.008903
C11	C	0.121421	0.890648	0.044113
C12	C	0.119656	0.790703	0.043477
C13	C	-0.037131	1.074477	-0.013572
C14	C	-0.129827	1.079959	-0.047286
C15	C	0.036153	0.384828	0.013078
C16	C	0.188259	0.351426	0.068412
C17	C	0.189917	0.445327	0.069018
C18	C	0.114690	0.508983	0.041655
C19	C	0.037807	0.478738	0.013686
C20	C	0.266797	0.475578	0.096995
C21	C	0.268457	0.569484	0.097604
C22	C	0.193231	0.633143	0.070234
C23	C	0.116345	0.602893	0.042263
C24	C	0.041119	0.666548	0.014901
C25	C	-0.035767	0.636301	-0.013077
C26	C	-0.037419	0.542397	-0.013683
C27	C	0.194883	0.727048	0.070840
C28	C	0.042773	0.760458	0.015509
C29	C	-0.526957	1.005753	0.262974
C30	C	-0.614052	1.010906	0.231267
C31	C	-0.577132	1.047789	0.062809
C32	C	-0.490032	1.042644	0.094502
C33	C	-0.464953	1.021625	0.194586
C34	C	-0.428028	1.058516	0.026113
C35	C	-0.340936	1.053366	0.057804
C36	C	-0.315848	1.032345	0.157884
C37	C	-0.377861	1.016476	0.226277
C38	C	-0.453109	1.079529	-0.073970
C39	C	-0.391104	1.095400	-0.142359
C40	C	-0.304011	1.090257	-0.110668
C41	C	-0.278924	1.069236	-0.010588
C42	C	-0.241999	1.106127	-0.179061
C43	C	-0.154907	1.100978	-0.147370
C44	C	-0.191831	1.064087	0.021103
C45	C	0.268168	1.037400	0.097485
C46	C	0.360862	1.031917	0.131204
C47	C	0.109615	1.221229	0.039800
C48	C	0.111379	1.321173	0.040441
N49	N	0.163697	1.104094	-0.177957
C50	C	-0.015376	0.925144	-0.610688
C51	C	0.005949	0.946455	-0.707959
C52	C	0.107414	1.047845	-0.671045
C53	C	0.086094	1.026546	-0.573769
C54	C	0.024700	0.965194	-0.543599
C55	C	0.126170	1.066596	-0.506680
C56	C	0.104856	1.045295	-0.409412
C57	C	0.043465	0.983943	-0.379233
C58	C	0.003385	0.943893	-0.446330
C59	C	0.187569	1.127942	-0.536851
C60	C	0.227645	1.167992	-0.469762
C61	C	0.206326	1.146696	-0.372493
C62	C	0.144936	1.085345	-0.342314
C63	C	0.246406	1.186747	-0.305395
C64	C	0.225092	1.165446	-0.208127
C65	C	0.123621	1.064044	-0.245046
N66	N	0.067333	1.007791	0.261865
H67	H	-0.018486	0.812283	-0.006777
Br68	Br	-0.571306	1.086512	-0.116981
Br69	Br	-0.137858	0.722699	-0.050200
H70	H	-0.100010	0.517765	-0.036483
H71	H	-0.026445	0.360197	-0.009704
Br72	Br	-0.425148	1.123914	-0.278182
Br73	Br	-0.048445	0.892091	-0.799008
Br74	Br	0.290343	0.265034	0.105562
Br75	Br	-0.157788	1.035578	0.156933
Br76	Br	0.368878	0.389182	0.134148
H77	H	0.073624	1.014090	-0.220482
H78	H	0.331062	0.594102	0.120385
H79	H	-0.262432	1.123232	-0.260549
H80	H	0.257482	0.751671	0.093617
Br81	Br	-0.343817	0.987967	0.362107
H82	H	-0.244930	1.028143	0.183686
Br83	Br	0.014544	0.955023	-0.247222
H84	H	-0.506538	0.988646	0.344472
Br85	Br	0.310971	1.251244	-0.510714
H86	H	-0.104418	1.113883	-0.203058
H87	H	0.257729	1.198055	-0.153500
Br88	Br	-0.698201	0.989354	0.324092
H89	H	-0.046612	0.893939	-0.421766
H90	H	-0.597564	1.064900	-0.018680
H91	H	-0.065374	0.875190	-0.586123
H92	H	0.157404	1.097795	-0.695623
H93	H	0.204922	1.145283	-0.616054
H94	H	0.296400	1.236693	-0.329974
