data_functionalizedCrystal
_audit_creation_method	'MofGen! by Chris Wilmer'
_symmetry_space_group_name_H-M	'P1'
_symmetry_Int_Tables_number	1
_symmetry_cell_setting	triclinic
loop_
_symmetry_equiv_pos_as_xyz
  x,y,z
_cell_length_a	17.077404
_cell_length_b	16.959454
_cell_length_c	17.077396
_cell_angle_alpha	89.975265
_cell_angle_beta	89.981638
_cell_angle_gamma	90.018045
loop_
_atom_site_label
_atom_site_type_symbol
_atom_site_fract_x
_atom_site_fract_y
_atom_site_fract_z
Zn1	Zn	1.200070	-0.314724	-0.443839
Zn2	Zn	1.533403	0.018609	-0.110506
Zn3	Zn	1.866737	0.351942	0.222827
Zn4	Zn	1.199983	-0.446912	-0.312582
Zn5	Zn	1.533317	-0.113579	0.020751
Zn6	Zn	1.866650	0.219754	0.354085
Zn7	Zn	1.068802	-0.314747	-0.312590
Zn8	Zn	1.402135	0.018586	0.020744
Zn9	Zn	1.735468	0.351920	0.354077
Zn10	Zn	1.068776	-0.446860	-0.443808
Zn11	Zn	1.402110	-0.113527	-0.110475
Zn12	Zn	1.735443	0.219807	0.222859
O13	O	1.134408	-0.380811	-0.378205
O14	O	1.467741	-0.047478	-0.044871
O15	O	1.801075	0.285856	0.288462
O16	O	1.309905	-0.332272	-0.426437
O17	O	1.643239	0.001062	-0.093104
O18	O	1.976572	0.334395	0.240229
O19	O	1.182556	-0.429411	-0.202736
O20	O	1.515890	-0.096078	0.130597
O21	O	1.849223	0.237255	0.463931
O22	O	1.086262	-0.204133	-0.330017
O23	O	1.419595	0.129200	0.003317
O24	O	1.752928	0.462534	0.336650
O25	O	1.309842	-0.429390	-0.330003
O26	O	1.643175	-0.096056	0.003330
O27	O	1.976509	0.237277	0.336664
O28	O	1.182704	-0.204116	-0.426445
O29	O	1.516037	0.129217	-0.093112
O30	O	1.849370	0.462550	0.240221
O31	O	1.086178	-0.332310	-0.202742
O32	O	1.419511	0.001023	0.130592
O33	O	1.752844	0.334357	0.463925
O34	O	0.958951	-0.332260	-0.329986
O35	O	1.292285	0.001074	0.003347
O36	O	1.625618	0.334407	0.336680
O37	O	1.086218	-0.429301	-0.553659
O38	O	1.419551	-0.095967	-0.220326
O39	O	1.752885	0.237366	0.113008
O40	O	0.958933	-0.429323	-0.426392
O41	O	1.292266	-0.095989	-0.093059
O42	O	1.625599	0.237344	0.240275
O43	O	1.182679	-0.332221	-0.553682
O44	O	1.516012	0.001112	-0.220349
O45	O	1.849346	0.334445	0.112985
O46	O	1.182532	-0.557516	-0.329973
O47	O	1.515865	-0.224183	0.003360
O48	O	1.849198	0.109151	0.336694
O49	O	1.086134	-0.557478	-0.426384
O50	O	1.419468	-0.224145	-0.093051
O51	O	1.752801	0.109189	0.240282
C52	C	0.930460	-0.380788	-0.378187
C53	C	1.263793	-0.047455	-0.044854
C54	C	1.597127	0.285878	0.288480
C55	C	0.843210	-0.380798	-0.378198
C56	C	1.176544	-0.047465	-0.044865
C57	C	1.509877	0.285869	0.288468
C58	C	1.134342	-0.586177	-0.378191
C59	C	1.467675	-0.252844	-0.044858
C60	C	1.801009	0.080490	0.288475
C61	C	1.134386	-0.674034	-0.378212
C62	C	1.467719	-0.340700	-0.044879
C63	C	1.801052	-0.007367	0.288455
C64	C	0.802254	-0.330319	-0.428488
C65	C	1.135587	0.003015	-0.095155
C66	C	1.468921	0.336348	0.238178
C67	C	0.720273	-0.330324	-0.428492
C68	C	1.053607	0.003010	-0.095159
C69	C	1.386940	0.336343	0.238175
C70	C	0.679251	-0.380813	-0.378209
C71	C	1.012584	-0.047479	-0.044876
C72	C	1.345917	0.285854	0.288458
C73	C	0.720213	-0.431294	-0.327913
C74	C	1.053546	-0.097961	0.005420
C75	C	1.386880	0.235372	0.338753
C76	C	0.802192	-0.431285	-0.327906
C77	C	1.135525	-0.097951	0.005427
C78	C	1.468858	0.235382	0.338760
C79	C	0.549343	-0.431312	-0.327933
C80	C	0.882676	-0.097979	0.005401
C81	C	1.216009	0.235354	0.338734
C82	C	0.467358	-0.431323	-0.327941
C83	C	0.800692	-0.097990	0.005393
C84	C	1.134025	0.235344	0.338726
C85	C	0.467424	-0.330351	-0.428518
C86	C	0.800758	0.002982	-0.095185
C87	C	1.134091	0.336315	0.238148
C88	C	0.549403	-0.330342	-0.428511
C89	C	0.882737	0.002992	-0.095178
C90	C	1.216070	0.336325	0.238155
C91	C	0.590360	-0.380824	-0.378217
C92	C	0.923693	-0.047491	-0.044883
C93	C	1.257026	0.285842	0.288450
C94	C	1.084287	-1.045519	-0.428401
C95	C	1.417620	-0.712186	-0.095067
C96	C	1.750953	-0.378853	0.238266
C97	C	1.184748	-1.045499	-0.328089
C98	C	1.518081	-0.712166	0.005245
C99	C	1.851414	-0.378833	0.338578
C100	C	1.184720	-0.962953	-0.328081
C101	C	1.518054	-0.629620	0.005252
C102	C	1.851387	-0.296287	0.338585
C103	C	1.134474	-0.921687	-0.378234
C104	C	1.467808	-0.588353	-0.044900
C105	C	1.801141	-0.255020	0.288433
C106	C	1.084256	-0.962966	-0.428393
C107	C	1.417589	-0.629632	-0.095060
C108	C	1.750923	-0.296299	0.238273
C109	C	1.234932	-0.921668	-0.277917
C110	C	1.568266	-0.588335	0.055416
C111	C	1.901599	-0.255001	0.388749
C112	C	1.234906	-0.839117	-0.277907
C113	C	1.568240	-0.505784	0.055426
C114	C	1.901573	-0.172450	0.388759
C115	C	1.184664	-0.797849	-0.328064
C116	C	1.517997	-0.464516	0.005269
C117	C	1.851330	-0.131182	0.338602
C118	C	1.134444	-0.839133	-0.378226
C119	C	1.467777	-0.505800	-0.044893
C120	C	1.801110	-0.172466	0.288440
C121	C	1.084198	-0.797866	-0.428379
C122	C	1.417531	-0.464533	-0.095046
C123	C	1.750865	-0.131200	0.238288
C124	C	1.033981	-0.839149	-0.478546
C125	C	1.367315	-0.505816	-0.145212
C126	C	1.700648	-0.172482	0.188121
C127	C	1.034013	-0.921698	-0.478550
C128	C	1.367347	-0.588364	-0.145217
C129	C	1.700680	-0.255031	0.188116
C130	C	1.184632	-0.715300	-0.328060
C131	C	1.517965	-0.381967	0.005274
C132	C	1.851298	-0.048634	0.338607
C133	C	1.084167	-0.715313	-0.428372
C134	C	1.417501	-0.381980	-0.095038
C135	C	1.750834	-0.048646	0.238295
C136	C	1.339152	-0.380834	-0.378223
C137	C	1.672485	-0.047501	-0.044890
C138	C	2.005819	0.285833	0.288444
C139	C	1.426402	-0.380844	-0.378231
C140	C	1.759735	-0.047510	-0.044897
C141	C	2.093069	0.285823	0.288436
C142	C	1.134455	-0.380753	-0.582949
C143	C	1.467789	-0.047419	-0.249616
C144	C	1.801122	0.285914	0.083718
C145	C	1.134476	-0.380728	-0.670199
C146	C	1.467809	-0.047394	-0.336866
C147	C	1.801142	0.285939	-0.003532
C148	C	1.134495	-0.174643	-0.378235
C149	C	1.467829	0.158691	-0.044902
C150	C	1.801162	0.492024	0.288431
C151	C	1.134532	-0.086786	-0.378248
C152	C	1.467866	0.246547	-0.044915
C153	C	1.801199	0.579881	0.288418
C154	C	1.184705	-0.330174	-0.711202
C155	C	1.518038	0.003159	-0.377869
C156	C	1.851371	0.336492	-0.044536
C157	C	1.184714	-0.330148	-0.793183
C158	C	1.518047	0.003185	-0.459850
C159	C	1.851381	0.336519	-0.126516
C160	C	1.134498	-0.380680	-0.834158
C161	C	1.467831	-0.047346	-0.500825
C162	C	1.801165	0.285987	-0.167492
C163	C	1.084263	-0.431236	-0.793149
C164	C	1.417597	-0.097902	-0.459816
C165	C	1.750930	0.235431	-0.126483
C166	C	1.084250	-0.431257	-0.711170
C167	C	1.417584	-0.097924	-0.377837
C168	C	1.750917	0.235409	-0.044504
C169	C	1.084295	-0.431188	-0.964019
C170	C	1.417628	-0.097855	-0.630686
C171	C	1.750962	0.235479	-0.297353
C172	C	1.084309	-0.431168	-1.046004
C173	C	1.417642	-0.097834	-0.712671
C174	C	1.750975	0.235499	-0.379337
C175	C	1.184758	-0.330079	-1.046032
C176	C	1.518092	0.003255	-0.712699
C177	C	1.851425	0.336588	-0.379365
C178	C	1.184746	-0.330100	-0.964053
C179	C	1.518079	0.003233	-0.630720
C180	C	1.851412	0.336566	-0.297386
C181	C	1.134512	-0.380657	-0.923050
C182	C	1.467845	-0.047324	-0.589716
C183	C	1.801179	0.286009	-0.256383
C184	C	1.134406	-0.380812	-0.174257
C185	C	1.467739	-0.047479	0.159076
C186	C	1.801072	0.285855	0.492410
C187	C	1.134538	-0.380614	-0.087008
C188	C	1.467871	-0.047281	0.246326
C189	C	1.801204	0.286053	0.579659
H190	H	0.835649	-0.289207	-0.469437
H191	H	1.168982	0.044127	-0.136103
H192	H	1.502315	0.377460	0.197230
H193	H	1.275834	-0.955273	-0.237080
H194	H	1.609167	-0.621940	0.096253
H195	H	1.942501	-0.288607	0.429587
H196	H	1.275796	-0.805510	-0.237060
H197	H	1.609129	-0.472176	0.096273
H198	H	1.942462	-0.138843	0.429607
O199	O	1.238909	-0.275600	-0.919858
O200	O	1.572243	0.057733	-0.586524
O201	O	1.905576	0.391067	-0.253191
H202	H	1.278826	-0.310998	-0.882515
H203	H	1.612160	0.022335	-0.549181
H204	H	1.945493	0.355669	-0.215848
H205	H	1.043341	-0.472415	-0.677786
H206	H	1.376674	-0.139082	-0.344453
H207	H	1.710008	0.194251	-0.011120
O208	O	1.030093	-0.485732	-0.837341
O209	O	1.363427	-0.152399	-0.504008
O210	O	1.696760	0.180934	-0.170674
H211	H	1.065211	-0.525949	-0.874686
H212	H	1.398545	-0.192615	-0.541353
H213	H	1.731878	0.140718	-0.208019
O214	O	1.238944	-1.089994	-0.273994
O215	O	1.572277	-0.756660	0.059339
O216	O	1.905611	-0.423327	0.392673
H217	H	1.300534	-1.074088	-0.287516
H218	H	1.633867	-0.740755	0.045818
H219	H	1.967201	-0.407422	0.379151
O220	O	0.593654	-0.275882	-0.482737
O221	O	0.926988	0.057452	-0.149404
O222	O	1.260321	0.390785	0.183930
H223	H	0.551404	-0.240771	-0.517704
H224	H	0.884737	0.092562	-0.184371
H225	H	1.218071	0.425895	0.148963
O226	O	0.423256	-0.275892	-0.482758
O227	O	0.756589	0.057442	-0.149425
O228	O	1.089922	0.390775	0.183908
H229	H	0.385906	-0.311321	-0.522634
H230	H	0.719239	0.022012	-0.189300
H231	H	1.052573	0.355345	0.144033
O232	O	1.238898	-0.275627	-0.837406
O233	O	1.572231	0.057706	-0.504072
O234	O	1.905564	0.391039	-0.170739
H235	H	1.203792	-0.235388	-0.874750
H236	H	1.537125	0.097945	-0.541417
H237	H	1.870459	0.431278	-0.208084
H238	H	0.433960	-0.472436	-0.286996
H239	H	0.767293	-0.139103	0.046337
H240	H	1.100626	0.194230	0.379670
O241	O	0.979839	-0.966221	-0.532640
O242	O	1.313172	-0.632887	-0.199307
O243	O	1.646505	-0.299554	0.134026
H244	H	0.988292	-1.030554	-0.524207
H245	H	1.321625	-0.697221	-0.190874
H246	H	1.654958	-0.363888	0.142459
O247	O	1.030114	-0.485717	-0.919793
O248	O	1.363448	-0.152383	-0.586459
O249	O	1.696781	0.180950	-0.253126
H250	H	0.990183	-0.450341	-0.882449
H251	H	1.323516	-0.117008	-0.549115
H252	H	1.656850	0.216326	-0.215782
H253	H	1.225659	-0.288912	-1.079421
H254	H	1.558993	0.044421	-0.746088
H255	H	1.892326	0.377755	-0.412754
H256	H	0.686930	-0.289220	-0.469445
H257	H	1.020264	0.044113	-0.136111
H258	H	1.353597	0.377447	0.197222
O259	O	0.593523	-0.485758	-0.273687
O260	O	0.926857	-0.152425	0.059646
O261	O	1.260190	0.180909	0.392980
H262	H	0.577789	-0.547814	-0.287052
H263	H	0.911122	-0.214480	0.046282
H264	H	1.244456	0.118853	0.379615
O265	O	1.029964	-0.670803	-0.482456
O266	O	1.363297	-0.337470	-0.149123
O267	O	1.696630	-0.004137	0.184211
H268	H	0.995047	-0.713380	-0.517331
H269	H	1.328380	-0.380046	-0.183997
H270	H	1.661713	-0.046713	0.149336
O271	O	1.238803	-0.670778	-0.273971
O272	O	1.572136	-0.337444	0.059362
O273	O	1.905470	-0.004111	0.392696
H274	H	1.230345	-0.606443	-0.282394
H275	H	1.563679	-0.273110	0.050939
H276	H	1.897012	0.060223	0.384272
H277	H	0.686806	-0.472399	-0.286968
H278	H	1.020139	-0.139066	0.046365
H279	H	1.353472	0.194267	0.379698
H280	H	1.225599	-0.289028	-0.677846
H281	H	1.558932	0.044306	-0.344513
H282	H	1.892266	0.377639	-0.011179
H283	H	1.043416	-0.472313	-1.079364
H284	H	1.376750	-0.138980	-0.746031
H285	H	1.710083	0.194353	-0.412698
H286	H	0.835537	-0.472390	-0.286955
H287	H	1.168871	-0.139056	0.046379
H288	H	1.502204	0.194277	0.379712
H289	H	0.993067	-0.805540	-0.519377
H290	H	1.326400	-0.472207	-0.186043
H291	H	1.659734	-0.138874	0.147290
H292	H	1.043404	-1.079135	-0.469247
H293	H	1.376737	-0.745802	-0.135914
H294	H	1.710070	-0.412469	0.197419
