data_functionalizedCrystal
_audit_creation_method	'MofGen! by Chris Wilmer'
_symmetry_space_group_name_H-M	'P1'
_symmetry_Int_Tables_number	1
_symmetry_cell_setting	triclinic
loop_
_symmetry_equiv_pos_as_xyz
  x,y,z
_cell_length_a	21.395364
_cell_length_b	21.395361
_cell_length_c	21.395356
_cell_angle_alpha	90.028219
_cell_angle_beta	89.976233
_cell_angle_gamma	89.971134
loop_
_atom_site_label
_atom_site_type_symbol
_atom_site_fract_x
_atom_site_fract_y
_atom_site_fract_z
Zn1	Zn	0.957854	0.249482	-0.354262
Zn2	Zn	1.291187	0.582816	-0.020929
Zn3	Zn	1.624521	0.916149	0.312405
Zn4	Zn	0.957758	0.354259	-0.249484
Zn5	Zn	1.291092	0.687592	0.083850
Zn6	Zn	1.624425	1.020926	0.417183
Zn7	Zn	0.853071	0.249496	-0.249498
Zn8	Zn	1.186404	0.582829	0.083835
Zn9	Zn	1.519737	0.916163	0.417168
Zn10	Zn	0.853038	0.354223	-0.354223
Zn11	Zn	1.186372	0.687556	-0.020890
Zn12	Zn	1.519705	1.020890	0.312443
O13	O	0.905430	0.301865	-0.301867
O14	O	1.238764	0.635198	0.031466
O15	O	1.572097	0.968532	0.364800
O16	O	1.045519	0.263390	-0.340373
O17	O	1.378852	0.596724	-0.007040
O18	O	1.712186	0.930057	0.326294
O19	O	0.943845	0.340383	-0.161808
O20	O	1.277178	0.673716	0.171526
O21	O	1.610512	1.007049	0.504859
O22	O	0.867024	0.161816	-0.263418
O23	O	1.200357	0.495150	0.069915
O24	O	1.533690	0.828483	0.403249
O25	O	1.045449	0.340369	-0.263393
O26	O	1.378782	0.673703	0.069941
O27	O	1.712116	1.007036	0.403274
O28	O	0.944008	0.161806	-0.340387
O29	O	1.277341	0.495140	-0.007054
O30	O	1.610674	0.828473	0.326279
O31	O	0.866931	0.263414	-0.161819
O32	O	1.200265	0.596747	0.171515
O33	O	1.533598	0.930081	0.504848
O34	O	0.765388	0.263379	-0.263380
O35	O	1.098722	0.596712	0.069953
O36	O	1.432055	0.930046	0.403286
O37	O	0.866969	0.340308	-0.441906
O38	O	1.200302	0.673641	-0.108573
O39	O	1.533635	1.006975	0.224760
O40	O	0.765365	0.340321	-0.340321
O41	O	1.098698	0.673655	-0.006988
O42	O	1.432031	1.006988	0.326345
O43	O	0.943976	0.263356	-0.441935
O44	O	1.277310	0.596689	-0.108601
O45	O	1.610643	0.930022	0.224732
O46	O	0.943814	0.441932	-0.263355
O47	O	1.277147	0.775265	0.069978
O48	O	1.610480	1.108599	0.403312
O49	O	0.866876	0.441906	-0.340307
O50	O	1.200210	0.775239	-0.006974
O51	O	1.533543	1.108572	0.326360
C52	C	0.742643	0.301848	-0.301849
C53	C	1.075976	0.635182	0.031485
C54	C	1.409309	0.968515	0.364818
C55	C	0.673001	0.301856	-0.301856
C56	C	1.006335	0.635190	0.031477
C57	C	1.339668	0.968523	0.364811
C58	C	0.171209	0.342002	-0.341891
C59	C	0.504543	0.675336	-0.008558
C60	C	0.837876	1.008669	0.324775
C61	C	0.236645	0.342002	-0.341885
C62	C	0.569978	0.675336	-0.008551
C63	C	0.903311	1.008669	0.324782
C64	C	0.269363	0.301879	-0.301887
C65	C	0.602696	0.635212	0.031447
C66	C	0.936030	0.968545	0.364780
C67	C	0.236641	0.261763	-0.261881
C68	C	0.569974	0.595097	0.071452
C69	C	0.903307	0.928430	0.404786
C70	C	0.171207	0.261769	-0.261884
C71	C	0.504540	0.595102	0.071449
C72	C	0.837873	0.928435	0.404783
C73	C	0.373052	0.245414	-0.297036
C74	C	0.706385	0.578748	0.036297
C75	C	1.039719	0.912081	0.369631
C76	C	0.438485	0.245408	-0.297037
C77	C	0.771818	0.578741	0.036296
C78	C	1.105152	0.912074	0.369630
C79	C	0.471184	0.301862	-0.301873
C80	C	0.804517	0.635196	0.031460
C81	C	1.137851	0.968529	0.364794
C82	C	0.438442	0.358325	-0.306721
C83	C	0.771775	0.691658	0.026612
C84	C	1.105109	1.024992	0.359946
C85	C	0.373008	0.358330	-0.306724
C86	C	0.706341	0.691664	0.026609
C87	C	1.039674	1.024997	0.359943
C88	C	0.340316	0.301869	-0.301878
C89	C	0.673649	0.635202	0.031455
C90	C	1.006982	0.968535	0.364788
C91	C	0.574851	0.341978	-0.341866
C92	C	0.908184	0.675312	-0.008533
C93	C	1.241518	1.008645	0.324801
C94	C	0.640288	0.341980	-0.341855
C95	C	0.973621	0.675313	-0.008522
C96	C	1.306954	1.008646	0.324812
C97	C	0.640282	0.261735	-0.261855
C98	C	0.973616	0.595068	0.071479
C99	C	1.306949	0.928402	0.404812
C100	C	0.574847	0.261739	-0.261862
C101	C	0.908180	0.595073	0.071471
C102	C	1.241514	0.928406	0.404804
C103	C	0.542135	0.301860	-0.301871
C104	C	0.875469	0.635194	0.031462
C105	C	1.208802	0.968527	0.364795
C106	C	0.905348	0.464653	-0.301839
C107	C	1.238681	0.797986	0.031494
C108	C	1.572015	1.131319	0.364828
C109	C	0.905370	0.534294	-0.301848
C110	C	1.238704	0.867627	0.031485
C111	C	1.572037	1.200961	0.364819
C112	C	0.945467	0.567000	-0.261822
C113	C	1.278800	0.900333	0.071512
C114	C	1.612134	1.233667	0.404845
C115	C	0.945496	0.632435	-0.261838
C116	C	1.278830	0.965769	0.071495
C117	C	1.612163	1.299102	0.404828
C118	C	0.905418	0.665162	-0.301875
C119	C	1.238751	0.998496	0.031458
C120	C	1.572084	1.331829	0.364792
C121	C	0.865318	0.632448	-0.341909
C122	C	1.198651	0.965782	-0.008576
C123	C	1.531985	1.299115	0.324757
C124	C	0.865294	0.567014	-0.341896
C125	C	1.198628	0.900347	-0.008562
C126	C	1.531961	1.233681	0.324771
C127	C	0.849003	0.768875	-0.306789
C128	C	1.182337	1.102208	0.026544
C129	C	1.515670	1.435542	0.359877
C130	C	0.849026	0.834308	-0.306798
C131	C	1.182359	1.167641	0.026535
C132	C	1.515693	1.500975	0.359868
C133	C	0.905491	0.866983	-0.301921
C134	C	1.238825	1.200316	0.031413
C135	C	1.572158	1.533650	0.364746
C136	C	0.961936	0.834217	-0.297020
C137	C	1.295269	1.167550	0.036313
C138	C	1.628602	1.500884	0.369646
C139	C	0.961912	0.768783	-0.297007
C140	C	1.295245	1.102116	0.036327
C141	C	1.628579	1.435450	0.369660
C142	C	0.905439	0.736115	-0.301895
C143	C	1.238773	1.069448	0.031439
C144	C	1.572106	1.402781	0.364772
C145	C	0.945623	0.970642	-0.261910
C146	C	1.278957	1.303975	0.071423
C147	C	1.612290	1.637308	0.404756
C148	C	0.945654	1.036078	-0.261931
C149	C	1.278987	1.369411	0.071402
C150	C	1.612320	1.702745	0.404735
C151	C	0.865470	1.036090	-0.341999
C152	C	1.198803	1.369423	-0.008666
C153	C	1.532136	1.702756	0.324668
C154	C	0.865445	0.970654	-0.341981
C155	C	1.198778	1.303988	-0.008648
C156	C	1.532112	1.637321	0.324686
C157	C	0.905521	0.937934	-0.301933
C158	C	1.238854	1.271268	0.031400
C159	C	1.572188	1.604601	0.364733
C160	C	1.068854	0.301882	-0.301885
C161	C	1.402187	0.635216	0.031448
C162	C	1.735520	0.968549	0.364781
C163	C	1.138495	0.301890	-0.301893
C164	C	1.471828	0.635223	0.031440
C165	C	1.805161	0.968556	0.364773
C166	C	0.905480	0.301826	-0.465290
C167	C	1.238813	0.635160	-0.131957
C168	C	1.572146	0.968493	0.201376
C169	C	0.905501	0.301810	-0.534931
C170	C	1.238834	0.635143	-0.201598
C171	C	1.572167	0.968476	0.131735
C172	C	0.905531	1.138442	-0.301919
C173	C	1.238864	1.471775	0.031414
C174	C	1.572197	1.805108	0.364747
C175	C	0.905575	1.068800	-0.301969
C176	C	1.238909	1.402134	0.031364
C177	C	1.572242	1.735467	0.364697
C178	C	0.865462	0.261728	-0.567640
C179	C	1.198796	0.595061	-0.234307
C180	C	1.532129	0.928394	0.099026
C181	C	0.865460	0.261716	-0.633076
C182	C	1.198794	0.595049	-0.299743
C183	C	1.532127	0.928383	0.033591
C184	C	0.905508	0.301780	-0.665800
C185	C	1.238841	0.635113	-0.332467
C186	C	1.572174	0.968447	0.000867
C187	C	0.945549	0.341870	-0.633083
C188	C	1.278882	0.675203	-0.299750
C189	C	1.612215	1.008536	0.033584
C190	C	0.945545	0.341885	-0.567649
C191	C	1.278878	0.675218	-0.234315
C192	C	1.612212	1.008551	0.099018
C193	C	0.961960	0.306707	-0.769486
C194	C	1.295293	0.640041	-0.436153
C195	C	1.628626	0.973374	-0.102820
C196	C	0.961964	0.306688	-0.834919
C197	C	1.295297	0.640021	-0.501586
C198	C	1.628631	0.973355	-0.168253
C199	C	0.905518	0.301738	-0.867621
C200	C	1.238851	0.635071	-0.534287
C201	C	1.572185	0.968404	-0.200954
C202	C	0.849065	0.296793	-0.834881
C203	C	1.182399	0.630126	-0.501548
C204	C	1.515732	0.963460	-0.168214
C205	C	0.849062	0.296808	-0.769447
C206	C	1.182395	0.630141	-0.436114
C207	C	1.515729	0.963475	-0.102780
C208	C	0.905515	0.301768	-0.736752
C209	C	1.238849	0.635102	-0.403419
C210	C	1.572182	0.968435	-0.070086
C211	C	0.865474	0.261641	-0.971282
C212	C	1.198807	0.594974	-0.637949
C213	C	1.532141	0.928307	-0.304616
C214	C	0.865471	0.261633	-1.036719
C215	C	1.198804	0.594967	-0.703386
C216	C	1.532137	0.928300	-0.370052
C217	C	0.945565	0.341784	-1.036725
C218	C	1.278898	0.675117	-0.703391
C219	C	1.612231	1.008451	-0.370058
C220	C	0.945562	0.341795	-0.971289
C221	C	1.278896	0.675128	-0.637956
C222	C	1.612229	1.008461	-0.304623
C223	C	0.905518	0.301720	-0.938572
C224	C	1.238851	0.635053	-0.605239
C225	C	1.572184	0.968386	-0.271905
C226	C	0.905417	0.301859	-0.139079
C227	C	1.238751	0.635192	0.194254
C228	C	1.572084	0.968525	0.527587
C229	C	0.905518	0.301699	-0.069438
C230	C	1.238851	0.635032	0.263895
C231	C	1.572184	0.968365	0.597228
H232	H	0.548216	0.374648	-0.374443
H233	H	0.881549	0.707981	-0.041110
H234	H	1.214882	1.041315	0.292224
H235	H	0.978155	0.374490	-0.659731
H236	H	1.311489	0.707824	-0.326398
H237	H	1.644822	1.041157	0.006936
Cl238	Cl	0.681408	0.211299	-0.211565
Cl239	Cl	1.014741	0.544632	0.121769
Cl240	Cl	1.348074	0.877965	0.455102
Cl241	Cl	1.032925	0.875287	-0.290881
Cl242	Cl	1.366259	1.208620	0.042452
Cl243	Cl	1.699592	1.541953	0.375786
Cl244	Cl	0.815118	0.211351	-0.526513
Cl245	Cl	1.148451	0.544684	-0.193180
Cl246	Cl	1.481784	0.878017	0.140153
Cl247	Cl	0.778068	0.875493	-0.312957
Cl248	Cl	1.111402	1.208826	0.020376
Cl249	Cl	1.444735	1.542159	0.353709
H250	H	0.144571	0.229102	-0.229313
H251	H	0.477904	0.562436	0.104021
H252	H	0.811237	0.895769	0.437354
H253	H	0.978152	0.374524	-0.541018
H254	H	1.311485	0.707857	-0.207684
H255	H	1.644818	1.041190	0.125649
H256	H	0.548210	0.229073	-0.229294
H257	H	0.881544	0.562406	0.104040
H258	H	1.214877	0.895740	0.437373
H259	H	0.978101	0.540361	-0.229214
H260	H	1.311434	0.873694	0.104119
H261	H	1.644767	1.207028	0.437453
Cl262	Cl	0.778100	0.290566	-0.875984
Cl263	Cl	1.111433	0.623899	-0.542651
Cl264	Cl	1.444766	0.957232	-0.209317
Cl265	Cl	1.032927	0.312936	-0.728383
Cl266	Cl	1.366261	0.646270	-0.395049
Cl267	Cl	1.699594	0.979603	-0.061716
H268	H	0.346352	0.404304	-0.310670
H269	H	0.679685	0.737638	0.022663
H270	H	1.013019	1.070971	0.355997
H271	H	0.263284	0.229095	-0.229313
H272	H	0.596618	0.562429	0.104020
H273	H	0.929951	0.895762	0.437353
H274	H	0.144580	0.374674	-0.374468
H275	H	0.477913	0.708007	-0.041134
H276	H	0.811246	1.041341	0.292199
Cl277	Cl	0.995904	0.392182	-0.930167
Cl278	Cl	1.329237	0.725516	-0.596834
Cl279	Cl	1.662570	1.058849	-0.263501
Cl280	Cl	0.277780	0.392433	-0.392173
Cl281	Cl	0.611114	0.725766	-0.058839
Cl282	Cl	0.944447	1.059099	0.274494
Cl283	Cl	0.815031	0.929536	-0.392300
Cl284	Cl	1.148365	1.262869	-0.058967
Cl285	Cl	1.481698	1.596203	0.274366
Cl286	Cl	0.479639	0.174427	-0.290952
Cl287	Cl	0.812973	0.507760	0.042382
Cl288	Cl	1.146306	0.841093	0.375715
H289	H	0.346434	0.199440	-0.293088
H290	H	0.679767	0.532773	0.040246
H291	H	1.013100	0.866107	0.373579
H292	H	0.978173	0.374404	-1.063368
H293	H	1.311507	0.707737	-0.730035
H294	H	1.644840	1.041070	-0.396701
H295	H	1.007931	0.310711	-0.861571
H296	H	1.341264	0.644045	-0.528238
H297	H	1.674598	0.977378	-0.194904
Cl298	Cl	0.996071	1.077195	-0.211612
Cl299	Cl	1.329404	1.410528	0.121721
Cl300	Cl	1.662737	1.743862	0.455055
Cl301	Cl	0.778011	0.727805	-0.312922
Cl302	Cl	1.111344	1.061138	0.020411
Cl303	Cl	1.444678	1.394471	0.353744
H304	H	1.007870	0.742106	-0.293018
H305	H	1.341204	1.075440	0.040315
H306	H	1.674537	1.408773	0.373648
H307	H	0.978150	0.659070	-0.229244
H308	H	1.311484	0.992403	0.104089
H309	H	1.644817	1.325737	0.437422
H310	H	0.465064	0.404295	-0.310663
H311	H	0.798397	0.737629	0.022670
H312	H	1.131731	1.070962	0.356003
H313	H	0.832840	1.062735	-0.374600
H314	H	1.166173	1.396069	-0.041267
H315	H	1.499506	1.729402	0.292066
Cl316	Cl	0.996003	0.929505	-0.211565
Cl317	Cl	1.329336	1.262838	0.121768
Cl318	Cl	1.662670	1.596171	0.455101
Cl319	Cl	0.815130	0.211266	-0.930149
Cl320	Cl	1.148463	0.544599	-0.596816
Cl321	Cl	1.481796	0.877932	-0.263482
H322	H	0.832642	0.540384	-0.374491
H323	H	1.165975	0.873718	-0.041158
H324	H	1.499309	1.207051	0.292176
Cl325	Cl	0.814936	0.673590	-0.392244
Cl326	Cl	1.148270	1.006923	-0.058911
Cl327	Cl	1.481603	1.340256	0.274423
Cl328	Cl	0.815114	0.211257	-1.077839
Cl329	Cl	1.148448	0.544591	-0.744506
Cl330	Cl	1.481781	0.877924	-0.411173
Cl331	Cl	0.681415	0.392416	-0.392139
Cl332	Cl	1.014749	0.725749	-0.058806
Cl333	Cl	1.348082	1.059083	0.274528
H334	H	0.832857	0.229073	-0.659713
H335	H	1.166191	0.562406	-0.326379
H336	H	1.499524	0.895740	0.006954
Cl337	Cl	0.778097	0.290597	-0.728291
Cl338	Cl	1.111430	0.623930	-0.394957
Cl339	Cl	1.444763	0.957264	-0.061624
