data_functionalizedCrystal
_audit_creation_method	'MofGen! by Chris Wilmer'
_symmetry_space_group_name_H-M	'P1'
_symmetry_Int_Tables_number	1
_symmetry_cell_setting	triclinic
loop_
_symmetry_equiv_pos_as_xyz
  x,y,z
_cell_length_a	17.038272
_cell_length_b	13.101039
_cell_length_c	14.044220
_cell_angle_alpha	86.332523
_cell_angle_beta	87.849783
_cell_angle_gamma	86.404528
loop_
_atom_site_label
_atom_site_type_symbol
_atom_site_fract_x
_atom_site_fract_y
_atom_site_fract_z
O1	O	1.055801	-0.085089	-0.202095
O2	O	1.389134	0.248244	0.131239
O3	O	1.722467	0.581577	0.464572
O4	O	0.827941	-0.085119	-0.198806
O5	O	1.161275	0.248214	0.134527
O6	O	1.494608	0.581547	0.467861
O7	O	0.938450	-0.085095	-0.062191
O8	O	1.271784	0.248239	0.271143
O9	O	1.605117	0.581572	0.604476
O10	O	0.945292	-0.085114	-0.338710
O11	O	1.278625	0.248219	-0.005377
O12	O	1.611958	0.581553	0.327956
O13	O	0.930523	0.085333	-0.072010
O14	O	1.263856	0.418667	0.261323
O15	O	1.597189	0.752000	0.594657
O16	O	0.820014	0.085309	-0.208625
O17	O	1.153347	0.418642	0.124708
O18	O	1.486680	0.751975	0.458041
O19	O	1.047873	0.085339	-0.211914
O20	O	1.381206	0.418672	0.121419
O21	O	1.714540	0.752005	0.454753
Zn22	Zn	0.932685	0.112383	-0.211829
Zn23	Zn	1.266018	0.445716	0.121505
Zn24	Zn	1.599351	0.779050	0.454838
Zn25	Zn	0.943130	-0.112163	-0.198891
Zn26	Zn	1.276463	0.221170	0.134442
Zn27	Zn	1.609796	0.554503	0.467775
O28	O	0.937364	0.085314	-0.348530
O29	O	1.270697	0.418647	-0.015196
O30	O	1.604031	0.751981	0.318137
C31	C	0.794640	0.000091	-0.200726
C32	C	1.127974	0.333424	0.132607
C33	C	1.461307	0.666758	0.465941
C34	C	0.707224	0.000080	-0.191806
C35	C	1.040557	0.333413	0.141527
C36	C	1.373891	0.666746	0.474860
N37	N	0.925562	0.265630	-0.220658
N38	N	1.258895	0.598963	0.112675
N39	N	1.592229	0.932296	0.446009
N40	N	0.950258	-0.265410	-0.190055
N41	N	1.283592	0.067923	0.143278
N42	N	1.616925	0.401256	0.476612
C43	C	0.662839	0.000075	-0.273694
C44	C	0.996172	0.333408	0.059639
C45	C	1.329506	0.666741	0.392972
C46	C	0.580701	0.000090	-0.265309
C47	C	0.914034	0.333423	0.068024
C48	C	1.247368	0.666756	0.401358
C49	C	0.542950	0.000102	-0.175034
C50	C	0.876283	0.333435	0.158299
C51	C	1.209617	0.666769	0.491632
C52	C	0.587341	0.000110	-0.093140
C53	C	0.920675	0.333443	0.240193
C54	C	1.254008	0.666777	0.573526
C55	C	0.669477	0.000102	-0.101527
C56	C	1.002811	0.333436	0.231806
C57	C	1.336144	0.666769	0.565140
C58	C	0.295118	0.000131	-0.145406
C59	C	0.628451	0.333465	0.187927
C60	C	0.961785	0.666798	0.521261
C61	C	0.212976	0.000136	-0.137025
C62	C	0.546309	0.333469	0.196308
C63	C	0.879643	0.666802	0.529641
C64	C	0.206341	0.000117	-0.309195
C65	C	0.539675	0.333451	0.024138
C66	C	0.873008	0.666784	0.357472
C67	C	0.288480	0.000104	-0.317573
C68	C	0.621813	0.333437	0.015760
C69	C	0.955146	0.666770	0.349093
C70	C	0.332863	0.000117	-0.235680
C71	C	0.666197	0.333450	0.097654
C72	C	0.999530	0.666784	0.430987
C73	C	0.458992	0.000114	-0.166461
C74	C	0.792326	0.333447	0.166872
C75	C	1.125659	0.666780	0.500206
C76	C	0.416819	0.000113	-0.244254
C77	C	0.750153	0.333446	0.089079
C78	C	1.083486	0.666779	0.422412
C79	C	1.081174	0.000126	-0.209994
C80	C	1.414508	0.333460	0.123339
C81	C	1.747841	0.666793	0.456673
C82	C	1.168591	0.000131	-0.218913
C83	C	1.501924	0.333464	0.114420
C84	C	1.835258	0.666797	0.447753
C85	C	0.931492	0.000119	-0.031544
C86	C	1.264826	0.333453	0.301789
C87	C	1.598159	0.666786	0.635122
C88	C	0.922561	0.000119	0.074402
C89	C	1.255894	0.333453	0.407735
C90	C	1.589228	0.666786	0.741068
C91	C	0.915872	0.474670	-0.232680
C92	C	1.249205	0.808004	0.100654
C93	C	1.582538	1.141337	0.433987
C94	C	0.959946	0.525556	-0.178037
C95	C	1.293279	0.858889	0.155297
C96	C	1.626613	1.192222	0.488630
C97	C	0.954554	0.641873	-0.184725
C98	C	1.287888	0.975206	0.148608
C99	C	1.621221	1.308540	0.481941
C100	C	0.921263	0.358342	-0.225992
C101	C	1.254596	0.691676	0.107341
C102	C	1.587929	1.025009	0.440675
C103	C	0.944322	0.000098	-0.379176
C104	C	1.277656	0.333431	-0.045842
C105	C	1.610989	0.666764	0.287491
C106	C	0.953254	0.000091	-0.485121
C107	C	1.286587	0.333424	-0.151788
C108	C	1.619921	0.666758	0.181545
C109	C	0.906233	0.000103	0.268381
C110	C	1.239567	0.333436	0.601714
C111	C	1.572900	0.666769	0.935047
C112	C	0.969578	0.000108	0.320905
C113	C	1.302911	0.333441	0.654239
C114	C	1.636245	0.666774	0.987572
C115	C	0.960493	0.000098	0.428842
C116	C	1.293827	0.333432	0.762175
C117	C	1.627160	0.666765	1.095509
C118	C	0.915317	0.000112	0.160434
C119	C	1.248650	0.333445	0.493768
C120	C	1.581984	0.666779	0.827101
H121	H	0.693569	0.000064	-0.347205
H122	H	1.026903	0.333397	-0.013872
H123	H	1.360236	0.666731	0.319461
F124	F	1.014815	0.468319	-0.110628
F125	F	1.348148	0.801653	0.222705
F126	F	1.681481	1.134986	0.556039
H127	H	0.874092	0.518458	-0.284482
H128	H	1.207426	0.851791	0.048852
H129	H	1.540759	1.185125	0.382185
F130	F	1.049381	0.000126	0.273729
F131	F	1.382714	0.333460	0.607063
F132	F	1.716048	0.666793	0.940396
H133	H	0.845184	0.000092	0.304474
H134	H	1.178517	0.333425	0.637807
H135	H	1.511851	0.666759	0.971140
F136	F	0.716715	0.000111	-0.014370
F137	F	1.050048	0.333445	0.318963
F138	F	1.383382	0.666778	0.652296
F139	F	0.159100	0.000105	-0.396346
F140	F	0.492433	0.333439	-0.063012
F141	F	0.825766	0.666772	0.270321
H142	H	0.544566	0.000084	-0.331991
H143	H	0.877899	0.333418	0.001342
H144	H	1.211233	0.666751	0.334676
H145	H	0.319211	0.000082	-0.391084
H146	H	0.652544	0.333415	-0.057750
H147	H	0.985878	0.666748	0.275583
H148	H	0.331245	0.000143	-0.078722
H149	H	0.664579	0.333476	0.254611
H150	H	0.997912	0.666810	0.587945
F151	F	0.172800	0.000167	-0.040940
F152	F	0.506133	0.333500	0.292394
F153	F	0.839467	0.666833	0.625727
H154	H	0.447559	0.000108	-0.317756
H155	H	0.780893	0.333442	0.015577
H156	H	1.114226	0.666775	0.348911
F157	F	0.547162	0.000130	0.002937
F158	F	0.880495	0.333463	0.336270
F159	F	1.213828	0.666796	0.669604
H160	H	0.428245	0.000153	-0.092960
H161	H	0.761578	0.333486	0.240373
H162	H	1.094912	0.666819	0.573706
