data_functionalizedCrystal
_audit_creation_method	'MofGen! by Chris Wilmer'
_symmetry_space_group_name_H-M	'P1'
_symmetry_Int_Tables_number	1
_symmetry_cell_setting	triclinic
loop_
_symmetry_equiv_pos_as_xyz
  x,y,z
_cell_length_a	16.992694
_cell_length_b	16.956993
_cell_length_c	15.455313
_cell_angle_alpha	87.537683
_cell_angle_beta	87.142206
_cell_angle_gamma	96.638538
loop_
_atom_site_label
_atom_site_type_symbol
_atom_site_fract_x
_atom_site_fract_y
_atom_site_fract_z
O1	O	1.033121	-0.165135	-0.072030
O2	O	1.533121	0.334865	0.427970
O3	O	0.804957	-0.163286	-0.072056
O4	O	1.304957	0.336714	0.427944
O5	O	0.932745	-0.049006	-0.072031
O6	O	1.432745	0.450994	0.427969
O7	O	0.905333	-0.279415	-0.072055
O8	O	1.405333	0.220585	0.427945
O9	O	0.925439	-0.055512	0.072230
O10	O	1.425439	0.444488	0.572230
O11	O	0.797651	-0.169793	0.072205
O12	O	1.297651	0.330207	0.572205
O13	O	1.025816	-0.171641	0.072230
O14	O	1.525816	0.328359	0.572230
Cu15	Cu	0.911066	-0.171311	0.085390
Cu16	Cu	1.411066	0.328689	0.585390
Cu17	Cu	0.919706	-0.163616	-0.085215
Cu18	Cu	1.419706	0.336384	0.414785
O19	O	0.898028	-0.285921	0.072205
O20	O	1.398028	0.214079	0.572205
C21	C	0.772246	-0.164163	0.000071
C22	C	1.272246	0.335837	0.500071
C23	C	0.685662	-0.157072	0.000062
C24	C	1.185662	0.342928	0.500062
C25	C	0.630988	-0.225486	0.000056
C26	C	1.130988	0.274514	0.500056
C27	C	0.549632	-0.218820	0.000068
C28	C	1.049632	0.281180	0.500068
C29	C	0.522953	-0.143738	0.000081
C30	C	1.022953	0.356262	0.500081
C31	C	0.577634	-0.075318	0.000090
C32	C	1.077634	0.424682	0.500090
C33	C	0.658987	-0.081986	0.000084
C34	C	1.158987	0.418014	0.500084
C35	C	0.281145	-0.116103	0.000107
C36	C	0.781145	0.383897	0.500107
C37	C	0.199785	-0.109441	0.000111
C38	C	0.699785	0.390559	0.500111
C39	C	0.171789	-0.252943	0.000091
C40	C	0.671789	0.247057	0.500091
C41	C	0.253146	-0.259604	0.000079
C42	C	0.753146	0.240396	0.500079
C43	C	0.307819	-0.191185	0.000093
C44	C	0.807819	0.308815	0.500093
N45	N	0.439796	-0.136922	0.000092
N46	N	0.939796	0.363078	0.500092
N47	N	0.390975	-0.198002	0.000089
N48	N	0.890975	0.301998	0.500089
C49	C	0.930496	-0.022641	0.000101
C50	C	1.430496	0.477359	0.500101
C51	C	0.934668	0.065614	0.000104
C52	C	1.434668	0.565614	0.500104
C53	C	1.058527	-0.170764	0.000101
C54	C	1.558527	0.329236	0.500101
C55	C	1.145111	-0.177855	0.000105
C56	C	1.645111	0.322145	0.500105
C57	C	0.965884	0.562923	0.000136
C58	C	1.465884	1.062923	0.500136
C59	C	0.961957	0.479998	0.000135
C60	C	1.461957	0.979998	0.500135
C61	C	0.888245	0.433608	0.000120
C62	C	1.388245	0.933608	0.500120
C63	C	0.818455	0.470146	0.000114
C64	C	1.318455	0.970146	0.500114
C65	C	0.822383	0.553069	0.000121
C66	C	1.322383	1.053069	0.500121
C67	C	0.868806	0.185075	0.000104
C68	C	1.368806	0.685075	0.500104
C69	C	0.864884	0.102147	0.000095
C70	C	1.364884	0.602147	0.500095
C71	C	1.008386	0.112004	0.000118
C72	C	1.508386	0.612004	0.500118
C73	C	1.012307	0.194929	0.000119
C74	C	1.512307	0.694929	0.500119
C75	C	0.942517	0.231460	0.000118
C76	C	1.442517	0.731460	0.500118
N77	N	0.884230	0.348845	0.000117
N78	N	1.384230	0.848845	0.500117
N79	N	0.946533	0.316221	0.000127
N80	N	1.446533	0.816221	0.500127
N81	N	0.904995	-0.176723	0.205384
N82	N	1.404995	0.323277	0.705384
C83	C	0.900276	0.687713	0.000088
C84	C	1.400276	1.187713	0.500088
C85	C	0.896099	0.599456	0.000127
C86	C	1.396099	1.099456	0.500127
N87	N	0.925784	-0.158199	-0.205210
N88	N	1.425784	0.341801	0.294790
C89	C	0.959301	-0.128193	0.250789
C90	C	1.459301	0.371807	0.750789
C91	C	0.954716	-0.132293	0.341596
C92	C	1.454716	0.367707	0.841596
C93	C	0.895829	-0.184928	0.386996
C94	C	1.395829	0.315072	0.886996
C95	C	0.841518	-0.233460	0.341585
C96	C	1.341518	0.266540	0.841585
C97	C	0.846100	-0.229355	0.250780
C98	C	1.346100	0.270645	0.750780
C99	C	0.876055	-0.202626	0.658574
C100	C	1.376055	0.297374	1.158574
C101	C	0.871478	-0.206729	0.749386
C102	C	1.371478	0.293271	1.249386
C103	C	0.984676	-0.105560	0.749390
C104	C	1.484676	0.394440	1.249390
C105	C	0.989255	-0.101463	0.658583
C106	C	1.489255	0.398537	1.158583
C107	C	0.934942	-0.149992	0.613180
C108	C	1.434942	0.350008	1.113180
N109	N	0.891143	-0.189123	0.479816
N110	N	1.391143	0.310877	0.979816
N111	N	0.939625	-0.145793	0.520362
N112	N	1.439625	0.354207	1.020362
H113	H	0.127266	-0.308646	0.000081
H114	H	0.627266	0.191354	0.500081
Br115	Br	0.733189	0.010866	0.000101
Br116	Br	1.233189	0.510866	0.500101
H117	H	0.823523	-0.249594	0.786347
H118	H	1.323523	0.250406	1.286347
H119	H	0.765556	0.582813	0.000121
H120	H	1.265556	1.082813	0.500121
H121	H	1.072331	0.232695	0.000136
H122	H	1.572331	0.732695	0.500136
H123	H	0.325651	-0.060391	0.000119
H124	H	0.825651	0.439609	0.500119
Br125	Br	1.069176	-0.030033	0.596966
Br126	Br	1.569176	0.469967	1.096966
H127	H	0.831832	-0.242142	0.621614
H128	H	1.331832	0.257858	1.121614
H129	H	1.025909	0.600689	0.000141
H130	H	1.525909	1.100689	0.500141
Br131	Br	1.058382	-0.039701	0.811011
Br132	Br	1.558382	0.460299	1.311011
Br133	Br	0.761593	-0.304889	0.403197
Br134	Br	1.261593	0.195111	0.903197
Br135	Br	0.667187	-0.327388	0.000029
Br136	Br	1.167187	0.172612	0.500029
H137	H	0.804855	0.064377	0.000085
H138	H	1.304855	0.564377	0.500085
Br139	Br	0.772392	-0.295215	0.189159
Br140	Br	1.272392	0.204785	0.689159
Br141	Br	0.475434	-0.311673	0.000056
Br142	Br	0.975434	0.188327	0.500056
H143	H	0.811978	0.214809	0.000093
H144	H	1.311978	0.714809	0.500093
H145	H	0.274861	-0.320743	0.000058
H146	H	0.774861	0.179257	0.500058
H147	H	0.178068	-0.048297	0.000121
H148	H	0.678068	0.451703	0.500121
Br149	Br	0.718416	0.407189	0.000100
Br150	Br	1.218416	0.907189	0.500100
H151	H	1.007256	-0.085335	0.213830
H152	H	1.507256	0.414665	0.713830
H153	H	0.555905	-0.014185	0.000114
H154	H	1.055905	0.485815	0.500114
H155	H	1.018783	0.450257	0.000143
H156	H	1.518783	0.950257	0.500143
H157	H	1.065206	0.082252	0.000112
H158	H	1.565206	0.582252	0.500112
H159	H	0.998935	-0.092776	0.378564
H160	H	1.498935	0.407224	0.878564
