data_functionalizedCrystal
_audit_creation_method	'MofGen! by Chris Wilmer'
_symmetry_space_group_name_H-M	'P1'
_symmetry_Int_Tables_number	1
_symmetry_cell_setting	triclinic
loop_
_symmetry_equiv_pos_as_xyz
  x,y,z
_cell_length_a	6.817900
_cell_length_b	9.514072
_cell_length_c	10.992410
_cell_angle_alpha	88.554233
_cell_angle_beta	108.764651
_cell_angle_gamma	118.843421
loop_
_atom_site_label
_atom_site_type_symbol
_atom_site_fract_x
_atom_site_fract_y
_atom_site_fract_z
V1	V	-4.172171	-0.222204	-0.401600
O2	O	-4.069593	0.010678	-0.392919
O3	O	-4.206678	-0.440594	-0.399849
O4	O	-4.148872	-0.218786	-0.576297
O5	O	-4.127799	-0.212665	-0.215250
V6	V	-4.641803	-0.194349	-0.379190
O7	O	-4.463899	-0.283307	-0.450758
O8	O	-4.800272	-0.133246	-0.330032
O9	O	-4.384090	0.024041	-0.380940
O10	O	-4.861778	-0.427231	-0.387870
O11	O	-4.803572	-0.203888	-0.565539
O12	O	-4.441896	-0.197767	-0.204493
C13	C	-4.071035	-0.493833	-0.393771
C14	C	-4.180703	-0.672369	-0.393504
C15	C	-3.997296	-0.210893	-0.618845
C16	C	-4.060079	-0.209543	-0.761668
C17	C	-3.923996	-0.197247	-0.956735
C18	C	-3.858986	-0.199316	-0.808261
C19	C	-4.299373	-0.367896	-0.839489
C20	C	-4.363322	-0.366496	-0.988049
C21	C	-4.161158	-0.059868	-0.948628
C22	C	-4.090253	-0.059117	-0.799612
C23	C	-4.183077	0.077271	-0.387015
C24	C	-4.052649	0.255805	-0.387290
C25	C	-4.256814	-0.205665	-0.161937
C26	C	-4.173267	-0.207007	-0.019114
H27	H	-3.859082	-0.669090	-0.382111
H28	H	-4.374274	-0.747478	-0.398665
C29	C	-3.618362	-0.045433	-0.735586
C30	C	-3.404717	-0.060543	-0.647149
C31	C	-3.164101	0.093379	-0.574524
C32	C	-3.137130	0.262410	-0.590335
C33	C	-3.350782	0.277527	-0.678776
C34	C	-3.591398	0.123605	-0.751401
H35	H	-3.424676	-0.185676	-0.635441
H36	H	-3.005941	0.082188	-0.509054
H37	H	-2.959011	0.376353	-0.536574
H38	H	-3.330822	0.402660	-0.690484
H39	H	-3.749558	0.134796	-0.816871
H40	H	-4.453190	-0.381098	-0.810746
H41	H	-4.548913	-0.380266	-1.030743
C42	C	-3.725272	-0.042376	-0.981472
C43	C	-3.786894	0.077129	-1.058618
C44	C	-3.588169	0.232007	-1.083363
C45	C	-3.327821	0.267380	-1.030962
C46	C	-3.266187	0.147871	-0.953811
C47	C	-3.464913	-0.007007	-0.929066
H48	H	-3.979630	0.050948	-1.097412
H49	H	-3.633796	0.320475	-1.140475
H50	H	-3.180712	0.382029	-1.049279
H51	H	-3.073451	0.174053	-0.915016
H52	H	-3.419286	-0.095475	-0.871954
C53	C	-3.927527	-0.340079	-1.022194
C54	C	-4.155602	-0.465368	-1.131932
C55	C	-4.159146	-0.608207	-1.197388
C56	C	-3.934614	-0.625757	-1.153106
C57	C	-3.706522	-0.500465	-1.043362
C58	C	-3.702979	-0.357625	-0.977906
H59	H	-4.321829	-0.452379	-1.164718
H60	H	-4.327996	-0.700957	-1.278628
H61	H	-3.937238	-0.731495	-1.201560
H62	H	-3.540295	-0.513453	-1.010576
H63	H	-3.534128	-0.264876	-0.896666
C64	C	-4.276899	-0.518784	-0.805596
C65	C	-4.041819	-0.498638	-0.707424
C66	C	-4.019330	-0.649520	-0.673533
C67	C	-4.231921	-0.820549	-0.737814
C68	C	-4.467019	-0.840701	-0.835991
C69	C	-4.489508	-0.689819	-0.869882
H70	H	-3.884431	-0.372027	-0.659835
H71	H	-3.845294	-0.634601	-0.600855
H72	H	-4.215274	-0.932241	-0.712725
H73	H	-4.624407	-0.967313	-0.883581
H74	H	-4.663543	-0.704739	-0.942560
H75	H	-3.829747	-0.306505	-0.783932
C76	C	-3.855485	0.099144	-0.728166
C77	C	-3.637356	0.091893	-0.635797
C78	C	-3.402584	0.250150	-0.564339
C79	C	-3.385941	0.415658	-0.585252
C80	C	-3.604077	0.422916	-0.677626
C81	C	-3.838849	0.264659	-0.749083
H82	H	-3.649669	-0.030632	-0.620312
H83	H	-3.241105	0.244777	-0.495958
H84	H	-3.212149	0.532810	-0.532355
H85	H	-3.591764	0.545441	-0.693110
H86	H	-4.000328	0.270032	-0.817464
H87	H	-4.376801	-0.477907	-1.034824
H88	H	-4.341642	-0.065623	-0.989495
H89	H	-4.026898	0.060382	-0.968442
H90	H	-4.231881	-0.057257	-0.767092
