data_functionalizedCrystal
_audit_creation_method	'MofGen! by Chris Wilmer'
_symmetry_space_group_name_H-M	'P1'
_symmetry_Int_Tables_number	1
_symmetry_cell_setting	triclinic
loop_
_symmetry_equiv_pos_as_xyz
  x,y,z
_cell_length_a	13.033304
_cell_length_b	13.032721
_cell_length_c	13.032268
_cell_angle_alpha	103.289627
_cell_angle_beta	89.077769
_cell_angle_gamma	105.183092
loop_
_atom_site_label
_atom_site_type_symbol
_atom_site_fract_x
_atom_site_fract_y
_atom_site_fract_z
Zn1	Zn	-1.451133	0.335813	0.818131
Zn2	Zn	-0.951133	0.835813	1.318131
Zn3	Zn	-1.451019	0.490910	0.663066
Zn4	Zn	-0.951019	0.990910	1.163066
Zn5	Zn	-1.301797	0.330110	0.623681
Zn6	Zn	-0.801797	0.830110	1.123681
Zn7	Zn	-1.250931	0.535896	0.818005
Zn8	Zn	-0.750931	1.035896	1.318005
O9	O	-1.363720	0.423183	0.730721
O10	O	-0.863720	0.923183	1.230721
O11	O	-1.597353	0.339947	0.814097
O12	O	-1.097353	0.839947	1.314097
O13	O	-1.452464	0.448366	0.511621
O14	O	-0.952464	0.948366	1.011621
O15	O	-1.342943	0.179836	0.633046
O16	O	-0.842943	0.679836	1.133046
O17	O	-1.597269	0.453897	0.700172
O18	O	-1.097269	0.953897	1.200172
O19	O	-1.452659	0.184026	0.775907
O20	O	-0.952659	0.684026	1.275907
O21	O	-1.342832	0.330227	0.482685
O22	O	-0.842832	0.830227	0.982685
O23	O	-1.148815	0.373848	0.632923
O24	O	-0.648815	0.873848	1.132923
O25	O	-1.256248	0.530569	0.964242
O26	O	-0.756248	1.030569	1.464242
O27	O	-1.111443	0.525038	0.775692
O28	O	-0.611443	1.025038	1.275692
O29	O	-1.403335	0.383568	0.964335
O30	O	-0.903335	0.883568	1.464335
O31	O	-1.403141	0.647909	0.700049
O32	O	-0.903141	1.147909	1.200049
O33	O	-1.256137	0.680960	0.813882
O34	O	-0.756137	1.180960	1.313882
C35	C	-1.092212	0.453707	0.700021
C36	C	-0.592212	0.953707	1.200021
C37	C	-0.976052	0.466795	0.686914
C38	C	-0.476052	0.966795	1.186914
C39	C	-0.924277	0.416366	0.737549
C40	C	-0.424277	0.916366	1.237549
C41	C	-0.804220	0.429892	0.724004
C42	C	-0.304220	0.929892	1.224004
C43	C	-1.324132	0.703595	0.761252
C44	C	-0.824132	1.203595	1.261252
C45	C	-1.307287	0.823551	0.774359
C46	C	-0.807287	1.323551	1.274359
C47	C	-1.324130	0.462723	1.003262
C48	C	-0.824130	0.962723	1.503262
C49	C	-1.307259	0.479572	1.119403
C50	C	-0.807259	0.979572	1.619403
C51	C	-0.636290	0.392534	0.761534
C52	C	-0.136290	0.892534	1.261534
C53	C	-0.752448	0.379456	0.774646
C54	C	-0.252448	0.879456	1.274646
C55	C	-1.403488	0.141675	0.700097
C56	C	-0.903488	0.641675	1.200097
C57	C	-1.420434	0.021713	0.687047
C58	C	-0.920434	0.521713	1.187047
C59	C	-1.372560	0.860644	0.723934
C60	C	-0.872560	1.360644	1.223934
C61	C	-1.355151	0.984625	0.737479
C62	C	-0.855151	1.484625	1.237479
C63	C	-1.403227	0.383712	0.459238
C64	C	-0.903227	0.883712	0.959238
C65	C	-1.420343	0.366535	0.343088
C66	C	-0.920343	0.866535	0.843088
C67	C	-1.372514	0.414352	1.171228
C68	C	-0.872514	0.914352	1.671228
C69	C	-1.355079	0.431765	1.291266
C70	C	-0.855079	0.931765	1.791266
H71	H	-0.931497	0.519979	0.633535
H72	H	-0.431497	1.019979	1.133535
N73	N	-1.220965	0.565778	1.175213
N74	N	-0.720965	1.065778	1.675213
N75	N	-1.150956	0.544055	1.224467
N76	N	-0.650956	1.044055	1.724467
H77	H	-1.090007	0.604938	1.263882
H78	H	-0.590007	1.104938	1.763882
H79	H	-1.489117	0.297795	1.298594
H80	H	-0.989117	0.797795	1.798594
N81	N	-1.268856	1.059918	0.804204
N82	N	-0.768856	1.559918	1.304204
N83	N	-1.175184	1.057337	0.784939
N84	N	-0.675184	1.557337	1.284939
H85	H	-1.114237	1.110514	0.832061
H86	H	-0.614237	1.610514	1.332061
N87	N	-1.458782	0.328126	1.115399
N88	N	-0.958782	0.828126	1.615399
N89	N	-1.472820	0.314100	1.017966
N90	N	-0.972820	0.814100	1.517966
H91	H	-1.533749	0.253200	0.978537
H92	H	-1.033749	0.753200	1.478537
N93	N	-1.268789	0.517999	1.347057
N94	N	-0.768789	1.017999	1.847057
N95	N	-1.207429	0.579324	1.298394
N96	N	-0.707429	1.079324	1.798394
H97	H	-1.146485	0.640225	1.337795
H98	H	-0.646485	1.140225	1.837795
H99	H	-1.441336	0.800617	0.670739
H100	H	-0.941336	1.300617	1.170739
H101	H	-1.489214	0.961688	0.633849
H102	H	-0.989214	1.461688	1.133849
N103	N	-0.748347	0.496602	0.657018
N104	N	-0.248347	0.996602	1.157018
N105	N	-0.702445	0.455682	0.579518
N106	N	-0.202445	0.955682	1.079518
H107	H	-0.662984	0.502793	0.532207
H108	H	-0.162984	1.002793	1.032207
N109	N	-0.808306	0.312734	0.841629
N110	N	-0.308306	0.812734	1.341629
N111	N	-0.759686	0.265322	0.889244
N112	N	-0.259686	0.765322	1.389244
H113	H	-0.799135	0.218202	0.936553
H114	H	-0.299135	0.718202	1.436553
H115	H	-0.968833	0.363174	0.790922
H116	H	-0.468833	0.863174	1.290922
N117	N	-1.221022	0.898863	0.841102
N118	N	-0.721022	1.398863	1.341102
N119	N	-1.207004	0.999470	0.852014
N120	N	-0.707004	1.499470	1.352014
H121	H	-1.146078	1.052659	0.899154
H122	H	-0.646078	1.552659	1.399154
