data_functionalizedCrystal
_audit_creation_method	'MofGen! by Chris Wilmer'
_symmetry_space_group_name_H-M	'P1'
_symmetry_Int_Tables_number	1
_symmetry_cell_setting	triclinic
loop_
_symmetry_equiv_pos_as_xyz
  x,y,z
_cell_length_a	10.685980
_cell_length_b	19.120786
_cell_length_c	10.686551
_cell_angle_alpha	83.348156
_cell_angle_beta	81.591741
_cell_angle_gamma	96.632738
loop_
_atom_site_label
_atom_site_type_symbol
_atom_site_fract_x
_atom_site_fract_y
_atom_site_fract_z
Zn1	Zn	1.982569	-0.158561	-0.853507
Zn2	Zn	2.482569	0.341439	-0.353507
Zn3	Zn	1.955463	-0.286717	-0.630578
Zn4	Zn	2.455463	0.213283	-0.130578
Zn5	Zn	1.752355	-0.178250	-0.623333
Zn6	Zn	2.252355	0.321750	-0.123333
Zn7	Zn	1.759592	-0.286649	-0.826494
Zn8	Zn	2.259592	0.213351	-0.326494
O9	O	1.862495	-0.227544	-0.733478
O10	O	2.362495	0.272456	-0.233478
O11	O	2.157292	-0.167350	-0.838272
O12	O	2.657292	0.332650	-0.338272
O13	O	1.914147	-0.280598	-0.451296
O14	O	2.414147	0.219402	0.048704
O15	O	1.791209	-0.076640	-0.662139
O16	O	2.291209	0.423360	-0.162139
O17	O	2.137377	-0.261506	-0.674487
O18	O	2.637377	0.238494	-0.174487
O19	O	1.960346	-0.062174	-0.831247
O20	O	2.460346	0.437826	-0.331247
O21	O	1.764925	-0.200908	-0.445974
O22	O	2.264925	0.299092	0.054026
O23	O	1.574997	-0.200841	-0.635945
O24	O	2.074997	0.299159	-0.135945
O25	O	1.803544	-0.261389	-1.008397
O26	O	2.303544	0.238611	-0.508397
O27	O	1.580314	-0.280481	-0.785207
O28	O	2.080314	0.219519	-0.285207
O29	O	1.967364	-0.167283	-1.028244
O30	O	2.467364	0.332717	-0.528244
O31	O	1.921165	-0.385707	-0.648293
O32	O	2.421165	0.114293	-0.148293
O33	O	1.777260	-0.385657	-0.792231
O34	O	2.277260	0.114343	-0.292231
C35	C	1.531420	-0.242790	-0.706859
C36	C	2.031420	0.257210	-0.206859
C37	C	1.389785	-0.249328	-0.695501
C38	C	1.889785	0.250672	-0.195501
C39	C	1.847093	-0.411348	-0.718148
C40	C	2.347093	0.088652	-0.218148
C41	C	1.840624	-0.489973	-0.711641
C42	C	2.340624	0.010027	-0.211641
C43	C	1.925590	-0.519319	-0.796691
C44	C	2.425590	-0.019319	-0.296691
C45	C	1.919507	-0.593196	-0.790580
C46	C	2.419507	-0.093196	-0.290580
C47	C	1.828463	-0.637725	-0.699411
C48	C	2.328463	-0.137725	-0.199411
C49	C	1.743487	-0.608375	-0.614357
C50	C	2.243487	-0.108375	-0.114357
C51	C	1.749566	-0.534499	-0.620475
C52	C	2.249566	-0.034499	-0.120475
C53	C	1.805702	-0.861160	-0.676535
C54	C	2.305702	-0.361160	-0.176535
C55	C	1.799632	-0.935040	-0.670420
C56	C	2.299632	-0.435040	-0.170420
C57	C	1.975651	-0.919856	-0.846645
C58	C	2.475651	-0.419856	-0.346645
C59	C	1.981727	-0.845980	-0.852750
C60	C	2.481727	-0.345980	-0.352750
C61	C	1.896747	-0.816636	-0.767701
C62	C	2.396747	-0.316636	-0.267701
C63	C	1.822245	-0.713239	-0.693159
C64	C	2.322245	-0.213239	-0.193159
C65	C	1.902960	-0.741124	-0.773959
C66	C	2.402960	-0.241124	-0.273959
C67	C	2.194863	-0.212239	-0.760201
C68	C	2.694863	0.287761	-0.260201
C69	C	2.336498	-0.205717	-0.771589
C70	C	2.836498	0.294283	-0.271589
C71	C	1.889285	-0.212132	-1.065850
C72	C	2.389285	0.287868	-0.565850
C73	C	1.900701	-0.205564	-1.207487
C74	C	2.400701	0.294436	-0.707487
C75	C	1.877994	-0.043020	-0.748899
C76	C	2.377994	0.456980	-0.248899
C77	C	1.884599	0.035614	-0.755470
C78	C	2.384599	0.535614	-0.255470
C79	C	1.835887	-0.242842	-0.402409
C80	C	2.335887	0.257158	0.097591
C81	C	1.824734	-0.249199	-0.260809
C82	C	2.324734	0.250801	0.239191
H83	H	1.327045	-0.291670	-0.621658
H84	H	1.827045	0.208330	-0.121658
N85	N	1.998417	-0.149412	-1.290546
N86	N	2.498417	0.350588	-0.790546
H87	H	2.047485	-0.121226	-1.234841
H88	H	2.547485	0.378774	-0.734841
H89	H	2.059375	-0.172958	-1.348100
H90	H	2.559375	0.327042	-0.848100
H91	H	2.044835	-0.943757	-0.915889
H92	H	2.544835	-0.443757	-0.415889
H93	H	1.999734	-0.483068	-0.870925
H94	H	2.499734	0.016932	-0.370925
H95	H	1.977084	-0.704866	-0.848194
H96	H	2.477084	-0.204866	-0.348194
H97	H	1.988705	-0.617085	-0.859827
H98	H	2.488705	-0.117085	-0.359827
H99	H	2.055862	-0.809726	-0.926987
H100	H	2.555862	-0.309726	-0.426987
H101	H	1.725487	-0.971295	-0.596178
H102	H	2.225487	-0.471295	-0.096178
H103	H	1.399232	-0.163374	-0.845419
H104	H	1.899232	0.336626	-0.345419
N105	N	1.714061	-0.829516	-0.584796
N106	N	2.214061	-0.329516	-0.084796
H107	H	1.655473	-0.868936	-0.526108
H108	H	2.155473	-0.368936	-0.026108
H109	H	1.763760	-0.799192	-0.532584
H110	H	2.263760	-0.299192	-0.032584
H111	H	1.669352	-0.644636	-0.540130
H112	H	2.169352	-0.144636	-0.040130
N113	N	1.657921	-0.502844	-0.528748
N114	N	2.157921	-0.002844	-0.028748
H115	H	1.599323	-0.542261	-0.470062
H116	H	2.099323	-0.042261	0.029938
H117	H	1.707609	-0.472517	-0.476532
H118	H	2.207609	0.027483	0.023468
H119	H	1.748119	-0.749503	-0.618926
H120	H	2.248119	-0.249503	-0.118926
H121	H	1.750965	-0.291584	-1.198103
H122	H	2.250965	0.208416	-0.698103
