data_functionalizedCrystal
_audit_creation_method	'MofGen! by Chris Wilmer'
_symmetry_space_group_name_H-M	'P1'
_symmetry_Int_Tables_number	1
_symmetry_cell_setting	triclinic
loop_
_symmetry_equiv_pos_as_xyz
  x,y,z
_cell_length_a	19.288866
_cell_length_b	19.288874
_cell_length_c	18.366186
_cell_angle_alpha	89.993232
_cell_angle_beta	90.007516
_cell_angle_gamma	96.861565
loop_
_atom_site_label
_atom_site_type_symbol
_atom_site_fract_x
_atom_site_fract_y
_atom_site_fract_z
O1	O	-0.921355	0.086651	-0.060524
O2	O	-0.719095	0.098339	-0.060532
O3	O	-0.826066	-0.008634	-0.060522
O4	O	-0.814384	0.193625	-0.060534
O5	O	-0.826048	-0.008640	0.060577
O6	O	-0.719077	0.098334	0.060568
O7	O	-0.921337	0.086646	0.060575
Zn8	Zn	-0.820204	0.092489	0.079799
Zn9	Zn	-0.820228	0.092496	-0.079755
O10	O	-0.814366	0.193620	0.060566
C11	C	-0.693210	0.097961	0.000017
C12	C	-0.616106	0.096831	0.000015
C13	C	-0.060550	0.088700	-0.065988
C14	C	-0.132998	0.089757	-0.065991
C15	C	-0.169216	0.090286	0.000020
C16	C	-0.132984	0.089740	0.066039
C17	C	-0.060539	0.088676	0.066040
C18	C	-0.278538	0.132651	0.050591
C19	C	-0.350981	0.133719	0.050587
C20	C	-0.392662	0.093564	0.000020
C21	C	-0.361890	0.052350	-0.050555
C22	C	-0.289445	0.051286	-0.050554
C23	C	-0.247771	0.091439	0.000027
C24	C	-0.507443	0.095251	-0.065997
C25	C	-0.579892	0.096304	-0.065997
C26	C	-0.579876	0.096294	0.066035
C27	C	-0.507429	0.095234	0.066033
C28	C	-0.471216	0.094716	0.000015
C29	C	-0.825680	-0.034513	0.000028
C30	C	-0.824548	-0.111617	0.000027
C31	C	-0.816413	-0.667189	0.066020
C32	C	-0.817468	-0.594741	0.066024
C33	C	-0.818010	-0.558507	0.000014
C34	C	-0.817477	-0.594724	-0.066005
C35	C	-0.816414	-0.667170	-0.066007
C36	C	-0.860382	-0.449173	-0.050556
C37	C	-0.861450	-0.376730	-0.050551
C38	C	-0.821284	-0.335061	0.000018
C39	C	-0.780061	-0.365845	0.050594
C40	C	-0.778998	-0.438291	0.050591
C41	C	-0.819162	-0.479952	0.000009
C42	C	-0.822957	-0.220295	0.066037
C43	C	-0.824008	-0.147846	0.066038
C44	C	-0.824024	-0.147831	-0.065993
C45	C	-0.822965	-0.220279	-0.065993
C46	C	-0.822435	-0.256507	0.000025
C47	C	0.052777	0.087026	0.000025
C48	C	-0.024326	0.088158	0.000022
C49	C	-0.814752	0.219499	0.000014
C50	C	-0.815884	0.296602	0.000010
N51	N	-0.820193	0.092484	0.188690
N52	N	-0.820245	0.092496	-0.188646
C53	C	-0.867575	0.045139	0.226794
C54	C	-0.867580	0.045136	0.303022
C55	C	-0.820208	0.092490	0.341142
C56	C	-0.772817	0.139838	0.303029
C57	C	-0.772810	0.139836	0.226802
C58	C	-0.810912	0.155777	0.461899
C59	C	-0.810925	0.155781	0.538124
C60	C	-0.820228	0.092499	0.576250
C61	C	-0.829534	0.029210	0.538142
C62	C	-0.829526	0.029207	0.461915
C63	C	-0.820211	0.092498	0.423797
C64	C	-0.867618	0.045147	0.697010
C65	C	-0.867617	0.045143	0.773239
C66	C	-0.772858	0.139851	0.773244
C67	C	-0.772856	0.139849	0.697016
C68	C	-0.820239	0.092497	0.658903
H69	H	-0.244607	0.165346	0.091777
H70	H	-0.815983	-0.696651	-0.119763
C71	C	-0.720750	0.191941	0.815172
N72	N	-0.681500	0.231177	0.846755
H73	H	-0.162478	0.090169	0.119786
C74	C	-0.904567	-0.495002	-0.106191
N75	N	-0.937845	-0.529519	-0.148096
H76	H	-0.815980	-0.696681	0.119777
H77	H	-0.817915	-0.565218	-0.119752
H78	H	-0.906156	0.006582	0.195765
C79	C	-0.720713	0.191951	0.184886
N80	N	-0.681485	0.231217	0.153313
H81	H	-0.376028	0.167295	0.091754
H82	H	-0.824437	-0.118365	0.119794
C83	C	-0.619714	0.096868	0.138648
N84	N	-0.649723	0.097297	0.193342
C85	C	-0.818057	-0.554904	0.138644
N86	N	-0.818502	-0.524901	0.193342
H87	H	-0.824456	-0.118329	-0.119740
H88	H	-0.837109	-0.022321	0.569182
H89	H	-0.906165	0.006581	0.334053
H90	H	-0.906198	0.006588	0.665977
H91	H	-0.031070	0.088276	-0.119745
C92	C	-0.407734	0.008175	-0.106183
N93	N	-0.442267	-0.025095	-0.148081
C94	C	-0.720706	0.191925	0.344962
N95	N	-0.681452	0.231155	0.376547
C96	C	-0.839752	-0.040410	0.419999
N97	N	-0.847451	-0.092846	0.388428
H98	H	-0.906199	0.006585	0.804264
C99	C	-0.822365	-0.260148	0.138657
N100	N	-0.821917	-0.290162	0.193355
C101	C	-0.720781	0.191983	0.655099
N102	N	-0.681571	0.231268	0.623528
C103	C	-0.733647	-0.472150	0.106217
N104	N	-0.699484	-0.497653	0.148113
H105	H	-0.162497	0.090202	-0.119746
H106	H	-0.264393	0.017727	-0.091734
C107	C	-0.906798	-0.342874	-0.106182
N108	N	-0.940956	-0.317376	-0.148086
C109	C	-0.467607	0.094673	-0.138617
N110	N	-0.437605	0.094236	-0.193316
C111	C	-0.619740	0.096892	-0.138617
N112	N	-0.649754	0.097333	-0.193316
C113	C	-0.467578	0.094654	0.138650
N114	N	-0.437563	0.094220	0.193349
C115	C	-0.020689	0.088089	0.138659
N116	N	0.009327	0.087652	0.193357
C117	C	-0.735875	-0.320014	0.106223
N118	N	-0.702597	-0.285492	0.148123
C119	C	-0.800682	0.225400	0.580035
N120	N	-0.792963	0.277839	0.611602
H121	H	-0.822540	-0.249761	-0.119746
H122	H	-0.803325	0.207313	0.430863
