data_functionalizedCrystal
_audit_creation_method	'MofGen! by Chris Wilmer'
_symmetry_space_group_name_H-M	'P1'
_symmetry_Int_Tables_number	1
_symmetry_cell_setting	triclinic
loop_
_symmetry_equiv_pos_as_xyz
  x,y,z
_cell_length_a	16.992701
_cell_length_b	17.666332
_cell_length_c	19.188925
_cell_angle_alpha	90.004872
_cell_angle_beta	86.904859
_cell_angle_gamma	90.009300
loop_
_atom_site_label
_atom_site_type_symbol
_atom_site_fract_x
_atom_site_fract_y
_atom_site_fract_z
O1	O	1.039886	0.062953	0.148010
O2	O	0.811606	0.062953	0.146388
O3	O	0.932336	0.062949	0.045929
O4	O	0.919156	0.062957	0.248469
O5	O	0.932315	-0.062948	0.045924
O6	O	0.811585	-0.062944	0.146384
O7	O	1.039865	-0.062944	0.148006
Cu8	Cu	0.925723	-0.074439	0.147194
Cu9	Cu	0.925748	0.074448	0.147199
O10	O	0.919135	-0.062939	0.248465
C11	C	0.782390	0.000005	0.144297
C12	C	0.695368	0.000005	0.138065
N13	N	0.925711	-0.179159	0.147191
C14	C	0.206553	0.000006	0.096190
C15	C	0.288319	0.000002	0.102051
C16	C	0.319634	0.000008	0.168052
C17	C	0.269179	0.000011	0.228196
C18	C	0.187414	0.000010	0.222334
C19	C	0.563147	0.000007	0.192347
C20	C	0.644918	0.000010	0.198204
C21	C	0.664053	-0.000000	0.072058
C22	C	0.582286	0.000003	0.066202
C23	C	0.531838	0.000002	0.126346
N24	N	0.403212	0.000006	0.174045
N25	N	0.448261	-0.000001	0.120353
C26	C	0.973103	-0.218760	0.192209
C27	C	0.973115	-0.298008	0.192208
C28	C	0.925722	-0.337651	0.147195
C29	C	0.878327	-0.298040	0.102168
C30	C	0.878322	-0.218793	0.102166
N31	N	0.857064	-0.462090	0.141458
N32	N	0.857071	-0.537371	0.141464
C33	C	0.925736	-0.576415	0.147198
N34	N	0.994394	-0.537334	0.152940
N35	N	0.994386	-0.462047	0.152937
C36	C	0.925722	-0.423580	0.147192
C37	C	0.973145	-0.701946	0.192218
C38	C	0.973159	-0.781195	0.192212
C39	C	0.878364	-0.781225	0.102176
C40	C	0.878357	-0.701977	0.102178
C41	C	0.925746	-0.662342	0.147203
C42	C	1.069081	0.000006	0.150097
C43	C	1.156103	0.000011	0.156329
C44	C	0.931899	0.000001	0.019891
C45	C	0.930620	0.000002	-0.057689
N46	N	0.925766	0.179168	0.147198
C47	C	0.992896	0.000022	-0.615816
C48	C	0.994104	0.000015	-0.542922
C49	C	0.923264	0.000015	-0.502132
C50	C	0.851210	0.000003	-0.534242
C51	C	0.850003	0.000002	-0.607135
N52	N	0.871986	0.042867	-0.384451
N53	N	0.873137	0.042869	-0.315206
C54	C	0.926895	0.000015	-0.282510
N55	N	0.979471	-0.042831	-0.321676
N56	N	0.978322	-0.042830	-0.390927
C57	C	0.924564	0.000015	-0.423092
C58	C	1.000256	0.000015	-0.171369
C59	C	1.001461	0.000003	-0.098474
C60	C	0.858565	-0.000001	-0.089795
C61	C	0.857361	0.000003	-0.162689
C62	C	0.928209	0.000015	-0.203472
C63	C	0.919572	0.000010	0.274503
C64	C	0.920851	0.000014	0.352083
H65	H	0.329392	-0.000006	0.053079
H66	H	1.057944	0.000024	-0.204576
C67	C	0.826190	-0.341644	0.052657
C68	C	0.864091	-0.396129	-0.002077
C69	C	0.811955	-0.439734	-0.051591
C70	C	0.721917	-0.428854	-0.046371
C71	C	0.684011	-0.374366	0.008365
C72	C	0.736147	-0.330762	0.057879
H73	H	0.930747	-0.404186	-0.005943
H74	H	0.840016	-0.480069	-0.092111
H75	H	0.683322	-0.461133	-0.083025
H76	H	0.617355	-0.366310	0.012231
H77	H	0.708086	-0.290427	0.098399
H78	H	1.060131	0.000005	-0.072338
H79	H	0.800885	-0.000007	-0.056585
C80	C	0.826182	-0.175227	0.052647
C81	C	0.774051	-0.218826	0.003130
C82	C	0.721909	-0.175257	-0.046387
C83	C	0.721898	-0.088090	-0.046387
C84	C	0.774032	-0.044486	0.003131
C85	C	0.826174	-0.088054	0.052649
H86	H	0.774057	-0.283357	0.003129
H87	H	0.683316	-0.207536	-0.083044
H88	H	0.683299	-0.055838	-0.083043
H89	H	0.774025	0.020045	0.003133
H90	H	0.864766	-0.055775	0.089306
H91	H	0.522082	0.000010	0.241320
H92	H	0.839762	-0.669733	0.065522
H93	H	0.556796	-0.000002	0.012457
C94	C	0.773283	0.000005	-0.489377
C95	C	0.714169	-0.065373	-0.495819
C96	C	0.636239	-0.065374	-0.450956
C97	C	0.617425	0.000003	-0.399650
C98	C	0.676541	0.065387	-0.393205
C99	C	0.754471	0.065388	-0.438069
H100	H	0.728095	-0.113774	-0.533801
H101	H	0.592477	-0.113776	-0.455727
H102	H	0.559737	0.000003	-0.366439
H103	H	0.662615	0.113788	-0.355224
H104	H	0.798232	0.113790	-0.433298
C105	C	0.778109	0.000005	-0.198006
C106	C	0.700184	0.000006	-0.153143
C107	C	0.620928	0.000006	-0.188460
C108	C	0.619597	0.000006	-0.268638
C109	C	0.697525	0.000005	-0.313506
C110	C	0.776781	0.000005	-0.278189
H111	H	0.701166	0.000007	-0.093786
H112	H	0.563240	0.000007	-0.155245
H113	H	0.560927	0.000006	-0.294782
H114	H	0.696543	0.000005	-0.372863
H115	H	0.834469	0.000004	-0.311404
H116	H	1.050586	0.000027	-0.649017
C117	C	1.025233	-0.175163	0.241732
C118	C	1.077366	-0.218731	0.291252
C119	C	1.129496	-0.175131	0.340775
C120	C	1.129493	-0.087964	0.340779
C121	C	1.077359	-0.044391	0.291257
C122	C	1.025229	-0.087990	0.241734
H123	H	1.077370	-0.283262	0.291251
H124	H	1.168090	-0.207387	0.377435
H125	H	1.168083	-0.055689	0.377439
H126	H	1.077355	0.020140	0.291258
H127	H	0.986635	-0.055734	0.205074
H128	H	0.146338	0.000011	0.271306
C129	C	1.025282	-0.658341	0.241734
C130	C	1.077427	-0.701906	0.291245
C131	C	1.129565	-0.658304	0.340760
C132	C	1.129559	-0.571136	0.340762
C133	C	1.077412	-0.527566	0.291249
C134	C	1.025274	-0.571168	0.241734
H135	H	1.077433	-0.766437	0.291245
H136	H	1.168168	-0.690558	0.377413
H137	H	1.168155	-0.538859	0.377416
H138	H	1.077406	-0.463035	0.291249
H139	H	0.986671	-0.538914	0.205081
H140	H	1.052774	0.000021	-0.516779
H141	H	0.181062	0.000006	0.042444
C142	C	1.025240	-0.341587	0.241734
C143	C	1.115279	-0.330685	0.236531
C144	C	1.167400	-0.374264	0.286058
C145	C	1.129483	-0.428744	0.340789
C146	C	1.039439	-0.439648	0.345995
C147	C	0.987318	-0.396070	0.296468
H148	H	1.143352	-0.290353	0.196013
H149	H	1.234057	-0.366191	0.282204
H150	H	1.168066	-0.461004	0.377452
H151	H	1.011365	-0.479980	0.386513
H152	H	0.920661	-0.404142	0.300322
C153	C	0.303623	0.000025	0.300799
C154	C	0.393560	0.000036	0.307251
C155	C	0.428002	0.000056	0.379855
C156	C	0.372506	0.000065	0.446008
C157	C	0.282563	0.000054	0.439558
C158	C	0.248122	0.000034	0.366954
H159	H	0.434646	0.000029	0.258279
H160	H	0.494583	0.000064	0.384630
H161	H	0.398002	0.000080	0.499754
H162	H	0.241478	0.000060	0.488531
H163	H	0.181540	0.000025	0.362180
H164	H	1.011757	-0.813437	0.228869
H165	H	0.705136	-0.000001	0.023093
H166	H	0.791334	-0.000006	-0.633271
H167	H	0.670412	0.000004	0.251953
H168	H	0.839776	-0.813501	0.065525
