data_functionalizedCrystal
_audit_creation_method	'MofGen! by Chris Wilmer'
_symmetry_space_group_name_H-M	'P1'
_symmetry_Int_Tables_number	1
_symmetry_cell_setting	triclinic
loop_
_symmetry_equiv_pos_as_xyz
  x,y,z
_cell_length_a	14.044209
_cell_length_b	13.101039
_cell_length_c	14.044220
_cell_angle_alpha	93.667477
_cell_angle_beta	86.811585
_cell_angle_gamma	93.659214
loop_
_atom_site_label
_atom_site_type_symbol
_atom_site_fract_x
_atom_site_fract_y
_atom_site_fract_z
O1	O	-1.281968	-0.085094	0.225339
O2	O	-1.005298	-0.085123	0.217034
O3	O	-1.139480	-0.085099	0.082851
O4	O	-1.147787	-0.085118	0.359521
O5	O	-1.129854	0.085329	0.092496
O6	O	-0.995672	0.085305	0.226679
O7	O	-1.272342	0.085334	0.234984
Zn8	Zn	-1.132479	0.112379	0.232362
Zn9	Zn	-1.145161	-0.112168	0.219655
O10	O	-1.138161	0.085310	0.369166
C11	C	-0.964864	0.000087	0.218221
C12	C	-0.858721	0.000077	0.207376
C13	C	-0.664383	0.000096	0.187553
C14	C	-0.613253	0.000094	0.264467
C15	C	-0.505116	0.000105	0.253437
C16	C	-0.772529	0.000085	0.198581
N17	N	-1.123830	0.265626	0.241035
C18	C	-0.312777	0.000118	0.233798
C19	C	-0.418920	0.000114	0.244648
C20	C	-1.131031	0.000115	0.052052
C21	C	-1.120187	0.000115	-0.054091
N22	N	-1.153817	-0.265415	0.210975
C23	C	-1.112064	0.474666	0.252843
C24	C	-1.165580	0.525551	0.199170
C25	C	-1.159033	0.641869	0.205740
C26	C	-1.118610	0.358338	0.246274
C27	C	-1.100361	0.000099	-0.248429
C28	C	-1.177275	0.000103	-0.299560
C29	C	-1.166244	0.000094	-0.407696
C30	C	-1.111391	0.000108	-0.140283
C31	C	-1.146609	0.000093	0.399965
C32	C	-1.157454	0.000087	0.506108
H33	H	-0.626945	0.000106	0.113426
H34	H	-1.026234	0.000088	-0.285866
O35	O	-1.225901	0.473157	0.138358
C36	C	-1.218940	0.367001	0.145096
H37	H	-1.190856	0.352402	0.217306
H38	H	-1.292507	0.326033	0.137913
H39	H	-1.167831	0.336728	0.085518
O40	O	-1.051629	0.527059	0.313532
C41	C	-1.058460	0.633214	0.306653
H42	H	-1.130483	0.647733	0.278101
H43	H	-1.051820	0.674076	0.380335
H44	H	-0.998601	0.663671	0.255962
H45	H	-1.251412	0.000042	-0.262125
H46	H	-0.650693	0.000085	0.338600
