data_functionalizedCrystal
_audit_creation_method	'MofGen! by Chris Wilmer'
_symmetry_space_group_name_H-M	'P1'
_symmetry_Int_Tables_number	1
_symmetry_cell_setting	triclinic
loop_
_symmetry_equiv_pos_as_xyz
  x,y,z
_cell_length_a	14.044220
_cell_length_b	14.971486
_cell_length_c	13.448316
_cell_angle_alpha	89.997568
_cell_angle_beta	89.996227
_cell_angle_gamma	88.401503
loop_
_atom_site_label
_atom_site_type_symbol
_atom_site_fract_x
_atom_site_fract_y
_atom_site_fract_z
O1	O	-1.257957	-0.215658	0.082587
O2	O	-0.981979	-0.207876	0.082612
O3	O	-1.127365	-0.082150	0.082592
O4	O	-1.112571	-0.341384	0.082608
O5	O	-1.127340	-0.082151	-0.082792
O6	O	-0.981955	-0.207878	-0.082771
O7	O	-1.257933	-0.215660	-0.082797
Cu8	Cu	-1.119941	-0.211769	-0.097885
Cu9	Cu	-1.119970	-0.211767	0.097701
O10	O	-1.112547	-0.341386	-0.082776
C11	C	-1.126691	-0.048774	-0.000100
C12	C	-1.124708	0.050680	-0.000098
C13	C	-0.946648	-0.204470	-0.000076
C14	C	-0.841411	-0.194309	-0.000067
C15	C	-1.293263	-0.219065	-0.000106
C16	C	-1.398500	-0.229227	-0.000109
C17	C	-0.648729	-0.175732	-0.000088
C18	C	-0.591177	-0.247799	-0.000088
C19	C	-0.483962	-0.237463	-0.000099
C20	C	-0.755954	-0.186067	-0.000076
C21	C	-1.113220	-0.374762	-0.000083
C22	C	-1.115203	-0.474215	-0.000077
N23	N	-1.119928	-0.211770	-0.235449
C24	C	-1.210119	0.101176	-0.000107
C25	C	-1.208250	0.194623	-0.000097
C26	C	-1.120970	0.237571	-0.000085
C27	C	-1.035554	0.187067	-0.000074
C28	C	-1.037423	0.093623	-0.000077
C29	C	-1.031663	0.381836	-0.000070
C30	C	-1.029793	0.475288	-0.000069
C31	C	-1.202490	0.482837	-0.000090
C32	C	-1.204360	0.389392	-0.000093
C33	C	-1.118942	0.338895	-0.000083
C34	C	-1.184377	-0.156113	-0.712677
C35	C	-1.184370	-0.156118	-0.608573
C36	C	-1.119970	-0.211766	-0.556530
C37	C	-1.055581	-0.267418	-0.608596
C38	C	-1.055594	-0.267417	-0.712698
C39	C	-1.055556	-0.267416	-0.391616
C40	C	-1.055542	-0.267416	-0.287508
C41	C	-1.184332	-0.156117	-0.287492
C42	C	-1.184345	-0.156116	-0.391593
C43	C	-1.119954	-0.211767	-0.443652
N44	N	-1.119991	-0.211759	0.235265
H45	H	-0.622427	-0.317261	-0.000079
F46	F	-1.293398	0.536581	-0.000096
F47	F	-0.940751	0.328096	-0.000057
H48	H	-0.958722	0.510253	-0.000075
H49	H	-1.236815	-0.110795	-0.755043
H50	H	-0.617481	-0.106277	-0.000097
F51	F	-0.942663	0.232778	-0.000050
F52	F	-1.303015	0.055476	-0.000129
F53	F	-1.252897	-0.096895	-0.553169
H54	H	-1.277800	0.235734	-0.000106
H55	H	-1.236761	-0.110805	-0.245100
F56	F	-1.252879	-0.096885	-0.446982
F57	F	-1.297252	0.343685	-0.000103
H58	H	-1.003102	-0.312731	-0.245140
H59	H	-1.003126	-0.312736	-0.433999
H60	H	-0.967873	0.052509	-0.000070
H61	H	-1.003149	-0.312732	-0.566217
F62	F	-0.987068	-0.326646	-0.768101
