data_functionalizedCrystal
_audit_creation_method	'MofGen! by Chris Wilmer'
_symmetry_space_group_name_H-M	'P1'
_symmetry_Int_Tables_number	1
_symmetry_cell_setting	triclinic
loop_
_symmetry_equiv_pos_as_xyz
  x,y,z
_cell_length_a	15.944551
_cell_length_b	15.944551
_cell_length_c	15.455446
_cell_angle_alpha	87.325026
_cell_angle_beta	92.669387
_cell_angle_gamma	83.498738
loop_
_atom_site_label
_atom_site_type_symbol
_atom_site_fract_x
_atom_site_fract_y
_atom_site_fract_z
O1	O	1.110857	0.111999	-0.072041
O2	O	0.866306	0.125357	-0.072063
O3	O	0.995260	-0.003597	-0.072044
O4	O	0.981903	0.240953	-0.072061
O5	O	1.002593	-0.010945	0.072216
O6	O	0.873639	0.118009	0.072197
O7	O	1.118190	0.104652	0.072219
Cu8	Cu	0.996584	0.110659	0.085380
Cu9	Cu	0.987912	0.119349	-0.085224
O10	O	0.989236	0.233606	0.072199
C11	C	0.838678	0.121129	0.000064
C12	C	0.745432	0.119467	0.000056
C13	C	0.998372	-0.038565	0.000086
C14	C	0.996710	-0.131811	0.000087
C15	C	0.530576	0.035561	0.000079
C16	C	0.465941	0.078146	-0.071052
C17	C	0.574706	0.116459	0.000066
C18	C	0.473192	0.070921	0.071177
C19	C	0.409794	0.113547	0.000080
C20	C	0.511296	0.159069	-0.071123
C21	C	0.518557	0.151830	0.071170
C22	C	0.453938	0.194475	0.000022
C23	C	0.669708	0.118134	0.000058
C24	C	0.314793	0.111879	0.000083
C25	C	0.912804	-0.346667	0.000067
C26	C	0.955382	-0.411307	0.071200
C27	C	0.993702	-0.302537	0.000080
C28	C	0.948172	-0.404046	-0.071030
C29	C	0.990791	-0.467449	0.000069
C30	C	1.036305	-0.365952	0.071271
C31	C	1.029080	-0.358681	-0.071022
C32	C	1.071718	-0.423305	0.000128
C33	C	0.995377	-0.207535	0.000086
C34	C	0.989122	-0.562450	0.000069
C35	C	1.145817	0.108880	0.000089
C36	C	1.239063	0.110542	0.000092
C37	C	0.986124	0.268574	0.000067
C38	C	0.987786	0.361820	0.000061
N39	N	1.002689	0.104547	0.205374
N40	N	0.981813	0.125455	-0.205218
C41	C	1.036607	0.070692	0.749373
C42	C	1.031970	0.075325	0.658566
C43	C	0.972535	0.134717	0.613170
C44	C	0.917739	0.189485	0.658585
C45	C	0.922380	0.184856	0.749390
C46	C	0.952534	0.154686	0.341594
C47	C	0.947895	0.159310	0.250782
C48	C	1.062128	0.045150	0.250770
C49	C	1.066761	0.040522	0.341577
C50	C	1.011967	0.095294	0.386984
N51	N	0.967793	0.139452	0.520351
N52	N	1.016715	0.090562	0.479801
H53	H	0.563905	-0.031573	-0.000005
Cl54	Cl	1.175482	-0.474507	0.000195
Cl55	Cl	0.883649	0.223537	0.398671
Cl56	Cl	1.093815	-0.339828	0.164220
H57	H	0.877762	0.229451	0.786361
H58	H	1.060210	-0.335488	-0.131156
Cl59	Cl	0.843023	0.264155	0.601517
Cl60	Cl	0.890604	-0.430336	-0.163869
H61	H	0.899492	0.207677	0.213825
Cl62	Cl	1.111326	-0.003981	0.806433
H63	H	1.106740	0.000558	0.213792
Cl64	Cl	0.402736	0.298238	-0.000043
H65	H	0.442774	0.046993	-0.131183
Cl66	Cl	0.537425	0.216591	-0.164070
H67	H	0.541745	0.182955	0.131304
Cl68	Cl	0.446902	0.013346	0.164020
H69	H	1.076589	0.030733	0.621595
H70	H	0.845659	-0.313362	0.000132
H71	H	0.924222	-0.434478	0.131330
Cl72	Cl	1.141479	-0.034144	0.398647
