data_functionalizedCrystal
_audit_creation_method	'MofGen! by Chris Wilmer'
_symmetry_space_group_name_H-M	'P1'
_symmetry_Int_Tables_number	1
_symmetry_cell_setting	triclinic
loop_
_symmetry_equiv_pos_as_xyz
  x,y,z
_cell_length_a	19.902436
_cell_length_b	16.704494
_cell_length_c	16.704494
_cell_angle_alpha	60.174809
_cell_angle_beta	90.002171
_cell_angle_gamma	63.423786
loop_
_atom_site_label
_atom_site_type_symbol
_atom_site_fract_x
_atom_site_fract_y
_atom_site_fract_z
Zr1	Zr	0.690682	0.863810	-0.142390
O2	O	0.595609	1.017949	-0.271832
O3	O	0.714604	0.701023	-0.097055
O4	O	0.728259	0.851321	-0.263665
O5	O	0.577124	0.880519	0.019770
O6	O	0.838837	0.851306	-0.263654
O7	O	0.581954	0.867652	-0.105223
O8	O	0.814411	0.582451	0.034380
O9	O	0.601550	1.149374	-0.278264
O10	O	0.813640	0.771172	-0.084543
O11	O	0.727512	0.780786	0.008729
O12	O	0.743589	0.957742	-0.187432
O13	O	0.657461	0.967355	-0.094160
Zr14	Zr	0.859337	0.884309	0.056976
Zr15	Zr	0.867041	0.863787	-0.142373
Zr16	Zr	0.682978	0.884332	0.056959
Zr17	Zr	0.700157	1.073418	-0.152648
Zr18	Zr	0.849862	0.674702	0.067234
O19	O	0.835415	1.047096	0.011641
O20	O	0.846368	1.017916	-0.271808
O21	O	0.584655	1.047129	0.011617
O22	O	0.954410	0.730170	0.186418
O23	O	0.965363	0.700990	-0.097031
O24	O	0.703650	0.730203	0.186394
O25	O	0.972895	0.867600	-0.105184
O26	O	0.821760	0.896799	0.178251
O27	O	0.711182	0.896813	0.178240
O28	O	0.968065	0.880468	0.019809
O29	O	0.741732	1.149356	-0.278250
O30	O	0.808287	0.598764	0.192836
O31	O	0.948469	0.598745	0.192850
O32	O	0.954592	0.582433	0.034394
O33	O	0.595427	1.165686	-0.119808
O34	O	0.735608	1.165668	-0.119794
O35	O	0.806430	0.790378	0.102018
O36	O	0.892558	0.780764	0.008746
O37	O	0.822507	0.967334	-0.094143
O38	O	0.736379	0.976947	-0.000871
C39	C	0.763157	0.611873	-0.029876
C40	C	0.759135	0.522889	-0.025521
C41	C	0.841513	0.345626	-0.114709
C42	C	0.837735	0.262018	-0.110620
C43	C	0.747808	0.272056	-0.013249
C44	C	0.751585	0.355665	-0.017338
C45	C	0.798438	0.392448	-0.068071
C46	C	0.802211	0.476063	-0.072165
C47	C	0.712288	0.486095	0.025211
C48	C	0.708511	0.402486	0.029300
C49	C	0.554412	0.874089	-0.042729
C50	C	0.479543	0.874098	-0.042736
C51	C	0.207537	0.874047	-0.042697
C52	C	0.191827	0.991767	-0.107320
C53	C	0.269681	0.991811	-0.107649
C54	C	0.342482	0.874073	-0.042717
C55	C	0.338951	0.808199	-0.082620
C56	C	0.260776	0.808945	-0.083092
C57	C	0.256050	0.821317	0.061898
C58	C	0.333082	0.823627	0.061628
C59	C	0.418749	0.874081	-0.042727
C60	C	0.131271	0.874034	-0.042691
C61	C	0.995607	0.874031	-0.042685
C62	C	1.070476	0.874021	-0.042678
C63	C	0.784646	0.848390	-0.292063
C64	C	0.787916	0.839678	-0.376692
C65	C	0.786861	1.136247	-0.055538
C66	C	0.790884	1.225231	-0.059893
C67	C	0.720934	1.018103	-0.643145
C68	C	0.724006	1.009922	-0.722665
C69	C	0.797134	0.815136	-0.615251
C70	C	0.794063	0.823317	-0.535732
C71	C	0.755961	0.924804	-0.549684
C72	C	0.752885	0.932983	-0.470163
C73	C	0.826018	0.738199	-0.362751
C74	C	0.829089	0.730018	-0.442271
C75	C	0.765373	0.899730	0.206649
C76	C	0.762103	0.908442	0.291278
C77	C	0.983755	0.611844	-0.029854
C78	C	1.054602	0.522850	-0.025492
C79	C	0.753521	0.637543	0.219480
C80	C	0.746228	0.557271	0.308463
C81	C	0.974119	0.637514	0.219501
C82	C	1.041695	0.557232	0.308492
C83	C	0.575900	1.110606	-0.304915
C84	C	0.508324	1.190887	-0.393906
C85	C	0.566264	1.136276	-0.055560
C86	C	0.495417	1.225269	-0.059922
C87	C	0.796498	1.110577	-0.304893
C88	C	0.803791	1.190848	-0.393877
C89	C	1.046678	0.476050	-0.072148
C90	C	1.113240	0.392441	-0.068068
C91	C	1.187725	0.355628	-0.017327
C92	C	1.195647	0.402437	0.029330
C93	C	1.129086	0.486049	0.025244
C94	C	0.783998	0.524582	0.398955
C95	C	0.777142	0.449171	0.482572
C96	C	0.732522	0.406444	0.475695
C97	C	0.694748	0.439140	0.385193
C98	C	0.701599	0.514556	0.301578
C99	C	1.118395	0.514513	0.301596
C100	C	1.181897	0.439091	0.385205
C101	C	1.168698	0.406384	0.475708
C102	C	1.091990	0.449111	0.482602
C103	C	1.028490	0.524538	0.398995
C104	C	0.431625	1.233616	-0.387011
C105	C	0.368124	1.309065	-0.470620
C106	C	0.381323	1.341776	-0.561124
C107	C	0.458030	1.299043	-0.568018
C108	C	0.521530	1.223602	-0.484410
C109	C	0.503342	1.272077	-0.013275
C110	C	0.436782	1.355708	-0.017377
C111	C	0.362297	1.392523	-0.068122
C112	C	0.354374	1.345711	-0.114775
C113	C	0.420934	1.262087	-0.110677
C114	C	0.848417	1.233552	-0.386969
C115	C	0.855285	1.308966	-0.470570
C116	C	0.817521	1.341680	-0.561079
C117	C	0.772893	1.298968	-0.567985
C118	C	0.766030	1.223550	-0.484385
H119	H	0.153750	1.043287	-0.081061
H120	H	1.081255	0.422470	0.556302
H121	H	0.272992	1.032613	-0.184897
H122	H	0.986035	0.506020	-0.113479
H123	H	0.879170	1.206929	-0.313280
N124	N	1.131903	0.547895	0.209164
N125	N	1.200395	0.509735	0.203037
H126	H	1.209943	0.533308	0.137759
N127	N	0.148123	1.042772	-0.203654
N128	N	0.128496	0.992799	-0.224923
H129	H	0.097635	1.028815	-0.292961
H130	H	0.293720	1.375699	-0.156090
N131	N	0.699939	0.234496	0.038556
N132	N	0.627737	0.297711	0.014693
H133	H	0.593926	0.271189	0.051279
H134	H	0.872812	0.223896	-0.148596
H135	H	0.726950	0.345037	0.543787
N136	N	0.660643	0.364933	0.081113
N137	N	0.622182	0.406756	0.122744
H138	H	0.588371	0.380238	0.159336
N139	N	0.950149	0.568158	0.406064
N140	N	0.938384	0.538937	0.486882
H141	H	0.883056	0.569741	0.491883
H142	H	0.891624	1.343735	-0.464929
N143	N	0.412816	1.214275	-0.158316
N144	N	0.373195	1.169774	-0.135380
H145	H	0.367455	1.136009	-0.169028
H146	H	0.443248	1.393809	0.020617
N147	N	0.599869	1.179952	-0.491479
N148	N	0.620323	1.129047	-0.530698
H149	H	0.675649	1.098222	-0.535699
H150	H	0.742147	1.325616	-0.641689
H151	H	0.677211	0.524230	0.063183
N152	N	1.271729	0.364839	0.081162
N153	N	1.296485	0.428018	0.057336
H154	H	1.350219	0.401460	0.093947
N155	N	1.260240	0.395467	0.378132
N156	N	1.272007	0.424675	0.297316
H157	H	1.327335	0.393867	0.292317
N158	N	0.269542	1.056016	-0.074500
N159	N	0.211809	1.101108	-0.050962
H160	H	0.211705	1.146458	-0.027552
N161	N	0.294302	1.477931	-0.072299
N162	N	0.227799	1.510794	-0.117602
H163	H	0.179778	1.571112	-0.120548
H164	H	0.229093	0.844929	-0.159921
N165	N	0.824545	1.418716	-0.646461
N166	N	0.864395	1.456831	-0.640269
H167	H	0.869358	1.511240	-0.700567
N168	N	0.861807	0.642885	-0.267280
N169	N	0.933742	0.576743	-0.240186
H170	H	0.959014	0.509427	-0.172761
N171	N	1.105122	0.344649	-0.115735
N172	N	1.038610	0.377526	-0.161024
H173	H	1.032874	0.343776	-0.194690
H174	H	1.135549	0.524145	0.063243
N175	N	1.255694	0.270196	-0.013154
N176	N	1.308412	0.285540	-0.045575
H177	H	1.356404	0.225192	-0.042629
H178	H	0.729687	1.188789	-0.490023
N179	N	0.316464	1.418837	-0.646534
N180	N	0.310718	1.506261	-0.708337
H181	H	0.264910	1.560684	-0.768657
N182	N	0.471492	1.332479	-0.660477
N183	N	0.414782	1.399835	-0.735111
H184	H	0.424287	1.423449	-0.800414
N185	N	0.829564	0.568243	0.405977
N186	N	0.835679	0.635584	0.331324
H187	H	0.867857	0.666422	0.336288
N188	N	0.418116	1.200220	-0.294577
N189	N	0.349624	1.238396	-0.288452
H190	H	0.340076	1.214819	-0.223173
H191	H	0.721857	1.015619	-0.481526
N192	N	0.397749	0.716427	0.126508
N193	N	0.412262	0.645273	0.110999
H194	H	0.457936	0.569559	0.156816
N195	N	1.233566	0.329313	0.561108
N196	N	1.239312	0.241886	0.622902
H197	H	1.285128	0.187449	0.683214
N198	N	0.289781	1.352695	-0.463548
N199	N	0.278013	1.323464	-0.382731
H200	H	0.222685	1.354275	-0.377732
N201	N	0.277967	0.700198	-0.027478
N202	N	0.317136	0.636885	-0.051199
H203	H	0.329279	0.560083	-0.011928
N204	N	0.850061	0.513637	-0.124002
N205	N	0.888514	0.471822	-0.165642
H206	H	0.922309	0.498356	-0.202255
N207	N	0.815749	0.415779	0.575001
N208	N	0.888677	0.371559	0.600995
H209	H	0.915945	0.347977	0.666271
H210	H	0.879656	0.375583	-0.156026
N211	N	0.649174	0.395479	0.378194
N212	N	0.643074	0.328141	0.452865
H213	H	0.610891	0.297298	0.447926
N214	N	0.663012	0.547928	0.209152
N215	N	0.623178	0.509762	0.203037
H216	H	0.595922	0.533328	0.137762
H217	H	0.390080	0.721353	-0.037560
H218	H	0.563985	1.242110	0.028053
H219	H	0.220142	0.864607	0.095805
N220	N	0.346889	0.852211	-0.178055
N221	N	0.298182	0.947725	-0.243594
H222	H	0.303783	0.978818	-0.310998
N223	N	0.333597	0.883995	0.099074
N224	N	0.391976	0.892542	0.108032
H225	H	0.392339	0.935187	0.134470
N226	N	0.273681	0.712650	0.122507
N227	N	0.250667	0.674085	0.088942
H228	H	0.263090	0.597355	0.131748
H229	H	0.689902	1.100737	-0.654506
H230	H	0.828164	0.732511	-0.603909
N231	N	0.688228	1.105235	-0.818127
N232	N	0.654216	1.195836	-0.830564
H233	H	0.628948	1.263156	-0.897986
H234	H	0.860113	0.647391	-0.430924
