data_functionalizedCrystal
_audit_creation_method	'MofGen! by Chris Wilmer'
_symmetry_space_group_name_H-M	'P1'
_symmetry_Int_Tables_number	1
_symmetry_cell_setting	triclinic
loop_
_symmetry_equiv_pos_as_xyz
  x,y,z
_cell_length_a	12.827893
_cell_length_b	12.827892
_cell_length_c	18.215399
_cell_angle_alpha	90.024028
_cell_angle_beta	90.017704
_cell_angle_gamma	90.015362
loop_
_atom_site_label
_atom_site_type_symbol
_atom_site_fract_x
_atom_site_fract_y
_atom_site_fract_z
Zn1	Zn	1.597653	-0.416045	0.416094
Zn2	Zn	1.930987	-0.082711	0.749427
Zn3	Zn	2.264320	0.250622	1.082761
Zn4	Zn	1.597552	-0.590804	0.293036
Zn5	Zn	1.930886	-0.257470	0.626370
Zn6	Zn	2.264219	0.075863	0.959703
Zn7	Zn	1.422900	-0.416077	0.293046
Zn8	Zn	1.756233	-0.082744	0.626379
Zn9	Zn	2.089566	0.250589	0.959713
Zn10	Zn	1.422880	-0.590744	0.416066
Zn11	Zn	1.756213	-0.257411	0.749399
Zn12	Zn	2.089547	0.075922	1.082732
O13	O	1.510246	-0.503417	0.354561
O14	O	1.843580	-0.170084	0.687894
O15	O	2.176913	0.163249	1.021227
O16	O	1.743876	-0.439238	0.399778
O17	O	2.077209	-0.105905	0.733111
O18	O	2.410543	0.227429	1.066445
O19	O	1.574350	-0.567665	0.190053
O20	O	1.907683	-0.234331	0.523387
O21	O	2.241017	0.099002	0.856720
O22	O	1.446132	-0.269837	0.309385
O23	O	1.779465	0.063496	0.642718
O24	O	2.112798	0.396830	0.976051
O25	O	1.743802	-0.567633	0.309368
O26	O	2.077135	-0.234300	0.642701
O27	O	2.410468	0.099034	0.976035
O28	O	1.574522	-0.269813	0.399788
O29	O	1.907856	0.063520	0.733121
O30	O	2.241189	0.396854	1.066454
O31	O	1.446034	-0.439294	0.190060
O32	O	1.779367	-0.105960	0.523394
O33	O	2.112700	0.227373	0.856727
O34	O	1.276661	-0.439236	0.309357
O35	O	1.609994	-0.105903	0.642690
O36	O	1.943328	0.227431	0.976024
O37	O	1.446098	-0.567531	0.519054
O38	O	1.779432	-0.234198	0.852387
O39	O	2.112765	0.099135	1.185720
O40	O	1.276647	-0.567563	0.399739
O41	O	1.609980	-0.234230	0.733072
O42	O	1.943313	0.099104	1.066406
O43	O	1.574504	-0.439180	0.519075
O44	O	1.907837	-0.105847	0.852408
O45	O	2.241170	0.227486	1.185741
O46	O	1.574331	-0.737032	0.309340
O47	O	1.907665	-0.403699	0.642674
O48	O	2.240998	-0.070365	0.976007
O49	O	1.446000	-0.736988	0.399730
O50	O	1.779334	-0.403655	0.733063
O51	O	2.112667	-0.070321	1.066396
C52	C	1.238736	-0.503397	0.354547
C53	C	1.572070	-0.170064	0.687880
C54	C	1.905403	0.163269	1.021213
C55	C	1.122583	-0.503414	0.354558
C56	C	1.455917	-0.170081	0.687891
C57	C	1.789250	0.163253	1.021225
C58	C	0.950734	-0.439848	0.309926
C59	C	1.284067	-0.106515	0.643260
C60	C	1.617400	0.226819	0.976593
C61	C	1.070784	-0.439829	0.309913
C62	C	1.404117	-0.106496	0.643247
C63	C	1.737451	0.226837	0.976580
C64	C	1.510181	-0.774927	0.354547
C65	C	1.843514	-0.441594	0.687880
C66	C	2.176848	-0.108261	1.021214
C67	C	1.510249	-0.891081	0.354566
C68	C	1.843582	-0.557747	0.687899
C69	C	2.176915	-0.224414	1.021232
C70	C	1.573752	-0.942770	0.399340
C71	C	1.907086	-0.609437	0.732673
C72	C	2.240419	-0.276103	1.066007
C73	C	1.573824	-1.062820	0.399361
C74	C	1.907157	-0.729487	0.732694
C75	C	2.240490	-0.396154	1.066027
C76	C	1.782816	-0.503438	0.354575
C77	C	2.116150	-0.170105	0.687908
C78	C	2.449483	0.163228	1.021242
C79	C	1.898970	-0.503447	0.354581
C80	C	2.232303	-0.170114	0.687915
C81	C	2.565636	0.163219	1.021248
C82	C	1.510310	-0.503345	0.546514
C83	C	1.843643	-0.170012	0.879847
C84	C	2.176977	0.163321	1.213180
C85	C	1.510337	-0.503315	0.628312
C86	C	1.843670	-0.169981	0.961646
C87	C	2.177004	0.163352	1.294979
C88	C	1.510340	-0.230847	0.354590
C89	C	1.843674	0.102486	0.687924
C90	C	2.177007	0.435819	1.021257
C91	C	1.510381	-0.114694	0.354603
C92	C	1.843714	0.218639	0.687936
C93	C	2.177047	0.551972	1.021270
C94	C	1.510243	-0.503414	0.163354
C95	C	1.843576	-0.170081	0.496688
C96	C	2.176910	0.163253	0.830021
C97	C	1.510418	-0.503150	0.081556
C98	C	1.843752	-0.169817	0.414889
C99	C	2.177085	0.163517	0.748222
C100	C	1.577222	-0.436420	0.816519
C101	C	1.910555	-0.103087	1.149852
C102	C	2.243888	0.230247	1.483185
C103	C	1.577234	-0.436389	0.893377
C104	C	1.910568	-0.103056	1.226711
C105	C	2.243901	0.230277	1.560044
C106	C	1.443526	-0.570048	0.893344
C107	C	1.776860	-0.236715	1.226678
C108	C	2.110193	0.096619	1.560011
C109	C	1.443509	-0.570072	0.816487
C110	C	1.776843	-0.236739	1.149820
C111	C	2.110176	0.096594	1.483154
C112	C	1.510363	-0.503260	0.778076
C113	C	1.843696	-0.169927	1.111409
C114	C	2.177030	0.163407	1.444743
C115	C	1.510392	-0.503205	0.931792
C116	C	1.843726	-0.169872	1.265126
C117	C	2.177059	0.163462	1.598459
C118	C	1.510406	-0.503173	1.015126
C119	C	1.843739	-0.169839	1.348459
C120	C	2.177072	0.163494	1.681793
C121	C	1.510349	-0.503291	0.694737
C122	C	1.843682	-0.169957	1.028070
C123	C	2.177016	0.163376	1.361404
H124	H	0.906174	-0.385408	0.271708
H125	H	1.239508	-0.052075	0.605041
H126	H	1.572841	0.281259	0.938375
H127	H	1.628195	-1.107272	0.437691
H128	H	1.961529	-0.773939	0.771024
H129	H	2.294862	-0.440606	1.104358
H130	H	1.115300	-0.385383	0.271680
H131	H	1.448634	-0.052050	0.605013
H132	H	1.781967	0.281283	0.938347
H133	H	1.456013	-1.070250	0.316265
H134	H	1.789347	-0.736917	0.649598
H135	H	2.122680	-0.403583	0.982932
H136	H	1.389099	-0.624447	0.924628
H137	H	1.722432	-0.291113	1.257961
H138	H	2.055766	0.042220	1.591295
H139	H	1.631655	-0.382014	0.785247
H140	H	1.964989	-0.048681	1.118580
H141	H	2.298322	0.284653	1.451913
H142	H	1.455929	-0.935704	0.316251
H143	H	1.789262	-0.602371	0.649585
H144	H	2.122595	-0.269037	0.982918
C145	C	1.650784	-0.362870	0.935661
C146	C	1.984117	-0.029537	1.268994
C147	C	2.317450	0.303796	1.602328
H148	H	1.690599	-0.323091	0.901775
H149	H	2.023933	0.010242	1.235108
H150	H	2.357266	0.343575	1.568442
H151	H	1.610834	-0.317323	0.965645
H152	H	1.944167	0.016010	1.298978
H153	H	2.277501	0.349344	1.632311
H154	H	1.696312	-0.402846	0.965642
H155	H	2.029645	-0.069513	1.298975
H156	H	2.362979	0.263821	1.632309
C157	C	1.062466	-0.576953	0.406228
C158	C	1.395799	-0.243620	0.739561
C159	C	1.729133	0.089713	1.072894
H160	H	1.110538	-0.616840	0.434237
H161	H	1.443871	-0.283506	0.767571
H162	H	1.777204	0.049827	1.100904
H163	H	1.019923	-0.536982	0.438311
H164	H	1.353257	-0.203649	0.771645
H165	H	1.686590	0.129684	1.104978
H166	H	1.019853	-0.622417	0.378011
H167	H	1.353187	-0.289083	0.711344
H168	H	1.686520	0.044250	1.044678
H169	H	1.389058	-0.624501	0.785186
H170	H	1.722391	-0.291167	1.118520
H171	H	2.055724	0.042166	1.451853
H172	H	0.943529	-0.557879	0.392806
H173	H	1.276862	-0.224545	0.726139
H174	H	1.610196	0.108788	1.059473
H175	H	1.628064	-0.898149	0.437661
H176	H	1.961397	-0.564816	0.770995
H177	H	2.294731	-0.231482	1.104328
