data_functionalizedCrystal
_audit_creation_method	'MofGen! by Chris Wilmer'
_symmetry_space_group_name_H-M	'P1'
_symmetry_Int_Tables_number	1
_symmetry_cell_setting	triclinic
loop_
_symmetry_equiv_pos_as_xyz
  x,y,z
_cell_length_a	10.654556
_cell_length_b	9.130313
_cell_length_c	10.654550
_cell_angle_alpha	89.995631
_cell_angle_beta	84.486234
_cell_angle_gamma	89.998135
loop_
_atom_site_label
_atom_site_type_symbol
_atom_site_fract_x
_atom_site_fract_y
_atom_site_fract_z
O1	O	1.667835	-0.121744	0.176437
O2	O	1.302357	-0.121759	0.193235
O3	O	1.493499	-0.121742	0.002097
O4	O	1.476693	-0.121761	0.367575
O5	O	1.493486	0.121857	0.002091
O6	O	1.302344	0.121840	0.193229
O7	O	1.667822	0.121855	0.176431
Cu8	Cu	1.485082	0.144090	0.184830
Cu9	Cu	1.485097	-0.143994	0.184836
O10	O	1.476680	0.121838	0.367569
C11	C	1.255553	0.000039	0.191997
C12	C	1.116110	0.000033	0.188302
N13	N	1.485080	0.346713	0.184824
N14	N	1.485109	-0.346616	0.184832
C15	C	0.919572	-0.132741	0.183102
C16	C	1.050594	-0.132750	0.186566
C17	C	1.050598	0.132835	0.186560
C18	C	0.919580	0.132843	0.183087
C19	C	1.714626	0.000054	0.177669
C20	C	1.854069	0.000050	0.181364
C21	C	1.569746	0.423372	0.100224
C22	C	1.569758	0.576709	0.100225
C23	C	1.400433	0.576714	0.269436
C24	C	1.400416	0.423380	0.269428
C25	C	1.492258	0.000057	-0.044704
C26	C	1.488567	0.000055	-0.184147
C27	C	1.601108	0.000059	-0.263630
C28	C	1.597631	0.000041	-0.394651
C29	C	1.369063	0.000021	-0.366693
C30	C	1.372540	0.000028	-0.235675
C31	C	1.477920	0.000036	0.414370
C32	C	1.481612	0.000029	0.553813
H33	H	1.103921	-0.240882	0.187979
O34	O	1.309082	0.340677	0.360666
H35	H	1.362459	0.270778	0.422190
O36	O	1.661021	0.340670	0.008946
H37	H	1.722522	0.270782	0.062359
O38	O	1.121251	0.276058	0.188440
H39	H	1.223361	0.253747	0.191163
O40	O	1.661091	0.659379	0.008980
H41	H	1.607716	0.729245	-0.052571
H42	H	1.331504	0.639151	0.338320
H43	H	0.866237	-0.240869	0.181698
O44	O	0.848914	0.276073	0.181220
H45	H	0.916474	0.368411	0.183022
H46	H	1.689274	0.000041	-0.459362
H47	H	1.274598	0.000002	-0.408664
O48	O	1.726243	0.000057	-0.208047
H49	H	1.803915	0.000038	-0.285334
H50	H	1.280890	0.000021	-0.170956
