data_functionalizedCrystal
_audit_creation_method	'MofGen! by Chris Wilmer'
_symmetry_space_group_name_H-M	'P1'
_symmetry_Int_Tables_number	1
_symmetry_cell_setting	triclinic
loop_
_symmetry_equiv_pos_as_xyz
  x,y,z
_cell_length_a	13.897449
_cell_length_b	13.897441
_cell_length_c	10.685194
_cell_angle_alpha	85.599334
_cell_angle_beta	94.377705
_cell_angle_gamma	89.976606
loop_
_atom_site_label
_atom_site_type_symbol
_atom_site_fract_x
_atom_site_fract_y
_atom_site_fract_z
Zn1	Zn	1.445333	-0.516007	-0.502344
Zn2	Zn	1.695333	-0.266007	-0.252344
Zn3	Zn	1.945333	-0.016007	-0.002344
Zn4	Zn	2.195333	0.233993	0.247656
Zn5	Zn	1.432888	-0.342338	-0.713404
Zn6	Zn	1.682888	-0.092338	-0.463404
Zn7	Zn	1.932888	0.157662	-0.213404
Zn8	Zn	2.182888	0.407662	0.036596
Zn9	Zn	1.284019	-0.354714	-0.502403
Zn10	Zn	1.534019	-0.104714	-0.252403
Zn11	Zn	1.784019	0.145286	-0.002403
Zn12	Zn	2.034019	0.395286	0.247597
Zn13	Zn	1.271669	-0.503588	-0.713319
Zn14	Zn	1.521669	-0.253588	-0.463319
Zn15	Zn	1.771669	-0.003588	-0.213319
Zn16	Zn	2.021669	0.246412	0.036681
O17	O	1.358477	-0.429162	-0.607868
O18	O	1.608477	-0.179162	-0.357868
O19	O	1.858477	0.070838	-0.107868
O20	O	2.108477	0.320838	0.142132
O21	O	1.578663	-0.492987	-0.530353
O22	O	1.828663	-0.242987	-0.280353
O23	O	2.078663	0.007013	-0.030353
O24	O	2.328663	0.257013	0.219647
O25	O	1.413100	-0.208994	-0.685474
O26	O	1.663100	0.041006	-0.435474
O27	O	1.913100	0.291006	-0.185474
O28	O	2.163100	0.541006	0.064526
O29	O	1.315794	-0.386487	-0.325796
O30	O	1.565794	-0.136487	-0.075796
O31	O	1.815794	0.113513	0.174204
O32	O	2.065794	0.363513	0.424204
O33	O	1.569520	-0.365393	-0.685417
O34	O	1.819520	-0.115393	-0.435417
O35	O	2.069520	0.134607	-0.185417
O36	O	2.319520	0.384607	0.064583
O37	O	1.434311	-0.504988	-0.325754
O38	O	1.684311	-0.254988	-0.075754
O39	O	1.934311	-0.004988	0.174246
O40	O	2.184311	0.245012	0.424246
O41	O	1.303726	-0.218087	-0.530452
O42	O	1.553726	0.031913	-0.280452
O43	O	1.803726	0.281913	-0.030452
O44	O	2.053726	0.531913	0.219548
O45	O	1.147400	-0.374445	-0.530370
O46	O	1.397400	-0.124445	-0.280370
O47	O	1.647400	0.125555	-0.030370
O48	O	1.897400	0.375555	0.219630
O49	O	1.294747	-0.640221	-0.685273
O50	O	1.544747	-0.390221	-0.435273
O51	O	1.794747	-0.140221	-0.185273
O52	O	2.044747	0.109779	0.064727
O53	O	1.138327	-0.483822	-0.685330
O54	O	1.388327	-0.233822	-0.435330
O55	O	1.638327	0.016178	-0.185330
O56	O	1.888327	0.266178	0.064670
O57	O	1.422337	-0.649345	-0.530271
O58	O	1.672337	-0.399345	-0.280271
O59	O	1.922337	-0.149345	-0.030271
O60	O	2.172337	0.100655	0.219729
O61	O	1.401125	-0.353351	-0.889991
O62	O	1.651125	-0.103351	-0.639991
O63	O	1.901125	0.146649	-0.389991
O64	O	2.151125	0.396649	-0.139991
O65	O	1.282679	-0.471821	-0.889929
O66	O	1.532679	-0.221821	-0.639929
O67	O	1.782679	0.028179	-0.389929
O68	O	2.032679	0.278179	-0.139929
C69	C	1.107864	-0.429129	-0.607848
C70	C	1.357864	-0.179129	-0.357848
C71	C	1.607864	0.070871	-0.107848
C72	C	1.857864	0.320871	0.142152
C73	C	1.000649	-0.429136	-0.607870
C74	C	1.250649	-0.179136	-0.357870
C75	C	1.500649	0.070864	-0.107870
C76	C	1.750649	0.320864	0.142130
C77	C	0.913579	-0.429152	-0.607874
C78	C	1.163579	-0.179152	-0.357874
C79	C	1.413579	0.070848	-0.107874
C80	C	1.663579	0.320848	0.142126
C81	C	0.804346	-0.429181	-0.607883
C82	C	1.054346	-0.179181	-0.357883
C83	C	1.304346	0.070819	-0.107883
C84	C	1.554346	0.320819	0.142117
C85	C	1.358552	-0.680761	-0.607756
C86	C	1.608552	-0.430761	-0.357756
C87	C	1.858552	-0.180761	-0.107756
C88	C	2.108552	0.069239	0.142244
C89	C	1.358584	-0.787978	-0.607708
C90	C	1.608584	-0.537978	-0.357708
C91	C	1.858584	-0.287978	-0.107708
C92	C	2.108584	-0.037978	0.142292
C93	C	1.358615	-0.984278	-0.607623
C94	C	1.608615	-0.734278	-0.357623
C95	C	1.858615	-0.484278	-0.107623
C96	C	2.108615	-0.234278	0.142377
C97	C	1.358595	-0.875043	-0.607674
C98	C	1.608595	-0.625043	-0.357674
C99	C	1.858595	-0.375043	-0.107674
C100	C	2.108595	-0.125043	0.142326
C101	C	1.610069	-0.429195	-0.607888
C102	C	1.860069	-0.179195	-0.357888
C103	C	2.110069	0.070805	-0.107888
C104	C	2.360069	0.320805	0.142112
C105	C	1.717282	-0.429209	-0.607897
C106	C	1.967282	-0.179209	-0.357897
C107	C	2.217282	0.070791	-0.107897
C108	C	2.467282	0.320791	0.142103
C109	C	1.339237	-0.409916	-0.935750
C110	C	1.589237	-0.159916	-0.685750
C111	C	1.839237	0.090084	-0.435750
C112	C	2.089237	0.340084	-0.185750
C113	C	1.331095	-0.401715	-1.076020
C114	C	1.581095	-0.151715	-0.826020
C115	C	1.831095	0.098285	-0.576020
C116	C	2.081095	0.348285	-0.326020
C117	C	1.358463	-0.178546	-0.607888
C118	C	1.608463	0.071454	-0.357888
C119	C	1.858463	0.321454	-0.107888
C120	C	2.108463	0.571454	0.142112
C121	C	1.358639	-0.071351	-0.607580
C122	C	1.608639	0.178649	-0.357580
C123	C	1.858639	0.428649	-0.107580
C124	C	2.108639	0.678649	0.142420
C125	C	1.377819	-0.448503	-0.278705
C126	C	1.627819	-0.198503	-0.028705
C127	C	1.877819	0.051497	0.221295
C128	C	2.127819	0.301497	0.471295
C129	C	1.386061	-0.456746	-0.138435
C130	C	1.636061	-0.206746	0.111565
C131	C	1.886061	0.043254	0.361565
C132	C	2.136061	0.293254	0.611565
H133	H	1.277797	-0.348331	-1.129893
H134	H	1.527797	-0.098331	-0.879893
H135	H	1.777797	0.151669	-0.629893
H136	H	2.027797	0.401669	-0.379893
H137	H	1.439354	-0.510142	-1.084556
H138	H	1.689354	-0.260142	-0.834556
H139	H	1.939354	-0.010142	-0.584556
H140	H	2.189354	0.239858	-0.334556
