data_functionalizedCrystal
_audit_creation_method	'MofGen! by Chris Wilmer'
_symmetry_space_group_name_H-M	'P1'
_symmetry_Int_Tables_number	1
_symmetry_cell_setting	triclinic
loop_
_symmetry_equiv_pos_as_xyz
  x,y,z
_cell_length_a	16.109301
_cell_length_b	12.376457
_cell_length_c	16.109301
_cell_angle_alpha	78.728360
_cell_angle_beta	83.461481
_cell_angle_gamma	101.287118
loop_
_atom_site_label
_atom_site_type_symbol
_atom_site_fract_x
_atom_site_fract_y
_atom_site_fract_z
O1	O	1.119069	0.093935	0.090939
O2	O	0.877010	0.093954	0.104235
O3	O	1.004687	0.093933	-0.023442
O4	O	0.991392	0.093957	0.218616
O5	O	0.972779	-0.094074	0.008434
O6	O	0.845102	-0.094053	0.136111
O7	O	1.087161	-0.094071	0.122815
Zn8	Zn	0.961065	-0.123912	0.134524
Zn9	Zn	1.003105	0.123795	0.092526
O10	O	0.959484	-0.094050	0.250492
C11	C	0.830081	-0.000047	0.119634
C12	C	0.737787	-0.000041	0.118018
N13	N	0.932380	-0.292966	0.163185
C14	C	0.515514	-0.000047	0.190026
C15	C	0.428792	-0.000054	0.188503
C16	C	0.448665	-0.000064	0.037016
C17	C	0.535383	-0.000065	0.038541
C18	C	0.568806	-0.000050	0.115048
C19	C	0.395366	-0.000057	0.112000
C20	C	0.301339	-0.000065	0.110348
C21	C	0.662839	-0.000045	0.116700
C22	C	1.098385	-0.647978	-0.002692
C23	C	1.118457	-0.529642	-0.022753
C24	C	1.071939	-0.470467	0.023730
C25	C	1.005346	-0.529640	0.090277
C26	C	0.985277	-0.647988	0.110344
C27	C	0.958831	-0.470477	0.136766
C28	C	0.892238	-0.529650	0.203313
C29	C	0.872172	-0.647987	0.223376
C30	C	0.918689	-0.707162	0.176894
C31	C	0.978901	-0.352129	0.116699
C32	C	0.865793	-0.352139	0.229735
C33	C	0.845721	-0.470476	0.249796
C34	C	1.134090	-0.000068	0.107415
C35	C	1.226385	-0.000067	0.109030
C36	C	0.988194	-0.000071	-0.038479
C37	C	0.986579	-0.000073	-0.130774
N38	N	1.031797	0.292848	0.063858
C39	C	1.058589	-0.000060	-0.353049
C40	C	1.057066	-0.000051	-0.439771
C41	C	0.905579	-0.000044	-0.419897
C42	C	0.907103	-0.000045	-0.333178
C43	C	0.983610	-0.000059	-0.299756
C44	C	0.980563	-0.000048	-0.473197
C45	C	0.978911	-0.000038	-0.567224
C46	C	0.985262	-0.000067	-0.205722
C47	C	0.975977	-0.000044	0.265528
C48	C	0.977594	-0.000035	0.357822
H49	H	0.385404	-0.000053	0.249559
N50	N	0.823060	-0.000040	-0.455940
H51	H	0.830875	0.069652	-0.503291
H52	H	0.807266	-0.069783	-0.479613
H53	H	0.421440	-0.000083	-0.025271
N54	N	0.826231	-0.000036	-0.275691
H55	H	0.777532	-0.000035	-0.310021
H56	H	0.811738	-0.069731	-0.227464
H57	H	0.542722	-0.000043	0.252324
N58	N	0.592869	-0.000082	-0.042329
H59	H	0.558540	-0.000085	-0.091028
H60	H	0.641111	0.069610	-0.056813
H61	H	1.120885	-0.000069	-0.325839
H62	H	1.033121	-0.303961	0.062517
N63	N	1.190274	-0.465823	-0.094524
H64	H	1.235400	-0.416719	-0.071061
H65	H	1.216628	-0.521337	-0.120898
N66	N	1.093584	-0.342833	0.002096
H67	H	1.142827	-0.314326	-0.047115
H68	H	1.041890	-0.314432	-0.014811
N69	N	1.148551	-0.711810	-0.052811
H70	H	1.108466	-0.760925	-0.081304
H71	H	1.193780	-0.656306	-0.097971
N72	N	0.897038	-0.834800	0.198532
H73	H	0.936610	-0.863302	0.158984
H74	H	0.904269	-0.863207	0.259871
N75	N	0.800346	-0.711813	0.295148
H76	H	0.773918	-0.656373	0.321546
H77	H	0.755283	-0.760917	0.271618
N78	N	0.773899	-0.534310	0.321568
H79	H	0.797330	-0.583401	0.366714
H80	H	0.747496	-0.478806	0.347906
H81	H	0.827915	-0.303960	0.267587
N82	N	1.137936	-0.000052	-0.497252
H83	H	1.186630	-0.000061	-0.462916
H84	H	1.128774	-0.069746	-0.521854
