data_functionalizedCrystal
_audit_creation_method	'MofGen! by Chris Wilmer'
_symmetry_space_group_name_H-M	'P1'
_symmetry_Int_Tables_number	1
_symmetry_cell_setting	triclinic
loop_
_symmetry_equiv_pos_as_xyz
  x,y,z
_cell_length_a	10.540539
_cell_length_b	10.654550
_cell_length_c	9.730223
_cell_angle_alpha	90.003749
_cell_angle_beta	90.000775
_cell_angle_gamma	95.494803
loop_
_atom_site_label
_atom_site_type_symbol
_atom_site_fract_x
_atom_site_fract_y
_atom_site_fract_z
O1	O	0.178295	-1.667897	-0.114396
O2	O	0.195282	-1.302424	-0.114373
O3	O	0.002079	-1.493499	-0.114383
O4	O	0.371498	-1.476822	-0.114386
O5	O	0.002084	-1.493496	0.114197
O6	O	0.195287	-1.302422	0.114207
O7	O	0.178300	-1.667895	0.114184
Zn8	Zn	0.186794	-1.485158	0.150487
Zn9	Zn	0.186788	-1.485161	-0.150677
O10	O	0.371503	-1.476820	0.114194
C11	C	0.194038	-1.255625	-0.000080
C12	C	0.190306	-1.116180	-0.000072
C13	C	-0.045221	-1.492247	-0.000096
C14	C	-0.186168	-1.488505	-0.000103
N15	N	0.186798	-1.485165	0.356024
C16	C	-0.369543	-1.345134	-0.000607
C17	C	-0.222926	-1.348927	-0.000093
C18	C	-0.247847	-1.555675	0.130423
C19	C	-0.394389	-1.550912	0.130533
C20	C	-0.394914	-1.553753	-0.129405
C21	C	-0.247933	-1.555039	-0.131131
C22	C	0.418803	-1.478072	-0.000096
C23	C	0.559750	-1.481813	-0.000098
C24	C	0.179545	-1.714694	-0.000112
C25	C	0.183276	-1.854139	-0.000129
C26	C	0.304061	-1.036734	-0.000093
C27	C	0.300547	-0.905712	-0.000116
C28	C	0.069513	-0.933595	-0.000104
C29	C	0.073028	-1.064614	-0.000071
C30	C	0.421338	-1.088301	-0.000094
C31	C	0.535103	-1.008854	-0.000116
C32	C	0.531589	-0.877832	-0.000140
C33	C	0.414310	-0.826256	-0.000141
N34	N	0.186774	-1.485164	-0.356213
C35	C	0.101277	-1.569795	0.427945
C36	C	0.101261	-1.569791	0.571828
C37	C	0.272299	-1.400525	0.571855
C38	C	0.272308	-1.400523	0.427975
C39	C	0.015767	-1.654437	0.355994
C40	C	-0.069760	-1.739074	0.427916
C41	C	-0.069775	-1.739071	0.571799
C42	C	0.015736	-1.654430	0.643760
H43	H	-0.180306	-1.296074	-0.093659
F44	F	0.659911	-1.063746	-0.000101
F45	F	-0.193913	-1.491303	-0.257361
F46	F	0.015782	-1.654450	0.202862
H47	H	-0.426453	-1.508579	-0.228336
F48	F	-0.431225	-1.486019	0.258070
F49	F	-0.160772	-1.829140	0.351329
H50	H	-0.398125	-1.289998	-0.094209
F51	F	0.410576	-0.686809	-0.000148
H52	H	-0.139423	-1.807977	0.630356
F53	F	0.015703	-1.654423	0.796895
H54	H	-0.025970	-0.891591	-0.000128
F55	F	-0.216316	-1.688050	-0.141451
H56	H	-0.442176	-1.654570	-0.130289
H57	H	0.341946	-1.331609	0.369416
F58	F	-0.048043	-1.149171	-0.000047
H59	H	-0.399729	-1.290221	0.092477
F60	F	-0.168314	-1.279354	0.122415
F61	F	0.425088	-1.227744	-0.000075
H62	H	0.624221	-0.813149	-0.000144
F63	F	0.363303	-1.310453	0.648445
H64	H	-0.442394	-1.651295	0.136449
H65	H	-0.225529	-1.658178	0.135270
H66	H	-0.205228	-1.509014	0.227563
