data_functionalizedCrystal
_audit_creation_method	'MofGen! by Chris Wilmer'
_symmetry_space_group_name_H-M	'P1'
_symmetry_Int_Tables_number	1
_symmetry_cell_setting	triclinic
loop_
_symmetry_equiv_pos_as_xyz
  x,y,z
_cell_length_a	9.065218
_cell_length_b	15.021413
_cell_length_c	9.065215
_cell_angle_alpha	90.007501
_cell_angle_beta	94.984675
_cell_angle_gamma	90.007503
loop_
_atom_site_label
_atom_site_type_symbol
_atom_site_fract_x
_atom_site_fract_y
_atom_site_fract_z
O1	O	1.960407	0.074027	-0.216338
O2	O	1.531122	0.074027	-0.234084
O3	O	1.754640	0.074029	-0.010568
O4	O	1.736890	0.074025	-0.439853
O5	O	1.754605	-0.074035	-0.010600
O6	O	1.531087	-0.074037	-0.234116
O7	O	1.960372	-0.074037	-0.216369
Zn8	Zn	1.745724	-0.097546	-0.225248
Zn9	Zn	1.745771	0.097535	-0.225206
O10	O	1.736854	-0.074039	-0.439885
C11	C	1.476118	-0.000005	-0.232394
C12	C	1.312275	-0.000004	-0.227295
N13	N	1.745702	-0.230683	-0.225276
C14	C	1.642331	-0.470367	-0.328580
C15	C	1.776045	-0.529702	-0.359000
C16	C	1.745740	-0.412290	-0.225239
C17	C	1.612062	-0.529697	-0.194852
C18	C	1.745764	-0.587714	-0.225207
C19	C	1.879522	-0.470319	-0.255727
C20	C	1.715450	-0.470308	-0.091520
C21	C	1.849260	-0.529616	-0.121885
C22	C	1.745724	-0.311233	-0.225261
C23	C	1.745795	-0.688769	-0.225184
C24	C	2.015376	-0.000004	-0.218059
C25	C	2.179219	0.000002	-0.223159
C26	C	1.752917	-0.000001	0.044403
C27	C	1.747819	0.000006	0.208246
N28	N	1.745803	0.230673	-0.225166
C29	C	1.738577	-0.000001	0.505144
C30	C	1.743674	0.000018	0.341301
H31	H	1.554972	-0.444352	-0.416045
H32	H	1.992607	-0.444346	-0.281550
H33	H	1.801686	-0.555790	-0.472070
H34	H	1.936816	-0.555468	-0.034475
N35	N	1.681424	-0.435718	0.058202
H36	H	1.682633	-0.368487	0.057344
H37	H	1.758497	-0.458272	0.136443
N38	N	1.462313	-0.564245	-0.160796
H39	H	1.463707	-0.631475	-0.160084
H40	H	1.384355	-0.542631	-0.238960
