data_functionalizedCrystal
_audit_creation_method	'MofGen! by Chris Wilmer'
_symmetry_space_group_name_H-M	'P1'
_symmetry_Int_Tables_number	1
_symmetry_cell_setting	triclinic
loop_
_symmetry_equiv_pos_as_xyz
  x,y,z
_cell_length_a	16.974939
_cell_length_b	16.992694
_cell_length_c	15.455313
_cell_angle_alpha	87.142206
_cell_angle_beta	83.693782
_cell_angle_gamma	92.970755
loop_
_atom_site_label
_atom_site_type_symbol
_atom_site_fract_x
_atom_site_fract_y
_atom_site_fract_z
O1	O	-0.164928	1.043109	-0.060465
O2	O	-0.163082	0.814832	-0.060619
O3	O	-0.048945	0.935709	-0.068599
O4	O	-0.279065	0.922232	-0.052485
O5	O	-0.055443	0.928797	0.076118
O6	O	-0.169580	0.807920	0.084097
O7	O	-0.171426	1.036196	0.084252
Cu8	Cu	-0.171096	0.921427	0.097388
Cu9	Cu	-0.163411	0.929602	-0.073756
O10	O	-0.285563	0.915320	0.092231
C11	C	-0.163957	0.782174	0.011569
C12	C	-0.156875	0.695161	0.011063
C13	C	-0.022612	0.931865	0.001686
C14	C	0.065532	0.930700	-0.004492
C15	C	-0.225204	0.644625	0.015848
C16	C	-0.218545	0.562867	0.015394
C17	C	-0.143557	0.531646	0.010149
C18	C	-0.075224	0.582189	0.005366
C19	C	-0.081883	0.663945	0.005826
C20	C	-0.115958	0.288167	0.008239
C21	C	-0.109303	0.206404	0.007776
C22	C	-0.252626	0.187087	0.017807
C23	C	-0.259278	0.268846	0.018261
C24	C	-0.190945	0.319382	0.013483
N25	N	-0.136750	0.448077	0.009681
N26	N	-0.197753	0.402950	0.013957
C27	C	0.562075	0.924623	-0.047831
C28	C	0.479254	0.925709	-0.042008
C29	C	0.434317	0.922478	0.039788
C30	C	0.472206	0.918168	0.115767
C31	C	0.555027	0.917088	0.109943
C32	C	0.186242	0.925310	0.065663
C33	C	0.103415	0.926389	0.071481
C34	C	0.110469	0.933930	-0.086295
C35	C	0.193290	0.932845	-0.092111
C36	C	0.231173	0.928540	-0.016132
N37	N	0.349659	0.923586	0.045742
N38	N	0.315829	0.927438	-0.022087
C39	C	0.688104	0.919159	0.021951
C40	C	0.599959	0.920311	0.028142
C41	C	-0.170550	1.068855	0.012061
C42	C	-0.177632	1.155868	0.012562
N43	N	-0.176501	0.915683	0.217762
N44	N	-0.158000	0.935352	-0.194130
C45	C	-0.128032	0.967054	0.259767
C46	C	-0.132127	0.962717	0.350861
C47	C	-0.184696	0.907014	0.399949
C48	C	-0.233168	0.855638	0.357937
C49	C	-0.229068	0.859971	0.266844
C50	C	-0.202372	0.888309	0.672766
C51	C	-0.206470	0.883981	0.763865
C52	C	-0.105428	0.991060	0.756783
C53	C	-0.101336	0.995392	0.665689
C54	C	-0.149804	0.944013	0.623685
N55	N	-0.188885	0.902581	0.493062
N56	N	-0.145610	0.948442	0.530573
H57	H	-0.286267	0.670037	0.020119
O58	O	0.595883	0.912441	0.191892
H59	H	0.637111	0.965200	0.192765
H60	H	-0.274186	0.521723	0.019290
O61	O	-0.340159	0.302519	0.023941
H62	H	-0.386556	0.253641	0.027206
H63	H	-0.308259	0.145933	0.021698
O64	O	0.610541	0.928104	-0.136056
H65	H	0.644760	0.874362	-0.142233
H66	H	0.066828	0.923734	0.138093
H67	H	0.217075	0.921806	0.127531
H68	H	0.079616	0.937436	-0.148152
H69	H	-0.275968	0.810279	0.397908
O70	O	-0.079853	1.018123	0.396175
H71	H	-0.117552	1.054087	0.440183
O72	O	-0.044636	1.055481	0.612760
H73	H	-0.078600	1.095410	0.573770
O74	O	-0.263165	0.823895	0.816819
H75	H	-0.248351	0.763666	0.798376
O76	O	-0.008182	0.718452	0.000664
H77	H	-0.010437	0.753345	0.059625
H78	H	-0.268535	0.818139	0.232644
O79	O	0.438401	0.930353	-0.123957
H80	H	0.404520	0.984455	-0.125340
H81	H	-0.048236	0.180989	0.003504
H82	H	-0.060315	0.329304	0.004349
H83	H	-0.065966	1.032889	0.790991
H84	H	-0.241838	0.846476	0.638573
O85	O	-0.071329	1.027131	0.206824
H86	H	-0.038307	1.062117	0.251340
O87	O	0.005659	0.548521	-0.000285
H88	H	0.014777	0.514550	-0.059723
O89	O	0.241756	0.936284	-0.180334
H90	H	0.201497	0.939452	-0.232186
H91	H	0.435612	0.915543	0.182367
