data_functionalizedCrystal
_audit_creation_method	'MofGen! by Chris Wilmer'
_symmetry_space_group_name_H-M	'P1'
_symmetry_Int_Tables_number	1
_symmetry_cell_setting	triclinic
loop_
_symmetry_equiv_pos_as_xyz
  x,y,z
_cell_length_a	19.288864
_cell_length_b	10.723024
_cell_length_c	17.766277
_cell_angle_alpha	89.994854
_cell_angle_beta	89.976791
_cell_angle_gamma	83.802058
loop_
_atom_site_label
_atom_site_type_symbol
_atom_site_fract_x
_atom_site_fract_y
_atom_site_fract_z
O1	O	0.922366	0.155659	-0.062834
O2	O	1.422366	0.655659	0.437166
O3	O	0.720242	0.176657	-0.062782
O4	O	1.220242	0.676657	0.437218
O5	O	0.825966	-0.015516	-0.062807
O6	O	1.325966	0.484484	0.437193
O7	O	0.816642	0.347832	-0.062810
O8	O	1.316642	0.847832	0.437190
O9	O	0.825947	-0.015526	0.062382
O10	O	1.325947	0.484474	0.562382
O11	O	0.720223	0.176647	0.062406
O12	O	1.220223	0.676647	0.562406
O13	O	0.922347	0.155649	0.062355
O14	O	1.422347	0.655649	0.562355
Cu15	Cu	0.821283	0.166147	0.073811
Cu16	Cu	1.321283	0.666147	0.573811
Cu17	Cu	0.821306	0.166159	-0.074239
Cu18	Cu	1.321306	0.666159	0.425761
O19	O	0.816623	0.347822	0.062379
O20	O	1.316623	0.847822	0.562379
C21	C	0.694352	0.175976	-0.000181
C22	C	1.194352	0.675976	0.499819
C23	C	0.617235	0.173948	-0.000162
C24	C	1.117235	0.673948	0.499838
C25	C	0.825278	-0.062006	-0.000213
C26	C	1.325278	0.437994	0.499787
C27	C	0.823248	-0.200518	-0.000215
C28	C	1.323248	0.299482	0.499785
C29	C	0.573272	0.286707	-0.000175
C30	C	1.073272	0.786707	0.499825
C31	C	0.500813	0.284801	-0.000183
C32	C	1.000813	0.784801	0.499817
C33	C	0.472319	0.170131	-0.000193
C34	C	0.972319	0.670131	0.499807
C35	C	0.516291	0.057358	-0.000176
C36	C	1.016291	0.557358	0.499824
C37	C	0.588749	0.059266	-0.000160
C38	C	1.088749	0.559266	0.499840
C39	C	0.363477	0.079991	-0.044077
C40	C	0.863477	0.579991	0.455923
C41	C	0.291020	0.078087	-0.044098
C42	C	0.791020	0.578087	0.455902
C43	C	0.248835	0.164239	-0.000239
C44	C	0.748835	0.664239	0.499761
C45	C	0.279114	0.252317	0.043630
C46	C	0.779114	0.752317	0.543630
C47	C	0.351572	0.254226	0.043646
C48	C	0.851572	0.754226	0.543646
C49	C	0.393752	0.168049	-0.000210
C50	C	0.893752	0.668049	0.499790
C51	C	0.126303	0.274939	-0.000260
C52	C	0.626303	0.774939	0.499740
C53	C	0.053843	0.273029	-0.000263
C54	C	0.553843	0.773029	0.499737
C55	C	0.069323	0.045582	-0.000264
C56	C	0.569323	0.545582	0.499736
C57	C	0.141782	0.047496	-0.000253
C58	C	0.641782	0.547496	0.499747
C59	C	0.170267	0.162178	-0.000254
C60	C	0.670267	0.662178	0.499746
C61	C	0.882406	-0.276743	-0.000231
C62	C	1.382406	0.223257	0.499769
C63	C	0.880309	-0.419902	-0.000234
C64	C	1.380309	0.080098	0.499766
C65	C	0.948237	0.156330	-0.000248
C66	C	1.448237	0.656330	0.499752
C67	C	1.025354	0.158358	-0.000273
C68	C	1.525354	0.658358	0.499727
C69	C	0.817311	0.394313	-0.000216
C70	C	1.317311	0.894313	0.499784
C71	C	0.819341	0.532824	-0.000219
C72	C	1.319341	1.032824	0.499781
N73	N	0.821273	0.166138	0.177941
N74	N	1.321273	0.666138	0.677941
N75	N	0.821322	0.166158	-0.178369
N76	N	1.321322	0.666158	0.321631
C77	C	0.868103	0.081086	0.217318
C78	C	1.368103	0.581086	0.717318
C79	C	0.868107	0.081080	0.296119
C80	C	1.368107	0.581080	0.796119
C81	C	0.821287	0.166148	0.335542
C82	C	1.321287	0.666148	0.835542
C83	C	0.774448	0.251208	0.296156
C84	C	1.274448	0.751208	0.796156
C85	C	0.774441	0.251203	0.217356
C86	C	1.274441	0.751203	0.717356
C87	C	0.812728	0.279841	0.460380
C88	C	1.312728	0.779841	0.960380
C89	C	0.812741	0.279847	0.539179
C90	C	1.312741	0.779847	1.039179
C91	C	0.821306	0.166163	0.578588
C92	C	1.321306	0.666163	1.078588
C93	C	0.829874	0.052468	0.539189
C94	C	1.329874	0.552468	1.039189
C95	C	0.829867	0.052463	0.460389
C96	C	1.329867	0.552463	0.960389
C97	C	0.821290	0.166163	0.420988
C98	C	1.321290	0.666163	0.920988
C99	C	0.868143	0.081097	0.703410
C100	C	1.368143	0.581097	1.203410
C101	C	0.868142	0.081090	0.782214
C102	C	1.368142	0.581090	1.282214
C103	C	0.774487	0.251228	0.782249
C104	C	1.274487	0.751228	1.282249
C105	C	0.774485	0.251225	0.703447
C106	C	1.274485	0.751225	1.203447
C107	C	0.821316	0.166161	0.664033
C108	C	1.321316	0.666161	1.164033
H109	H	0.596460	0.380090	-0.000177
H110	H	1.096460	0.880090	0.499823
Br111	Br	0.931656	-0.034359	0.163826
Br112	Br	1.431656	0.465641	0.663826
H113	H	0.906275	0.011823	0.814274
H114	H	1.406275	0.511823	1.314274
H115	H	0.493087	-0.036008	-0.000195
H116	H	0.993087	0.463992	0.499805
H117	H	0.930952	-0.485398	-0.000244
H118	H	1.430952	0.014602	0.499756
Br119	Br	0.734923	-0.358026	-0.000187
Br120	Br	1.234923	0.141974	0.499813
H121	H	0.805769	0.372424	0.571252
H122	H	1.305769	0.872424	1.071252
H123	H	0.934605	-0.236017	-0.000240
H124	H	1.434605	0.263983	0.499760
H125	H	0.771048	-0.241244	-0.000207
H126	H	1.271048	0.258756	0.499793
Br127	Br	0.931667	-0.034360	0.349568
Br128	Br	1.431667	0.465640	0.849568
H129	H	0.836841	-0.040111	0.428313
H130	H	1.336841	0.459889	0.928313
H131	H	0.736326	0.320470	0.328258
H132	H	1.236326	0.820470	0.828258
H133	H	0.465012	0.376626	-0.000191
H134	H	0.965012	0.876626	0.499809
H135	H	0.266373	0.006374	-0.079822
H136	H	0.766373	0.506374	0.420178
H137	H	0.836849	-0.040104	0.571274
H138	H	1.336849	0.459896	1.071274
Br139	Br	0.931697	-0.034350	0.649917
Br140	Br	1.431697	0.465650	1.149917
H141	H	0.736363	0.320488	0.814346
H142	H	1.236363	0.820488	1.314346
Br143	Br	0.392665	0.373749	0.103182
Br144	Br	0.892665	0.873749	0.603182
Br145	Br	0.710929	0.366663	0.650002
Br146	Br	1.210929	0.866663	1.150002
H147	H	0.736305	0.320464	0.185295
H148	H	1.236305	0.820464	0.685295
Br149	Br	0.221872	0.369251	0.103155
Br150	Br	0.721872	0.869251	0.603155
Br151	Br	0.164967	0.430575	-0.000256
Br152	Br	0.664967	0.930575	0.499744
H153	H	0.805741	0.372422	0.428300
H154	H	1.305741	0.872422	0.928300
H155	H	0.018048	0.364855	-0.000269
H156	H	0.518048	0.864855	0.499731
H157	H	0.046124	-0.047784	-0.000320
H158	H	0.546124	0.452216	0.499680
Br159	Br	0.648417	-0.093775	-0.000141
Br160	Br	1.148417	0.406225	0.499859
H161	H	0.397819	0.009832	-0.079796
H162	H	0.897819	0.509832	0.420204
Br163	Br	0.201450	-0.105542	-0.000238
Br164	Br	0.701450	0.394458	0.499762
