data_functionalizedCrystal
_audit_creation_method	'MofGen! by Chris Wilmer'
_symmetry_space_group_name_H-M	'P1'
_symmetry_Int_Tables_number	1
_symmetry_cell_setting	triclinic
loop_
_symmetry_equiv_pos_as_xyz
  x,y,z
_cell_length_a	19.121102
_cell_length_b	19.121063
_cell_length_c	16.120297
_cell_angle_alpha	95.179432
_cell_angle_beta	90.563713
_cell_angle_gamma	90.126902
loop_
_atom_site_label
_atom_site_type_symbol
_atom_site_fract_x
_atom_site_fract_y
_atom_site_fract_z
Zn1	Zn	1.035783	-0.347015	-0.541312
Zn2	Zn	1.535783	0.152985	-0.041312
Zn3	Zn	1.036635	-0.458791	-0.407594
Zn4	Zn	1.536635	0.041209	0.092406
Zn5	Zn	0.925017	-0.336083	-0.395761
Zn6	Zn	1.425017	0.163917	0.104239
Zn7	Zn	0.913533	-0.459183	-0.540754
Zn8	Zn	1.413533	0.040817	-0.040754
O9	O	0.977742	-0.400268	-0.471355
O10	O	1.477742	0.099732	0.028645
O11	O	1.133771	-0.366254	-0.528760
O12	O	1.633771	0.133746	-0.028760
O13	O	1.026990	-0.437775	-0.289383
O14	O	1.526990	0.062225	0.210617
O15	O	0.944160	-0.239237	-0.410349
O16	O	1.444160	0.260763	0.089651
O17	O	1.134396	-0.448375	-0.430518
O18	O	1.634396	0.051625	0.069482
O19	O	1.025540	-0.247269	-0.517285
O20	O	1.525540	0.252731	-0.017285
O21	O	0.944985	-0.347622	-0.280689
O22	O	1.444985	0.152378	0.219311
O23	O	0.825619	-0.348001	-0.409808
O24	O	1.325619	0.151999	0.090192
O25	O	0.924588	-0.449042	-0.657469
O26	O	1.424588	0.050958	-0.157469
O27	O	0.817182	-0.438442	-0.516334
O28	O	1.317182	0.061558	-0.016334
O29	O	1.014405	-0.366633	-0.657879
O30	O	1.514405	0.133367	-0.157879
O31	O	1.015855	-0.557139	-0.429977
O32	O	1.515855	-0.057139	0.070023
O33	O	0.925413	-0.557427	-0.527809
O34	O	1.425413	-0.057427	-0.027809
C35	C	0.796023	-0.392078	-0.461727
C36	C	1.296023	0.107922	0.038273
C37	C	0.718281	-0.388593	-0.457629
C38	C	1.218281	0.111407	0.042371
C39	C	0.969498	-0.582772	-0.480136
C40	C	1.469498	-0.082772	0.019864
C41	C	0.966035	-0.660852	-0.483923
C42	C	1.466035	-0.160852	0.016077
C43	C	0.677384	-0.434107	-0.511085
C44	C	1.177384	0.065893	-0.011085
C45	C	0.604337	-0.430822	-0.507238
C46	C	1.104337	0.069178	-0.007238
C47	C	0.572189	-0.382027	-0.449930
C48	C	1.072189	0.117973	0.050070
C49	C	0.613092	-0.336508	-0.396471
C50	C	1.113092	0.163492	0.103529
C51	C	0.686137	-0.339789	-0.400323
C52	C	1.186137	0.160211	0.099677
C53	C	0.351859	-0.369756	-0.435533
C54	C	0.851859	0.130244	0.064467
C55	C	0.278808	-0.366480	-0.431684
C56	C	0.778808	0.133520	0.068316
C57	C	0.270059	-0.460794	-0.542452
C58	C	0.770059	0.039206	-0.042452
C59	C	0.343106	-0.464074	-0.546295
C60	C	0.843106	0.035926	-0.046295
C61	C	0.384002	-0.418553	-0.492840
C62	C	0.884002	0.081447	0.007160
C63	C	0.497524	-0.378670	-0.445994
C64	C	0.997524	0.121330	0.054006
C65	C	0.458666	-0.421907	-0.496780
C66	C	0.958666	0.078093	0.003220
C67	C	1.011528	-0.697364	-0.434813
C68	C	1.511528	-0.197364	0.065187
C69	C	1.008274	-0.770729	-0.438380
C70	C	1.508274	-0.270729	0.061620
C71	C	0.959523	-0.807580	-0.491054
C72	C	1.459523	-0.307580	0.008946
C73	C	0.914027	-0.771062	-0.540170
C74	C	1.414027	-0.271062	-0.040170
C75	C	0.917285	-0.697699	-0.536606
C76	C	1.417285	-0.197699	-0.036606
C77	C	0.947332	-1.029097	-0.504364
C78	C	1.447332	-0.529097	-0.004364
C79	C	0.944077	-1.102466	-0.507922
C80	C	1.444077	-0.602466	-0.007922
C81	C	1.038325	-1.102127	-0.406133
C82	C	1.538325	-0.602127	0.093867
C83	C	1.041576	-1.028763	-0.402570
C84	C	1.541576	-0.528763	0.097430
C85	C	0.996083	-0.992252	-0.451689
C86	C	1.496083	-0.492252	0.048311
C87	C	0.956194	-0.882570	-0.494700
C88	C	1.456194	-0.382570	0.005300
C89	C	0.999415	-0.917263	-0.448047
C90	C	1.499415	-0.417263	0.051953
C91	C	1.160171	-0.408490	-0.481021
C92	C	1.660171	0.091510	0.018979
C93	C	1.237911	-0.411994	-0.485140
C94	C	1.737911	0.088006	0.014860
C95	C	0.968120	-0.409101	-0.688763
C96	C	1.468120	0.090899	-0.188763
C97	C	0.964020	-0.412865	-0.781410
C98	C	1.464020	0.087135	-0.281410
C99	C	0.986036	-0.217053	-0.462559
C100	C	1.486036	0.282947	0.037441
C101	C	0.989570	-0.138978	-0.458811
C102	C	1.489570	0.361022	0.041189
C103	C	0.956509	-0.419720	-0.951034
C104	C	1.456509	0.080280	-0.451034
C105	C	0.999122	-0.380612	-0.992525
C106	C	1.499122	0.119388	-0.492525
C107	C	0.994943	-0.384426	-1.086910
C108	C	1.494943	0.115574	-0.586910
C109	C	0.960687	-0.415906	-0.856641
C110	C	1.460687	0.084094	-0.356641
C111	C	0.987369	-0.391421	-0.254792
C112	C	1.487369	0.108579	0.245208
C113	C	0.991613	-0.387465	-0.162144
C114	C	1.491613	0.112535	0.337856
H115	H	0.703553	-0.473844	-0.557749
H116	H	1.203553	0.026156	-0.057749
H117	H	1.045320	-0.800454	-0.398389
H118	H	1.545320	-0.300454	0.101611
H119	H	0.916892	-0.456063	-0.986395
H120	H	1.416892	0.043937	-0.486395
H121	H	1.038743	-0.344266	-0.957161
H122	H	1.538743	0.155734	-0.457161
H123	H	0.571042	-0.467886	-0.550767
H124	H	1.071042	0.032114	-0.050767
H125	H	0.910289	-0.999376	-0.544357
H126	H	1.410289	-0.499376	-0.044357
N127	N	0.375931	-0.513924	-0.604838
N128	N	0.875931	-0.013924	-0.104838
N129	N	0.339407	-0.554559	-0.652563
N130	N	0.839407	-0.054559	-0.152563
H131	H	0.362589	-0.589769	-0.693908
H132	H	0.862589	-0.089769	-0.193908
N133	N	1.084787	-1.139434	-0.355966
N134	N	1.584787	-0.639434	0.144034
N135	N	1.081873	-1.204936	-0.359151
N136	N	1.581873	-0.704936	0.140849
H137	H	1.114689	-1.231284	-0.323721
H138	H	1.614689	-0.731284	0.176279
N139	N	1.061335	-0.659726	-0.381018
N140	N	1.561335	-0.159726	0.118982
N141	N	1.106405	-0.621940	-0.410757
N142	N	1.606405	-0.121940	0.089243
H143	H	1.141585	-0.595359	-0.372765
H144	H	1.641585	-0.095359	0.127235
H145	H	0.719435	-0.302723	-0.356797
H146	H	1.219435	0.197277	0.143203
N147	N	0.228285	-0.507296	-0.597046
N148	N	0.728285	-0.007296	-0.097046
N149	N	0.186805	-0.548995	-0.567636
N150	N	0.686805	-0.048995	-0.067636
H151	H	0.157302	-0.581839	-0.606196
H152	H	0.657302	-0.081839	-0.106196
N153	N	0.245980	-0.316629	-0.373136
N154	N	0.745980	0.183371	0.126864
N155	N	0.282501	-0.275989	-0.325414
N156	N	0.782501	0.224011	0.174586
H157	H	0.259316	-0.240783	-0.284066
H158	H	0.759316	0.259217	0.215934
H159	H	0.385148	-0.332695	-0.391999
H160	H	0.885148	0.167305	0.108001
H161	H	0.586911	-0.296774	-0.349813
H162	H	1.086911	0.203226	0.150187
N163	N	0.491513	-0.471750	-0.555305
N164	N	0.991513	0.028250	-0.055305
N165	N	0.531554	-0.517101	-0.530180
N166	N	1.031554	-0.017101	-0.030180
H167	H	0.554759	-0.552306	-0.571511
H168	H	1.054759	-0.052306	-0.071511
H169	H	0.471341	-0.338942	-0.399332
H170	H	0.971341	0.161058	0.100668
N171	N	1.091376	-0.991134	-0.348757
N172	N	1.591376	-0.491134	0.151243
N173	N	1.131993	-1.023743	-0.304911
N174	N	1.631993	-0.523743	0.195089
H175	H	1.167164	-0.997168	-0.266902
H176	H	1.667164	-0.497168	0.233098
H177	H	0.874336	-0.801072	-0.583062
H178	H	1.374336	-0.301072	-0.083062
N179	N	0.894266	-1.140098	-0.561727
N180	N	1.394266	-0.640098	-0.061727
N181	N	0.853648	-1.107491	-0.605575
N182	N	1.353648	-0.607491	-0.105575
H183	H	0.818469	-1.134068	-0.643571
H184	H	1.318469	-0.634068	-0.143571
H185	H	0.880240	-0.667971	-0.576598
H186	H	1.380240	-0.167971	-0.076598
N187	N	1.049201	-0.879614	-0.394239
N188	N	1.549201	-0.379614	0.105761
N189	N	1.028786	-0.835450	-0.337821
N190	N	1.528786	-0.335450	0.162179
H191	H	1.063945	-0.808853	-0.299815
H192	H	1.563945	-0.308853	0.200185
N193	N	0.906394	-0.920226	-0.548487
N194	N	1.406394	-0.420226	-0.048487
N195	N	0.861333	-0.958018	-0.518739
N196	N	1.361333	-0.458018	-0.018739
H197	H	0.826163	-0.984616	-0.556727
H198	H	1.326163	-0.484616	-0.056727
