data_functionalizedCrystal
_audit_creation_method	'MofGen! by Chris Wilmer'
_symmetry_space_group_name_H-M	'P1'
_symmetry_Int_Tables_number	1
_symmetry_cell_setting	triclinic
loop_
_symmetry_equiv_pos_as_xyz
  x,y,z
_cell_length_a	17.699104
_cell_length_b	17.699092
_cell_length_c	9.730223
_cell_angle_alpha	90.000361
_cell_angle_beta	89.998915
_cell_angle_gamma	83.288943
loop_
_atom_site_label
_atom_site_type_symbol
_atom_site_fract_x
_atom_site_fract_y
_atom_site_fract_z
O1	O	1.004064	0.095783	-0.114313
O2	O	0.783688	0.108219	-0.114309
O3	O	0.900099	-0.008188	-0.114308
O4	O	0.887654	0.212189	-0.114314
O5	O	0.900098	-0.008185	0.114272
O6	O	0.783687	0.108221	0.114271
O7	O	1.004063	0.095786	0.114267
Zn8	Zn	0.893875	0.102004	0.150561
Zn9	Zn	0.893877	0.102000	-0.150603
O10	O	0.887652	0.212192	0.114266
C11	C	0.755491	0.107772	-0.000018
C12	C	0.671474	0.106427	-0.000017
C13	C	0.899652	-0.036383	-0.000020
C14	C	0.898311	-0.120401	-0.000026
C15	C	0.146605	0.167170	-0.000033
C16	C	0.225548	0.168430	-0.000037
C17	C	0.274164	0.100095	-0.000035
C18	C	0.243832	0.030496	-0.000042
C19	C	0.164890	0.029238	-0.000048
C20	C	0.562198	0.035569	-0.000021
C21	C	0.641145	0.036833	-0.000011
C22	C	0.622857	0.174761	-0.000009
C23	C	0.543915	0.173503	-0.000015
C24	C	0.513590	0.103905	-0.000030
C25	C	0.427990	0.102540	-0.000028
C26	C	0.359762	0.101458	-0.000026
C27	C	0.897683	-0.159870	-0.124626
C28	C	0.896418	-0.238813	-0.124628
C29	C	0.895786	-0.278286	-0.000028
C30	C	0.896412	-0.238812	0.124582
C31	C	0.897671	-0.159869	0.124583
C32	C	0.891331	-0.557177	0.124584
C33	C	0.890074	-0.636125	0.124575
C34	C	0.890078	-0.636121	-0.124626
C35	C	0.891338	-0.557179	-0.124626
C36	C	0.891959	-0.517710	-0.000017
C37	C	0.893329	-0.432111	-0.000017
C38	C	0.894421	-0.363885	-0.000027
C39	C	1.032260	0.096232	-0.000026
C40	C	1.116278	0.097577	-0.000036
C41	C	0.888100	0.240387	-0.000025
C42	C	0.889441	0.324405	-0.000027
N43	N	0.893879	0.102006	0.356098
N44	N	0.893878	0.101992	-0.356139
C45	C	0.945439	0.050479	0.428024
C46	C	0.945437	0.050470	0.571907
C47	C	0.842313	0.153522	0.571925
C48	C	0.842312	0.153527	0.428044
C49	C	1.004979	-0.009016	0.428015
C50	C	1.004977	-0.009025	0.571898
H51	H	0.250236	0.225099	-0.000047
N52	N	1.077513	0.014640	0.368884
H53	H	1.112560	0.026065	0.446140
H54	H	1.103330	-0.027949	0.310425
N55	N	0.981409	-0.081601	0.631017
H56	H	0.970020	-0.116661	0.553755
H57	H	1.024029	-0.107374	0.689452
N58	N	0.655559	0.249833	-0.000009
H59	H	0.687904	0.253432	0.084725
H60	H	0.687866	0.253389	-0.084800
N61	N	0.529494	-0.039493	-0.000021
H62	H	0.547237	-0.069427	-0.084749
H63	H	0.547237	-0.069358	0.084776
H64	H	0.992668	-0.067060	0.388963
H65	H	1.063007	0.003335	0.610948
H66	H	0.504335	0.229148	-0.000010
N67	N	0.892010	-0.514614	0.258978
H68	H	0.891425	-0.551602	0.337907
H69	H	0.939435	-0.488080	0.264399
H70	H	0.107027	0.222817	-0.000024
H71	H	0.283421	-0.025143	-0.000049
H72	H	0.891856	-0.525044	-0.226088
H73	H	0.680728	-0.018817	-0.000012
N74	N	0.889415	-0.678694	-0.259029
H75	H	0.890017	-0.641709	-0.337960
H76	H	0.935799	-0.717659	-0.264431
H77	H	0.140199	-0.027432	-0.000054
N78	N	0.898371	-0.117299	-0.259018
H79	H	0.897781	-0.154284	-0.337951
H80	H	0.851994	-0.078327	-0.264448
H81	H	0.895910	-0.270946	-0.226090
N82	N	0.889393	-0.678703	0.258971
H83	H	0.889976	-0.641721	0.337911
H84	H	0.841972	-0.705242	0.264388
H85	H	0.895892	-0.270956	0.226034
N86	N	0.898344	-0.117294	0.258972
H87	H	0.897754	-0.154278	0.337907
H88	H	0.945766	-0.090756	0.264403
H89	H	0.800322	0.195478	0.369483
N90	N	0.786695	0.209086	0.649524
H91	H	0.794516	0.201264	0.751586
H92	H	0.795333	0.262772	0.624386
