data_functionalizedCrystal
_audit_creation_method	'MofGen! by Chris Wilmer'
_symmetry_space_group_name_H-M	'P1'
_symmetry_Int_Tables_number	1
_symmetry_cell_setting	triclinic
loop_
_symmetry_equiv_pos_as_xyz
  x,y,z
_cell_length_a	16.625548
_cell_length_b	17.077402
_cell_length_c	17.077396
_cell_angle_alpha	90.030619
_cell_angle_beta	89.982679
_cell_angle_gamma	89.976049
loop_
_atom_site_label
_atom_site_type_symbol
_atom_site_fract_x
_atom_site_fract_y
_atom_site_fract_z
Zn1	Zn	1.232652	0.312479	-0.443837
Zn2	Zn	1.565986	0.645813	-0.110504
Zn3	Zn	1.899319	0.979146	0.222829
Zn4	Zn	1.232562	0.443756	-0.312568
Zn5	Zn	1.565896	0.777089	0.020765
Zn6	Zn	1.899229	1.110423	0.354098
Zn7	Zn	1.097822	0.312511	-0.312585
Zn8	Zn	1.431155	0.645844	0.020748
Zn9	Zn	1.764488	0.979177	0.354082
Zn10	Zn	1.097784	0.443710	-0.443792
Zn11	Zn	1.431117	0.777043	-0.110458
Zn12	Zn	1.764450	1.110376	0.222875
O13	O	1.165205	0.378114	-0.378196
O14	O	1.498538	0.711447	-0.044862
O15	O	1.831872	1.044781	0.288471
O16	O	1.345473	0.329900	-0.426436
O17	O	1.678806	0.663233	-0.093103
O18	O	2.012139	0.996566	0.240230
O19	O	1.214667	0.426379	-0.202723
O20	O	1.548000	0.759712	0.130610
O21	O	1.881334	1.093045	0.463943
O22	O	1.115761	0.202660	-0.330022
O23	O	1.449094	0.535993	0.003311
O24	O	1.782428	0.869326	0.336645
O25	O	1.345407	0.426348	-0.329993
O26	O	1.678740	0.759682	0.003340
O27	O	2.012073	1.093015	0.336673
O28	O	1.214820	0.202637	-0.426452
O29	O	1.548154	0.535970	-0.093119
O30	O	1.881487	0.869303	0.240214
O31	O	1.115674	0.329953	-0.202736
O32	O	1.449007	0.663287	0.130598
O33	O	1.782340	0.996620	0.463931
O34	O	0.984984	0.329908	-0.329978
O35	O	1.318318	0.663241	0.003356
O36	O	1.651651	0.996575	0.336689
O37	O	1.115696	0.426269	-0.553645
O38	O	1.449029	0.759602	-0.220311
O39	O	1.782363	1.092936	0.113022
O40	O	0.984956	0.426299	-0.426375
O41	O	1.318290	0.759633	-0.093041
O42	O	1.651623	1.092966	0.240292
O43	O	1.214783	0.329855	-0.553678
O44	O	1.548117	0.663188	-0.220345
O45	O	1.881450	0.996521	0.112988
O46	O	1.214630	0.553597	-0.329949
O47	O	1.547963	0.886930	0.003384
O48	O	1.881296	1.220264	0.336717
O49	O	1.115609	0.553563	-0.426358
O50	O	1.448942	0.886896	-0.093025
O51	O	1.782275	1.220229	0.240308
C52	C	1.165127	0.582062	-0.378164
C53	C	1.498460	0.915395	-0.044831
C54	C	1.831794	1.248728	0.288502
C55	C	1.165168	0.669312	-0.378177
C56	C	1.498501	1.002645	-0.044844
C57	C	1.831834	1.335978	0.288490
C58	C	0.955714	0.378103	-0.378174
C59	C	1.289047	0.711436	-0.044840
C60	C	1.622381	1.044769	0.288493
C61	C	0.866093	0.378117	-0.378183
C62	C	1.199426	0.711450	-0.044849
C63	C	1.532760	1.044783	0.288484
C64	C	1.165245	0.378053	-0.582940
C65	C	1.498579	0.711386	-0.249607
C66	C	1.831912	1.044720	0.083727
C67	C	1.165263	0.378027	-0.670190
C68	C	1.498596	0.711361	-0.336856
C69	C	1.831929	1.044694	-0.003523
C70	C	0.537917	0.378122	-0.378216
C71	C	0.871251	0.711455	-0.044883
C72	C	1.204584	1.044789	0.288450
C73	C	0.629226	0.378118	-0.378205
C74	C	0.962559	0.711452	-0.044871
C75	C	1.295892	1.044785	0.288462
C76	C	0.702002	0.378120	-0.378199
C77	C	1.035336	0.711453	-0.044866
C78	C	1.368669	1.044786	0.288468
C79	C	0.793317	0.378115	-0.378188
C80	C	1.126650	0.711449	-0.044855
C81	C	1.459983	1.044782	0.288478
C82	C	1.375514	0.378126	-0.378218
C83	C	1.708847	0.711459	-0.044885
C84	C	2.042180	1.044792	0.288449
C85	C	1.465135	0.378131	-0.378228
C86	C	1.798468	0.711464	-0.044894
C87	C	2.131802	1.044797	0.288439
C88	C	1.165305	0.173370	-0.378244
C89	C	1.498638	0.506703	-0.044911
C90	C	1.831972	0.840036	0.288423
C91	C	1.165348	0.086120	-0.378265
C92	C	1.498681	0.419453	-0.044932
C93	C	1.832014	0.752786	0.288402
C94	C	1.216781	0.710293	-0.328031
C95	C	1.550114	1.043627	0.005303
C96	C	1.883447	1.376960	0.338636
C97	C	1.216820	0.792274	-0.328051
C98	C	1.550153	1.125607	0.005283
C99	C	1.883487	1.458941	0.338616
C100	C	1.165242	0.833271	-0.378214
C101	C	1.498575	1.166604	-0.044880
C102	C	1.831908	1.499938	0.288453
C103	C	1.113626	0.792283	-0.428366
C104	C	1.446960	1.125617	-0.095032
C105	C	1.780293	1.458950	0.238301
C106	C	1.113592	0.710304	-0.428349
C107	C	1.446925	1.043638	-0.095016
C108	C	1.780258	1.376971	0.238318
C109	C	1.113701	0.963153	-0.428395
C110	C	1.447035	1.296487	-0.095062
C111	C	1.780368	1.629820	0.238271
C112	C	1.113735	1.045138	-0.428411
C113	C	1.447068	1.378471	-0.095078
C114	C	1.780401	1.711805	0.238255
C115	C	1.216930	1.045123	-0.328097
C116	C	1.550263	1.378456	0.005236
C117	C	1.883596	1.711789	0.338570
C118	C	1.216895	0.963144	-0.328080
C119	C	1.550228	1.296477	0.005253
C120	C	1.883561	1.629811	0.338586
C121	C	1.165278	0.922162	-0.378232
C122	C	1.498612	1.255495	-0.044898
C123	C	1.831945	1.588829	0.288435
C124	C	1.113733	0.327812	-0.711186
C125	C	1.447066	0.661146	-0.377852
C126	C	1.780399	0.994479	-0.044519
C127	C	1.113746	0.327795	-0.793166
C128	C	1.447079	0.661128	-0.459833
C129	C	1.780412	0.994461	-0.126500
C130	C	1.165294	0.377988	-0.834149
C131	C	1.498627	0.711321	-0.500816
C132	C	1.831960	1.044655	-0.167483
C133	C	1.216826	0.428208	-0.793148
C134	C	1.550159	0.761542	-0.459814
C135	C	1.883493	1.094875	-0.126481
C136	C	1.216808	0.428230	-0.711169
C137	C	1.550142	0.761563	-0.377835
C138	C	1.883475	1.094896	-0.044502
C139	C	1.216861	0.428159	-0.964018
C140	C	1.550194	0.761493	-0.630684
C141	C	1.883528	1.094826	-0.297351
C142	C	1.216880	0.428137	-1.046002
C143	C	1.550213	0.761471	-0.712669
C144	C	1.883547	1.094804	-0.379336
C145	C	1.113799	0.327724	-1.046015
C146	C	1.447132	0.661058	-0.712682
C147	C	1.780465	0.994391	-0.379349
C148	C	1.113781	0.327746	-0.964036
C149	C	1.447114	0.661079	-0.630703
C150	C	1.780447	0.994412	-0.297370
C151	C	1.165314	0.377965	-0.923040
C152	C	1.498648	0.711298	-0.589707
C153	C	1.831981	1.044632	-0.256374
C154	C	1.165211	0.378118	-0.174248
C155	C	1.498544	0.711451	0.159086
C156	C	1.831878	1.044785	0.492419
C157	C	1.165350	0.377923	-0.086998
C158	C	1.498683	0.711256	0.246335
C159	C	1.832017	1.044589	0.579668
H160	H	1.258778	0.676919	-0.287179
H161	H	1.592111	1.010252	0.046155
H162	H	1.925445	1.343586	0.379488
F163	F	1.271756	0.835886	-0.274680
F164	F	1.605089	1.169220	0.058653
F165	F	1.938423	1.502553	0.391987
F166	F	1.058871	0.274385	-0.667576
F167	F	1.392205	0.607718	-0.334242
F168	F	1.725538	0.941051	-0.000909
F169	F	1.271706	0.481612	-0.920389
F170	F	1.605039	0.814946	-0.587055
F171	F	1.938372	1.148279	-0.253722
H172	H	1.071750	1.078515	-0.469273
H173	H	1.405084	1.411849	-0.135940
H174	H	1.738417	1.745182	0.197393
H175	H	1.071564	0.676938	-0.469184
H176	H	1.404898	1.010271	-0.135851
H177	H	1.738231	1.343604	0.197482
F178	F	1.271789	0.919513	-0.274691
F179	F	1.605122	1.252847	0.058643
F180	F	1.938456	1.586180	0.391976
H181	H	1.258793	0.469081	-0.826522
H182	H	1.592126	0.802414	-0.493189
H183	H	1.925460	1.135748	-0.159856
F184	F	1.058923	0.274319	-0.920421
F185	F	1.392256	0.607652	-0.587087
F186	F	1.725590	0.940986	-0.253754
F187	F	1.271747	0.481555	-1.089618
F188	F	1.605080	0.814888	-0.756285
F189	F	1.938414	1.148221	-0.422951
F190	F	1.058737	0.835918	-0.481758
F191	F	1.392071	1.169251	-0.148424
F192	F	1.725404	1.502584	0.184909
F193	F	1.058871	0.274378	-0.836794
F194	F	1.392204	0.607711	-0.503460
F195	F	1.725537	0.941045	-0.170127
F196	F	1.058953	0.274276	-1.089647
F197	F	1.392287	0.607609	-0.756314
F198	F	1.725620	0.940942	-0.422980
H199	H	1.258960	1.078494	-0.287265
H200	H	1.592294	1.411828	0.046069
H201	H	1.925627	1.745161	0.379402
H202	H	1.071672	0.929788	-0.469237
H203	H	1.405005	1.263122	-0.135903
H204	H	1.738339	1.596455	0.197430
H205	H	1.258775	0.469114	-0.677791
H206	H	1.592109	0.802447	-0.344457
H207	H	1.925442	1.135780	-0.011124
