data_functionalizedCrystal
_audit_creation_method	'MofGen! by Chris Wilmer'
_symmetry_space_group_name_H-M	'P1'
_symmetry_Int_Tables_number	1
_symmetry_cell_setting	triclinic
loop_
_symmetry_equiv_pos_as_xyz
  x,y,z
_cell_length_a	14.971486
_cell_length_b	10.654550
_cell_length_c	14.048226
_cell_angle_alpha	89.994756
_cell_angle_beta	89.998499
_cell_angle_gamma	84.049516
loop_
_atom_site_label
_atom_site_type_symbol
_atom_site_fract_x
_atom_site_fract_y
_atom_site_fract_z
O1	O	1.187838	0.163659	-0.079049
O2	O	0.927544	0.183257	-0.079074
O3	O	1.063675	-0.009345	-0.079057
O4	O	1.051706	0.356262	-0.079066
O5	O	1.063659	-0.009357	0.079264
O6	O	0.927527	0.183246	0.079247
O7	O	1.187821	0.163648	0.079273
Zn8	Zn	1.057672	0.173445	0.104397
Zn9	Zn	1.057693	0.173460	-0.104198
O10	O	1.051690	0.356250	0.079256
C11	C	0.894206	0.182375	0.000083
C12	C	0.794895	0.179749	0.000073
C13	C	0.738285	0.292898	0.000072
C14	C	0.644972	0.290422	0.000086
C15	C	0.608271	0.174797	0.000095
C16	C	0.664888	0.061639	0.000099
C17	C	0.758199	0.064116	0.000092
C18	C	0.470397	0.056485	0.000112
C19	C	0.377080	0.054007	0.000118
C20	C	0.357171	0.282791	0.000107
C21	C	0.450482	0.285268	0.000100
C22	C	0.507092	0.172110	0.000102
C23	C	1.062788	-0.056139	0.000102
C24	C	1.060159	-0.195555	0.000099
C25	C	1.140311	-0.275900	0.000109
C26	C	1.137835	-0.406894	0.000102
C27	C	0.975048	-0.377185	0.000078
C28	C	0.977525	-0.246193	0.000078
C29	C	1.234295	-0.293054	0.000128
C30	C	1.231819	-0.424048	0.000121
C31	C	1.221159	0.164530	0.000113
C32	C	1.320470	0.167156	0.000117
C33	C	1.052577	0.403044	0.000094
C34	C	1.055206	0.542460	0.000092
N35	N	1.057663	0.173434	0.246758
N36	N	1.057709	0.173461	-0.246559
C37	C	1.117962	0.088185	0.296583
C38	C	1.117968	0.088184	0.396241
C39	C	1.057679	0.173440	0.446071
C40	C	0.997374	0.258693	0.396238
C41	C	0.997365	0.258687	0.296583
C42	C	0.997400	0.258702	0.603953
C43	C	0.997411	0.258710	0.703615
C44	C	1.118003	0.088200	0.703611
C45	C	1.117993	0.088193	0.603955
C46	C	1.057690	0.173448	0.554129
H47	H	0.634998	-0.032505	0.000120
O48	O	0.296118	0.404844	0.000119
H49	H	0.253116	0.409191	-0.064399
H50	H	0.948316	0.328133	0.744182
O51	O	0.932330	0.350624	0.242826
H52	H	0.944330	0.448559	0.261923
O53	O	1.278721	-0.479868	0.087886
H54	H	1.336171	-0.548209	0.066316
O55	O	1.183019	-0.003760	0.550209
H56	H	1.144982	-0.064876	0.504814
H57	H	0.907770	-0.418431	0.000061
O58	O	1.183003	-0.003758	0.449989
H59	H	1.226790	0.049222	0.495388
H60	H	0.912257	-0.180779	0.000056
O61	O	1.183042	-0.003767	0.757342
H62	H	1.172914	0.010544	0.835011
O63	O	0.819256	-0.057929	0.000092
H64	H	0.862238	-0.062277	0.064626
O65	O	0.777870	0.417609	0.000072
H66	H	0.722825	0.495871	0.000086
O67	O	0.337492	-0.070701	0.000148
H68	H	0.295457	-0.077316	-0.064379
O69	O	1.269446	-0.484928	-0.090418
H70	H	1.327704	-0.554212	-0.073006
H71	H	1.271062	-0.264085	-0.066121
O72	O	0.490074	0.409973	0.000086
H73	H	0.532120	0.416556	0.064608
H74	H	0.598884	0.382560	0.000084
H75	H	1.264216	-0.257753	0.068491
H76	H	1.167059	0.018765	0.256018
H77	H	0.948291	0.328122	0.563388
O78	O	0.932353	0.350661	0.449977
H79	H	0.888563	0.297708	0.495404
H80	H	0.516488	-0.035661	0.000116
