data_functionalizedCrystal
_audit_creation_method	'MofGen! by Chris Wilmer'
_symmetry_space_group_name_H-M	'P1'
_symmetry_Int_Tables_number	1
_symmetry_cell_setting	triclinic
loop_
_symmetry_equiv_pos_as_xyz
  x,y,z
_cell_length_a	19.805407
_cell_length_b	12.645330
_cell_length_c	19.805399
_cell_angle_alpha	90.021721
_cell_angle_beta	90.019573
_cell_angle_gamma	90.017692
loop_
_atom_site_label
_atom_site_type_symbol
_atom_site_fract_x
_atom_site_fract_y
_atom_site_fract_z
Zn1	Zn	1.034777	-0.422064	0.382747
Zn2	Zn	1.034709	-0.599342	0.269571
Zn3	Zn	0.921591	-0.422093	0.269572
Zn4	Zn	0.921572	-0.599286	0.382717
O5	O	0.978162	-0.510696	0.326152
O6	O	1.129484	-0.445592	0.367746
O7	O	1.019683	-0.575865	0.174854
O8	O	0.936642	-0.273742	0.284598
O9	O	1.129434	-0.575837	0.284596
O10	O	1.019799	-0.273721	0.367747
O11	O	0.936576	-0.445641	0.174855
O12	O	0.826872	-0.445587	0.284569
O13	O	0.936609	-0.575741	0.477438
O14	O	0.826858	-0.575769	0.367696
O15	O	1.019780	-0.445537	0.477460
O16	O	1.019664	-0.747682	0.284567
O17	O	0.936543	-0.747641	0.367695
C18	C	0.802306	-0.510676	0.326130
C19	C	0.727074	-0.510693	0.326137
C20	C	0.691740	-0.578581	0.369351
C21	C	0.621052	-0.578583	0.369361
C22	C	0.585699	-0.510701	0.326152
C23	C	0.621037	-0.442805	0.282935
C24	C	0.691725	-0.442799	0.282930
C25	C	0.335964	-0.442829	0.282958
C26	C	0.265272	-0.442843	0.282965
C27	C	0.265292	-0.578613	0.369388
C28	C	0.335979	-0.578606	0.369383
C29	C	0.371311	-0.510707	0.326169
C30	C	0.447960	-0.510705	0.326160
C31	C	0.509051	-0.510708	0.326157
C32	C	0.978113	-0.786126	0.326142
C33	C	0.978154	-0.903956	0.326161
C34	C	0.926078	-1.071538	0.378618
C35	C	0.925811	-0.948979	0.378450
C36	C	0.958847	-0.948544	0.254828
C37	C	0.958530	-1.071142	0.255147
C38	C	1.049854	-1.071047	0.344457
C39	C	1.049415	-0.948440	0.346017
C40	C	1.154705	-0.510717	0.326174
C41	C	1.229937	-0.510726	0.326184
C42	C	0.978200	-0.510629	0.502695
C43	C	0.978216	-0.510601	0.577927
C44	C	0.978230	-0.234191	0.326176
C45	C	0.978259	-0.116361	0.326186
C46	C	0.978163	-0.510686	0.150296
C47	C	0.978278	-0.510416	0.075064
C48	C	1.021524	-0.442800	0.613283
C49	C	1.021531	-0.442770	0.683972
C50	C	0.978233	-0.510546	0.719302
C51	C	0.934920	-0.578349	0.683941
C52	C	0.934910	-0.578374	0.613253
C53	C	0.934958	-0.578250	0.969014
C54	C	0.934973	-0.578223	1.039706
C55	C	1.021579	-0.442646	1.039732
C56	C	1.021570	-0.442671	0.969045
C57	C	0.978255	-0.510470	0.933690
C58	C	0.978247	-0.510501	0.857041
C59	C	0.978244	-0.510521	0.795949
H60	H	0.236515	-0.633895	0.404578
C61	C	1.069196	-0.368114	0.930181
C62	C	1.122317	-0.414069	0.881590
C63	C	1.169942	-0.339507	0.842727
C64	C	1.164445	-0.218989	0.852455
C65	C	1.111321	-0.173028	0.901048
C66	C	1.063697	-0.247590	0.939911
H67	H	1.126389	-0.503289	0.874387
H68	H	1.209267	-0.373531	0.806755
H69	H	1.199699	-0.163794	0.823686
H70	H	1.107250	-0.083808	0.908251
H71	H	1.024371	-0.213566	0.975883
C72	C	0.226381	-0.368163	0.235436
C73	C	0.265244	-0.293472	0.187904
C74	C	0.226353	-0.218798	0.140377
C75	C	0.148600	-0.218814	0.140382
C76	C	0.109733	-0.293507	0.187916
C77	C	0.148624	-0.368181	0.235443
H78	H	0.322805	-0.293458	0.187899
H79	H	0.255125	-0.163506	0.105190
H80	H	0.119810	-0.163536	0.105200
H81	H	0.052172	-0.293522	0.187921
H82	H	0.119852	-0.423474	0.270630
C83	C	0.854109	-0.909472	0.362094
C84	C	0.796915	-0.989477	0.349141
C85	C	0.725209	-0.949971	0.332784
C86	C	0.710699	-0.830459	0.329379
C87	C	0.767895	-0.750446	0.342331
C88	C	0.839601	-0.789953	0.358689
H89	H	0.807655	-1.077953	0.351662
H90	H	0.682869	-1.009202	0.323195
H91	H	0.657619	-0.801214	0.317270
H92	H	0.757155	-0.661970	0.339811
H93	H	0.881941	-0.730721	0.368278
C94	C	0.374816	-0.368162	0.235405
C95	C	0.365112	-0.247660	0.241038
C96	C	0.403964	-0.172996	0.193475
C97	C	0.452520	-0.218834	0.140279
C98	C	0.462226	-0.339343	0.134643
C99	C	0.423374	-0.414006	0.182206
H100	H	0.329166	-0.213722	0.280420
H101	H	0.396778	-0.083787	0.197648
H102	H	0.481280	-0.163564	0.105070
H103	H	0.498172	-0.373280	0.095262
H104	H	0.430560	-0.503215	0.178034
C105	C	0.730596	-0.368121	0.235394
C106	C	0.720896	-0.247621	0.241052
C107	C	0.759768	-0.172935	0.193519
C108	C	0.808339	-0.218750	0.140328
C109	C	0.818041	-0.339256	0.134668
C110	C	0.779169	-0.413942	0.182201
H111	H	0.684939	-0.213700	0.280429
H112	H	0.752586	-0.083728	0.197709
H113	H	0.837114	-0.163463	0.105141
H114	H	0.853998	-0.373177	0.095291
H115	H	0.786351	-0.503149	0.178011
H116	H	1.088731	-1.100032	0.306269
C117	C	0.942112	-0.908215	0.449900
C118	C	0.890811	-0.838432	0.487679
C119	C	0.907103	-0.797663	0.559132
C120	C	0.974695	-0.826676	0.592807
C121	C	1.026000	-0.896462	0.555028
C122	C	1.009709	-0.937231	0.483575
H123	H	0.840771	-0.816952	0.462751
H124	H	0.869123	-0.746002	0.587098
H125	H	0.986755	-0.796496	0.645700
H126	H	1.076040	-0.917942	0.579956
H127	H	1.047688	-0.988892	0.455609
C128	C	0.942236	-1.111281	0.450309
C129	C	0.897622	-1.077392	0.510188
C130	C	0.913781	-1.117145	0.581881
C131	C	0.974554	-1.190788	0.593696
C132	C	1.019173	-1.224682	0.533815
C133	C	1.003014	-1.184929	0.462122
H134	H	0.852630	-1.022873	0.501444
H135	H	0.880751	-1.092054	0.626208
H136	H	0.986516	-1.220216	0.646767
H137	H	1.064164	-1.279201	0.542560
H138	H	1.036044	-1.210019	0.417795
H139	H	0.592286	-0.633865	0.404549
C140	C	1.008558	-0.909150	0.200605
C141	C	1.067403	-0.835860	0.220516
C142	C	1.117115	-0.796464	0.166294
C143	C	1.107982	-0.830358	0.092162
C144	C	1.049135	-0.903651	0.072247
C145	C	0.999423	-0.943047	0.126469
H146	H	1.074165	-0.810767	0.275397
H147	H	1.160677	-0.742207	0.181036
H148	H	1.144782	-0.801194	0.052023
H149	H	1.042372	-0.928745	0.017367
H150	H	0.955861	-0.997304	0.111727
H151	H	0.899712	-0.633416	1.068470
H152	H	0.592247	-0.387530	0.247757
C153	C	0.888878	-0.907204	0.233539
C154	C	0.876655	-0.787439	0.226615
C155	C	0.806684	-0.746102	0.205330
C156	C	0.748937	-0.824530	0.190970
C157	C	0.761158	-0.944303	0.197894
C158	C	0.831129	-0.985640	0.219179
H159	H	0.919404	-0.729376	0.237245
H160	H	0.797637	-0.657439	0.200204
H161	H	0.697140	-0.793930	0.175214
H162	H	0.718409	-1.002367	0.187264
H163	H	0.840176	-1.074304	0.224305
C164	C	1.104685	-0.907036	0.298161
C165	C	1.163996	-0.841866	0.326444
C166	C	1.219254	-0.800463	0.278569
C167	C	1.215201	-0.824229	0.202412
C168	C	1.155887	-0.889403	0.174125
C169	C	1.100629	-0.930806	0.221999
H170	H	1.166999	-0.824270	0.382824
H171	H	1.263162	-0.752218	0.299510
H172	H	1.256106	-0.793580	0.166972
H173	H	1.152884	-0.906999	0.117745
H174	H	1.056721	-0.979051	0.201059
H175	H	1.067466	-1.101895	0.395589
C176	C	1.069095	-0.909055	0.416932
C177	C	1.020707	-0.836842	0.456644
C178	C	1.040386	-0.797448	0.527559
C179	C	1.108452	-0.830268	0.558760
C180	C	1.156843	-0.902485	0.519048
C181	C	1.137165	-0.941879	0.448133
H182	H	0.970317	-0.812544	0.433547
H183	H	1.004562	-0.743988	0.556956
H184	H	1.123019	-0.801106	0.611255
H185	H	1.207234	-0.926783	0.542145
H186	H	1.172988	-0.995339	0.418736
H187	H	0.899638	-0.633574	0.584467
C188	C	0.887319	-0.652837	0.930129
C189	C	0.839698	-0.727394	0.968993
C190	C	0.792057	-0.801986	0.930105
C191	C	0.792038	-0.802021	0.852352
C192	C	0.839660	-0.727461	0.813483
C193	C	0.887301	-0.652869	0.852371
H194	H	0.839711	-0.727371	1.026555
H195	H	0.756804	-0.857180	0.958879
H196	H	0.756771	-0.857239	0.823564
H197	H	0.839647	-0.727485	0.755921
H198	H	0.922555	-0.597675	0.823598
H199	H	0.720520	-0.633862	0.404534
H200	H	0.364760	-0.633886	0.404566
H201	H	0.873332	-1.102438	0.366668
H202	H	1.056846	-0.387437	1.068527
H203	H	0.906193	-1.099832	0.239669
H204	H	1.056785	-0.387612	0.584522
H205	H	0.994887	-1.100796	0.214749
H206	H	1.056799	-0.387562	0.712756
H207	H	0.899664	-0.633530	0.712712
