data_functionalizedCrystal
_audit_creation_method	'MofGen! by Chris Wilmer'
_symmetry_space_group_name_H-M	'P1'
_symmetry_Int_Tables_number	1
_symmetry_cell_setting	triclinic
loop_
_symmetry_equiv_pos_as_xyz
  x,y,z
_cell_length_a	18.101398
_cell_length_b	18.101397
_cell_length_c	18.101390
_cell_angle_alpha	90.035542
_cell_angle_beta	90.024681
_cell_angle_gamma	90.015732
loop_
_atom_site_label
_atom_site_type_symbol
_atom_site_fract_x
_atom_site_fract_y
_atom_site_fract_z
Zn1	Zn	1.132178	-0.294895	0.418825
Zn2	Zn	1.632178	0.205105	0.918825
Zn3	Zn	1.132096	-0.418752	0.294978
Zn4	Zn	1.632096	0.081248	0.794978
Zn5	Zn	1.008337	-0.294918	0.294986
Zn6	Zn	1.508337	0.205082	0.794986
Zn7	Zn	1.008311	-0.418689	0.418767
Zn8	Zn	1.508311	0.081311	0.918767
O9	O	1.070231	-0.356813	0.356889
O10	O	1.570231	0.143187	0.856889
O11	O	1.235800	-0.311341	0.402418
O12	O	1.735800	0.188659	0.902418
O13	O	1.115656	-0.402361	0.191346
O14	O	1.615656	0.097639	0.691346
O15	O	1.024809	-0.191282	0.311442
O16	O	1.524809	0.308718	0.811442
O17	O	1.235740	-0.402338	0.311428
O18	O	1.735740	0.097662	0.811428
O19	O	1.115795	-0.191265	0.402426
O20	O	1.615795	0.308735	0.902426
O21	O	1.024730	-0.311381	0.191352
O22	O	1.524730	0.188619	0.691352
O23	O	0.904700	-0.311320	0.311385
O24	O	1.404700	0.188680	0.811385
O25	O	1.024766	-0.402231	0.522407
O26	O	1.524766	0.097769	1.022407
O27	O	0.904682	-0.402254	0.402326
O28	O	1.404682	0.097746	0.902326
O29	O	1.115771	-0.311280	0.522450
O30	O	1.615771	0.188720	1.022450
O31	O	1.115631	-0.522376	0.311371
O32	O	1.615631	-0.022376	0.811371
O33	O	1.024686	-0.522330	0.402318
O34	O	1.524686	-0.022330	0.902318
C35	C	0.877820	-0.356783	0.356850
C36	C	1.377820	0.143217	0.856850
C37	C	0.795506	-0.356788	0.356851
C38	C	1.295506	0.143212	0.856851
C39	C	0.496415	-0.356835	0.356914
C40	C	0.996415	0.143165	0.856914
C41	C	0.527727	-0.299336	0.299975
C42	C	1.027727	0.200664	0.799975
C43	C	0.613345	-0.299490	0.299732
C44	C	1.113345	0.200510	0.799732
C45	C	0.644798	-0.356811	0.356883
C46	C	1.144798	0.143189	0.856883
C47	C	0.613694	-0.434824	0.335555
C48	C	1.113694	0.065176	0.835555
C49	C	0.528049	-0.434505	0.335159
C50	C	1.028049	0.065495	0.835159
C51	C	0.528026	-0.336998	0.435314
C52	C	1.028026	0.163002	0.935314
C53	C	0.613677	-0.335261	0.434886
C54	C	1.113677	0.164739	0.934886
C55	C	0.728657	-0.356802	0.356867
C56	C	1.228657	0.143198	0.856867
C57	C	0.412556	-0.356848	0.356928
C58	C	0.912556	0.143152	0.856928
C59	C	1.070167	-0.549224	0.356853
C60	C	1.570167	-0.049224	0.856853
C61	C	1.070208	-0.631538	0.356863
C62	C	1.570208	-0.131538	0.856863
C63	C	1.070302	-0.930629	0.356930
C64	C	1.570302	-0.430629	0.856930
C65	C	1.127363	-0.899302	0.299555
C66	C	1.627363	-0.399302	0.799555
C67	C	1.127560	-0.813684	0.299704
C68	C	1.627560	-0.313684	0.799704
C69	C	1.070256	-0.782246	0.356896
C70	C	1.570256	-0.282246	0.856896
C71	C	1.091412	-0.813249	0.434959
C72	C	1.591412	-0.313249	0.934959
C73	C	1.091854	-0.898894	0.434646
C74	C	1.591854	-0.398894	0.934646
C75	C	0.991933	-0.899133	0.336918
C76	C	1.491933	-0.399133	0.836918
C77	C	0.992321	-0.813484	0.335175
C78	C	1.492321	-0.313484	0.835175
C79	C	1.070228	-0.698387	0.356881
C80	C	1.570228	-0.198387	0.856881
C81	C	1.070332	-1.014488	0.356950
C82	C	1.570332	-0.514488	0.856950
C83	C	1.263392	-0.356844	0.356928
C84	C	1.763392	0.143156	0.856928
C85	C	1.345707	-0.356857	0.356945
C86	C	1.845707	0.143143	0.856945
C87	C	1.070275	-0.356746	0.550051
C88	C	1.570275	0.143254	1.050051
C89	C	1.070293	-0.356717	0.632365
C90	C	1.570293	0.143283	1.132365
C91	C	1.070314	-0.163652	0.356941
C92	C	1.570314	0.336348	0.856941
C93	C	1.070350	-0.081337	0.356964
C94	C	1.570350	0.418663	0.856964
C95	C	1.070229	-0.356827	0.164479
C96	C	1.570229	0.143173	0.664479
C97	C	1.070354	-0.356648	0.082165
C98	C	1.570354	0.143352	0.582165
C99	C	1.070333	-0.356671	0.931456
C100	C	1.570333	0.143329	1.431456
C101	C	1.127780	-0.299648	0.900158
C102	C	1.627780	0.200352	1.400158
C103	C	1.127600	-0.299437	0.814540
C104	C	1.627600	0.200563	1.314540
C105	C	1.070314	-0.356694	0.783074
C106	C	1.570314	0.143306	1.283074
C107	C	0.992293	-0.335484	0.814141
C108	C	1.492293	0.164516	1.314141
C109	C	0.992637	-0.335057	0.899787
C110	C	1.492637	0.164943	1.399787
C111	C	1.090221	-0.435050	0.899867
C112	C	1.590221	0.064950	1.399867
C113	C	1.091933	-0.434650	0.814217
C114	C	1.591933	0.065350	1.314217
C115	C	1.070299	-0.356708	0.699214
C116	C	1.570299	0.143292	1.199214
C117	C	1.070344	-0.356655	1.015316
C118	C	1.570344	0.143345	1.515316
H119	H	0.508040	-0.451326	0.277844
H120	H	1.008040	0.048674	0.777844
H121	H	0.507146	-0.241309	0.313197
H122	H	1.007146	0.258691	0.813197
H123	H	1.185612	-0.793144	0.312946
H124	H	1.685612	-0.293144	0.812946
H125	H	1.149349	-0.450643	0.793911
H126	H	1.649349	0.049357	1.293911
H127	H	1.185097	-0.920774	0.312645
H128	H	1.685097	-0.420774	0.812645
H129	H	1.052114	-0.919613	0.478868
H130	H	1.552114	-0.419613	0.978868
H131	H	0.975780	-0.277762	0.919779
H132	H	1.475780	0.222238	1.419779
H133	H	0.506444	-0.281101	0.454705
H134	H	1.006444	0.218899	0.954705
H135	H	0.947519	-0.792092	0.373903
H136	H	1.447519	-0.292092	0.873903
H137	H	1.053135	-0.479419	0.792794
H138	H	1.553135	0.020581	1.292794
C139	C	1.167938	-0.784205	0.458244
C140	C	1.667938	-0.284205	0.958244
N141	N	1.225579	-0.762332	0.475778
N142	N	1.725579	-0.262332	0.975778
H143	H	0.507335	-0.478797	0.374821
H144	H	1.007335	0.021203	0.874821
H145	H	1.149138	-0.918816	0.451597
H146	H	1.649138	-0.418816	0.951597
C147	C	0.965935	-0.928393	0.261346
C148	C	1.465935	-0.428393	0.761346
N149	N	0.946362	-0.950432	0.204422
N150	N	1.446362	-0.450432	0.704422
H151	H	1.048383	-0.477538	0.920111
H152	H	1.548383	0.022462	1.420111
H153	H	1.114324	-0.792726	0.241822
H154	H	1.614324	-0.292726	0.741822
C155	C	0.641758	-0.221334	0.317783
C156	C	1.141758	0.278666	0.817783
N157	N	0.663154	-0.162463	0.331375
N158	N	1.163154	0.337537	0.831375
C159	C	0.640983	-0.317210	0.221251
C160	C	1.140983	0.182790	0.721251
N161	N	0.661799	-0.330561	0.162135
N162	N	1.161799	0.169439	0.662135
C163	C	0.498607	-0.316841	0.221951
C164	C	0.998607	0.183159	0.721951
N165	N	0.476670	-0.330027	0.163184
N166	N	0.976670	0.169973	0.663184
C167	C	0.642598	-0.387719	0.495271
C168	C	1.142598	0.112281	0.995271
N169	N	0.664378	-0.427238	0.540751
N170	N	1.164378	0.072762	1.040751
C171	C	1.036988	-0.785731	0.494267
C172	C	1.536988	-0.285731	0.994267
N173	N	0.995995	-0.765002	0.538937
N174	N	1.495995	-0.265002	1.038937
C175	C	0.932896	-0.389858	0.786596
C176	C	1.432896	0.110142	1.286596
N177	N	0.888158	-0.430812	0.765846
N178	N	1.388158	0.069188	1.265846
H179	H	0.975129	-0.278826	0.792704
H180	H	1.475129	0.221174	1.292704
C181	C	0.970762	-0.786111	0.257570
C182	C	1.470762	-0.286111	0.757570
N183	N	0.954525	-0.765487	0.199119
N184	N	1.454525	-0.265487	0.699119
C185	C	1.206197	-0.317374	0.927991
C186	C	1.706197	0.182626	1.427991
N187	N	1.265263	-0.330729	0.948956
N188	N	1.765263	0.169271	1.448956
H189	H	1.114287	-0.919949	0.241500
H190	H	1.614287	-0.419949	0.741500
C191	C	0.934498	-0.926505	0.393369
C192	C	1.434498	-0.426505	0.893369
N193	N	0.891243	-0.947126	0.435890
N194	N	1.391243	-0.447126	0.935890
H195	H	0.634067	-0.478814	0.375728
H196	H	1.134067	0.021186	0.875728
H197	H	0.634010	-0.277852	0.450968
H198	H	1.134010	0.222148	0.950968
C199	C	0.500668	-0.393573	0.492629
C200	C	1.000668	0.106427	0.992629
N201	N	0.480056	-0.436186	0.535792
N202	N	0.980056	0.063814	1.035792
C203	C	1.205766	-0.317349	0.786163
C204	C	1.705766	0.182651	1.286163
N205	N	1.264646	-0.330830	0.764794
N206	N	1.764646	0.169170	1.264794
H207	H	1.114781	-0.241908	0.921697
H208	H	1.614781	0.258092	1.421697
H209	H	1.114435	-0.241372	0.794069
H210	H	1.614435	0.258628	1.294069
H211	H	0.635111	-0.451937	0.278859
H212	H	1.135111	0.048063	0.778859
H213	H	0.948379	-0.374782	0.920488
H214	H	1.448379	0.125218	1.420488
C215	C	1.165765	-0.461109	0.929057
C216	C	1.665765	0.038891	1.429057
N217	N	1.222669	-0.480728	0.951044
N218	N	1.722669	0.019272	1.451044
