data_functionalizedCrystal
_audit_creation_method	'MofGen! by Chris Wilmer'
_symmetry_space_group_name_H-M	'P1'
_symmetry_Int_Tables_number	1
_symmetry_cell_setting	triclinic
loop_
_symmetry_equiv_pos_as_xyz
  x,y,z
_cell_length_a	12.837932
_cell_length_b	10.489716
_cell_length_c	11.295483
_cell_angle_alpha	94.140629
_cell_angle_beta	85.460332
_cell_angle_gamma	89.679419
loop_
_atom_site_label
_atom_site_type_symbol
_atom_site_fract_x
_atom_site_fract_y
_atom_site_fract_z
O1	O	1.384833	0.324149	-0.099007
O2	O	1.082906	0.307752	-0.099010
O3	O	1.240753	0.131109	-0.099012
O4	O	1.226985	0.500792	-0.099004
O5	O	1.226889	0.146598	0.099039
O6	O	1.069042	0.323240	0.099041
O7	O	1.370968	0.339638	0.099044
Cu8	Cu	1.218739	0.332853	0.117126
Cu9	Cu	1.235135	0.314536	-0.117092
O10	O	1.213121	0.516280	0.099047
C11	C	1.037312	0.309958	0.000015
C12	C	0.922113	0.293439	0.000014
C13	C	0.771249	0.155372	0.000013
C14	C	0.879490	0.170884	0.000013
C15	C	0.856486	0.400488	0.000019
C16	C	0.748245	0.384975	0.000019
C17	C	0.705631	0.262413	0.000014
C18	C	0.597389	0.246901	0.000006
C19	C	0.574386	0.476504	0.000020
C20	C	0.682627	0.492017	0.000020
C21	C	1.232787	0.091207	0.000009
C22	C	1.229693	-0.050766	-0.000001
C23	C	1.326489	-0.137766	0.000010
C24	C	1.282175	-0.228403	-0.097637
C25	C	1.268483	-0.213099	0.097626
C26	C	1.185425	-0.139539	-0.097729
C27	C	1.171742	-0.124221	0.097622
C28	C	1.127358	-0.214819	-0.000049
C29	C	1.416562	0.337432	0.000017
C30	C	1.531762	0.353950	0.000010
C31	C	1.221088	0.556182	0.000023
C32	C	1.224182	0.698155	0.000026
N33	N	1.207215	0.345736	0.281863
N34	N	1.246668	0.301644	-0.281828
C35	C	1.329628	0.208832	0.531150
C36	C	1.320926	0.218578	0.655814
C37	C	1.181105	0.374967	0.655857
C38	C	1.189807	0.365221	0.531193
C39	C	1.264071	0.282152	0.468844
C40	C	1.272778	0.272414	0.344178
C41	C	1.132952	0.428795	0.344223
C42	C	1.124250	0.438541	0.468887
H43	H	0.562695	0.147104	-0.000003
H44	H	1.328815	-0.273849	-0.180191
N45	N	1.348618	0.187559	0.280469
N46	N	1.356378	0.178862	0.169163
H47	H	1.409940	0.118927	0.124168
H48	H	1.125136	-0.078748	0.180179
H49	H	0.891201	0.500274	0.000033
N50	N	1.312494	-0.253892	0.201195
N51	N	1.316424	-0.370186	0.218229
H52	H	1.347512	-0.398996	0.291370
H53	H	1.374307	0.158872	0.706540
N54	N	0.946503	0.061532	0.000022
N55	N	0.908435	-0.047885	0.000025
H56	H	0.955762	-0.125122	0.000035
N57	N	1.432123	-0.095184	-0.000118
N58	N	1.497272	-0.131400	-0.084095
H59	H	1.571876	-0.101327	-0.084191
N60	N	1.048381	0.523381	0.532564
N61	N	0.953442	0.508824	0.518658
H62	H	0.899856	0.568744	0.563628
H63	H	1.150371	-0.107201	-0.180373
H64	H	0.717338	0.591805	0.000028
H65	H	0.520947	0.563665	0.000020
N66	N	1.405395	0.123855	0.467474
N67	N	1.463860	0.058313	0.523120
H68	H	1.517335	-0.001757	0.478151
H69	H	1.079575	0.488501	0.293479
N70	N	0.727732	0.030175	-0.000010
N71	N	0.786333	-0.065391	-0.000023
H72	H	0.755601	-0.153815	-0.000040
N73	N	1.021659	-0.257119	-0.000122
N74	N	0.968270	-0.233825	-0.084042
H75	H	0.893620	-0.263700	-0.084100
H76	H	1.120633	0.442590	0.706637
