data_functionalizedCrystal
_audit_creation_method	'MofGen! by Chris Wilmer'
_symmetry_space_group_name_H-M	'P1'
_symmetry_Int_Tables_number	1
_symmetry_cell_setting	triclinic
loop_
_symmetry_equiv_pos_as_xyz
  x,y,z
_cell_length_a	19.319731
_cell_length_b	19.318970
_cell_length_c	19.315557
_cell_angle_alpha	60.007379
_cell_angle_beta	60.014690
_cell_angle_gamma	59.991495
loop_
_atom_site_label
_atom_site_type_symbol
_atom_site_fract_x
_atom_site_fract_y
_atom_site_fract_z
O1	O	0.095954	-1.011347	0.845684
O2	O	0.036156	-0.787405	0.681392
O3	O	0.177960	-0.929104	0.681276
O4	O	-0.045850	-0.869648	0.845799
O5	O	0.225008	-0.882072	0.728208
O6	O	0.083204	-0.740373	0.728324
O7	O	0.143002	-0.964315	0.892616
Cu8	Cu	0.117399	-0.848050	0.814755
Cu9	Cu	0.061759	-0.903670	0.759252
O10	O	0.001198	-0.822616	0.892732
N11	N	0.156535	-0.808935	0.853797
N12	N	0.022631	-0.942793	0.720211
C13	C	0.182113	-0.653200	0.879374
C14	C	0.182221	-0.783395	1.009518
C15	C	0.312319	-0.783375	0.879314
C16	C	0.182127	-0.783371	0.879357
C17	C	0.214696	-0.750836	0.911890
C18	C	-0.132988	-0.968144	0.694232
C19	C	-0.002674	-0.968326	0.564242
C20	C	-0.002907	-1.098444	0.694459
C21	C	-0.002887	-0.968321	0.694542
C22	C	-0.035363	-1.000810	0.661869
N23	N	0.389025	-0.808944	0.853717
O24	O	0.660019	-0.816766	0.651282
O25	O	0.660312	-0.981573	0.874999
O26	O	0.660193	-0.981192	0.733108
O27	O	0.660138	-0.817147	0.793174
O28	O	0.519202	-0.934278	0.780210
O29	O	0.519321	-0.934658	0.922102
O30	O	0.519028	-0.769852	0.698384
Cu31	Cu	0.506300	-0.847971	0.814544
Cu32	Cu	0.673039	-0.903453	0.758840
O33	O	0.519147	-0.770232	0.840276
N34	N	0.790314	-0.942480	0.719658
N35	N	0.156514	-0.576494	0.853827
O36	O	-0.045823	-0.305328	0.845846
O37	O	0.177892	-0.305317	0.681053
O38	O	0.035967	-0.305340	0.681465
O39	O	0.096102	-0.305306	0.845434
O40	O	0.083020	-0.446347	0.728459
O41	O	0.224945	-0.446325	0.728047
O42	O	0.001230	-0.446335	0.892839
Cu43	Cu	0.117383	-0.459205	0.814734
Cu44	Cu	0.061738	-0.292448	0.759159
O45	O	0.143154	-0.446313	0.892428
N46	N	0.022597	-0.175159	0.720067
N47	N	0.156703	-0.808977	1.086224
O48	O	0.148753	-1.011298	1.357359
O49	O	-0.016009	-0.787491	1.357400
O50	O	-0.015627	-0.929387	1.357339
O51	O	0.148372	-0.869401	1.357420
O52	O	0.031342	-0.882367	1.216340
O53	O	0.030961	-0.740471	1.216400
O54	O	0.195723	-0.964278	1.216360
Cu55	Cu	0.117631	-0.848081	1.203506
Cu56	Cu	0.062083	-0.903688	1.370254
O57	O	0.195341	-0.822381	1.216420
N58	N	0.023010	-0.942801	1.487536
C59	C	0.054075	-0.735670	0.682223
C60	C	0.229681	-0.911148	0.682079
C61	C	0.125082	-1.016051	0.891784
C62	C	-0.050524	-0.840572	0.891928
C63	C	0.589851	-0.980810	0.926735
C64	C	0.589706	-0.980340	0.751019
C65	C	0.589484	-0.770613	0.646650
C66	C	0.589634	-0.771085	0.822364
C67	C	0.229543	-0.375646	0.681799
C68	C	0.053845	-0.375847	0.682366
C69	C	-0.050480	-0.375832	0.892036
C70	C	0.125277	-0.375807	0.891527
C71	C	-0.015214	-0.735785	1.286905
C72	C	-0.014732	-0.911497	1.286802
C73	C	0.194928	-1.015984	1.286855
C74	C	0.194457	-0.840261	1.286926
H75	H	0.041301	-0.671339	0.630625
C76	C	-0.136151	-0.823757	0.960943
C77	C	-0.124992	-0.833231	1.031841
C78	C	-0.203850	-0.817759	1.095439
H79	H	-0.171795	-0.767648	0.940506
H80	H	-0.161565	-0.862958	0.976441
H81	H	-0.099590	-0.794030	1.016344
H82	H	-0.089362	-0.889335	1.052303
H83	H	-0.229264	-0.856961	1.110937
H84	H	-0.239488	-0.761650	1.074993
H85	H	-0.196288	-0.824193	1.143553
C86	C	0.263876	-1.101682	1.286705
C87	C	0.283347	-1.116715	1.214154
C88	C	0.346849	-1.195655	1.213991
H89	H	0.313151	-1.101872	1.286677
H90	H	0.244460	-1.144850	1.335835
H91	H	0.302766	-1.073559	1.165037
H92	H	0.234091	-1.116542	1.214166
H93	H	0.327433	-1.238822	1.263122
H94	H	0.396119	-1.195837	1.213966
H95	H	0.360063	-1.205868	1.164771
C96	C	-0.136222	-0.375646	0.960934
C97	C	-0.199649	-0.303091	0.932086
C98	C	-0.278644	-0.302880	0.995536
H99	H	-0.146691	-0.424762	0.974337
H100	H	-0.136318	-0.375588	1.010139
H101	H	-0.199554	-0.303157	0.882896
H102	H	-0.189208	-0.253964	0.918689
H103	H	-0.278740	-0.302822	1.044741
H104	H	-0.289104	-0.351999	1.008935
H105	H	-0.321687	-0.253649	0.975975
H106	H	0.137858	-1.080380	0.943384
C107	C	0.142623	-0.375856	0.960129
C108	C	0.225396	-0.375876	0.929383
C109	C	0.241410	-0.375939	0.992561
H110	H	0.103594	-0.326702	0.975627
H111	H	0.136380	-0.425054	1.008341
H112	H	0.231632	-0.326684	0.881186
H113	H	0.264442	-0.425026	0.913891
H114	H	0.235167	-0.425137	1.040773
H115	H	0.202377	-0.326785	1.008055
H116	H	0.297575	-0.375961	0.971712
C117	C	0.590095	-1.049924	1.012322
C118	C	0.662662	-1.120801	1.001085
C119	C	0.662912	-1.184489	1.079906
H120	H	0.590154	-1.029565	1.048014
H121	H	0.540982	-1.065417	1.037717
H122	H	0.711763	-1.105309	0.975703
H123	H	0.662618	-1.141185	0.965407
H124	H	0.613798	-1.199982	1.105300
H125	H	0.662969	-1.164122	1.115591
H126	H	0.712143	-1.232589	1.072291
C127	C	0.589776	-1.049183	0.734036
C128	C	0.589902	-1.121821	0.806341
C129	C	0.589977	-1.185259	0.790724
H130	H	0.540595	-1.029737	0.720645
H131	H	0.638935	-1.062398	0.687789
H132	H	0.540747	-1.108606	0.852573
H133	H	0.639079	-1.141292	0.819744
H134	H	0.639137	-1.198475	0.744478
H135	H	0.540796	-1.165806	0.777332
H136	H	0.590070	-1.234554	0.839777
C137	C	0.589788	-0.702395	0.839392
C138	C	0.662280	-0.679765	0.781625
C139	C	0.662458	-0.616501	0.797292
H140	H	0.540641	-0.654127	0.833096
H141	H	0.589897	-0.723108	0.895502
H142	H	0.662163	-0.659050	0.725528
H143	H	0.711439	-0.728014	0.787911
H144	H	0.662567	-0.637214	0.853402
H145	H	0.613308	-0.568239	0.790997
H146	H	0.711647	-0.601144	0.758105
C147	C	0.315072	-0.375072	0.612730
C148	C	0.367365	-0.374878	0.643033
C149	C	0.446155	-0.374338	0.579427
H150	H	0.340743	-0.424122	0.597053
H151	H	0.307373	-0.325773	0.564706
H152	H	0.375065	-0.424172	0.691042
H153	H	0.341720	-0.325831	0.658704
H154	H	0.438457	-0.325038	0.531403
H155	H	0.471819	-0.423389	0.563754
H156	H	0.481643	-0.374198	0.599976
C157	C	0.589402	-0.701737	0.560915
C158	C	0.589394	-0.732128	0.508578
C159	C	0.589328	-0.668707	0.429590
H160	H	0.540219	-0.653544	0.568267
H161	H	0.638559	-0.686302	0.535477
H162	H	0.540242	-0.747550	0.534011
H163	H	0.638574	-0.780313	0.501201
H164	H	0.638485	-0.653273	0.404152
H165	H	0.540144	-0.620518	0.436951
H166	H	0.589331	-0.689321	0.394067
H167	H	-0.066941	-0.671507	1.286916
H168	H	-0.066232	-0.924309	1.286721
H169	H	0.040966	-0.375849	0.630853
C170	C	0.315321	-0.927891	0.613062
C171	C	0.315297	-0.855451	0.540556
C172	C	0.394169	-0.870847	0.476957
H173	H	0.358520	-0.941277	0.632409
H174	H	0.325634	-0.974082	0.599744
H175	H	0.304993	-0.809274	0.553873
H176	H	0.272116	-0.842053	0.521184
H177	H	0.404482	-0.917038	0.463639
H178	H	0.437361	-0.884234	0.496312
H179	H	0.394160	-0.821703	0.427752
C180	C	0.263067	-0.822979	1.286901
C181	C	0.232335	-0.740198	1.286902
C182	C	0.295518	-0.724243	1.286868
H183	H	0.278567	-0.862020	1.336055
H184	H	0.311274	-0.829255	1.237709
H185	H	0.184144	-0.733929	1.336089
H186	H	0.216841	-0.701139	1.237752
H187	H	0.343725	-0.730519	1.237676
H188	H	0.311014	-0.763289	1.336022
H189	H	0.274678	-0.668073	1.286860
