data_functionalizedCrystal
_audit_creation_method	'MofGen! by Chris Wilmer'
_symmetry_space_group_name_H-M	'P1'
_symmetry_Int_Tables_number	1
_symmetry_cell_setting	triclinic
loop_
_symmetry_equiv_pos_as_xyz
  x,y,z
_cell_length_a	17.019383
_cell_length_b	12.837942
_cell_length_c	11.295483
_cell_angle_alpha	85.469583
_cell_angle_beta	82.036179
_cell_angle_gamma	90.898633
loop_
_atom_site_label
_atom_site_type_symbol
_atom_site_fract_x
_atom_site_fract_y
_atom_site_fract_z
O1	O	1.066670	-0.117430	-0.208298
O2	O	1.400003	0.215904	0.125036
O3	O	1.733336	0.549237	0.458369
O4	O	0.837135	-0.135911	-0.184786
O5	O	1.170469	0.197422	0.148548
O6	O	1.503802	0.530756	0.481881
O7	O	0.946812	0.024188	-0.196013
O8	O	1.280146	0.357521	0.137320
O9	O	1.613479	0.690855	0.470654
O10	O	0.956993	-0.277529	-0.197070
O11	O	1.290326	0.055805	0.136263
O12	O	1.623659	0.389138	0.469596
O13	O	0.937178	0.010148	0.003024
O14	O	1.270511	0.343481	0.336357
O15	O	1.603844	0.676814	0.669691
O16	O	0.827500	-0.149951	0.014251
O17	O	1.160834	0.183382	0.347585
O18	O	1.494167	0.516715	0.680918
O19	O	1.057035	-0.131470	-0.009261
O20	O	1.390368	0.201863	0.324073
O21	O	1.723702	0.535197	0.657406
Cu22	Cu	0.941388	-0.141993	0.020669
Cu23	Cu	1.274721	0.191341	0.354002
Cu24	Cu	1.608055	0.524674	0.687336
Cu25	Cu	0.952782	-0.125388	-0.214715
Cu26	Cu	1.286116	0.207945	0.118618
Cu27	Cu	1.619449	0.541278	0.451951
O28	O	0.947358	-0.291569	0.001967
O29	O	1.280691	0.041764	0.335300
O30	O	1.614024	0.375098	0.668633
C31	C	0.802734	-0.142504	-0.082237
C32	C	1.136068	0.190829	0.251097
C33	C	1.469401	0.524162	0.584430
C34	C	0.714584	-0.141220	-0.073207
C35	C	1.047918	0.192113	0.260126
C36	C	1.381251	0.525446	0.593460
C37	C	0.678415	-0.132967	-0.177451
C38	C	1.011749	0.200367	0.155882
C39	C	1.345082	0.533700	0.489216
C40	C	0.595588	-0.131778	-0.168949
C41	C	0.928921	0.201555	0.164384
C42	C	1.262254	0.534889	0.497717
C43	C	0.548930	-0.138835	-0.056202
C44	C	0.882264	0.194498	0.277131
C45	C	1.215597	0.527831	0.610465
C46	C	0.585105	-0.147093	0.048050
C47	C	0.918438	0.186241	0.381383
C48	C	1.251771	0.519574	0.714716
C49	C	0.667931	-0.148289	0.039547
C50	C	1.001264	0.185045	0.372880
C51	C	1.334597	0.518378	0.706213
C52	C	0.298587	-0.135614	-0.025101
C53	C	0.631920	0.197720	0.308233
C54	C	0.965253	0.531053	0.641566
C55	C	0.215755	-0.134414	-0.016605
C56	C	0.549089	0.198920	0.316728
C57	C	0.882422	0.532253	0.650061
C58	C	0.226244	-0.119101	-0.233605
C59	C	0.559577	0.214232	0.099728
C60	C	0.892911	0.547566	0.433061
C61	C	0.309071	-0.120291	-0.242099
C62	C	0.642405	0.213042	0.091235
C63	C	0.975738	0.546375	0.424568
C64	C	0.345238	-0.128554	-0.137847
C65	C	0.678572	0.204779	0.195487
C66	C	1.011905	0.538113	0.528820
C67	C	0.464267	-0.137617	-0.047509
C68	C	0.797600	0.195716	0.285824
C69	C	1.130934	0.529050	0.619157
C70	C	0.429900	-0.129780	-0.146541
C71	C	0.763233	0.203554	0.186793
C72	C	1.096567	0.536887	0.520126
C73	C	0.938556	0.055759	-0.096143
C74	C	1.271890	0.389092	0.237191
C75	C	1.605223	0.722425	0.570524
C76	C	0.928300	0.170747	-0.095094
C77	C	1.261634	0.504081	0.238239
C78	C	1.594967	0.837414	0.571572
C79	C	1.091436	-0.124877	-0.111812
C80	C	1.424769	0.208457	0.221521
C81	C	1.758103	0.541790	0.554855
C82	C	1.179586	-0.126160	-0.120850
C83	C	1.512920	0.207173	0.212484
C84	C	1.846253	0.540507	0.545817
C85	C	0.955614	-0.323140	-0.097906
C86	C	1.288947	0.010194	0.235427
C87	C	1.622281	0.343527	0.568761
C88	C	0.965870	-0.438128	-0.098962
C89	C	1.299204	-0.104794	0.234371
C90	C	1.632537	0.228539	0.567704
N91	N	0.933380	-0.153671	0.186225
N92	N	1.266713	0.179663	0.519559
N93	N	1.600046	0.512996	0.852892
C94	C	1.051597	0.412772	-0.107749
C95	C	1.384930	0.746105	0.225585
C96	C	1.718264	1.079438	0.558918
C97	C	1.041964	0.520815	-0.106764
C98	C	1.375298	0.854148	0.226569
C99	C	1.708631	1.187481	0.559903
C100	C	0.899404	0.494879	-0.092149
C101	C	1.232737	0.828212	0.241185
C102	C	1.566070	1.161545	0.574518
C103	C	0.909036	0.386836	-0.093133
C104	C	1.242370	0.720169	0.240200
C105	C	1.575703	1.053502	0.573533
C106	C	0.985135	0.345787	-0.100932
C107	C	1.318469	0.679120	0.232401
C108	C	1.651802	1.012453	0.565735
C109	C	0.994767	0.237741	-0.101908
C110	C	1.328100	0.571074	0.231425
C111	C	1.661434	0.904408	0.564759
C112	C	0.852207	0.211808	-0.087301
C113	C	1.185541	0.545141	0.246032
C114	C	1.518874	0.878474	0.579365
C115	C	0.842575	0.319851	-0.086317
C116	C	1.175908	0.653184	0.247017
C117	C	1.509241	0.986517	0.580350
N118	N	0.960796	-0.113702	-0.380272
N119	N	1.294130	0.219631	-0.046939
N120	N	1.627463	0.552964	0.286395
C121	C	1.018441	-0.029580	0.426807
C122	C	1.351774	0.303753	0.760141
C123	C	1.685107	0.637086	1.093474
C124	C	1.012395	-0.038413	0.552090
C125	C	1.345728	0.294921	0.885423
C126	C	1.679062	0.628254	1.218757
C127	C	0.915238	-0.180162	0.562076
C128	C	1.248572	0.153171	0.895409
C129	C	1.581905	0.486505	1.228742
C130	C	0.921284	-0.171330	0.436793
C131	C	1.254618	0.162004	0.770126
C132	C	1.587951	0.495337	1.103460
C133	C	0.972888	-0.096037	0.369163
C134	C	1.306221	0.237296	0.702496
C135	C	1.639555	0.570629	1.035830
C136	C	0.978938	-0.087211	0.243878
C137	C	1.312271	0.246123	0.577211
C138	C	1.645604	0.579456	0.910544
C139	C	0.881777	-0.228954	0.253866
C140	C	1.215110	0.104379	0.587199
C141	C	1.548444	0.437712	0.920533
C142	C	0.875731	-0.237787	0.379149
C143	C	1.209065	0.095546	0.712482
C144	C	1.542398	0.428880	1.045815
H145	H	0.177768	-0.140190	0.075211
H146	H	0.511101	0.193143	0.408545
H147	H	0.844434	0.526476	0.741878
Cl148	Cl	0.746913	0.371467	-0.076524
Cl149	Cl	1.080247	0.704800	0.256810
Cl150	Cl	1.413580	1.038134	0.590143
H151	H	0.426270	-0.143360	0.044290
H152	H	0.759603	0.189973	0.377623
H153	H	1.092936	0.523306	0.710957
H154	H	0.547109	-0.152845	0.139851
H155	H	0.880443	0.180488	0.473184
H156	H	1.213776	0.513821	0.806518
Cl157	Cl	0.768650	0.127590	-0.078716
Cl158	Cl	1.101983	0.460923	0.254618
Cl159	Cl	1.435316	0.794256	0.587951
H160	H	0.328024	-0.142335	0.059789
H161	H	0.661357	0.190999	0.393122
H162	H	0.994690	0.524332	0.726456
H163	H	0.566143	-0.125057	-0.253836
H164	H	0.899477	0.208276	0.079497
H165	H	1.232810	0.541610	0.412831
H166	H	0.844687	-0.283071	0.206918
H167	H	1.178021	0.050262	0.540251
H168	H	1.511354	0.383595	0.873585
Cl169	Cl	1.043812	0.007439	0.158859
Cl170	Cl	1.377145	0.340772	0.492193
Cl171	Cl	1.710479	0.674106	0.825526
H172	H	1.060464	0.031719	0.371741
H173	H	1.393798	0.365052	0.705075
H174	H	1.727131	0.698385	1.038408
Cl175	Cl	0.810859	-0.332433	0.464177
Cl176	Cl	1.144192	0.000900	0.797511
Cl177	Cl	1.477526	0.334233	1.130844
Cl178	Cl	0.713400	-0.158670	0.170602
Cl179	Cl	1.046733	0.174663	0.503936
Cl180	Cl	1.380066	0.507997	0.837269
Cl181	Cl	1.090432	0.186137	-0.111704
Cl182	Cl	1.423766	0.519470	0.221630
Cl183	Cl	1.757099	0.852803	0.554963
H184	H	1.049488	0.015704	0.599020
H185	H	1.382821	0.349038	0.932353
H186	H	1.716154	0.682371	1.265687
H187	H	0.716399	-0.127216	-0.269262
H188	H	1.049732	0.206117	0.064071
H189	H	1.383065	0.539450	0.397405
H190	H	1.096085	0.575351	-0.112319
H191	H	1.429418	0.908685	0.221015
H192	H	1.762752	1.242018	0.554348
H193	H	0.837448	0.528321	-0.085812
H194	H	1.170781	0.861655	0.247521
H195	H	1.504115	1.194988	0.580854
Cl196	Cl	1.147260	0.361161	-0.117522
Cl197	Cl	1.480593	0.694494	0.215811
Cl198	Cl	1.813926	1.027827	0.549144
H199	H	0.467892	-0.124040	-0.238339
H200	H	0.801225	0.209294	0.094994
H201	H	1.134558	0.542627	0.428328
Cl202	Cl	0.850360	-0.274799	0.647109
Cl203	Cl	1.183693	0.058534	0.980442
Cl204	Cl	1.517027	0.391868	1.313775
H205	H	0.347055	-0.114537	-0.333909
H206	H	0.680388	0.218796	-0.000576
H207	H	1.013722	0.552130	0.332758
H208	H	0.196788	-0.112376	-0.318481
H209	H	0.530121	0.220957	0.014852
H210	H	0.863455	0.554290	0.348185
