data_functionalizedCrystal
_audit_creation_method	'MofGen! by Chris Wilmer'
_symmetry_space_group_name_H-M	'P1'
_symmetry_Int_Tables_number	1
_symmetry_cell_setting	triclinic
loop_
_symmetry_equiv_pos_as_xyz
  x,y,z
_cell_length_a	10.654562
_cell_length_b	27.731996
_cell_length_c	9.730223
_cell_angle_alpha	90.007260
_cell_angle_beta	90.003039
_cell_angle_gamma	83.555745
loop_
_atom_site_label
_atom_site_type_symbol
_atom_site_fract_x
_atom_site_fract_y
_atom_site_fract_z
O1	O	1.664937	0.067915	0.114400
O2	O	1.299186	0.074376	0.114385
O3	O	1.493455	0.000818	0.114363
O4	O	1.470668	0.141473	0.114422
O5	O	1.493452	0.000820	-0.114216
O6	O	1.299183	0.074378	-0.114195
O7	O	1.664934	0.067916	-0.114180
Zn8	Zn	1.482059	0.071147	-0.150479
Zn9	Zn	1.482062	0.071145	0.150685
O10	O	1.470665	0.141474	-0.114158
C11	C	1.252407	0.073901	0.000093
C12	C	1.113025	0.072478	0.000086
C13	C	1.047521	0.071815	-0.124503
C14	C	0.916556	0.070482	-0.124480
C15	C	0.916608	0.070476	0.124730
C16	C	1.047573	0.071806	0.124706
C17	C	1.112973	0.072487	-0.249123
C18	C	1.047469	0.071825	-0.373722
C19	C	0.916504	0.070491	-0.373700
C20	C	0.851042	0.069820	-0.249079
C21	C	1.492985	-0.017192	0.000069
C22	C	1.491576	-0.070857	0.000055
C23	C	1.482706	-0.403629	0.124720
C24	C	1.477352	-0.605321	0.124744
O25	O	1.476607	-0.631397	0.230712
N26	N	1.476686	-0.630541	0.000147
C27	C	1.477350	-0.605335	-0.124466
O28	O	1.476647	-0.631414	-0.230444
C29	C	1.482695	-0.403644	-0.124489
C30	C	1.483374	-0.378427	0.000117
C31	C	1.483384	-0.378412	0.249316
C32	C	1.484729	-0.327993	0.249309
C33	C	1.485397	-0.302790	0.124706
C34	C	1.484719	-0.328007	0.000110
C35	C	1.483350	-0.378438	-0.249100
C36	C	1.484683	-0.328012	-0.249094
C37	C	1.485362	-0.302795	-0.124488
C38	C	1.486732	-0.252385	-0.124500
N39	N	1.487398	-0.227165	0.000098
C40	C	1.486731	-0.252367	0.124701
C41	C	1.474546	-0.711226	-0.124445
C42	C	1.473212	-0.761649	-0.124440
C43	C	1.473212	-0.761631	0.124771
C44	C	1.474555	-0.711208	0.124764
C45	C	1.475212	-0.686006	0.000152
C46	C	1.489557	-0.146483	0.124676
C47	C	1.490908	-0.096059	0.124658
C48	C	1.490901	-0.096081	-0.124552
C49	C	1.489557	-0.146501	-0.124535
C50	C	1.488881	-0.171700	0.000090
O51	O	1.487464	-0.226277	-0.230412
O52	O	1.487405	-0.226279	0.230662
C53	C	1.481361	-0.454049	0.124728
C54	C	1.480683	-0.479266	0.000132
C55	C	1.481351	-0.454064	-0.124471
C56	C	1.479349	-0.529689	0.000137
C57	C	1.478682	-0.554891	0.124740
C58	C	1.479348	-0.529671	0.249338
C59	C	1.480693	-0.479251	0.249331
C60	C	1.480685	-0.479284	-0.249069
C61	C	1.479341	-0.529704	-0.249052
C62	C	1.478673	-0.554906	-0.124448
C63	C	1.711713	0.068391	0.000116
C64	C	1.851095	0.069814	0.000132
C65	C	1.471135	0.159484	0.000140
C66	C	1.472545	0.213149	0.000163
N67	N	1.482066	0.071149	-0.356016
C68	C	1.568109	0.038588	-0.427951
C69	C	1.568106	0.038583	-0.571834
C70	C	1.396011	0.103702	-0.571833
C71	C	1.396010	0.103705	-0.427953
C72	C	1.654166	0.006032	-0.356014
C73	C	1.740217	-0.026530	-0.427950
C74	C	1.740214	-0.026536	-0.571833
C75	C	1.654159	0.006021	-0.643780
N76	N	1.482064	0.071140	0.356221
H77	H	1.100906	0.072348	0.226157
Cl78	Cl	1.287833	0.144638	-0.337517
Cl79	Cl	1.848381	-0.067475	-0.662265
Cl80	Cl	1.287840	0.144629	-0.662281
Cl81	Cl	1.491764	-0.064361	0.281317
H82	H	1.219612	0.073574	-0.249156
H83	H	0.744402	0.068733	-0.249070
Cl84	Cl	1.848384	-0.067461	-0.337506
Cl85	Cl	1.491741	-0.064388	-0.281188
Cl86	Cl	1.129763	0.072663	-0.530379
H87	H	1.654156	0.006010	-0.760939
Cl88	Cl	1.485570	-0.296298	0.405965
Cl89	Cl	0.834314	0.069629	0.281384
Cl90	Cl	1.488709	-0.178154	0.281350
Cl91	Cl	0.834160	0.069655	-0.530334
H92	H	1.482835	-0.398926	0.350789
Cl93	Cl	1.482488	-0.410127	-0.405758
H94	H	1.475106	-0.690679	0.226229
Cl95	Cl	1.472365	-0.793323	0.281414
Cl96	Cl	1.472383	-0.793345	-0.281094
H97	H	1.485200	-0.307494	-0.350571
H98	H	1.489016	-0.167034	-0.225999
Cl99	Cl	1.475366	-0.679550	-0.281117
Cl100	Cl	1.654178	0.006040	-0.175133
Cl101	Cl	1.478514	-0.561364	0.405980
Cl102	Cl	1.481544	-0.447557	0.405987
Cl103	Cl	1.478494	-0.561399	-0.405716
H104	H	1.481230	-0.458769	-0.350538
