data_functionalizedCrystal
_audit_creation_method	'MofGen! by Chris Wilmer'
_symmetry_space_group_name_H-M	'P1'
_symmetry_Int_Tables_number	1
_symmetry_cell_setting	triclinic
loop_
_symmetry_equiv_pos_as_xyz
  x,y,z
_cell_length_a	19.188930
_cell_length_b	19.188930
_cell_length_c	18.266242
_cell_angle_alpha	89.988525
_cell_angle_beta	89.977082
_cell_angle_gamma	83.144779
loop_
_atom_site_label
_atom_site_type_symbol
_atom_site_fract_x
_atom_site_fract_y
_atom_site_fract_z
O1	O	0.926149	0.087169	-0.061124
O2	O	1.259483	0.420502	0.272209
O3	O	1.592816	0.753835	0.605542
O4	O	0.722838	0.098903	-0.061075
O5	O	1.056171	0.432236	0.272258
O6	O	1.389505	0.765570	0.605591
O7	O	0.830361	-0.008620	-0.061087
O8	O	1.163694	0.324714	0.272246
O9	O	1.497027	0.658047	0.605580
O10	O	0.818627	0.194691	-0.061113
O11	O	1.151960	0.528025	0.272221
O12	O	1.485293	0.861358	0.605554
O13	O	0.830343	-0.008625	0.060675
O14	O	1.163676	0.324708	0.394008
O15	O	1.497009	0.658041	0.727342
O16	O	0.722820	0.098897	0.060687
O17	O	1.056153	0.432231	0.394020
O18	O	1.389486	0.765564	0.727353
O19	O	0.926131	0.087163	0.060638
O20	O	1.259464	0.420497	0.393971
O21	O	1.592798	0.753830	0.727304
Zn22	Zn	0.824473	0.093029	0.079994
Zn23	Zn	1.157806	0.426363	0.413328
Zn24	Zn	1.491139	0.759696	0.746661
Zn25	Zn	0.824497	0.093037	-0.080432
Zn26	Zn	1.157830	0.426370	0.252901
Zn27	Zn	1.491163	0.759703	0.586234
O28	O	0.818608	0.194686	0.060649
O29	O	1.151942	0.528019	0.393983
O30	O	1.485275	0.861353	0.727316
C31	C	0.696818	0.098520	-0.000188
C32	C	1.030151	0.431854	0.333145
C33	C	1.363485	0.765187	0.666479
C34	C	0.619313	0.097380	-0.000169
C35	C	0.952647	0.430713	0.333165
C36	C	1.285980	0.764046	0.666498
C37	C	0.574389	0.160470	-0.000188
C38	C	0.907723	0.493804	0.333145
C39	C	1.241056	0.827137	0.666479
C40	C	0.501566	0.159399	-0.000196
C41	C	0.834899	0.492732	0.333137
C42	C	1.168232	0.826065	0.666471
C43	C	0.473669	0.095233	-0.000199
C44	C	0.807002	0.428566	0.333134
C45	C	1.140336	0.761899	0.666468
C46	C	0.518603	0.032133	-0.000175
C47	C	0.851936	0.365467	0.333158
C48	C	1.185270	0.698800	0.666491
C49	C	0.591425	0.033207	-0.000160
C50	C	0.924758	0.366540	0.333173
C51	C	1.258092	0.699874	0.666506
N52	N	0.365695	0.046188	-0.041663
N53	N	0.699028	0.379521	0.291670
N54	N	1.032362	0.712854	0.625003
N55	N	0.296516	0.045172	-0.041679
N56	N	0.629850	0.378505	0.291654
N57	N	0.963183	0.711839	0.624987
C58	C	0.254260	0.091994	-0.000243
C59	C	0.587594	0.425328	0.333090
C60	C	0.920927	0.758661	0.666423
N61	N	0.283795	0.139881	0.041200
N62	N	0.617128	0.473215	0.374533
N63	N	0.950462	0.806548	0.707867
N64	N	0.352980	0.140899	0.041213
N65	N	0.686313	0.474232	0.374546
N66	N	1.019646	0.807566	0.707879
C67	C	0.394707	0.094062	-0.000215
C68	C	0.728040	0.427395	0.333118
C69	C	1.061373	0.760728	0.666452
C70	C	0.130372	0.153928	-0.000270
C71	C	0.463705	0.487261	0.333063
C72	C	0.797039	0.820594	0.666396
C73	C	0.057547	0.152853	-0.000274
C74	C	0.390881	0.486187	0.333060
C75	C	0.724214	0.819520	0.666393
C76	C	0.074586	0.025586	-0.000261
C77	C	0.407919	0.358920	0.333073
C78	C	0.741253	0.692253	0.666406
C79	C	0.147409	0.026662	-0.000250
C80	C	0.480743	0.359996	0.333083
C81	C	0.814076	0.693329	0.666417
C82	C	0.175298	0.090835	-0.000258
C83	C	0.508631	0.424168	0.333075
C84	C	0.841964	0.757502	0.666408
C85	C	0.829972	-0.034634	-0.000204
C86	C	1.163305	0.298700	0.333130
C87	C	1.496638	0.632033	0.666463
C88	C	0.828831	-0.112138	-0.000197
C89	C	1.162164	0.221195	0.333136
C90	C	1.495498	0.554529	0.666469
C91	C	0.891922	-0.157062	-0.000209
C92	C	1.225255	0.176271	0.333124
C93	C	1.558589	0.509605	0.666458
C94	C	0.890850	-0.229886	-0.000220
C95	C	1.224184	0.103448	0.333113
C96	C	1.557517	0.436781	0.666446
C97	C	0.826684	-0.257782	-0.000206
C98	C	1.160017	0.075551	0.333128
C99	C	1.493351	0.408884	0.666461
C100	C	0.763585	-0.212849	-0.000198
C101	C	1.096918	0.120485	0.333135
C102	C	1.430252	0.453818	0.666469
C103	C	0.764658	-0.140026	-0.000194
C104	C	1.097992	0.193307	0.333140
C105	C	1.431325	0.526640	0.666473
N106	N	0.777631	-0.365789	0.041244
N107	N	1.110964	-0.032456	0.374578
N108	N	1.444297	0.300877	0.707911
N109	N	0.776615	-0.434968	0.041242
N110	N	1.109948	-0.101635	0.374575
N111	N	1.443282	0.231699	0.707909
C112	C	0.823446	-0.477191	-0.000220
C113	C	1.156779	-0.143858	0.333114
C114	C	1.490113	0.189476	0.666447
N115	N	0.871341	-0.447624	-0.041669
N116	N	1.204675	-0.114290	0.291664
N117	N	1.538008	0.219043	0.624997
N118	N	0.872359	-0.378439	-0.041664
N119	N	1.205692	-0.045106	0.291670
N120	N	1.539025	0.288228	0.625003
C121	C	0.825513	-0.336745	-0.000210
C122	C	1.158846	-0.003412	0.333123
C123	C	1.492180	0.329922	0.666456
C124	C	0.885379	-0.601079	-0.000245
C125	C	1.218712	-0.267746	0.333089
C126	C	1.552046	0.065587	0.666422
C127	C	0.884305	-0.673904	-0.000261
C128	C	1.217638	-0.340571	0.333073
C129	C	1.550971	-0.007238	0.666406
C130	C	0.757038	-0.656865	-0.000231
C131	C	1.090371	-0.323532	0.333103
C132	C	1.423704	0.009801	0.666436
C133	C	0.758114	-0.584042	-0.000222
C134	C	1.091447	-0.250709	0.333111
C135	C	1.424781	0.082624	0.666444
C136	C	0.822287	-0.556154	-0.000226
C137	C	1.155620	-0.222821	0.333108
C138	C	1.488953	0.110513	0.666441
C139	C	0.952151	0.087546	-0.000252
C140	C	1.285485	0.420879	0.333082
C141	C	1.618818	0.754213	0.666415
C142	C	1.029656	0.088687	-0.000276
C143	C	1.362989	0.422020	0.333058
C144	C	1.696322	0.755353	0.666391
C145	C	0.818997	0.220700	-0.000236
C146	C	1.152331	0.554033	0.333098
C147	C	1.485664	0.887366	0.666431
C148	C	0.820138	0.298204	-0.000247
C149	C	1.153471	0.631538	0.333086
C150	C	1.486805	0.964871	0.666420
N151	N	0.824461	0.093024	0.189481
N152	N	1.157795	0.426357	0.522815
N153	N	1.491128	0.759691	0.856148
N154	N	0.824513	0.093037	-0.189919
N155	N	1.157847	0.426370	0.143414
N156	N	1.491180	0.759703	0.476747
C157	C	0.872088	0.045436	0.227785
C158	C	1.205421	0.378770	0.561118
C159	C	1.538755	0.712103	0.894452
C160	C	0.872092	0.045433	0.304430
C161	C	1.205426	0.378766	0.637763
C162	C	1.538759	0.712100	0.971097
C163	C	0.824477	0.093030	0.342768
C164	C	1.157810	0.426363	0.676102
C165	C	1.491144	0.759696	1.009435
C166	C	0.776841	0.140621	0.304455
C167	C	1.110175	0.473954	0.637789
C168	C	1.443508	0.807288	0.971122
C169	C	0.776834	0.140618	0.227812
C170	C	1.110167	0.473952	0.561145
C171	C	1.443500	0.807285	0.894479
N172	N	0.815401	0.154837	0.463094
N173	N	1.148735	0.488170	0.796427
N174	N	1.482068	0.821504	1.129761
N175	N	0.815413	0.154838	0.535902
N176	N	1.148746	0.488171	0.869236
N177	N	1.482080	0.821504	1.202569
C178	C	0.824496	0.093040	0.573691
C179	C	1.157830	0.426373	0.907024
C180	C	1.491163	0.759706	1.240357
N181	N	0.833582	0.031239	0.535920
N182	N	1.166915	0.364573	0.869254
N183	N	1.500248	0.697906	1.202587
N184	N	0.833574	0.031240	0.463106
N185	N	1.166907	0.364573	0.796439
N186	N	1.500240	0.697906	1.129772
C187	C	0.824480	0.093038	0.425875
C188	C	1.157813	0.426371	0.759209
C189	C	1.491146	0.759704	1.092542
C190	C	0.872131	0.045444	0.695101
C191	C	1.205464	0.378778	1.028435
C192	C	1.538797	0.712111	1.361768
C193	C	0.872130	0.045440	0.771748
C194	C	1.205463	0.378774	1.105081
C195	C	1.538797	0.712107	1.438414
C196	C	0.776882	0.140634	0.771772
C197	C	1.110216	0.473968	1.105105
C198	C	1.443549	0.807301	1.438438
C199	C	0.776879	0.140632	0.695127
C200	C	1.110213	0.473966	1.028460
C201	C	1.443546	0.807299	1.361794
C202	C	0.824507	0.093038	0.656796
C203	C	1.157841	0.426372	0.990130
C204	C	1.491174	0.759705	1.323463
H205	H	0.051874	-0.026659	-0.000309
H206	H	0.385207	0.306674	0.333025
H207	H	0.718540	0.640008	0.666358
C208	C	0.924510	-0.006913	0.652935
C209	C	1.257844	0.326420	0.986268
C210	C	1.591177	0.659754	1.319602
H211	H	0.952870	-0.035263	0.686728
H212	H	1.286203	0.298070	1.020061
H213	H	1.619536	0.631403	1.353394
H214	H	0.953494	0.018129	0.623015
H215	H	1.286827	0.351463	0.956348
H216	H	1.620161	0.684796	1.289682
H217	H	0.899477	-0.035917	0.623057
H218	H	1.232811	0.297416	0.956390
H219	H	1.566144	0.630750	1.289724
H220	H	0.711340	-0.235567	-0.000187
H221	H	1.044674	0.097767	0.333146
H222	H	1.378007	0.431100	0.666479
H223	H	0.942228	-0.266470	-0.000233
H224	H	1.275561	0.066863	0.333100
H225	H	1.608895	0.400197	0.666434
C226	C	0.955963	-0.570395	-0.000258
C227	C	1.289296	-0.237062	0.333076
C228	C	1.622629	0.096271	0.666409
H229	H	0.947566	-0.520590	-0.000244
H230	H	1.280900	-0.187257	0.333090
H231	H	1.614233	0.146076	0.666423
H232	H	0.981938	-0.585817	-0.042726
H233	H	1.315271	-0.252484	0.290607
H234	H	1.648605	0.080849	0.623940
H235	H	0.981924	-0.585842	0.042201
H236	H	1.315258	-0.252508	0.375534
H237	H	1.648591	0.080825	0.708868
C238	C	0.953708	-0.723321	-0.000272
C239	C	1.287042	-0.389988	0.333061
C240	C	1.620375	-0.056655	0.666394
H241	H	0.992078	-0.696279	-0.000267
H242	H	1.325411	-0.362946	0.333067
H243	H	1.658745	-0.029612	0.666400
H244	H	0.955948	-0.752074	-0.042736
H245	H	1.289281	-0.418740	0.290598
H246	H	1.622614	-0.085407	0.623931
H247	H	0.955922	-0.752092	0.042192
H248	H	1.289255	-0.418759	0.375525
H249	H	1.622589	-0.085426	0.708858
H250	H	0.153080	0.206181	-0.000267
H251	H	0.486413	0.539514	0.333067
H252	H	0.819746	0.872847	0.666400
H253	H	0.495885	-0.020111	-0.000188
H254	H	0.829218	0.313222	0.333145
H255	H	1.162552	0.646556	0.666479
H256	H	0.910911	0.006685	0.802935
H257	H	1.244245	0.340018	1.136269
H258	H	1.577578	0.673351	1.469602
C259	C	0.686456	-0.687543	-0.000217
C260	C	1.019790	-0.354210	0.333117
C261	C	1.353123	-0.020876	0.666450
H262	H	0.694852	-0.737348	-0.000218
H263	H	1.028185	-0.404014	0.333116
H264	H	1.361518	-0.070681	0.666449
H265	H	0.660494	-0.672097	-0.042671
H266	H	0.993827	-0.338764	0.290663
H267	H	1.327160	-0.005430	0.623996
H268	H	0.660481	-0.672120	0.042257
H269	H	0.993815	-0.338786	0.375590
H270	H	1.327148	-0.005453	0.708924
C271	C	0.008127	0.222255	-0.000296
C272	C	0.341461	0.555588	0.333037
C273	C	0.674794	0.888922	0.666371
H274	H	-0.039238	0.212427	-0.000296
H275	H	0.294095	0.545760	0.333038
H276	H	0.627429	0.879093	0.666371
H277	H	0.016584	0.248574	-0.042761
H278	H	0.349918	0.581907	0.290573
H279	H	0.683251	0.915241	0.623906
H280	H	0.016539	0.248577	0.042167
H281	H	0.349872	0.581910	0.375500
H282	H	0.683206	0.915244	0.708834
C283	C	0.924492	-0.006896	0.185622
C284	C	1.257825	0.326437	0.518955
C285	C	1.591159	0.659770	0.852289
H286	H	0.917678	-0.000074	0.134489
H287	H	1.251011	0.333259	0.467822
H288	H	1.584345	0.666592	0.801156
H289	H	0.917082	-0.053485	0.198188
H290	H	1.250415	0.279848	0.531521
H291	H	1.583748	0.613181	0.864855
H292	H	0.971057	0.000602	0.198169
H293	H	1.304391	0.333935	0.531502
H294	H	1.637724	0.667268	0.864835
H295	H	0.706738	-0.547464	-0.000208
H296	H	1.040072	-0.214131	0.333125
H297	H	1.373405	0.119203	0.666458
C298	C	0.724451	0.192973	0.185673
C299	C	1.057784	0.526306	0.519006
C300	C	1.391117	0.859640	0.852339
H301	H	0.731266	0.186154	0.134537
H302	H	1.064599	0.519487	0.467870
H303	H	1.397933	0.852821	0.801203
H304	H	0.731891	0.239552	0.198221
H305	H	1.065224	0.572885	0.531554
H306	H	1.398557	0.906219	0.864888
H307	H	0.677876	0.185504	0.198255
H308	H	1.011209	0.518837	0.531588
H309	H	1.344543	0.852170	0.864921
C310	C	0.724505	0.192991	0.813931
C311	C	1.057838	0.526325	1.147264
C312	C	1.391171	0.859658	1.480598
H313	H	0.696137	0.221332	0.780138
H314	H	1.029470	0.554666	1.113471
H315	H	1.362803	0.887999	1.446805
H316	H	0.749531	0.221994	0.843811
H317	H	1.082864	0.555328	1.177144
H318	H	1.416197	0.888661	1.510477
H319	H	0.695519	0.167943	0.843849
H320	H	1.028853	0.501276	1.177183
H321	H	1.362186	0.834609	1.510516
H322	H	0.910877	0.006680	0.335623
H323	H	1.244210	0.340013	0.668956
H324	H	1.577544	0.673346	1.002289
C325	C	0.695256	-0.090608	-0.000174
C326	C	1.028589	0.242725	0.333159
C327	C	1.361922	0.576059	0.666493
H328	H	0.656885	-0.117649	-0.000163
H329	H	0.990219	0.215684	0.333170
H330	H	1.323552	0.549018	0.666503
H331	H	0.693035	-0.061832	-0.042630
H332	H	1.026369	0.271501	0.290703
H333	H	1.359702	0.604834	0.624037
H334	H	0.693025	-0.061860	0.042298
H335	H	1.026358	0.271473	0.375631
H336	H	1.359691	0.604806	0.708964
H337	H	0.628003	-0.018171	-0.000145
H338	H	0.961336	0.315162	0.333189
H339	H	1.294670	0.648496	0.666522
C340	C	0.724468	0.192978	0.346624
C341	C	1.057801	0.526311	0.679957
C342	C	1.391134	0.859645	1.013291
H343	H	0.731298	0.186169	0.397757
H344	H	1.064632	0.519503	0.731090
H345	H	1.397965	0.852836	1.064423
H346	H	0.677894	0.185511	0.334093
H347	H	1.011228	0.518844	0.667426
H348	H	1.344561	0.852177	1.000759
H349	H	0.731908	0.239559	0.334045
H350	H	1.065242	0.572893	0.667378
H351	H	1.398575	0.906226	1.000711
C352	C	0.724497	0.192987	0.652991
C353	C	1.057830	0.526321	0.986324
C354	C	1.391164	0.859654	1.319657
H355	H	0.696143	0.221339	0.686799
H356	H	1.029476	0.554672	1.020132
H357	H	1.362809	0.888005	1.353465
H358	H	0.695509	0.167944	0.623112
H359	H	1.028843	0.501277	0.956445
H360	H	1.362176	0.834611	1.289779
H361	H	0.749525	0.221991	0.623074
H362	H	1.082859	0.555324	0.956407
H363	H	1.416192	0.888658	1.289741
H364	H	0.183988	-0.024713	-0.000238
H365	H	0.517321	0.308620	0.333095
H366	H	0.850654	0.641954	0.666429
H367	H	0.464982	0.210776	-0.000210
H368	H	0.798315	0.544110	0.333124
H369	H	1.131648	0.877443	0.666457
C370	C	0.962507	-0.126385	-0.000216
C371	C	1.295840	0.206949	0.333118
C372	C	1.629173	0.540282	0.666451
H373	H	0.954112	-0.076580	-0.000205
H374	H	1.287446	0.256754	0.333128
H375	H	1.620779	0.590087	0.666462
H376	H	0.988487	-0.141810	-0.042680
H377	H	1.321820	0.191523	0.290653
H378	H	1.655154	0.524856	0.623987
H379	H	0.988463	-0.141830	0.042247
H380	H	1.321796	0.191504	0.375581
H381	H	1.655130	0.524837	0.708914
C382	C	0.605063	0.231057	-0.000184
C383	C	0.938397	0.564390	0.333150
C384	C	1.271730	0.897724	0.666483
H385	H	0.567874	0.268479	-0.000189
H386	H	0.901207	0.601812	0.333144
H387	H	1.234540	0.935145	0.666478
H388	H	0.633144	0.234128	-0.042636
H389	H	0.966478	0.567461	0.290697
H390	H	1.299811	0.900794	0.624031
H391	H	0.633089	0.234117	0.042291
H392	H	0.966422	0.567450	0.375625
H393	H	1.299755	0.900783	0.708958
