data_functionalizedCrystal
_audit_creation_method	'MofGen! by Chris Wilmer'
_symmetry_space_group_name_H-M	'P1'
_symmetry_Int_Tables_number	1
_symmetry_cell_setting	triclinic
loop_
_symmetry_equiv_pos_as_xyz
  x,y,z
_cell_length_a	10.654541
_cell_length_b	14.519731
_cell_length_c	9.730217
_cell_angle_alpha	89.995761
_cell_angle_beta	89.999932
_cell_angle_gamma	84.086391
loop_
_atom_site_label
_atom_site_type_symbol
_atom_site_fract_x
_atom_site_fract_y
_atom_site_fract_z
O1	O	1.666607	0.129519	-0.114251
O2	O	1.301010	0.141862	-0.114264
O3	O	1.493488	0.001504	-0.114245
O4	O	1.474129	0.269878	-0.114270
O5	O	1.493482	0.001502	0.114335
O6	O	1.301004	0.141861	0.114317
O7	O	1.666601	0.129518	0.114329
Zn8	Zn	1.483802	0.135689	0.150615
Zn9	Zn	1.483809	0.135691	-0.150549
O10	O	1.474123	0.269876	0.114310
C11	C	1.254218	0.140956	0.000025
C12	C	1.114800	0.138246	0.000021
C13	C	1.085233	0.306082	-0.000012
C14	C	1.004953	0.388724	-0.000035
C15	C	0.873959	0.386172	-0.000036
C16	C	0.823244	0.300969	-0.000011
C17	C	0.903524	0.218328	0.000012
C18	C	1.034519	0.220889	0.000008
C19	C	0.933091	0.050493	0.000055
C20	C	1.064085	0.053043	0.000046
C21	C	0.882376	-0.034710	0.000080
C22	C	0.962657	-0.117353	0.000092
C23	C	1.093658	-0.114797	0.000091
C24	C	1.144366	-0.029598	0.000068
C25	C	1.492578	-0.032861	0.000046
C26	C	1.489860	-0.135256	0.000046
C27	C	1.487651	-0.218411	0.000043
C28	C	1.484891	-0.322734	0.000033
C29	C	1.482701	-0.405885	0.000024
C30	C	1.479942	-0.510214	0.000016
C31	C	1.713393	0.130424	0.000037
C32	C	1.852811	0.133134	0.000032
C33	C	1.475033	0.304241	0.000017
C34	C	1.477751	0.406635	0.000007
N35	N	1.483805	0.135687	0.356151
N36	N	1.483815	0.135685	-0.356086
C37	C	1.654314	0.011436	0.356159
C38	C	1.739576	-0.050686	0.428102
C39	C	1.739589	-0.050687	0.571982
C40	C	1.654328	0.011440	0.643921
C41	C	1.569065	0.073563	0.571978
C42	C	1.569064	0.073559	0.428095
C43	C	1.398553	0.197808	0.571970
C44	C	1.398544	0.197814	0.428091
C45	C	1.313291	0.259935	0.643910
C46	C	1.228033	0.322064	0.571966
C47	C	1.228024	0.322063	0.428078
C48	C	1.313281	0.259937	0.356147
H49	H	0.716581	0.298898	0.000005
H50	H	1.809013	-0.101276	0.630559
F51	F	1.313285	0.259934	0.203017
H52	H	0.775713	-0.036782	0.000086
H53	H	1.159016	-0.182095	0.000114
H54	H	1.654333	0.011428	0.761076
H55	H	1.158614	0.372639	0.630548
F56	F	1.058936	0.479398	-0.000061
F57	F	1.313299	0.259930	0.797040
F58	F	1.137268	0.388179	0.351521
H59	H	1.191893	0.308169	-0.000042
H60	H	0.808593	0.453465	-0.000044
H61	H	0.921353	-0.186718	0.000111
H62	H	1.251026	-0.027509	0.000051
F63	F	1.654323	0.011441	0.203029
F64	F	1.830310	-0.116807	0.351533
