data_functionalizedCrystal
_audit_creation_method	'MofGen! by Chris Wilmer'
_symmetry_space_group_name_H-M	'P1'
_symmetry_Int_Tables_number	1
_symmetry_cell_setting	triclinic
loop_
_symmetry_equiv_pos_as_xyz
  x,y,z
_cell_length_a	31.640172
_cell_length_b	14.560438
_cell_length_c	14.560438
_cell_angle_alpha	60.005799
_cell_angle_beta	90.003589
_cell_angle_gamma	59.997712
loop_
_atom_site_label
_atom_site_type_symbol
_atom_site_fract_x
_atom_site_fract_y
_atom_site_fract_z
Zr1	Zr	0.407200	1.005082	-0.120261
O2	O	0.339714	1.196688	-0.266901
O3	O	0.427886	0.813491	-0.075327
O4	O	0.427890	1.005079	-0.266903
O5	O	0.339711	1.005097	0.075816
O6	O	0.497447	1.005060	-0.266883
O7	O	0.339711	1.005100	-0.075325
O8	O	0.497440	0.662344	0.075812
O9	O	0.339717	1.347813	-0.266879
O10	O	0.488621	0.892275	-0.056125
O11	O	0.436711	0.892288	0.056655
O12	O	0.436715	1.117858	-0.168902
O13	O	0.384806	1.117870	-0.056122
Zr14	Zr	0.518136	1.005047	0.120823
Zr15	Zr	0.518136	1.005052	-0.120229
Zr16	Zr	0.407201	1.005078	0.120791
Zr17	Zr	0.407205	1.246110	-0.120225
Zr18	Zr	0.518132	0.764020	0.120788
O19	O	0.497450	1.196639	0.075890
O20	O	0.497450	1.196645	-0.266855
O21	O	0.339714	1.196682	0.075844
O22	O	0.585622	0.813442	0.267464
O23	O	0.585622	0.813448	-0.075282
O24	O	0.427886	0.813485	0.267418
O25	O	0.585626	1.005032	-0.075253
O26	O	0.497447	1.005051	0.267466
O27	O	0.427890	1.005070	0.267446
O28	O	0.585626	1.005030	0.075887
O29	O	0.427896	1.347789	-0.266853
O30	O	0.497441	0.662340	0.267416
O31	O	0.585619	0.662316	0.267441
O32	O	0.585619	0.662320	0.075837
O33	O	0.339717	1.347810	-0.075274
O34	O	0.427896	1.347786	-0.075249
O35	O	0.488621	0.892272	0.169464
O36	O	0.540531	0.892259	0.056685
O37	O	0.488625	1.117842	-0.056092
O38	O	0.436715	1.117854	0.056688
C39	C	0.462663	0.703576	0.000237
C40	C	0.462661	0.601253	0.000222
C41	C	0.424344	0.636392	-0.083011
C42	C	0.424353	0.540203	-0.082954
C43	C	0.500996	0.373738	0.083578
C44	C	0.500989	0.469926	0.083516
C45	C	0.386016	0.767719	-0.166304
C46	C	0.347696	0.802864	-0.249543
C47	C	0.347704	0.706675	-0.249487
C48	C	0.386032	0.575341	-0.166192
C49	C	0.323905	1.005103	0.000241
C50	C	0.276810	1.005116	0.000228
C51	C	0.011898	0.887301	0.059172
C52	C	-0.165087	0.887278	0.059195
O53	O	-0.164930	0.787134	0.109301
N54	N	-0.214311	1.005029	0.000325
C55	C	-0.219288	1.122794	-0.058549
O56	O	-0.265217	1.222948	-0.108611
C57	C	-0.042303	1.122815	-0.058564
C58	C	0.006920	1.005057	0.000301
C59	C	0.061119	0.769552	0.118033
C60	C	0.105363	0.769559	0.118022
C61	C	0.100385	0.887314	0.059150
C62	C	0.051163	1.005063	0.000289
C63	C	-0.047281	1.240579	-0.117430
C64	C	-0.003029	1.240574	-0.117426
C65	C	0.046194	1.122815	-0.058562
C66	C	0.090429	1.122826	-0.058593
N67	N	0.139653	1.005075	0.000276
C68	C	0.144631	0.887319	0.059148
C69	C	-0.312205	1.122775	-0.058538
C70	C	-0.356451	1.122770	-0.058537
C71	C	-0.302247	0.887253	0.059209
C72	C	-0.258001	0.887260	0.059199
C73	C	-0.262981	1.005024	0.000331
C74	C	0.237543	0.887343	0.059119
C75	C	0.281788	0.887360	0.059099
C76	C	0.227580	1.122875	-0.058641
C77	C	0.183339	1.122859	-0.058626
C78	C	0.188324	1.005082	0.000263
O79	O	0.090312	1.222918	-0.108663
O80	O	0.190564	0.787180	0.109223
C81	C	-0.032345	0.887294	0.059183
C82	C	-0.081567	1.005043	0.000323
C83	C	-0.086544	1.122799	-0.058549
C84	C	-0.125813	1.005038	0.000325
C85	C	-0.120835	0.887282	0.059197
C86	C	-0.071611	0.769531	0.118066
C87	C	-0.027368	0.769538	0.118055
C88	C	-0.135768	1.240550	-0.117418
C89	C	-0.180009	1.240533	-0.117404
C90	C	-0.175032	1.122777	-0.058532
C91	C	0.601432	1.005027	0.000322
C92	C	0.648527	1.005014	0.000335
C93	C	0.462668	1.005070	-0.301238
C94	C	0.462668	1.005072	-0.403571
C95	C	0.462674	1.306554	0.000326
C96	C	0.462676	1.408876	0.000341
C97	C	0.435572	1.122821	-0.510516
C98	C	0.435573	1.122815	-0.606664
C99	C	0.489768	0.887299	-0.488910
C100	C	0.489769	0.887307	-0.392764
C101	C	0.408471	1.240586	-0.521323
C102	C	0.381372	1.358345	-0.628272
C103	C	0.381373	1.358339	-0.724421
C104	C	0.408474	1.240574	-0.713620
C105	C	0.462668	1.005060	0.301801
C106	C	0.462668	1.005058	0.404134
C107	C	0.601426	0.703538	0.000277
C108	C	0.648519	0.601202	0.000276
C109	C	0.462663	0.703571	0.301757
C110	C	0.462661	0.601246	0.404075
C111	C	0.601426	0.703533	0.301797
C112	C	0.648519	0.601196	0.404128
C113	C	0.323910	1.306597	-0.301234
C114	C	0.276817	1.408934	-0.403566
C115	C	0.323910	1.306592	0.000285
C116	C	0.276817	1.408927	0.000287
C117	C	0.462674	1.306559	-0.301194
C118	C	0.462675	1.408883	-0.403512
C119	C	0.643538	0.553153	-0.058620
C120	C	0.687783	0.457011	-0.058644
C121	C	0.737008	0.408914	0.000236
C122	C	0.741988	0.456973	0.059134
C123	C	0.697744	0.553120	0.059150
C124	C	0.697736	0.553131	0.393315
C125	C	0.741989	0.456987	0.489457
C126	C	0.737025	0.408904	0.596412
C127	C	0.687803	0.456979	0.607223
C128	C	0.643551	0.553127	0.511082
C129	C	0.227601	1.457011	-0.392752
C130	C	0.183347	1.553184	-0.488894
C131	C	0.188312	1.601272	-0.595849
C132	C	0.237533	1.553191	-0.606661
C133	C	0.281785	1.457026	-0.510520
C134	C	0.281798	1.456986	0.059173
C135	C	0.237553	1.553155	0.059170
C136	C	0.188328	1.601255	0.000287
C137	C	0.183348	1.553192	-0.058606
C138	C	0.227593	1.457032	-0.058610
C139	C	0.489757	0.553161	0.511029
C140	C	0.489751	0.457022	0.607164
C141	C	0.435552	0.457058	0.489375
C142	C	0.435555	0.553202	0.393243
C143	C	0.516863	0.601206	0.521861
C144	C	0.543962	0.553119	0.628820
C145	C	0.543956	0.456980	0.724955
C146	C	0.516851	0.408927	0.714130
H147	H	0.316493	0.909800	-0.317364
C148	C	0.589394	0.606049	-0.123405
N149	N	0.548614	0.645891	-0.172210
H150	H	0.532189	0.441310	0.151293
C151	C	0.139663	1.707029	0.000308
N152	N	0.103010	1.786693	0.000331
H153	H	0.241569	1.592357	-0.693755
C154	C	0.682293	0.404153	-0.123427
N155	N	0.678157	0.364340	-0.172219
H156	H	0.566017	0.417839	0.812042
H157	H	0.143263	1.592370	-0.106547
C158	C	0.785673	0.303141	0.000215
N159	N	0.822326	0.223468	0.000200
C160	C	0.139628	1.707046	-0.701597
N161	N	0.102957	1.786710	-0.781242
H162	H	0.413485	0.417924	0.480572
C163	C	0.408476	1.240574	-0.819391
N164	N	0.408476	1.240576	-0.899057
C165	C	0.796141	0.404043	0.123906
N166	N	0.836930	0.364165	0.172700
H167	H	0.603478	0.592249	0.519903
H168	H	0.683769	0.417815	0.694319
H169	H	0.701806	0.592229	0.107117
H170	H	0.359311	1.454225	-0.637057
H171	H	0.321858	1.417883	-0.519338
H172	H	0.701787	0.592266	0.306235
H173	H	0.316505	0.735297	-0.317270
H174	H	0.386044	0.497024	-0.166169
H175	H	0.413492	0.592352	0.306154
H176	H	0.782063	0.417855	0.480634
C177	C	0.335942	1.404100	0.123948
N178	N	0.376722	1.364279	0.172733
H179	H	0.386004	0.846050	-0.166357
H180	H	0.773062	0.330614	0.674687
H181	H	0.223549	1.417862	-0.305672
H182	H	0.143274	1.592315	-0.480069
C183	C	0.243043	1.605996	0.123970
N184	N	0.247179	1.645791	0.172781
C185	C	0.222105	1.404162	-0.123378
N186	N	0.217968	1.364343	-0.172164
C187	C	-0.410594	1.252313	-0.123304
N188	N	-0.451374	1.349890	-0.172084
H189	H	0.516872	0.679485	0.443590
C190	C	0.573774	0.605981	0.640722
N191	N	0.596230	0.645795	0.649689
C192	C	0.519571	0.757767	-0.477038
N193	N	0.542017	0.660200	-0.468095
H194	H	0.516844	0.330653	0.792414
H195	H	0.012709	0.673647	0.165991
H196	H	0.321868	0.791462	0.107037
C197	C	0.543151	0.229273	0.175203
N198	N	0.574901	0.120460	0.244220
H199	H	0.241609	0.791437	0.107073
C200	C	0.351558	1.487874	-0.842063
N201	N	0.329094	1.585445	-0.930671
C202	C	-0.141254	1.370098	-0.182198
N203	N	-0.145389	1.467682	-0.231002
H204	H	0.145439	0.673667	0.165950
C205	C	0.408469	1.240604	-0.415563
N206	N	0.408469	1.240615	-0.335903
H207	H	0.065181	0.673655	0.165979
H208	H	-0.217924	0.791370	0.107142
H209	H	-0.298201	0.791372	0.107138
H210	H	-0.316269	1.218678	-0.106484
C211	C	-0.008513	1.370127	-0.182192
N212	N	-0.012645	1.467706	-0.230978
H213	H	0.143258	1.218747	-0.106573
C214	C	-0.066144	0.639999	0.182827
N215	N	-0.062029	0.542442	0.231609
H216	H	0.223536	1.218749	-0.106577
C217	C	-0.234154	1.370086	-0.182166
N218	N	-0.274934	1.467664	-0.230935
H219	H	-0.087354	1.336471	-0.165362
H220	H	0.511832	0.791425	-0.305684
