data_functionalizedCrystal
_audit_creation_method	'MofGen! by Chris Wilmer'
_symmetry_space_group_name_H-M	'P1'
_symmetry_Int_Tables_number	1
_symmetry_cell_setting	triclinic
loop_
_symmetry_equiv_pos_as_xyz
  x,y,z
_cell_length_a	19.188925
_cell_length_b	19.188930
_cell_length_c	18.266242
_cell_angle_alpha	89.993204
_cell_angle_beta	89.992706
_cell_angle_gamma	83.143665
loop_
_atom_site_label
_atom_site_type_symbol
_atom_site_fract_x
_atom_site_fract_y
_atom_site_fract_z
O1	O	0.926149	0.087146	-0.060905
O2	O	1.426149	0.587146	0.439095
O3	O	0.722838	0.098884	-0.060904
O4	O	1.222838	0.598884	0.439096
O5	O	0.830361	-0.008641	-0.060890
O6	O	1.330361	0.491359	0.439110
O7	O	0.818626	0.194671	-0.060919
O8	O	1.318626	0.694671	0.439081
O9	O	0.830347	-0.008637	0.060872
O10	O	1.330347	0.491363	0.560872
O11	O	0.722824	0.098888	0.060858
O12	O	1.222824	0.598888	0.560858
O13	O	0.926136	0.087150	0.060857
O14	O	1.426136	0.587150	0.560857
Zn15	Zn	0.824478	0.093019	0.080190
Zn16	Zn	1.324478	0.593019	0.580190
Zn17	Zn	0.824496	0.093015	-0.080237
Zn18	Zn	1.324496	0.593015	0.419763
O19	O	0.818613	0.194674	0.060843
O20	O	1.318613	0.694674	0.560843
C21	C	0.696820	0.098507	-0.000023
C22	C	1.196820	0.598507	0.499977
C23	C	0.619315	0.097367	-0.000022
C24	C	1.119315	0.597367	0.499978
C25	C	0.057545	0.152831	-0.000031
C26	C	0.557545	0.652831	0.499969
C27	C	0.130368	0.153908	-0.000035
C28	C	0.630368	0.653908	0.499965
C29	C	0.175302	0.090816	-0.000025
C30	C	0.675302	0.590816	0.499975
C31	C	0.147408	0.026642	-0.000030
C32	C	0.647408	0.526642	0.499970
C33	C	0.074586	0.025568	-0.000033
C34	C	0.574586	0.525568	0.499967
N35	N	0.295975	0.045141	0.041430
N36	N	0.795975	0.545141	0.541430
N37	N	0.365152	0.046166	0.041435
N38	N	0.865152	0.546166	0.541435
C39	C	0.394712	0.094050	-0.000017
C40	C	0.894712	0.594050	0.499983
N41	N	0.352479	0.140880	-0.041464
N42	N	0.852479	0.640880	0.458536
N43	N	0.283295	0.139857	-0.041465
N44	N	0.783295	0.639857	0.458535
C45	C	0.254267	0.091974	-0.000022
C46	C	0.754267	0.591974	0.499978
C47	C	0.501561	0.159386	-0.000022
C48	C	1.001561	0.659386	0.499978
C49	C	0.574385	0.160460	-0.000031
C50	C	1.074385	0.660460	0.499969
C51	C	0.591425	0.033193	-0.000018
C52	C	1.091425	0.533193	0.499982
C53	C	0.518601	0.032121	-0.000016
C54	C	1.018601	0.532121	0.499984
C55	C	0.473673	0.095220	-0.000015
C56	C	0.973673	0.595220	0.499985
C57	C	0.829974	-0.034650	-0.000007
C58	C	1.329974	0.465350	0.499993
C59	C	0.828833	-0.112154	-0.000001
C60	C	1.328833	0.387846	0.499999
C61	C	0.891924	-0.157079	0.000002
C62	C	1.391924	0.342921	0.500002
C63	C	0.890852	-0.229903	-0.000009
C64	C	1.390852	0.270097	0.499991
C65	C	0.826686	-0.257799	-0.000010
C66	C	1.326686	0.242201	0.499990
C67	C	0.763587	-0.212864	-0.000017
C68	C	1.263587	0.287136	0.499983
C69	C	0.764660	-0.140041	-0.000012
C70	C	1.264660	0.359959	0.499988
N71	N	0.777634	-0.365801	0.041429
N72	N	1.277634	0.134199	0.541429
N73	N	0.776619	-0.434980	0.041426
N74	N	1.276619	0.065020	0.541426
C75	C	0.823448	-0.477207	-0.000024
C76	C	1.323448	0.022793	0.499976
N77	N	0.871342	-0.447644	-0.041463
N78	N	1.371342	0.052356	0.458537
N79	N	0.872359	-0.378459	-0.041457
N80	N	1.372359	0.121541	0.458543
C81	C	0.825515	-0.336761	-0.000015
C82	C	1.325515	0.163239	0.499985
C83	C	0.885381	-0.601097	-0.000035
C84	C	1.385381	-0.101097	0.499965
C85	C	0.884307	-0.673922	-0.000051
C86	C	1.384307	-0.173922	0.499949
C87	C	0.757040	-0.656880	-0.000051
C88	C	1.257040	-0.156880	0.499949
C89	C	0.758116	-0.584057	-0.000042
C90	C	1.258116	-0.084057	0.499958
C91	C	0.822289	-0.556170	-0.000031
C92	C	1.322289	-0.056170	0.499969
C93	C	0.952154	0.087527	-0.000026
C94	C	1.452154	0.587527	0.499974
C95	C	1.029658	0.088666	-0.000032
C96	C	1.529658	0.588666	0.499968
C97	C	0.819000	0.220684	-0.000041
C98	C	1.319000	0.720684	0.499959
C99	C	0.820140	0.298188	-0.000053
C100	C	1.320140	0.798188	0.499947
N101	N	0.824470	0.093022	0.189677
N102	N	1.324470	0.593022	0.689677
N103	N	0.824509	0.093006	-0.189724
N104	N	1.324509	0.593006	0.310276
C105	C	0.866723	0.135241	0.771947
C106	C	1.366723	0.635241	1.271947
C107	C	0.866716	0.135248	0.695302
C108	C	1.366716	0.635248	1.195302
C109	C	0.824502	0.093007	0.656989
C110	C	1.324502	0.593007	1.156989
C111	C	0.782279	0.050770	0.695328
C112	C	1.282279	0.550770	1.195328
C113	C	0.782283	0.050770	0.771972
C114	C	1.282283	0.550770	1.271972
N115	N	0.822811	0.031847	0.536660
N116	N	1.322811	0.531847	1.036660
N117	N	0.822812	0.031849	0.463852
N118	N	1.322812	0.531849	0.963852
C119	C	0.824489	0.093008	0.426067
C120	C	1.324489	0.593008	0.926067
N121	N	0.826178	0.154164	0.463841
N122	N	1.326178	0.654164	0.963841
N123	N	0.826181	0.154161	0.536656
N124	N	1.326181	0.654161	1.036656
C125	C	0.824494	0.093004	0.573882
C126	C	1.324494	0.593004	1.073882
C127	C	0.866697	0.135254	0.304630
C128	C	1.366697	0.635254	0.804630
C129	C	0.866685	0.135262	0.227984
C130	C	1.366685	0.635262	0.727984
C131	C	0.782253	0.050777	0.228012
C132	C	1.282253	0.550777	0.728012
C133	C	0.782261	0.050775	0.304657
C134	C	1.282261	0.550775	0.804657
C135	C	0.824487	0.093012	0.342961
C136	C	1.324487	0.593012	0.842961
H137	H	0.495896	-0.020129	-0.000012
H138	H	0.995896	0.479871	0.499988
H139	H	0.153078	0.206160	-0.000028
H140	H	0.653078	0.706160	0.499972
N141	N	0.912222	0.180817	0.186643
N142	N	1.412222	0.680817	0.686643
H143	H	0.946481	0.150328	0.154839
H144	H	1.446481	0.650328	0.654839
H145	H	0.881673	0.215068	0.154890
H146	H	1.381673	0.715068	0.654890
H147	H	0.704794	-0.679592	-0.000055
H148	H	1.204794	-0.179592	0.499945
N149	N	0.736716	0.005222	0.186700
N150	N	1.236716	0.505222	0.686700
H151	H	0.743117	0.011632	0.132330
H152	H	1.243117	0.511632	0.632330
H153	H	0.750665	-0.045594	0.200099
H154	H	1.250665	0.454406	0.700099
H155	H	0.183999	-0.024728	-0.000023
H156	H	0.683999	0.475272	0.499977
N157	N	0.690067	-0.535596	-0.000042
N158	N	1.190067	-0.035596	0.499958
H159	H	0.649254	-0.564316	-0.000043
H160	H	1.149254	-0.064316	0.499957
H161	H	0.687736	-0.505018	0.045099
H162	H	1.187736	-0.005018	0.545099
N163	N	0.736758	0.005204	0.813315
N164	N	1.236758	0.505204	1.313315
H165	H	0.743169	0.011611	0.867681
H166	H	1.243169	0.511611	1.367681
H167	H	0.685937	0.019127	0.799930
H168	H	1.185937	0.519127	1.299930
N169	N	0.044504	-0.043641	-0.000033
N170	N	0.544504	0.456359	0.499967
H171	H	0.084017	-0.083449	-0.000029
H172	H	0.584017	0.416551	0.499971
H173	H	0.014656	-0.046859	0.045107
H174	H	0.514656	0.453141	0.545107
N175	N	0.912231	0.180817	0.345946
N176	N	1.412231	0.680817	0.845946
H177	H	0.881730	0.215065	0.377749
H178	H	1.381730	0.715065	0.877749
H179	H	0.946496	0.150284	0.377698
H180	H	1.446496	0.650284	0.877698
H181	H	0.937635	-0.578390	-0.000029
H182	H	1.437635	-0.078390	0.499971
H183	H	0.713282	-0.103462	-0.000015
H184	H	1.213282	0.396538	0.499985
H185	H	0.901105	0.169635	0.803130
H186	H	1.401105	0.669635	1.303130
N187	N	0.952359	-0.722381	-0.000051
N188	N	1.452359	-0.222381	0.499949
H189	H	0.993171	-0.693661	-0.000040
H190	H	1.493171	-0.193661	0.499960
H191	H	0.954674	-0.752974	0.045085
H192	H	1.454674	-0.252974	0.545085
H193	H	0.942230	-0.266488	-0.000010
H194	H	1.442230	0.233512	0.499990
N195	N	0.912257	0.180800	0.653956
N196	N	1.412257	0.680800	1.153956
H197	H	0.946518	0.150307	0.622157
H198	H	1.446518	0.650307	1.122157
H199	H	0.881712	0.215049	0.622198
H200	H	1.381712	0.715049	1.122198
N201	N	0.453097	0.227438	-0.000029
N202	N	0.953097	0.727438	0.499971
H203	H	0.481816	0.268251	-0.000037
H204	H	0.981816	0.768251	0.499963
H205	H	0.422518	0.229760	-0.045168
H206	H	0.922518	0.729760	0.454832
N207	N	0.736751	0.005208	0.654011
N208	N	1.236751	0.505208	1.154011
H209	H	0.743157	0.011613	0.599641
H210	H	1.243157	0.511613	1.099641
H211	H	0.750704	-0.045606	0.667416
H212	H	1.250704	0.454394	1.167416
N213	N	0.009114	0.220902	0.000015
N214	N	0.509114	0.720902	0.500015
H215	H	0.018064	0.248935	-0.045107
H216	H	0.518064	0.748935	0.454893
H217	H	-0.041240	0.210459	0.000057
H218	H	0.458760	0.710459	0.500057
H219	H	0.597088	0.212713	-0.000036
H220	H	1.097088	0.712713	0.499964
H221	H	0.747889	0.016380	0.335865
H222	H	1.247889	0.516380	0.835865
H223	H	0.628010	-0.018178	-0.000015
H224	H	1.128010	0.481822	0.499985
H225	H	0.711342	-0.235581	-0.000019
H226	H	1.211342	0.264419	0.499981
N227	N	0.961136	-0.127001	0.000014
N228	N	1.461136	0.372999	0.500014
H229	H	1.000941	-0.166516	0.000014
H230	H	1.500941	0.333484	0.500014
H231	H	0.964361	-0.097152	-0.045123
H232	H	1.464361	0.402848	0.454877
