data_functionalizedCrystal
_audit_creation_method	'MofGen! by Chris Wilmer'
_symmetry_space_group_name_H-M	'P1'
_symmetry_Int_Tables_number	1
_symmetry_cell_setting	triclinic
loop_
_symmetry_equiv_pos_as_xyz
  x,y,z
_cell_length_a	16.959455
_cell_length_b	16.959447
_cell_length_c	12.827892
_cell_angle_alpha	90.026960
_cell_angle_beta	89.985180
_cell_angle_gamma	89.982678
loop_
_atom_site_label
_atom_site_type_symbol
_atom_site_fract_x
_atom_site_fract_y
_atom_site_fract_z
Zn1	Zn	1.208430	-0.446936	0.416028
Zn2	Zn	1.708430	0.053064	0.916028
Zn3	Zn	1.208357	-0.314765	0.590796
Zn4	Zn	1.708357	0.185235	1.090796
Zn5	Zn	1.076252	-0.314772	0.416068
Zn6	Zn	1.576252	0.185228	0.916068
Zn7	Zn	1.076234	-0.446903	0.590725
Zn8	Zn	1.576234	0.053097	1.090725
O9	O	1.142318	-0.380844	0.503404
O10	O	1.642318	0.119156	1.003404
O11	O	1.319031	-0.429414	0.439224
O12	O	1.819031	0.070586	0.939224
O13	O	1.190811	-0.204155	0.567665
O14	O	1.690811	0.295845	1.067665
O15	O	1.093824	-0.332321	0.269827
O16	O	1.593824	0.167679	0.769827
O17	O	1.318978	-0.332308	0.567625
O18	O	1.818978	0.167692	1.067625
O19	O	1.190934	-0.429421	0.269797
O20	O	1.690934	0.070579	0.769797
O21	O	1.093754	-0.204160	0.439293
O22	O	1.593754	0.295840	0.939293
O23	O	0.965639	-0.332289	0.439224
O24	O	1.465639	0.167711	0.939224
O25	O	1.093793	-0.557518	0.567505
O26	O	1.593793	-0.057518	1.067505
O27	O	0.965625	-0.429365	0.567544
O28	O	1.465625	0.070635	1.067544
O29	O	1.190917	-0.557542	0.439155
O30	O	1.690917	-0.057542	0.939155
O31	O	1.190793	-0.332277	0.737023
O32	O	1.690793	0.167723	1.237023
O33	O	1.093722	-0.429358	0.736971
O34	O	1.593722	0.070642	1.236971
C35	C	0.936952	-0.380824	0.503382
C36	C	1.436952	0.119176	1.003382
C37	C	0.849095	-0.380835	0.503397
C38	C	1.349095	0.119165	1.003397
C39	C	0.807792	-0.330205	0.570155
C40	C	1.307792	0.169795	1.070155
C41	C	0.807846	-0.431471	0.436648
C42	C	1.307846	0.068529	0.936648
C43	C	0.725300	-0.431481	0.436656
C44	C	1.225300	0.068519	0.936656
C45	C	0.683996	-0.380851	0.503413
C46	C	1.183996	0.119149	1.003413
C47	C	0.725238	-0.330211	0.570163
C48	C	1.225238	0.169789	1.070163
C49	C	0.684051	-0.482114	0.369900
C50	C	1.184051	0.017886	0.869900
C51	C	0.601500	-0.482125	0.369905
C52	C	1.101500	0.017875	0.869905
C53	C	0.560195	-0.431498	0.436669
C54	C	1.060195	0.068502	0.936669
C55	C	0.601443	-0.380857	0.503422
C56	C	1.101443	0.119143	1.003422
C57	C	0.560139	-0.330227	0.570179
C58	C	1.060139	0.169773	1.070179
C59	C	0.601385	-0.279589	0.636938
C60	C	1.101385	0.220411	1.136938
C61	C	0.683933	-0.279584	0.636927
C62	C	1.183933	0.220416	1.136927
C63	C	0.477647	-0.431503	0.436680
C64	C	0.977647	0.068497	0.936680
C65	C	0.477585	-0.330233	0.570187
C66	C	0.977585	0.169767	1.070187
C67	C	1.142361	-0.587012	0.503317
C68	C	1.642361	-0.087012	1.003317
C69	C	1.142379	-0.674869	0.503280
C70	C	1.642379	-0.174869	1.003280
C71	C	1.091915	-1.046354	0.436333
C72	C	1.591915	-0.546354	0.936333
C73	C	1.192981	-1.046336	0.570008
C74	C	1.692981	-0.546336	1.070008
C75	C	1.192968	-0.963790	0.570032
C76	C	1.692968	-0.463790	1.070032
C77	C	1.142426	-0.922522	0.503207
C78	C	1.642426	-0.422522	1.003207
C79	C	1.091898	-0.963800	0.436357
C80	C	1.591898	-0.463800	0.936357
C81	C	1.243489	-0.922505	0.636888
C82	C	1.743489	-0.422505	1.136888
C83	C	1.243477	-0.839954	0.636916
C84	C	1.743477	-0.339954	1.136916
C85	C	1.192938	-0.798685	0.570085
C86	C	1.692938	-0.298685	1.070085
C87	C	1.142409	-0.839968	0.503232
C88	C	1.642409	-0.339968	1.003232
C89	C	1.091868	-0.798701	0.436406
C90	C	1.591868	-0.298701	0.936406
C91	C	1.041342	-0.839982	0.369547
C92	C	1.541342	-0.339982	0.869547
C93	C	1.041360	-0.922531	0.369526
C94	C	1.541360	-0.422531	0.869526
C95	C	1.192920	-0.716137	0.570106
C96	C	1.692920	-0.216137	1.070106
C97	C	1.091851	-0.716147	0.436431
C98	C	1.591851	-0.216147	0.936431
C99	C	1.348487	-0.380864	0.503428
C100	C	1.848487	0.119136	1.003428
C101	C	1.436343	-0.380872	0.503438
C102	C	1.936343	0.119128	1.003438
C103	C	1.142269	-0.380830	0.774914
C104	C	1.642269	0.119170	1.274914
C105	C	1.142320	-0.380850	0.891067
C106	C	1.642320	0.119150	1.391067
C107	C	1.142322	-0.175478	0.503415
C108	C	1.642322	0.324522	1.003415
C109	C	1.142457	-0.087621	0.503158
C110	C	1.642457	0.412379	1.003158
C111	C	1.142390	-0.380875	0.230834
C112	C	1.642390	0.119125	0.730834
C113	C	1.142420	-0.380889	0.114681
C114	C	1.642420	0.119111	0.614681
C115	C	1.190411	-0.332865	0.942843
C116	C	1.690411	0.167135	1.442843
C117	C	1.190465	-0.332885	1.062894
C118	C	1.690465	0.167115	1.562894
H119	H	0.567744	-0.238363	0.691288
H120	H	1.067744	0.261637	1.191288
H121	H	1.101191	-0.421950	0.935617
H122	H	1.601191	0.078050	1.435617
O123	O	1.037339	-0.671643	0.364346
O124	O	1.537339	-0.171643	0.864346
H125	H	1.045816	-0.607306	0.375588
H126	H	1.545816	-0.107306	0.875588
H127	H	0.717687	-0.523331	0.315546
H128	H	1.217687	-0.023331	0.815546
O129	O	0.433036	-0.275619	0.642185
O130	O	0.933036	0.224381	1.142185
H131	H	0.475587	-0.240405	0.688594
H132	H	0.975587	0.259595	1.188594
H133	H	1.231546	-0.291770	0.898296
H134	H	1.731546	0.208230	1.398296
H135	H	0.444068	-0.472725	0.382318
H136	H	0.944068	0.027275	0.882318
O137	O	0.557015	-0.536741	0.297911
O138	O	1.057015	-0.036741	0.797911
H139	H	0.599605	-0.571948	0.251494
H140	H	1.099605	-0.071948	0.751494
H141	H	0.841378	-0.288979	0.624511
H142	H	1.341378	0.211021	1.124511
O143	O	0.986832	-0.795471	0.297467
O144	O	1.486832	-0.295471	0.797467
H145	H	0.995315	-0.731135	0.308719
H146	H	1.495315	-0.231135	0.808719
H147	H	0.717523	-0.238356	0.691276
H148	H	1.217523	0.261644	1.191276
H149	H	1.231635	-0.291801	1.107420
H150	H	1.731635	0.208199	1.607420
H151	H	0.841480	-0.472688	0.382292
H152	H	1.341480	0.027312	0.882292
H153	H	1.000224	-0.956150	0.315094
H154	H	1.500224	-0.456150	0.815094
H155	H	1.050781	-1.079969	0.381895
H156	H	1.550781	-0.579969	0.881895
O157	O	1.087876	-0.435305	1.055708
O158	O	1.587876	0.064695	1.555708
H159	H	1.025844	-0.421701	1.076673
H160	H	1.525844	0.078299	1.576673
O161	O	1.247493	-1.090839	0.642082
O162	O	1.747493	-0.590839	1.142082
H163	H	1.239018	-1.155176	0.630831
H164	H	1.739018	-0.655176	1.130831
O165	O	1.297999	-0.967011	0.708962
O166	O	1.797999	-0.467011	1.208962
H167	H	1.289528	-1.031347	0.697702
H168	H	1.789528	-0.531347	1.197702
H169	H	1.284617	-0.806350	0.691358
H170	H	1.784617	-0.306350	1.191358
H171	H	1.234063	-0.682529	0.624534
H172	H	1.734063	-0.182529	1.124534
