data_functionalizedCrystal
_audit_creation_method	'MofGen! by Chris Wilmer'
_symmetry_space_group_name_H-M	'P1'
_symmetry_Int_Tables_number	1
_symmetry_cell_setting	triclinic
loop_
_symmetry_equiv_pos_as_xyz
  x,y,z
_cell_length_a	16.625548
_cell_length_b	14.908520
_cell_length_c	14.908308
_cell_angle_alpha	83.639235
_cell_angle_beta	93.277965
_cell_angle_gamma	86.678216
loop_
_atom_site_label
_atom_site_type_symbol
_atom_site_fract_x
_atom_site_fract_y
_atom_site_fract_z
Zn1	Zn	1.185085	0.389851	-0.532572
Zn2	Zn	1.184994	0.532497	-0.389942
Zn3	Zn	1.058507	0.381156	-0.381229
Zn4	Zn	1.041965	0.541172	-0.541251
O5	O	1.117638	0.461169	-0.461249
O6	O	1.297904	0.408782	-0.513666
O7	O	1.175099	0.505151	-0.262126
O8	O	1.082259	0.255645	-0.394027
O9	O	1.297837	0.513582	-0.408877
O10	O	1.175255	0.262033	-0.505217
O11	O	1.082170	0.393962	-0.255724
O12	O	0.943482	0.402375	-0.402442
O13	O	1.054066	0.528369	-0.666760
O14	O	0.931328	0.519938	-0.520009
O15	O	1.159215	0.417194	-0.660384
O16	O	1.159059	0.660312	-0.417292
O17	O	1.053977	0.666686	-0.528458
C18	C	0.908149	0.461155	-0.461222
C19	C	0.818526	0.461172	-0.461234
C20	C	1.104734	0.696343	-0.474782
C21	C	1.099286	0.796953	-0.480602
C22	C	1.130613	0.225078	-0.447682
C23	C	1.136142	0.124470	-0.441901
C24	C	0.490348	0.461180	-0.461273
C25	C	0.581658	0.461175	-0.461259
C26	C	0.654434	0.461176	-0.461253
C27	C	0.745750	0.461170	-0.461240
C28	C	1.327944	0.461184	-0.461275
C29	C	1.417565	0.461191	-0.461287
C30	C	1.104806	0.474719	-0.697332
C31	C	1.099337	0.480494	-0.797936
C32	C	1.198572	0.979318	-0.375875
C33	C	1.193455	1.073850	-0.381340
C34	C	1.083942	1.080552	-0.497002
C35	C	1.089058	0.986019	-0.491537
C36	C	1.146374	0.935406	-0.430970
C37	C	1.151486	0.840872	-0.425501
C38	C	1.041977	0.847575	-0.541167
C39	C	1.036861	0.942107	-0.546632
C40	C	1.198553	0.375556	-0.980344
C41	C	1.193418	0.380979	-1.074871
C42	C	1.083928	0.496755	-1.081518
C43	C	1.089064	0.491333	-0.986991
C44	C	1.146379	0.430732	-0.936408
C45	C	1.151517	0.425315	-0.841879
C46	C	1.042025	0.541087	-0.848528
C47	C	1.036889	0.546509	-0.943055
C48	C	1.130470	0.447606	-0.226080
C49	C	1.136108	0.441577	-0.125461
H50	H	1.198153	0.799662	-0.376182
H51	H	1.235962	1.109599	-0.336478
H52	H	0.999542	0.586018	-0.812745
Cl53	Cl	0.964840	0.622687	-1.006654
Cl54	Cl	1.223571	0.349135	-0.778289
Cl55	Cl	1.270612	0.299386	-0.916750
H56	H	1.235902	0.336046	-1.110640
Cl57	Cl	1.011876	0.572925	-1.145124
Cl58	Cl	1.270612	0.915685	-0.299723
H59	H	0.990198	0.983330	-0.595946
Cl60	Cl	1.011904	1.144196	-0.573148
H61	H	0.999472	0.811812	-0.586026
