data_functionalizedCrystal
_audit_creation_method	'MofGen! by Chris Wilmer'
_symmetry_space_group_name_H-M	'P1'
_symmetry_Int_Tables_number	1
_symmetry_cell_setting	triclinic
loop_
_symmetry_equiv_pos_as_xyz
  x,y,z
_cell_length_a	12.759401
_cell_length_b	12.759399
_cell_length_c	12.759393
_cell_angle_alpha	89.973012
_cell_angle_beta	89.977503
_cell_angle_gamma	90.015165
loop_
_atom_site_label
_atom_site_type_symbol
_atom_site_fract_x
_atom_site_fract_y
_atom_site_fract_z
Zn1	Zn	-1.606269	0.418192	0.594089
Zn2	Zn	-1.606161	0.593908	0.418420
Zn3	Zn	-1.430568	0.418246	0.418420
Zn4	Zn	-1.430561	0.593832	0.594053
O5	O	-1.518390	0.506045	0.506246
O6	O	-1.753276	0.441511	0.570802
O7	O	-1.582826	0.570660	0.271399
O8	O	-1.453923	0.271218	0.441738
O9	O	-1.753196	0.570608	0.441739
O10	O	-1.583010	0.271178	0.570802
O11	O	-1.453818	0.441602	0.271399
O12	O	-1.283546	0.441529	0.441702
O13	O	-1.453911	0.570479	0.741079
O14	O	-1.283541	0.570531	0.570739
O15	O	-1.583003	0.441437	0.741106
O16	O	-1.582819	0.740919	0.441703
O17	O	-1.453806	0.740863	0.570740
C18	C	-1.245422	0.506029	0.506217
C19	C	-1.128646	0.506047	0.506230
C20	C	-1.518329	0.779012	0.506240
C21	C	-1.518399	0.895789	0.506273
C22	C	-1.073809	0.573320	0.573312
C23	C	-0.964084	0.573323	0.573330
C24	C	-0.964044	0.438776	0.439175
C25	C	-1.073766	0.438769	0.439163
C26	C	-1.518468	0.505944	0.780279
C27	C	-1.518502	0.505901	0.897056
C28	C	-0.792423	0.506059	0.506268
C29	C	-0.909200	0.506057	0.506260
C30	C	-1.585715	1.060376	0.439202
C31	C	-1.585652	0.950652	0.439162
C32	C	-1.451198	0.950655	0.573421
C33	C	-1.451257	1.060377	0.573454
C34	C	-1.518480	1.232011	0.506289
C35	C	-1.518521	1.115235	0.506346
C36	C	-1.518372	0.506069	0.233278
C37	C	-1.518542	0.505816	0.116502
C38	C	-1.585725	0.438698	0.951933
C39	C	-1.585743	0.438653	1.061658
C40	C	-1.451311	0.573022	1.061617
C41	C	-1.451289	0.573061	0.951895
H42	H	-0.919441	0.628102	0.627957
H43	H	-1.640366	0.905989	0.384486
H44	H	-0.919348	0.384003	0.384569
H45	H	-1.118416	0.383981	0.384536
C46	C	-1.659692	1.120716	0.365376
H47	H	-1.699693	1.072325	0.325375
H48	H	-1.705474	1.163453	0.405614
H49	H	-1.619539	1.163583	0.319573
H50	H	-1.396540	0.627785	0.907212
C51	C	-1.659646	0.364820	0.891609
H52	H	-1.650014	0.374472	0.818402
H53	H	-1.644298	0.294222	0.909596
H54	H	-1.730239	0.380201	0.909604
C55	C	-1.377223	0.890309	0.647243
H56	H	-1.386818	0.817105	0.637616
H57	H	-1.306648	0.908356	0.631813
H58	H	-1.392582	0.908227	0.717856
C59	C	-1.377342	1.120727	0.647320
H60	H	-1.337284	1.072343	0.687293
H61	H	-1.331611	1.163598	0.607101
H62	H	-1.417540	1.163460	0.693148
C63	C	-1.659693	0.364735	1.122019
H64	H	-1.699722	0.324750	1.073641
H65	H	-1.619533	0.318935	1.164819
H66	H	-1.705466	0.404921	1.164825
C67	C	-1.377389	0.646903	1.121938
H68	H	-1.337344	0.686926	1.073537
H69	H	-1.417572	0.692668	1.164742
H70	H	-1.331631	0.606689	1.164736
C71	C	-1.134173	0.647312	0.647092
H72	H	-1.085794	0.687370	0.687053
H73	H	-1.176948	0.693040	0.606827
H74	H	-1.177003	0.607166	0.692935
