data_functionalizedCrystal
_audit_creation_method	'MofGen! by Chris Wilmer'
_symmetry_space_group_name_H-M	'P1'
_symmetry_Int_Tables_number	1
_symmetry_cell_setting	triclinic
loop_
_symmetry_equiv_pos_as_xyz
  x,y,z
_cell_length_a	34.571875
_cell_length_b	34.571051
_cell_length_c	34.567439
_cell_angle_alpha	60.004367
_cell_angle_beta	60.008842
_cell_angle_gamma	59.994195
loop_
_atom_site_label
_atom_site_type_symbol
_atom_site_fract_x
_atom_site_fract_y
_atom_site_fract_z
O1	O	0.053721	-0.565181	0.472559
O2	O	0.020283	-0.440038	0.380761
O3	O	0.099534	-0.519209	0.380676
O4	O	-0.025530	-0.486010	0.472643
O5	O	0.125831	-0.492917	0.406885
O6	O	0.046580	-0.413746	0.406969
O7	O	0.080018	-0.538889	0.498767
Zn8	Zn	0.067475	-0.472143	0.457030
Zn9	Zn	0.032827	-0.506784	0.422498
O10	O	0.000767	-0.459718	0.498852
N11	N	0.091122	-0.448505	0.480598
N12	N	0.009184	-0.530426	0.398930
C13	C	0.124402	-0.415465	0.717633
C14	C	0.328327	-0.415388	0.513477
C15	C	0.124221	-0.415437	0.513630
C16	C	0.124201	-0.211364	0.513624
C17	C	0.157075	-0.309853	0.546423
C18	C	0.157084	-0.382601	0.546423
C19	C	0.175289	-0.364414	0.564591
C20	C	0.254624	-0.350722	0.522790
C21	C	0.304220	-0.367243	0.506229
C22	C	0.304249	-0.447494	0.536832
C23	C	0.254655	-0.430972	0.553394
C24	C	0.169014	-0.285043	0.497667
C25	C	0.152454	-0.235444	0.481153
C26	C	0.112020	-0.235469	0.562154
C27	C	0.128580	-0.285068	0.578668
C28	C	0.108321	-0.370634	0.558439
C29	C	0.091776	-0.387168	0.541918
C30	C	0.172754	-0.427637	0.501375
C31	C	0.189301	-0.411103	0.517891
C32	C	0.108399	-0.370649	0.643978
C33	C	0.091911	-0.387197	0.693575
C34	C	0.172928	-0.427676	0.693511
C35	C	0.189415	-0.411128	0.643912
C36	C	0.157149	-0.382613	0.619147
C37	C	0.229844	-0.382585	0.546371
C38	C	0.105624	-0.433333	0.772186
C39	C	0.382878	-0.432925	0.495007
C40	C	0.105380	-0.433313	0.495792
C41	C	0.105683	-0.156808	0.496094
C42	C	-0.023527	-0.563458	0.161535
C43	C	-0.023851	-0.767445	0.365663
C44	C	-0.023821	-0.563448	0.365756
C45	C	-0.227785	-0.563229	0.365355
C46	C	-0.129302	-0.596153	0.332678
C47	C	-0.056593	-0.596234	0.332823
C48	C	-0.074746	-0.614396	0.314578
C49	C	-0.088477	-0.693710	0.356299
C50	C	-0.071982	-0.743310	0.372851
C51	C	0.008266	-0.743392	0.342376
C52	C	-0.008230	-0.693794	0.325823
C53	C	-0.154162	-0.608103	0.381422
C54	C	-0.203757	-0.591517	0.397874
C55	C	-0.203630	-0.551037	0.316836
C56	C	-0.154034	-0.567623	0.300384
C57	C	-0.068543	-0.547475	0.320829
C58	C	-0.052041	-0.530969	0.337421
C59	C	-0.011639	-0.611977	0.377990
C60	C	-0.028141	-0.628485	0.361404
C61	C	-0.068417	-0.547482	0.235199
C62	C	-0.051814	-0.530977	0.185602
C63	C	-0.011349	-0.611990	0.185649
C64	C	-0.027951	-0.628493	0.235248
C65	C	-0.056486	-0.596238	0.260022
C66	C	-0.056602	-0.668955	0.332787
C67	C	-0.005599	-0.544662	0.106983
C68	C	-0.006342	-0.821999	0.384121
C69	C	-0.005979	-0.544649	0.383673
C70	C	-0.282336	-0.544682	0.382817
N71	N	0.427518	-0.448428	0.480350
O72	O	0.589573	-0.456297	0.363634
O73	O	0.589761	-0.548399	0.488643
O74	O	0.589681	-0.548188	0.409364
O75	O	0.589654	-0.456508	0.442913
O76	O	0.510890	-0.521988	0.435708
O77	O	0.510970	-0.522199	0.514987
O78	O	0.510782	-0.430098	0.389978
Zn79	Zn	0.498366	-0.471989	0.456665
Zn80	Zn	0.602177	-0.506508	0.421956
O81	O	0.510862	-0.430308	0.469257
N82	N	0.673025	-0.530068	0.398267
N83	N	0.091092	-0.112167	0.480590
O84	O	-0.025539	0.049976	0.472612
O85	O	0.099472	0.050011	0.380491
O86	O	0.020155	0.049979	0.380751
O87	O	0.053778	0.050009	0.472352
O88	O	0.046458	-0.028818	0.407008
O89	O	0.125775	-0.028785	0.406748
O90	O	0.000764	-0.028821	0.498869
Zn91	Zn	0.067445	-0.041314	0.456977
Zn92	Zn	0.032791	0.062504	0.422382
O93	O	0.080081	-0.028788	0.498609
N94	N	0.009138	0.133358	0.398771
N95	N	0.091421	-0.448552	0.816827
O96	O	0.083469	-0.565164	0.978960
O97	O	-0.008614	-0.440110	0.979002
O98	O	-0.008399	-0.519410	0.978978
O99	O	0.083253	-0.485863	0.978984
O100	O	0.017837	-0.493128	0.900185
O101	O	0.017621	-0.413827	0.900208
O102	O	0.109704	-0.538881	0.900167
Zn103	Zn	0.067828	-0.472181	0.887677
Zn104	Zn	0.033262	-0.506810	0.991491
O105	O	0.109489	-0.459581	0.900191
N106	N	0.009668	-0.530444	1.062341
C107	C	0.030297	-0.411123	0.381218
C108	C	0.128439	-0.509167	0.381113
C109	C	0.070004	-0.567805	0.498310
C110	C	-0.028138	-0.469761	0.498415
C111	C	0.550388	-0.547982	0.517564
C112	C	0.550290	-0.547721	0.419387
C113	C	0.550153	-0.430514	0.361058
C114	C	0.550253	-0.430775	0.459234
C115	C	0.128339	0.010714	0.380902
C116	C	0.030148	0.010577	0.381256
C117	C	-0.028136	0.010574	0.498426
C118	C	0.070089	0.010613	0.498104
C119	C	-0.008178	-0.411214	0.939610
C120	C	-0.007906	-0.509413	0.939566
C121	C	0.109268	-0.567777	0.939558
C122	C	0.109002	-0.469572	0.939586
H123	H	0.052212	-0.377448	0.713786
H124	H	0.077150	-0.603753	0.527142
O125	O	0.550470	-0.582433	0.560414
C126	C	0.550474	-0.565369	0.589896
H127	H	0.565352	-0.534935	0.567113
H128	H	0.512684	-0.552242	0.613851
C129	C	0.563157	-0.642954	0.648501
C130	C	0.581434	-0.605577	0.620518
H131	H	0.582252	-0.667756	0.667392
H132	H	0.563153	-0.654450	0.628640
H133	H	0.531665	-0.632008	0.668459
H134	H	0.612922	-0.616522	0.600557
H135	H	0.581444	-0.594084	0.640377
H136	H	0.077290	0.010621	0.526881
O137	O	0.143368	-0.460960	0.939496
C138	C	0.154220	-0.422582	0.898700
H139	H	0.143802	-0.418849	0.870181
H140	H	0.133778	-0.388614	0.907938
C141	C	0.220559	-0.436174	0.915212
C142	C	0.207767	-0.431592	0.880182
H143	H	0.253589	-0.441730	0.903790
H144	H	0.213247	-0.462029	0.942698
H145	H	0.203521	-0.407866	0.922907
H146	H	0.224801	-0.459901	0.872492
H147	H	0.215083	-0.405742	0.852694
O148	O	-0.042713	-0.368388	0.939603
C149	C	-0.083496	-0.368403	0.939617
H150	H	-0.072993	-0.396458	0.924691
H151	H	-0.109238	-0.376681	0.977420
C152	C	-0.120358	-0.284882	0.927060
C153	C	-0.107457	-0.319337	0.908724
H154	H	-0.135140	-0.254616	0.908006
H155	H	-0.092883	-0.284872	0.927052
H156	H	-0.141807	-0.291786	0.958562
H157	H	-0.086004	-0.312436	0.877225
H158	H	-0.134929	-0.319345	0.908726
H159	H	-0.064060	-0.462687	0.527292
H160	H	0.022945	0.010574	0.352477
H161	H	0.023152	-0.375173	0.352387
O162	O	0.550282	-0.582023	0.410755
C163	C	0.550236	-0.564766	0.364194
H164	H	0.535279	-0.524411	0.351748
H165	H	0.588024	-0.576719	0.339653
C166	C	0.537713	-0.633846	0.378585
C167	C	0.519340	-0.584281	0.363299
H168	H	0.518657	-0.645885	0.378032
H169	H	0.537746	-0.645473	0.409953
H170	H	0.569203	-0.643801	0.358132
H171	H	0.487853	-0.574327	0.383755
H172	H	0.519301	-0.572652	0.331934
H173	H	0.324452	-0.486894	0.542541
O174	O	0.171323	-0.517674	0.346717
C175	C	0.200767	-0.564230	0.363830
H176	H	0.187919	-0.576779	0.404184
H177	H	0.199462	-0.588731	0.351832
C178	C	0.267828	-0.549622	0.294656
C179	C	0.252050	-0.565033	0.344220
H180	H	0.299462	-0.550119	0.282558
H181	H	0.247991	-0.518257	0.283125
H182	H	0.266736	-0.570042	0.284664
H183	H	0.253136	-0.544610	0.354211
H184	H	0.271888	-0.596395	0.355752
O185	O	0.143803	-0.610586	0.939459
C186	C	0.183714	-0.604333	0.898654
H187	H	0.172284	-0.569638	0.870141
H188	H	0.210458	-0.603242	0.907881
C189	C	0.220665	-0.688457	0.915155
C190	C	0.206626	-0.645846	0.880133
H191	H	0.234800	-0.714065	0.903731
H192	H	0.193777	-0.692670	0.942647
H193	H	0.242949	-0.687541	0.922841
H194	H	0.184338	-0.646760	0.872452
H195	H	0.233511	-0.641634	0.852639
O196	O	0.550103	-0.396073	0.318197
C197	C	0.550070	-0.413127	0.288724
H198	H	0.565031	-0.453483	0.301531
H199	H	0.512257	-0.401116	0.290048
C200	C	0.562526	-0.343902	0.221714
C201	C	0.580906	-0.393467	0.237441
H202	H	0.581545	-0.331773	0.190079
H203	H	0.562547	-0.332411	0.241570
H204	H	0.531016	-0.333899	0.222821
H205	H	0.612413	-0.403469	0.236339
H206	H	0.580891	-0.404959	0.217583
H207	H	-0.223768	-0.527810	0.290539
H208	H	-0.036687	-0.516580	0.939532
O209	O	0.550221	-0.396460	0.467879
C210	C	0.550293	-0.413726	0.514431
H211	H	0.535417	-0.444160	0.536853
H212	H	0.588107	-0.426914	0.513695
C213	C	0.537661	-0.336280	0.508452
C214	C	0.519385	-0.373657	0.535991
H215	H	0.518597	-0.311564	0.521751
H216	H	0.537614	-0.324648	0.477088
H217	H	0.569171	-0.347277	0.507840
H218	H	0.487877	-0.362662	0.536598
H219	H	0.519426	-0.385287	0.567356
H220	H	0.164166	0.010943	0.351910
O221	O	-0.071001	0.010653	0.532885
C222	C	-0.106736	0.051450	0.516696
H223	H	-0.090606	0.079975	0.487182
H224	H	-0.123498	0.042213	0.502576
C225	C	-0.164728	0.034925	0.594202
C226	C	-0.144917	0.069961	0.557956
H227	H	-0.188281	0.046343	0.619653
H228	H	-0.140653	0.007438	0.605109
H229	H	-0.178692	0.027231	0.582430
H230	H	-0.130948	0.077650	0.569727
H231	H	-0.168990	0.097449	0.547052
O232	O	0.076990	-0.342971	0.619994
C233	C	0.030425	-0.335947	0.652546
H234	H	0.030548	-0.365855	0.687891
H235	H	0.016215	-0.300617	0.657829
C236	C	-0.001561	-0.298864	0.589809
C237	C	-0.001411	-0.335601	0.633220
H238	H	-0.021200	-0.298648	0.577888
H239	H	0.029810	-0.303595	0.567878
H240	H	-0.013402	-0.269426	0.594218
H241	H	0.010435	-0.365038	0.628810
H242	H	-0.032781	-0.330875	0.655150
H243	H	0.229113	-0.420876	0.623698
O244	O	0.204290	-0.455434	0.717543
C245	C	0.232978	-0.497018	0.705393
H246	H	0.213813	-0.503923	0.691781
H247	H	0.267803	-0.492493	0.676582
C248	C	0.266702	-0.530745	0.766148
C249	C	0.243161	-0.539228	0.749433
H250	H	0.272985	-0.556783	0.793313
H251	H	0.247376	-0.502729	0.774333
H252	H	0.295719	-0.526974	0.742134
H253	H	0.214142	-0.542993	0.773445
H254	H	0.262483	-0.567246	0.741254
O255	O	0.044418	-0.375630	0.553607
C256	C	0.032461	-0.417314	0.578583
H257	H	0.065152	-0.448468	0.569612
H258	H	0.018878	-0.424295	0.618279
C259	C	-0.046561	-0.373068	0.575378
C260	C	-0.006411	-0.411331	0.564356
H261	H	-0.070541	-0.369377	0.566604
H262	H	-0.038506	-0.344984	0.558553
H263	H	-0.057874	-0.378890	0.608458
H264	H	0.004905	-0.405505	0.531276
H265	H	-0.014465	-0.439414	0.581175
H266	H	0.011877	-0.638258	0.165483
H267	H	0.082085	-0.347427	0.581670
H268	H	0.198991	-0.450848	0.478149
H269	H	0.229008	-0.420842	0.508101
O270	O	-0.129956	-0.555992	0.253015
C271	C	-0.162420	-0.527243	0.228040
H272	H	-0.197796	-0.533528	0.251641
H273	H	-0.167667	-0.488402	0.217344
C274	C	-0.099560	-0.532099	0.154339
C275	C	-0.143008	-0.539821	0.183325
H276	H	-0.087585	-0.539856	0.126756
H277	H	-0.077687	-0.551466	0.171165
H278	H	-0.103938	-0.499731	0.145431
H279	H	-0.138628	-0.572190	0.192238
H280	H	-0.164879	-0.520460	0.166500
H281	H	0.234479	-0.456922	0.572596
H282	H	0.234427	-0.311322	0.517070
O283	O	0.328270	-0.336260	0.483250
C284	C	0.316102	-0.302583	0.442382
H285	H	0.302456	-0.317870	0.430998
H286	H	0.287311	-0.269154	0.450505
C287	C	0.376896	-0.271529	0.416126
C288	C	0.360139	-0.290306	0.402142
H289	H	0.404059	-0.263954	0.391305
H290	H	0.385093	-0.294216	0.443661
H291	H	0.352899	-0.243674	0.422895
H292	H	0.384134	-0.318164	0.395379
H293	H	0.351947	-0.267623	0.374606
O294	O	0.196669	-0.309047	0.466282
C295	C	0.203659	-0.276510	0.419706
H296	H	0.173747	-0.241162	0.419818
H297	H	0.238986	-0.271223	0.405469
C298	C	0.240719	-0.339278	0.387773
C299	C	0.203978	-0.295864	0.387909
H300	H	0.240918	-0.351217	0.368158
H301	H	0.236011	-0.361199	0.419152
H302	H	0.270154	-0.334866	0.375910
H303	H	0.174543	-0.300277	0.399777
H304	H	0.208681	-0.273944	0.356531
H305	H	0.088825	-0.215289	0.588411
O306	O	0.163968	-0.211318	0.433793
C307	C	0.122273	-0.182626	0.421843
H308	H	0.092497	-0.197587	0.449819
H309	H	0.111827	-0.145038	0.420205
C310	C	0.167630	-0.163472	0.338852
C311	C	0.131060	-0.181851	0.373210
H312	H	0.173051	-0.162992	0.308852
H313	H	0.195721	-0.182801	0.346903
H314	H	0.158921	-0.132151	0.337493
H315	H	0.139773	-0.213173	0.374573
H316	H	0.102971	-0.162527	0.365159
H317	H	0.118851	-0.305270	0.618371
H318	H	-0.091654	-0.521212	0.255368
O319	O	-0.063473	-0.483597	0.161568
C320	C	-0.092209	-0.458670	0.194072
H321	H	-0.110282	-0.482300	0.229409
H322	H	-0.069349	-0.447999	0.199400
C323	C	-0.107870	-0.384914	0.131245
C324	C	-0.130071	-0.413936	0.174645
H325	H	-0.131224	-0.357319	0.119262
H326	H	-0.088509	-0.401707	0.109346
H327	H	-0.088821	-0.376027	0.135691
H328	H	-0.149115	-0.422827	0.170198
H329	H	-0.149436	-0.397143	0.196544
H330	H	-0.091707	-0.521211	0.297556
O331	O	-0.016418	-0.675863	0.259338
C332	C	-0.033348	-0.696436	0.247157
H333	H	-0.063899	-0.668172	0.233463
H334	H	-0.003568	-0.712121	0.218399
C335	C	-0.013278	-0.770614	0.308020
C336	C	-0.050804	-0.735900	0.291204
H337	H	-0.024044	-0.794959	0.335189
H338	H	-0.001870	-0.756754	0.316226
H339	H	0.011535	-0.783680	0.284050
H340	H	-0.075614	-0.722831	0.315171
H341	H	-0.062217	-0.749759	0.283003
O342	O	-0.063663	-0.483589	0.325700
C343	C	-0.092316	-0.458661	0.296919
H344	H	-0.085975	-0.482322	0.278886
H345	H	-0.131180	-0.447908	0.319736
C346	C	-0.087470	-0.384934	0.281164
C347	C	-0.079679	-0.413993	0.259013
H348	H	-0.079677	-0.357379	0.257784
H349	H	-0.068167	-0.401727	0.300556
H350	H	-0.119857	-0.375978	0.300178
H351	H	-0.047292	-0.422953	0.240005
H352	H	-0.098976	-0.397200	0.239617
H353	H	-0.018411	-0.668189	0.371171
O354	O	0.016050	-0.643353	0.405694
C355	C	0.057665	-0.672057	0.380695
H356	H	0.051058	-0.672535	0.351786
H357	H	0.087508	-0.657178	0.363917
C358	C	0.079850	-0.722276	0.450609
C359	C	0.071734	-0.722867	0.415105
H360	H	0.088531	-0.753618	0.471834
H361	H	0.051814	-0.702937	0.467451
H362	H	0.104718	-0.709875	0.436621
H363	H	0.046863	-0.735262	0.429092
H364	H	0.099766	-0.742209	0.398265
O365	O	0.022788	-0.669796	0.302935
C366	C	0.056491	-0.681940	0.262065
H367	H	0.058817	-0.717943	0.266534
H368	H	0.045334	-0.654025	0.229904
C369	C	0.102380	-0.640061	0.249337
C370	C	0.105239	-0.684282	0.254828
H371	H	0.132450	-0.641504	0.244872
H372	H	0.079673	-0.631878	0.276871
H373	H	0.093081	-0.616803	0.222537
H374	H	0.114532	-0.707538	0.281632
H375	H	0.127949	-0.692470	0.227299
H376	H	-0.097938	-0.763465	0.391989
O377	O	0.055253	-0.767577	0.335589
C378	C	0.072465	-0.796267	0.308603
H379	H	0.041855	-0.803660	0.312429
H380	H	0.089599	-0.777178	0.269748
C381	C	0.147068	-0.834324	0.321744
C382	C	0.109472	-0.843408	0.326446
H383	H	0.169897	-0.863402	0.332748
H384	H	0.135473	-0.814994	0.339923
H385	H	0.161341	-0.818415	0.289364
H386	H	0.095196	-0.859310	0.358826
H387	H	0.121066	-0.862742	0.308272
H388	H	-0.127865	-0.673490	0.361973
H389	H	-0.223999	-0.601245	0.437568
O390	O	-0.130209	-0.635795	0.412855
C391	C	-0.162788	-0.642790	0.459407
H392	H	-0.198120	-0.612858	0.459262
H393	H	-0.168089	-0.678103	0.473603
C394	C	-0.100091	-0.679924	0.491456
C395	C	-0.143485	-0.643159	0.491278
H396	H	-0.088184	-0.680154	0.511116
H397	H	-0.078142	-0.675213	0.460093
H398	H	-0.104515	-0.709348	0.503285
H399	H	-0.139060	-0.613735	0.479443
H400	H	-0.165433	-0.647865	0.522640
