data_functionalizedCrystal
_audit_creation_method	'MofGen! by Chris Wilmer'
_symmetry_space_group_name_H-M	'P1'
_symmetry_Int_Tables_number	1
_symmetry_cell_setting	triclinic
loop_
_symmetry_equiv_pos_as_xyz
  x,y,z
_cell_length_a	10.723023
_cell_length_b	10.723022
_cell_length_c	7.540329
_cell_angle_alpha	89.997572
_cell_angle_beta	89.997501
_cell_angle_gamma	84.467387
loop_
_atom_site_label
_atom_site_type_symbol
_atom_site_fract_x
_atom_site_fract_y
_atom_site_fract_z
O1	O	1.657185	0.175021	-0.147459
O2	O	1.294033	0.191775	-0.147466
O3	O	1.483987	0.001822	-0.147456
O4	O	1.467232	0.364974	-0.147470
O5	O	1.483975	0.001819	0.147509
O6	O	1.294022	0.191773	0.147499
O7	O	1.657174	0.175018	0.147506
Cu8	Cu	1.475597	0.183395	0.174435
Cu9	Cu	1.475610	0.183398	-0.174396
O10	O	1.467220	0.364972	0.147495
C11	C	1.247528	0.190555	0.000015
C12	C	1.108973	0.186908	0.000012
C13	C	1.482762	-0.044679	0.000024
C14	C	1.479115	-0.183233	0.000018
C15	C	1.369575	-0.231794	0.000013
C16	C	1.365804	-0.374997	0.000006
C17	C	1.047195	0.185280	0.152812
C18	C	0.903992	0.181511	0.152813
C19	C	1.703679	0.176239	0.000020
C20	C	1.842234	0.179886	0.000011
C21	C	1.468445	0.411473	0.000011
C22	C	1.472092	0.550027	0.000006
N23	N	1.475596	0.183393	0.419783
N24	N	1.475620	0.183391	-0.419744
H25	H	1.278587	-0.167352	0.000022
H26	H	1.565884	-0.408170	-0.000056
O27	O	1.038613	0.185027	-0.173277
H28	H	1.105652	0.186773	-0.285207
H29	H	1.100323	0.186671	0.283628
H30	H	0.850864	0.180118	0.283630
O31	O	0.912594	0.181723	-0.173286
H32	H	0.961531	0.268183	-0.180876
O33	O	1.599652	-0.268578	0.000031
H34	H	1.603461	-0.328544	-0.120197
H35	H	1.272016	-0.416809	-0.000007
