data_functionalizedCrystal
_audit_creation_method	'MofGen! by Chris Wilmer'
_symmetry_space_group_name_H-M	'P1'
_symmetry_Int_Tables_number	1
_symmetry_cell_setting	triclinic
loop_
_symmetry_equiv_pos_as_xyz
  x,y,z
_cell_length_a	18.101395
_cell_length_b	15.297475
_cell_length_c	15.296720
_cell_angle_alpha	91.617114
_cell_angle_beta	80.356295
_cell_angle_gamma	99.666319
loop_
_atom_site_label
_atom_site_type_symbol
_atom_site_fract_x
_atom_site_fract_y
_atom_site_fract_z
Zn1	Zn	-0.576346	-1.253296	0.726580
Zn2	Zn	-0.076346	-0.753296	1.226580
Zn3	Zn	-0.682980	-1.278539	0.580092
Zn4	Zn	-0.182980	-0.778539	1.080092
Zn5	Zn	-0.534744	-1.132181	0.554822
Zn6	Zn	-0.034744	-0.632181	1.054822
Zn7	Zn	-0.675701	-1.106767	0.701220
Zn8	Zn	-0.175701	-0.606767	1.201220
O9	O	-0.617443	-1.192696	0.640678
O10	O	-0.117443	-0.692696	1.140678
O11	O	-0.610949	-1.379219	0.728336
O12	O	-0.110949	-0.879219	1.228336
O13	O	-0.648952	-1.280325	0.454165
O14	O	-0.148952	-0.780325	0.954165
O15	O	-0.436645	-1.148319	0.577643
O16	O	0.063355	-0.648319	1.077643
O17	O	-0.689292	-1.397765	0.620712
O18	O	-0.189292	-0.897765	1.120712
O19	O	-0.467210	-1.237301	0.703833
O20	O	0.032790	-0.737301	1.203833
O21	O	-0.540044	-1.172796	0.435600
O22	O	-0.040044	-0.672796	0.935600
O23	O	-0.532985	-1.006236	0.553053
O24	O	-0.032985	-0.506236	1.053053
O25	O	-0.676885	-1.105004	0.827159
O26	O	-0.176885	-0.605004	1.327159
O27	O	-0.636545	-0.987564	0.660612
O28	O	-0.136545	-0.487564	1.160612
O29	O	-0.603890	-1.212658	0.845790
O30	O	-0.103890	-0.712658	1.345790
O31	O	-0.785632	-1.255681	0.596122
O32	O	-0.285632	-0.755681	1.096122
O33	O	-0.780284	-1.129481	0.685115
O34	O	-0.280284	-0.629481	1.185115
C35	C	-0.579462	-0.965117	0.601339
C36	C	-0.079462	-0.465117	1.101339
C37	C	-0.563233	-0.867755	0.584530
C38	C	-0.063233	-0.367755	1.084530
C39	C	-0.809831	-1.192583	0.640632
C40	C	-0.309831	-0.692583	1.140632
C41	C	-0.892152	-1.192610	0.640656
C42	C	-0.392152	-0.692610	1.140656
C43	C	-0.644216	-1.153180	0.869145
C44	C	-0.144216	-0.653180	1.369145
C45	C	-0.655626	-1.136341	0.966504
C46	C	-0.155626	-0.636341	1.466504
C47	C	-1.191281	-1.192794	0.640736
C48	C	-0.691281	-0.692794	1.140736
C49	C	-1.156667	-1.113520	0.696923
C50	C	-0.656667	-0.613520	1.196923
C51	C	-1.070971	-1.113236	0.696656
C52	C	-0.570971	-0.613236	1.196656
C53	C	-1.042879	-1.192702	0.640697
C54	C	-0.542879	-0.692702	1.140697
C55	C	-1.059025	-1.183698	0.544069
C56	C	-0.559025	-0.683698	1.044069
C57	C	-1.144646	-1.183193	0.544399
C58	C	-0.644646	-0.683193	1.044399
C59	C	-1.177858	-1.281361	0.680391
C60	C	-0.677858	-0.781361	1.180391
C61	C	-1.092353	-1.280465	0.682321
C62	C	-0.592353	-0.780465	1.182321
C63	C	-0.959009	-1.192653	0.640670
C64	C	-0.459009	-0.692653	1.140670
C65	C	-1.275150	-1.192842	0.640757
C66	C	-0.775150	-0.692842	1.140757
C67	C	-0.424310	-1.192829	0.640748
C68	C	0.075690	-0.692829	1.140748
C69	C	-0.342008	-1.192886	0.640777
C70	C	0.157992	-0.692886	1.140777
C71	C	-0.655573	-1.421163	0.680172
C72	C	-0.155573	-0.921163	1.180172
C73	C	-0.671822	-1.518521	0.697001
C74	C	-0.171822	-1.018521	1.197001
C75	C	-0.733434	-0.554578	0.760815
C76	C	-0.233434	-0.054578	1.260815
C77	C	-0.748686	-0.646055	0.776605
C78	C	-0.248686	-0.146055	1.276605
C79	C	-0.702324	-0.701484	0.728588
C80	C	-0.202324	-0.201484	1.228588
C81	C	-0.640708	-0.665428	0.664778
C82	C	-0.140708	-0.165428	1.164778
C83	C	-0.625457	-0.573942	0.648981
C84	C	-0.125457	-0.073942	1.148981
C85	C	-0.594348	-0.720849	0.616754
C86	C	-0.094348	-0.220849	1.116754
C87	C	-0.532731	-0.684792	0.552944
C88	C	-0.032731	-0.184792	1.052944
C89	C	-0.517483	-0.593315	0.537151
C90	C	-0.017483	-0.093315	1.037151
C91	C	-0.563845	-0.537886	0.585167
C92	C	-0.063845	-0.037886	1.085167
C93	C	-0.609598	-0.812334	0.632551
C94	C	-0.109598	-0.312334	1.132551
C95	C	-0.501621	-0.831699	0.520717
C96	C	-0.001621	-0.331699	1.020717
C97	C	-0.486369	-0.740221	0.504927
C98	C	0.013631	-0.240221	1.004927
C99	C	-0.590728	-1.232108	0.413109
C100	C	-0.090728	-0.732108	0.913109
C101	C	-0.579139	-1.249117	0.315780
C102	C	-0.079139	-0.749117	0.815780
C103	C	-0.535774	-1.313081	1.279745
C104	C	-0.035774	-0.813081	1.779745
C105	C	-0.525057	-1.328908	1.188272
C106	C	-0.025057	-0.828908	1.688272
C107	C	-0.557698	-1.280767	1.132826
C108	C	-0.057698	-0.780767	1.632826
C109	C	-0.601059	-1.216797	1.168860
C110	C	-0.101059	-0.716797	1.668860
C111	C	-0.611782	-1.200974	1.260343
C112	C	-0.111782	-0.700974	1.760343
C113	C	-0.633706	-1.168660	1.113424
C114	C	-0.133706	-0.668660	1.613424
C115	C	-0.677067	-1.104691	1.149458
C116	C	-0.177067	-0.604691	1.649458
C117	C	-0.687788	-1.088870	1.240932
C118	C	-0.187788	-0.588870	1.740932
C119	C	-0.655147	-1.137010	1.296378
C120	C	-0.155147	-0.637010	1.796378
C121	C	-0.622982	-1.184484	1.021941
C122	C	-0.122982	-0.684484	1.521941
C123	C	-0.698990	-1.072377	1.002539
C124	C	-0.198990	-0.572377	1.502539
C125	C	-0.709707	-1.056550	1.094012
C126	C	-0.209707	-0.556550	1.594012
H127	H	-1.060550	-1.117017	0.767804
H128	H	-0.560550	-0.617017	1.267804
Cl129	Cl	-1.030432	-1.271125	0.476587
Cl130	Cl	-0.530432	-0.771125	0.976587
H131	H	-1.024067	-1.120211	0.512101
H132	H	-0.524067	-0.620211	1.012101
Cl133	Cl	-0.470549	-1.409323	1.142977
Cl134	Cl	0.029451	-0.909323	1.642977
Cl135	Cl	-0.408910	-0.694881	0.424711
Cl136	Cl	0.091090	-0.194881	0.924711
Cl137	Cl	-0.764218	-0.976135	1.139324
Cl138	Cl	-0.264218	-0.476135	1.639324
H139	H	-0.463870	-0.876830	0.481616
H140	H	0.036130	-0.376830	0.981616
Cl141	Cl	-0.494754	-1.373600	1.349452
Cl142	Cl	0.005246	-0.873600	1.849452
Cl143	Cl	-1.154518	-1.083970	0.495408
Cl144	Cl	-0.654518	-0.583970	0.995408
H145	H	-0.723102	-1.036788	1.270269
H146	H	-0.223102	-0.536788	1.770269
H147	H	-0.798856	-0.675406	0.828558
H148	H	-0.298856	-0.175406	1.328558
Cl149	Cl	-0.544221	-1.300662	1.017830
Cl150	Cl	-0.044221	-0.800662	1.517830
H151	H	-0.551428	-0.463396	0.572316
H152	H	-0.051428	0.036604	1.072316
H153	H	-0.725571	-1.033178	0.957395
H154	H	-0.225571	-0.533178	1.457395
H155	H	-1.200698	-1.340226	0.639662
H156	H	-0.700698	-0.840226	1.139662
H157	H	-1.187859	-1.117108	0.768267
H158	H	-0.687859	-0.617108	1.268267
H159	H	-1.165050	-1.047932	0.669664
H160	H	-0.665050	-0.547932	1.169664
H161	H	-0.663871	-1.124127	1.370864
H162	H	-0.163871	-0.624127	1.870864
Cl163	Cl	-1.018905	-1.011380	0.654157
Cl164	Cl	-0.518905	-0.511380	1.154157
Cl165	Cl	-1.228985	-1.298847	0.788624
Cl166	Cl	-0.728985	-0.798847	1.288624
Cl167	Cl	-1.179274	-1.269798	0.476225
Cl168	Cl	-0.679274	-0.769798	0.976225
H169	H	-0.587677	-1.236568	0.992611
H170	H	-0.087677	-0.736568	1.492611
Cl171	Cl	-1.078083	-1.291401	0.792236
Cl172	Cl	-0.578083	-0.791401	1.292236
H173	H	-1.074398	-1.341370	0.645654
H174	H	-0.574398	-0.841370	1.145654
Cl175	Cl	-0.687056	-0.857652	0.712768
Cl176	Cl	-0.187056	-0.357652	1.212768
H177	H	-0.714747	-0.775969	0.741449
H178	H	-0.214747	-0.275969	1.241449
H179	H	-0.771179	-0.509441	0.799898
H180	H	-0.271179	-0.009441	1.299898
H181	H	-0.467317	-0.563962	0.485183
H182	H	0.032683	-0.063962	0.985183
