data_functionalizedCrystal
_audit_creation_method	'MofGen! by Chris Wilmer'
_symmetry_space_group_name_H-M	'P1'
_symmetry_Int_Tables_number	1
_symmetry_cell_setting	triclinic
loop_
_symmetry_equiv_pos_as_xyz
  x,y,z
_cell_length_a	14.044220
_cell_length_b	10.540539
_cell_length_c	13.101039
_cell_angle_alpha	93.398267
_cell_angle_beta	86.340132
_cell_angle_gamma	88.857185
loop_
_atom_site_label
_atom_site_type_symbol
_atom_site_fract_x
_atom_site_fract_y
_atom_site_fract_z
O1	O	1.264944	0.299850	-0.085096
O2	O	0.988901	0.288796	-0.085123
O3	O	1.133220	0.110253	-0.085108
O4	O	1.120625	0.478393	-0.085111
O5	O	1.122866	0.123087	0.085321
O6	O	0.978547	0.301630	0.085306
O7	O	1.254589	0.312683	0.085332
Zn8	Zn	1.114924	0.309194	0.112379
Zn9	Zn	1.128566	0.292285	-0.112169
O10	O	1.110270	0.491226	0.085317
C11	C	0.948377	0.290375	0.000088
C12	C	0.843054	0.275945	0.000078
C13	C	0.650213	0.249565	0.000099
C14	C	0.593272	0.351908	0.000102
C15	C	0.485969	0.337230	0.000114
C16	C	0.757526	0.264241	0.000087
C17	C	1.127098	0.069271	0.000105
C18	C	1.124273	-0.071963	0.000099
C19	C	1.016007	-0.266367	-0.000294
C20	C	1.018849	-0.119430	0.000090
C21	C	1.169094	-0.121162	0.097427
C22	C	1.165492	-0.268064	0.097509
C23	C	1.179411	-0.282960	-0.096300
C24	C	1.180460	-0.135977	-0.097587
C25	C	1.295114	0.311104	0.000119
C26	C	1.400437	0.325534	0.000123
C27	C	1.116392	0.532208	0.000103
C28	C	1.119218	0.673442	0.000102
N29	N	1.105620	0.320734	0.265626
N30	N	1.137878	0.280737	-0.265416
C31	C	1.092962	0.336445	0.474667
C32	C	1.150533	0.265029	0.525549
C33	C	1.143490	0.273771	0.641867
C34	C	1.100004	0.327705	0.358339
H35	H	0.625112	0.450550	0.000096
C36	C	1.224271	0.173568	0.466390
C37	C	1.231258	0.164775	0.348389
C38	C	1.304996	0.073323	0.289224
C39	C	1.371748	-0.009335	0.348059
C40	C	1.364764	-0.000545	0.466066
C41	C	1.291026	0.090907	0.525231
H42	H	1.181842	0.225966	0.304830
H43	H	1.310166	0.066816	0.201867
H44	H	1.426333	-0.077033	0.304261
H45	H	1.414180	-0.061736	0.509625
H46	H	1.285856	0.097414	0.612588
H47	H	0.970315	-0.295542	0.069103
C48	C	0.965464	-0.317795	-0.094576
C49	C	0.863097	-0.271952	-0.111073
C50	C	0.812552	-0.323392	-0.205359
C51	C	0.864373	-0.420675	-0.283147
C52	C	0.966745	-0.466524	-0.266652
C53	C	1.017290	-0.415084	-0.172367
H54	H	0.824731	-0.199932	-0.053488
H55	H	0.736770	-0.289451	-0.217569
H56	H	0.826957	-0.458754	-0.352943
H57	H	1.005111	-0.538544	-0.324238
H58	H	1.093073	-0.449025	-0.160157
C59	C	0.607209	0.116311	0.000100
C60	C	0.673066	-0.002262	0.000091
C61	C	0.630048	-0.135514	0.000089
C62	C	0.521173	-0.150193	0.000095
C63	C	0.455310	-0.031615	0.000104
C64	C	0.498327	0.101637	0.000106
H65	H	0.753667	0.008601	0.000086
H66	H	0.678805	-0.223293	0.000082
H67	H	0.489329	-0.248834	0.000093
H68	H	0.374708	-0.042478	0.000109
H69	H	0.449570	0.189415	0.000113
H70	H	0.983167	-0.086117	-0.069679
C71	C	1.108858	-0.303890	0.195778
C72	C	1.156890	-0.385101	0.272769
C73	C	1.100253	-0.420918	0.371039
C74	C	0.995583	-0.375525	0.392318
C75	C	0.947545	-0.294309	0.315325
C76	C	1.004182	-0.258492	0.217055
H77	H	1.234378	-0.418709	0.257018
H78	H	1.135815	-0.481040	0.428034
H79	H	0.953657	-0.402039	0.465063
H80	H	0.870057	-0.260702	0.331076
H81	H	0.968621	-0.198370	0.160060
H82	H	0.974402	-0.076477	0.069968
H83	H	1.241043	-0.308035	0.101931
H84	H	1.246295	-0.090708	0.101053
H85	H	1.038389	0.404149	0.518459
H86	H	1.129451	-0.076672	0.169848
C87	C	1.139373	-0.337738	-0.195961
C88	C	1.202664	-0.425040	-0.271847
C89	C	1.162615	-0.479817	-0.371502
C90	C	1.059274	-0.447292	-0.395270
C91	C	0.995977	-0.359985	-0.319382
C92	C	1.036026	-0.305209	-0.219727
H93	H	1.279169	-0.449121	-0.254255
H94	H	1.209472	-0.544447	-0.427679
H95	H	1.029627	-0.487841	-0.469040
H96	H	0.919472	-0.335904	-0.336975
H97	H	0.989169	-0.240578	-0.163550
C98	C	1.136297	-0.093061	-0.194864
C99	C	1.049626	-0.000331	-0.185686
C100	C	1.005462	0.042595	-0.282960
C101	C	1.047969	-0.007209	-0.389413
C102	C	1.134645	-0.099944	-0.398595
C103	C	1.178809	-0.142870	-0.301320
H104	H	1.018155	0.036542	-0.106880
H105	H	0.941298	0.111244	-0.276163
H106	H	1.015276	0.024567	-0.461421
H107	H	1.166115	-0.136817	-0.477401
H108	H	1.242972	-0.211520	-0.308118
H109	H	1.255598	-0.322536	-0.096948
C110	C	1.284781	-0.093362	-0.105517
C111	C	1.366870	-0.192474	-0.105824
C112	C	1.471195	-0.149860	-0.113741
C113	C	1.493431	-0.008134	-0.121351
C114	C	1.411340	0.090987	-0.121044
C115	C	1.307015	0.048373	-0.113126
H116	H	1.350412	-0.297396	-0.100191
H117	H	1.531965	-0.223236	-0.113969
H118	H	1.570659	0.023412	-0.127212
H119	H	1.427798	0.195909	-0.126677
H120	H	1.246245	0.121749	-0.112899
