data_functionalizedCrystal
_audit_creation_method	'MofGen! by Chris Wilmer'
_symmetry_space_group_name_H-M	'P1'
_symmetry_Int_Tables_number	1
_symmetry_cell_setting	triclinic
loop_
_symmetry_equiv_pos_as_xyz
  x,y,z
_cell_length_a	14.044220
_cell_length_b	15.021413
_cell_length_c	14.044220
_cell_angle_alpha	89.996608
_cell_angle_beta	93.188878
_cell_angle_gamma	90.003106
loop_
_atom_site_label
_atom_site_type_symbol
_atom_site_fract_x
_atom_site_fract_y
_atom_site_fract_z
O1	O	1.277172	0.073941	0.230155
O2	O	1.777172	0.573941	0.730155
O3	O	1.000501	0.073963	0.221850
O4	O	1.500501	0.573963	0.721850
O5	O	1.134684	0.073944	0.087667
O6	O	1.634684	0.573944	0.587667
O7	O	1.142989	0.073961	0.364338
O8	O	1.642989	0.573961	0.864338
O9	O	1.134662	-0.074121	0.087686
O10	O	1.634662	0.425879	0.587686
O11	O	1.000479	-0.074101	0.221869
O12	O	1.500479	0.425899	0.721869
O13	O	1.277151	-0.074123	0.230174
O14	O	1.777151	0.425877	0.730174
Zn15	Zn	1.138811	-0.097620	0.226024
Zn16	Zn	1.638811	0.402380	0.726024
Zn17	Zn	1.138840	0.097460	0.225999
Zn18	Zn	1.638840	0.597460	0.725999
O19	O	1.142968	-0.074104	0.364357
O20	O	1.642968	0.425896	0.864357
C21	C	0.964868	-0.000066	0.218223
C22	C	1.464868	0.499934	0.718223
C23	C	0.858725	-0.000058	0.207379
C24	C	1.358725	0.499942	0.707379
C25	C	0.664388	-0.000077	0.187553
C26	C	1.164388	0.499923	0.687553
C27	C	0.613258	-0.000076	0.264467
C28	C	1.113258	0.499924	0.764467
C29	C	0.505122	-0.000086	0.253435
C30	C	1.005122	0.499914	0.753435
C31	C	0.772534	-0.000066	0.198583
C32	C	1.272534	0.499934	0.698583
N33	N	1.138799	-0.230758	0.226041
N34	N	1.638799	0.269242	0.726041
C35	C	1.076740	-0.470432	0.288055
C36	C	1.576740	0.029568	0.788055
C37	C	1.164574	-0.529772	0.313879
C38	C	1.664574	-0.029772	0.813879
C39	C	1.138821	-0.412365	0.226020
C40	C	1.638821	0.087635	0.726020
C41	C	1.051012	-0.529767	0.200219
C42	C	1.551012	-0.029767	0.700219
C43	C	1.138836	-0.587789	0.226000
C44	C	1.638836	-0.087789	0.726000
C45	C	1.226703	-0.470399	0.251890
C46	C	1.726703	0.029601	0.751890
C47	C	1.113081	-0.470388	0.138188
C48	C	1.613081	0.029612	0.638188
C49	C	1.200975	-0.529701	0.163981
C50	C	1.700975	-0.029701	0.663981
C51	C	1.138812	-0.311308	0.226033
C52	C	1.638812	0.188692	0.726033
C53	C	1.138855	-0.688844	0.225987
C54	C	1.638855	-0.188844	0.725987
C55	C	1.312783	-0.000092	0.233800
C56	C	1.812783	0.499908	0.733800
C57	C	1.418926	-0.000094	0.244645
C58	C	1.918926	0.499906	0.744645
C59	C	1.131037	-0.000089	0.052054
C60	C	1.631037	0.499911	0.552054
C61	C	1.120193	-0.000089	-0.054088
C62	C	1.620193	0.499911	0.445912
N63	N	1.138859	0.230598	0.225975
N64	N	1.638859	0.730598	0.725975
C65	C	1.100366	-0.000074	-0.248426
C66	C	1.600366	0.499926	0.251574
C67	C	1.177281	-0.000078	-0.299556
C68	C	1.677281	0.499922	0.200444
C69	C	1.166249	-0.000070	-0.407692
C70	C	1.666249	0.499930	0.092308
C71	C	1.111397	-0.000082	-0.140280
C72	C	1.611397	0.499918	0.359720
C73	C	1.146614	-0.000069	0.399969
C74	C	1.646614	0.499931	0.899969
C75	C	1.157459	-0.000063	0.506112
C76	C	1.657459	0.499937	1.006112
H77	H	1.024301	-0.444409	0.340567
H78	H	1.524301	0.055591	0.840567
H79	H	0.626951	-0.000086	0.113425
H80	H	1.126951	0.499914	0.613425
O81	O	0.662838	-0.000052	0.362670
O82	O	1.162838	0.499948	0.862670
H83	H	0.741224	-0.000035	0.356040
H84	H	1.241224	0.499965	0.856040
O85	O	1.193401	-0.564381	0.412240
O86	O	1.693401	-0.064381	0.912240
H87	H	1.141746	-0.540668	0.463611
H88	H	1.641746	-0.040668	0.963611
O89	O	1.325109	-0.436014	0.280908
O90	O	1.825109	0.063986	0.780908
H91	H	1.324321	-0.362127	0.280725
H92	H	1.824321	0.137873	0.780725
O93	O	1.002170	-0.000080	-0.298006
O94	O	1.502170	0.499920	0.201994
H95	H	1.008808	-0.000088	-0.376391
H96	H	1.508808	0.499912	0.123609
O97	O	1.270605	-0.563973	0.094488
O98	O	1.770605	-0.063973	0.594488
H99	H	1.305587	-0.506844	0.060476
H100	H	1.805587	-0.006844	0.560476
O101	O	1.084200	-0.435796	0.039840
O102	O	1.584200	0.064204	0.539840
H103	H	1.011243	-0.459529	0.018588
H104	H	1.511243	0.040471	0.518588
O105	O	0.952645	-0.564312	0.171312
O106	O	1.452645	-0.064312	0.671312
H107	H	0.901247	-0.540565	0.222925
H108	H	1.401247	-0.040565	0.722925
H109	H	1.251414	-0.000024	-0.262117
H110	H	1.751414	0.499976	0.237883
