data_functionalizedCrystal
_audit_creation_method	'MofGen! by Chris Wilmer'
_symmetry_space_group_name_H-M	'P1'
_symmetry_Int_Tables_number	1
_symmetry_cell_setting	triclinic
loop_
_symmetry_equiv_pos_as_xyz
  x,y,z
_cell_length_a	14.908571
_cell_length_b	25.639239
_cell_length_c	25.639233
_cell_angle_alpha	89.981253
_cell_angle_beta	86.694652
_cell_angle_gamma	86.734636
loop_
_atom_site_label
_atom_site_type_symbol
_atom_site_fract_x
_atom_site_fract_y
_atom_site_fract_z
Zn1	Zn	1.379014	-0.254413	-0.341651
Zn2	Zn	1.378882	-0.341828	-0.254211
Zn3	Zn	1.228170	-0.249359	-0.249193
Zn4	Zn	1.228075	-0.336763	-0.336580
O5	O	1.303535	-0.295591	-0.295409
O6	O	1.505239	-0.270244	-0.334274
O7	O	1.358874	-0.329566	-0.180380
O8	O	1.248275	-0.176868	-0.261480
O9	O	1.505142	-0.334467	-0.270032
O10	O	1.359099	-0.180581	-0.329409
O11	O	1.248147	-0.261630	-0.176693
O12	O	1.101915	-0.256719	-0.256563
O13	O	1.248113	-0.325835	-0.410419
O14	O	1.101846	-0.320934	-0.320766
O15	O	1.359008	-0.265333	-0.414144
O16	O	1.358783	-0.414318	-0.265115
O17	O	1.247985	-0.410597	-0.325632
C18	C	1.069147	-0.287729	-0.287571
C19	C	0.968875	-0.284378	-0.284230
C20	C	0.780429	-0.345052	-0.344716
C21	C	0.686214	-0.341905	-0.341579
C22	C	0.686229	-0.274935	-0.274821
C23	C	0.780444	-0.278081	-0.277958
C24	C	0.827540	-0.313142	-0.312906
C25	C	0.921757	-0.316291	-0.316041
C26	C	0.921770	-0.249318	-0.249285
C27	C	0.827556	-0.246171	-0.246148
C28	C	1.303384	-0.431428	-0.295380
C29	C	1.303401	-0.489543	-0.295388
C30	C	1.361378	-0.851841	-0.263960
C31	C	1.361413	-0.906446	-0.263968
O32	O	1.410550	-0.936322	-0.237216
N33	N	1.303694	-0.931835	-0.295449
C34	C	1.245943	-0.902616	-0.326927
O35	O	1.196852	-0.929226	-0.353705
C36	C	1.245913	-0.848012	-0.326922
C37	C	1.303629	-0.822625	-0.295435
C38	C	1.419091	-0.826454	-0.232476
C39	C	1.419054	-0.771852	-0.232468
C40	C	1.361305	-0.742637	-0.263943
C41	C	1.303593	-0.768024	-0.295426
C42	C	1.188167	-0.818794	-0.358403
C43	C	1.188143	-0.764186	-0.358395
C44	C	1.245859	-0.738800	-0.326908
C45	C	1.245808	-0.684207	-0.326892
N46	N	1.303527	-0.658818	-0.295412
C47	C	1.361276	-0.688033	-0.263937
C48	C	1.246011	-1.017289	-0.326938
C49	C	1.246035	-1.071892	-0.326941
C50	C	1.361507	-1.075718	-0.263982
C51	C	1.361477	-1.021114	-0.263977
C52	C	1.303730	-0.991900	-0.295457
C53	C	1.361194	-0.573365	-0.263920
C54	C	1.361150	-0.518758	-0.263913
C55	C	1.245682	-0.514937	-0.326873
C56	C	1.245723	-0.569539	-0.326879
C57	C	1.303486	-0.598752	-0.295401
O58	O	1.196699	-0.654297	-0.353633
O59	O	1.410366	-0.661417	-0.237169
C60	C	1.538839	-0.303484	-0.303278
C61	C	1.639111	-0.306848	-0.306632
C62	C	1.303565	-0.295583	-0.431783
C63	C	1.303577	-0.295579	-0.489897
C64	C	1.303712	-0.159224	-0.295450
C65	C	1.303788	-0.101112	-0.295468
C66	C	1.361393	-0.263979	-0.852209
C67	C	1.361404	-0.263965	-0.906813
O68	O	1.410488	-0.237156	-0.936704
N69	N	1.303676	-0.295460	-0.932183
C70	C	1.245928	-0.326967	-0.902946
O71	O	1.196826	-0.353754	-0.929539
C72	C	1.245913	-0.326978	-0.848342
C73	C	1.303650	-0.295485	-0.822975
C74	C	1.419125	-0.232488	-0.826841
C75	C	1.419115	-0.232503	-0.772240
C76	C	1.361372	-0.264009	-0.743007
C77	C	1.303640	-0.295500	-0.768374
C78	C	1.188160	-0.358482	-0.819105
C79	C	1.188149	-0.358490	-0.764498
C80	C	1.245887	-0.326997	-0.739131
C81	C	1.245887	-0.327021	-0.684539
N82	N	1.303615	-0.295526	-0.659169
C83	C	1.361357	-0.264020	-0.688403
C84	C	1.245962	-0.326941	-1.017618
C85	C	1.245981	-0.326933	-1.072221
C86	C	1.361457	-0.263930	-1.076084
C87	C	1.361442	-0.263941	-1.021480
C88	C	1.303690	-0.295446	-0.992247
C89	C	1.361332	-0.264054	-0.573737
C90	C	1.361320	-0.264073	-0.519131
C91	C	1.245841	-0.327074	-0.515272
C92	C	1.245857	-0.327057	-0.569873
C93	C	1.303605	-0.295543	-0.599104
O94	O	1.196826	-0.353814	-0.654615
O95	O	1.410442	-0.237232	-0.661802
C96	C	1.303558	-0.295563	-0.159567
C97	C	1.303721	-0.295425	-0.101459
H98	H	1.408150	-0.498090	-0.238271
N99	N	1.423738	-0.993734	-0.230024
H100	H	1.387099	-0.969881	-0.204548
H101	H	1.460311	-1.020564	-0.210122
N102	N	1.423601	-0.230106	-0.491773
H103	H	1.409641	-0.192278	-0.500810
H104	H	1.414809	-0.234939	-0.452754
N105	N	1.423795	-1.107234	-0.230033
H106	H	1.415053	-1.145677	-0.234818
H107	H	1.488210	-1.099809	-0.240354
N108	N	1.423715	-0.229974	-0.994122
H109	H	1.460296	-0.210017	-1.020932
H110	H	1.387022	-0.204549	-0.970244
N111	N	0.635399	-0.376323	-0.375887
H112	H	0.679534	-0.399010	-0.398500
H113	H	0.596276	-0.399181	-0.353257
N114	N	1.183769	-1.099270	-0.360892
H115	H	1.147182	-1.072471	-0.380827
H116	H	1.220469	-1.123122	-0.386339
N117	N	1.183715	-0.985781	-0.360889
H118	H	1.147157	-1.010154	-0.380829
H119	H	1.141977	-0.961762	-0.338189
N120	N	1.125910	-0.846166	-0.392361
H121	H	1.089331	-0.819365	-0.412297
H122	H	1.162613	-0.870019	-0.417806
N123	N	1.481322	-0.744477	-0.198516
H124	H	1.444691	-0.720625	-0.173036
H125	H	1.517896	-0.771310	-0.178619
H126	H	1.198831	-0.352727	-0.491460
N127	N	1.481383	-0.857960	-0.198526
H128	H	1.517933	-0.833583	-0.178584
H129	H	1.444703	-0.879415	-0.173086
H130	H	1.141119	-0.740402	-0.384031
N131	N	1.423495	-0.604868	-0.229971
H132	H	1.460044	-0.580494	-0.210026
H133	H	1.386818	-0.626328	-0.204532
H134	H	1.198728	-0.590210	-0.352520
H135	H	1.198661	-0.491141	-0.352498
N136	N	0.776749	-0.208367	-0.208451
H137	H	0.793173	-0.171567	-0.217176
H138	H	0.709933	-0.211265	-0.211309
N139	N	1.183718	-0.360904	-1.099582
H140	H	1.197678	-0.398731	-1.090543
H141	H	1.119295	-0.350580	-1.087913
H142	H	1.408354	-0.238390	-0.597531
H143	H	1.466129	-0.206857	-0.751592
N144	N	1.481400	-0.198498	-0.858367
H145	H	1.517962	-0.178551	-0.834003
H146	H	1.523135	-0.221170	-0.882415
H147	H	1.408472	-0.238275	-1.099896
N148	N	1.183663	-0.360920	-0.986089
H149	H	1.147097	-0.380866	-1.010450
H150	H	1.220334	-0.386355	-0.964654
H151	H	1.198850	-0.352706	-0.590528
H152	H	0.647867	-0.246387	-0.246371
N153	N	1.125884	-0.392450	-0.846456
H154	H	1.089304	-0.412404	-0.819644
H155	H	1.084166	-0.369761	-0.867717
N156	N	0.972558	-0.354106	-0.353730
H157	H	0.928413	-0.373842	-0.373406
H158	H	1.011684	-0.334165	-0.379266
N159	N	1.125850	-0.392466	-0.732968
H160	H	1.089278	-0.412411	-0.757327
H161	H	1.162526	-0.417902	-0.711536
N162	N	0.972582	-0.214902	-0.214970
H163	H	1.039414	-0.222215	-0.222257
H164	H	0.956156	-0.177023	-0.222624
H165	H	0.818776	-0.373602	-0.373170
