data_functionalizedCrystal
_audit_creation_method	'MofGen! by Chris Wilmer'
_symmetry_space_group_name_H-M	'P1'
_symmetry_Int_Tables_number	1
_symmetry_cell_setting	triclinic
loop_
_symmetry_equiv_pos_as_xyz
  x,y,z
_cell_length_a	11.792254
_cell_length_b	10.489746
_cell_length_c	10.268362
_cell_angle_alpha	89.994415
_cell_angle_beta	89.995475
_cell_angle_gamma	84.369949
loop_
_atom_site_label
_atom_site_type_symbol
_atom_site_fract_x
_atom_site_fract_y
_atom_site_fract_z
O1	O	1.507375	0.174909	-0.108300
O2	O	1.177085	0.192911	-0.108303
O3	O	1.349742	-0.001713	-0.108292
O4	O	1.334717	0.369533	-0.108311
O5	O	1.349727	-0.001721	0.108309
O6	O	1.177070	0.192902	0.108297
O7	O	1.507360	0.174901	0.108300
Cu8	Cu	1.342213	0.183901	0.128076
Cu9	Cu	1.342231	0.183911	-0.128079
O10	O	1.334702	0.369524	0.108289
C11	C	1.134783	0.191773	-0.000003
C12	C	1.008761	0.188378	-0.000004
C13	C	0.906417	0.185621	-0.000009
C14	C	0.778021	0.182172	-0.000010
C15	C	1.348599	-0.049245	0.000008
C16	C	1.345200	-0.190862	0.000007
C17	C	1.233331	-0.343345	-0.000010
C18	C	1.289268	-0.266136	-0.106802
C19	C	1.289280	-0.266185	0.106749
C20	C	1.395138	-0.365983	-0.106902
C21	C	1.395134	-0.366038	0.106745
C22	C	1.451149	-0.288879	-0.000073
C23	C	1.549661	0.176039	-0.000002
C24	C	1.675683	0.179433	-0.000010
C25	C	1.335846	0.417056	-0.000014
C26	C	1.339245	0.558674	-0.000021
N27	N	1.342209	0.183894	0.308242
N28	N	1.342245	0.183908	-0.308245
C29	C	1.342225	0.183908	0.573913
C30	C	1.342213	0.183904	0.426075
H31	H	1.141235	-0.367755	-0.000117
H32	H	1.543315	-0.264713	-0.000131
H33	H	1.439799	-0.409690	0.197037
O34	O	1.235761	-0.214327	0.214435
C35	C	1.121023	-0.241536	0.214009
H36	H	1.112073	-0.329773	0.151468
H37	H	1.092949	-0.260559	0.317867
H38	H	1.065268	-0.156278	0.172349
H39	H	1.244563	-0.222507	-0.197090
O40	O	1.448259	-0.417814	-0.214836
C41	C	1.370484	-0.481749	-0.288753
H42	H	1.279805	-0.440800	-0.264548
H43	H	1.387384	-0.467816	-0.396886
H44	H	1.381372	-0.588329	-0.264597
