data_functionalizedCrystal
_audit_creation_method	'MofGen! by Chris Wilmer'
_symmetry_space_group_name_H-M	'P1'
_symmetry_Int_Tables_number	1
_symmetry_cell_setting	triclinic
loop_
_symmetry_equiv_pos_as_xyz
  x,y,z
_cell_length_a	29.019771
_cell_length_b	29.019011
_cell_length_c	29.015668
_cell_angle_alpha	60.004890
_cell_angle_beta	60.009825
_cell_angle_gamma	59.993818
loop_
_atom_site_label
_atom_site_type_symbol
_atom_site_fract_x
_atom_site_fract_y
_atom_site_fract_z
O1	O	0.063866	-0.673289	0.563007
O2	O	0.024059	-0.524205	0.453633
O3	O	0.118464	-0.618532	0.453552
O4	O	-0.030540	-0.578962	0.563088
O5	O	0.149785	-0.587215	0.484789
O6	O	0.055379	-0.492888	0.484869
O7	O	0.095186	-0.641972	0.594244
Cu8	Cu	0.078143	-0.564571	0.542409
Cu9	Cu	0.041102	-0.601606	0.505468
O10	O	0.000781	-0.547645	0.594325
N11	N	0.104196	-0.538525	0.568394
N12	N	0.015054	-0.627656	0.479483
C13	C	0.143783	-0.499167	0.850823
C14	C	0.386758	-0.499111	0.607645
C15	C	0.143618	-0.499136	0.607763
C16	C	0.143598	-0.256029	0.607770
C17	C	0.182748	-0.373362	0.646852
C18	C	0.182758	-0.460025	0.646847
C19	C	0.204440	-0.438361	0.668500
C20	C	0.298958	-0.422064	0.618723
C21	C	0.358043	-0.441753	0.599006
C22	C	0.358069	-0.537354	0.635461
C23	C	0.298985	-0.517664	0.655180
C24	C	0.196983	-0.343808	0.588767
C25	C	0.177262	-0.284720	0.569090
C26	C	0.129075	-0.284743	0.665586
C27	C	0.148797	-0.343831	0.685263
C28	C	0.124666	-0.445760	0.661149
C29	C	0.104961	-0.465454	0.641458
C30	C	0.201435	-0.513678	0.593176
C31	C	0.221143	-0.493984	0.612860
C32	C	0.124738	-0.445777	0.763064
C33	C	0.105085	-0.465488	0.822151
C34	C	0.201594	-0.513722	0.822097
C35	C	0.221247	-0.494012	0.763009
C36	C	0.182817	-0.460038	0.733494
C37	C	0.269432	-0.460018	0.646809
C38	C	0.121399	-0.520450	0.915812
C39	C	0.451745	-0.520012	0.585655
C40	C	0.121177	-0.520429	0.586502
C41	C	0.121544	-0.191035	0.586883
C42	C	-0.110592	-0.666601	0.440035
C43	C	-0.023978	-0.666709	0.440231
C44	C	-0.045598	-0.688342	0.418486
C45	C	-0.061967	-0.782825	0.468184
C46	C	-0.042323	-0.841914	0.487907
C47	C	0.053280	-0.842025	0.451623
C48	C	0.033634	-0.782937	0.431899
C49	C	-0.140218	-0.680832	0.498102
C50	C	-0.199302	-0.661065	0.517690
C51	C	-0.199129	-0.612843	0.421140
C52	C	-0.140045	-0.632610	0.401552
C53	C	-0.038209	-0.608622	0.425941
C54	C	-0.018555	-0.588961	0.445716
C55	C	0.029562	-0.685470	0.494059
C56	C	0.009908	-0.705133	0.474291
C57	C	-0.038037	-0.608631	0.323917
C58	C	-0.018247	-0.588973	0.264830
C59	C	0.029955	-0.685489	0.264893
C60	C	0.010165	-0.705145	0.323981
C61	C	-0.023833	-0.666715	0.353492
C62	C	-0.023990	-0.753339	0.440182
N63	N	0.504925	-0.538487	0.568205
O64	O	0.685342	-0.543679	0.433426
O65	O	0.685533	-0.653395	0.582361
O66	O	0.685457	-0.653145	0.487904
O67	O	0.685418	-0.543929	0.527882
O68	O	0.591592	-0.621921	0.519268
O69	O	0.591667	-0.622171	0.613725
O70	O	0.591477	-0.512455	0.464790
Cu71	Cu	0.583001	-0.564462	0.542121
Cu72	Cu	0.694008	-0.601388	0.505029
O73	O	0.591553	-0.512705	0.559246
N74	N	0.772084	-0.627363	0.478939
N75	N	0.104168	-0.137853	0.568408
O76	O	-0.030538	0.042663	0.563097
O77	O	0.118403	0.042683	0.453379
O78	O	0.023918	0.042657	0.453664
O79	O	0.063947	0.042689	0.562813
O80	O	0.055242	-0.051215	0.484950
O81	O	0.149727	-0.051189	0.484666
O82	O	0.000787	-0.051210	0.594384
Cu83	Cu	0.078117	-0.059771	0.542381
Cu84	Cu	0.041072	0.051244	0.505382
O85	O	0.095272	-0.051184	0.594099
N86	N	0.015015	0.129326	0.479356
N87	N	0.104469	-0.538576	0.968995
O88	O	0.099171	-0.673268	1.149499
O89	O	-0.010519	-0.524279	1.149527
O90	O	-0.010265	-0.618748	1.149494
O91	O	0.098916	-0.578799	1.149533
O92	O	0.021008	-0.587443	1.055625
O93	O	0.020753	-0.492974	1.055659
O94	O	0.130444	-0.641963	1.055630
Cu95	Cu	0.078454	-0.564610	1.047074
Cu96	Cu	0.041470	-0.601632	1.158084
O97	O	0.130189	-0.547494	1.055664
N98	N	0.015455	-0.627672	1.236163
C99	C	0.035988	-0.489761	0.454182
C100	C	0.152897	-0.606574	0.454082
C101	C	0.083257	-0.676417	0.593694
C102	C	-0.033653	-0.559604	0.593794
C103	C	0.638623	-0.652892	0.616806
C104	C	0.638531	-0.652583	0.499833
C105	C	0.638384	-0.512957	0.430345
C106	C	0.638480	-0.513267	0.547317
C107	C	0.152789	-0.004135	0.453875
C108	C	0.035820	-0.004282	0.454266
C109	C	-0.033639	-0.004275	0.593849
C110	C	0.083370	-0.004245	0.593498
C111	C	-0.009989	-0.489856	1.102597
C112	C	-0.009667	-0.606839	1.102536
C113	C	0.129914	-0.676386	1.102561
C114	C	0.129599	-0.559396	1.102601
H115	H	0.093440	-0.418108	0.739036
C116	C	0.210707	-0.617961	0.407610
H117	H	0.210797	-0.585286	0.374810
H118	H	0.239420	-0.626891	0.420562
H119	H	0.217564	-0.648730	0.398780
C120	C	-0.034630	-0.525068	0.430423
H121	H	-0.057750	-0.505000	0.407432
H122	H	-0.054755	-0.515738	0.464043
H123	H	-0.001424	-0.515050	0.410476
H124	H	0.638547	-0.686893	0.491276
H125	H	0.164353	-0.719173	1.102545
C126	C	0.638460	-0.466916	0.558871
H127	H	0.638496	-0.480712	0.596238
H128	H	0.671166	-0.456609	0.532816
H129	H	0.605696	-0.434833	0.554695
C130	C	0.638692	-0.699426	0.674589
H131	H	0.638709	-0.732197	0.674637
H132	H	0.671436	-0.708287	0.681455
H133	H	0.605966	-0.686504	0.703322
C134	C	0.210451	-0.003770	0.407223
H135	H	0.234151	-0.003684	0.420818
H136	H	0.227472	-0.036432	0.396816
H137	H	0.205302	0.029042	0.375255
H138	H	0.057627	-0.716785	0.240872
H139	H	-0.116238	-0.708516	0.529438
C140	C	-0.091466	-0.548219	0.640263
H141	H	-0.091559	-0.580897	0.673060
H142	H	-0.098333	-0.517449	0.649094
H143	H	-0.120173	-0.539296	0.627304
H144	H	0.091941	-0.004235	0.627787
H145	H	0.638322	-0.478510	0.387573
H146	H	-0.223425	-0.672650	0.564976
H147	H	0.163899	-0.550848	1.102605
C148	C	-0.091420	-0.004283	0.640385
H149	H	-0.091454	-0.004281	0.673143
H150	H	-0.120149	0.028446	0.627453
H151	H	-0.098297	-0.037029	0.649275
C152	C	0.024247	-0.004298	0.407942
H153	H	-0.013125	-0.004310	0.421748
H154	H	0.028437	0.028436	0.375839
H155	H	0.050285	-0.037039	0.397669
C156	C	-0.055985	-0.618361	1.102467
H157	H	-0.042185	-0.655732	1.102441
H158	H	-0.088097	-0.614153	1.135189
H159	H	-0.066242	-0.592310	1.069717
C160	C	-0.056512	-0.432051	1.102599
H161	H	-0.089272	-0.431992	1.102586
H162	H	-0.065393	-0.425160	1.135336
H163	H	-0.043572	-0.403339	1.069864
H164	H	0.057789	-0.453866	0.846219
H165	H	0.268542	-0.505632	0.738936
C166	C	0.243868	-0.551086	0.854557
H167	H	0.281272	-0.556758	0.828481
H168	H	0.238207	-0.533053	0.877609
H169	H	0.238212	-0.586509	0.877601
H170	H	0.091761	-0.719242	0.628046
H171	H	0.057658	-0.453826	0.653091
C172	C	0.243660	-0.551033	0.555796
H173	H	0.281078	-0.556704	0.550099
H174	H	0.237999	-0.586451	0.573832
H175	H	0.237959	-0.532981	0.520387
C176	C	0.285043	-0.509667	0.597126
H177	H	0.305082	-0.532714	0.574067
H178	H	0.294709	-0.476250	0.577082
H179	H	0.294760	-0.529722	0.630525
C180	C	0.266504	-0.559413	0.686074
H181	H	0.227083	-0.539432	0.696625
H182	H	0.276173	-0.578090	0.661763
H183	H	0.276213	-0.586471	0.718904
C184	C	0.390582	-0.600763	0.644663
H185	H	0.429999	-0.607053	0.628893
H186	H	0.380925	-0.621369	0.683953
H187	H	0.380887	-0.612985	0.626810
C188	C	0.390522	-0.400004	0.568110
H189	H	0.364458	-0.362851	0.565944
H190	H	0.413589	-0.409887	0.588229
H191	H	0.413550	-0.401510	0.531089
H192	H	0.093408	-0.418110	0.688821
C193	C	0.266455	-0.358655	0.609516
H194	H	0.292505	-0.338873	0.589968
H195	H	0.243385	-0.344795	0.587882
H196	H	0.243426	-0.353178	0.645023
H197	H	0.188851	-0.260656	0.521790
C198	C	0.234329	-0.376294	0.546520
H199	H	0.244041	-0.415718	0.566558
H200	H	0.214265	-0.366612	0.523485
H201	H	0.267729	-0.366600	0.523458
C202	C	0.091731	-0.252257	0.707835
H203	H	0.086080	-0.278321	0.745249
H204	H	0.109764	-0.229197	0.702147
H205	H	0.056301	-0.229216	0.702180
H206	H	-0.029822	-0.541673	0.240758
C207	C	0.133072	-0.376343	0.749159
H208	H	0.110009	-0.350292	0.769216
H209	H	0.113028	-0.399367	0.758791
H210	H	0.166462	-0.399419	0.758889
H211	H	-0.065723	-0.577332	0.347941
H212	H	0.021738	-0.752445	0.348058
H213	H	-0.065797	-0.577331	0.398207
H214	H	0.057158	-0.716762	0.521784
H215	H	0.064563	-0.758931	0.409098
C216	C	0.025563	-0.769028	0.490003
H217	H	0.048563	-0.789098	0.513115
H218	H	-0.007862	-0.778672	0.509985
H219	H	0.045658	-0.778735	0.456599
H220	H	0.100203	-0.866125	0.444882
H221	H	-0.073247	-0.865920	0.510699
H222	H	-0.223112	-0.585171	0.389803
C223	C	-0.125351	-0.750272	0.477286
H224	H	-0.145153	-0.776298	0.496783
H225	H	-0.139241	-0.727208	0.498935
H226	H	-0.130763	-0.727230	0.441749
H227	H	-0.115923	-0.621016	0.354266
H228	H	0.027485	-0.446933	0.419832
