data_functionalizedCrystal
_audit_creation_method	'MofGen! by Chris Wilmer'
_symmetry_space_group_name_H-M	'P1'
_symmetry_Int_Tables_number	1
_symmetry_cell_setting	triclinic
loop_
_symmetry_equiv_pos_as_xyz
  x,y,z
_cell_length_a	6.817900
_cell_length_b	11.102289
_cell_length_c	9.582880
_cell_angle_alpha	90.972692
_cell_angle_beta	111.207034
_cell_angle_gamma	108.605707
loop_
_atom_site_label
_atom_site_type_symbol
_atom_site_fract_x
_atom_site_fract_y
_atom_site_fract_z
V1	V	-4.142615	-0.175303	-0.466601
O2	O	-4.101056	0.008976	-0.457719
O3	O	-4.119180	-0.348127	-0.463410
O4	O	-4.132953	-0.172364	-0.670102
O5	O	-4.087187	-0.168003	-0.249596
V6	V	-4.617989	-0.153290	-0.440646
O7	O	-4.421750	-0.223591	-0.523537
O8	O	-4.789051	-0.105002	-0.383710
O9	O	-4.418218	0.019534	-0.443837
O10	O	-4.776945	-0.337568	-0.449527
O11	O	-4.790814	-0.160589	-0.657651
O12	O	-4.404444	-0.156228	-0.237145
C13	C	-3.969000	-0.390265	-0.456049
C14	C	-4.031384	-0.531549	-0.454796
C15	C	-3.986568	-0.166061	-0.719704
C16	C	-4.060117	-0.164802	-0.886067
C17	C	-4.245196	-0.604390	-0.461672
C18	C	-4.303807	-0.737142	-0.460508
C19	C	-3.934767	-0.724202	-0.445584
C20	C	-3.876166	-0.591453	-0.446759
C21	C	-4.458256	-0.611861	-0.470282
C22	C	-4.516866	-0.744614	-0.469118
C23	C	-4.231739	0.061666	-0.451194
C24	C	-4.148596	0.202949	-0.452456
C25	C	-4.214170	-0.162536	-0.187535
C26	C	-4.119858	-0.163788	-0.021171
H27	H	-3.702073	-0.532153	-0.441177
C28	C	-4.619142	-0.585712	-0.617317
C29	C	-4.808048	-0.698756	-0.734672
C30	C	-4.968927	-0.672606	-0.881702
C31	C	-4.940900	-0.533411	-0.911378
C32	C	-4.751986	-0.420357	-0.794020
C33	C	-4.591107	-0.446508	-0.646990
H34	H	-4.828803	-0.801805	-0.712707
H35	H	-5.108774	-0.756296	-0.968578
H36	H	-5.059992	-0.514053	-1.020219
H37	H	-4.731231	-0.317308	-0.815985
H38	H	-4.451260	-0.362817	-0.560114
C39	C	-4.704939	-0.822619	-0.618881
C40	C	-4.669432	-0.808607	-0.768438
C41	C	-4.857506	-0.886609	-0.918196
C42	C	-5.081087	-0.978623	-0.918397
C43	C	-5.116604	-0.992639	-0.768834
C44	C	-4.928530	-0.914637	-0.619076
H45	H	-4.503915	-0.740489	-0.768295
H46	H	-4.831213	-0.876232	-1.028913
H47	H	-5.220311	-1.036365	-1.029257
H48	H	-5.282120	-1.060757	-0.768977
H49	H	-4.954822	-0.925014	-0.508359
H50	H	-3.808404	-0.772991	-0.439042
H51	H	-4.451294	-0.558755	-0.364766
H52	H	-4.561363	-0.769701	-0.366892
