data_functionalizedCrystal
_audit_creation_method	'MofGen! by Chris Wilmer'
_symmetry_space_group_name_H-M	'P1'
_symmetry_Int_Tables_number	1
_symmetry_cell_setting	triclinic
loop_
_symmetry_equiv_pos_as_xyz
  x,y,z
_cell_length_a	19.288864
_cell_length_b	19.288865
_cell_length_c	18.366186
_cell_angle_alpha	90.011479
_cell_angle_beta	90.022894
_cell_angle_gamma	83.136245
loop_
_atom_site_label
_atom_site_type_symbol
_atom_site_fract_x
_atom_site_fract_y
_atom_site_fract_z
O1	O	-0.921353	-0.086649	-0.060791
O2	O	-0.421353	0.413351	0.439209
O3	O	-0.719092	-0.098337	-0.060743
O4	O	-0.219092	0.401663	0.439257
O5	O	-0.826067	0.008637	-0.060754
O6	O	-0.326067	0.508637	0.439246
O7	O	-0.814378	-0.193623	-0.060780
O8	O	-0.314378	0.306377	0.439220
O9	O	-0.826049	0.008643	0.060345
O10	O	-0.326049	0.508643	0.560345
O11	O	-0.719074	-0.098332	0.060357
O12	O	-0.219074	0.401668	0.560357
O13	O	-0.921335	-0.086643	0.060308
O14	O	-0.421335	0.413357	0.560308
Zn15	Zn	-0.820201	-0.092487	0.079559
Zn16	Zn	-0.320201	0.407513	0.579559
Zn17	Zn	-0.820225	-0.092494	-0.079994
Zn18	Zn	-0.320225	0.407506	0.420006
O19	O	-0.814360	-0.193618	0.060319
O20	O	-0.314360	0.306382	0.560319
C21	C	-0.693207	-0.097959	-0.000187
C22	C	-0.193207	0.402041	0.499813
C23	C	-0.616103	-0.096830	-0.000167
C24	C	-0.116103	0.403170	0.499833
C25	C	-0.825682	0.034516	-0.000202
C26	C	-0.325682	0.534516	0.499798
C27	C	-0.824553	0.111620	-0.000195
C28	C	-0.324553	0.611620	0.499805
C29	C	-0.947220	-0.087022	-0.000250
C30	C	-0.447220	0.412978	0.499750
C31	C	-1.024324	-0.088151	-0.000274
C32	C	-0.524324	0.411849	0.499726
C33	C	-0.571407	-0.159598	-0.000187
C34	C	-0.071407	0.340402	0.499813
C35	C	-0.498960	-0.158537	-0.000195
C36	C	0.001040	0.341463	0.499805
C37	C	-0.471212	-0.094705	-0.000198
C38	C	0.028788	0.405295	0.499802
C39	C	-0.515918	-0.031929	-0.000174
C40	C	-0.015918	0.468071	0.499826
C41	C	-0.588364	-0.032991	-0.000159
C42	C	-0.088364	0.467009	0.499841
C43	C	-0.362956	-0.044527	-0.042642
C44	C	0.137044	0.455473	0.457358
C45	C	-0.290512	-0.043468	-0.042662
C46	C	0.209488	0.456532	0.457338
C47	C	-0.247767	-0.091425	-0.000241
C48	C	0.252233	0.408575	0.499759
C49	C	-0.277473	-0.140454	0.042189
C50	C	0.222527	0.359546	0.542189
C51	C	-0.349918	-0.141517	0.042205
C52	C	0.150082	0.358483	0.542205
C53	C	-0.392658	-0.093546	-0.000214
C54	C	0.107342	0.406454	0.499786
C55	C	-0.124514	-0.153047	-0.000269
C56	C	0.375486	0.346953	0.499731
C57	C	-0.052066	-0.151984	-0.000272
C58	C	0.447934	0.348016	0.499728
C59	C	-0.069026	-0.025374	-0.000259
C60	C	0.430974	0.474626	0.499741
C61	C	-0.141473	-0.026439	-0.000248
C62	C	0.358527	0.473561	0.499752
C63	C	-0.169212	-0.090278	-0.000256
C64	C	0.330788	0.409722	0.499744
C65	C	-0.814745	-0.219497	-0.000234
C66	C	-0.314745	0.280503	0.499766
C67	C	-0.815874	-0.296601	-0.000246
C68	C	-0.315874	0.203399	0.499754
N69	N	-0.820190	-0.092482	0.188451
N70	N	-0.320190	0.407518	0.688451
C71	C	-0.887321	0.156316	-0.000207
C72	C	-0.387321	0.656316	0.499793
C73	C	-0.886260	0.228763	-0.000218
C74	C	-0.386260	0.728763	0.499782
C75	C	-0.822428	0.256511	-0.000203
C76	C	-0.322428	0.756511	0.499797
C77	C	-0.759652	0.211805	-0.000196
C78	C	-0.259652	0.711805	0.499804
C79	C	-0.760714	0.139359	-0.000192
C80	C	-0.260714	0.639359	0.499808
C81	C	-0.772242	0.364800	0.042227
C82	C	-0.272242	0.864800	0.542227
C83	C	-0.771182	0.437245	0.042228
C84	C	-0.271182	0.937245	0.542228
C85	C	-0.819148	0.479956	-0.000219
C86	C	-0.319148	0.979956	0.499781
C87	C	-0.868186	0.450216	-0.042657
C88	C	-0.368186	0.950216	0.457343
C89	C	-0.869248	0.377771	-0.042653
C90	C	-0.369248	0.877771	0.457347
C91	C	-0.821269	0.335065	-0.000208
C92	C	-0.321269	0.835065	0.499792
C93	C	-0.880770	0.603209	-0.000244
C94	C	-0.380770	1.103209	0.499756
C95	C	-0.879707	0.675657	-0.000259
C96	C	-0.379707	1.175657	0.499741
C97	C	-0.753097	0.658697	-0.000230
C98	C	-0.253097	1.158697	0.499770
C99	C	-0.754162	0.586250	-0.000221
C100	C	-0.254162	1.086250	0.499779
C101	C	-0.818001	0.558511	-0.000225
C102	C	-0.318001	1.058511	0.499775
N103	N	-0.820242	-0.092493	-0.188885
N104	N	-0.320242	0.407507	0.311115
C105	C	-0.867574	-0.045137	0.226546
C106	C	-0.367574	0.454863	0.726546
C107	C	-0.867578	-0.045134	0.302774
C108	C	-0.367578	0.454866	0.802774
C109	C	-0.820206	-0.092488	0.340903
C110	C	-0.320206	0.407512	0.840903
C111	C	-0.772813	-0.139836	0.302799
C112	C	-0.272813	0.360164	0.802799
C113	C	-0.772805	-0.139834	0.226572
C114	C	-0.272805	0.360166	0.726572
C115	C	-0.810907	-0.155775	0.461657
C116	C	-0.310907	0.344225	0.961657
C117	C	-0.810920	-0.155779	0.537882
C118	C	-0.310920	0.344221	1.037882
C119	C	-0.820225	-0.092496	0.576011
C120	C	-0.320225	0.407504	1.076011
C121	C	-0.829533	-0.029207	0.537905
C122	C	-0.329533	0.470793	1.037905
C123	C	-0.829525	-0.029204	0.461679
C124	C	-0.329525	0.470796	0.961679
C125	C	-0.820208	-0.092496	0.423558
C126	C	-0.320208	0.407504	0.923558
C127	C	-0.867617	-0.045144	0.696761
C128	C	-0.367617	0.454856	1.196761
C129	C	-0.867616	-0.045140	0.772990
C130	C	-0.367616	0.454860	1.272990
C131	C	-0.772854	-0.139849	0.773014
C132	C	-0.272854	0.360151	1.273014
C133	C	-0.772851	-0.139847	0.696786
C134	C	-0.272851	0.360153	1.196786
C135	C	-0.820236	-0.092495	0.658664
C136	C	-0.320236	0.407505	1.158664
H137	H	-0.593987	-0.211580	-0.000195
H138	H	-0.093987	0.288420	0.499805
H139	H	-0.837102	0.022328	0.430657
H140	H	-0.337102	0.522328	0.930657
H141	H	-0.462561	-0.209652	-0.000209
H142	H	0.037439	0.290348	0.499791
H143	H	-0.939303	0.133736	-0.000212
H144	H	-0.439303	0.633736	0.499788
H145	H	-0.906156	-0.006579	0.195509
H146	H	-0.406156	0.493421	0.695509
H147	H	-0.906200	-0.006582	0.804008
H148	H	-0.406200	0.493418	1.304008
Br149	Br	-0.798347	-0.241669	0.409918
Br150	Br	-0.298347	0.258331	0.909918
Br151	Br	-0.668972	0.525587	-0.000205
Br152	Br	-0.168972	1.025587	0.499795
Br153	Br	-0.031377	0.061257	-0.000251
Br154	Br	0.468623	0.561257	0.499749
H155	H	-0.493322	0.020044	-0.000187
H156	H	0.006678	0.520044	0.499813
Br157	Br	-0.708515	-0.204099	0.354543
Br158	Br	-0.208515	0.295901	0.854543
H159	H	-0.909175	0.353560	-0.077208
H160	H	-0.409175	0.853560	0.422792
H161	H	-0.734219	-0.178388	0.195554
H162	H	-0.234219	0.321612	0.695554
H163	H	-0.731250	0.461452	0.076779
H164	H	-0.231250	0.961452	0.576779
Br165	Br	-0.933288	0.508174	-0.100266
Br166	Br	-0.433288	1.008174	0.399734
Br167	Br	-0.649028	0.052201	-0.000131
Br168	Br	-0.149028	0.552201	0.499869
Br169	Br	-0.798296	-0.241670	0.589589
Br170	Br	-0.298296	0.258330	1.089589
H171	H	-0.932751	0.580622	-0.000250
H172	H	-0.432751	1.080622	0.499750
Br173	Br	-0.708554	-0.204108	0.824755
Br174	Br	-0.208554	0.295892	1.324755
H175	H	-0.837110	0.022324	0.568948
H176	H	-0.337110	0.522324	1.068948
Br177	Br	-0.390233	-0.208051	0.099788
Br178	Br	0.109767	0.291949	0.599788
Br179	Br	-0.219470	-0.205547	0.099762
Br180	Br	0.280530	0.294453	0.599762
H181	H	-0.734269	-0.178402	0.665767
H182	H	-0.234269	0.321598	1.165767
Br183	Br	-0.931922	0.019121	0.645022
Br184	Br	-0.431922	0.519121	1.145022
H185	H	-0.733180	0.330029	0.076796
H186	H	-0.233180	0.830029	0.576796
H187	H	-0.147101	-0.205028	-0.000265
H188	H	0.352899	0.294972	0.499735
H189	H	-0.177866	0.024674	-0.000236
H190	H	0.322134	0.524674	0.499764
Br191	Br	0.008596	-0.237177	-0.000292
Br192	Br	0.508596	0.262823	0.499708
H193	H	-0.266331	-0.003548	-0.077215
H194	H	0.233669	0.496452	0.422785
H195	H	-0.397755	-0.005473	-0.077191
H196	H	0.102245	0.494527	0.422809
Br197	Br	-0.666466	0.696346	-0.000217
Br198	Br	-0.166466	1.196346	0.499783
Br199	Br	-0.673021	0.249460	-0.000185
Br200	Br	-0.173021	0.749460	0.499815
Br201	Br	-0.971451	0.289434	-0.000237
Br202	Br	-0.471451	0.789434	0.499763
H203	H	-0.930822	0.712049	-0.000273
H204	H	-0.430822	1.212049	0.499727
Br205	Br	-0.931890	0.019127	0.354484
Br206	Br	-0.431890	0.519127	0.854484
H207	H	-0.709599	0.102967	-0.000182
H208	H	-0.209599	0.602967	0.499818
