data_functionalizedCrystal
_audit_creation_method	'MofGen! by Chris Wilmer'
_symmetry_space_group_name_H-M	'P1'
_symmetry_Int_Tables_number	1
_symmetry_cell_setting	triclinic
loop_
_symmetry_equiv_pos_as_xyz
  x,y,z
_cell_length_a	10.654545
_cell_length_b	10.723023
_cell_length_c	9.730223
_cell_angle_alpha	89.996605
_cell_angle_beta	89.997167
_cell_angle_gamma	84.475313
loop_
_atom_site_label
_atom_site_type_symbol
_atom_site_fract_x
_atom_site_fract_y
_atom_site_fract_z
O1	O	1.667815	0.175248	-0.114273
O2	O	1.302334	0.191953	-0.114278
O3	O	1.493505	0.002025	-0.114270
O4	O	1.476644	0.365175	-0.114281
O5	O	1.493493	0.002020	0.114310
O6	O	1.302321	0.191948	0.114302
O7	O	1.667803	0.175243	0.114307
Zn8	Zn	1.485060	0.183594	0.150596
Zn9	Zn	1.485077	0.183601	-0.150568
O10	O	1.476631	0.365170	0.114298
C11	C	1.255530	0.190725	0.000011
C12	C	1.116087	0.187059	0.000009
C13	C	1.050576	0.185330	0.124609
C14	C	0.919557	0.181865	0.124609
C15	C	0.919571	0.181862	-0.124602
C16	C	1.050588	0.185318	-0.124600
C17	C	1.492272	-0.044477	0.000019
C18	C	1.488602	-0.183032	0.000014
C19	C	1.486972	-0.244795	-0.118399
C20	C	1.483178	-0.387999	-0.118406
C21	C	1.714607	0.176471	0.000015
C22	C	1.854050	0.180137	0.000008
C23	C	1.477864	0.411673	0.000007
C24	C	1.481535	0.550227	0.000002
N25	N	1.485058	0.183589	0.356133
N26	N	1.485088	0.183597	-0.356104
C27	C	1.569738	0.099525	0.428062
C28	C	1.569751	0.099525	0.571945
C29	C	1.400399	0.267665	0.571956
C30	C	1.400382	0.267657	0.428076
H31	H	0.866226	0.180446	-0.226054
H32	H	1.638685	0.031069	0.369490
Br33	Br	1.139463	0.187687	0.293720
Br34	Br	0.830653	0.179516	0.293716
Br35	Br	1.483886	-0.361263	0.168989
Br36	Br	1.139507	0.187649	-0.293713
Br37	Br	1.489355	-0.156242	-0.287371
Br38	Br	1.480857	-0.476520	-0.287387
Br39	Br	1.684672	-0.014572	0.669562
Br40	Br	1.285488	0.381756	0.669598
H41	H	1.331419	0.336113	0.369507
H42	H	1.487181	-0.236171	0.101386
