data_functionalizedCrystal
_audit_creation_method	'MofGen! by Chris Wilmer'
_symmetry_space_group_name_H-M	'P1'
_symmetry_Int_Tables_number	1
_symmetry_cell_setting	triclinic
loop_
_symmetry_equiv_pos_as_xyz
  x,y,z
_cell_length_a	10.723022
_cell_length_b	8.559649
_cell_length_c	7.088929
_cell_angle_alpha	95.344185
_cell_angle_beta	96.263369
_cell_angle_gamma	102.877055
loop_
_atom_site_label
_atom_site_type_symbol
_atom_site_fract_x
_atom_site_fract_y
_atom_site_fract_z
O1	O	1.619872	-0.240127	-0.158966
O2	O	1.254522	-0.261558	-0.158971
O3	O	1.469385	-0.018593	-0.158966
O4	O	1.405009	-0.483092	-0.158971
O5	O	1.498106	0.013951	0.159010
O6	O	1.283243	-0.229015	0.159005
O7	O	1.648594	-0.207583	0.159010
Cu8	Cu	1.468541	-0.215327	0.188041
Cu9	Cu	1.434575	-0.253814	-0.188002
O10	O	1.433731	-0.450548	0.159005
C11	C	1.222543	-0.243728	0.000016
C12	C	1.084466	-0.239063	0.000013
C13	C	1.050270	-0.098953	0.000014
C14	C	0.907561	-0.094129	0.000011
C15	C	1.488624	0.057155	0.000019
C16	C	1.503144	0.234375	0.000008
C17	C	1.680572	-0.225414	0.000019
C18	C	1.818648	-0.230080	0.000009
C19	C	1.414491	-0.526297	0.000016
C20	C	1.399969	-0.703518	0.000014
N21	N	1.492440	-0.188256	0.452530
N22	N	1.410686	-0.280872	-0.452491
H23	H	0.878044	0.025827	-0.000036
H24	H	1.602595	0.316793	0.000025
F25	F	0.857210	-0.386888	0.000022
H26	H	1.577181	-0.092285	0.534188
H27	H	1.126643	0.017427	0.000007
F28	F	0.984644	-0.391190	-0.000003
F29	F	1.299939	-0.406323	0.440791
H30	H	1.300527	0.214075	0.000019
