data_functionalizedCrystal
_audit_creation_method	'MofGen! by Chris Wilmer'
_symmetry_space_group_name_H-M	'P1'
_symmetry_Int_Tables_number	1
_symmetry_cell_setting	triclinic
loop_
_symmetry_equiv_pos_as_xyz
  x,y,z
_cell_length_a	14.971482
_cell_length_b	15.995343
_cell_length_c	14.048226
_cell_angle_alpha	89.988845
_cell_angle_beta	89.994098
_cell_angle_gamma	83.550896
loop_
_atom_site_label
_atom_site_type_symbol
_atom_site_fract_x
_atom_site_fract_y
_atom_site_fract_z
O1	O	1.186821	0.109102	-0.079159
O2	O	1.686821	0.609102	0.420841
O3	O	0.926405	0.122172	-0.079164
O4	O	1.426405	0.622172	0.420836
O5	O	1.063735	-0.006244	-0.079144
O6	O	1.563735	0.493756	0.420856
O7	O	1.049491	0.237518	-0.079179
O8	O	1.549491	0.737518	0.420821
O9	O	1.063719	-0.006252	0.079178
O10	O	1.563719	0.493748	0.579178
O11	O	0.926389	0.122164	0.079157
O12	O	1.426389	0.622164	0.579157
O13	O	1.186805	0.109094	0.079163
O14	O	1.686805	0.609094	0.579163
Zn15	Zn	1.056594	0.115628	0.104297
Zn16	Zn	1.556594	0.615628	0.604297
Zn17	Zn	1.056616	0.115638	-0.104298
Zn18	Zn	1.556616	0.615638	0.395702
O19	O	1.049474	0.237510	0.079142
O20	O	1.549474	0.737510	0.579142
C21	C	0.893073	0.121584	-0.000004
C22	C	1.393073	0.621584	0.499996
C23	C	0.793778	0.119834	-0.000006
C24	C	1.293778	0.619834	0.499994
C25	C	0.747125	0.119006	0.086296
C26	C	1.247125	0.619006	0.586296
C27	C	0.653829	0.117348	0.086298
C28	C	1.153829	0.617348	0.586298
C29	C	0.607186	0.116525	-0.000004
C30	C	1.107186	0.616525	0.499996
C31	C	0.653845	0.117351	-0.086313
C32	C	1.153845	0.617351	0.413687
C33	C	0.747141	0.119003	-0.086313
C34	C	1.247141	0.619003	0.413687
C35	C	0.459387	0.113910	-0.086306
C36	C	0.959387	0.613910	0.413694
C37	C	0.366085	0.112260	-0.086306
C38	C	0.866085	0.612260	0.413694
C39	C	0.366075	0.112256	0.086305
C40	C	0.866075	0.612256	0.586305
C41	C	0.459371	0.113908	0.086304
C42	C	0.959371	0.613908	0.586304
C43	C	0.506024	0.114735	-0.000005
C44	C	1.006024	0.614735	0.499995
C45	C	1.063140	-0.037443	0.000020
C46	C	1.563140	0.462557	0.500020
C47	C	1.061378	-0.130396	0.000027
C48	C	1.561378	0.369604	0.500027
C49	C	1.058180	-0.300585	0.000005
C50	C	1.558180	0.199415	0.500005
C51	C	0.959048	-0.324029	0.000001
C52	C	1.459048	0.175971	0.500001
C53	C	0.957183	-0.420709	-0.000369
C54	C	1.457183	0.079291	0.499631
C55	C	1.055030	-0.468148	-0.000015
C56	C	1.555030	0.031852	0.499985
C57	C	1.104884	-0.438996	-0.090241
C58	C	1.604884	0.061004	0.409759
C59	C	1.106060	-0.342202	-0.090306
C60	C	1.606060	0.157798	0.409694
C61	C	1.107493	-0.342314	0.089741
C62	C	1.607493	0.157686	0.589741
C63	C	1.103833	-0.438812	0.090916
C64	C	1.603833	0.061188	0.590916
C65	C	1.053255	-0.562848	-0.000030
C66	C	1.553255	-0.062848	0.499970
C67	C	1.059958	-0.205886	0.000013
C68	C	1.559958	0.294114	0.500013
C69	C	1.220137	0.109682	0.000001
C70	C	1.720137	0.609682	0.500001
C71	C	1.319432	0.111432	-0.000004
C72	C	1.819432	0.611432	0.499996
C73	C	1.050070	0.268710	-0.000023
C74	C	1.550070	0.768710	0.499977
C75	C	1.051832	0.361662	-0.000037
C76	C	1.551832	0.861662	0.499963
N77	N	1.056586	0.115621	0.246657
N78	N	1.556586	0.615621	0.746657
N79	N	1.056631	0.115639	-0.246659
N80	N	1.556631	0.615639	0.253341
C81	C	1.117415	0.058782	0.296485
C82	C	1.617415	0.558782	0.796485
C83	C	1.117421	0.058781	0.396142
C84	C	1.617421	0.558781	0.896142
C85	C	1.056601	0.115625	0.445971
C86	C	1.556601	0.615625	0.945971
C87	C	0.995766	0.172466	0.396137
C88	C	1.495766	0.672466	0.896137
C89	C	0.995756	0.172462	0.296481
C90	C	1.495756	0.672462	0.796481
C91	C	0.995792	0.172473	0.603851
C92	C	1.495792	0.672473	1.103851
C93	C	0.995802	0.172478	0.703514
C94	C	1.495802	0.672478	1.203514
C95	C	1.117456	0.058792	0.703512
C96	C	1.617456	0.558792	1.203512
C97	C	1.117447	0.058787	0.603857
C98	C	1.617447	0.558787	1.103857
C99	C	1.056612	0.115630	0.554029
C100	C	1.556612	0.615630	1.054029
H101	H	0.328111	0.111591	-0.156581
H102	H	0.828111	0.611591	0.343419
H103	H	0.946241	0.218747	0.436713
H104	H	1.446241	0.718747	0.936713
H105	H	0.918150	-0.439774	0.064290
H106	H	1.418150	0.060226	0.564290
Cl107	Cl	0.518035	0.114949	-0.194811
Cl108	Cl	1.018035	0.614949	0.305189
H109	H	0.946222	0.218745	0.255912
H110	H	1.446222	0.718745	0.755912
Cl111	Cl	1.220145	-0.320564	0.091093
Cl112	Cl	1.720145	0.179436	0.591093
H113	H	1.166952	0.012498	0.436711
H114	H	1.666952	0.512498	0.936711
Cl115	Cl	1.059192	-0.298732	0.195366
Cl116	Cl	1.559192	0.201268	0.695366
Cl117	Cl	0.919310	0.243933	0.541215
Cl118	Cl	1.419310	0.743933	1.041215
Cl119	Cl	0.899706	-0.280854	0.099881
Cl120	Cl	1.399706	0.219146	0.599881
H121	H	0.946276	0.218765	0.744079
H122	H	1.446276	0.718765	1.244079
H123	H	1.175231	-0.471691	0.096637
H124	H	1.675231	0.028309	0.596637
H125	H	1.166974	0.012505	0.563286
H126	H	1.666974	0.512505	1.063286
Cl127	Cl	1.193934	-0.012666	0.766156
Cl128	Cl	1.693934	0.487334	1.266156
Cl129	Cl	0.595181	0.116322	0.194797
Cl130	Cl	1.095181	0.616322	0.694797
Cl131	Cl	0.805752	0.120046	0.194797
Cl132	Cl	1.305752	0.620046	0.694797
Cl133	Cl	1.193882	-0.012679	0.233854
Cl134	Cl	1.693882	0.487321	0.733854
H135	H	0.328086	0.111583	0.156581
H136	H	0.828086	0.611583	0.656581
H137	H	1.176897	-0.470770	-0.093343
H138	H	1.676897	0.029230	0.406657
Cl139	Cl	0.897241	-0.449227	-0.100822
Cl140	Cl	1.397241	0.050773	0.399178
H141	H	0.615862	0.116675	-0.156581
H142	H	1.115862	0.616675	0.343419
H143	H	1.178757	-0.327556	-0.094150
H144	H	1.678757	0.172444	0.405850
Cl145	Cl	1.047783	-0.467533	0.193978
Cl146	Cl	1.547783	0.032467	0.693978
H147	H	0.497344	0.114583	0.156579
H148	H	0.997344	0.614583	0.656579
Cl149	Cl	0.900698	-0.279328	-0.099749
Cl150	Cl	1.400698	0.220672	0.400251
Cl151	Cl	0.805791	0.120040	-0.194812
Cl152	Cl	1.305791	0.620040	0.305188
H153	H	1.071951	-0.315441	-0.158011
H154	H	1.571951	0.184559	0.341989
H155	H	1.070691	-0.459111	-0.157647
H156	H	1.570691	0.040889	0.342353
