data_functionalizedCrystal
_audit_creation_method	'MofGen! by Chris Wilmer'
_symmetry_space_group_name_H-M	'P1'
_symmetry_Int_Tables_number	1
_symmetry_cell_setting	triclinic
loop_
_symmetry_equiv_pos_as_xyz
  x,y,z
_cell_length_a	10.654550
_cell_length_b	14.044220
_cell_length_c	9.130313
_cell_angle_alpha	89.997493
_cell_angle_beta	89.996220
_cell_angle_gamma	88.836890
loop_
_atom_site_label
_atom_site_type_symbol
_atom_site_fract_x
_atom_site_fract_y
_atom_site_fract_z
O1	O	1.681222	0.133227	-0.121925
O2	O	1.317019	0.145921	-0.121902
O3	O	1.493654	0.001554	-0.121899
O4	O	1.504587	0.277595	-0.121929
O5	O	1.493652	0.001557	0.121700
O6	O	1.317017	0.145925	0.121696
O7	O	1.681220	0.133231	0.121673
Cu8	Cu	1.499119	0.139578	0.143927
Cu9	Cu	1.499121	0.139574	-0.144156
O10	O	1.504585	0.277598	0.121670
C11	C	1.270127	0.144991	-0.000100
C12	C	1.130403	0.142202	-0.000091
C13	C	1.059459	0.227203	-0.000121
C14	C	0.928175	0.224578	-0.000146
C15	C	0.938790	0.051942	-0.000116
C16	C	1.070072	0.054569	-0.000081
C17	C	1.053329	0.326873	-0.000145
C18	C	0.922045	0.324247	-0.000170
C19	C	1.488867	-0.033790	-0.000099
C20	C	1.474592	-0.139110	-0.000096
C21	C	1.448493	-0.331943	-0.000116
C22	C	1.549741	-0.388911	-0.000126
C23	C	1.535219	-0.496210	-0.000137
C24	C	1.463013	-0.224634	-0.000105
C25	C	1.728113	0.134161	-0.000132
C26	C	1.867836	0.136950	-0.000151
C27	C	1.509372	0.312942	-0.000133
C28	C	1.523648	0.418262	-0.000146
N29	N	1.499126	0.139581	0.346550
N30	N	1.499122	0.139564	-0.346779
C31	C	1.577364	0.075677	0.423203
C32	C	1.577359	0.075666	0.576540
C33	C	1.420876	0.203470	0.576557
C34	C	1.420875	0.203477	0.423223
C35	C	1.667713	0.001893	0.423195
C36	C	1.667708	0.001881	0.576532
H37	H	1.092175	0.358608	-0.105320
H38	H	1.647328	-0.357098	-0.000231
O39	O	1.332051	-0.369842	-0.000364
C40	C	1.134402	-0.382277	-0.126489
C41	C	1.266240	-0.339296	-0.126413
H42	H	1.081146	-0.357581	-0.228373
H43	H	1.143213	-0.463312	-0.126589
H44	H	1.081210	-0.357705	-0.024486
H45	H	1.319505	-0.363794	-0.228398
H46	H	1.257339	-0.258266	-0.126236
O47	O	1.622901	-0.080318	0.633089
C48	C	1.447822	-0.185739	0.649609
C49	C	1.498404	-0.092634	0.585444
H50	H	1.347151	-0.195716	0.611138
H51	H	1.508892	-0.248431	0.610988
H52	H	1.449956	-0.181961	0.774308
H53	H	1.496273	-0.096318	0.460744
H54	H	1.437321	-0.029980	0.624180
H55	H	1.357156	0.255504	0.360813
H56	H	1.357165	0.255492	0.639000
O57	O	1.633591	-0.085113	0.373460
C58	C	1.692430	-0.223517	0.231305
C59	C	1.731251	-0.125017	0.287564
H60	H	1.771355	-0.255800	0.161821
H61	H	1.673291	-0.272199	0.328349
H62	H	1.603849	-0.215441	0.162007
H63	H	1.819852	-0.133002	0.356837
H64	H	1.750306	-0.076371	0.190454
H65	H	1.761218	0.024996	0.375628
H66	H	1.765853	0.018134	0.618140
H67	H	0.889652	-0.019406	-0.000131
O68	O	0.871321	0.360087	0.125436
C69	C	0.857908	0.346978	0.388096
C70	C	0.915461	0.306316	0.245964
H71	H	0.893552	0.303510	0.485577
H72	H	0.886232	0.424322	0.401692
H73	H	0.751248	0.343170	0.382224
H74	H	1.022126	0.310058	0.251735
H75	H	0.887038	0.228992	0.232420
O76	O	1.138798	-0.028090	-0.000098
C77	C	1.135468	-0.199598	0.000051
C78	C	1.057484	-0.106055	0.000032
H79	H	1.069758	-0.262657	0.000187
H80	H	1.197196	-0.202764	-0.101898
H81	H	1.197197	-0.202618	0.101994
H82	H	0.995682	-0.102972	-0.101842
H83	H	0.995838	-0.102928	0.102048
H84	H	1.086577	0.365856	0.101803
H85	H	0.884087	0.361800	-0.102127
