data_functionalizedCrystal
_audit_creation_method	'MofGen! by Chris Wilmer'
_symmetry_space_group_name_H-M	'P1'
_symmetry_Int_Tables_number	1
_symmetry_cell_setting	triclinic
loop_
_symmetry_equiv_pos_as_xyz
  x,y,z
_cell_length_a	13.635800
_cell_length_b	19.453172
_cell_length_c	19.453030
_cell_angle_alpha	83.682611
_cell_angle_beta	101.707737
_cell_angle_gamma	78.289512
loop_
_atom_site_label
_atom_site_type_symbol
_atom_site_fract_x
_atom_site_fract_y
_atom_site_fract_z
V1	V	1.998994	-0.097914	0.219329
O2	O	1.997540	0.003953	0.214816
O3	O	1.970507	-0.193423	0.218154
O4	O	1.970500	-0.096738	0.314838
O5	O	1.997547	-0.093402	0.117463
V6	V	2.241919	-0.085690	0.207106
O7	O	2.127069	-0.124727	0.246143
O8	O	2.338943	-0.058877	0.180293
O9	O	2.158803	0.009819	0.208281
O10	O	2.302071	-0.187557	0.211619
O11	O	2.302064	-0.090203	0.308972
O12	O	2.158810	-0.086866	0.111597
V13	V	2.498994	-0.097914	0.219329
O14	O	2.497540	0.003953	0.214816
O15	O	2.470507	-0.193423	0.218154
O16	O	2.470500	-0.096738	0.314838
O17	O	2.497547	-0.093402	0.117463
V18	V	2.741919	-0.085690	0.207106
O19	O	2.627069	-0.124727	0.246143
O20	O	2.838943	-0.058877	0.180293
O21	O	2.658803	0.009819	0.208281
O22	O	2.802071	-0.187557	0.211619
O23	O	2.802064	-0.090203	0.308972
O24	O	2.658810	-0.086866	0.111597
C25	C	1.892104	-0.216696	0.214778
C26	C	1.909428	-0.294778	0.214454
C27	C	2.123941	-0.855852	0.216325
C28	C	2.107672	-0.782485	0.216624
C29	C	2.008633	-0.742101	0.212598
C30	C	1.925853	-0.775088	0.208253
C31	C	1.942122	-0.848452	0.207946
N32	N	1.925287	-0.630534	0.250129
N33	N	1.909838	-0.560842	0.250423
C34	C	1.959607	-0.521058	0.213521
N35	N	2.025426	-0.553601	0.176325
N36	N	2.040880	-0.623301	0.176034
C37	C	1.990981	-0.662549	0.212930
C38	C	2.024741	-0.408526	0.218186
C39	C	2.008467	-0.335157	0.218481
C40	C	1.826647	-0.327762	0.210117
C41	C	1.842922	-0.401129	0.209815
C42	C	1.941972	-0.441507	0.213853
C43	C	1.892094	-0.093363	0.338107
C44	C	1.909411	-0.093034	0.416188
C45	C	2.068877	0.033088	0.211655
C46	C	2.041172	0.111169	0.211984
C47	C	2.068887	-0.090243	0.088324
C48	C	2.041189	-0.090569	0.010242
C49	C	2.392104	-0.216696	0.214778
C50	C	2.409428	-0.294778	0.214454
C51	C	1.934276	-0.157237	0.463110
C52	C	1.950559	-0.156935	0.536478
C53	C	1.941955	-0.092425	0.562918
C54	C	1.917091	-0.028213	0.515986
C55	C	1.900820	-0.028518	0.442621
N56	N	1.898387	-0.041847	0.668242
N57	N	1.913843	-0.041562	0.737936
C58	C	1.990982	-0.091504	0.783963
N59	N	2.052070	-0.141752	0.757663
N60	N	2.036608	-0.142039	0.687963
C61	C	1.959597	-0.092088	0.642469
C62	C	2.033504	-0.155385	0.910438
C63	C	2.049793	-0.155080	0.983807
C64	C	2.016315	-0.026356	0.963313
C65	C	2.000037	-0.026663	0.889947
C66	C	2.008629	-0.091179	0.863514
C67	C	2.508307	-0.335040	0.217823
C68	C	2.524602	-0.408408	0.217529
C69	C	2.442014	-0.441513	0.213861
C70	C	2.343126	-0.401247	0.210493
C71	C	2.326835	-0.327880	0.210792
C72	C	2.392094	-0.093363	0.338107
C73	C	2.409411	-0.093034	0.416188
C74	C	2.568877	0.033088	0.211655
C75	C	2.541172	0.111169	0.211984
C76	C	2.568887	-0.090243	0.088324
C77	C	2.541189	-0.090569	0.010242
C78	C	2.508286	-0.096393	0.456448
C79	C	2.524568	-0.096074	0.529813
C80	C	2.441977	-0.092401	0.562917
C81	C	2.343093	-0.089040	0.522651
C82	C	2.326811	-0.089353	0.449287
C83	C	2.614786	0.151430	0.208617
C84	C	2.588763	0.224799	0.208914
C85	C	2.489128	0.257904	0.212584
C86	C	2.415509	0.217637	0.215949
C87	C	2.441530	0.144271	0.215647
C88	C	2.441550	-0.094234	-0.022844
C89	C	2.415508	-0.094532	-0.096211
C90	C	2.489109	-0.091170	-0.136490
C91	C	2.588756	-0.087503	-0.103399
C92	C	2.614794	-0.087200	-0.030034
H93	H	2.204593	-0.888724	0.219610
F94	F	2.461382	-0.091495	-0.214571
F95	F	2.629815	-0.099657	0.572654
H96	H	2.648674	-0.084763	-0.136205
H97	H	2.467954	0.317644	0.212829
H98	H	2.648721	0.257573	0.206175
F99	F	2.007169	0.042301	0.991449
F100	F	2.195770	-0.747381	0.221253
H101	H	1.845213	-0.742202	0.204974
F102	F	2.363202	-0.097813	0.020011
H103	H	2.275852	-0.086049	0.549616
F104	F	1.754827	-0.436228	0.205195
H105	H	2.040502	-0.207918	0.888916
F106	F	1.973541	0.041674	0.840006
H107	H	1.941279	-0.209772	0.441594
H108	H	2.246296	-0.086619	0.416513
F109	F	2.309470	0.252881	0.219851
F110	F	1.907939	0.040443	0.544128
H111	H	1.874719	-0.875303	0.204414
F112	F	2.720849	-0.083307	0.005172
H113	H	1.970803	-0.209219	0.574689
F114	F	2.363171	0.101429	0.219233
F115	F	1.874345	0.039820	0.392681
H116	H	2.575549	-0.099386	0.429505
H117	H	2.070047	-0.207365	1.022011
F118	F	2.130156	-0.451502	0.222480
H119	H	2.605126	-0.441183	0.220269
F120	F	2.596221	-0.299821	0.221732
H121	H	2.075871	-0.308307	0.222012
F122	F	1.721242	-0.284787	0.205830
H123	H	2.695920	0.124486	0.205629
F124	F	2.459368	-0.519598	0.213542
H125	H	2.455249	-0.092147	0.622655
H126	H	2.246314	-0.295104	0.208045
F127	F	2.255238	-0.436490	0.206587
F128	F	2.309454	-0.098440	-0.131414
