data_functionalizedCrystal
_audit_creation_method	'MofGen! by Chris Wilmer'
_symmetry_space_group_name_H-M	'P1'
_symmetry_Int_Tables_number	1
_symmetry_cell_setting	triclinic
loop_
_symmetry_equiv_pos_as_xyz
  x,y,z
_cell_length_a	15.944557
_cell_length_b	14.421503
_cell_length_c	15.944499
_cell_angle_alpha	89.994276
_cell_angle_beta	96.510511
_cell_angle_gamma	89.994361
loop_
_atom_site_label
_atom_site_type_symbol
_atom_site_fract_x
_atom_site_fract_y
_atom_site_fract_z
O1	O	-1.114505	0.077065	0.108351
O2	O	-0.869954	0.077075	0.121702
O3	O	-0.998930	0.077071	-0.007251
O4	O	-0.985529	0.077069	0.237304
O5	O	-0.998910	-0.077152	-0.007236
O6	O	-0.869933	-0.077149	0.121717
O7	O	-1.114485	-0.077158	0.108366
Cu8	Cu	-0.992207	-0.091235	0.115043
Cu9	Cu	-0.992232	0.091152	0.115025
O10	O	-0.985508	-0.077155	0.237319
C11	C	-0.838650	-0.000036	0.121154
C12	C	-0.745405	-0.000032	0.119490
N13	N	-0.992196	-0.219517	0.115054
C14	C	-0.474789	-0.000045	0.034582
C15	C	-0.525353	-0.076087	0.075521
C16	C	-0.409764	-0.000053	0.113554
C17	C	-0.525354	0.075965	0.075528
C18	C	-0.574676	-0.000041	0.116466
C19	C	-0.459099	-0.076158	0.154472
C20	C	-0.459097	0.075962	0.154467
C21	C	-0.509627	-0.000098	0.195464
C22	C	-0.314763	-0.000061	0.111874
C23	C	-0.669674	-0.000040	0.118152
C24	C	-0.933050	-0.530968	0.175149
C25	C	-0.916068	-0.469138	0.099478
C26	C	-0.992231	-0.591406	0.115021
C27	C	-1.009156	-0.469142	0.190707
C28	C	-0.992212	-0.408684	0.115042
C29	C	-0.975211	-0.530937	0.039312
C30	C	-1.068333	-0.530945	0.130590
C31	C	-1.051383	-0.469143	0.054864
C32	C	-0.992240	-0.696667	0.115010
C33	C	-0.992203	-0.303425	0.115043
C34	C	-0.145790	-0.000051	0.108902
C35	C	-0.239040	-0.000062	0.110532
C36	C	-0.998372	-0.000038	-0.038538
C37	C	-0.996727	-0.000031	-0.131787
N38	N	-0.992249	0.219433	0.115007
C39	C	-1.071659	-0.000039	-0.423321
C40	C	-1.032697	-0.076081	-0.362290
C41	C	-0.990750	-0.000042	-0.467424
C42	C	-1.032695	0.075971	-0.362310
C43	C	-0.993691	-0.000035	-0.302515
C44	C	-0.951766	-0.076146	-0.407620
C45	C	-0.951776	0.075974	-0.407647
C46	C	-0.912756	-0.000086	-0.346633
C47	C	-0.989059	-0.000046	-0.562424
C48	C	-0.995376	-0.000037	-0.207516
C49	C	-0.986067	-0.000043	0.268606
C50	C	-0.987712	-0.000044	0.361855
H51	H	-0.459149	-0.000119	-0.033433
H52	H	-0.430153	0.140252	0.187783
C53	C	-0.794812	-0.377709	0.149564
C54	C	-0.829181	-0.432477	0.081704
H55	H	-0.741172	-0.355075	0.138592
H56	H	-0.788593	-0.413963	0.199621
H57	H	-0.831357	-0.326937	0.156492
H58	H	-0.792638	-0.483253	0.074780
H59	H	-0.835395	-0.396222	0.031632
C60	C	-0.547203	0.162597	-0.053704
C61	C	-0.564406	0.162752	0.030485
H62	H	-0.571307	0.216176	-0.081513
H63	H	-0.570774	0.108608	-0.081179
H64	H	-0.487859	0.162916	-0.055516
H65	H	-0.623751	0.162426	0.032297
H66	H	-0.540838	0.216755	0.057967
C67	C	-0.454504	-0.242529	0.158405
C68	C	-0.420203	-0.163048	0.199466
H69	H	-0.430494	-0.296170	0.186184
H70	H	-0.442368	-0.242305	0.101444
H71	H	-0.513912	-0.243020	0.159754
H72	H	-0.360795	-0.162553	0.198112
H73	H	-0.432333	-0.163271	0.256442
H74	H	-1.066939	0.140253	-0.342235
H75	H	-0.554281	-0.140374	0.042175
H76	H	-0.525106	-0.000143	0.263532
H77	H	-0.960812	-0.557967	-0.024700
H78	H	-0.882977	-0.558114	0.225931
C79	C	-1.100996	-0.464081	-0.092978
C80	C	-1.118936	-0.432716	-0.013837
H81	H	-1.142696	-0.441585	-0.135391
H82	H	-1.101060	-0.529938	-0.093654
H83	H	-1.047070	-0.441976	-0.103567
H84	H	-1.172860	-0.454827	-0.003246
H85	H	-1.118881	-0.366846	-0.013160
H86	H	-1.132678	-0.558117	0.143781
C87	C	-0.966437	-0.463691	0.339944
C88	C	-1.028491	-0.432482	0.277096
H89	H	-0.978369	-0.441059	0.393277
H90	H	-0.912783	-0.441626	0.328466
H91	H	-0.966085	-0.529555	0.340719
H92	H	-1.028839	-0.366618	0.276318
H93	H	-1.082159	-0.454543	0.288577
C94	C	-0.947674	-0.242518	-0.411154
C95	C	-0.905598	-0.163028	-0.434580
H96	H	-0.919170	-0.296153	-0.427796
H97	H	-1.003942	-0.242298	-0.438106
H98	H	-0.948434	-0.243018	-0.351668
H99	H	-0.904844	-0.162524	-0.494067
H100	H	-0.849315	-0.163248	-0.407630
C101	C	-1.204455	-0.079872	-0.445597
C102	C	-1.162297	-0.000139	-0.468324
H103	H	-1.260408	-0.079937	-0.473386
H104	H	-1.206142	-0.080418	-0.386243
H105	H	-1.175412	-0.133335	-0.461762
H106	H	-1.191338	0.053325	-0.452153
H107	H	-1.160615	0.000416	-0.527691
H108	H	-1.066910	-0.140370	-0.342192
C109	C	-0.779877	-0.079822	-0.324684
C110	C	-0.822038	-0.000141	-0.301829
H111	H	-0.723875	-0.079859	-0.297017
H112	H	-0.778327	-0.080324	-0.384057
H113	H	-0.808831	-0.133321	-0.308464
H114	H	-0.793087	0.053359	-0.318054
H115	H	-0.823583	0.000370	-0.242443
H116	H	-0.917591	0.140266	-0.427766
