data_functionalizedCrystal
_audit_creation_method	'MofGen! by Chris Wilmer'
_symmetry_space_group_name_H-M	'P1'
_symmetry_Int_Tables_number	1
_symmetry_cell_setting	triclinic
loop_
_symmetry_equiv_pos_as_xyz
  x,y,z
_cell_length_a	13.339070
_cell_length_b	14.853567
_cell_length_c	11.804365
_cell_angle_alpha	101.851263
_cell_angle_beta	74.875130
_cell_angle_gamma	99.632112
loop_
_atom_site_label
_atom_site_type_symbol
_atom_site_fract_x
_atom_site_fract_y
_atom_site_fract_z
O1	O	1.363338	0.439029	-0.099032
O2	O	1.068727	0.379685	-0.099030
O3	O	1.223903	0.280086	-0.099035
O4	O	1.208162	0.538627	-0.099028
O5	O	1.183051	0.306270	0.099022
O6	O	1.027875	0.405869	0.099027
O7	O	1.322486	0.465213	0.099025
Cu8	Cu	1.171451	0.437931	0.117110
Cu9	Cu	1.219763	0.406966	-0.117116
O10	O	1.167310	0.564811	0.099029
C11	C	1.010598	0.382752	-0.000002
C12	C	0.898254	0.352872	-0.000001
C13	C	0.533790	0.585204	-0.000014
C14	C	0.639343	0.613280	-0.000018
C15	C	0.704076	0.548181	-0.000013
C16	C	0.663246	0.455000	-0.000006
C17	C	0.557684	0.426919	-0.000011
C18	C	0.727970	0.389896	-0.000010
C19	C	0.687140	0.296715	-0.000003
C20	C	0.581588	0.268640	-0.000007
C21	C	0.516855	0.333740	-0.000012
C22	C	0.833531	0.417977	-0.000005
C23	C	0.857425	0.259692	-0.000002
C24	C	0.751872	0.231616	0.000002
C25	C	1.202764	0.259411	-0.000010
C26	C	1.200629	0.158794	-0.000020
C27	C	1.099414	-0.278941	0.000003
C28	C	1.283765	-0.254314	0.000002
C29	C	1.285776	-0.159780	-0.000005
C30	C	1.194604	-0.124823	-0.000006
C31	C	1.101421	-0.184399	-0.000000
C32	C	1.378955	-0.100196	0.000001
C33	C	1.380969	-0.005657	-0.000005
C34	C	1.289798	0.029301	-0.000014
C35	C	1.196611	-0.030281	-0.000010
C36	C	1.105439	0.004677	-0.000011
C37	C	1.012254	-0.054905	-0.000015
C38	C	1.010250	-0.149441	-0.000010
C39	C	1.291802	0.123837	-0.000019
C40	C	1.107447	0.099219	-0.000014
C41	C	1.380616	0.462145	-0.000006
C42	C	1.492961	0.492024	-0.000015
C43	C	1.188449	0.585486	0.000002
C44	C	1.190586	0.686102	0.000004
N45	N	1.137478	0.459712	0.281852
N46	N	1.253743	0.385180	-0.281857
C47	C	1.335324	0.332860	0.655794
C48	C	1.361023	0.316378	0.531132
C49	C	1.305139	0.352210	0.468806
C50	C	1.223551	0.404526	0.531154
C51	C	1.197855	0.421015	0.655829
C52	C	1.167670	0.440366	0.468840
C53	C	1.086082	0.492682	0.531189
C54	C	1.060390	0.509168	0.655851
C55	C	1.116274	0.473336	0.718177
C56	C	1.193366	0.423877	0.344166
C57	C	1.055897	0.512033	0.344200
C58	C	1.030198	0.528514	0.468862
H59	H	0.481078	0.638196	-0.000028
H60	H	1.456847	0.042847	-0.000003
O61	O	1.330201	0.336076	0.347710
C62	C	1.414210	0.282235	0.306043
H63	H	1.416989	0.242442	0.377886
H64	H	1.402849	0.231198	0.222650
H65	H	1.490723	0.329528	0.283901
O66	O	0.414368	0.306335	-0.000171
C67	C	0.406813	0.240003	-0.102765
H68	H	0.481671	0.205446	-0.136965
H69	H	0.337306	0.185366	-0.079699
H70	H	0.395351	0.275558	-0.174590
H71	H	1.427452	0.273784	0.480372
H72	H	1.380823	0.303696	0.706549
O73	O	0.950881	0.579220	0.529567
C74	C	0.873517	0.524798	0.601671
H75	H	0.909883	0.466798	0.620327
H76	H	0.839492	0.570017	0.689346
H77	H	0.808616	0.493573	0.553646
H78	H	0.548351	0.192765	-0.000014
H79	H	1.010392	0.541212	0.293455
O80	O	0.981072	0.559875	0.716547
C81	C	0.903702	0.505458	0.788652
H82	H	0.940066	0.447461	0.807322
H83	H	0.869673	0.550683	0.876321
H84	H	0.838806	0.474229	0.740622
O85	O	1.018846	0.133043	-0.000175
C86	C	0.983457	0.088908	-0.102769
H87	H	1.015266	0.019248	-0.136968
H88	H	0.894306	0.077458	-0.079703
H89	H	1.012181	0.134327	-0.174594
O90	O	1.091300	0.489513	0.839278
C91	C	1.103421	0.585781	0.880931
H92	H	1.097566	0.624221	0.809094
H93	H	1.039307	0.603502	0.964342
H94	H	1.183188	0.607465	0.903040
H95	H	0.866763	0.493845	-0.000007
O96	O	0.806573	0.575615	0.000044
C97	C	0.828737	0.671813	0.000008
H98	H	0.753405	0.705405	0.037493
H99	H	0.886762	0.703011	0.057516
H100	H	0.863966	0.684811	-0.095011
O101	O	0.678823	0.703832	0.000034
C102	C	0.599064	0.755267	0.000002
H103	H	0.519587	0.717009	0.037496
H104	H	0.609343	0.826333	0.057503
H105	H	0.603765	0.764052	-0.095017
H106	H	0.718615	0.155745	-0.000002
H107	H	0.910132	0.206682	-0.000004
O108	O	0.923587	-0.021088	0.000035
C109	C	0.840914	-0.093945	-0.000003
H110	H	0.858760	-0.152774	0.037492
H111	H	0.765168	-0.067633	0.057495
H112	H	0.831962	-0.120342	-0.095024
O113	O	1.372339	-0.288341	-0.000204
C114	C	1.397831	-0.355875	-0.102758
H115	H	1.360918	-0.343853	-0.174455
H116	H	1.486433	-0.350619	-0.137191
H117	H	1.366755	-0.427761	-0.079558
O118	O	1.467610	-0.134069	-0.000157
C119	C	1.545329	-0.117064	-0.102746
H120	H	1.527640	-0.056439	-0.136940
H121	H	1.624963	-0.099527	-0.079676
H122	H	1.546230	-0.181472	-0.174576
O123	O	1.382242	0.181775	0.000195
C124	C	1.367752	0.250777	0.102750
H125	H	1.300048	0.224786	0.174445
H126	H	1.442195	0.267292	0.137186
H127	H	1.349298	0.316050	0.079550
H128	H	0.934383	-0.197960	-0.000012
H129	H	1.023545	-0.327457	-0.000005
H130	H	1.259795	0.381281	0.293413
