data_functionalizedCrystal
_audit_creation_method	'MofGen! by Chris Wilmer'
_symmetry_space_group_name_H-M	'P1'
_symmetry_Int_Tables_number	1
_symmetry_cell_setting	triclinic
loop_
_symmetry_equiv_pos_as_xyz
  x,y,z
_cell_length_a	10.654541
_cell_length_b	23.532357
_cell_length_c	9.730217
_cell_angle_alpha	89.991241
_cell_angle_beta	89.999932
_cell_angle_gamma	83.656110
loop_
_atom_site_label
_atom_site_type_symbol
_atom_site_fract_x
_atom_site_fract_y
_atom_site_fract_z
O1	O	1.665273	0.079979	-0.114267
O2	O	1.299549	0.087601	-0.114280
O3	O	1.493472	0.000928	-0.114245
O4	O	1.471350	0.166652	-0.114302
O5	O	1.493466	0.000928	0.114335
O6	O	1.299544	0.087600	0.114300
O7	O	1.665267	0.079978	0.114314
Zn8	Zn	1.482404	0.083789	0.150599
Zn9	Zn	1.482412	0.083790	-0.150565
O10	O	1.471344	0.166651	0.114278
C11	C	1.252766	0.087041	0.000008
C12	C	1.113377	0.085368	0.000004
C13	C	1.082081	0.189009	-0.000049
C14	C	1.000950	0.240040	-0.000080
C15	C	0.869982	0.238464	-0.000081
C16	C	0.820145	0.185851	-0.000046
C17	C	0.901276	0.134819	-0.000014
C18	C	1.032245	0.136401	-0.000018
C19	C	0.932571	0.031180	0.000049
C20	C	1.063539	0.032755	0.000040
C21	C	0.882734	-0.021434	0.000084
C22	C	0.963865	-0.072467	0.000106
C23	C	1.094840	-0.070888	0.000105
C24	C	1.144670	-0.018277	0.000071
C25	C	1.492916	-0.020292	0.000050
C26	C	1.491252	-0.083522	0.000062
C27	C	1.480811	-0.475600	-0.124611
C28	C	1.479230	-0.535010	-0.124619
O29	O	1.478372	-0.565732	-0.230586
N30	N	1.478442	-0.564727	-0.000022
C31	C	1.479224	-0.535030	0.124591
O32	O	1.478408	-0.565762	0.230570
C33	C	1.480796	-0.475621	0.124598
C34	C	1.481596	-0.445908	-0.000007
C35	C	1.481610	-0.445887	-0.249206
C36	C	1.483194	-0.386482	-0.249198
C37	C	1.483979	-0.356789	-0.124594
C38	C	1.483180	-0.386502	0.000001
C39	C	1.481568	-0.445925	0.249210
C40	C	1.483140	-0.386511	0.249206
C41	C	1.483940	-0.356799	0.124600
C42	C	1.485549	-0.297405	0.124613
N43	N	1.486336	-0.267688	0.000016
C44	C	1.485551	-0.297380	-0.124588
C45	C	1.475919	-0.659793	0.124568
C46	C	1.474356	-0.719202	0.124563
C47	C	1.474360	-0.719178	-0.124648
C48	C	1.475932	-0.659768	-0.124641
C49	C	1.476707	-0.630076	-0.000029
C50	C	1.488878	-0.172624	-0.124561
C51	C	1.490467	-0.113214	-0.124541
C52	C	1.490457	-0.113243	0.124669
C53	C	1.488874	-0.172649	0.124650
C54	C	1.488081	-0.202338	0.000024
O55	O	1.486402	-0.266645	0.230526
O56	O	1.486351	-0.266641	-0.230549
C57	C	1.712050	0.080538	0.000022
C58	C	1.851440	0.082212	0.000017
C59	C	1.471900	0.187872	-0.000019
C60	C	1.473564	0.251101	-0.000041
N61	N	1.482408	0.083788	0.356135
N62	N	1.482418	0.083787	-0.356102
C63	C	1.654196	0.007062	0.356157
C64	C	1.740098	-0.031299	0.428108
C65	C	1.740111	-0.031300	0.571988
C66	C	1.654210	0.007064	0.643920
C67	C	1.568308	0.045426	0.571969
C68	C	1.568307	0.045423	0.428086
C69	C	1.396516	0.122148	0.571947
C70	C	1.396507	0.122152	0.428067
C71	C	1.310615	0.160512	0.643879
C72	C	1.224717	0.198877	0.571928
C73	C	1.224708	0.198877	0.428040
C74	C	1.310605	0.160514	0.356116
H75	H	0.803924	0.280019	-0.000097
H76	H	1.160891	-0.112445	0.000136
H77	H	0.713503	0.184572	-0.000030
C78	C	1.654034	0.007173	0.199944
C79	C	1.560441	0.048988	0.152329
C80	C	1.560269	0.049111	0.008433
H81	H	1.637284	-0.029265	0.167234
H82	H	1.734160	0.015340	0.167342
H83	H	1.480334	0.040817	0.184917
H84	H	1.577171	0.085432	0.185001
H85	H	1.640394	0.057278	-0.024169
H86	H	1.543521	0.012671	-0.024263
H87	H	1.496775	0.077485	-0.023892
C88	C	1.055304	0.297105	-0.000184
C89	C	1.187364	0.287566	-0.000212
C90	C	1.237473	0.340120	-0.000320
H91	H	1.027548	0.318185	0.079493
H92	H	1.027484	0.318142	-0.079939
H93	H	1.215173	0.266539	0.079534
H94	H	1.215155	0.266495	-0.079884
H95	H	1.209653	0.361157	-0.080075
H96	H	1.209707	0.361196	0.079359
H97	H	1.327080	0.333655	-0.000352
H98	H	1.188720	0.190297	-0.000078
H99	H	1.476582	-0.635580	-0.226106
C100	C	1.476978	-0.627499	0.259773
C101	C	1.585918	-0.599367	0.267056
C102	C	1.586926	-0.569610	0.391577
H103	H	1.476352	-0.653649	0.334082
H104	H	1.404393	-0.600237	0.264977
H105	H	1.658485	-0.626626	0.261865
H106	H	1.586567	-0.573208	0.192776
H107	H	1.514340	-0.542347	0.396781
H108	H	1.586296	-0.595763	0.465876
H109	H	1.660834	-0.550514	0.396529
C110	C	0.909512	-0.129527	0.000076
C111	C	0.777452	-0.119984	0.000048
C112	C	0.727334	-0.172536	-0.000000
H113	H	0.937269	-0.150604	0.079773
H114	H	0.937325	-0.150569	-0.079659
H115	H	0.749651	-0.098952	0.079774
H116	H	0.749660	-0.098917	-0.079644
H117	H	0.755147	-0.193578	-0.079735
H118	H	0.755101	-0.193608	0.079699
H119	H	0.637728	-0.166068	-0.000032
H120	H	1.251309	-0.016987	0.000055
C121	C	1.833219	-0.073027	0.350043
C122	C	1.813614	-0.129087	0.384991
C123	C	1.899358	-0.167535	0.313080
H124	H	1.916997	-0.066557	0.373544
H125	H	1.820885	-0.067557	0.254043
H126	H	1.825957	-0.134554	0.480970
H127	H	1.729853	-0.135575	0.361487
H128	H	1.887025	-0.162065	0.217079
H129	H	1.983131	-0.161060	0.336586
H130	H	1.886061	-0.205576	0.336772
C131	C	1.491264	-0.081054	-0.259978
C132	C	1.490200	-0.119775	-0.369098
C133	C	1.490914	-0.090172	-0.493877
H134	H	1.565101	-0.061933	-0.265353
H135	H	1.418613	-0.053830	-0.265235
H136	H	1.562844	-0.146989	-0.363843
H137	H	1.416369	-0.138897	-0.363768
H138	H	1.418263	-0.062948	-0.499134
H139	H	1.564752	-0.071052	-0.499237
H140	H	1.490180	-0.116439	-0.567929
H141	H	0.776092	-0.022713	0.000091
H142	H	1.480966	-0.470056	-0.350679
C143	C	1.487757	-0.204874	-0.259818
C144	C	1.378781	-0.232979	-0.267129
C145	C	1.377703	-0.262689	-0.391710
H146	H	1.560291	-0.232149	-0.265132
H147	H	1.488391	-0.178681	-0.334061
H148	H	1.378159	-0.259170	-0.192906
H149	H	1.306229	-0.205717	-0.261839
H150	H	1.378337	-0.236496	-0.465953
H151	H	1.450242	-0.289961	-0.397012
H152	H	1.303759	-0.281758	-0.396692
H153	H	1.154752	0.230113	0.369465
H154	H	1.810055	-0.062539	0.630571
H155	H	1.483752	-0.362338	0.350682
H156	H	1.473716	-0.743364	-0.226107
H157	H	1.483841	-0.362295	-0.350665
C158	C	1.473441	-0.751352	0.259995
C159	C	1.474437	-0.712624	0.369109
C160	C	1.473570	-0.742217	0.493892
H161	H	1.546042	-0.778588	0.265378
H162	H	1.399555	-0.770455	0.265250
H163	H	1.548316	-0.693531	0.363856
H164	H	1.401842	-0.685388	0.363771
H165	H	1.399684	-0.761319	0.499147
H166	H	1.546172	-0.769451	0.499261
H167	H	1.474234	-0.715944	0.567940
C168	C	1.480448	-0.478224	0.384412
C169	C	1.371484	-0.506341	0.391643
C170	C	1.370395	-0.536100	0.516176
H171	H	1.481054	-0.452076	0.458709
H172	H	1.553017	-0.505494	0.389673
H173	H	1.298935	-0.479073	0.386395
H174	H	1.370855	-0.532498	0.317374
H175	H	1.442963	-0.563371	0.521437
H176	H	1.371004	-0.509948	0.590464
H177	H	1.296471	-0.555185	0.521094
C178	C	1.131258	0.240457	0.649955
C179	C	1.007988	0.230686	0.614989
C180	C	0.921860	0.268973	0.686860
H181	H	1.144218	0.278549	0.626432
H182	H	1.143479	0.234955	0.745961
H183	H	0.995771	0.236193	0.519005
H184	H	0.994987	0.192602	0.638516
H185	H	0.934081	0.263472	0.782866
H186	H	0.934832	0.307063	0.663332
H187	H	0.838212	0.262346	0.663156
H188	H	1.488234	-0.196843	0.226114
H189	H	1.491102	-0.089057	0.226118
H190	H	1.654215	0.007057	0.761075
H191	H	1.310624	0.160508	0.761034
H192	H	1.310610	0.160512	0.238962
