data_functionalizedCrystal
_audit_creation_method	'MofGen! by Chris Wilmer'
_symmetry_space_group_name_H-M	'P1'
_symmetry_Int_Tables_number	1
_symmetry_cell_setting	triclinic
loop_
_symmetry_equiv_pos_as_xyz
  x,y,z
_cell_length_a	16.959455
_cell_length_b	18.101395
_cell_length_c	16.959447
_cell_angle_alpha	90.029468
_cell_angle_beta	90.014322
_cell_angle_gamma	90.028051
loop_
_atom_site_label
_atom_site_type_symbol
_atom_site_fract_x
_atom_site_fract_y
_atom_site_fract_z
Zn1	Zn	1.208323	-0.294875	0.446913
Zn2	Zn	1.708323	0.205125	0.946913
Zn3	Zn	1.208220	-0.418728	0.314737
Zn4	Zn	1.708220	0.081272	0.814737
Zn5	Zn	1.076152	-0.294899	0.314751
Zn6	Zn	1.576152	0.205101	0.814751
Zn7	Zn	1.076091	-0.418673	0.446875
Zn8	Zn	1.576091	0.081327	0.946875
O9	O	1.142196	-0.356794	0.380819
O10	O	1.642196	0.143206	0.880819
O11	O	1.318920	-0.311318	0.429390
O12	O	1.818920	0.188682	0.929390
O13	O	1.190683	-0.402335	0.204128
O14	O	1.690683	0.097665	0.704128
O15	O	1.093753	-0.191263	0.332304
O16	O	1.593753	0.308737	0.832304
O17	O	1.318845	-0.402312	0.332280
O18	O	1.818845	0.097688	0.832280
O19	O	1.190859	-0.191246	0.429404
O20	O	1.690859	0.308754	0.929404
O21	O	1.093653	-0.311358	0.204138
O22	O	1.593653	0.188642	0.704138
O23	O	0.965533	-0.311304	0.332267
O24	O	1.465533	0.188696	0.832267
O25	O	1.093649	-0.402218	0.557491
O26	O	1.593649	0.097782	1.057491
O27	O	0.965488	-0.402241	0.429339
O28	O	1.465488	0.097759	0.929339
O29	O	1.190800	-0.311264	0.557519
O30	O	1.690800	0.188736	1.057519
O31	O	1.190624	-0.522354	0.332243
O32	O	1.690624	-0.022354	0.832243
O33	O	1.093550	-0.522313	0.429325
O34	O	1.593550	-0.022313	0.929325
C35	C	0.936830	-0.356769	0.380801
C36	C	1.436830	0.143231	0.880801
C37	C	0.848974	-0.356777	0.380812
C38	C	1.348974	0.143223	0.880812
C39	C	0.477497	-0.309404	0.330380
C40	C	0.977497	0.190596	0.830380
C41	C	0.477499	-0.404244	0.431304
C42	C	0.977499	0.095756	0.931304
C43	C	0.560045	-0.404234	0.431299
C44	C	1.060045	0.095766	0.931299
C45	C	0.601321	-0.356808	0.380833
C46	C	1.101321	0.143192	0.880833
C47	C	0.560050	-0.309394	0.330372
C48	C	1.060050	0.190606	0.830372
C49	C	0.601321	-0.451653	0.481754
C50	C	1.101321	0.048347	0.981754
C51	C	0.683872	-0.451644	0.481750
C52	C	1.183872	0.048356	0.981750
C53	C	0.725150	-0.404215	0.431287
C54	C	1.225150	0.095785	0.931287
C55	C	0.683874	-0.356798	0.380825
C56	C	1.183874	0.143202	0.880825
C57	C	0.725150	-0.309373	0.330359
C58	C	1.225150	0.190627	0.830359
C59	C	0.683876	-0.261951	0.279899
C60	C	1.183876	0.238049	0.779899
C61	C	0.601327	-0.261964	0.279909
C62	C	1.101327	0.238036	0.779909
C63	C	0.807698	-0.404202	0.431278
C64	C	1.307698	0.095798	0.931278
C65	C	0.807703	-0.309362	0.330351
C66	C	1.307703	0.190638	0.830351
C67	C	1.142091	-0.549204	0.380796
C68	C	1.642091	-0.049204	0.880796
C69	C	1.142118	-0.631518	0.380812
C70	C	1.642118	-0.131518	0.880812
C71	C	1.142291	-0.930609	0.380855
C72	C	1.642291	-0.430609	0.880855
C73	C	1.081356	-0.899289	0.442088
C74	C	1.581356	-0.399289	0.942088
C75	C	1.081066	-0.813671	0.441896
C76	C	1.581066	-0.313671	0.941896
C77	C	1.142205	-0.782227	0.380834
C78	C	1.642205	-0.282227	0.880834
C79	C	1.119658	-0.813380	0.297530
C80	C	1.619658	-0.313380	0.797530
C81	C	1.119266	-0.899025	0.297896
C82	C	1.619266	-0.399025	0.797896
C83	C	1.225907	-0.898956	0.402193
C84	C	1.725907	-0.398956	0.902193
C85	C	1.225415	-0.813305	0.404020
C86	C	1.725415	-0.313305	0.904020
C87	C	1.142158	-0.698367	0.380818
C88	C	1.642158	-0.198367	0.880818
C89	C	1.142337	-1.014469	0.380866
C90	C	1.642337	-0.514469	0.880866
C91	C	1.348365	-0.356819	0.380838
C92	C	1.848365	0.143181	0.880838
C93	C	1.436221	-0.356830	0.380846
C94	C	1.936221	0.143170	0.880846
C95	C	1.142229	-0.356732	0.586987
C96	C	1.642229	0.143268	1.086987
C97	C	1.142243	-0.356706	0.674844
C98	C	1.642243	0.143294	1.174844
C99	C	1.142324	-0.163632	0.380860
C100	C	1.642324	0.336368	0.880860
C101	C	1.142379	-0.081318	0.380877
C102	C	1.642379	0.418682	0.880877
C103	C	1.142209	-0.356801	0.175453
C104	C	1.642209	0.143199	0.675453
C105	C	1.142348	-0.356619	0.087597
C106	C	1.642348	0.143381	0.587597
C107	C	1.091756	-0.403984	1.046308
C108	C	1.591756	0.096016	1.546308
C109	C	1.192920	-0.309273	1.046332
C110	C	1.692920	0.190727	1.546332
C111	C	1.192899	-0.309289	0.963786
C112	C	1.692899	0.190711	1.463786
C113	C	1.142306	-0.356653	0.922497
C114	C	1.642306	0.143347	1.422497
C115	C	1.091735	-0.404002	0.963754
C116	C	1.591735	0.095998	1.463754
C117	C	1.243475	-0.261946	0.922523
C118	C	1.743475	0.238054	1.422523
C119	C	1.243456	-0.261960	0.839972
C120	C	1.743456	0.238040	1.339972
C121	C	1.192859	-0.309322	0.798681
C122	C	1.692859	0.190678	1.298681
C123	C	1.142285	-0.356672	0.839944
C124	C	1.642285	0.143328	1.339944
C125	C	1.091693	-0.404037	0.798655
C126	C	1.591693	0.095963	1.298655
C127	C	1.041115	-0.451384	0.839915
C128	C	1.541115	0.048616	1.339915
C129	C	1.041138	-0.451364	0.922464
C130	C	1.541138	0.048636	1.422464
C131	C	1.192836	-0.309342	0.716133
C132	C	1.692836	0.190658	1.216133
C133	C	1.091672	-0.404055	0.716101
C134	C	1.591672	0.095945	1.216101
H135	H	0.443888	-0.270793	0.289299
H136	H	0.943888	0.229207	0.789299
N137	N	1.037090	-0.455137	0.671580
N138	N	1.537090	0.044863	1.171580
H139	H	1.049327	-0.508050	0.685933
H140	H	1.549327	-0.008050	1.185933
H141	H	1.044768	-0.447908	0.613037
H142	H	1.544768	0.052092	1.113037
H143	H	1.234114	-0.270715	1.079954
H144	H	1.734114	0.229285	1.579954
H145	H	1.284640	-0.223407	0.806384
H146	H	1.784640	0.276593	1.306384
H147	H	1.095322	-0.919836	0.504057
H148	H	1.595322	-0.419836	1.004057
H149	H	0.841299	-0.442814	0.472359
H150	H	1.341299	0.057186	0.972359
N151	N	0.556803	-0.210839	0.225478
N152	N	1.056803	0.289161	0.725478
H153	H	0.571176	-0.157932	0.237840
H154	H	1.071176	0.342068	0.737840
H155	H	0.498262	-0.218120	0.233169
H156	H	0.998262	0.281880	0.733169
N157	N	1.038301	-0.925576	0.273964
N158	N	1.538301	-0.425576	0.773964
H159	H	1.037235	-0.981364	0.273964
H160	H	1.537235	-0.481364	0.773964
H161	H	1.025609	-0.906773	0.219361
H162	H	1.525609	-0.406773	0.719361
N163	N	0.999755	-0.927869	0.423600
N164	N	1.499755	-0.427869	0.923600
H165	H	0.960974	-0.907486	0.463206
H166	H	1.460974	-0.407486	0.963206
H167	H	0.999711	-0.983603	0.426347
H168	H	1.499711	-0.483603	0.926347
H169	H	0.841304	-0.270738	0.289259
H170	H	1.341304	0.229262	0.789259
H171	H	0.999962	-0.489914	0.956066
H172	H	1.499962	0.010086	1.456066
N173	N	0.432985	-0.455400	0.485725
N174	N	0.932985	0.044600	0.985725
H175	H	0.374428	-0.448214	0.478071
H176	H	0.874428	0.051786	0.978071
H177	H	0.447434	-0.443938	0.542199
H178	H	0.947434	0.056062	1.042199
N179	N	1.175499	-0.926481	0.235404
N180	N	1.675499	-0.426481	0.735404
H181	H	1.200430	-0.882946	0.207737
H182	H	1.700430	-0.382946	0.707737
H183	H	1.145680	-0.957465	0.195826
H184	H	1.645680	-0.457465	0.695826
H185	H	1.271306	-0.919210	0.357595
H186	H	1.771306	-0.419210	0.857595
H187	H	1.242417	-0.792941	0.465328
H188	H	1.742417	-0.292941	0.965328
H189	H	1.234018	-0.270794	0.682542
H190	H	1.734018	0.229206	1.182542
N191	N	1.099744	-0.785760	0.523715
N192	N	1.599744	-0.285760	1.023715
H193	H	1.108241	-0.829092	0.560232
H194	H	1.608241	-0.329092	1.060232
H195	H	1.054345	-0.754874	0.543646
H196	H	1.554345	-0.254874	1.043646
N197	N	1.288740	-0.784947	0.349258
N198	N	1.788740	-0.284947	0.849258
H199	H	1.264277	-0.751405	0.308458
H200	H	1.764277	-0.251405	0.808458
H201	H	1.315076	-0.828030	0.322092
H202	H	1.815076	-0.328030	0.822092
N203	N	0.986554	-0.502474	0.795380
N204	N	1.486554	-0.002474	1.295380
H205	H	0.994222	-0.495301	0.736825
H206	H	1.494222	0.004699	1.236825
H207	H	0.930111	-0.490938	0.809804
H208	H	1.430111	0.009062	1.309804
H209	H	1.019089	-0.793246	0.427762
H210	H	1.519089	-0.293246	0.927762
H211	H	1.162645	-0.793014	0.250663
H212	H	1.662645	-0.293014	0.750663
H213	H	1.050574	-0.442530	1.079906
H214	H	1.550574	0.057470	1.579906
N215	N	1.298044	-0.210867	0.967053
N216	N	1.798044	0.289133	1.467053
H217	H	1.290378	-0.218038	1.025607
H218	H	1.790378	0.281962	1.525607
H219	H	1.285775	-0.157978	0.952638
H220	H	1.785775	0.342022	1.452638
N221	N	0.728378	-0.502785	0.536181
N222	N	1.228378	-0.002785	1.036181
H223	H	0.762648	-0.472724	0.572865
H224	H	1.262648	0.027276	1.072865
H225	H	0.762561	-0.537055	0.503941
H226	H	1.262561	-0.037055	1.003941
N227	N	1.039555	-0.785054	0.273148
N228	N	1.539555	-0.285054	0.773148
H229	H	1.017756	-0.752050	0.315937
H230	H	1.517756	-0.252050	0.815937
H231	H	1.002730	-0.828184	0.264588
H232	H	1.502730	-0.328184	0.764588
H233	H	0.567709	-0.490269	0.522835
H234	H	1.067709	0.009731	1.022835
N235	N	0.728392	-0.210800	0.225465
N236	N	1.228392	0.289200	0.725465
H237	H	0.762615	-0.240852	0.188776
H238	H	1.262615	0.259148	0.688776
H239	H	0.762624	-0.176527	0.257705
H240	H	1.262624	0.323473	0.757705
N241	N	1.253144	-0.927495	0.481284
N242	N	1.753144	-0.427495	0.981284
H243	H	1.211551	-0.961237	0.504085
H244	H	1.711551	-0.461237	1.004085
H245	H	1.262142	-0.884506	0.518196
H246	H	1.762142	-0.384506	1.018196
