data_functionalizedCrystal
_audit_creation_method	'MofGen! by Chris Wilmer'
_symmetry_space_group_name_H-M	'P1'
_symmetry_Int_Tables_number	1
_symmetry_cell_setting	triclinic
loop_
_symmetry_equiv_pos_as_xyz
  x,y,z
_cell_length_a	21.395362
_cell_length_b	12.645330
_cell_length_c	21.395355
_cell_angle_alpha	89.987670
_cell_angle_beta	89.956060
_cell_angle_gamma	90.033572
loop_
_atom_site_label
_atom_site_type_symbol
_atom_site_fract_x
_atom_site_fract_y
_atom_site_fract_z
Zn1	Zn	0.957916	-0.421713	-0.354613
Zn2	Zn	0.957842	-0.598962	-0.249846
Zn3	Zn	0.853131	-0.421762	-0.249814
Zn4	Zn	0.853124	-0.598984	-0.354551
O5	O	0.905503	-0.510355	-0.302206
O6	O	1.045584	-0.445196	-0.340754
O7	O	0.943924	-0.575468	-0.162164
O8	O	0.867065	-0.273408	-0.263728
O9	O	1.045530	-0.575420	-0.263783
O10	O	0.944050	-0.273372	-0.340723
O11	O	0.866993	-0.445280	-0.162140
O12	O	0.765452	-0.445301	-0.263668
O13	O	0.867053	-0.575457	-0.442237
O14	O	0.765447	-0.575505	-0.340618
O15	O	0.944043	-0.445217	-0.442282
O16	O	0.943918	-0.747312	-0.263724
O17	O	0.866981	-0.747328	-0.340650
C18	C	0.742716	-0.510411	-0.302133
C19	C	0.673074	-0.510461	-0.302117
C20	C	0.640375	-0.578348	-0.342125
C21	C	0.574940	-0.578322	-0.342153
C22	C	0.542206	-0.510420	-0.302162
C23	C	0.574913	-0.442520	-0.262151
C24	C	0.640348	-0.442540	-0.262129
C25	C	0.438480	-0.501880	-0.245756
C26	C	0.373047	-0.501867	-0.245777
C27	C	0.340386	-0.510351	-0.302231
C28	C	0.373165	-0.518870	-0.358665
C29	C	0.438599	-0.518890	-0.358643
C30	C	0.471254	-0.510390	-0.302182
C31	C	0.236734	-0.578213	-0.342272
C32	C	0.171297	-0.578180	-0.342301
C33	C	0.171272	-0.442383	-0.262294
C34	C	0.236707	-0.442411	-0.262271
C35	C	0.269434	-0.510332	-0.302259
C36	C	0.905458	-0.785785	-0.302197
C37	C	0.905495	-0.903615	-0.302214
C38	C	0.857295	-1.071233	-0.350758
C39	C	0.857048	-0.948674	-0.350602
C40	C	0.887617	-0.948193	-0.236177
C41	C	0.887323	-1.070792	-0.236472
C42	C	0.971870	-1.070679	-0.319173
C43	C	0.971463	-0.948073	-0.320616
C44	C	1.068927	-0.510300	-0.302279
C45	C	1.138568	-0.510276	-0.302311
C46	C	0.905555	-0.510334	-0.465629
C47	C	0.905578	-0.510325	-0.535271
C48	C	0.905566	-0.233850	-0.302228
C49	C	0.905593	-0.116020	-0.302238
C50	C	0.945665	-0.442506	-0.568008
C51	C	0.945664	-0.442460	-0.633444
C52	C	0.905582	-0.510252	-0.666139
C53	C	0.865488	-0.578076	-0.633393
C54	C	0.865485	-0.578112	-0.567959
C55	C	0.900619	-0.605707	-0.769809
C56	C	0.900626	-0.605673	-0.835242
C57	C	0.905586	-0.510140	-0.867960
C58	C	0.910553	-0.414639	-0.835237
C59	C	0.910550	-0.414676	-0.769803
C60	C	0.905580	-0.510220	-0.737091
C61	C	0.945675	-0.442266	-0.971650
C62	C	0.945669	-0.442219	-1.037087
C63	C	0.865496	-0.577844	-1.037035
C64	C	0.865498	-0.577882	-0.971600
C65	C	0.905591	-0.510095	-0.938911
C66	C	0.905488	-0.510300	-0.139418
C67	C	0.905587	-0.510011	-0.069778
H68	H	0.144621	-0.387091	-0.229735
H69	H	0.838874	-1.099500	-0.222129
H70	H	0.144674	-0.633460	-0.374884
H71	H	0.984945	-0.918934	-0.369216
H72	H	1.007853	-1.099637	-0.283834
H73	H	0.263332	-0.387135	-0.229689
N74	N	0.988902	-0.369309	-0.668764
H75	H	1.014298	-0.326372	-0.638127
H76	H	1.017884	-0.412446	-0.695936
H77	H	0.346364	-0.494937	-0.199825
H78	H	0.832855	-0.633031	-1.063655
N79	N	0.931876	-1.110063	-0.186940
H80	H	0.965583	-1.154372	-0.207096
H81	H	0.951580	-1.047680	-0.165022
N82	N	0.988904	-0.369393	-0.532751
H83	H	1.014299	-0.326422	-0.563424
H84	H	0.963411	-0.320355	-0.505581
N85	N	0.675619	-0.369327	-0.218967
H86	H	0.722037	-0.379648	-0.225020
H87	H	0.664230	-0.293635	-0.228798
H88	H	0.465068	-0.494967	-0.199781
N89	N	0.337962	-0.528087	-0.419566
H90	H	0.349408	-0.466891	-0.447684
H91	H	0.349382	-0.596806	-0.440726
N92	N	0.915899	-0.311673	-0.734514
H93	H	0.877730	-0.301764	-0.707338
H94	H	0.954529	-0.313163	-0.707429
H95	H	0.548258	-0.387232	-0.229591
H96	H	0.465285	-0.525824	-0.404593
H97	H	0.914593	-0.336848	-0.861874
H98	H	0.978312	-0.386986	-1.063741
H99	H	0.868234	-0.918533	-0.399567
H100	H	0.978317	-0.387064	-0.945034
N101	N	0.932733	-0.909538	-0.186976
H102	H	0.965273	-0.862644	-0.207069
H103	H	0.909176	-0.868048	-0.154232
N104	N	1.021645	-0.907433	-0.277223
H105	H	1.002241	-0.859416	-0.244874
H106	H	1.042525	-0.969085	-0.255698
N107	N	0.791969	-0.909961	-0.335729
H108	H	0.775944	-0.865613	-0.371558
H109	H	0.763377	-0.972592	-0.329235
N110	N	0.822254	-0.651265	-0.532638
H111	H	0.793232	-0.608202	-0.505464
H112	H	0.796898	-0.694195	-0.563310
H113	H	0.868378	-1.100658	-0.399884
H114	H	0.808467	-1.102153	-0.339680
H115	H	0.263381	-0.633513	-0.374837
H116	H	0.839674	-0.917599	-0.221575
N117	N	0.822251	-0.651013	-0.936285
H118	H	0.796855	-0.693947	-0.966924
H119	H	0.847731	-0.700086	-0.909151
H120	H	0.988178	-1.101533	-0.366510
H121	H	0.896586	-0.683435	-0.861880
H122	H	0.896413	-0.683481	-0.743176
H123	H	0.832851	-0.633270	-0.660018
H124	H	0.667017	-0.633653	-0.374688
N125	N	0.539667	-0.651558	-0.385303
H126	H	0.512469	-0.700606	-0.359794
H127	H	0.512604	-0.608476	-0.414386
