data_functionalizedCrystal
_audit_creation_method	'MofGen! by Chris Wilmer'
_symmetry_space_group_name_H-M	'P1'
_symmetry_Int_Tables_number	1
_symmetry_cell_setting	triclinic
loop_
_symmetry_equiv_pos_as_xyz
  x,y,z
_cell_length_a	12.759401
_cell_length_b	11.169416
_cell_length_c	11.169406
_cell_angle_alpha	89.953196
_cell_angle_beta	89.967503
_cell_angle_gamma	90.011865
loop_
_atom_site_label
_atom_site_type_symbol
_atom_site_fract_x
_atom_site_fract_y
_atom_site_fract_z
Zn1	Zn	1.606418	-0.477472	-0.678605
Zn2	Zn	1.606287	-0.678269	-0.477927
Zn3	Zn	1.430681	-0.477604	-0.477934
Zn4	Zn	1.430722	-0.678117	-0.678566
O5	O	1.518527	-0.577866	-0.578258
O6	O	1.753422	-0.504117	-0.651998
O7	O	1.582921	-0.651768	-0.309978
O8	O	1.454031	-0.309636	-0.504572
O9	O	1.753325	-0.651641	-0.504560
O10	O	1.583144	-0.309540	-0.652004
O11	O	1.453904	-0.504340	-0.309983
O12	O	1.283666	-0.504194	-0.504535
O13	O	1.454100	-0.651383	-0.846521
O14	O	1.283696	-0.651511	-0.651939
O15	O	1.583183	-0.503970	-0.846550
O16	O	1.582960	-0.846198	-0.504523
O17	O	1.453973	-0.846087	-0.651932
C18	C	1.245560	-0.577851	-0.578234
C19	C	1.128783	-0.577874	-0.578252
C20	C	1.073964	-0.654698	-0.654885
C21	C	0.964240	-0.654703	-0.654908
C22	C	0.964164	-0.501055	-0.501657
C23	C	1.073886	-0.501045	-0.501640
C24	C	1.518486	-0.889690	-0.578249
C25	C	1.518564	-1.023090	-0.578285
C26	C	1.792560	-0.577881	-0.578282
C27	C	1.909337	-0.577888	-0.578293
C28	C	1.518661	-0.577645	-0.891301
C29	C	1.518718	-0.577551	-1.024701
C30	C	1.518598	-0.264823	-0.578293
C31	C	1.518628	-0.131423	-0.578308
C32	C	1.518454	-0.577998	-0.266433
C33	C	1.518601	-0.577754	-0.133033
H34	H	0.919612	-0.717259	-0.717312
C35	C	1.134353	-0.739197	-0.739164
C36	C	1.119242	-0.875628	-0.729151
C37	C	1.179628	-0.960126	-0.813436
C38	C	1.255125	-0.908194	-0.907735
C39	C	1.270239	-0.771756	-0.917753
C40	C	1.209854	-0.687258	-0.833468
H41	H	1.063352	-0.914078	-0.659341
H42	H	1.168439	-1.061127	-0.806020
H43	H	1.299826	-0.970745	-0.970128
H44	H	1.326130	-0.733306	-0.987562
H45	H	1.221043	-0.586257	-0.840884
C46	C	1.134192	-0.416536	-0.417333
C47	C	1.119129	-0.280107	-0.427352
C48	C	1.179435	-0.195600	-0.343051
C49	C	1.254805	-0.247522	-0.248730
C50	C	1.269871	-0.383957	-0.238707
C51	C	1.209565	-0.468465	-0.323008
H52	H	1.063333	-0.241665	-0.497177
H53	H	1.168282	-0.094601	-0.350471
H54	H	1.299447	-0.184964	-0.186325
H55	H	1.325667	-0.422399	-0.168881
H56	H	1.220719	-0.569464	-0.315588
H57	H	0.919453	-0.438506	-0.439280
