data_functionalizedCrystal
_audit_creation_method	'MofGen! by Chris Wilmer'
_symmetry_space_group_name_H-M	'P1'
_symmetry_Int_Tables_number	1
_symmetry_cell_setting	triclinic
loop_
_symmetry_equiv_pos_as_xyz
  x,y,z
_cell_length_a	14.395555
_cell_length_b	20.919309
_cell_length_c	14.395555
_cell_angle_alpha	89.996592
_cell_angle_beta	59.998317
_cell_angle_gamma	57.438098
loop_
_atom_site_label
_atom_site_type_symbol
_atom_site_fract_x
_atom_site_fract_y
_atom_site_fract_z
Zr1	Zr	0.944255	0.641723	-0.085633
O2	O	1.150096	0.535345	-0.239976
O3	O	0.746761	0.674340	-0.038319
O4	O	0.940573	0.674334	-0.232121
O5	O	0.956277	0.535349	0.106699
O6	O	0.928174	0.783964	-0.225924
O7	O	0.956284	0.535351	-0.046175
O8	O	0.581479	0.783975	0.120752
O9	O	1.302972	0.535338	-0.239976
O10	O	0.815648	0.770059	-0.013515
O11	O	0.824896	0.688242	0.095948
O12	O	1.053086	0.688235	-0.132228
O13	O	1.062334	0.606418	-0.022765
Zr14	Zr	0.924469	0.816568	0.168066
Zr15	Zr	0.924479	0.816571	-0.075750
Zr16	Zr	0.944244	0.641720	0.158183
Zr17	Zr	1.188074	0.641712	-0.085633
Zr18	Zr	0.680649	0.816579	0.168066
O19	O	1.121963	0.783951	0.120752
O20	O	1.121978	0.783955	-0.225924
O21	O	1.150081	0.535340	0.106699
O22	O	0.718627	0.922946	0.322409
O23	O	0.718642	0.922950	-0.024267
O24	O	0.746746	0.674336	0.308356
O25	O	0.912446	0.922942	-0.024267
O26	O	0.928150	0.783957	0.314553
O27	O	0.940550	0.674327	0.308356
O28	O	0.912440	0.922940	0.128607
O29	O	1.287253	0.674318	-0.232121
O30	O	0.581470	0.783973	0.314553
O31	O	0.565751	0.922953	0.322409
O32	O	0.565760	0.922955	0.128607
O33	O	1.302964	0.535336	-0.046175
O34	O	1.287245	0.674316	-0.038319
O35	O	0.815638	0.770056	0.214661
O36	O	0.806389	0.851873	0.105197
O37	O	1.043827	0.770049	-0.013516
O38	O	1.053076	0.688232	0.095948
C39	C	0.629381	0.729159	0.041216
C40	C	0.525873	0.729164	0.041216
C41	C	0.398347	0.773756	-0.018471
C42	C	0.545176	0.696836	-0.067914
C43	C	0.380456	0.806069	0.090606
C44	C	0.488385	0.652162	-0.008291
C45	C	0.323585	0.761451	0.150291
C46	C	0.470410	0.684485	0.100873
C47	C	0.959098	0.510438	0.028854
C48	C	0.967493	0.436211	0.024659
C49	C	0.847501	0.444048	0.084648
C50	C	0.855397	0.374301	0.080703
C51	C	0.983287	0.296717	0.016762
C52	C	1.103289	0.288881	-0.043230
C53	C	1.095392	0.358628	-0.039278
C54	C	1.013334	0.083991	0.001735
C55	C	1.021223	0.014243	-0.002216
C56	C	0.773330	0.099667	0.121720
C57	C	0.765443	0.169411	0.125661
C58	C	0.885445	0.161570	0.065674
C59	C	0.991362	0.225423	0.012725
C60	C	0.877369	0.232863	0.069718
C61	C	1.239343	0.729132	0.041216
C62	C	1.342851	0.729127	0.041216
C63	C	0.934375	0.729149	-0.263761
C64	C	0.934380	0.729151	-0.367267
C65	C	0.909625	0.947853	0.053578
C66	C	0.901230	1.022080	0.057774
C67	C	1.063842	0.684527	-0.492584
C68	C	0.992946	0.761456	-0.519075
C69	C	1.005271	0.652226	-0.525199
C70	C	0.863477	0.806124	-0.392392
C71	C	0.875826	0.696840	-0.398523
C72	C	0.804834	0.773814	-0.424938
C73	C	0.934348	0.729142	0.346193
C74	C	0.934344	0.729140	0.449700
C75	C	0.604644	0.947866	0.053579
C76	C	0.492741	1.022098	0.057774
C77	C	0.629367	0.729155	0.346193
C78	C	0.525855	0.729159	0.449700
C79	C	0.604631	0.947863	0.358556
C80	C	0.492723	1.022093	0.466258
C81	C	1.264092	0.510428	-0.276123
C82	C	1.376000	0.436198	-0.383825
C83	C	1.264079	0.510424	0.028854
C84	C	1.375982	0.436193	0.024658
C85	C	1.239356	0.729136	-0.263761
C86	C	1.342868	0.729132	-0.367267
C87	C	0.445023	1.014252	-0.002233
C88	C	0.339893	1.083994	0.001687
C89	C	0.282475	1.161582	0.065620
C90	C	0.330203	1.169426	0.125628
C91	C	0.435338	1.099685	0.121702
C92	C	0.435342	1.099668	0.459697
C93	C	0.330206	1.169422	0.560886
C94	C	0.282446	1.161600	0.668634
C95	C	0.339838	1.084017	0.675191
C96	C	0.444979	1.014265	0.574004
C97	C	1.433393	0.358623	-0.377265
C98	C	1.538560	0.288869	-0.478453
C99	C	1.586324	0.296691	-0.586201
C100	C	1.528926	0.374274	-0.592759
C101	C	1.423768	0.444026	-0.491571
C102	C	1.423710	0.444039	0.084655
C103	C	1.528868	0.374297	0.080709
C104	C	1.586289	0.296709	0.016773
C105	C	1.538556	0.288865	-0.043231
C106	C	1.433407	0.358606	-0.039291
C107	C	0.470313	0.684550	0.445564
C108	C	0.323501	0.761489	0.542934
C109	C	0.488194	0.652253	0.536768
C110	C	0.380338	0.806142	0.545710
C111	C	0.545111	0.696851	0.539526
C112	C	0.398303	0.773835	0.636916
H113	H	0.335879	0.871123	0.132377
H114	H	0.228785	0.788828	0.545406
O115	O	1.381929	0.350131	-0.103998
H116	H	1.397235	0.379851	-0.168155
O117	O	0.321054	0.892346	0.549497
H118	H	0.398886	0.891658	0.472050
O119	O	1.600434	0.205196	-0.471368
H120	H	1.549523	0.211483	-0.379443
O121	O	0.670635	0.660646	-0.190094
H122	H	0.655316	0.643144	-0.251009
O123	O	0.506957	0.930573	-0.071210
H124	H	0.426124	0.923479	-0.037219
H125	H	1.065235	0.587177	-0.582377
H126	H	1.173307	0.646858	-0.520155
H127	H	1.671951	0.239887	-0.668585
O128	O	0.288420	1.075526	-0.063035
H129	H	0.247925	1.041672	-0.030511
H130	H	1.125372	-0.048931	-0.054290
O131	O	0.198082	0.797676	0.272448
H132	H	0.212541	0.816299	0.333294
H133	H	0.196867	1.218363	0.068808
O134	O	0.268258	1.253112	0.194594
H135	H	0.187124	1.300282	0.187248
H136	H	1.567830	0.380633	-0.680499
O137	O	0.709561	0.527727	0.153615
H138	H	0.627451	0.521456	0.194675
H139	H	1.377039	0.507189	-0.496927
H140	H	0.300937	1.077660	0.762933
H141	H	0.474177	1.106085	0.170573
O142	O	0.356794	0.823660	-0.085405
H143	H	0.245272	0.875063	-0.027597
H144	H	0.661301	0.232580	0.177707
H145	H	0.491687	0.951103	0.579362
O146	O	0.547709	0.565948	-0.063779
H147	H	0.469894	0.566613	-0.063388
O148	O	1.058493	0.797656	-0.587935
H149	H	1.165963	0.760515	-0.616906
O150	O	1.361807	0.527718	0.153600
H151	H	1.412693	0.521444	0.194633
O152	O	0.511915	0.634452	0.167718
H153	H	0.557510	0.570652	0.126479
H154	H	0.826381	0.669493	-0.346551
H155	H	0.501663	0.646883	0.363673
H156	H	0.196833	1.218404	0.751018
H157	H	1.193102	0.352242	-0.088114
O158	O	0.356819	0.823877	0.745239
H159	H	0.311250	0.887670	0.749561
O160	O	1.580323	0.382766	0.145446
H161	H	1.522703	0.448435	0.190584
H162	H	0.757686	0.380689	0.129555
H163	H	0.675631	0.106042	0.170558
O164	O	1.381894	0.350177	-0.261057
H165	H	1.439497	0.284510	-0.273514
O166	O	1.600494	0.205179	-0.112190
H167	H	1.681617	0.158009	-0.104833
O168	O	0.784219	0.892328	-0.316906
H169	H	0.784936	0.891650	-0.240164
O170	O	0.486858	1.108114	0.343490
H171	H	0.429295	1.173781	0.355947
H172	H	0.283487	1.232587	0.555526
H173	H	1.671907	0.239928	0.013574
H174	H	1.111048	0.077596	-0.047131
H175	H	0.639863	0.669491	0.536993
O176	O	0.547210	0.566093	0.533108
H177	H	0.576006	0.529188	0.454610
H178	H	1.207420	0.225706	-0.095286
H179	H	0.773241	0.296034	0.121785
H180	H	0.695269	0.811598	-0.397145
O181	O	1.129295	0.141740	-0.056260
H182	H	1.138820	0.107911	0.001942
