data_functionalizedCrystal
_audit_creation_method	'MofGen! by Chris Wilmer'
_symmetry_space_group_name_H-M	'P1'
_symmetry_Int_Tables_number	1
_symmetry_cell_setting	triclinic
loop_
_symmetry_equiv_pos_as_xyz
  x,y,z
_cell_length_a	11.169417
_cell_length_b	21.295417
_cell_length_c	11.169417
_cell_angle_alpha	90.016676
_cell_angle_beta	90.000863
_cell_angle_gamma	90.031386
loop_
_atom_site_label
_atom_site_type_symbol
_atom_site_fract_x
_atom_site_fract_y
_atom_site_fract_z
Zn1	Zn	1.834569	-0.250697	0.678466
Zn2	Zn	2.167903	0.082636	1.011800
Zn3	Zn	2.501236	0.415970	1.345133
Zn4	Zn	1.834455	-0.355940	0.477752
Zn5	Zn	2.167788	-0.022606	0.811085
Zn6	Zn	2.501121	0.310727	1.144418
Zn7	Zn	1.633922	-0.250690	0.477801
Zn8	Zn	1.967255	0.082643	0.811134
Zn9	Zn	2.300588	0.415977	1.144468
Zn10	Zn	1.633792	-0.355934	0.678396
Zn11	Zn	1.967126	-0.022601	1.011730
Zn12	Zn	2.300459	0.310733	1.345063
O13	O	1.734185	-0.303315	0.578104
O14	O	2.067518	0.030018	0.911437
O15	O	2.400851	0.363351	1.244771
O16	O	2.002504	-0.264663	0.651850
O17	O	2.335837	0.068670	0.985183
O18	O	2.669171	0.402004	1.318517
O19	O	1.807860	-0.341978	0.309809
O20	O	2.141193	-0.008644	0.643142
O21	O	2.474526	0.324689	0.976475
O22	O	1.660640	-0.162602	0.504470
O23	O	1.993974	0.170732	0.837803
O24	O	2.327307	0.504065	1.171136
O25	O	2.002420	-0.341985	0.504386
O26	O	2.335753	-0.008651	0.837719
O27	O	2.669086	0.324682	1.171052
O28	O	1.808055	-0.162607	0.651898
O29	O	2.141389	0.170727	0.985231
O30	O	2.474722	0.504060	1.318564
O31	O	1.660529	-0.264651	0.309845
O32	O	1.993862	0.068682	0.643178
O33	O	2.327196	0.402016	0.976511
O34	O	1.465955	-0.264645	0.504402
O35	O	1.799288	0.068688	0.837735
O36	O	2.132622	0.402021	1.171068
O37	O	1.660420	-0.341975	0.846355
O38	O	1.993753	-0.008641	1.179689
O39	O	2.327086	0.324692	1.513022
O40	O	1.465860	-0.341968	0.651778
O41	O	1.799193	-0.008634	0.985112
O42	O	2.132526	0.324699	1.318445
O43	O	1.807930	-0.264658	0.846407
O44	O	2.141263	0.068676	1.179740
O45	O	2.474596	0.402009	1.513074
O46	O	1.807734	-0.444028	0.504318
O47	O	2.141067	-0.110695	0.837651
O48	O	2.474401	0.222638	1.170985
O49	O	1.660308	-0.444024	0.651731
O50	O	1.993642	-0.110691	0.985064
O51	O	2.326975	0.222643	1.318397
C52	C	1.422360	-0.303306	0.578089
C53	C	1.755693	0.030028	0.911422
C54	C	2.089027	0.363361	1.244755
C55	C	1.288960	-0.303317	0.578110
C56	C	1.622293	0.030017	0.911444
C57	C	1.955627	0.363350	1.244777
C58	C	1.734027	-0.466867	0.578038
C59	C	2.067361	-0.133534	0.911371
C60	C	2.400694	0.199800	1.244704
C61	C	1.734070	-0.536835	0.578049
C62	C	2.067403	-0.203502	0.911383
C63	C	2.400736	0.129832	1.244716
C64	C	1.810902	-0.569683	0.501370
C65	C	2.144236	-0.236350	0.834703
C66	C	2.477569	0.096984	1.168037
C67	C	1.810959	-0.635425	0.501397
C68	C	2.144292	-0.302092	0.834730
C69	C	2.477625	0.031241	1.168064
C70	C	1.734161	-0.668317	0.578091
C71	C	2.067494	-0.334984	0.911424
C72	C	2.400827	-0.001651	1.244757
C73	C	1.657323	-0.635462	0.654785
C74	C	1.990656	-0.302128	0.988118
C75	C	2.323989	0.031205	1.321451
C76	C	1.657277	-0.569720	0.654764
C77	C	1.990610	-0.236387	0.988097
C78	C	2.323944	0.096946	1.321431
N79	N	1.629168	-0.771585	0.587235
N80	N	1.962501	-0.438252	0.920568
N81	N	2.295834	-0.104919	1.253902
N82	N	1.629214	-0.834037	0.587248
N83	N	1.962548	-0.500703	0.920581
N84	N	2.295881	-0.167370	1.253914
C85	C	1.734295	-0.866392	0.578159
C86	C	2.067629	-0.533059	0.911493
C87	C	2.400962	-0.199725	1.244826
N88	N	1.839330	-0.833937	0.569035
N89	N	2.172663	-0.500603	0.902368
N90	N	2.505997	-0.167270	1.235701
N91	N	1.839282	-0.771480	0.569016
N92	N	2.172615	-0.438146	0.902349
N93	N	2.505949	-0.104813	1.235682
C94	C	1.734202	-0.739603	0.578122
C95	C	2.067535	-0.406269	0.911455
C96	C	2.400869	-0.072936	1.244789
C97	C	1.811195	-0.970526	0.501505
C98	C	2.144529	-0.637192	0.834839
C99	C	2.477862	-0.303859	1.168172
C100	C	1.811254	-1.036269	0.501541
C101	C	2.144587	-0.702936	0.834874
C102	C	2.477920	-0.369603	1.168207
C103	C	1.657607	-1.036304	0.654922
C104	C	1.990940	-0.702971	0.988255
C105	C	2.324273	-0.369638	1.321589
C106	C	1.657559	-0.970562	0.654893
C107	C	1.990893	-0.637228	0.988226
C108	C	2.324226	-0.303895	1.321560
C109	C	1.734352	-0.937676	0.578178
C110	C	2.067685	-0.604343	0.911512
C111	C	2.401019	-0.271010	1.244845
C112	C	2.047227	-0.303325	0.578120
C113	C	2.380560	0.030008	0.911453
C114	C	2.713893	0.363341	1.244787
C115	C	2.180627	-0.303330	0.578127
C116	C	2.513960	0.030004	0.911460
C117	C	2.847293	0.363337	1.244794
C118	C	1.734173	-0.303316	0.891146
C119	C	2.067506	0.030017	1.224480
C120	C	2.400840	0.363350	1.557813
C121	C	1.734168	-0.303317	1.024546
C122	C	2.067501	0.030017	1.357880
C123	C	2.400835	0.363350	1.691213
C124	C	1.734375	-0.139125	0.578197
C125	C	2.067708	0.194208	0.911530
C126	C	2.401042	0.527542	1.244864
C127	C	1.734456	-0.069157	0.578237
C128	C	2.067790	0.264177	0.911570
C129	C	2.401123	0.597510	1.244903
C130	C	1.734182	-0.303326	1.266279
C131	C	2.067515	0.030008	1.599613
C132	C	2.400848	0.363341	1.932946
C133	C	1.734171	-0.303318	1.132879
C134	C	2.067505	0.030016	1.466213
C135	C	2.400838	0.363349	1.799546
H136	H	1.873434	-0.542910	0.438907
H137	H	2.206768	-0.209576	0.772241
H138	H	2.540101	0.123757	1.105574
Cl139	Cl	1.907554	-0.676729	0.404991
Cl140	Cl	2.240887	-0.343395	0.738324
Cl141	Cl	2.574220	-0.010062	1.071657
Cl142	Cl	1.907862	-1.077565	0.405143
Cl143	Cl	2.241195	-0.744231	0.738477
Cl144	Cl	2.574528	-0.410898	1.071810
H145	H	1.595082	-1.063084	0.717373
H146	H	1.928415	-0.729751	1.050706
H147	H	2.261748	-0.396418	1.384040
H148	H	1.594990	-0.943815	0.717327
H149	H	1.928323	-0.610482	1.050661
H150	H	2.261656	-0.277148	1.383994
Cl151	Cl	1.907732	-0.929181	0.405066
Cl152	Cl	2.241065	-0.595848	0.738399
Cl153	Cl	2.574398	-0.262514	1.071732
Cl154	Cl	1.560782	-0.676811	0.751205
Cl155	Cl	1.894115	-0.343477	1.084538
Cl156	Cl	2.227449	-0.010144	1.417872
H157	H	1.594709	-0.542975	0.717207
H158	H	1.928043	-0.209642	1.050540
H159	H	2.261376	0.123692	1.383874
