data_functionalizedCrystal
_audit_creation_method	'MofGen! by Chris Wilmer'
_symmetry_space_group_name_H-M	'P1'
_symmetry_Int_Tables_number	1
_symmetry_cell_setting	triclinic
loop_
_symmetry_equiv_pos_as_xyz
  x,y,z
_cell_length_a	19.288864
_cell_length_b	10.723024
_cell_length_c	17.766277
_cell_angle_alpha	89.994854
_cell_angle_beta	89.976791
_cell_angle_gamma	83.802058
loop_
_atom_site_label
_atom_site_type_symbol
_atom_site_fract_x
_atom_site_fract_y
_atom_site_fract_z
O1	O	0.922366	0.155659	-0.062834
O2	O	0.720242	0.176657	-0.062782
O3	O	0.825966	-0.015516	-0.062807
O4	O	0.816642	0.347832	-0.062810
O5	O	0.825947	-0.015526	0.062382
O6	O	0.720223	0.176647	0.062406
O7	O	0.922347	0.155649	0.062355
Cu8	Cu	0.821283	0.166147	0.073811
Cu9	Cu	0.821306	0.166159	-0.074239
O10	O	0.816623	0.347822	0.062379
C11	C	0.694352	0.175976	-0.000181
C12	C	0.617235	0.173948	-0.000162
C13	C	0.573272	0.286707	-0.000175
C14	C	0.500813	0.284801	-0.000183
C15	C	0.472319	0.170131	-0.000193
C16	C	0.516291	0.057358	-0.000176
C17	C	0.588749	0.059266	-0.000160
C18	C	0.363477	0.079991	-0.044077
C19	C	0.291020	0.078087	-0.044098
C20	C	0.248835	0.164239	-0.000239
C21	C	0.279114	0.252317	0.043630
C22	C	0.351572	0.254226	0.043646
C23	C	0.393752	0.168049	-0.000210
C24	C	0.126303	0.274939	-0.000260
C25	C	0.053843	0.273029	-0.000263
C26	C	0.069323	0.045582	-0.000264
C27	C	0.141782	0.047496	-0.000253
C28	C	0.170267	0.162178	-0.000254
C29	C	0.825278	-0.062006	-0.000213
C30	C	0.823248	-0.200518	-0.000215
C31	C	0.882406	-0.276743	-0.000231
C32	C	0.880309	-0.419902	-0.000234
C33	C	0.948237	0.156330	-0.000248
C34	C	1.025354	0.158358	-0.000273
C35	C	0.817311	0.394313	-0.000216
C36	C	0.819341	0.532824	-0.000219
N37	N	0.821273	0.166138	0.177941
N38	N	0.821322	0.166158	-0.178369
C39	C	0.868103	0.081086	0.217318
C40	C	0.868107	0.081080	0.296119
C41	C	0.821287	0.166148	0.335542
C42	C	0.774448	0.251208	0.296156
C43	C	0.774441	0.251203	0.217356
C44	C	0.812728	0.279841	0.460380
C45	C	0.812741	0.279847	0.539179
C46	C	0.821306	0.166163	0.578588
C47	C	0.829874	0.052468	0.539189
C48	C	0.829867	0.052463	0.460389
C49	C	0.821290	0.166163	0.420988
C50	C	0.868143	0.081097	0.703410
C51	C	0.868142	0.081090	0.782214
C52	C	0.774487	0.251228	0.782249
C53	C	0.774485	0.251225	0.703447
C54	C	0.821316	0.166161	0.664033
H55	H	0.376223	0.325938	0.079369
O56	O	0.752248	-0.380443	-0.000196
H57	H	0.750137	-0.320419	-0.051221
H58	H	0.906243	0.011817	0.328185
H59	H	0.149497	0.368320	-0.000250
O60	O	0.839132	-0.070156	0.581686
H61	H	0.845100	-0.149209	0.541052
H62	H	0.244768	0.322470	0.079345
H63	H	0.736326	0.320470	0.328258
O64	O	0.803472	0.402469	0.417882
H65	H	0.804893	0.383367	0.356469
O66	O	0.918661	-0.010654	0.824679
H67	H	0.889147	-0.071186	0.860595
O68	O	0.754101	-0.254456	-0.000194
H69	H	0.724148	-0.222243	-0.051212
O70	O	0.723975	0.342962	0.660969
H71	H	0.753494	0.403465	0.625040
H72	H	0.906234	0.011819	0.185229
H73	H	0.736305	0.320464	0.185295
O74	O	0.258371	-0.016922	-0.091405
H75	H	0.271442	-0.003699	-0.151524
O76	O	0.038602	-0.078103	-0.000266
H77	H	0.056251	-0.132273	-0.051283
H78	H	0.177577	-0.044325	-0.000247
O79	O	0.006420	0.394653	-0.000274
H80	H	0.038404	0.474712	-0.000279
H81	H	0.836841	-0.040111	0.428313
H82	H	0.906274	0.011829	0.671318
H83	H	0.465012	0.376626	-0.000191
O84	O	0.723991	0.343008	0.824746
H85	H	0.689983	0.290663	0.860678
O86	O	0.603998	0.410393	-0.000154
H87	H	0.561250	0.488482	-0.000153
O88	O	0.408976	-0.012930	-0.091389
H89	H	0.375749	-0.074478	-0.121906
O90	O	0.803514	0.402473	0.581668
H91	H	0.752565	0.454630	0.566577
O92	O	0.485566	-0.066327	-0.000184
H93	H	0.452958	-0.072645	-0.051219
O94	O	0.636174	-0.062356	-0.000150
H95	H	0.604191	-0.142417	-0.000161
H96	H	0.934605	-0.236017	-0.000240
H97	H	0.930952	-0.485398	-0.000244
