data_functionalizedCrystal
_audit_creation_method	'MofGen! by Chris Wilmer'
_symmetry_space_group_name_H-M	'P1'
_symmetry_Int_Tables_number	1
_symmetry_cell_setting	triclinic
loop_
_symmetry_equiv_pos_as_xyz
  x,y,z
_cell_length_a	16.992694
_cell_length_b	23.532407
_cell_length_c	15.455313
_cell_angle_alpha	92.643560
_cell_angle_beta	87.142206
_cell_angle_gamma	86.758451
loop_
_atom_site_label
_atom_site_type_symbol
_atom_site_fract_x
_atom_site_fract_y
_atom_site_fract_z
O1	O	1.042902	0.118384	-0.072037
O2	O	1.542902	0.618384	0.427963
O3	O	0.814628	0.117059	-0.072062
O4	O	1.314628	0.617059	0.427938
O5	O	0.935648	0.035132	-0.072033
O6	O	1.435648	0.535132	0.427967
O7	O	0.921882	0.200311	-0.072066
O8	O	1.421882	0.700311	0.427934
O9	O	0.928727	0.039796	0.072228
O10	O	1.428727	0.539796	0.572228
O11	O	0.807707	0.121723	0.072198
O12	O	1.307707	0.621723	0.572198
O13	O	1.035981	0.123049	0.072224
O14	O	1.535981	0.623049	0.572224
Cu15	Cu	0.921212	0.122812	0.085383
Cu16	Cu	1.421212	0.622812	0.585383
Cu17	Cu	0.929397	0.117296	-0.085222
Cu18	Cu	1.429397	0.617296	0.414778
O19	O	0.914962	0.204976	0.072194
O20	O	1.414962	0.704976	0.572194
C21	C	0.781968	0.117688	0.000065
C22	C	1.281968	0.617688	0.500065
C23	C	0.694964	0.112604	0.000056
C24	C	1.194964	0.612604	0.500056
C25	C	0.931837	0.016231	0.000100
C26	C	1.431837	0.516231	0.500100
C27	C	0.930782	-0.047038	0.000106
C28	C	1.430782	0.452962	0.500106
C29	C	0.644342	0.161650	0.000047
C30	C	1.144342	0.661650	0.500047
C31	C	0.562592	0.156871	0.000060
C32	C	1.062592	0.656871	0.500060
C33	C	0.531466	0.103045	0.000076
C34	C	1.031466	0.603045	0.500076
C35	C	0.582095	0.053995	0.000088
C36	C	1.082095	0.553995	0.500088
C37	C	0.663843	0.058775	0.000081
C38	C	1.163843	0.558775	0.500081
C39	C	0.288022	0.083234	0.000103
C40	C	0.788022	0.583234	0.500103
C41	C	0.206267	0.078457	0.000107
C42	C	0.706267	0.578457	0.500107
C43	C	0.186770	0.181334	0.000081
C44	C	0.686770	0.681334	0.500081
C45	C	0.268521	0.186109	0.000069
C46	C	0.768521	0.686109	0.500069
C47	C	0.319142	0.137059	0.000085
C48	C	0.819142	0.637059	0.500085
N49	N	0.447905	0.098158	0.000086
N50	N	0.947905	0.598158	0.500086
N51	N	0.402701	0.141946	0.000081
N52	N	0.902701	0.641946	0.500081
C53	C	0.995791	-0.442917	0.000066
C54	C	1.495791	0.057083	0.500066
C55	C	0.994812	-0.502366	0.000059
C56	C	1.494812	-0.002366	0.500059
O57	O	1.055075	-0.536121	0.000034
O58	O	1.555075	-0.036121	0.500034
N59	N	0.922865	-0.528562	0.000052
N60	N	1.422865	-0.028562	0.500052
C61	C	0.851893	-0.495307	0.000042
C62	C	1.351893	0.004693	0.500042
O63	O	0.790607	-0.523048	0.000035
O64	O	1.290607	-0.023048	0.500035
C65	C	0.852873	-0.435859	0.000043
C66	C	1.352873	0.064141	0.500043
C67	C	0.924824	-0.409666	0.000059
C68	C	1.424824	0.090334	0.500059
C69	C	1.067736	-0.416723	0.000081
C70	C	1.567736	0.083277	0.500081
C71	C	1.068714	-0.357278	0.000089
C72	C	1.568714	0.142722	0.500089
C73	C	0.997748	-0.324027	0.000083
C74	C	1.497748	0.175973	0.500083
C75	C	0.925803	-0.350221	0.000067
C76	C	1.425803	0.149779	0.500067
C77	C	0.781902	-0.402605	0.000027
C78	C	1.281902	0.097395	0.500027
C79	C	0.782889	-0.343154	0.000027
C80	C	1.282889	0.156846	0.500027
C81	C	0.854839	-0.316960	0.000043
C82	C	1.354839	0.183040	0.500043
C83	C	0.855814	-0.257525	0.000069
C84	C	1.355814	0.242475	0.500069
N85	N	0.927761	-0.231328	0.000076
N86	N	1.427761	0.268672	0.500076
C87	C	0.998728	-0.264579	0.000083
C88	C	1.498728	0.235421	0.500083
C89	C	0.849841	-0.620151	0.000040
C90	C	1.349841	-0.120151	0.500040
C91	C	0.848860	-0.679598	0.000046
C92	C	1.348860	-0.179598	0.500046
C93	C	0.991779	-0.686653	0.000061
C94	C	1.491779	-0.186653	0.500061
C95	C	0.992759	-0.627205	0.000061
C96	C	1.492759	-0.127205	0.500061
C97	C	0.921788	-0.593955	0.000047
C98	C	1.421788	-0.093955	0.500047
C99	C	1.000777	-0.139740	0.000101
C100	C	1.500777	0.360260	0.500101
C101	C	1.001749	-0.080289	0.000113
C102	C	1.501749	0.419711	0.500113
C103	C	0.858831	-0.073240	0.000093
C104	C	1.358831	0.426760	0.500093
C105	C	0.857858	-0.132685	0.000086
C106	C	1.357858	0.367315	0.500086
C107	C	0.928838	-0.165934	0.000087
C108	C	1.428838	0.334066	0.500087
O109	O	0.795583	-0.223733	0.000090
O110	O	1.295583	0.276267	0.500090
O111	O	1.060004	-0.236831	0.000079
O112	O	1.560004	0.263169	0.500079
C113	C	1.068641	0.122420	0.000095
C114	C	1.568641	0.622420	0.500095
C115	C	1.155645	0.127504	0.000098
C116	C	1.655645	0.627504	0.500098
C117	C	0.918772	0.223877	0.000060
C118	C	1.418772	0.723877	0.500060
C119	C	0.919827	0.287146	0.000048
C120	C	1.419827	0.787146	0.500048
N121	N	0.915462	0.126692	0.205377
N122	N	1.415462	0.626692	0.705377
N123	N	0.935153	0.113412	-0.205216
N124	N	1.435153	0.613412	0.294784
C125	C	0.966893	0.091901	0.250784
C126	C	1.466893	0.591901	0.750784
C127	C	0.962551	0.094840	0.341591
C128	C	1.462551	0.594840	0.841591
C129	C	0.906782	0.132574	0.386989
C130	C	1.406782	0.632574	0.886989
C131	C	0.855345	0.167366	0.341576
C132	C	1.355345	0.667366	0.841576
C133	C	0.859684	0.164424	0.250771
C134	C	1.359684	0.664424	0.750771
C135	C	0.888055	0.145261	0.658566
C136	C	1.388055	0.645261	1.158566
C137	C	0.883722	0.148203	0.749378
C138	C	1.383722	0.648203	1.249378
C139	C	0.990928	0.075676	0.749386
C140	C	1.490928	0.575676	1.249386
C141	C	0.995265	0.072738	0.658579
C142	C	1.495265	0.572738	1.158579
C143	C	0.943825	0.107529	0.613174
C144	C	1.443825	0.607529	1.113174
N145	N	0.902344	0.135581	0.479808
N146	N	1.402344	0.635581	0.979808
N147	N	0.948260	0.104518	0.520356
N148	N	1.448260	0.604518	1.020356
H149	H	0.521379	0.196809	0.000051
H150	H	1.021379	0.696809	0.500051
H151	H	0.556745	0.010169	0.000113
H152	H	1.056745	0.510169	0.500113
O153	O	0.804204	0.201938	0.201786
O154	O	1.304204	0.701938	0.701786
H155	H	0.838949	0.229779	0.160384
H156	H	1.338949	0.729779	0.660384
O157	O	1.070362	-0.598954	0.000062
O158	O	1.570362	-0.098954	0.500062
H159	H	1.119541	-0.632069	0.000060
H160	H	1.619541	-0.132069	0.500060
H161	H	1.049564	-0.713737	0.000063
H162	H	1.549564	-0.213737	0.500063
O163	O	1.146318	-0.329029	0.000098
O164	O	1.646318	0.170971	0.500098
H165	H	1.152999	-0.304006	-0.058697
H166	H	1.652999	0.195994	0.441303
O167	O	0.342613	0.030332	0.000112
O168	O	0.842613	0.530332	0.500112
H169	H	0.377505	0.031947	0.058914
H170	H	0.877505	0.531947	0.558914
H171	H	0.838305	0.178933	0.786337
H172	H	1.338305	0.678933	1.286337
H173	H	1.040677	0.042013	0.621617
H174	H	1.540677	0.542013	1.121617
O175	O	1.018037	0.057327	0.390569
O176	O	1.518037	0.557327	0.890569
H177	H	1.057557	0.030603	0.343745
H178	H	1.557557	0.530603	0.843745
H179	H	0.669678	0.205481	0.000033
H180	H	1.169678	0.705481	0.500033
O181	O	0.718449	0.005877	0.000094
O182	O	1.218449	0.505877	0.500094
H183	H	0.710256	-0.021607	-0.058700
H184	H	1.210256	0.478393	0.441300
H185	H	0.293858	0.229939	0.000046
H186	H	0.793858	0.729939	0.500046
H187	H	0.145546	0.221267	0.000069
H188	H	0.645546	0.721267	0.500069
O189	O	0.832585	0.182789	0.609598
O190	O	1.332585	0.682789	1.109598
H191	H	0.793085	0.209526	0.656424
H192	H	1.293085	0.709526	1.156424
O193	O	0.780258	-0.160945	0.000079
O194	O	1.280258	0.339055	0.500079
H195	H	0.749005	-0.149738	-0.058725
H196	H	1.249005	0.350262	0.441275
O197	O	1.079356	-0.052037	0.000117
O198	O	1.579356	0.447963	0.500117
H199	H	1.128538	-0.085150	0.000107
H200	H	1.628538	0.414850	0.500107
H201	H	0.180928	0.034624	0.000119
H202	H	0.680928	0.534624	0.500119
O203	O	1.077330	-0.175597	0.000115
O204	O	1.577330	0.324403	0.500115
H205	H	1.127516	-0.147387	0.000137
H206	H	1.627516	0.352613	0.500137
O207	O	0.771256	-0.707848	0.000039
O208	O	1.271256	-0.207848	0.500039
H209	H	0.722078	-0.674733	0.000031
H210	H	1.222078	-0.174733	0.500031
O211	O	1.027029	0.051191	0.201816
O212	O	1.527029	0.551191	0.701816
H213	H	1.066920	0.075555	0.160426
H214	H	1.566920	0.575555	0.660426
H215	H	1.032806	0.047350	0.786363
H216	H	1.532806	0.547350	1.286363
O217	O	1.144284	-0.452582	0.000101
O218	O	1.644284	0.047418	0.500101
H219	H	1.194468	-0.424371	0.000120
H220	H	1.694468	0.075629	0.500120
H221	H	0.792043	-0.593082	0.000036
H222	H	1.292043	-0.093082	0.500036
H223	H	0.809932	0.198088	0.378545
H224	H	1.309932	0.698088	0.878545
H225	H	0.723313	-0.423922	0.000009
H226	H	1.223313	0.076078	0.500009
H227	H	0.725094	-0.316084	0.000014
H228	H	1.225094	0.183916	0.500014
O229	O	0.782289	-0.037372	0.000085
O230	O	1.282289	0.462628	0.500085
H231	H	0.795065	0.008365	0.000083
H232	H	1.295065	0.508365	0.500083
