data_functionalizedCrystal
_audit_creation_method	'MofGen! by Chris Wilmer'
_symmetry_space_group_name_H-M	'P1'
_symmetry_Int_Tables_number	1
_symmetry_cell_setting	triclinic
loop_
_symmetry_equiv_pos_as_xyz
  x,y,z
_cell_length_a	15.944551
_cell_length_b	17.038272
_cell_length_c	15.021413
_cell_angle_alpha	90.004029
_cell_angle_beta	89.997174
_cell_angle_gamma	87.305147
loop_
_atom_site_label
_atom_site_type_symbol
_atom_site_fract_x
_atom_site_fract_y
_atom_site_fract_z
O1	O	1.121728	0.100827	-0.073940
O2	O	0.878066	0.113259	-0.073962
O3	O	0.998449	-0.006773	-0.073944
O4	O	1.001345	0.220859	-0.073958
O5	O	0.998429	-0.006755	0.074120
O6	O	0.878046	0.113277	0.074102
O7	O	1.121708	0.100844	0.074125
Zn8	Zn	0.999874	0.107063	0.097622
Zn9	Zn	0.999900	0.107041	-0.097459
O10	O	1.001326	0.220876	0.074107
C11	C	0.846725	0.112752	0.000067
C12	C	0.753369	0.111205	0.000059
C13	C	0.532936	0.033105	0.000081
C14	C	0.474515	0.069363	-0.072924
C15	C	0.582443	0.108405	0.000070
C16	C	0.474519	0.069398	0.073055
C17	C	0.417337	0.105696	0.000084
C18	C	0.525252	0.144684	-0.072996
C19	C	0.525262	0.144709	0.073049
C20	C	0.466862	0.181022	0.000026
C21	C	0.677557	0.109964	0.000061
C22	C	0.322225	0.104143	0.000087
C23	C	0.995805	-0.035893	0.000088
C24	C	0.987945	-0.122688	0.000087
C25	C	1.060103	-0.172781	0.000094
C26	C	1.052713	-0.254334	0.000085
C27	C	0.973165	-0.285792	0.000075
C28	C	0.901002	-0.235693	0.000065
C29	C	0.908393	-0.154142	0.000068
C30	C	0.947056	-0.531558	0.000061
C31	C	0.939671	-0.613115	0.000060
C32	C	1.091383	-0.631751	0.000079
C33	C	1.098766	-0.550197	0.000087
C34	C	1.026603	-0.500105	0.000072
C35	C	0.965610	-0.369152	0.000069
C36	C	1.034159	-0.416747	0.000073
C37	C	1.153049	0.101352	0.000093
C38	C	1.246405	0.102899	0.000096
C39	C	1.003969	0.249997	0.000073
C40	C	1.011829	0.336792	0.000068
N41	N	0.999863	0.107078	0.230759
N42	N	0.999917	0.107019	-0.230597
C43	C	0.944187	0.162555	0.470434
C44	C	1.021171	0.177734	0.529775
C45	C	0.999883	0.107059	0.412366
C46	C	0.922921	0.091897	0.529768
C47	C	0.999896	0.107041	0.587790
C48	C	1.076908	0.122273	0.470400
C49	C	0.978606	0.036405	0.470388
C50	C	1.055643	0.051554	0.529702
C51	C	0.999875	0.107070	0.311309
C52	C	0.999913	0.107029	0.688846
H53	H	0.547520	0.176503	-0.134784
C54	C	0.659552	-0.048948	0.000781
C55	C	0.571888	-0.051267	-0.000002
H56	H	0.683599	-0.101034	0.000733
H57	H	0.677651	-0.021943	-0.050555
H58	H	0.676858	-0.022303	0.052708
H59	H	0.554581	-0.077906	-0.051932
H60	H	0.553781	-0.078283	0.051339
H61	H	0.452139	0.037507	-0.134642
C62	C	0.643221	0.189276	0.155022
C63	C	0.555508	0.187679	0.156364
H64	H	0.661893	0.215804	0.206460
H65	H	0.666779	0.137029	0.154507
H66	H	0.660475	0.216091	0.103193
H67	H	0.538254	0.160859	0.208190
H68	H	0.531941	0.239935	0.156888
C69	C	0.790445	-0.586507	0.000015
C70	C	0.852225	-0.647695	0.000035
H71	H	0.736464	-0.607858	-0.000007
H72	H	0.796463	-0.555085	0.051647
H73	H	0.796503	-0.555089	-0.051620
H74	H	0.846172	-0.679111	0.051673
H75	H	0.846204	-0.679131	-0.051603
H76	H	1.142018	0.135160	0.444432
H77	H	0.849634	-0.113356	0.000061
C78	C	0.836176	0.074067	0.658177
C79	C	0.835051	0.074590	0.564970
H80	H	0.781926	0.063391	0.679904
H81	H	0.875672	0.034585	0.678463
H82	H	0.851679	0.123875	0.679374
H83	H	0.819553	0.024779	0.543772
H84	H	0.795542	0.114073	0.544676
H85	H	0.438170	0.243580	-0.000019
C86	C	0.769402	-0.244902	0.076156
C87	C	0.813559	-0.270266	0.000050
H88	H	0.715415	-0.266240	0.076144
H89	H	0.799346	-0.262098	0.127784
H90	H	0.763486	-0.189163	0.076146
H91	H	0.819480	-0.326005	0.000064
H92	H	0.783607	-0.253073	-0.051591
C93	C	0.477870	-0.051039	0.156228
C94	C	0.444322	0.026400	0.156376
H95	H	0.459232	-0.077586	0.207666
H96	H	0.459700	-0.077276	0.104394
H97	H	0.537434	-0.050773	0.156538
H98	H	0.384758	0.026133	0.156059
H99	H	0.462487	0.052643	0.208224
H100	H	0.960575	-0.023318	0.444282
C101	C	1.097691	-0.085589	0.533303
C102	C	1.119304	-0.011815	0.564617
H103	H	1.136998	-0.124706	0.554855
H104	H	1.043076	-0.096472	0.553747
H105	H	1.098355	-0.085624	0.470067
H106	H	1.118634	-0.011779	0.627852
H107	H	1.173933	-0.000930	0.544177
C108	C	1.209319	-0.199401	0.000097
C109	C	1.147546	-0.138206	0.000100
H110	H	1.263303	-0.178056	0.000091
H111	H	1.203278	-0.230815	0.051727
H112	H	1.203276	-0.230825	-0.051540
H113	H	1.153584	-0.106785	0.051740
H114	H	1.153589	-0.106779	-0.051536
C115	C	1.132436	-0.356847	-0.076031
C116	C	1.132035	-0.309392	0.000090
H117	H	1.181413	-0.390832	-0.076031
H118	H	1.084013	-0.387255	-0.076033
H119	H	1.132170	-0.324636	-0.127654
H120	H	1.132295	-0.341603	0.051714
H121	H	1.180471	-0.278981	0.000101
C122	C	1.045962	0.257276	0.658209
C123	C	1.045479	0.258379	0.565002
H124	H	1.060968	0.307064	0.679953
H125	H	0.991671	0.246130	0.679399
H126	H	1.085587	0.217893	0.678485
H127	H	1.005849	0.297759	0.544726
H128	H	1.099778	0.269534	0.543804
H129	H	1.098927	-0.391130	0.000061
C130	C	1.247985	-0.576812	0.000105
C131	C	1.186208	-0.515621	0.000100
H132	H	1.301968	-0.555464	0.000112
H133	H	1.241937	-0.608230	0.051731
H134	H	1.241954	-0.608234	-0.051536
H135	H	1.192236	-0.484202	0.051744
H136	H	1.192259	-0.484190	-0.051532
H137	H	1.150134	-0.672544	0.000090
H138	H	0.888296	-0.490782	0.000049
C139	C	0.903177	0.299888	0.465270
C140	C	0.880679	0.225957	0.435290
H141	H	0.863976	0.339030	0.443566
H142	H	0.903098	0.300628	0.528496
H143	H	0.957713	0.310151	0.444067
H144	H	0.826146	0.215692	0.456499
H145	H	0.880750	0.225216	0.372051
H146	H	0.900842	-0.394774	0.000062
