data_functionalizedCrystal
_audit_creation_method	'MofGen! by Chris Wilmer'
_symmetry_space_group_name_H-M	'P1'
_symmetry_Int_Tables_number	1
_symmetry_cell_setting	triclinic
loop_
_symmetry_equiv_pos_as_xyz
  x,y,z
_cell_length_a	19.805407
_cell_length_b	13.897448
_cell_length_c	19.805398
_cell_angle_alpha	89.973957
_cell_angle_beta	89.986879
_cell_angle_gamma	90.017692
loop_
_atom_site_label
_atom_site_type_symbol
_atom_site_fract_x
_atom_site_fract_y
_atom_site_fract_z
Zn1	Zn	1.034734	-0.384028	-0.382732
Zn2	Zn	1.034678	-0.545336	-0.269549
Zn3	Zn	0.921561	-0.384057	-0.269556
Zn4	Zn	0.921529	-0.545282	-0.382695
O5	O	0.978125	-0.464676	-0.326133
O6	O	1.129443	-0.405436	-0.367730
O7	O	1.019663	-0.523977	-0.174833
O8	O	0.936610	-0.249071	-0.284588
O9	O	1.129402	-0.523949	-0.284575
O10	O	1.019757	-0.249050	-0.367737
O11	O	0.936557	-0.405486	-0.174839
O12	O	0.826840	-0.405434	-0.284552
O13	O	0.936556	-0.523856	-0.477417
O14	O	0.826817	-0.523885	-0.367675
O15	O	1.019726	-0.405383	-0.477443
O16	O	1.019632	-0.680311	-0.284539
O17	O	0.936502	-0.680271	-0.367668
C18	C	0.802269	-0.464657	-0.326111
C19	C	0.727037	-0.464673	-0.326118
C20	C	0.691699	-0.526443	-0.369330
C21	C	0.621010	-0.526445	-0.369339
C22	C	0.585662	-0.464680	-0.326133
C23	C	0.621006	-0.402903	-0.282919
C24	C	0.691693	-0.402897	-0.282913
C25	C	0.335932	-0.402924	-0.282941
C26	C	0.265240	-0.402937	-0.282949
C27	C	0.265250	-0.526472	-0.369367
C28	C	0.335937	-0.526466	-0.369362
C29	C	0.371275	-0.464686	-0.326151
C30	C	0.447923	-0.464683	-0.326142
C31	C	0.509015	-0.464687	-0.326138
C32	C	0.978076	-0.715290	-0.326113
C33	C	0.978117	-0.822504	-0.326128
C34	C	0.978188	-1.018799	-0.326170
C35	C	0.978147	-0.909567	-0.326149
C36	C	1.154668	-0.464695	-0.326155
C37	C	1.229900	-0.464703	-0.326165
C38	C	0.978144	-0.464611	-0.502676
C39	C	0.978151	-0.464583	-0.577908
C40	C	0.978194	-0.213083	-0.326167
C41	C	0.978222	-0.105869	-0.326182
C42	C	1.021532	-0.526128	-1.039694
C43	C	1.021513	-0.526154	-0.969005
C44	C	0.978235	-0.464474	-0.933670
C45	C	0.934969	-0.402771	-0.969026
C46	C	0.934984	-0.402750	-1.039714
C47	C	0.934903	-0.402853	-0.683953
C48	C	0.934892	-0.402877	-0.613261
C49	C	1.021432	-0.526257	-0.613244
C50	C	1.021448	-0.526237	-0.683932
C51	C	0.978179	-0.464537	-0.719282
C52	C	0.978199	-0.464511	-0.795931
C53	C	0.978218	-0.464495	-0.857023
C54	C	0.978146	-0.464671	-0.150277
C55	C	0.978270	-0.464427	-0.075045
H56	H	0.364714	-0.576765	-0.404542
O57	O	0.888337	-0.336184	-1.077849
H58	H	0.853891	-0.379334	-1.110047
O59	O	0.227137	-0.593100	-0.415985
H60	H	0.172045	-0.582723	-0.408739
O61	O	0.227110	-0.336308	-0.236352
H62	H	0.263557	-0.293338	-0.206309
O63	O	1.068189	-0.592689	-0.930882
H64	H	1.056579	-0.668391	-0.944442
H65	H	0.899728	-0.352554	-0.940251
O66	O	0.374032	-0.336313	-0.236315
H67	H	0.360475	-0.260628	-0.248001
H68	H	1.056691	-0.576459	-0.712698
O69	O	0.582885	-0.336306	-0.236299
H70	H	0.527794	-0.346703	-0.243550
O71	O	1.068214	-0.592656	-1.077799
H72	H	1.060963	-0.582271	-1.132892
H73	H	0.899648	-0.352646	-0.584493
O74	O	0.729813	-0.336285	-0.236299
H75	H	0.693359	-0.293346	-0.206249
O76	O	0.888243	-0.336294	-0.722071
H77	H	0.835115	-0.352829	-0.708490
O78	O	0.729824	-0.593057	-0.415934
H79	H	0.693372	-0.636002	-0.445989
O80	O	0.582892	-0.593252	-0.415816
H81	H	0.619348	-0.636275	-0.445805
O82	O	1.068097	-0.592810	-0.575110
H83	H	1.121225	-0.576253	-0.588676
