data_functionalizedCrystal
_audit_creation_method	'MofGen! by Chris Wilmer'
_symmetry_space_group_name_H-M	'P1'
_symmetry_Int_Tables_number	1
_symmetry_cell_setting	triclinic
loop_
_symmetry_equiv_pos_as_xyz
  x,y,z
_cell_length_a	13.897449
_cell_length_b	12.759399
_cell_length_c	12.759393
_cell_angle_alpha	89.967969
_cell_angle_beta	89.976851
_cell_angle_gamma	90.015943
loop_
_atom_site_label
_atom_site_type_symbol
_atom_site_fract_x
_atom_site_fract_y
_atom_site_fract_z
Zn1	Zn	1.474718	-0.418181	-0.594110
Zn2	Zn	1.474620	-0.593900	-0.418429
Zn3	Zn	1.313407	-0.418238	-0.418435
Zn4	Zn	1.313396	-0.593821	-0.594056
O5	O	1.394035	-0.506035	-0.506257
O6	O	1.609686	-0.441499	-0.570826
O7	O	1.453198	-0.570655	-0.271408
O8	O	1.334851	-0.271209	-0.441764
O9	O	1.609614	-0.570599	-0.441753
O10	O	1.453365	-0.271167	-0.570831
O11	O	1.334756	-0.441597	-0.271413
O12	O	1.178424	-0.441520	-0.441711
O13	O	1.334832	-0.570465	-0.741084
O14	O	1.178416	-0.570520	-0.570739
O15	O	1.453354	-0.441423	-0.741124
O16	O	1.453187	-0.740910	-0.441701
O17	O	1.334736	-0.740852	-0.570733
C18	C	1.393976	-0.779002	-0.506233
C19	C	1.394039	-0.895779	-0.506258
C20	C	1.143421	-0.506018	-0.506221
C21	C	1.036207	-0.506037	-0.506230
C22	C	1.455786	-0.950636	-0.439148
C23	C	1.455848	-1.060360	-0.439183
C24	C	1.332407	-1.060360	-0.573443
C25	C	1.332351	-0.950638	-0.573412
C26	C	0.949137	-0.506040	-0.506248
C27	C	0.839905	-0.506048	-0.506279
C28	C	1.645628	-0.506052	-0.506295
C29	C	1.752842	-0.506059	-0.506311
C30	C	1.394102	-0.505928	-0.780291
C31	C	1.394131	-0.505883	-0.897068
C32	C	1.394121	-0.232001	-0.506304
C33	C	1.394157	-0.115225	-0.506324
C34	C	1.332481	-0.438670	-0.951931
C35	C	1.332503	-0.438638	-1.061656
C36	C	1.455835	-0.573034	-1.061642
C37	C	1.455807	-0.573071	-0.951920
C38	C	1.394023	-0.506065	-0.233290
C39	C	1.394182	-0.505814	-0.116514
H40	H	1.506018	-0.905972	-0.384469
O41	O	1.515608	-0.638331	-0.898456
C42	C	1.570255	-0.697903	-0.729412
C43	C	1.502475	-0.623961	-0.789829
H44	H	1.559675	-0.686295	-0.641577
H45	H	1.553291	-0.782634	-0.750885
H46	H	1.648037	-0.679468	-0.751059
H47	H	1.424670	-0.642302	-0.768216
H48	H	1.519521	-0.539253	-0.768352
H49	H	1.282300	-0.383908	-1.106321
H50	H	1.282260	-0.383962	-0.907274
H51	H	1.506131	-1.105020	-0.384536
H52	H	1.282181	-1.105039	-0.628115
H53	H	1.282068	-0.905970	-0.628067
H54	H	1.506050	-0.627735	-1.106317
