data_functionalizedCrystal
_audit_creation_method	'MofGen! by Chris Wilmer'
_symmetry_space_group_name_H-M	'P1'
_symmetry_Int_Tables_number	1
_symmetry_cell_setting	triclinic
loop_
_symmetry_equiv_pos_as_xyz
  x,y,z
_cell_length_a	12.759401
_cell_length_b	12.759399
_cell_length_c	12.759393
_cell_angle_alpha	89.969751
_cell_angle_beta	89.981739
_cell_angle_gamma	90.017509
loop_
_atom_site_label
_atom_site_type_symbol
_atom_site_fract_x
_atom_site_fract_y
_atom_site_fract_z
Zn1	Zn	1.606236	-0.418154	-0.594017
Zn2	Zn	1.606130	-0.593874	-0.418342
Zn3	Zn	1.430541	-0.418215	-0.418354
Zn4	Zn	1.430523	-0.593797	-0.593981
O5	O	1.518358	-0.506010	-0.506173
O6	O	1.753243	-0.441471	-0.570724
O7	O	1.582801	-0.570630	-0.271322
O8	O	1.453899	-0.271186	-0.441676
O9	O	1.753165	-0.570571	-0.441656
O10	O	1.582981	-0.271141	-0.570735
O11	O	1.453797	-0.441574	-0.271331
O12	O	1.283518	-0.441499	-0.441641
O13	O	1.453868	-0.570440	-0.741007
O14	O	1.283504	-0.570499	-0.570673
O15	O	1.582964	-0.441396	-0.741033
O16	O	1.582784	-0.740885	-0.441621
O17	O	1.453766	-0.740828	-0.570662
C18	C	1.245390	-0.505998	-0.506155
C19	C	1.128614	-0.506018	-0.506172
C20	C	0.964073	-0.438913	-0.573493
C21	C	1.073797	-0.438910	-0.573482
C22	C	1.073700	-0.573141	-0.438876
C23	C	0.963978	-0.573148	-0.438894
C24	C	0.964129	-0.361412	-0.651204
C25	C	1.073853	-0.361410	-0.651192
C26	C	1.518290	-0.778977	-0.506159
C27	C	1.518357	-0.895754	-0.506188
C28	C	1.451238	-0.950722	-0.438953
C29	C	1.451309	-1.060446	-0.438969
C30	C	1.585622	-1.060224	-0.573465
C31	C	1.585555	-0.950502	-0.573442
C32	C	1.384040	-0.895974	-0.371698
C33	C	1.316914	-0.950942	-0.304459
C34	C	1.316985	-1.060666	-0.304475
C35	C	1.384182	-1.115422	-0.371732
C36	C	1.792391	-0.506023	-0.506193
C37	C	1.909167	-0.506028	-0.506201
C38	C	1.518426	-0.505903	-0.780207
C39	C	1.518455	-0.505857	-0.896984
C40	C	1.518454	-0.231977	-0.506211
C41	C	1.518495	-0.115200	-0.506227
C42	C	1.451311	-0.438646	-0.951856
C43	C	1.451342	-0.438614	-1.061580
C44	C	1.585672	-0.573010	-1.061550
C45	C	1.585634	-0.573045	-0.951827
C46	C	1.384132	-0.371458	-0.897012
C47	C	1.316983	-0.304239	-0.951885
C48	C	1.317015	-0.304208	-1.061609
C49	C	1.384195	-0.371395	-1.116461
C50	C	1.518350	-0.506041	-0.233206
C51	C	1.518524	-0.505790	-0.116430
H52	H	1.118341	-0.627789	-0.384079
H53	H	1.384242	-1.204767	-0.371733
H54	H	1.640369	-0.627708	-1.106218
Cl55	Cl	1.670040	-0.657547	-0.882839
H56	H	1.383973	-0.806631	-0.371678
Cl57	Cl	0.894957	-0.657524	-0.354293
H58	H	0.934387	-0.383297	-0.732543
H59	H	1.262281	-0.249544	-0.907218
Cl60	Cl	1.232609	-1.129767	-0.219940
Cl61	Cl	0.911584	-0.242032	-0.606415
H62	H	1.107913	-0.390642	-0.728436
Cl63	Cl	1.669940	-0.881394	-0.657963
Cl64	Cl	1.119853	-0.235746	-0.617742
H65	H	1.262332	-0.249483	-1.106284
H66	H	1.262210	-0.906354	-0.249694
H67	H	1.640329	-1.104815	-0.628223
Cl68	Cl	1.384092	-0.371488	-0.759074
Cl69	Cl	1.384229	-0.371357	-1.254401
