data_functionalizedCrystal
_audit_creation_method	'MofGen! by Chris Wilmer'
_symmetry_space_group_name_H-M	'P1'
_symmetry_Int_Tables_number	1
_symmetry_cell_setting	triclinic
loop_
_symmetry_equiv_pos_as_xyz
  x,y,z
_cell_length_a	14.560438
_cell_length_b	14.560438
_cell_length_c	14.560438
_cell_angle_alpha	59.999429
_cell_angle_beta	90.000916
_cell_angle_gamma	60.000383
loop_
_atom_site_label
_atom_site_type_symbol
_atom_site_fract_x
_atom_site_fract_y
_atom_site_fract_z
Zr1	Zr	0.884776	1.005263	-0.120489
O2	O	0.738128	1.196870	-0.267141
O3	O	0.929730	0.813660	-0.075534
O4	O	0.929731	1.005265	-0.267137
O5	O	0.738127	1.005263	0.075602
O6	O	1.080872	1.005262	-0.267132
O7	O	0.738127	1.005265	-0.075539
O8	O	1.080870	0.662516	0.075611
O9	O	0.738129	1.348008	-0.267140
O10	O	1.061698	0.892466	-0.056356
O11	O	0.948904	0.892466	0.056435
O12	O	0.948905	1.118056	-0.169152
O13	O	0.836110	1.118056	-0.056361
Zr14	Zr	1.125828	1.005254	0.120571
Zr15	Zr	1.125828	1.005259	-0.120482
Zr16	Zr	0.884776	1.005259	0.120563
Zr17	Zr	0.884777	1.246312	-0.120488
Zr18	Zr	1.125827	0.764206	0.120569
O19	O	1.080874	1.196857	0.075615
O20	O	1.080873	1.196863	-0.267130
O21	O	0.738128	1.196864	0.075604
O22	O	1.272476	0.813648	0.267223
O23	O	1.272475	0.813654	-0.075522
O24	O	0.929730	0.813654	0.267212
O25	O	1.272477	1.005255	-0.075521
O26	O	1.080873	1.005253	0.267218
O27	O	0.929732	1.005256	0.267213
O28	O	1.272477	1.005252	0.075620
O29	O	0.929733	1.348005	-0.267134
O30	O	1.080870	0.662513	0.267215
O31	O	1.272475	0.662509	0.267222
O32	O	1.272474	0.662513	0.075617
O33	O	0.738129	1.348005	-0.075536
O34	O	0.929734	1.348001	-0.075530
O35	O	1.061699	0.892462	0.169234
O36	O	1.174493	0.892462	0.056443
O37	O	1.061700	1.118052	-0.056354
O38	O	0.948905	1.118052	0.056437
C39	C	1.005300	0.703744	0.000038
C40	C	1.005299	0.601413	0.000038
C41	C	1.064184	0.457176	-0.058831
C42	C	1.064179	0.553334	-0.058838
C43	C	0.946412	0.553338	0.058915
C44	C	0.946412	0.457188	0.058914
C45	C	1.132180	0.457170	-0.126811
C46	C	1.132174	0.553328	-0.126818
C47	C	0.703782	1.005265	0.000031
C48	C	0.601449	1.005266	0.000027
C49	C	0.553366	1.005270	-0.083235
C50	C	0.457220	1.005258	-0.083220
C51	C	0.457247	1.005244	0.083325
C52	C	0.553395	1.005247	0.083314
C53	C	0.553346	1.005284	-0.179392
C54	C	0.457201	1.005271	-0.179377
C55	C	1.306822	1.005253	0.000051
C56	C	1.409155	1.005251	0.000054
C57	C	1.005301	1.005264	-0.301479
C58	C	1.005301	1.005266	-0.403812
C59	C	1.005304	1.306774	0.000043
C60	C	1.005305	1.409105	0.000044
C61	C	1.088566	1.005266	-0.451885
C62	C	1.088569	1.005254	-0.548031
C63	C	0.922033	1.005248	-0.548025
C64	C	0.922036	1.005251	-0.451876
C65	C	1.005302	1.005254	0.301560
C66	C	1.005302	1.005252	0.403893
C67	C	1.306819	0.703738	0.000048
C68	C	1.409152	0.601405	0.000051
C69	C	1.005300	0.703739	0.301558
C70	C	1.005300	0.601406	0.403890
C71	C	1.306820	0.703733	0.301568
C72	C	1.409152	0.601398	0.403903
C73	C	0.703784	1.306785	-0.301487
C74	C	0.601451	1.409120	-0.403822
C75	C	0.703784	1.306779	0.000033
C76	C	0.601452	1.409112	0.000030
C77	C	1.005304	1.306779	-0.301477
C78	C	1.005304	1.409112	-0.403809
C79	C	1.398353	0.553328	-0.058825
C80	C	1.494509	0.457183	-0.058827
C81	C	1.612259	0.457196	0.058933
C82	C	1.516104	0.553346	0.058927
C83	C	1.064176	0.553325	0.510846
C84	C	1.064163	0.457181	0.606994
C85	C	0.946395	0.457203	0.489217
C86	C	0.946402	0.553352	0.393071
C87	C	1.516106	0.553319	0.393108
C88	C	1.612254	0.457172	0.489267
C89	C	1.494482	0.457190	0.607013
C90	C	1.398336	0.553341	0.510856
H91	H	1.219230	0.361390	-0.081948
C92	C	1.128955	0.606190	0.522751
N93	N	1.177745	0.646010	0.531723
H94	H	0.898463	0.592501	0.106843
H95	H	0.898445	0.418064	0.480422
C96	C	1.128938	0.404291	0.724645
N97	N	1.177731	0.364453	0.813263
H98	H	0.474017	0.911994	-0.162575
H99	H	0.385896	1.095676	-0.261492
C100	C	1.071584	0.682719	-0.244427
N101	N	1.025947	0.780177	-0.333008
C102	C	1.729913	0.404312	0.123703
N103	N	1.818530	0.364477	0.172494
H104	H	0.898452	0.592503	0.305977
C105	C	1.528009	0.606188	0.275463
N106	N	1.536979	0.646010	0.186852
C107	C	1.280707	0.606200	-0.123601
N108	N	1.192096	0.646025	-0.172396
H109	H	1.699339	0.418030	0.480470
C110	C	1.253795	0.502222	-0.075709
N111	N	1.345396	0.463730	-0.037212
H112	H	0.418112	1.005226	0.151135
H113	H	0.592553	1.005227	0.151121
C114	C	1.482596	0.404307	0.724666
N115	N	1.473641	0.364472	0.813283
H116	H	1.156367	1.005275	-0.412752
C117	C	0.530630	1.131291	-0.282709
N118	N	0.513520	1.226199	-0.360529
H119	H	0.898455	0.418064	0.106844
C120	C	1.081074	0.508280	-0.248433
N121	N	1.042575	0.546779	-0.340036
H122	H	0.624640	0.914877	-0.171101
H123	H	1.311243	0.592491	0.519654
C124	C	1.180175	1.005238	-0.600899
N125	N	1.249180	1.005219	-0.640716
H126	H	0.854239	1.005238	-0.587170
H127	H	0.854231	1.005247	-0.412730
H128	H	1.485706	0.418045	-0.106771
H129	H	1.524906	0.592494	0.106871
