data_functionalizedCrystal
_audit_creation_method	'MofGen! by Chris Wilmer'
_symmetry_space_group_name_H-M	'P1'
_symmetry_Int_Tables_number	1
_symmetry_cell_setting	triclinic
loop_
_symmetry_equiv_pos_as_xyz
  x,y,z
_cell_length_a	16.625548
_cell_length_b	18.101397
_cell_length_c	16.625539
_cell_angle_alpha	89.970010
_cell_angle_beta	89.982945
_cell_angle_gamma	90.021534
loop_
_atom_site_label
_atom_site_type_symbol
_atom_site_fract_x
_atom_site_fract_y
_atom_site_fract_z
Zn1	Zn	1.232664	-0.294821	-0.455889
Zn2	Zn	1.232580	-0.418666	-0.321048
Zn3	Zn	1.097834	-0.294845	-0.321070
Zn4	Zn	1.097801	-0.418627	-0.455838
O5	O	1.165220	-0.356740	-0.388461
O6	O	1.345485	-0.311255	-0.438015
O7	O	1.214684	-0.402267	-0.208219
O8	O	1.115768	-0.191209	-0.338985
O9	O	1.345423	-0.402243	-0.338948
O10	O	1.214827	-0.191191	-0.438036
O11	O	1.115687	-0.311296	-0.208235
O12	O	0.984997	-0.311259	-0.338935
O13	O	1.115712	-0.402178	-0.568677
O14	O	0.984973	-0.402201	-0.437949
O15	O	1.214795	-0.311218	-0.568715
O16	O	1.214652	-0.522294	-0.338898
O17	O	1.115630	-0.522265	-0.437928
C18	C	0.955729	-0.356729	-0.388439
C19	C	0.866108	-0.356742	-0.388448
C20	C	0.537932	-0.356747	-0.388483
C21	C	0.629240	-0.356744	-0.388471
C22	C	0.702017	-0.356745	-0.388465
C23	C	0.793331	-0.356741	-0.388454
C24	C	1.165151	-0.549150	-0.388422
C25	C	1.165195	-0.631464	-0.388433
C26	C	1.165298	-0.930555	-0.388506
C27	C	1.227426	-0.899217	-0.326033
C28	C	1.227641	-0.813598	-0.326194
C29	C	1.165247	-0.782173	-0.388469
C30	C	1.188278	-0.813180	-0.473459
C31	C	1.188759	-0.898825	-0.473119
C32	C	1.079973	-0.899065	-0.366725
C33	C	1.080394	-0.813416	-0.364828
C34	C	1.165216	-0.698313	-0.388453
C35	C	1.165330	-1.014415	-0.388528
C36	C	1.375528	-0.356751	-0.388485
C37	C	1.465149	-0.356756	-0.388494
C38	C	1.165259	-0.356691	-0.598770
C39	C	1.165276	-0.356670	-0.688392
C40	C	1.165311	-0.163578	-0.388518
C41	C	1.165350	-0.081264	-0.388543
C42	C	1.165289	-0.356654	-0.761174
C43	C	1.165308	-0.356626	-0.852483
C44	C	1.165327	-0.356600	-0.925259
C45	C	1.165347	-0.356573	-1.016574
C46	C	1.165227	-0.356735	-0.178971
C47	C	1.165366	-0.356547	-0.089350
H48	H	1.213233	-0.792637	-0.263176
F49	F	1.268886	-0.785070	-0.497984
H50	H	1.213191	-0.919860	-0.262825
F51	F	1.309588	-0.927273	-0.344652
F52	F	1.310252	-0.786742	-0.345035
H53	H	1.145489	-0.919553	-0.521271
H54	H	1.144410	-0.792822	-0.521259
F55	F	1.052585	-0.927377	-0.287125
H56	H	1.251127	-0.918743	-0.491569
H57	H	1.063028	-0.793157	-0.302282
F58	F	1.016633	-0.785466	-0.419947
F59	F	1.019468	-0.925557	-0.426198
