data_functionalizedCrystal
_audit_creation_method	'MofGen! by Chris Wilmer'
_symmetry_space_group_name_H-M	'P1'
_symmetry_Int_Tables_number	1
_symmetry_cell_setting	triclinic
loop_
_symmetry_equiv_pos_as_xyz
  x,y,z
_cell_length_a	13.031981
_cell_length_b	13.033652
_cell_length_c	12.759393
_cell_angle_alpha	97.151529
_cell_angle_beta	97.216555
_cell_angle_gamma	74.807250
loop_
_atom_site_label
_atom_site_type_symbol
_atom_site_fract_x
_atom_site_fract_y
_atom_site_fract_z
Zn1	Zn	-0.216385	-1.570132	0.366219
Zn2	Zn	-0.394080	-1.547463	0.170717
Zn3	Zn	-0.239025	-1.392504	0.210303
Zn4	Zn	-0.416577	-1.369953	0.366106
O5	O	-0.316517	-1.470013	0.278336
O6	O	-0.221066	-1.715752	0.323766
O7	O	-0.373572	-1.526858	0.028946
O8	O	-0.087350	-1.434992	0.247600
O9	O	-0.351618	-1.699097	0.180131
O10	O	-0.070716	-1.565495	0.362151
O11	O	-0.259654	-1.413010	0.058029
O12	O	-0.281468	-1.240886	0.247490
O13	O	-0.389961	-1.396557	0.513143
O14	O	-0.411915	-1.224317	0.361957
O15	O	-0.242880	-1.543628	0.513227
O16	O	-0.545736	-1.504991	0.180021
O17	O	-0.562265	-1.374575	0.323573
C18	C	-0.351591	-1.194064	0.309007
C19	C	-0.366621	-1.076009	0.322151
C20	C	-0.308683	-1.031558	0.271487
C21	C	-0.324216	-0.909542	0.285070
C22	C	-0.592546	-1.434904	0.247509
C23	C	-0.710620	-1.419982	0.234345
C24	C	-0.754953	-1.477857	0.285221
C25	C	-0.876989	-1.462436	0.271617
C26	C	-0.039406	-1.505287	0.309304
C27	C	0.078682	-1.520319	0.322500
C28	C	-0.316405	-1.470105	0.552372
C29	C	-0.316357	-1.470145	0.669150
C30	C	-0.281299	-0.747040	0.247540
C31	C	-0.266270	-0.865095	0.234400
C32	C	-0.316544	-1.469992	0.005368
C33	C	-0.316266	-1.470196	-0.111399
C34	C	-0.239761	-1.546731	0.724058
C35	C	-0.239712	-1.546755	0.833785
C36	C	-0.392867	-1.393602	0.833686
C37	C	-0.392909	-1.393574	0.723962
H38	H	-0.205167	-0.917367	0.180962
H39	H	-0.427726	-1.023732	0.375578
Br40	Br	-0.135762	-1.650705	0.908297
Br41	Br	-0.496757	-1.289693	0.908080
Br42	Br	-0.667643	-1.579461	0.374626
Br43	Br	-0.496861	-1.289619	0.649440
Br44	Br	-0.206844	-1.118678	0.182421
Br45	Br	-0.964298	-1.360804	0.182235
H46	H	-0.385326	-0.857269	0.338501
H47	H	-0.868931	-1.581286	0.376137
H48	H	-0.763012	-1.359011	0.180722
Br49	Br	-0.135867	-1.650646	0.649673
