data_functionalizedCrystal
_audit_creation_method	'MofGen! by Chris Wilmer'
_symmetry_space_group_name_H-M	'P1'
_symmetry_Int_Tables_number	1
_symmetry_cell_setting	triclinic
loop_
_symmetry_equiv_pos_as_xyz
  x,y,z
_cell_length_a	14.853566
_cell_length_b	14.519731
_cell_length_c	13.596369
_cell_angle_alpha	90.001373
_cell_angle_beta	90.003082
_cell_angle_gamma	83.661634
loop_
_atom_site_label
_atom_site_type_symbol
_atom_site_fract_x
_atom_site_fract_y
_atom_site_fract_z
O1	O	1.196424	0.120392	0.081729
O2	O	1.696424	0.620392	0.581729
O3	O	0.933971	0.134737	0.081745
O4	O	1.433971	0.634737	0.581745
O5	O	1.072146	-0.006675	0.081727
O6	O	1.572146	0.493325	0.581727
O7	O	1.058249	0.261805	0.081746
O8	O	1.558249	0.761805	0.581746
O9	O	1.072129	-0.006668	-0.081855
O10	O	1.572129	0.493332	0.418145
O11	O	0.933954	0.134745	-0.081838
O12	O	1.433954	0.634745	0.418162
O13	O	1.196407	0.120400	-0.081854
O14	O	1.696407	0.620400	0.418146
Zn15	Zn	1.065177	0.127574	-0.107818
Zn16	Zn	1.565177	0.627574	0.392182
Zn17	Zn	1.065200	0.127563	0.107709
Zn18	Zn	1.565200	0.627563	0.607709
O19	O	1.058232	0.261812	-0.081837
O20	O	1.558232	0.761812	0.418163
C21	C	0.900373	0.134091	-0.000044
C22	C	1.400373	0.634091	0.499956
C23	C	0.800289	0.132144	-0.000038
C24	C	1.300289	0.632144	0.499962
C25	C	0.377109	0.123904	0.089113
C26	C	0.877109	0.623904	0.589113
C27	C	0.377112	0.123913	-0.089231
C28	C	0.877112	0.623913	0.410769
C29	C	0.471147	0.125742	-0.089228
C30	C	0.971147	0.625742	0.410772
C31	C	0.518167	0.126653	-0.000053
C32	C	1.018167	0.626653	0.499947
C33	C	0.471152	0.125736	0.089119
C34	C	0.971152	0.625736	0.589119
C35	C	0.518167	0.126669	-0.178399
C36	C	1.018167	0.626669	0.321601
C37	C	0.612208	0.128498	-0.178399
C38	C	1.112208	0.628498	0.321601
C39	C	0.659231	0.129403	-0.089223
C40	C	1.159231	0.629403	0.410777
C41	C	0.612210	0.128484	-0.000047
C42	C	1.112210	0.628484	0.499953
C43	C	0.659231	0.129395	0.089128
C44	C	1.159231	0.629395	0.589128
C45	C	0.612213	0.128470	0.178305
C46	C	1.112213	0.628470	0.678305
C47	C	0.518175	0.126640	0.178295
C48	C	1.018175	0.626640	0.678295
C49	C	0.753268	0.131233	-0.089213
C50	C	1.253268	0.631233	0.410787
C51	C	0.753274	0.131227	0.089134
C52	C	1.253274	0.631227	0.589134
C53	C	1.071486	-0.041031	-0.000064
C54	C	1.571486	0.458969	0.499936
C55	C	1.069535	-0.143410	-0.000065
C56	C	1.569535	0.356590	0.499935
C57	C	1.067949	-0.226554	-0.000062
C58	C	1.567949	0.273446	0.499938
C59	C	1.065968	-0.330862	-0.000055
C60	C	1.565968	0.169138	0.499945
C61	C	1.064396	-0.414000	-0.000048
C62	C	1.564396	0.086000	0.499952
C63	C	1.062415	-0.518315	-0.000042
C64	C	1.562415	-0.018315	0.499958
C65	C	1.230004	0.121046	-0.000063
C66	C	1.730004	0.621046	0.499937
C67	C	1.330089	0.122993	-0.000062
C68	C	1.830089	0.622993	0.499938
C69	C	1.058891	0.296168	-0.000043
C70	C	1.558891	0.796168	0.499957
C71	C	1.060843	0.398547	-0.000036
C72	C	1.560843	0.898547	0.499964
N73	N	1.065169	0.127580	-0.254910
N74	N	1.565169	0.627580	0.245090
C75	C	1.065173	0.127582	-0.343908
C76	C	1.565173	0.627582	0.156092
C77	C	1.065182	0.127576	-0.455559
C78	C	1.565182	0.627576	0.044441
C79	C	1.065194	0.127565	-0.544550
C80	C	1.565194	0.627565	-0.044550
C81	C	1.065204	0.127560	-0.656208
C82	C	1.565204	0.627560	-0.156208
N83	N	1.065216	0.127550	0.254801
N84	N	1.565216	0.627550	0.754801
H85	H	0.791551	0.131965	0.161752
H86	H	1.291551	0.631965	0.661752
H87	H	0.479876	0.125933	-0.251000
H88	H	0.979876	0.625933	0.249000
N89	N	0.467456	0.125643	0.274465
N90	N	0.967456	0.625643	0.774465
H91	H	0.421230	0.182009	0.278438
H92	H	0.921230	0.682009	0.778438
H93	H	0.511567	0.126461	0.330908
H94	H	1.011567	0.626461	0.830908
H95	H	0.650482	0.129249	-0.251012
H96	H	1.150482	0.629249	0.248988
N97	N	0.662926	0.129454	0.274488
N98	N	1.162926	0.629454	0.774488
H99	H	0.694726	0.187339	0.278467
H100	H	1.194726	0.687339	0.778467
H101	H	0.709111	0.073055	0.278397
H102	H	1.209111	0.573055	0.778397
H103	H	0.791545	0.131995	-0.161820
H104	H	1.291545	0.631995	0.338180
N105	N	0.326407	0.122897	0.185293
N106	N	0.826407	0.622897	0.685293
H107	H	0.259699	0.121595	0.171764
H108	H	0.759699	0.621595	0.671764
H109	H	0.335629	0.180339	0.224242
H110	H	0.835629	0.680339	0.724242
H111	H	0.338822	0.123178	-0.161834
H112	H	0.838822	0.623178	0.338166
