data_functionalizedCrystal
_audit_creation_method	'MofGen! by Chris Wilmer'
_symmetry_space_group_name_H-M	'P1'
_symmetry_Int_Tables_number	1
_symmetry_cell_setting	triclinic
loop_
_symmetry_equiv_pos_as_xyz
  x,y,z
_cell_length_a	17.000371
_cell_length_b	15.500215
_cell_length_c	13.339070
_cell_angle_alpha	87.729797
_cell_angle_beta	84.385729
_cell_angle_gamma	93.371385
loop_
_atom_site_label
_atom_site_type_symbol
_atom_site_fract_x
_atom_site_fract_y
_atom_site_fract_z
O1	O	1.068143	0.071947	-0.039576
O2	O	1.568143	0.571947	0.460424
O3	O	0.844363	0.071948	-0.075584
O4	O	1.344363	0.571948	0.424416
O5	O	0.930570	0.071945	0.087399
O6	O	1.430570	0.571945	0.587399
O7	O	0.981936	0.071950	-0.202559
O8	O	1.481936	0.571950	0.297441
O9	O	0.922268	-0.071944	0.095054
O10	O	1.422268	0.428056	0.595054
O11	O	0.836060	-0.071942	-0.067929
O12	O	1.336060	0.428058	0.432071
O13	O	1.059841	-0.071942	-0.031921
O14	O	1.559841	0.428058	0.468079
Cu15	Cu	0.947193	-0.085080	-0.049226
Cu16	Cu	1.447193	0.414920	0.450774
Cu17	Cu	0.957011	0.085086	-0.058279
Cu18	Cu	1.457011	0.585086	0.441721
O19	O	0.973634	-0.071939	-0.194904
O20	O	1.473634	0.428061	0.305096
C21	C	0.810985	0.000003	-0.073691
C22	C	1.310985	0.500003	0.426309
C23	C	0.723896	0.000003	-0.079442
C24	C	1.223896	0.500003	0.420558
C25	C	0.672326	-0.000000	0.009061
C26	C	1.172326	0.500000	0.509061
C27	C	0.590498	0.000006	0.003651
C28	C	1.090498	0.500006	0.503651
C29	C	0.560242	0.000010	-0.090263
C30	C	1.060242	0.500010	0.409737
C31	C	0.611819	0.000015	-0.178772
C32	C	1.111819	0.500015	0.321228
C33	C	0.693646	0.000015	-0.173362
C34	C	1.193646	0.500015	0.326638
C35	C	0.313712	0.000016	-0.111163
C36	C	0.813712	0.500016	0.388837
C37	C	0.231879	0.000013	-0.116567
C38	C	0.731879	0.500013	0.383433
C39	C	0.210563	0.000006	0.065857
C40	C	0.710563	0.500006	0.565857
C41	C	0.292391	0.000001	0.071260
C42	C	0.792391	0.500001	0.571260
C43	C	0.343962	0.000011	-0.017250
C44	C	0.843962	0.500011	0.482750
C45	C	0.476601	0.000013	-0.095795
C46	C	0.976601	0.500013	0.404205
C47	C	0.427602	0.000013	-0.011717
C48	C	0.927602	0.500013	0.488283
N49	N	0.940292	-0.204766	-0.042857
N50	N	1.440292	0.295234	0.457143
C51	C	0.998321	-0.250038	-0.096449
C52	C	1.498321	0.249962	0.403551
C53	C	0.993111	-0.340611	-0.091625
C54	C	1.493111	0.159389	0.408375
C55	C	0.929869	-0.385910	-0.033215
C56	C	1.429869	0.114090	0.466785
C57	C	0.871838	-0.340632	0.020382
C58	C	1.371838	0.159368	0.520382
C59	C	0.877051	-0.250060	0.015564
C60	C	1.377051	0.249940	0.515564
C61	C	0.911098	-0.659379	-0.015860
C62	C	1.411098	-0.159379	0.484140
C63	C	0.905888	-0.749957	-0.011048
C64	C	1.405888	-0.249957	0.488952
C65	C	1.027162	-0.749929	-0.123054
C66	C	1.527162	-0.249929	0.376946
C67	C	1.032367	-0.659356	-0.127873
C68	C	1.532367	-0.159356	0.372127
C69	C	0.974338	-0.614085	-0.074271
C70	C	1.474338	-0.114085	0.425729
C71	C	0.924541	-0.478491	-0.028286
C72	C	1.424541	0.021509	0.471714
C73	C	0.979670	-0.521507	-0.079195
C74	C	1.479670	-0.021507	0.420805
C75	C	1.093219	0.000005	-0.033814
C76	C	1.593219	0.500005	0.466186
C77	C	1.180308	0.000010	-0.028064
C78	C	1.680308	0.500010	0.471936
C79	C	0.917742	0.000001	0.128144
C80	C	1.417742	0.500001	0.628144
C81	C	0.891880	0.000005	0.238145
C82	C	1.391880	0.500005	0.738145
N83	N	0.963916	0.204771	-0.064639
N84	N	1.463916	0.704771	0.435361
C85	C	0.986462	0.000006	-0.235649
C86	C	1.486462	0.500006	0.264351
C87	C	1.012325	0.000008	-0.345650
C88	C	1.512325	0.500008	0.154350
C89	C	1.092977	0.000004	0.620826
C90	C	1.592977	0.500004	1.120826
C91	C	1.117278	-0.000004	0.517476
C92	C	1.617278	0.499996	1.017476
C93	C	1.060931	-0.000001	0.447638
C94	C	1.560931	0.499999	0.947638
C95	C	0.980277	0.000009	0.481161
C96	C	1.480277	0.500009	0.981161
C97	C	0.955973	0.000010	0.584522
C98	C	1.455973	0.500010	1.084522
C99	C	0.923927	0.000005	0.411334
C100	C	1.423927	0.500005	0.911334
C101	C	0.843274	0.000015	0.444857
C102	C	1.343274	0.500015	0.944857
C103	C	0.818973	0.000017	0.548208
C104	C	1.318973	0.500017	1.048208
C105	C	0.875321	0.000014	0.618045
C106	C	1.375321	0.500014	1.118045
C107	C	0.948231	0.000003	0.307973
C108	C	1.448231	0.500003	0.807973
C109	C	0.811227	0.000009	0.271669
C110	C	1.311227	0.500009	0.771669
C111	C	0.786926	0.000017	0.375019
C112	C	1.286926	0.500017	0.875019
H113	H	0.735635	0.000014	-0.245430
H114	H	1.235635	0.500014	0.254570
H115	H	0.696953	-0.000006	0.085536
H116	H	1.196953	0.499994	0.585536
Br117	Br	0.677471	0.000036	0.420527
Br118	Br	1.177471	0.500036	0.920527
H119	H	0.452240	0.000016	0.064747
H120	H	0.952240	0.500016	0.564747
Br121	Br	1.118170	-0.597884	-0.207200
Br122	Br	1.618170	-0.097884	0.292800
Br123	Br	1.169438	-0.000020	0.715607
Br124	Br	1.669438	0.499980	1.215607
H125	H	0.765344	0.000007	0.214806
H126	H	1.265344	0.500007	0.714806
H127	H	0.207248	0.000012	-0.193046
H128	H	0.707248	0.500012	0.306954
H129	H	1.080722	-0.000008	0.363486
H130	H	1.580722	0.499992	0.863486
Br131	Br	0.842349	0.000142	0.758308
Br132	Br	1.342349	0.500142	1.258308
Br133	Br	1.105912	-0.811372	-0.195796
Br134	Br	1.605912	-0.311372	0.304204
H135	H	1.040365	-0.377467	-0.135263
H136	H	1.540365	0.122533	0.364737
Br137	Br	0.709514	0.000014	0.593703
Br138	Br	1.209514	0.500014	1.093703
H139	H	0.317019	-0.000006	0.147735
H140	H	0.817019	0.499994	0.647735
Br141	Br	0.520513	0.000033	0.123766
Br142	Br	1.020513	0.500033	0.623766
H143	H	0.168566	0.000007	0.137917
H144	H	0.668566	0.500007	0.637917
Br145	Br	0.786011	-0.402109	0.099659
Br146	Br	1.286011	0.097891	0.599659
H147	H	1.182946	-0.000013	0.490189
H148	H	1.682946	0.499987	0.990189
Br149	Br	0.383690	0.000031	-0.231284
Br150	Br	0.883690	0.500031	0.268716
Br151	Br	1.057685	-0.000013	0.262490
Br152	Br	1.557685	0.499987	0.762490
Br153	Br	1.084151	-0.188568	-0.175727
Br154	Br	1.584151	0.311432	0.324273
Br155	Br	0.570760	0.000032	-0.306229
Br156	Br	1.070760	0.500032	0.193771
H157	H	0.829798	-0.213201	0.059204
H158	H	1.329798	0.286799	0.559204
H159	H	1.031163	-0.484620	-0.126748
H160	H	1.531163	0.015380	0.373252
Br161	Br	0.832320	-0.597952	0.056842
Br162	Br	1.332320	-0.097952	0.556842
Br163	Br	0.820053	-0.811435	0.068227
Br164	Br	1.320053	-0.311435	0.568227
H165	H	0.873049	-0.515384	0.019271
H166	H	1.373049	-0.015384	0.519271
H167	H	0.451957	0.000015	-0.172259
H168	H	0.951957	0.500015	0.327741
