data_functionalizedCrystal
_audit_creation_method	'MofGen! by Chris Wilmer'
_symmetry_space_group_name_H-M	'P1'
_symmetry_Int_Tables_number	1
_symmetry_cell_setting	triclinic
loop_
_symmetry_equiv_pos_as_xyz
  x,y,z
_cell_length_a	10.654562
_cell_length_b	9.730223
_cell_length_c	17.699092
_cell_angle_alpha	89.999639
_cell_angle_beta	83.888236
_cell_angle_gamma	90.003039
loop_
_atom_site_label
_atom_site_type_symbol
_atom_site_fract_x
_atom_site_fract_y
_atom_site_fract_z
O1	O	1.665968	0.114375	0.106345
O2	O	1.300315	0.114357	0.116462
O3	O	1.493467	0.114363	0.001281
O4	O	1.472817	0.114368	0.221526
O5	O	1.493465	-0.114217	0.001284
O6	O	1.300313	-0.114223	0.116465
O7	O	1.665966	-0.114205	0.106348
Zn8	Zn	1.483139	-0.150506	0.111407
Zn9	Zn	1.483142	0.150658	0.111403
O10	O	1.472814	-0.114212	0.221529
C11	C	1.253530	0.000065	0.115719
C12	C	1.114126	0.000058	0.113490
C13	C	1.048612	-0.124530	0.112452
C14	C	0.917626	-0.124507	0.110364
C15	C	0.917679	0.124703	0.110355
C16	C	1.048664	0.124679	0.112438
C17	C	1.114075	-0.249151	0.113505
C18	C	1.048560	-0.373749	0.112467
C19	C	0.917575	-0.373726	0.110379
C20	C	0.852103	-0.249105	0.109328
N21	N	1.483146	-0.356043	0.111409
C22	C	1.568696	-0.427966	0.060424
C23	C	1.568692	-0.571849	0.060415
C24	C	1.397587	-0.571872	0.162382
C25	C	1.397585	-0.427992	0.162387
C26	C	1.654257	-0.356016	0.009446
C27	C	1.739814	-0.427940	-0.041543
C28	C	1.739811	-0.571823	-0.041552
C29	C	1.654251	-0.643782	0.009427
C30	C	1.712752	0.000090	0.107091
C31	C	1.852156	0.000105	0.109320
C32	C	1.492724	0.000075	-0.026920
C33	C	1.490499	0.000081	-0.110951
N34	N	1.483145	0.356194	0.111395
C35	C	1.489458	0.124682	-0.150427
C36	C	1.487359	0.124683	-0.229384
C37	C	1.486311	0.000083	-0.268863
C38	C	1.487348	-0.124527	-0.229382
C39	C	1.489438	-0.124527	-0.150426
C40	C	1.478919	-0.124529	-0.547801
C41	C	1.476833	-0.124520	-0.626762
C42	C	1.476840	0.124681	-0.626758
C43	C	1.478930	0.124681	-0.547802
C44	C	1.479960	0.000072	-0.508327
C45	C	1.482234	0.000072	-0.422714
C46	C	1.484046	0.000082	-0.354476
C47	C	1.473557	0.000079	0.249729
C48	C	1.475782	0.000082	0.333761
H49	H	1.102005	0.226130	0.113287
H50	H	1.479783	-0.225994	-0.515672
O51	O	1.112341	-0.494676	0.113521
C52	C	1.242004	-0.467986	0.115568
H53	H	1.254649	-0.360902	0.139770
H54	H	1.283690	-0.547572	0.153042
H55	H	1.292520	-0.473901	0.055549
O56	O	1.654444	-0.783551	0.009336
C57	C	1.748269	-0.831608	-0.046615
H58	H	1.823121	-0.748693	-0.059388
H59	H	1.793946	-0.927875	-0.025045
H60	H	1.703613	-0.857116	-0.100656
O61	O	1.486225	0.245820	-0.267626
C62	C	1.378030	0.321650	-0.240352
H63	H	1.343267	0.286207	-0.180366
H64	H	1.402605	0.435626	-0.239432
H65	H	1.300732	0.304437	-0.279201
H66	H	1.220729	-0.249183	0.115207
O67	O	1.314435	-0.641923	0.211800
C68	C	1.237075	-0.725127	0.170826
H69	H	1.287273	-0.746666	0.111882
H70	H	1.217119	-0.826311	0.202300
H71	H	1.144281	-0.669687	0.165164
H72	H	1.490268	-0.225990	-0.118285
O73	O	1.476028	0.245773	-0.665079
C74	C	1.585234	0.321610	-0.653770
H75	H	1.661813	0.248714	-0.637671
H76	H	1.620329	0.378159	-0.708374
H77	H	1.561869	0.399281	-0.606120
O78	O	1.490291	0.245640	-0.111989
C79	C	1.382755	0.253094	-0.058341
H80	H	1.346842	0.144902	-0.043840
H81	H	1.408654	0.305854	-0.004620
H82	H	1.305815	0.314551	-0.083181
H83	H	0.864238	-0.475180	0.109529
O84	O	1.314613	-0.358176	0.212020
C85	C	1.334767	-0.393360	0.287058
H86	H	1.435301	-0.432912	0.287997
H87	H	1.320208	-0.298739	0.324960
H88	H	1.265092	-0.476877	0.308896
H89	H	1.479789	0.226144	-0.515662
O90	O	1.476015	-0.245525	-0.665166
C91	C	1.583503	-0.252977	-0.718850
H92	H	1.660138	-0.182292	-0.700643
H93	H	1.619946	-0.363189	-0.722439
H94	H	1.557344	-0.219477	-0.776878
O95	O	0.853995	0.245715	0.109476
C96	C	0.763808	0.253165	0.173695
H97	H	0.793207	0.182451	0.220055
H98	H	0.757506	0.363370	0.195634
H99	H	0.667787	0.219702	0.157325
O100	O	1.654392	-0.216250	0.009330
C101	C	1.748275	-0.168164	-0.046582
H102	H	1.770323	-0.251067	-0.091550
H103	H	1.712992	-0.071900	-0.074352
H104	H	1.837422	-0.142640	-0.019057
H105	H	0.745446	-0.249096	0.107626
H106	H	1.486487	-0.225979	-0.261532
O107	O	1.822968	-0.358258	-0.091136
C108	C	1.898493	-0.452598	-0.136128
H109	H	1.847009	-0.555162	-0.137279
H110	H	1.917843	-0.411014	-0.196461
H111	H	1.991699	-0.467905	-0.111026
H112	H	1.809467	-0.630381	-0.083074
