data_functionalizedCrystal
_audit_creation_method	'MofGen! by Chris Wilmer'
_symmetry_space_group_name_H-M	'P1'
_symmetry_Int_Tables_number	1
_symmetry_cell_setting	triclinic
loop_
_symmetry_equiv_pos_as_xyz
  x,y,z
_cell_length_a	34.571875
_cell_length_b	34.571051
_cell_length_c	34.567439
_cell_angle_alpha	60.004367
_cell_angle_beta	60.008842
_cell_angle_gamma	59.994195
loop_
_atom_site_label
_atom_site_type_symbol
_atom_site_fract_x
_atom_site_fract_y
_atom_site_fract_z
O1	O	0.053721	-0.565181	0.472559
O2	O	0.553721	-0.065181	0.972559
O3	O	0.020283	-0.440038	0.380761
O4	O	0.520283	0.059962	0.880761
O5	O	0.099534	-0.519209	0.380676
O6	O	0.599534	-0.019209	0.880676
O7	O	-0.025530	-0.486010	0.472643
O8	O	0.474470	0.013990	0.972643
O9	O	0.125831	-0.492917	0.406885
O10	O	0.625831	0.007083	0.906885
O11	O	0.046580	-0.413746	0.406969
O12	O	0.546580	0.086254	0.906969
O13	O	0.080018	-0.538889	0.498767
O14	O	0.580018	-0.038889	0.998767
Zn15	Zn	0.067475	-0.472143	0.457030
Zn16	Zn	0.567475	0.027857	0.957030
Zn17	Zn	0.032827	-0.506784	0.422498
Zn18	Zn	0.532827	-0.006784	0.922498
O19	O	0.000767	-0.459718	0.498852
O20	O	0.500767	0.040282	0.998852
N21	N	0.091122	-0.448505	0.480598
N22	N	0.591122	0.051495	0.980598
N23	N	0.009184	-0.530426	0.398930
N24	N	0.509184	-0.030426	0.898930
C25	C	0.124402	-0.415465	0.717633
C26	C	0.624402	0.084535	1.217633
C27	C	0.328327	-0.415388	0.513477
C28	C	0.828327	0.084612	1.013477
C29	C	0.124221	-0.415437	0.513630
C30	C	0.624221	0.084563	1.013630
C31	C	0.124201	-0.211364	0.513624
C32	C	0.624201	0.288636	1.013624
C33	C	0.157075	-0.309853	0.546423
C34	C	0.657075	0.190147	1.046423
C35	C	0.157084	-0.382601	0.546423
C36	C	0.657084	0.117399	1.046423
C37	C	0.175289	-0.364414	0.564591
C38	C	0.675289	0.135586	1.064591
C39	C	0.254624	-0.350722	0.522790
C40	C	0.754624	0.149278	1.022790
C41	C	0.304220	-0.367243	0.506229
C42	C	0.804220	0.132757	1.006229
C43	C	0.304249	-0.447494	0.536832
C44	C	0.804249	0.052506	1.036832
C45	C	0.254655	-0.430972	0.553394
C46	C	0.754655	0.069028	1.053394
C47	C	0.169014	-0.285043	0.497667
C48	C	0.669014	0.214957	0.997667
C49	C	0.152454	-0.235444	0.481153
C50	C	0.652454	0.264556	0.981153
C51	C	0.112020	-0.235469	0.562154
C52	C	0.612020	0.264531	1.062154
C53	C	0.128580	-0.285068	0.578668
C54	C	0.628580	0.214932	1.078668
C55	C	0.108321	-0.370634	0.558439
C56	C	0.608321	0.129366	1.058439
C57	C	0.091776	-0.387168	0.541918
C58	C	0.591776	0.112832	1.041918
C59	C	0.172754	-0.427637	0.501375
C60	C	0.672754	0.072363	1.001375
C61	C	0.189301	-0.411103	0.517891
C62	C	0.689301	0.088897	1.017891
C63	C	0.108399	-0.370649	0.643978
C64	C	0.608399	0.129351	1.143978
C65	C	0.091911	-0.387197	0.693575
C66	C	0.591911	0.112803	1.193575
C67	C	0.172928	-0.427676	0.693511
C68	C	0.672928	0.072324	1.193511
C69	C	0.189415	-0.411128	0.643912
C70	C	0.689415	0.088872	1.143912
C71	C	0.157149	-0.382613	0.619147
C72	C	0.657149	0.117387	1.119147
C73	C	0.229844	-0.382585	0.546371
C74	C	0.729844	0.117415	1.046371
C75	C	0.105624	-0.433333	0.772186
C76	C	0.605624	0.066667	1.272186
C77	C	0.382878	-0.432925	0.495007
C78	C	0.882878	0.067075	0.995007
C79	C	0.105380	-0.433313	0.495792
C80	C	0.605380	0.066687	0.995792
C81	C	0.105683	-0.156808	0.496094
C82	C	0.605683	0.343192	0.996094
C83	C	-0.023527	-0.563458	0.161535
C84	C	0.476473	-0.063458	0.661535
C85	C	-0.023851	-0.767445	0.365663
C86	C	0.476149	-0.267445	0.865663
C87	C	-0.023821	-0.563448	0.365756
C88	C	0.476179	-0.063448	0.865756
C89	C	-0.227785	-0.563229	0.365355
C90	C	0.272215	-0.063229	0.865355
C91	C	-0.129302	-0.596153	0.332678
C92	C	0.370698	-0.096153	0.832678
C93	C	-0.056593	-0.596234	0.332823
C94	C	0.443407	-0.096234	0.832823
C95	C	-0.074746	-0.614396	0.314578
C96	C	0.425254	-0.114396	0.814578
C97	C	-0.088477	-0.693710	0.356299
C98	C	0.411523	-0.193710	0.856299
C99	C	-0.071982	-0.743310	0.372851
C100	C	0.428018	-0.243310	0.872851
C101	C	0.008266	-0.743392	0.342376
C102	C	0.508266	-0.243392	0.842376
C103	C	-0.008230	-0.693794	0.325823
C104	C	0.491770	-0.193794	0.825823
C105	C	-0.154162	-0.608103	0.381422
C106	C	0.345838	-0.108103	0.881422
C107	C	-0.203757	-0.591517	0.397874
C108	C	0.296243	-0.091517	0.897874
C109	C	-0.203630	-0.551037	0.316836
C110	C	0.296370	-0.051037	0.816836
C111	C	-0.154034	-0.567623	0.300384
C112	C	0.345966	-0.067623	0.800384
C113	C	-0.068543	-0.547475	0.320829
C114	C	0.431457	-0.047475	0.820829
C115	C	-0.052041	-0.530969	0.337421
C116	C	0.447959	-0.030969	0.837421
C117	C	-0.011639	-0.611977	0.377990
C118	C	0.488361	-0.111977	0.877990
C119	C	-0.028141	-0.628485	0.361404
C120	C	0.471859	-0.128485	0.861404
C121	C	-0.068417	-0.547482	0.235199
C122	C	0.431583	-0.047482	0.735199
C123	C	-0.051814	-0.530977	0.185602
C124	C	0.448186	-0.030977	0.685602
C125	C	-0.011349	-0.611990	0.185649
C126	C	0.488651	-0.111990	0.685649
C127	C	-0.027951	-0.628493	0.235248
C128	C	0.472049	-0.128493	0.735248
C129	C	-0.056486	-0.596238	0.260022
C130	C	0.443514	-0.096238	0.760022
C131	C	-0.056602	-0.668955	0.332787
C132	C	0.443398	-0.168955	0.832787
C133	C	-0.005599	-0.544662	0.106983
C134	C	0.494401	-0.044662	0.606983
C135	C	-0.006342	-0.821999	0.384121
C136	C	0.493658	-0.321999	0.884121
C137	C	-0.005979	-0.544649	0.383673
C138	C	0.494021	-0.044649	0.883673
C139	C	-0.282336	-0.544682	0.382817
C140	C	0.217664	-0.044682	0.882817
N141	N	0.427518	-0.448428	0.480350
N142	N	0.927518	0.051572	0.980350
O143	O	0.589573	-0.456297	0.363634
O144	O	1.089573	0.043703	0.863634
O145	O	0.589761	-0.548399	0.488643
O146	O	1.089761	-0.048399	0.988643
O147	O	0.589681	-0.548188	0.409364
O148	O	1.089681	-0.048188	0.909364
O149	O	0.589654	-0.456508	0.442913
O150	O	1.089654	0.043492	0.942913
O151	O	0.510890	-0.521988	0.435708
O152	O	1.010890	-0.021988	0.935708
O153	O	0.510970	-0.522199	0.514987
O154	O	1.010970	-0.022199	1.014987
O155	O	0.510782	-0.430098	0.389978
O156	O	1.010782	0.069902	0.889978
Zn157	Zn	0.498366	-0.471989	0.456665
Zn158	Zn	0.998366	0.028011	0.956665
Zn159	Zn	0.602177	-0.506508	0.421956
Zn160	Zn	1.102177	-0.006508	0.921956
O161	O	0.510862	-0.430308	0.469257
O162	O	1.010862	0.069692	0.969257
N163	N	0.673025	-0.530068	0.398267
N164	N	1.173025	-0.030068	0.898267
N165	N	0.091092	-0.112167	0.480590
N166	N	0.591092	0.387833	0.980590
O167	O	-0.025539	0.049976	0.472612
O168	O	0.474461	0.549976	0.972612
O169	O	0.099472	0.050011	0.380491
O170	O	0.599472	0.550011	0.880491
O171	O	0.020155	0.049979	0.380751
O172	O	0.520155	0.549979	0.880751
O173	O	0.053778	0.050009	0.472352
O174	O	0.553778	0.550009	0.972352
O175	O	0.046458	-0.028818	0.407008
O176	O	0.546458	0.471182	0.907008
O177	O	0.125775	-0.028785	0.406748
O178	O	0.625775	0.471215	0.906748
O179	O	0.000764	-0.028821	0.498869
O180	O	0.500764	0.471179	0.998869
Zn181	Zn	0.067445	-0.041314	0.456977
Zn182	Zn	0.567445	0.458686	0.956977
Zn183	Zn	0.032791	0.062504	0.422382
Zn184	Zn	0.532791	0.562504	0.922382
O185	O	0.080081	-0.028788	0.498609
O186	O	0.580081	0.471212	0.998609
N187	N	0.009138	0.133358	0.398771
N188	N	0.509138	0.633358	0.898771
N189	N	0.091421	-0.448552	0.816827
N190	N	0.591421	0.051448	1.316827
O191	O	0.083469	-0.565164	0.978960
O192	O	0.583469	-0.065164	1.478960
O193	O	-0.008614	-0.440110	0.979002
O194	O	0.491386	0.059890	1.479002
O195	O	-0.008399	-0.519410	0.978978
O196	O	0.491601	-0.019410	1.478978
O197	O	0.083253	-0.485863	0.978984
O198	O	0.583253	0.014137	1.478984
O199	O	0.017837	-0.493128	0.900185
O200	O	0.517837	0.006872	1.400185
O201	O	0.017621	-0.413827	0.900208
O202	O	0.517621	0.086173	1.400208
O203	O	0.109704	-0.538881	0.900167
O204	O	0.609704	-0.038881	1.400167
Zn205	Zn	0.067828	-0.472181	0.887677
Zn206	Zn	0.567828	0.027819	1.387677
Zn207	Zn	0.033262	-0.506810	0.991491
Zn208	Zn	0.533262	-0.006810	1.491491
O209	O	0.109489	-0.459581	0.900191
O210	O	0.609489	0.040419	1.400191
N211	N	0.009668	-0.530444	1.062341
N212	N	0.509668	-0.030444	1.562341
C213	C	0.030297	-0.411123	0.381218
C214	C	0.530297	0.088877	0.881218
C215	C	0.128439	-0.509167	0.381113
C216	C	0.628439	-0.009167	0.881113
C217	C	0.070004	-0.567805	0.498310
C218	C	0.570004	-0.067805	0.998310
C219	C	-0.028138	-0.469761	0.498415
C220	C	0.471862	0.030239	0.998415
C221	C	0.550388	-0.547982	0.517564
C222	C	1.050388	-0.047982	1.017564
C223	C	0.550290	-0.547721	0.419387
C224	C	1.050290	-0.047721	0.919387
C225	C	0.550153	-0.430514	0.361058
C226	C	1.050153	0.069486	0.861058
C227	C	0.550253	-0.430775	0.459234
C228	C	1.050253	0.069225	0.959234
C229	C	0.128339	0.010714	0.380902
C230	C	0.628339	0.510714	0.880902
C231	C	0.030148	0.010577	0.381256
C232	C	0.530148	0.510577	0.881256
C233	C	-0.028136	0.010574	0.498426
C234	C	0.471864	0.510574	0.998426
C235	C	0.070089	0.010613	0.498104
C236	C	0.570089	0.510613	0.998104
C237	C	-0.008178	-0.411214	0.939610
C238	C	0.491822	0.088786	1.439610
C239	C	-0.007906	-0.509413	0.939566
C240	C	0.492094	-0.009413	1.439566
C241	C	0.109268	-0.567777	0.939558
C242	C	0.609268	-0.067777	1.439558
C243	C	0.109002	-0.469572	0.939586
C244	C	0.609002	0.030428	1.439586
H245	H	0.052212	-0.377448	0.713786
H246	H	0.552212	0.122552	1.213786
H247	H	0.022945	0.010574	0.352477
H248	H	0.522945	0.510574	0.852477
O249	O	0.021861	-0.368258	0.346773
O250	O	0.521861	0.131742	0.846773
C251	C	0.052905	-0.319549	0.266905
C252	C	0.552905	0.180451	0.766905
C253	C	0.062525	-0.368110	0.305875
C254	C	0.562525	0.131890	0.805875
H255	H	0.085772	-0.319417	0.233826
H256	H	0.585772	0.180583	0.733826
H257	H	0.043928	-0.290632	0.279952
H258	H	0.543928	0.209368	0.779952
H259	H	0.021875	-0.312657	0.258077
H260	H	0.521875	0.187343	0.758077
H261	H	0.093561	-0.375048	0.314720
H262	H	0.593561	0.124952	0.814720
H263	H	0.071474	-0.397001	0.292807
H264	H	0.571474	0.102999	0.792807
H265	H	0.164358	-0.516243	0.352233
H266	H	0.664358	-0.016243	0.852233
H267	H	0.077150	-0.603753	0.527142
H268	H	0.577150	-0.103753	1.027142
H269	H	-0.064060	-0.462687	0.527292
H270	H	0.435940	0.037313	1.027292
O271	O	0.550327	-0.396429	0.467744
O272	O	1.050327	0.103571	0.967744
C273	C	0.591086	-0.344681	0.444909
C274	C	1.091086	0.155319	0.944909
C275	C	0.591066	-0.383584	0.435228
C276	C	1.091066	0.116416	0.935228
H277	H	0.624015	-0.334277	0.418620
H278	H	1.124015	0.165723	0.918620
H279	H	0.591166	-0.358563	0.482530
H280	H	1.091166	0.141437	0.982530
H281	H	0.558069	-0.312376	0.440727
H282	H	1.058069	0.187624	0.940727
H283	H	0.624078	-0.415901	0.439385
H284	H	1.124078	0.084099	0.939385
H285	H	0.590962	-0.369663	0.397612
H286	H	1.090962	0.130337	0.897612
O287	O	-0.042184	-0.518030	0.939502
O288	O	0.457816	-0.018030	1.439502
C289	C	-0.063839	-0.574305	0.939456
C290	C	0.436161	-0.074305	1.439456
C291	C	-0.024973	-0.564606	0.939516
C292	C	0.475027	-0.064606	1.439516
H293	H	-0.049941	-0.611965	0.939477
H294	H	0.450059	-0.111965	1.439477
H295	H	-0.074180	-0.548093	0.906467
H296	H	0.425820	-0.048093	1.406467
H297	H	-0.096185	-0.570045	0.972417
H298	H	0.403815	-0.070045	1.472417
H299	H	0.007398	-0.568873	0.906578
H300	H	0.507398	-0.068873	1.406578
H301	H	-0.014672	-0.590817	0.972527
H302	H	0.485328	-0.090817	1.472527
O303	O	0.550470	-0.582433	0.560414
O304	O	1.050470	-0.082433	1.060414
C305	C	0.550527	-0.604452	0.638450
C306	C	1.050527	-0.104452	1.138450
C307	C	0.550445	-0.565398	0.589940
C308	C	1.050445	-0.065398	1.089940
H309	H	0.550496	-0.590691	0.662338
H310	H	1.050496	-0.090691	1.162338
H311	H	0.583528	-0.636749	0.633471
H312	H	1.083528	-0.136749	1.133471
H313	H	0.517580	-0.614821	0.655464
H314	H	1.017580	-0.114821	1.155464
H315	H	0.583369	-0.554989	0.572900
H316	H	1.083369	-0.054989	1.072900
H317	H	0.517422	-0.533127	0.594950
H318	H	1.017422	-0.033127	1.094950
H319	H	0.550303	-0.576522	0.412207
H320	H	1.050303	-0.076522	0.912207
O321	O	0.143701	-0.610655	0.939562
O322	O	0.643701	-0.110655	1.439562
C323	C	0.165742	-0.688691	0.939502
C324	C	0.665742	-0.188691	1.439502
C325	C	0.126702	-0.640158	0.939510
C326	C	0.626702	-0.140158	1.439510
H327	H	0.152016	-0.712554	0.939450
H328	H	0.652016	-0.212554	1.439450
H329	H	0.176085	-0.705744	0.972481
H330	H	0.676085	-0.205744	1.472481
H331	H	0.198045	-0.683690	0.906531
H332	H	0.698045	-0.183690	1.406531
H333	H	0.094373	-0.645117	0.972459
H334	H	0.594373	-0.145117	1.472459
H335	H	0.116399	-0.623121	0.906509
H336	H	0.616399	-0.123121	1.406509
H337	H	0.199204	-0.450885	0.713670
H338	H	0.699204	0.049115	1.213670
O339	O	-0.071000	0.010592	0.532867
O340	O	0.429000	0.510592	1.032867
C341	C	-0.149043	0.010553	0.554936
C342	C	0.350957	0.510553	1.054936
C343	C	-0.100524	0.010539	0.515888
C344	C	0.399476	0.510539	1.015888
H345	H	-0.172923	0.010501	0.541227
H346	H	0.327077	0.510501	1.041227
H347	H	-0.166082	0.043543	0.565255
H348	H	0.333918	0.543543	1.065255
H349	H	-0.144032	-0.022410	0.587251
H350	H	0.355968	0.477590	1.087251
H351	H	-0.105494	0.043480	0.483548
H352	H	0.394506	0.543480	0.983548
H353	H	-0.083502	-0.022472	0.505609
H354	H	0.416498	0.477528	1.005609
H355	H	0.550093	-0.401597	0.325157
H356	H	1.050093	0.098403	0.825157
H357	H	0.137795	-0.462392	0.939581
H358	H	0.637795	0.037608	1.439581
O359	O	0.171098	0.011011	0.346356
O360	O	0.671098	0.511011	0.846356
C361	C	0.249024	0.011399	0.324171
C362	C	0.749024	0.511399	0.824171
C363	C	0.200618	0.011074	0.363331
C364	C	0.700618	0.511074	0.863331
H365	H	0.272907	0.011440	0.337884
H366	H	0.772907	0.511440	0.837884
H367	H	0.243862	0.044456	0.291967
H368	H	0.743862	0.544456	0.791967
H369	H	0.266148	-0.021496	0.313679
H370	H	0.766148	0.478504	0.813679
H371	H	0.183467	0.043947	0.373863
H372	H	0.683467	0.543947	0.873863
H373	H	0.205810	-0.022004	0.395510
H374	H	0.705810	0.477996	0.895510
O375	O	0.078764	0.010592	0.532396
O376	O	0.578764	0.510592	1.032396
C377	C	0.135074	0.010629	0.554018
C378	C	0.635074	0.510629	1.054018
C379	C	0.125315	0.010646	0.515143
C380	C	0.625315	0.510646	1.015143
H381	H	0.172706	0.010683	0.540080
H382	H	0.672706	0.510683	1.040080
H383	H	0.130895	-0.022361	0.586352
H384	H	0.630895	0.477639	1.086352
H385	H	0.108827	0.043591	0.564394
H386	H	0.608827	0.543591	1.064394
H387	H	0.151553	-0.022294	0.504727
H388	H	0.651553	0.477706	1.004727
H389	H	0.129477	0.043658	0.482834
H390	H	0.629477	0.543658	0.982834
O391	O	-0.042610	-0.368328	0.939561
O392	O	0.457390	0.131672	1.439561
C393	C	-0.065520	-0.284044	0.898748
C394	C	0.434480	0.215956	1.398748
C395	C	-0.026481	-0.332580	0.898750
C396	C	0.473519	0.167420	1.398750
H397	H	-0.052497	-0.255129	0.865751
H398	H	0.447503	0.244871	1.365751
H399	H	-0.074454	-0.277072	0.931705
H400	H	0.425546	0.222928	1.431705
H401	H	-0.098527	-0.284005	0.898773
H402	H	0.401473	0.215995	1.398773
H403	H	0.006551	-0.332654	0.898709
H404	H	0.506551	0.167346	1.398709
H405	H	-0.017588	-0.339532	0.865796
H406	H	0.482412	0.160468	1.365796
O407	O	0.076990	-0.342971	0.619994
O408	O	0.576990	0.157029	1.119994
C409	C	-0.005108	-0.304543	0.625293
C410	C	0.494892	0.195457	1.125293
C411	C	0.030407	-0.335898	0.652513
C412	C	0.530407	0.164102	1.152513
H413	H	-0.042778	-0.298806	0.651573
H414	H	0.457222	0.201194	1.151573
H415	H	0.000551	-0.322705	0.602089
H416	H	0.500551	0.177295	1.102089
H417	H	0.000613	-0.268873	0.602060
H418	H	0.500613	0.231127	1.102060
H419	H	0.024707	-0.371572	0.675771
H420	H	0.524707	0.128428	1.175771
H421	H	0.024739	-0.317698	0.675687
H422	H	0.524739	0.182302	1.175687
H423	H	0.011532	-0.638242	0.401256
H424	H	0.511532	-0.138242	0.901256
O425	O	0.236789	-0.422780	0.619866
O426	O	0.736789	0.077220	1.119866
C427	C	0.315405	-0.464701	0.625039
C428	C	0.815405	0.035299	1.125039
C429	C	0.261769	-0.451531	0.652329
C430	C	0.761769	0.048469	1.152329
H431	H	0.335617	-0.487956	0.651274
H432	H	0.835617	0.012044	1.151274
H433	H	0.325175	-0.431054	0.601830
H434	H	0.825175	0.068946	1.101830
H435	H	0.325132	-0.484869	0.601806
H436	H	0.825132	0.015131	1.101806
H437	H	0.252003	-0.431374	0.675588
H438	H	0.752003	0.068626	1.175588
H439	H	0.252028	-0.485195	0.675508
H440	H	0.752028	0.014805	1.175508
H441	H	0.082085	-0.347427	0.581670
H442	H	0.582085	0.152573	1.081670
H443	H	0.198991	-0.450848	0.478149
H444	H	0.698991	0.049152	0.978149
O445	O	0.044392	-0.375521	0.553653
O446	O	0.544392	0.124479	1.053653
C447	C	-0.034186	-0.333626	0.595599
C448	C	0.465814	0.166374	1.095599
C449	C	0.019463	-0.346786	0.582352
C450	C	0.519463	0.153214	1.082352
H451	H	-0.054356	-0.310383	0.618795
H452	H	0.445644	0.189617	1.118795
H453	H	-0.043949	-0.367277	0.615820
H454	H	0.456051	0.132723	1.115820
H455	H	-0.043968	-0.313447	0.561954
H456	H	0.456032	0.186553	1.061954
H457	H	0.029284	-0.366953	0.615971
H458	H	0.529284	0.133047	1.115971
H459	H	0.029197	-0.313118	0.562112
H460	H	0.529197	0.186882	1.062112
H461	H	0.229008	-0.420842	0.508101
H462	H	0.729008	0.079158	1.008101
H463	H	0.234479	-0.456922	0.572596
H464	H	0.734479	0.043078	1.072596
H465	H	0.324452	-0.486894	0.542541
H466	H	0.824452	0.013106	1.042541
H467	H	0.324395	-0.341295	0.487026
H468	H	0.824395	0.158705	0.987026
H469	H	0.192214	-0.305222	0.471410
H470	H	0.692214	0.194778	0.971410
O471	O	0.230598	-0.303707	0.515947
O472	O	0.730598	0.196293	1.015947
C473	C	0.235807	-0.225849	0.483816
C474	C	0.735807	0.274151	0.983816
C475	C	0.263076	-0.279083	0.491545
C476	C	0.763076	0.220917	0.991545
H477	H	0.262053	-0.205924	0.464078
H478	H	0.762053	0.294076	0.964078
H479	H	0.212625	-0.220302	0.519572
H480	H	0.712625	0.279698	1.019572
H481	H	0.212549	-0.211908	0.462049
H482	H	0.712549	0.288092	0.962049
H483	H	0.286360	-0.293060	0.513296
H484	H	0.786360	0.206940	1.013296
H485	H	0.286228	-0.284599	0.455773
H486	H	0.786228	0.215401	0.955773
H487	H	0.088825	-0.215289	0.588411
H488	H	0.588825	0.284711	1.088411
O489	O	0.164028	-0.211391	0.433778
O490	O	0.664028	0.288609	0.933778
C491	C	0.160156	-0.196175	0.359521
C492	C	0.660156	0.303825	0.859521
C493	C	0.147027	-0.223452	0.413163
C494	C	0.647027	0.276548	0.913163
H495	H	0.146407	-0.205908	0.342840
H496	H	0.646407	0.294092	0.842840
H497	H	0.200310	-0.205921	0.342747
H498	H	0.700310	0.294079	0.842747
H499	H	0.143440	-0.156470	0.353269
H500	H	0.643440	0.343530	0.853269
H501	H	0.163710	-0.263162	0.419457
H502	H	0.663710	0.236838	0.919457
H503	H	0.106868	-0.213666	0.429910
H504	H	0.606868	0.286334	0.929910
O505	O	0.117039	-0.309152	0.626036
O506	O	0.617039	0.190848	1.126036
C507	C	0.120856	-0.324323	0.700305
C508	C	0.620856	0.175677	1.200305
C509	C	0.133967	-0.297028	0.646666
C510	C	0.633967	0.202972	1.146666
H511	H	0.134528	-0.314523	0.717002
H512	H	0.634528	0.185477	1.217002
H513	H	0.137600	-0.364035	0.706597
H514	H	0.637600	0.135965	1.206597
H515	H	0.080701	-0.314591	0.717032
H516	H	0.580701	0.185409	1.217032
H517	H	0.174116	-0.306720	0.629904
H518	H	0.674116	0.193280	1.129904
H519	H	0.117190	-0.257322	0.640408
H520	H	0.617190	0.242678	1.140408
O521	O	-0.063473	-0.483597	0.161568
O522	O	0.436527	0.016403	0.661568
C523	C	-0.105347	-0.404987	0.166760
C524	C	0.394653	0.095013	0.666760
C525	C	-0.092189	-0.458631	0.194039
C526	C	0.407811	0.041369	0.694039
H527	H	-0.128557	-0.384786	0.193002
H528	H	0.371443	0.115214	0.693002
H529	H	-0.125524	-0.395182	0.143500
H530	H	0.374476	0.104818	0.643500
H531	H	-0.071668	-0.395278	0.143579
H532	H	0.428332	0.104722	0.643579
H533	H	-0.125843	-0.468378	0.217247
H534	H	0.374157	0.031622	0.717247
H535	H	-0.071994	-0.468406	0.217270
H536	H	0.428006	0.031594	0.717270
O537	O	-0.063663	-0.483589	0.325700
O538	O	0.436337	0.016411	0.825700
C539	C	-0.105471	-0.404977	0.283703
C540	C	0.394529	0.095023	0.783703
C541	C	-0.092343	-0.458621	0.296939
C542	C	0.407657	0.041379	0.796939
H543	H	-0.128669	-0.384776	0.260457
H544	H	0.371331	0.115224	0.760457
H545	H	-0.071806	-0.395245	0.263538
H546	H	0.428194	0.104755	0.763538
H547	H	-0.125682	-0.395198	0.317349
H548	H	0.374318	0.104802	0.817349
H549	H	-0.072143	-0.468439	0.263318
H550	H	0.427857	0.031561	0.763318
H551	H	-0.126025	-0.468324	0.317123
H552	H	0.373975	0.031676	0.817123
O553	O	-0.096204	-0.516161	0.259281
O554	O	0.403796	-0.016161	0.759281
C555	C	-0.171735	-0.487751	0.315199
C556	C	0.328265	0.012249	0.815199
C557	C	-0.140323	-0.523238	0.287950
C558	C	0.359677	-0.023238	0.787950
H559	H	-0.207408	-0.493467	0.338392
H560	H	0.292592	0.006533	0.838392
H561	H	-0.177449	-0.450059	0.288954
H562	H	0.322551	0.049941	0.788954
H563	H	-0.153586	-0.493475	0.338448
H564	H	0.346414	0.006525	0.838448
H565	H	-0.158445	-0.517557	0.264701
H566	H	0.341555	-0.017557	0.764701
H567	H	-0.134608	-0.560917	0.314221
H568	H	0.365392	-0.060917	0.814221
H569	H	0.011877	-0.638258	0.165483
H570	H	0.511877	-0.138258	0.665483
H571	H	-0.018232	-0.668197	0.255455
H572	H	0.481768	-0.168197	0.755455
H573	H	-0.091707	-0.521211	0.297556
H574	H	0.408293	-0.021211	0.797556
H575	H	-0.018411	-0.668189	0.371171
H576	H	0.481589	-0.168189	0.871171
H577	H	0.047655	-0.763617	0.336709
H578	H	0.547655	-0.263617	0.836709
O579	O	0.022796	-0.669818	0.303011
O580	O	0.522796	-0.169818	0.803011
C581	C	0.104137	-0.675136	0.274506
C582	C	0.604137	-0.175136	0.774506
C583	C	0.069050	-0.702346	0.300360
C584	C	0.569050	-0.202346	0.800360
H585	H	0.141542	-0.701423	0.272346
H586	H	0.641542	-0.201423	0.772346
H587	H	0.094197	-0.651923	0.294792
H588	H	0.594197	-0.151923	0.794792
H589	H	0.102648	-0.651911	0.237207
H590	H	0.602648	-0.151911	0.737207
H591	H	0.070521	-0.725597	0.337660
H592	H	0.570521	-0.225597	0.837660
H593	H	0.079002	-0.725529	0.280038
H594	H	0.579002	-0.225529	0.780038
H595	H	-0.097938	-0.763465	0.391989
H596	H	0.402062	-0.263465	0.891989
H597	H	-0.127865	-0.673490	0.361973
H598	H	0.372135	-0.173490	0.861973
H599	H	-0.223999	-0.601245	0.437568
H600	H	0.276001	-0.101245	0.937568
O601	O	-0.130209	-0.635795	0.412855
O602	O	0.369791	-0.135795	0.912855
C603	C	-0.135571	-0.674213	0.494972
C604	C	0.364429	-0.174213	0.994972
C605	C	-0.162755	-0.642839	0.459425
C606	C	0.337245	-0.142839	0.959425
H607	H	-0.161872	-0.679927	0.532631
H608	H	0.338128	-0.179927	1.032631
H609	H	-0.112361	-0.656080	0.489340
H610	H	0.387639	-0.156080	0.989340
H611	H	-0.112348	-0.709892	0.489255
H612	H	0.387652	-0.209892	0.989255
H613	H	-0.186003	-0.607156	0.465120
H614	H	0.313997	-0.107156	0.965120
H615	H	-0.185935	-0.661010	0.465065
H616	H	0.314065	-0.161010	0.965065
H617	H	-0.133793	-0.557888	0.260690
H618	H	0.366207	-0.057888	0.760690
O619	O	-0.227585	-0.523315	0.285403
O620	O	0.272415	-0.023315	0.785403
C621	C	-0.222227	-0.484953	0.203287
C622	C	0.277773	0.015047	0.703287
C623	C	-0.195040	-0.516342	0.238833
C624	C	0.304960	-0.016342	0.738833
H625	H	-0.195926	-0.479314	0.165627
H626	H	0.304074	0.020686	0.665627
H627	H	-0.245422	-0.449241	0.208935
H628	H	0.254578	0.050759	0.708935
H629	H	-0.245463	-0.503095	0.208989
H630	H	0.254537	-0.003095	0.708989
H631	H	-0.171778	-0.498242	0.233153
H632	H	0.328222	0.001758	0.733153
H633	H	-0.171875	-0.552053	0.233175
H634	H	0.328125	-0.052053	0.733175
