data_functionalizedCrystal
_audit_creation_method	'MofGen! by Chris Wilmer'
_symmetry_space_group_name_H-M	'P1'
_symmetry_Int_Tables_number	1
_symmetry_cell_setting	triclinic
loop_
_symmetry_equiv_pos_as_xyz
  x,y,z
_cell_length_a	14.971486
_cell_length_b	16.109304
_cell_length_c	14.048226
_cell_angle_alpha	89.996377
_cell_angle_beta	89.998499
_cell_angle_gamma	83.538383
loop_
_atom_site_label
_atom_site_type_symbol
_atom_site_fract_x
_atom_site_fract_y
_atom_site_fract_z
O1	O	1.186792	0.108348	-0.079045
O2	O	0.926373	0.121322	-0.079070
O3	O	1.063735	-0.006187	-0.079057
O4	O	1.049430	0.235857	-0.079058
O5	O	1.063719	-0.006194	0.079264
O6	O	0.926357	0.121315	0.079251
O7	O	1.186775	0.108340	0.079276
Zn8	Zn	1.056563	0.114826	0.104401
Zn9	Zn	1.056585	0.114836	-0.104195
O10	O	1.049413	0.235849	0.079263
C11	C	0.893041	0.120738	0.000087
C12	C	0.793746	0.119000	0.000077
C13	C	0.736414	0.193908	0.000078
C14	C	0.643117	0.192269	0.000093
C15	C	0.607154	0.115721	0.000099
C16	C	0.664494	0.040807	0.000100
C17	C	0.757789	0.042447	0.000093
C18	C	0.470036	0.037395	0.000114
C19	C	0.376735	0.035755	0.000119
C20	C	0.355364	0.187217	0.000113
C21	C	0.448659	0.188857	0.000106
C22	C	0.505993	0.113942	0.000106
C23	C	1.063147	-0.037166	0.000101
C24	C	1.061408	-0.129464	0.000094
C25	C	1.057401	-0.341802	-0.086203
C26	C	1.055759	-0.428524	-0.086203
C27	C	1.055745	-0.428529	0.086408
C28	C	1.057381	-0.341808	0.086406
C29	C	1.058213	-0.298447	0.000098
C30	C	1.054936	-0.471891	0.000100
C31	C	1.053156	-0.565919	0.000101
C32	C	1.059991	-0.204413	0.000096
C33	C	1.220108	0.108924	0.000117
C34	C	1.319402	0.110663	0.000120
C35	C	1.050002	0.266829	0.000103
C36	C	1.051740	0.359126	0.000103
N37	N	1.056555	0.114819	0.246761
N38	N	1.056601	0.114837	-0.246555
C39	C	1.117398	0.058381	0.296585
C40	C	1.117404	0.058381	0.396243
C41	C	1.056571	0.114823	0.446075
C42	C	0.995721	0.171263	0.396244
C43	C	0.995712	0.171259	0.296588
C44	C	0.995747	0.171269	0.603958
C45	C	0.995758	0.171275	0.703621
C46	C	1.117440	0.058391	0.703613
C47	C	1.117430	0.058387	0.603957
C48	C	1.056581	0.114829	0.554133
H49	H	0.765687	0.256242	0.000073
F50	F	1.054892	-0.474661	-0.178056
H51	H	0.946166	0.217215	0.256023
H52	H	1.055070	-0.463844	0.156677
F53	F	1.058237	-0.295663	0.178265
F54	F	0.338463	-0.045716	0.000150
H55	H	0.596440	0.253267	0.000093
H56	H	1.166939	0.012423	0.256018
H57	H	0.516716	-0.023609	0.000115
H58	H	1.166946	0.012424	0.436809
F59	F	1.182180	-0.001679	0.550921
H60	H	1.166984	0.012434	0.744185
H61	H	0.946195	0.217228	0.563395
H62	H	0.946185	0.217217	0.436823
H63	H	0.477937	0.251189	0.000092
H64	H	0.804469	-0.018551	0.000092
F65	F	0.294345	0.266947	0.000115
F66	F	1.058283	-0.295656	-0.178060
F67	F	0.626217	-0.040661	0.000113
F68	F	0.931009	0.231347	0.756649
