data_functionalizedCrystal
_audit_creation_method	'MofGen! by Chris Wilmer'
_symmetry_space_group_name_H-M	'P1'
_symmetry_Int_Tables_number	1
_symmetry_cell_setting	triclinic
loop_
_symmetry_equiv_pos_as_xyz
  x,y,z
_cell_length_a	18.215407
_cell_length_b	19.077068
_cell_length_c	19.077314
_cell_angle_alpha	90.121627
_cell_angle_beta	87.718516
_cell_angle_gamma	92.327501
loop_
_atom_site_label
_atom_site_type_symbol
_atom_site_fract_x
_atom_site_fract_y
_atom_site_fract_z
Zn1	Zn	1.096804	-0.263804	0.408541
Zn2	Zn	1.096313	-0.386032	0.295748
Zn3	Zn	0.978476	-0.268542	0.291048
Zn4	Zn	0.968566	-0.381279	0.413214
O5	O	1.035040	-0.324914	0.352138
O6	O	1.199723	-0.280024	0.393590
O7	O	1.084624	-0.374420	0.196793
O8	O	0.998526	-0.169580	0.302711
O9	O	1.199362	-0.369825	0.310721
O10	O	1.085461	-0.166098	0.389033
O11	O	0.998050	-0.288100	0.193340
O12	O	0.874178	-0.283491	0.307242
O13	O	0.981634	-0.361723	0.510925
O14	O	0.866897	-0.366318	0.396997
O15	O	1.075851	-0.275414	0.507492
O16	O	1.075014	-0.483735	0.315252
O17	O	0.981159	-0.480243	0.401554
C18	C	0.843835	-0.324903	0.352117
C19	C	0.762035	-0.324914	0.352125
C20	C	0.570068	-0.368115	0.398807
C21	C	0.493209	-0.368117	0.398816
C22	C	0.500762	-0.281725	0.305484
C23	C	0.577620	-0.281720	0.305479
C24	C	0.612271	-0.324919	0.352140
C25	C	0.458554	-0.324926	0.352153
C26	C	0.375220	-0.324928	0.352163
C27	C	0.695610	-0.324917	0.352132
C28	C	1.026977	-0.507485	0.359436
C29	C	1.023594	-0.585589	0.362581
C30	C	1.070906	-0.624076	0.319164
C31	C	1.067728	-0.697462	0.322127
C32	C	1.017235	-0.732361	0.368504
C33	C	0.969922	-0.693869	0.411926
C34	C	0.973103	-0.620483	0.408967
C35	C	1.002479	-0.951647	0.382173
C36	C	0.999300	-1.025038	0.385128
C37	C	1.097107	-1.028626	0.295329
C38	C	1.100282	-0.955239	0.292371
C39	C	1.052971	-0.916754	0.335796
N40	N	1.013984	-0.807374	0.371532
N41	N	1.056226	-0.841742	0.332771
C42	C	1.226991	-0.324926	0.352159
C43	C	1.308790	-0.324931	0.352168
C44	C	1.027692	-0.317510	0.535418
C45	C	1.024560	-0.314354	0.613521
C46	C	1.043153	-0.141629	0.344826
C47	C	1.046611	-0.063524	0.341711
C48	C	1.042404	-0.332239	0.169568
C49	C	1.045687	-0.335196	0.091458
C50	C	1.068160	-0.357811	0.652014
C51	C	1.065219	-0.354838	0.725400
C52	C	1.018672	-0.308411	0.760291
C53	C	0.975071	-0.264949	0.721792
C54	C	0.978017	-0.267919	0.648408
C55	C	1.005031	-0.294705	0.979574
C56	C	1.002087	-0.291739	1.052964
C57	C	1.092236	-0.381628	1.056567
C58	C	1.095175	-0.384597	0.983181
C59	C	1.051576	-0.341133	0.944688
N60	N	1.015662	-0.305372	0.835303
N61	N	1.054590	-0.344169	0.869678
H62	H	1.112020	-0.595667	0.281395
H63	H	0.472540	-0.246555	0.267493
F64	F	0.622538	-0.235739	0.255810
H65	H	1.135626	-1.059969	0.259976
H66	H	0.958190	-1.053449	0.422907
H67	H	0.458851	-0.403291	0.436818
H68	H	1.106254	-0.728795	0.286771
H69	H	1.141397	-0.926827	0.254607
H70	H	0.942515	-0.232530	0.617067
H71	H	0.969527	-0.259316	0.948243
H72	H	0.598279	-0.403289	0.436803
F73	F	0.952126	-0.910697	0.428390
F74	F	0.916187	-0.731012	0.461289
H75	H	0.934578	-0.589148	0.444323
H76	H	1.106066	-0.395616	0.623611
F77	F	1.111620	-0.401095	0.766365
F78	F	1.144717	-0.434010	0.946053
F79	F	1.138635	-0.427882	1.097538
H80	H	0.937175	-0.227144	0.750206
H81	H	0.964185	-0.253927	1.081370
