data_functionalizedCrystal
_audit_creation_method	'MofGen! by Chris Wilmer'
_symmetry_space_group_name_H-M	'P1'
_symmetry_Int_Tables_number	1
_symmetry_cell_setting	triclinic
loop_
_symmetry_equiv_pos_as_xyz
  x,y,z
_cell_length_a	21.295417
_cell_length_b	19.121241
_cell_length_c	19.120904
_cell_angle_alpha	89.875472
_cell_angle_beta	92.408338
_cell_angle_gamma	92.464587
loop_
_atom_site_label
_atom_site_type_symbol
_atom_site_fract_x
_atom_site_fract_y
_atom_site_fract_z
Zn1	Zn	-0.227282	1.054845	-0.442174
Zn2	Zn	0.272718	1.554845	0.057826
Zn3	Zn	-0.327881	1.059755	-0.324928
Zn4	Zn	0.172119	1.559755	0.175072
Zn5	Zn	-0.226908	0.942612	-0.319943
Zn6	Zn	0.273092	1.442612	0.180057
Zn7	Zn	-0.336799	0.937563	-0.437114
Zn8	Zn	0.163201	1.437563	0.062886
O9	O	-0.279717	0.998694	-0.381039
O10	O	0.220283	1.498694	0.118961
O11	O	-0.237051	1.153604	-0.430824
O12	O	0.262949	1.653604	0.069176
O13	O	-0.310598	1.048383	-0.226162
O14	O	0.189402	1.548383	0.273838
O15	O	-0.138867	0.957558	-0.336189
O16	O	0.361133	1.457558	0.163811
O17	O	-0.310960	1.157211	-0.344684
O18	O	0.189040	1.657211	0.155316
O19	O	-0.139142	1.040016	-0.425991
O20	O	0.360858	1.540016	0.074009
O21	O	-0.236414	0.962319	-0.222500
O22	O	0.263586	1.462319	0.277500
O23	O	-0.245061	0.843834	-0.331283
O24	O	0.254939	1.343834	0.168717
O25	O	-0.326160	0.948953	-0.535889
O26	O	0.173840	1.448953	-0.035889
O27	O	-0.325797	0.840125	-0.417367
O28	O	0.174203	1.340125	0.082633
O29	O	-0.245698	1.035120	-0.539606
O30	O	0.254302	1.535120	-0.039606
O31	O	-0.417154	1.043487	-0.339778
O32	O	0.082846	1.543487	0.160222
O33	O	-0.423706	0.953713	-0.422200
O34	O	0.076294	1.453713	0.077800
C35	C	-0.286357	0.816541	-0.373235
C36	C	0.213643	1.316541	0.126765
C37	C	-0.289213	0.738615	-0.369913
C38	C	0.210787	1.238615	0.130087
C39	C	-0.252141	0.700124	-0.413269
C40	C	0.247859	1.200124	0.086731
C41	C	-0.254822	0.626905	-0.410142
C42	C	0.245178	1.126905	0.089858
C43	C	-0.294578	0.592176	-0.363661
C44	C	0.205422	1.092176	0.136339
C45	C	-0.331651	0.630672	-0.320300
C46	C	0.168349	1.130672	0.179700
C47	C	-0.328967	0.703890	-0.323425
C48	C	0.171033	1.203890	0.176575
C49	C	-0.304601	0.371197	-0.351977
C50	C	0.195399	0.871197	0.148023
C51	C	-0.307284	0.297973	-0.348857
C52	C	0.192716	0.797973	0.151143
C53	C	-0.230453	0.294211	-0.438698
C54	C	0.269547	0.794211	0.061302
C55	C	-0.227775	0.367431	-0.441822
C56	C	0.272225	0.867431	0.058178
C57	C	-0.264846	0.405921	-0.398458
C58	C	0.235154	0.905921	0.101542
C59	C	-0.297320	0.517334	-0.360465
C60	C	0.202680	1.017334	0.139535
C61	C	-0.262100	0.480762	-0.401652
C62	C	0.237900	0.980762	0.098348
C63	C	-0.443271	0.998603	-0.380997
C64	C	0.056729	1.498603	0.119003
C65	C	-0.513238	0.998628	-0.381005
C66	C	-0.013238	1.498628	0.118995
C67	C	-0.542673	1.045411	-0.338135
C68	C	-0.042673	1.545411	0.161865
C69	C	-0.608415	1.045443	-0.338152
C70	C	-0.108415	1.545443	0.161848
C71	C	-0.644720	0.998680	-0.381031
C72	C	-0.144720	1.498680	0.118969
C73	C	-0.615278	0.951893	-0.423909
C74	C	-0.115278	1.451893	0.076091
C75	C	-0.549537	0.951867	-0.423896
C76	C	-0.049537	1.451867	0.076104
N77	N	-0.750438	0.937121	-0.383748
N78	N	-0.250438	1.437121	0.116252
N79	N	-0.812889	0.937148	-0.383756
N80	N	-0.312889	1.437148	0.116244
C81	C	-0.842793	0.998757	-0.381075
C82	C	-0.342793	1.498757	0.118925
N83	N	-0.807887	1.060339	-0.378370
N84	N	-0.307887	1.560339	0.121630
N85	N	-0.745430	1.060312	-0.378358
N86	N	-0.245430	1.560312	0.121642
C87	C	-0.716005	0.998703	-0.381051
C88	C	-0.216005	1.498703	0.118949
C89	C	-0.943512	1.045579	-0.338221
C90	C	-0.443512	1.545579	0.161779
C91	C	-1.009256	1.045612	-0.338243
C92	C	-0.509256	1.545612	0.161757
C93	C	-1.016118	0.952056	-0.423997
C94	C	-0.516118	1.452056	0.076003
C95	C	-0.950375	0.952029	-0.423979
C96	C	-0.450375	1.452029	0.076021
C97	C	-0.914077	0.998790	-0.381087
C98	C	-0.414077	1.498790	0.118913
C99	C	-0.115525	0.998803	-0.381099
C100	C	0.384475	1.498803	0.118901
C101	C	-0.045556	0.998849	-0.381124
C102	C	0.454444	1.498849	0.118876
C103	C	-0.286965	0.990925	-0.563896
C104	C	0.213035	1.490925	-0.063896
C105	C	-0.290054	0.987615	-0.641819
C106	C	0.209946	1.487615	-0.141819
C107	C	-0.273052	1.181557	-0.388875
C108	C	0.226948	1.681557	0.111125
C109	C	-0.270212	1.259483	-0.392214
C110	C	0.229788	1.759483	0.107786
C111	C	-0.249615	1.030920	-0.680363
C112	C	0.250385	1.530920	-0.180363
C113	C	-0.252515	1.027801	-0.753580
C114	C	0.247485	1.527801	-0.253580
C115	C	-0.295857	0.981380	-0.788250
C116	C	0.204143	1.481380	-0.288250
C117	C	-0.336298	0.938070	-0.749700
C118	C	0.163702	1.438070	-0.249700
C119	C	-0.333395	0.941186	-0.676485
C120	C	0.166605	1.441186	-0.176485
C121	C	-0.306717	0.969724	-1.009215
C122	C	0.193283	1.469724	-0.509215
C123	C	-0.309619	0.966613	-1.082435
C124	C	0.190381	1.466613	-0.582435
C125	C	-0.225834	1.056343	-1.086310
C126	C	0.274166	1.556343	-0.586310
C127	C	-0.222937	1.059458	-1.013093
C128	C	0.277063	1.559458	-0.513093
C129	C	-0.263376	1.016146	-0.974550
C130	C	0.236624	1.516146	-0.474550
C131	C	-0.298824	0.978192	-0.863088
C132	C	0.201176	1.478192	-0.363088
C133	C	-0.260406	1.019330	-0.899712
C134	C	0.239594	1.519330	-0.399712
C135	C	-0.272451	1.006472	-0.198896
C136	C	0.227549	1.506472	0.301104
C137	C	-0.269180	1.009918	-0.120980
C138	C	0.230820	1.509918	0.379020
H139	H	-0.195404	0.395702	-0.479674
H140	H	0.304596	0.895702	0.020326
H141	H	-1.045677	0.913983	-0.458913
H142	H	-0.545677	1.413983	0.041087
H143	H	-0.200271	0.262866	-0.474002
H144	H	0.299729	0.762866	0.025998
H145	H	-0.219587	1.063066	-0.784960
H146	H	0.280413	1.563066	-0.284960
H147	H	-0.644842	0.913820	-0.458823
H148	H	-0.144842	1.413820	0.041177
C149	C	-0.350467	0.260396	-0.298318
C150	C	0.149533	0.760396	0.201682
C151	C	-0.382347	0.309774	-0.260998
C152	C	0.117653	0.809774	0.239002
C153	C	-0.422126	0.275184	-0.214435
C154	C	0.077874	0.775184	0.285565
H155	H	-0.380094	0.230693	-0.323785
H156	H	0.119906	0.730693	0.176215
H157	H	-0.326194	0.233147	-0.266570
H158	H	0.173806	0.733147	0.233430
H159	H	-0.406619	0.337012	-0.292742
H160	H	0.093381	0.837012	0.207258
H161	H	-0.352737	0.339479	-0.235517
H162	H	0.147263	0.839479	0.264483
H163	H	-0.397853	0.247935	-0.182686
H164	H	0.102147	0.747935	0.317314
H165	H	-0.451748	0.245482	-0.239907
H166	H	0.048252	0.745482	0.260093
H167	H	-0.443757	0.308682	-0.189103
H168	H	0.056243	0.808682	0.310897
C169	C	-0.344894	0.413061	-0.305020
C170	C	0.155106	0.913061	0.194980
C171	C	-0.385316	0.453416	-0.346423
C172	C	0.114684	0.953416	0.153577
C173	C	-0.422441	0.491998	-0.303190
C174	C	0.077559	0.991998	0.196810
H175	H	-0.369013	0.381968	-0.276883
H176	H	0.130987	0.881968	0.223117
H177	H	-0.318536	0.442963	-0.275751
H178	H	0.181464	0.942963	0.224249
H179	H	-0.411672	0.423516	-0.375680
H180	H	0.088328	0.923516	0.124320
H181	H	-0.361215	0.484522	-0.374559
H182	H	0.138785	0.984522	0.125441
H183	H	-0.396082	0.521901	-0.273921
H184	H	0.103918	1.021901	0.226079
H185	H	-0.446556	0.460900	-0.275055
H186	H	0.053444	0.960900	0.224945
H187	H	-0.449868	0.519389	-0.331275
H188	H	0.050132	1.019389	0.168725
C189	C	-0.377409	0.894264	-0.634669
C190	C	0.122591	1.394264	-0.134669
C191	C	-0.439841	0.908750	-0.653097
C192	C	0.060159	1.408750	-0.153097
C193	C	-0.480404	0.865547	-0.614583
C194	C	0.019596	1.365547	-0.114583
H195	H	-0.370478	0.846628	-0.644613
H196	H	0.129522	1.346628	-0.144613
H197	H	-0.369512	0.902779	-0.586095
H198	H	0.130488	1.402779	-0.086095
H199	H	-0.447734	0.900230	-0.701660
H200	H	0.052266	1.400230	-0.201660
H201	H	-0.446791	0.956379	-0.643151
H202	H	0.053209	1.456379	-0.143151
H203	H	-0.472507	0.874061	-0.566008
H204	H	0.027493	1.374061	-0.066008
H205	H	-0.473467	0.817913	-0.624530
H206	H	0.026533	1.317913	-0.124530
H207	H	-0.522768	0.875374	-0.627076
H208	H	-0.022768	1.375374	-0.127076
H209	H	-0.926408	0.913931	-0.458884
H210	H	-0.426408	1.413931	0.041116
H211	H	-0.214322	1.068723	-0.652141
H212	H	0.285678	1.568723	-0.152141
H213	H	-0.344915	0.928809	-1.110661
H214	H	0.155085	1.428809	-0.610661
C215	C	-0.369330	0.745643	-0.276440
C216	C	0.130670	1.245643	0.223560
C217	C	-0.432889	0.727181	-0.290829
C218	C	0.067111	1.227181	0.209171
C219	C	-0.470088	0.765635	-0.247564
C220	C	0.029912	1.265635	0.252436
H221	H	-0.358707	0.735671	-0.228819
H222	H	0.141293	1.235671	0.271181
H223	H	-0.362079	0.794229	-0.284963
H224	H	0.137921	1.294229	0.215037
H225	H	-0.440136	0.678606	-0.282300
H226	H	0.059864	1.178606	0.217700
H227	H	-0.443530	0.737155	-0.338442
H228	H	0.056470	1.237155	0.161558
H229	H	-0.462837	0.814221	-0.256087
H230	H	0.037163	1.314221	0.243913
H231	H	-0.459460	0.755660	-0.199945
H232	H	0.040540	1.255660	0.300055
H233	H	-0.513217	0.753118	-0.257325
H234	H	-0.013217	1.253118	0.242675
H235	H	-0.187645	1.097261	-0.984870
H236	H	0.312355	1.597261	-0.484870
H237	H	-0.229728	0.509041	-0.439493
H238	H	0.270272	1.009041	0.060507
C239	C	-0.208914	0.737699	-0.463759
C240	C	0.291086	1.237699	0.036241
C241	C	-0.177010	0.688316	-0.501045
C242	C	0.322990	1.188316	-0.001045
C243	C	-0.137177	0.722901	-0.547556
C244	C	0.362823	1.222901	-0.047556
H245	H	-0.233132	0.764960	-0.495537
H246	H	0.266868	1.264960	0.004463
H247	H	-0.179308	0.767390	-0.438233
H248	H	0.320692	1.267390	0.061767
H249	H	-0.206613	0.658636	-0.526570
H250	H	0.293387	1.158636	-0.026570
H251	H	-0.152781	0.661052	-0.469286
H252	H	0.347219	1.161052	0.030714
H253	H	-0.107570	0.752592	-0.522030
H254	H	0.392430	1.252592	-0.022030
H255	H	-0.161399	0.750161	-0.579329
H256	H	0.338601	1.250161	-0.079329
H257	H	-0.115521	0.689400	-0.572856
H258	H	0.384479	1.189400	-0.072856
H259	H	-0.364019	0.602390	-0.282451
H260	H	0.135981	1.102390	0.217549
C261	C	-0.181959	1.103278	-1.128281
C262	C	0.318041	1.603278	-0.628281
C263	C	-0.193764	1.090604	-1.199820
C264	C	0.306236	1.590604	-0.699820
C265	C	-0.153348	1.133820	-1.238504
C266	C	0.346652	1.633820	-0.738504
H267	H	-0.188939	1.150913	-1.118386
H268	H	0.311061	1.650913	-0.618386
H269	H	-0.139550	1.093545	-1.115896
H270	H	0.360450	1.593545	-0.615896
H271	H	-0.236162	1.100342	-1.212200
H272	H	0.263838	1.600342	-0.712200
H273	H	-0.186779	1.042977	-1.209736
H274	H	0.313221	1.542977	-0.709736
H275	H	-0.110940	1.124086	-1.226118
H276	H	0.389060	1.624086	-0.726118
H277	H	-0.160332	1.181452	-1.228603
H278	H	0.339668	1.681452	-0.728603
H279	H	-0.161348	1.125221	-1.287046
H280	H	0.338652	1.625221	-0.787046
C281	C	-0.517693	0.900991	-0.470464
C282	C	-0.017693	1.400991	0.029536
C283	C	-0.563555	0.860033	-0.508011
C284	C	-0.063555	1.360033	-0.008011
C285	C	-0.534243	0.813151	-0.550908
C286	C	-0.034243	1.313151	-0.050908
H287	H	-0.492247	0.926395	-0.502231
H288	H	0.007753	1.426395	-0.002231
H289	H	-0.492152	0.871556	-0.442321
H290	H	0.007848	1.371556	0.057679
H291	H	-0.589086	0.889464	-0.536152
H292	H	-0.089086	1.389464	-0.036152
H293	H	-0.589003	0.834613	-0.476262
H294	H	-0.089003	1.334613	0.023738
H295	H	-0.508701	0.783716	-0.522765
H296	H	-0.008701	1.283716	-0.022765
H297	H	-0.508798	0.838561	-0.582670
H298	H	-0.008798	1.338561	-0.082670
H299	H	-0.565355	0.785351	-0.576384
H300	H	-0.065355	1.285351	-0.076384
H301	H	-0.913957	1.083656	-0.303299
H302	H	-0.413957	1.583656	0.196701
C303	C	-0.350687	0.922659	-0.967498
C304	C	0.149313	1.422659	-0.467498
C305	C	-0.389271	0.881349	-1.013535
C306	C	0.110729	1.381349	-0.513535
C307	C	-0.429787	0.837983	-0.975128
C308	C	0.070213	1.337983	-0.475128
H309	H	-0.326649	0.893283	-0.937639
H310	H	0.173351	1.393283	-0.437639
H311	H	-0.376045	0.950643	-0.940083
H312	H	0.123955	1.450643	-0.440083
H313	H	-0.363916	0.853367	-1.040938
H314	H	0.136084	1.353367	-0.540938
H315	H	-0.413323	0.910706	-1.043395
H316	H	0.086677	1.410706	-0.543395
H317	H	-0.455145	0.865967	-0.947712
H318	H	0.044855	1.365967	-0.447712
H319	H	-0.405743	0.808612	-0.945270
H320	H	0.094257	1.308612	-0.445270
H321	H	-0.455975	0.809954	-1.006358
H322	H	0.044025	1.309954	-0.506358
H323	H	-0.371586	0.900271	-0.777934
H324	H	0.128414	1.400271	-0.277934
H325	H	-0.334116	0.940400	-0.891325
H326	H	0.165884	1.440400	-0.391325
C327	C	-0.503343	1.096151	-0.291460
C328	C	-0.003343	1.596151	0.208540
C329	C	-0.517192	1.083908	-0.221437
C330	C	-0.017192	1.583908	0.278563
C331	C	-0.480980	1.130644	-0.178423
C332	C	0.019020	1.630644	0.321577
H333	H	-0.459958	1.089488	-0.297496
H334	H	0.040042	1.589488	0.202504
H335	H	-0.512779	1.142827	-0.303739
H336	H	-0.012779	1.642827	0.196261
H337	H	-0.507752	1.037243	-0.209162
H338	H	-0.007752	1.537243	0.290838
H339	H	-0.560571	1.090576	-0.215378
H340	H	-0.060571	1.590576	0.284622
H341	H	-0.490416	1.177320	-0.190702
H342	H	0.009584	1.677320	0.309298
H343	H	-0.437597	1.123978	-0.184465
H344	H	0.062403	1.623978	0.315535
H345	H	-0.490375	1.122348	-0.130908
H346	H	0.009625	1.622348	0.369092
C347	C	-0.213312	1.069619	-0.861980
C348	C	0.286688	1.569619	-0.361980
C349	C	-0.172754	1.031738	-0.818247
C350	C	0.327246	1.531738	-0.318247
C351	C	-0.129370	1.078042	-0.783464
C352	C	0.370630	1.578042	-0.283464
H353	H	-0.189578	1.094987	-0.895340
H354	H	0.310422	1.594987	-0.395340
H355	H	-0.235130	1.101352	-0.834678
H356	H	0.264870	1.601352	-0.334678
H357	H	-0.150937	1.000017	-0.845547
H358	H	0.349063	1.500017	-0.345547
H359	H	-0.196469	1.006372	-0.784873
H360	H	0.303531	1.506372	-0.284873
H361	H	-0.151188	1.109776	-0.756162
H362	H	0.348812	1.609776	-0.256162
H363	H	-0.105641	1.103408	-0.816829
H364	H	0.394359	1.603408	-0.316829
H365	H	-0.101850	1.052348	-0.753782
H366	H	0.398150	1.552348	-0.253782
C367	C	-0.640425	1.096301	-0.291712
C368	C	-0.140425	1.596301	0.208288
C369	C	-0.678049	1.139548	-0.333358
C370	C	-0.178049	1.639548	0.166642
C371	C	-0.707541	1.186403	-0.290597
C372	C	-0.207541	1.686403	0.209403
H373	H	-0.665914	1.070874	-0.260003
H374	H	-0.165914	1.570874	0.239997
H375	H	-0.609416	1.124187	-0.266172
H376	H	-0.109416	1.624187	0.233828
H377	H	-0.709053	1.111664	-0.358886
H378	H	-0.209053	1.611664	0.141114
H379	H	-0.652575	1.164990	-0.365066
H380	H	-0.152575	1.664990	0.134934
H381	H	-0.676533	1.214290	-0.265057
H382	H	-0.176533	1.714290	0.234943
H383	H	-0.733026	1.160970	-0.258890
H384	H	-0.233026	1.660970	0.241110
H385	H	-0.733068	1.215756	-0.318848
H386	H	-0.233068	1.715756	0.181152
C387	C	-0.214681	0.585027	-0.457258
C388	C	0.285319	1.085027	0.042742
C389	C	-0.253707	0.541065	-0.500309
C390	C	0.246293	1.041065	-0.000309
C391	C	-0.216751	0.502472	-0.543718
C392	C	0.283249	1.002472	-0.043718
H393	H	-0.190615	0.616115	-0.485453
H394	H	0.309385	1.116115	0.014547
H395	H	-0.187210	0.557567	-0.429301
H396	H	0.312790	1.057567	0.070699
H397	H	-0.281168	0.568523	-0.528263
H398	H	0.218832	1.068523	-0.028263
H399	H	-0.277773	0.509963	-0.472133
H400	H	0.222227	1.009963	0.027867
H401	H	-0.189279	0.475013	-0.515761
H402	H	0.310721	0.975013	-0.015761
H403	H	-0.192686	0.533566	-0.571908
H404	H	0.307314	1.033566	-0.071908
H405	H	-0.243224	0.472635	-0.572928
H406	H	0.256776	0.972635	-0.072928
C407	C	-1.041098	1.096554	-0.291745
C408	C	-0.541098	1.596554	0.208255
C409	C	-1.023065	1.165230	-0.310050
C410	C	-0.523065	1.665230	0.189950
C411	C	-1.052364	1.212191	-0.267226
C412	C	-0.552364	1.712191	0.232774
H413	H	-1.085458	1.090007	-0.297836
H414	H	-0.585458	1.590007	0.202164
H415	H	-1.028833	1.088375	-0.244185
H416	H	-0.528833	1.588375	0.255815
H417	H	-1.035333	1.173405	-0.357599
H418	H	-0.535333	1.673405	0.142401
H419	H	-0.978709	1.171799	-0.303956
H420	H	-0.478709	1.671799	0.196044
H421	H	-1.040099	1.204013	-0.219666
H422	H	-0.540099	1.704013	0.280334
H423	H	-1.096723	1.205638	-0.273320
H424	H	-0.596723	1.705638	0.226680
H425	H	-1.040128	1.258793	-0.279635
H426	H	-0.540128	1.758793	0.220365
H427	H	-0.329690	0.489050	-0.322620
H428	H	0.170310	0.989050	0.177380
