data_functionalizedCrystal
_audit_creation_method	'MofGen! by Chris Wilmer'
_symmetry_space_group_name_H-M	'P1'
_symmetry_Int_Tables_number	1
_symmetry_cell_setting	triclinic
loop_
_symmetry_equiv_pos_as_xyz
  x,y,z
_cell_length_a	17.699083
_cell_length_b	17.699083
_cell_length_c	16.776229
_cell_angle_alpha	89.992455
_cell_angle_beta	89.998886
_cell_angle_gamma	83.283015
loop_
_atom_site_label
_atom_site_type_symbol
_atom_site_fract_x
_atom_site_fract_y
_atom_site_fract_z
O1	O	1.004078	0.095713	-0.066178
O2	O	0.783700	0.108165	-0.066204
O3	O	0.900116	-0.008250	-0.066183
O4	O	0.887663	0.212128	-0.066199
O5	O	0.900100	-0.008257	0.066393
O6	O	0.783685	0.108158	0.066372
O7	O	1.004063	0.095706	0.066398
Zn8	Zn	0.893871	0.101931	0.087435
Zn9	Zn	0.893892	0.101940	-0.087241
O10	O	0.887648	0.212121	0.066378
C11	C	0.755495	0.107716	0.000081
C12	C	0.671477	0.106377	0.000071
C13	C	0.622856	0.174710	0.000066
C14	C	0.543913	0.173448	0.000077
C15	C	0.513592	0.103852	0.000086
C16	C	0.562219	0.035513	0.000093
C17	C	0.641161	0.036776	0.000088
C18	C	0.243856	0.030418	0.000113
C19	C	0.164908	0.029160	0.000115
C20	C	0.146608	0.167090	0.000101
C21	C	0.225550	0.168353	0.000097
C22	C	0.274170	0.100015	0.000108
C23	C	0.359769	0.101384	0.000098
C24	C	0.427995	0.102481	0.000090
C25	C	0.899662	-0.036451	0.000105
C26	C	0.898323	-0.120469	0.000105
C27	C	0.966656	-0.169090	0.000114
C28	C	0.965394	-0.248033	0.000107
C29	C	0.895798	-0.278354	0.000096
C30	C	0.827459	-0.229727	0.000085
C31	C	0.828722	-0.150785	0.000086
C32	C	0.822364	-0.548090	0.000078
C33	C	0.821106	-0.627038	0.000078
C34	C	0.959036	-0.645338	0.000099
C35	C	0.960299	-0.566396	0.000100
C36	C	0.891961	-0.517776	0.000084
C37	C	0.893330	-0.432177	0.000090
C38	C	0.894427	-0.363951	0.000096
C39	C	1.032268	0.096156	0.000112
C40	C	1.116286	0.097494	0.000116
C41	C	0.888102	0.240322	0.000087
C42	C	0.889440	0.324340	0.000082
N43	N	0.893863	0.101924	0.206646
N44	N	0.893906	0.101941	-0.206452
C45	C	0.945428	0.050396	0.248372
C46	C	0.945432	0.050396	0.331824
C47	C	0.893875	0.101927	0.373549
C48	C	0.842305	0.153457	0.331817
C49	C	0.842297	0.153454	0.248366
C50	C	0.842332	0.153472	0.668364
C51	C	0.842345	0.153473	0.751820
C52	C	0.945466	0.050414	0.751822
C53	C	0.945459	0.050411	0.668372
C54	C	0.893887	0.101938	0.626647
C55	C	0.893882	0.101937	0.536158
C56	C	0.893882	0.101932	0.464036
H57	H	0.140225	-0.027517	0.000124
C58	C	0.785626	0.210167	0.622473
H59	H	0.793001	0.202788	0.566797
H60	H	0.793766	0.260665	0.636148
H61	H	0.735125	0.202021	0.636152
H62	H	0.764429	-0.651721	0.000071
H63	H	0.987419	0.008438	0.365798
H64	H	0.680748	-0.018868	0.000091
H65	H	0.504328	0.229092	0.000072
C66	C	0.785616	0.210146	0.797716
H67	H	0.754892	0.240826	0.760915
H68	H	0.812772	0.241626	0.830266
H69	H	0.754173	0.182940	0.830274
H70	H	0.770792	-0.254420	0.000071
C71	C	0.656202	0.251268	0.000055
H72	H	0.615936	0.291783	0.000062
H73	H	0.686615	0.254632	-0.046178
H74	H	0.686618	0.254624	0.046292
C75	C	1.036854	-0.533047	0.000108
H76	H	1.077372	-0.573311	0.000105
H77	H	1.040211	-0.502636	0.046340
H78	H	1.040215	-0.502629	-0.046131
H79	H	0.987444	0.008452	0.634402
H80	H	0.773078	-0.111198	0.000078
H81	H	0.800322	0.195412	0.365793
H82	H	0.250232	0.225025	0.000085
C83	C	0.785580	0.210137	0.202467
H84	H	0.754880	0.240833	0.239267
H85	H	0.754124	0.182949	0.169921
H86	H	0.812747	0.241611	0.169905
H87	H	0.283434	-0.025228	0.000123
C88	C	0.093124	0.242262	0.000100
H89	H	0.041766	0.231546	0.000113
H90	H	0.102298	0.270807	-0.046137
H91	H	0.102306	0.270802	0.046334
C92	C	1.043214	-0.135744	0.000126
H93	H	1.083729	-0.176010	0.000123
H94	H	1.046571	-0.105334	0.046359
H95	H	1.046578	-0.105325	-0.046112
C96	C	1.002140	-0.006290	0.202483
H97	H	1.032845	-0.036983	0.239289
H98	H	1.033591	0.020893	0.169918
H99	H	0.974966	-0.037767	0.169940
H100	H	0.537526	-0.021154	0.000112
C101	C	1.002188	-0.006273	0.797722
H102	H	0.994805	0.001100	0.853398
H103	H	1.052681	0.001883	0.784039
H104	H	0.994059	-0.056779	0.784052
H105	H	1.021038	-0.287618	0.000116
H106	H	0.766718	-0.508512	0.000065
C107	C	1.034210	-0.698819	0.000107
H108	H	1.075838	-0.669453	0.000123
H109	H	1.036595	-0.729989	-0.046126
H110	H	1.036577	-0.730000	0.046345
