data_functionalizedCrystal
_audit_creation_method	'MofGen! by Chris Wilmer'
_symmetry_space_group_name_H-M	'P1'
_symmetry_Int_Tables_number	1
_symmetry_cell_setting	triclinic
loop_
_symmetry_equiv_pos_as_xyz
  x,y,z
_cell_length_a	15.297475
_cell_length_b	16.625546
_cell_length_c	15.298259
_cell_angle_alpha	80.285010
_cell_angle_beta	88.370891
_cell_angle_gamma	80.324704
loop_
_atom_site_label
_atom_site_type_symbol
_atom_site_fract_x
_atom_site_fract_y
_atom_site_fract_z
Zn1	Zn	1.253508	-0.402736	-0.726648
Zn2	Zn	1.586841	-0.069403	-0.393315
Zn3	Zn	1.920175	0.263930	-0.059982
Zn4	Zn	1.278750	-0.564160	-0.580141
Zn5	Zn	1.612084	-0.230827	-0.246808
Zn6	Zn	1.945417	0.102506	0.086526
Zn7	Zn	1.132361	-0.410579	-0.554872
Zn8	Zn	1.465694	-0.077245	-0.221538
Zn9	Zn	1.799028	0.256088	0.111795
Zn10	Zn	1.106994	-0.518759	-0.701284
Zn11	Zn	1.440327	-0.185426	-0.367950
Zn12	Zn	1.773660	0.147907	-0.034617
O13	O	1.192903	-0.474059	-0.640736
O14	O	1.526237	-0.140725	-0.307403
O15	O	1.859570	0.192608	0.025930
O16	O	1.379437	-0.439868	-0.728404
O17	O	1.712771	-0.106534	-0.395071
O18	O	2.046104	0.226799	-0.061738
O19	O	1.280512	-0.566070	-0.454201
O20	O	1.613845	-0.232736	-0.120868
O21	O	1.947178	0.100597	0.212466
O22	O	1.148484	-0.296708	-0.577698
O23	O	1.481817	0.036626	-0.244365
O24	O	1.815150	0.369959	0.088968
O25	O	1.397983	-0.558465	-0.620766
O26	O	1.731316	-0.225132	-0.287433
O27	O	2.064650	0.108201	0.045901
O28	O	1.237490	-0.290946	-0.703902
O29	O	1.570823	0.042387	-0.370569
O30	O	1.904156	0.375721	-0.037235
O31	O	1.172960	-0.453234	-0.435636
O32	O	1.506293	-0.119901	-0.102303
O33	O	1.839627	0.213433	0.231031
O34	O	1.006415	-0.409211	-0.553103
O35	O	1.339748	-0.075877	-0.219770
O36	O	1.673081	0.257456	0.113563
O37	O	1.105249	-0.481086	-0.827236
O38	O	1.438582	-0.147753	-0.493903
O39	O	1.771916	0.185581	-0.160570
O40	O	0.987778	-0.488690	-0.660672
O41	O	1.321111	-0.155357	-0.327338
O42	O	1.654444	0.177976	0.005995
O43	O	1.212892	-0.395844	-0.845872
O44	O	1.546226	-0.062511	-0.512538
O45	O	1.879559	0.270822	-0.179205
O46	O	1.255914	-0.670968	-0.596171
O47	O	1.589247	-0.337635	-0.262837
O48	O	1.922581	-0.004301	0.070496
O49	O	1.129725	-0.637612	-0.685174
O50	O	1.463059	-0.304279	-0.351841
O51	O	1.796392	0.029054	-0.018507
C52	C	0.965312	-0.444875	-0.601393
C53	C	1.298646	-0.111542	-0.268060
C54	C	1.631979	0.221791	0.065273
C55	C	0.867944	-0.432406	-0.584583
C56	C	1.201277	-0.099073	-0.251250
C57	C	1.534611	0.234260	0.082083
C58	C	0.554824	-0.563182	-0.760884
C59	C	0.888158	-0.229849	-0.427550
C60	C	1.221491	0.103485	-0.094217
C61	C	0.646307	-0.574904	-0.776675
C62	C	0.979640	-0.241570	-0.443342
C63	C	1.312973	0.091763	-0.110009
C64	C	0.701720	-0.539280	-0.728654
C65	C	1.035054	-0.205947	-0.395321
C66	C	1.368387	0.127387	-0.061987
C67	C	0.665643	-0.491933	-0.664838
C68	C	0.998976	-0.158600	-0.331504
C69	C	1.332310	0.174733	0.001829
C70	C	0.574152	-0.480216	-0.649040
C71	C	0.907486	-0.146883	-0.315706
C72	C	1.240819	0.186451	0.017627
C73	C	0.721048	-0.456314	-0.616810
C74	C	1.054382	-0.122981	-0.283477
C75	C	1.387715	0.210353	0.049857
C76	C	0.684971	-0.408967	-0.552994
C77	C	1.018304	-0.075634	-0.219660
C78	C	1.351638	0.257699	0.113673
C79	C	0.593489	-0.397251	-0.537199
C80	C	0.926822	-0.063918	-0.203866
C81	C	1.260156	0.269415	0.129468
C82	C	0.538075	-0.432875	-0.585220
C83	C	0.871409	-0.099542	-0.251887
C84	C	1.204742	0.233792	0.081446
C85	C	0.812539	-0.468032	-0.632608
C86	C	1.145872	-0.134698	-0.299275
C87	C	1.479206	0.198635	0.034059
C88	C	0.831867	-0.385065	-0.520764
C89	C	1.165201	-0.051732	-0.187431
C90	C	1.498534	0.281601	0.145903
C91	C	0.740385	-0.373344	-0.504972
C92	C	1.073718	-0.040010	-0.171639
C93	C	1.407051	0.293323	0.161694
C94	C	1.192827	-0.683545	-0.640685
C95	C	1.526160	-0.350212	-0.307352
C96	C	1.859493	-0.016879	0.025981
C97	C	1.192869	-0.773170	-0.640707
C98	C	1.526202	-0.439836	-0.307373
C99	C	1.859536	-0.106503	0.025960
C100	C	1.193006	-1.101348	-0.640824
C101	C	1.526339	-0.768015	-0.307491
C102	C	1.859673	-0.434682	0.025842
C103	C	1.192965	-1.010038	-0.640793
C104	C	1.526298	-0.676705	-0.307460
C105	C	1.859631	-0.343372	0.025873
C106	C	1.192937	-0.937262	-0.640765
C107	C	1.526270	-0.603929	-0.307431
C108	C	1.859604	-0.270595	0.025902
C109	C	1.192897	-0.845946	-0.640735
C110	C	1.526230	-0.512613	-0.307402
C111	C	1.859563	-0.179279	0.025932
C112	C	1.421383	-0.503356	-0.680233
C113	C	1.754716	-0.170023	-0.346900
C114	C	2.088049	0.163311	-0.013566
C115	C	1.518747	-0.515841	-0.697064
C116	C	1.852081	-0.182508	-0.363731
C117	C	2.185414	0.150826	-0.030398
C118	C	1.153425	-0.432526	-0.869228
C119	C	1.486758	-0.099193	-0.535895
C120	C	1.820092	0.234141	-0.202562
C121	C	1.136602	-0.414827	-0.966598
C122	C	1.469935	-0.081494	-0.633265
C123	C	1.803269	0.251839	-0.299931
C124	C	1.193001	-0.263753	-0.640811
C125	C	1.526334	0.069580	-0.307477
C126	C	1.859667	0.402913	0.025856
C127	C	1.193042	-0.174134	-0.640842
C128	C	1.526375	0.159200	-0.307509
C129	C	1.859709	0.492533	0.025824
C130	C	1.313170	-0.599936	-1.279724
C131	C	1.646503	-0.266603	-0.946391
C132	C	1.979836	0.066730	-0.613057
C133	C	1.328971	-0.616570	-1.188239
C134	C	1.662305	-0.283236	-0.854906
C135	C	1.995638	0.050097	-0.521573
C136	C	1.280881	-0.566135	-1.132825
C137	C	1.614214	-0.232802	-0.799491
C138	C	1.947547	0.100531	-0.466158
C139	C	1.216985	-0.499065	-1.168903
C140	C	1.550318	-0.165732	-0.835570
C141	C	1.883652	0.167601	-0.502237
C142	C	1.201177	-0.482434	-1.260396
C143	C	1.534510	-0.149101	-0.927063
C144	C	1.867844	0.184233	-0.593729
C145	C	1.168888	-0.448633	-1.113497
C146	C	1.502221	-0.115300	-0.780163
C147	C	1.835555	0.218034	-0.446830
C148	C	1.104992	-0.381563	-1.149575
C149	C	1.438326	-0.048230	-0.816242
C150	C	1.771659	0.285104	-0.482909
C151	C	1.089188	-0.364935	-1.241059
C152	C	1.422521	-0.031601	-0.907726
C153	C	1.755854	0.301732	-0.574393
C154	C	1.137278	-0.415369	-1.296474
C155	C	1.470611	-0.082035	-0.963140
C156	C	1.803945	0.251298	-0.629807
C157	C	1.184696	-0.465264	-1.022004
C158	C	1.518029	-0.131931	-0.688671
C159	C	1.851363	0.201402	-0.355337
C160	C	1.072703	-0.347762	-1.002676
C161	C	1.406037	-0.014429	-0.669343
C162	C	1.739370	0.318905	-0.336009
C163	C	1.056902	-0.331129	-1.094161
C164	C	1.390235	0.002205	-0.760827
C165	C	1.723568	0.335538	-0.427494
C166	C	1.232278	-0.515378	-0.413142
C167	C	1.565611	-0.182044	-0.079808
C168	C	1.898945	0.151289	0.253525
C169	C	1.249271	-0.532871	-0.315802
C170	C	1.582604	-0.199538	0.017532
C171	C	1.915938	0.133796	0.350865
H172	H	0.776209	-0.548826	-0.741516
H173	H	1.109542	-0.215493	-0.408182
H174	H	1.442876	0.117840	-0.074849
Cl175	Cl	0.548138	-0.337737	-0.456966
Cl176	Cl	0.881471	-0.004404	-0.123632
Cl177	Cl	1.214804	0.328929	0.209701
Cl178	Cl	1.373609	-0.663338	-1.349388
Cl179	Cl	1.706942	-0.330005	-1.016055
Cl180	Cl	2.040276	0.003329	-0.682722
Cl181	Cl	0.485162	-0.607980	-0.821226
Cl182	Cl	0.818496	-0.274647	-0.487893
Cl183	Cl	1.151829	0.058686	-0.154560
H184	H	0.463581	-0.423332	-0.572368
H185	H	0.796915	-0.089998	-0.239035
H186	H	1.130248	0.243335	0.094299
Cl187	Cl	0.695019	-0.313824	-0.424749
Cl188	Cl	1.028352	0.019509	-0.091416
Cl189	Cl	1.361686	0.352843	0.241918
H190	H	0.876986	-0.356059	-0.481660
H191	H	1.210319	-0.022726	-0.148326
H192	H	1.543652	0.310607	0.185007
Cl193	Cl	1.409295	-0.700881	-1.142890
Cl194	Cl	1.742629	-0.367547	-0.809557
Cl195	Cl	2.075962	-0.034214	-0.476223
Cl196	Cl	1.265020	-0.549578	-0.976659
Cl197	Cl	1.598353	-0.216244	-0.643326
Cl198	Cl	1.931687	0.117089	-0.309993
Cl199	Cl	1.300751	-0.587044	-1.017815
Cl200	Cl	1.634084	-0.253711	-0.684482
Cl201	Cl	1.967418	0.079623	-0.351148
H202	H	1.124418	-0.401828	-1.370969
H203	H	1.457751	-0.068495	-1.037636
H204	H	1.791085	0.264839	-0.704303
Cl205	Cl	0.976577	-0.246816	-1.139527
Cl206	Cl	1.309911	0.086518	-0.806194
Cl207	Cl	1.643244	0.419851	-0.472861
H208	H	1.037151	-0.310328	-1.270430
H209	H	1.370485	0.023005	-0.937096
H210	H	1.703818	0.356339	-0.603763
Cl211	Cl	0.691655	-0.634424	-0.856896
Cl212	Cl	1.024989	-0.301090	-0.523563
Cl213	Cl	1.358322	0.032243	-0.190230
H214	H	1.033543	-0.306695	-0.957557
H215	H	1.366876	0.026639	-0.624224
H216	H	1.700210	0.359972	-0.290890
H217	H	0.841904	-0.506581	-0.684568
H218	H	1.175237	-0.173248	-0.351235
H219	H	1.508571	0.160085	-0.017902
