data_functionalizedCrystal
_audit_creation_method	'MofGen! by Chris Wilmer'
_symmetry_space_group_name_H-M	'P1'
_symmetry_Int_Tables_number	1
_symmetry_cell_setting	triclinic
loop_
_symmetry_equiv_pos_as_xyz
  x,y,z
_cell_length_a	19.805407
_cell_length_b	19.805405
_cell_length_c	11.169409
_cell_angle_alpha	89.960201
_cell_angle_beta	89.974307
_cell_angle_gamma	90.028350
loop_
_atom_site_label
_atom_site_type_symbol
_atom_site_fract_x
_atom_site_fract_y
_atom_site_fract_z
Zn1	Zn	1.034771	-0.269374	-0.678644
Zn2	Zn	1.534771	0.230626	-0.178644
Zn3	Zn	1.034675	-0.382583	-0.477935
Zn4	Zn	1.534675	0.117417	0.022065
Zn5	Zn	0.921575	-0.269417	-0.477961
Zn6	Zn	1.421575	0.230583	0.022039
Zn7	Zn	0.921549	-0.382530	-0.678562
Zn8	Zn	1.421549	0.117470	-0.178562
O9	O	0.978143	-0.325976	-0.578275
O10	O	1.478143	0.174024	-0.078275
O11	O	1.129475	-0.284395	-0.652043
O12	O	1.629475	0.215605	-0.152043
O13	O	1.019643	-0.367611	-0.309988
O14	O	1.519643	0.132389	0.190012
O15	O	0.936642	-0.174695	-0.504627
O16	O	1.436642	0.325305	-0.004627
O17	O	1.129405	-0.367569	-0.504583
O18	O	1.629405	0.132431	-0.004583
O19	O	1.019806	-0.174663	-0.652069
O20	O	1.519806	0.325337	-0.152069
O21	O	0.936549	-0.284469	-0.310007
O22	O	1.436549	0.215531	0.189993
O23	O	0.826855	-0.284418	-0.504547
O24	O	1.326855	0.215582	-0.004547
O25	O	0.936597	-0.367479	-0.846523
O26	O	1.436597	0.132521	-0.346523
O27	O	0.826836	-0.367521	-0.651928
O28	O	1.326836	0.132479	-0.151928
O29	O	1.019781	-0.284344	-0.846583
O30	O	1.519781	0.215656	-0.346583
O31	O	1.019618	-0.477292	-0.504503
O32	O	1.519618	0.022708	-0.004503
O33	O	0.936505	-0.477254	-0.651903
O34	O	1.436505	0.022746	-0.151903
C35	C	0.802287	-0.325969	-0.578232
C36	C	1.302287	0.174031	-0.078232
C37	C	0.727055	-0.325982	-0.578242
C38	C	1.227055	0.174018	-0.078242
C39	C	0.265304	-0.282748	-0.655222
C40	C	0.765304	0.217252	-0.155222
C41	C	0.335992	-0.282749	-0.655213
C42	C	0.835992	0.217251	-0.155213
C43	C	0.371293	-0.325986	-0.578314
C44	C	0.871293	0.174014	-0.078314
C45	C	0.335902	-0.369229	-0.501427
C46	C	0.835902	0.130771	-0.001427
C47	C	0.265215	-0.369231	-0.501443
C48	C	0.765215	0.130769	-0.001443
C49	C	0.620975	-0.369224	-0.501364
C50	C	1.120975	0.130776	-0.001364
C51	C	0.691667	-0.369218	-0.501351
C52	C	1.191667	0.130782	-0.001351
C53	C	0.691753	-0.282742	-0.655134
C54	C	1.191753	0.217258	-0.155134
C55	C	0.621065	-0.282744	-0.655150
C56	C	1.121065	0.217256	-0.155150
C57	C	0.585680	-0.325990	-0.578268
C58	C	1.085680	0.174010	-0.078268
C59	C	0.509032	-0.325989	-0.578280
C60	C	1.009032	0.174011	-0.078280
C61	C	0.447940	-0.325984	-0.578295
C62	C	0.947940	0.174016	-0.078295
C63	C	0.978067	-0.501832	-0.578217
C64	C	1.478067	-0.001832	-0.078217
C65	C	0.978096	-0.577064	-0.578233
C66	C	1.478096	-0.077064	-0.078233
C67	C	1.021415	-0.612406	-0.501562
C68	C	1.521415	-0.112406	-0.001562
C69	C	1.021444	-0.683094	-0.501588
C70	C	1.521444	-0.183094	-0.001588
C71	C	0.978149	-0.718439	-0.578280
C72	C	1.478149	-0.218439	-0.078280
C73	C	0.934828	-0.683093	-0.654960
C74	C	1.434828	-0.183093	-0.154960
C75	C	0.934804	-0.612405	-0.654938
C76	C	1.434804	-0.112405	-0.154938
C77	C	0.934928	-0.968166	-0.655049
C78	C	1.434928	-0.468166	-0.155049
C79	C	0.934955	-1.038858	-0.655061
C80	C	1.434955	-0.538858	-0.155061
C81	C	1.021568	-1.038855	-0.501699
C82	C	1.521568	-0.538855	-0.001699
C83	C	1.021544	-0.968167	-0.501677
C84	C	1.521544	-0.468167	-0.001677
C85	C	0.978225	-0.932827	-0.578360
C86	C	1.478225	-0.432827	-0.078360
C87	C	0.978196	-0.856178	-0.578332
C88	C	1.478196	-0.356178	-0.078332
C89	C	0.978175	-0.795087	-0.578303
C90	C	1.478175	-0.295087	-0.078303
C91	C	1.154685	-0.325983	-0.578320
C92	C	1.654685	0.174017	-0.078320
C93	C	1.229917	-0.325987	-0.578338
C94	C	1.729917	0.174013	-0.078338
C95	C	0.978197	-0.325901	-0.891318
C96	C	1.478197	0.174099	-0.391318
C97	C	0.978220	-0.325869	-1.024718
C98	C	1.478220	0.174131	-0.524718
C99	C	0.978238	-0.149433	-0.578360
C100	C	1.478238	0.350567	-0.078360
C101	C	0.978278	-0.074201	-0.578396
C102	C	1.478278	0.425799	-0.078396
C103	C	0.978128	-0.326002	-0.266451
C104	C	1.478128	0.173998	0.233549
C105	C	0.978236	-0.325843	-0.133051
C106	C	1.478236	0.174157	0.366949
H107	H	0.592173	-0.404436	-0.438758
H108	H	1.092173	0.095564	0.061242
H109	H	0.899530	-0.583631	-0.717373
H110	H	1.399530	-0.083631	-0.217373
F111	F	0.373473	-0.415249	-0.419591
F112	F	0.873473	0.084751	0.080409
F113	F	0.729418	-0.236719	-0.736964
F114	F	1.229418	0.263281	-0.236964
H115	H	0.236404	-0.404442	-0.438839
H116	H	0.736404	0.095558	0.061161
H117	H	0.236567	-0.247535	-0.717835
H118	H	0.736567	0.252465	-0.217835
F119	F	0.729235	-0.415239	-0.419501
F120	F	1.229235	0.084761	0.080499
F121	F	0.583500	-0.236724	-0.736993
F122	F	1.083500	0.263276	-0.236993
F123	F	0.888874	-1.076474	-0.736693
F124	F	1.388874	-0.576474	-0.236693
H125	H	1.056718	-0.711866	-0.439155
H126	H	1.556718	-0.211866	0.060845
H127	H	0.364801	-0.247542	-0.717824
H128	H	0.864801	0.252458	-0.217824
F129	F	0.888824	-0.930563	-0.736660
F130	F	1.388824	-0.430563	-0.236660
F131	F	1.067623	-0.930554	-0.420051
F132	F	1.567623	-0.430554	0.079949
H133	H	1.056667	-0.583632	-0.439105
H134	H	1.556667	-0.083632	0.060895
H135	H	1.056843	-1.067637	-0.439264
H136	H	1.556843	-0.567637	0.060736
F137	F	0.888755	-0.720711	-0.736588
F138	F	1.388755	-0.220711	-0.236588
