data_functionalizedCrystal
_audit_creation_method	'MofGen! by Chris Wilmer'
_symmetry_space_group_name_H-M	'P1'
_symmetry_Int_Tables_number	1
_symmetry_cell_setting	triclinic
loop_
_symmetry_equiv_pos_as_xyz
  x,y,z
_cell_length_a	11.026607
_cell_length_b	14.971482
_cell_length_c	13.448316
_cell_angle_alpha	89.993798
_cell_angle_beta	90.003018
_cell_angle_gamma	83.900688
loop_
_atom_site_label
_atom_site_type_symbol
_atom_site_fract_x
_atom_site_fract_y
_atom_site_fract_z
O1	O	-0.158159	1.212291	-0.082674
O2	O	0.341841	1.712291	0.417326
O3	O	-0.177106	0.954926	-0.082678
O4	O	0.322894	1.454926	0.417322
O5	O	0.009051	1.062278	-0.082675
O6	O	0.509051	1.562278	0.417325
O7	O	-0.344316	1.104939	-0.082677
O8	O	0.155684	1.604939	0.417323
O9	O	0.009063	1.062259	0.082709
O10	O	0.509063	1.562259	0.582709
O11	O	-0.177094	0.954907	0.082706
O12	O	0.322906	1.454907	0.582706
O13	O	-0.158147	1.212272	0.082710
O14	O	0.341853	1.712272	0.582710
Cu15	Cu	-0.167620	1.083588	0.097809
Cu16	Cu	0.332380	1.583588	0.597809
Cu17	Cu	-0.167633	1.083610	-0.097777
Cu18	Cu	0.332367	1.583610	0.402223
O19	O	-0.344304	1.104919	0.082707
O20	O	0.155696	1.604919	0.582707
C21	C	-0.176254	0.921456	0.000013
C22	C	0.323746	1.421456	0.500013
C23	C	-0.173717	0.821752	0.000011
C24	C	0.326283	1.321752	0.500011
C25	C	-0.172516	0.774906	0.090163
C26	C	0.327484	1.274906	0.590163
C27	C	-0.170113	0.681222	0.090164
C28	C	0.329887	1.181222	0.590164
C29	C	-0.168919	0.634388	0.000013
C30	C	0.331081	1.134388	0.500013
C31	C	-0.170117	0.681240	-0.090146
C32	C	0.329883	1.181240	0.409854
C33	C	-0.172511	0.774922	-0.090146
C34	C	0.327489	1.274922	0.409854
C35	C	-0.165129	0.485979	-0.090140
C36	C	0.334871	0.985979	0.409860
C37	C	-0.162737	0.392292	-0.090140
C38	C	0.337263	0.892292	0.409860
C39	C	-0.162731	0.392280	0.090171
C40	C	0.337269	0.892280	0.590171
C41	C	-0.165125	0.485961	0.090171
C42	C	0.334875	0.985961	0.590171
C43	C	-0.166325	0.532808	0.000012
C44	C	0.333675	1.032808	0.500012
C45	C	-0.389532	1.112799	0.000015
C46	C	0.110468	1.612799	0.500015
C47	C	-0.524280	1.136260	0.000014
C48	C	-0.024280	1.636260	0.500014
C49	C	-0.597993	1.071480	0.000012
C50	C	-0.097993	1.571480	0.500012
C51	C	-0.737262	1.095727	0.000011
C52	C	-0.237262	1.595727	0.500011
C53	C	0.054279	1.054399	0.000015
C54	C	0.554279	1.554399	0.500015
C55	C	0.189027	1.030938	0.000009
C56	C	0.689027	1.530938	0.500009
C57	C	-0.158999	1.245742	0.000016
C58	C	0.341001	1.745742	0.500016
C59	C	-0.161536	1.345445	0.000012
C60	C	0.338464	1.845445	0.500012
N61	N	-0.167609	1.083578	0.235373
N62	N	0.332391	1.583578	0.735373
N63	N	-0.167634	1.083625	-0.235341
N64	N	0.332366	1.583625	0.264659
C65	C	-0.085213	1.131138	0.287415
C66	C	0.414787	1.631138	0.787415
C67	C	-0.085212	1.131143	0.391518
C68	C	0.414788	1.631143	0.891518
C69	C	-0.167614	1.083594	0.443578
C70	C	0.332386	1.583594	0.943578
C71	C	-0.250015	1.036028	0.391528
C72	C	0.249985	1.536028	0.891528
C73	C	-0.250009	1.036018	0.287427
C74	C	0.249991	1.536018	0.787427
C75	C	-0.250023	1.036054	0.608509
C76	C	0.249977	1.536054	1.108509
C77	C	-0.250030	1.036065	0.712617
C78	C	0.249970	1.536065	1.212617
C79	C	-0.085226	1.131180	0.712599
C80	C	0.414774	1.631180	1.212599
C81	C	-0.085220	1.131170	0.608498
C82	C	0.414780	1.631170	1.108498
C83	C	-0.167622	1.083605	0.556456
C84	C	0.332378	1.583605	1.056456
H85	H	-0.173491	0.813063	-0.163557
H86	H	0.326509	1.313063	0.336443
H87	H	-0.018131	1.169908	0.754978
H88	H	0.481869	1.669908	1.254978
H89	H	-0.317120	0.997318	0.566140
H90	H	0.182880	1.497318	1.066140
H91	H	-0.317130	0.997344	0.754999
H92	H	0.182870	1.497344	1.254999
H93	H	-0.317103	0.997288	0.245056
H94	H	0.182897	1.497288	0.745056
Cl95	Cl	-0.174023	0.833775	0.203504
Cl96	Cl	0.325977	1.333775	0.703504
Cl97	Cl	-0.168625	0.622335	0.203503
Cl98	Cl	0.331375	1.122335	0.703503
H99	H	-0.166104	0.524092	0.163580
H100	H	0.333896	1.024092	0.663580
Cl101	Cl	-0.536252	0.958137	-0.000003
Cl102	Cl	-0.036252	1.458137	0.499997
Cl103	Cl	-0.586020	1.249604	0.000007
Cl104	Cl	-0.086020	1.749604	0.500007
Cl105	Cl	-0.798996	1.209075	0.000005
Cl106	Cl	-0.298996	1.709075	0.500005
Cl107	Cl	-0.161234	0.333415	-0.203475
Cl108	Cl	0.338766	0.833415	0.296525
H109	H	-0.018118	1.169869	0.433890
H110	H	0.481882	1.669869	0.933890
Cl111	Cl	-0.353602	0.976245	0.456973
Cl112	Cl	0.146398	1.476245	0.956973
H113	H	-0.770984	0.957522	0.000004
H114	H	-0.270984	1.457522	0.500004
H115	H	-0.018117	1.169863	0.245035
H116	H	0.481883	1.669863	0.745035
Cl117	Cl	-0.166635	0.544870	-0.203485
Cl118	Cl	0.333365	1.044870	0.296515
Cl119	Cl	-0.161223	0.333388	0.203514
Cl120	Cl	0.338777	0.833388	0.703514
Cl121	Cl	-0.168572	0.622359	-0.203481
Cl122	Cl	0.331428	1.122359	0.296519
Cl123	Cl	0.018364	1.190953	0.543050
Cl124	Cl	0.518364	1.690953	1.043050
