data_functionalizedCrystal
_audit_creation_method	'MofGen! by Chris Wilmer'
_symmetry_space_group_name_H-M	'P1'
_symmetry_Int_Tables_number	1
_symmetry_cell_setting	triclinic
loop_
_symmetry_equiv_pos_as_xyz
  x,y,z
_cell_length_a	6.817900
_cell_length_b	11.168136
_cell_length_c	11.168130
_cell_angle_alpha	92.019983
_cell_angle_beta	108.508653
_cell_angle_gamma	108.508683
loop_
_atom_site_label
_atom_site_type_symbol
_atom_site_fract_x
_atom_site_fract_y
_atom_site_fract_z
V1	V	-4.109882	-0.393709	-0.174724
O2	O	-4.069466	-0.386204	0.008377
O3	O	-4.086170	-0.391026	-0.346429
O4	O	-4.086173	-0.565415	-0.172044
O5	O	-4.069464	-0.210609	-0.167215
V6	V	-4.587112	-0.371808	-0.152822
O7	O	-4.384946	-0.441752	-0.222767
O8	O	-4.762246	-0.323765	-0.104778
O9	O	-4.387617	-0.374490	0.018883
O10	O	-4.744925	-0.379313	-0.335922
O11	O	-4.744927	-0.554908	-0.160330
O12	O	-4.387615	-0.200102	-0.155501
C13	C	-3.936378	-0.384818	-0.388286
C14	C	-3.998442	-0.383769	-0.528658
C15	C	-4.082926	-0.493195	-0.608381
C16	C	-4.147074	-0.492113	-0.753462
C17	C	-3.936380	-0.607266	-0.165840
C18	C	-3.998442	-0.747637	-0.164786
C19	C	-4.200950	-0.816329	-0.170305
C20	C	-4.265098	-0.961409	-0.169216
C21	C	-4.200752	-0.380695	0.060735
C22	C	-4.117927	-0.381753	0.201105
C23	C	-4.200750	-0.158244	-0.161709
C24	C	-4.117925	-0.017872	-0.162757
H25	H	-4.326829	-0.767730	-0.175828
H26	H	-3.973590	-0.289285	-0.567811
O27	O	-4.494900	-1.039610	-0.175465
H28	H	-4.509216	-1.141287	-0.173616
H29	H	-4.107753	-0.587678	-0.569227
H30	H	-4.219516	-0.585795	-0.821957
O31	O	-3.888109	-0.939659	-0.156474
H32	H	-3.897540	-0.892732	-0.243080
O33	O	-4.021957	-0.257644	-0.708188
H34	H	-4.130109	-0.257342	-0.652037
O35	O	-3.831474	-0.811810	-0.157600
H36	H	-3.804316	-0.858163	-0.070429
