data_functionalizedCrystal
_audit_creation_method	'MofGen! by Chris Wilmer'
_symmetry_space_group_name_H-M	'P1'
_symmetry_Int_Tables_number	1
_symmetry_cell_setting	triclinic
loop_
_symmetry_equiv_pos_as_xyz
  x,y,z
_cell_length_a	12.759395
_cell_length_b	18.101395
_cell_length_c	12.759387
_cell_angle_alpha	89.966033
_cell_angle_beta	89.981185
_cell_angle_gamma	90.032641
loop_
_atom_site_label
_atom_site_type_symbol
_atom_site_fract_x
_atom_site_fract_y
_atom_site_fract_z
Zn1	Zn	1.606131	-0.294752	-0.593990
Zn2	Zn	2.106131	0.205248	-0.093990
Zn3	Zn	1.605977	-0.418614	-0.418305
Zn4	Zn	2.105977	0.081386	0.081695
Zn5	Zn	1.430435	-0.294795	-0.418327
Zn6	Zn	1.930435	0.205205	0.081673
Zn7	Zn	1.430372	-0.418559	-0.593944
Zn8	Zn	1.930372	0.081441	-0.093944
O9	O	1.518229	-0.356680	-0.506141
O10	O	2.018229	0.143320	-0.006141
O11	O	1.753132	-0.311188	-0.570695
O12	O	2.253132	0.188812	-0.070695
O13	O	1.582653	-0.402231	-0.271286
O14	O	2.082653	0.097769	0.228714
O15	O	1.453832	-0.191156	-0.441658
O16	O	1.953832	0.308844	0.058342
O17	O	1.753018	-0.402189	-0.441620
O18	O	2.253018	0.097811	0.058380
O19	O	1.582916	-0.191125	-0.570717
O20	O	2.082916	0.308875	-0.070717
O21	O	1.453683	-0.311261	-0.271303
O22	O	1.953683	0.188739	0.228697
O23	O	1.283405	-0.311207	-0.441613
O24	O	1.783405	0.188793	0.058387
O25	O	1.453725	-0.402095	-0.740971
O26	O	1.953725	0.097905	-0.240971
O27	O	1.283359	-0.402137	-0.570638
O28	O	1.783359	0.097863	-0.070638
O29	O	1.582855	-0.311134	-0.741005
O30	O	2.082855	0.188866	-0.241005
O31	O	1.582591	-0.522240	-0.441575
O32	O	2.082591	-0.022240	0.058425
O33	O	1.453575	-0.522200	-0.570616
O34	O	1.953575	-0.022200	-0.070616
C35	C	1.245261	-0.356671	-0.506123
C36	C	1.745261	0.143329	-0.006123
C37	C	1.128485	-0.356685	-0.506141
C38	C	1.628485	0.143315	-0.006141
C39	C	1.128475	-0.451523	-0.640277
C40	C	1.628475	0.048477	-0.140277
C41	C	1.073609	-0.498948	-0.707348
C42	C	1.573609	0.001052	-0.207348
C43	C	0.963887	-0.498957	-0.707361
C44	C	1.463887	0.001043	-0.207361
C45	C	0.909029	-0.451534	-0.640297
C46	C	1.409029	0.048466	-0.140297
C47	C	0.963895	-0.404109	-0.573226
C48	C	1.463895	0.095891	-0.073226
C49	C	1.073619	-0.404107	-0.573219
C50	C	1.573619	0.095893	-0.073219
C51	C	0.963904	-0.309269	-0.439097
C52	C	1.463904	0.190731	0.060903
C53	C	1.073626	-0.309263	-0.439077
C54	C	1.573626	0.190737	0.060923
C55	C	0.909046	-0.261846	-0.372034
C56	C	1.409046	0.238154	0.127966
C57	C	0.963912	-0.214424	-0.304956
C58	C	1.463912	0.285576	0.195044
C59	C	1.073640	-0.214418	-0.304945
C60	C	1.573640	0.285582	0.195055
C61	C	1.128492	-0.261838	-0.372006
C62	C	1.628492	0.238162	0.127994
C63	C	1.518088	-0.549091	-0.506111
C64	C	2.018088	-0.049091	-0.006111
C65	C	1.518124	-0.631405	-0.506133
C66	C	2.018124	-0.131405	-0.006133
C67	C	1.518355	-0.930496	-0.506189
C68	C	2.018355	-0.430496	-0.006189
C69	C	1.437369	-0.899176	-0.587580
C70	C	1.937369	-0.399176	-0.087580
C71	C	1.436984	-0.813558	-0.587325
C72	C	1.936984	-0.313558	-0.087325
C73	C	1.518240	-0.782113	-0.506162
C74	C	2.018240	-0.282113	-0.006162
C75	C	1.488261	-0.813274	-0.395437
C76	C	1.988261	-0.313274	0.104563
C77	C	1.487739	-0.898919	-0.395924
C78	C	1.987739	-0.398919	0.104076
C79	C	1.629497	-0.898835	-0.534549
C80	C	2.129497	-0.398835	-0.034549
C81	C	1.628843	-0.813184	-0.536977
C82	C	2.128843	-0.313184	-0.036977
C83	C	1.518177	-0.698254	-0.506140
C84	C	2.018177	-0.198254	-0.006140
C85	C	1.518415	-1.014355	-0.506204
C86	C	2.018415	-0.514355	-0.006204
C87	C	1.792262	-0.356690	-0.506160
C88	C	2.292262	0.143310	-0.006160
C89	C	1.909039	-0.356694	-0.506168
C90	C	2.409039	0.143306	-0.006168
C91	C	1.518300	-0.356604	-0.780175
C92	C	2.018300	0.143396	-0.280175
C93	C	1.518330	-0.356571	-0.896952
C94	C	2.018330	0.143429	-0.396952
C95	C	1.518398	-0.163518	-0.506196
C96	C	2.018398	0.336482	-0.006196
C97	C	1.518471	-0.081204	-0.506219
C98	C	2.018471	0.418796	-0.006219
C99	C	1.384043	-0.261838	-0.896988
C100	C	1.884043	0.238162	-0.396988
C101	C	1.316918	-0.214456	-0.951867
C102	C	1.816918	0.285544	-0.451867
C103	C	1.316949	-0.214429	-1.061589
C104	C	1.816949	0.285571	-0.561589
C105	C	1.384111	-0.261791	-1.116434
C106	C	1.884111	0.238209	-0.616434
C107	C	1.451235	-0.309172	-1.061555
C108	C	1.951235	0.190828	-0.561555
C109	C	1.451199	-0.309192	-0.951831
C110	C	1.951199	0.190808	-0.451831
C111	C	1.585516	-0.403908	-1.061519
C112	C	2.085516	0.096092	-0.561519
C113	C	1.585492	-0.403932	-0.951797
C114	C	2.085492	0.096068	-0.451797
C115	C	1.652677	-0.451269	-1.116364
C116	C	2.152677	0.048731	-0.616364
C117	C	1.719809	-0.498648	-1.061485
C118	C	2.219809	0.001352	-0.561485
C119	C	1.719775	-0.498672	-0.951757
C120	C	2.219775	0.001328	-0.451757
C121	C	1.652616	-0.451314	-0.896918
C122	C	2.152616	0.048686	-0.396918
C123	C	1.518218	-0.356703	-0.233174
C124	C	2.018218	0.143297	0.266826
C125	C	1.518391	-0.356527	-0.116398
C126	C	2.018391	0.143473	0.383602
H127	H	1.455741	-0.792487	-0.669427
H128	H	1.955741	-0.292487	-0.169427
H129	H	1.384019	-0.261849	-0.807647
H130	H	1.884019	0.238151	-0.307647
F131	F	0.792270	-0.261853	-0.372055
F132	F	1.292270	0.238147	0.127945
F133	F	0.905494	-0.549427	-0.778750
F134	F	1.405494	-0.049427	-0.278750
H135	H	1.262234	-0.175897	-0.907200
H136	H	1.762234	0.324103	-0.407200
F137	F	1.132024	-0.163937	-0.233563
F138	F	1.632024	0.336063	0.266437
H139	H	1.217816	-0.451526	-0.640265
H140	H	1.717816	0.048474	-0.140265
H141	H	1.774482	-0.537209	-1.106149
H142	H	2.274482	-0.037209	-0.606149
F143	F	1.791215	-0.549107	-0.893359
F144	F	2.291215	-0.049107	-0.393359
F145	F	1.245268	-0.261838	-0.371996
F146	F	1.745268	0.238162	0.128004
H147	H	0.919237	-0.175813	-0.250364
H148	H	1.419237	0.324187	0.249636
H149	H	0.819688	-0.451539	-0.640323
H150	H	1.319688	0.048461	-0.140323
F151	F	1.652579	-0.451332	-0.780142
F152	F	2.152579	0.048668	-0.280142
H153	H	1.355489	-0.920765	-0.569031
H154	H	1.855489	-0.420765	-0.069031
F155	F	1.461638	-0.926025	-0.695243
F156	F	1.961638	-0.426025	-0.195243
H157	H	1.545391	-0.792908	-0.333141
H158	H	2.045391	-0.292908	0.166859
H159	H	1.262289	-0.175848	-1.106271
H160	H	1.762289	0.324152	-0.606271
H161	H	1.354603	-0.793138	-0.568540
H162	H	1.854603	-0.293138	-0.068540
F163	F	1.381547	-0.925124	-0.364523
F164	F	1.881547	-0.425124	0.135477
H165	H	1.544166	-0.919641	-0.333213
H166	H	2.044166	-0.419641	0.166787
H167	H	1.656829	-0.920376	-0.613914
H168	H	2.156829	-0.420376	-0.113914
F169	F	1.383191	-0.785332	-0.363471
F170	F	1.883191	-0.285332	0.136529
F171	F	1.711887	-0.785196	-0.465147
F172	F	2.211887	-0.285196	0.034853
F173	F	1.384125	-0.261771	-1.233210
F174	F	1.884125	0.238229	-0.733210
H175	H	1.118287	-0.537557	-0.761951
H176	H	1.618287	-0.037557	-0.261951
H177	H	1.651451	-0.792813	-0.618465
H178	H	2.151451	-0.292813	-0.118465
H179	H	1.689834	-0.919088	-0.475269
H180	H	2.189834	-0.419088	0.024731
F181	F	1.652700	-0.451246	-1.233140
F182	F	2.152700	0.048754	-0.733140
