data_functionalizedCrystal
_audit_creation_method	'MofGen! by Chris Wilmer'
_symmetry_space_group_name_H-M	'P1'
_symmetry_Int_Tables_number	1
_symmetry_cell_setting	triclinic
loop_
_symmetry_equiv_pos_as_xyz
  x,y,z
_cell_length_a	19.077105
_cell_length_b	19.077068
_cell_length_c	21.395355
_cell_angle_alpha	92.279051
_cell_angle_beta	87.678776
_cell_angle_gamma	90.115316
loop_
_atom_site_label
_atom_site_type_symbol
_atom_site_fract_x
_atom_site_fract_y
_atom_site_fract_z
Zn1	Zn	1.063028	-0.323070	-0.403776
Zn2	Zn	1.058205	-0.440557	-0.303024
Zn3	Zn	0.945510	-0.318340	-0.294646
Zn4	Zn	0.940763	-0.435812	-0.403400
O5	O	1.001876	-0.379445	-0.351212
O6	O	1.160720	-0.342620	-0.394075
O7	O	1.043224	-0.424351	-0.214234
O8	O	0.965104	-0.220637	-0.305774
O9	O	1.157177	-0.428937	-0.320053
O10	O	1.051444	-0.224112	-0.385951
O11	O	0.960427	-0.334559	-0.208079
O12	O	0.846548	-0.329958	-0.305409
O13	O	0.957013	-0.420850	-0.491129
O14	O	0.843061	-0.416264	-0.385310
O15	O	1.046841	-0.338019	-0.491405
O16	O	1.038621	-0.538258	-0.319688
O17	O	0.952337	-0.534772	-0.393434
C18	C	0.819308	-0.372083	-0.344410
C19	C	0.741204	-0.368951	-0.341515
C20	C	0.702710	-0.412482	-0.381695
C21	C	0.629323	-0.409529	-0.378978
C22	C	0.594432	-0.363049	-0.336078
C23	C	0.632931	-0.319513	-0.295897
C24	C	0.706316	-0.322463	-0.298617
C25	C	0.375145	-0.349399	-0.323490
C26	C	0.301755	-0.346454	-0.320771
C27	C	0.298153	-0.436470	-0.403854
C28	C	0.371540	-0.439418	-0.406568
C29	C	0.410032	-0.395880	-0.366389
N30	N	0.519418	-0.360032	-0.333298
N31	N	0.485044	-0.398894	-0.369172
C32	C	0.994460	-0.562012	-0.357444
C33	C	0.991351	-0.640117	-0.360133
C34	C	1.034849	-0.678604	-0.323036
C35	C	1.031930	-0.751993	-0.325569
C36	C	0.985508	-0.786893	-0.365197
C37	C	0.942008	-0.748400	-0.402298
C38	C	0.944931	-0.675013	-0.399768
C39	C	0.971946	-1.006184	-0.376881
C40	C	0.969024	-1.079576	-0.379408
C41	C	1.058947	-1.083164	-0.302679
C42	C	1.061864	-1.009775	-0.300149
C43	C	1.018366	-0.971289	-0.337253
N44	N	0.982521	-0.861907	-0.367786
N45	N	1.021357	-0.896276	-0.334667
C46	C	1.185157	-0.386836	-0.358041
C47	C	1.263261	-0.389985	-0.360951
C48	C	1.001935	-0.379433	-0.514637
C49	C	1.001960	-0.379428	-0.584279
C50	C	1.009341	-0.196166	-0.344970
C51	C	1.012522	-0.118063	-0.342310
C52	C	1.048732	-0.336296	-0.617137
C53	C	1.048732	-0.336266	-0.682571
C54	C	1.001968	-0.379380	-0.715146
C55	C	0.955187	-0.422515	-0.682280
C56	C	0.955184	-0.422539	-0.616846
C57	C	0.993849	-0.442427	-0.820774
C58	C	0.993858	-0.442404	-0.886206
C59	C	1.001975	-0.379306	-0.916964
C60	C	1.010099	-0.316229	-0.882282
C61	C	1.010095	-0.316253	-0.816849
C62	C	1.001966	-0.379359	-0.786097
C63	C	1.048749	-0.336138	-1.020774
C64	C	1.048745	-0.336106	-1.086209
C65	C	0.955204	-0.422362	-1.085917
C66	C	0.955205	-0.422387	-1.020482
C67	C	1.001981	-0.379276	-0.987915
C68	C	1.001860	-0.379408	-0.188422
C69	C	1.001979	-0.379220	-0.118779
H70	H	0.399943	-0.477269	-0.441500
H71	H	0.936527	-0.974854	-0.407092
F72	F	1.018737	-0.249123	-0.779939
H73	H	1.016710	-0.264848	-0.907323
F74	F	1.078229	-0.792951	-0.286087
F75	F	0.739838	-0.461956	-0.427353
F76	F	0.898637	-0.634053	-0.439254
H77	H	0.273348	-0.308596	-0.285840
H78	H	0.987051	-0.493788	-0.795729
F79	F	0.919606	-1.116717	-0.421580
H80	H	0.266804	-0.471915	-0.436566
H81	H	1.072648	-0.650194	-0.290764
F82	F	0.905416	-0.468398	-0.716948
F83	F	1.105240	-1.124128	-0.263196
F84	F	1.111280	-0.972638	-0.257979
F85	F	0.985218	-0.509536	-0.923112
H86	H	0.904213	-0.776821	-0.434567
H87	H	0.406477	-0.313952	-0.290769
H88	H	0.917094	-0.457661	-0.590093
H89	H	0.604516	-0.281665	-0.260969
H90	H	0.917120	-0.457459	-1.112438
F91	F	0.747284	-0.276130	-0.255854
H92	H	1.086820	-0.301191	-0.590624
F93	F	1.098503	-0.290345	-0.717547
F94	F	1.098529	-0.290253	-0.986111
H95	H	1.086831	-0.300979	-1.112961
H96	H	0.597985	-0.444977	-0.411696
F97	F	0.905426	-0.468297	-0.985511
