data_functionalizedCrystal
_audit_creation_method	'MofGen! by Chris Wilmer'
_symmetry_space_group_name_H-M	'P1'
_symmetry_Int_Tables_number	1
_symmetry_cell_setting	triclinic
loop_
_symmetry_equiv_pos_as_xyz
  x,y,z
_cell_length_a	14.519709
_cell_length_b	14.519731
_cell_length_c	7.088929
_cell_angle_alpha	96.215673
_cell_angle_beta	96.229076
_cell_angle_gamma	96.315501
loop_
_atom_site_label
_atom_site_type_symbol
_atom_site_fract_x
_atom_site_fract_y
_atom_site_fract_z
O1	O	-0.130447	1.214405	-0.158963
O2	O	0.369553	1.714405	0.341037
O3	O	-0.144663	0.945931	-0.158963
O4	O	0.355337	1.445931	0.341037
O5	O	-0.003318	1.087285	-0.158981
O6	O	0.496682	1.587285	0.341019
O7	O	-0.271792	1.073051	-0.158946
O8	O	0.228208	1.573051	0.341054
O9	O	0.015614	1.106176	0.158992
O10	O	0.515614	1.606176	0.658992
O11	O	-0.125731	0.964822	0.159010
O12	O	0.374269	1.464822	0.659010
O13	O	-0.111515	1.233296	0.159010
O14	O	0.388485	1.733296	0.659010
Cu15	Cu	-0.116894	1.100784	0.188043
Cu16	Cu	0.383106	1.600784	0.688043
Cu17	Cu	-0.139284	1.078443	-0.187997
Cu18	Cu	0.360716	1.578443	0.312003
O19	O	-0.252860	1.091942	0.159027
O20	O	0.247140	1.591942	0.659027
C21	C	-0.134531	0.921017	0.000023
C22	C	0.365469	1.421017	0.500023
C23	C	-0.132535	0.818637	0.000022
C24	C	0.367465	1.318637	0.500022
C25	C	-0.130914	0.735492	0.000014
C26	C	0.369086	1.235492	0.500014
C27	C	-0.128887	0.631183	0.000013
C28	C	0.371113	1.131183	0.500013
C29	C	-0.127279	0.548044	0.000013
C30	C	0.372721	1.048044	0.500013
C31	C	-0.125253	0.443728	0.000008
C32	C	0.374747	0.943728	0.500008
C33	C	-0.296686	1.083160	0.000045
C34	C	0.203314	1.583160	0.500045
C35	C	-0.399066	1.085149	0.000058
C36	C	0.100934	1.585149	0.500058
C37	C	-0.773967	1.092464	-0.000018
C38	C	-0.273967	1.592464	0.499982
C39	C	-0.669658	1.090433	0.000004
C40	C	-0.169658	1.590433	0.500004
C41	C	-0.586520	1.088807	0.000022
C42	C	-0.086520	1.588807	0.500022
C43	C	-0.482204	1.086775	0.000040
C44	C	0.017796	1.586775	0.500040
C45	C	0.040507	1.096067	-0.000003
C46	C	0.540507	1.596067	0.499997
C47	C	0.142887	1.094077	-0.000028
C48	C	0.642887	1.594077	0.499972
C49	C	-0.121648	1.258210	0.000019
C50	C	0.378352	1.758210	0.500019
C51	C	-0.123644	1.360589	0.000008
C52	C	0.376356	1.860589	0.500008
N53	N	-0.101146	1.116503	0.452529
N54	N	0.398854	1.616503	0.952529
N55	N	-0.155025	1.062731	-0.452483
N56	N	0.344975	1.562731	0.047517
H57	H	-0.210858	1.007002	0.465878
H58	H	0.289142	1.507002	0.965878
H59	H	-0.045316	1.172242	0.534178
H60	H	0.454684	1.672242	1.034178
