data_functionalizedCrystal
_audit_creation_method	'MofGen! by Chris Wilmer'
_symmetry_space_group_name_H-M	'P1'
_symmetry_Int_Tables_number	1
_symmetry_cell_setting	triclinic
loop_
_symmetry_equiv_pos_as_xyz
  x,y,z
_cell_length_a	18.215407
_cell_length_b	12.759400
_cell_length_c	12.759393
_cell_angle_alpha	90.030239
_cell_angle_beta	90.022068
_cell_angle_gamma	90.015132
loop_
_atom_site_label
_atom_site_type_symbol
_atom_site_fract_x
_atom_site_fract_y
_atom_site_fract_z
Zn1	Zn	1.125140	-0.418205	0.594075
Zn2	Zn	1.125066	-0.593920	0.418395
Zn3	Zn	1.002068	-0.418257	0.418404
Zn4	Zn	1.002061	-0.593844	0.594026
O5	O	1.063584	-0.506057	0.506225
O6	O	1.228115	-0.441525	0.570787
O7	O	1.108722	-0.570672	0.271375
O8	O	1.018428	-0.271229	0.441731
O9	O	1.228060	-0.570621	0.441716
O10	O	1.108849	-0.271191	0.570796
O11	O	1.018356	-0.441613	0.271382
O12	O	0.899083	-0.441539	0.441684
O13	O	1.018416	-0.570492	0.741054
O14	O	0.899077	-0.570542	0.570713
O15	O	1.108842	-0.441451	0.741090
O16	O	1.108715	-0.740931	0.441669
O17	O	1.018343	-0.740875	0.570704
C18	C	0.872378	-0.506039	0.506195
C19	C	0.790579	-0.506056	0.506207
C20	C	0.602401	-0.573334	0.573308
C21	C	0.525542	-0.573337	0.573321
C22	C	0.525518	-0.438799	0.439165
C23	C	0.602376	-0.438791	0.439158
C24	C	0.640815	-0.506065	0.506228
C25	C	0.487099	-0.506076	0.506248
C26	C	0.403765	-0.506079	0.506262
C27	C	0.724154	-0.506060	0.506216
C28	C	1.063540	-0.779024	0.506203
C29	C	1.063589	-0.895801	0.506229
C30	C	1.110697	-0.950657	0.439114
C31	C	1.110743	-1.060381	0.439147
C32	C	1.016564	-1.060383	0.573411
C33	C	1.016523	-0.950661	0.573383
C34	C	1.157763	-0.895797	0.371960
C35	C	1.204875	-0.950653	0.304839
C36	C	1.204920	-1.060377	0.304872
C37	C	1.157853	-1.115245	0.372025
C38	C	1.255537	-0.506076	0.506256
C39	C	1.337336	-0.506084	0.506269
C40	C	1.063636	-0.505957	0.780258
C41	C	1.063658	-0.505915	0.897035
C42	C	1.063648	-0.232024	0.506270
C43	C	1.063675	-0.115247	0.506289
C44	C	1.063574	-0.506080	0.233258
C45	C	1.063694	-0.505827	0.116482
C46	C	1.110763	-0.438663	1.061642
C47	C	1.110747	-0.438709	0.951918
C48	C	1.016587	-0.573086	0.951882
C49	C	1.016607	-0.573045	1.061604
C50	C	1.157850	-0.371445	1.116520
C51	C	1.204922	-0.304274	1.061681
C52	C	1.204906	-0.304320	0.951957
C53	C	1.157818	-0.371537	0.897072
H54	H	0.494212	-0.384029	0.384558
H55	H	1.157866	-0.371397	1.205863
O56	O	0.639774	-0.638784	0.638314
C57	C	0.726565	-0.780597	0.652218
C58	C	0.684277	-0.706558	0.578473
H59	H	0.762567	-0.835396	0.603867
H60	H	0.685937	-0.828751	0.700148
H61	H	0.762539	-0.732396	0.707250
H62	H	0.648302	-0.754678	0.523378
H63	H	0.724944	-0.658401	0.530618
O64	O	0.970803	-0.897478	0.638724
C65	C	0.935050	-0.863742	0.817390
C66	C	0.986857	-0.924059	0.743501
H67	H	0.948021	-0.885194	0.902118
H68	H	0.875707	-0.885405	0.798967
H69	H	0.943102	-0.775905	0.805779
H70	H	0.978871	-1.011910	0.755071
H71	H	1.046180	-0.902308	0.761942
O72	O	1.250802	-1.113680	0.239861
C73	C	1.350258	-1.237395	0.225986
C74	C	1.298328	-1.177101	0.299717
H75	H	1.388686	-1.288702	0.274349
H76	H	1.383940	-1.179344	0.178049
H77	H	1.316551	-1.288834	0.170961
H78	H	1.331978	-1.125661	0.354806
H79	H	1.264644	-1.235209	0.347580
H80	H	1.243264	-0.249555	1.106375
H81	H	0.978244	-1.105065	0.628083
H82	H	1.157900	-1.204590	0.372054
O83	O	0.970747	-0.638328	0.898691
C84	C	0.845547	-0.689311	0.865046
C85	C	0.897380	-0.615371	0.925363
H86	H	0.786219	-0.670762	0.886571
H87	H	0.858402	-0.774033	0.886637
H88	H	0.853654	-0.677828	0.777209
H89	H	0.889302	-0.626760	1.013214
H90	H	0.884513	-0.530676	0.903685
O91	O	1.250655	-0.238980	0.898847
C92	C	1.344079	-0.105732	0.910470
C93	C	1.292296	-0.179666	0.970743
H94	H	1.377770	-0.057773	0.968572
H95	H	1.310330	-0.050746	0.859128
H96	H	1.382512	-0.154005	0.859075
H97	H	1.253853	-0.131477	1.022195
H98	H	1.326091	-0.234655	1.022019
O99	O	0.488114	-0.638587	0.638446
C100	C	0.369723	-0.698270	0.697876
C101	C	0.412019	-0.624303	0.624081
H102	H	0.308193	-0.686763	0.686272
H103	H	0.384812	-0.679918	0.782645
H104	H	0.384860	-0.782951	0.679290
H105	H	0.396904	-0.539597	0.642573
H106	H	0.396926	-0.642745	0.539335
O107	O	0.970920	-0.638429	1.114768
C108	C	0.935194	-0.817126	1.148372
C109	C	0.986966	-0.743193	1.088078
H110	H	0.948159	-0.901844	1.126832
H111	H	0.875839	-0.798768	1.126776
H112	H	0.943289	-0.805494	1.236213
H113	H	0.978937	-0.754784	1.000223
H114	H	1.046302	-0.761569	1.109762
O115	O	1.250699	-0.897408	0.239723
C116	C	1.375883	-0.863777	0.188824
C117	C	1.324071	-0.924120	0.262652
H118	H	1.435215	-0.885368	0.207321
H119	H	1.367824	-0.775920	0.200328
H120	H	1.362959	-0.885427	0.104106
H121	H	1.336963	-0.902558	0.347398
H122	H	1.332140	-1.011963	0.251057
H123	H	0.633653	-0.384006	0.384533
H124	H	1.157729	-0.806454	0.371923
H125	H	1.157815	-0.371578	0.807727
