data_functionalizedCrystal
_audit_creation_method	'MofGen! by Chris Wilmer'
_symmetry_space_group_name_H-M	'P1'
_symmetry_Int_Tables_number	1
_symmetry_cell_setting	triclinic
loop_
_symmetry_equiv_pos_as_xyz
  x,y,z
_cell_length_a	13.339070
_cell_length_b	10.489741
_cell_length_c	11.804365
_cell_angle_alpha	101.953620
_cell_angle_beta	74.875130
_cell_angle_gamma	100.084234
loop_
_atom_site_label
_atom_site_type_symbol
_atom_site_fract_x
_atom_site_fract_y
_atom_site_fract_z
O1	O	1.367264	0.622515	-0.099068
O2	O	1.072122	0.538369	-0.099061
O3	O	1.226407	0.397145	-0.099058
O4	O	1.212978	0.763739	-0.099072
O5	O	1.185789	0.434272	0.098997
O6	O	1.031504	0.575496	0.098994
O7	O	1.326646	0.659642	0.098987
Cu8	Cu	1.175366	0.620959	0.117074
Cu9	Cu	1.223401	0.577052	-0.117149
O10	O	1.172361	0.800866	0.098983
C11	C	1.014020	0.542719	-0.000033
C12	C	0.901409	0.500350	-0.000030
C13	C	1.205084	0.367829	-0.000031
C14	C	1.202049	0.225160	-0.000033
C15	C	0.539023	0.829782	-0.000062
C16	C	0.644827	0.869592	-0.000068
C17	C	0.708977	0.777285	-0.000058
C18	C	0.667314	0.645161	-0.000043
C19	C	0.561501	0.605345	-0.000046
C20	C	0.731456	0.552848	-0.000042
C21	C	0.689793	0.420724	-0.000027
C22	C	0.583990	0.380914	-0.000029
C23	C	0.519840	0.473222	-0.000039
C24	C	0.837269	0.592664	-0.000039
C25	C	0.859747	0.368227	-0.000024
C26	C	0.753943	0.328417	-0.000017
C27	C	1.103883	0.123412	-0.000040
C28	C	1.130230	0.065470	0.097611
C29	C	1.170299	0.028899	-0.097656
C30	C	1.228420	0.169113	0.097698
C31	C	1.268494	0.132530	-0.097657
C32	C	1.294907	0.074645	0.000017
C33	C	1.384748	0.655292	-0.000044
C34	C	1.497361	0.697659	-0.000055
C35	C	1.193684	0.830182	-0.000046
C36	C	1.196721	0.972849	-0.000052
N37	N	1.141588	0.651843	0.281814
N38	N	1.257187	0.546161	-0.281889
C39	C	1.338301	0.471974	0.655767
C40	C	1.363852	0.448605	0.531106
C41	C	1.308288	0.499412	0.468777
C42	C	1.227169	0.573593	0.531121
C43	C	1.201620	0.596973	0.655794
C44	C	1.171607	0.624411	0.468804
C45	C	1.090488	0.698592	0.531148
C46	C	1.064942	0.721968	0.655809
C47	C	1.120506	0.671160	0.718139
C48	C	1.197156	0.601031	0.344131
C49	C	1.060475	0.726030	0.344158
C50	C	1.034923	0.749399	0.468819
H51	H	0.871179	0.700241	-0.000047
H52	H	1.023150	0.145450	0.000061
H53	H	1.375682	0.052888	0.000070
C54	C	0.403455	0.429425	-0.000038
H55	H	0.387827	0.337518	-0.000027
H56	H	0.389531	0.448920	-0.069103
H57	H	0.361203	0.474810	0.069038
H58	H	1.263204	0.540633	0.293381
C59	C	0.975730	0.803589	0.724385
H60	H	0.946293	0.830496	0.669414
H61	H	1.002644	0.878875	0.773000
H62	H	0.923203	0.751738	0.773036
C63	C	1.453069	0.367004	0.462536
H64	H	1.482495	0.340081	0.517509
H65	H	1.505589	0.418853	0.413889
H66	H	1.426157	0.291709	0.413919
H67	H	1.071762	0.035715	0.180169
H68	H	1.252971	0.229646	0.180346
H69	H	1.326928	0.162306	-0.180219
H70	H	1.145682	-0.031766	-0.180220
C71	C	0.945678	0.830965	0.537400
H72	H	0.916229	0.857861	0.482433
H73	H	0.972554	0.906258	0.586039
H74	H	0.893171	0.779069	0.586027
H75	H	0.550074	0.273328	-0.000030
C76	C	0.708108	0.183086	-0.000013
H77	H	0.635909	0.172599	-0.000025
H78	H	0.715898	0.156443	0.069053
H79	H	0.744233	0.130555	-0.069087
C80	C	0.690656	1.014913	-0.000087
H81	H	0.762860	1.025403	-0.000099
H82	H	0.654534	1.067454	0.068972
H83	H	0.682863	1.041535	-0.069169
H84	H	0.486785	0.904922	-0.000080
H85	H	0.911980	0.293061	-0.000021
C86	C	1.399412	0.416091	0.724324
H87	H	1.451384	0.368565	0.669343
H88	H	1.352574	0.359046	0.772971
H89	H	1.432002	0.486194	0.772939
H90	H	1.329096	0.480381	0.367272
C91	C	0.999355	0.781929	0.275609
H92	H	1.026183	0.757372	0.192434
H93	H	1.006805	0.875010	0.296032
H94	H	0.927373	0.747866	0.296054
C95	C	0.825356	0.821078	-0.000051
H96	H	0.840980	0.912987	-0.000050
H97	H	0.867617	0.775690	-0.069108
H98	H	0.839266	0.801596	0.069033
H99	H	1.099700	0.690183	0.819648
