data_functionalizedCrystal
_audit_creation_method	'MofGen! by Chris Wilmer'
_symmetry_space_group_name_H-M	'P1'
_symmetry_Int_Tables_number	1
_symmetry_cell_setting	triclinic
loop_
_symmetry_equiv_pos_as_xyz
  x,y,z
_cell_length_a	10.654545
_cell_length_b	19.288865
_cell_length_c	9.730223
_cell_angle_alpha	89.990377
_cell_angle_beta	89.997167
_cell_angle_gamma	83.809663
loop_
_atom_site_label
_atom_site_type_symbol
_atom_site_fract_x
_atom_site_fract_y
_atom_site_fract_z
O1	O	1.665754	0.097540	-0.114294
O2	O	1.300076	0.106837	-0.114301
O3	O	1.493482	0.001127	-0.114270
O4	O	1.472349	0.203250	-0.114325
O5	O	1.493469	0.001124	0.114310
O6	O	1.300064	0.106834	0.114279
O7	O	1.665742	0.097537	0.114286
Zn8	Zn	1.482901	0.102185	0.150574
Zn9	Zn	1.482917	0.102189	-0.150590
O10	O	1.472337	0.203247	0.114255
C11	C	1.253287	0.106154	-0.000012
C12	C	1.113887	0.104113	-0.000014
C13	C	1.048396	0.103151	0.124586
C14	C	0.917418	0.101222	0.124587
C15	C	0.917432	0.101221	-0.124623
C16	C	1.048409	0.103145	-0.124623
C17	C	1.492796	-0.024755	0.000024
C18	C	1.490754	-0.101872	0.000036
C19	C	1.604236	-0.145826	0.000045
C20	C	1.602318	-0.218286	0.000023
C21	C	1.486913	-0.246788	0.000020
C22	C	1.373416	-0.202824	0.000003
C23	C	1.375337	-0.130366	0.000011
C24	C	1.396186	-0.355670	0.080085
C25	C	1.394270	-0.428127	0.080085
C26	C	1.480983	-0.470272	-0.000011
C27	C	1.569634	-0.439954	-0.080090
C28	C	1.571555	-0.367496	-0.080082
C29	C	1.484817	-0.325356	0.000010
C30	C	1.592393	-0.592796	-0.000027
C31	C	1.590471	-0.665257	-0.000058
C32	C	1.361565	-0.649793	-0.000064
C33	C	1.363491	-0.577334	-0.000047
C34	C	1.478908	-0.548840	-0.000023
C35	C	1.712532	0.098220	-0.000006
C36	C	1.851932	0.100261	-0.000014
C37	C	1.473023	0.229129	-0.000042
C38	C	1.475064	0.306246	-0.000063
N39	N	1.482899	0.102182	0.356111
N40	N	1.482929	0.102186	-0.356126
C41	C	1.568568	0.055394	0.428050
C42	C	1.568580	0.055394	0.571933
C43	C	1.397251	0.148977	0.571924
C44	C	1.397234	0.148973	0.428044
H45	H	0.864104	0.100433	-0.226076
H46	H	1.327466	0.187074	0.369467
H47	H	1.694731	-0.254080	0.000025
C48	C	1.103180	0.044135	0.337008
C49	C	1.120377	0.104205	0.261552
H50	H	1.147623	0.044783	0.421562
H51	H	1.015811	0.042857	0.354836
H52	H	1.134464	0.004025	0.285803
H53	H	1.089084	0.144315	0.312753
H54	H	1.207763	0.105490	0.243727
C55	C	0.784605	0.039450	0.269189
C56	C	0.845436	0.100162	0.261555
H57	H	0.740176	0.038793	0.353757
H58	H	0.726860	0.038605	0.194996
H59	H	0.845530	-0.000224	0.264014
H60	H	0.784510	0.139836	0.266719
H61	H	0.903186	0.101013	0.335768
H62	H	1.101733	0.103926	-0.226093
C63	C	1.787881	-0.477043	-0.126604
C64	C	1.664958	-0.486274	-0.168137
H65	H	1.846726	-0.505646	-0.180951
H66	H	1.801708	-0.429558	-0.138064
H67	H	1.798577	-0.489678	-0.032632
H68	H	1.654259	-0.473635	-0.262107
H69	H	1.651126	-0.533770	-0.156689
H70	H	1.686373	-0.569595	-0.000014
C71	C	1.830304	-0.168395	0.000056
C72	C	1.731101	-0.114507	0.000057
H73	H	1.908623	-0.149057	0.000054
H74	H	1.824786	-0.196340	0.079760
H75	H	1.824789	-0.196328	-0.079662
H76	H	1.736610	-0.086577	0.079781
H77	H	1.736622	-0.086550	-0.079655
H78	H	1.643735	-0.342813	-0.145287
C79	C	1.816923	-0.673259	-0.000013
C80	C	1.715220	-0.713575	-0.000044
H81	H	1.893938	-0.703091	0.000005
H82	H	1.812927	-0.644668	-0.079714
H83	H	1.812888	-0.644684	0.079708
H84	H	1.719250	-0.742147	-0.079771
H85	H	1.719219	-0.742178	0.079665
C86	C	1.256983	-0.753996	-0.000080
C87	C	1.234707	-0.681114	-0.000072
H88	H	1.178661	-0.773333	-0.000082
H89	H	1.303690	-0.769032	-0.079785
H90	H	1.303687	-0.769051	0.079637
H91	H	1.188011	-0.666060	-0.079794
H92	H	1.187979	-0.666072	0.079642
H93	H	1.638338	0.017294	0.630503
H94	H	1.271082	-0.541546	-0.000047
H95	H	1.327506	0.187074	0.630507
H96	H	1.325570	-0.321360	0.145316
C97	C	1.174837	-0.435659	0.126559
C98	C	1.296824	-0.461448	0.168104
H99	H	1.114678	-0.456232	0.180895
H100	H	1.163580	-0.386481	0.138025
H101	H	1.163518	-0.446787	0.032584
H102	H	1.308146	-0.450316	0.262077
H103	H	1.308085	-0.510637	0.156650
C104	C	1.238481	-0.275334	-0.117501
C105	C	1.246561	-0.234153	0.000002
H106	H	1.160166	-0.294677	-0.117500
H107	H	1.243987	-0.247381	-0.197196
H108	H	1.305802	-0.311881	-0.117483
H109	H	1.179245	-0.197602	-0.000022
H110	H	1.241043	-0.262108	0.079717
H111	H	1.638320	0.017293	0.369486
C112	C	1.148883	-0.122361	0.000005
C113	C	1.250589	-0.082047	0.000015
H114	H	1.071870	-0.092528	0.000018
H115	H	1.152897	-0.150930	-0.079708
H116	H	1.152899	-0.150958	0.079714
H117	H	1.246579	-0.053454	-0.079700
H118	H	1.246573	-0.053465	0.079736
