data_functionalizedCrystal
_audit_creation_method	'MofGen! by Chris Wilmer'
_symmetry_space_group_name_H-M	'P1'
_symmetry_Int_Tables_number	1
_symmetry_cell_setting	triclinic
loop_
_symmetry_equiv_pos_as_xyz
  x,y,z
_cell_length_a	16.109301
_cell_length_b	19.188930
_cell_length_c	15.186229
_cell_angle_alpha	89.991369
_cell_angle_beta	89.998834
_cell_angle_gamma	83.303183
loop_
_atom_site_label
_atom_site_type_symbol
_atom_site_fract_x
_atom_site_fract_y
_atom_site_fract_z
O1	O	1.102833	0.089744	-0.073190
O2	O	1.602833	0.589744	0.426810
O3	O	0.860734	0.100913	-0.073204
O4	O	1.360734	0.600913	0.426796
O5	O	0.988770	-0.006311	-0.073180
O6	O	1.488770	0.493689	0.426820
O7	O	0.974797	0.196968	-0.073215
O8	O	1.474797	0.696968	0.426785
O9	O	0.988761	-0.006312	0.073278
O10	O	1.488761	0.493688	0.573278
O11	O	0.860725	0.100912	0.073253
O12	O	1.360725	0.600912	0.573253
O13	O	1.102824	0.089743	0.073267
O14	O	1.602824	0.589743	0.573267
Zn15	Zn	0.981773	0.095327	0.096513
Zn16	Zn	1.481773	0.595327	0.596513
Zn17	Zn	0.981785	0.095329	-0.096450
Zn18	Zn	1.481785	0.595329	0.403550
O19	O	0.974788	0.196967	0.073243
O20	O	1.474788	0.696967	0.573243
C21	C	0.829757	0.100460	0.000023
C22	C	1.329757	0.600460	0.500023
C23	C	0.737466	0.099103	0.000019
C24	C	1.237466	0.599103	0.500019
C25	C	0.428271	0.158294	0.000024
C26	C	0.928271	0.658294	0.500024
C27	C	0.514987	0.159575	0.000019
C28	C	1.014987	0.659575	0.500019
C29	C	0.535282	0.032358	0.000029
C30	C	1.035282	0.532358	0.500029
C31	C	0.448568	0.031077	0.000028
C32	C	0.948568	0.531077	0.500028
C33	C	0.395064	0.094048	0.000030
C34	C	0.895064	0.594048	0.500030
C35	C	0.568495	0.096609	0.000025
C36	C	1.068495	0.596609	0.500025
C37	C	0.662516	0.097997	0.000020
C38	C	1.162516	0.597997	0.500020
C39	C	0.301037	0.092659	0.000034
C40	C	0.801037	0.592659	0.500034
C41	C	0.988313	-0.032323	0.000052
C42	C	1.488313	0.467677	0.500052
C43	C	0.986955	-0.109831	0.000059
C44	C	1.486955	0.390169	0.500059
C45	C	1.062082	-0.154579	0.000068
C46	C	1.562082	0.345421	0.500068
C47	C	1.060806	-0.227406	0.000053
C48	C	1.560806	0.272594	0.500053
C49	C	0.984398	-0.255481	0.000048
C50	C	1.484398	0.244519	0.500048
C51	C	0.909261	-0.210723	0.000035
C52	C	1.409261	0.289277	0.500035
C53	C	0.910540	-0.137898	0.000040
C54	C	1.410540	0.362102	0.500040
N55	N	0.925991	-0.363623	0.049887
N56	N	1.425991	0.136377	0.549887
N57	N	0.924782	-0.432805	0.049884
N58	N	1.424782	0.067195	0.549884
C59	C	0.980543	-0.474899	0.000030
C60	C	1.480543	0.025101	0.500030
N61	N	1.037571	-0.445200	-0.049809
N62	N	1.537571	0.054800	0.450191
N63	N	1.038783	-0.376012	-0.049802
N64	N	1.538783	0.123988	0.450198
C65	C	0.983004	-0.334447	0.000042
C66	C	1.483004	0.165553	0.500042
C67	C	1.054291	-0.598615	0.000022
C68	C	1.554291	-0.098615	0.500022
C69	C	1.053012	-0.671443	0.000003
C70	C	1.553012	-0.171443	0.500003
C71	C	0.901465	-0.654758	-0.000007
C72	C	1.401465	-0.154758	0.499993
C73	C	0.902747	-0.581932	0.000004
C74	C	1.402747	-0.081932	0.500004
C75	C	0.979162	-0.553865	0.000023
C76	C	1.479162	-0.053865	0.500023
C77	C	1.133802	0.090196	0.000038
C78	C	1.633802	0.590196	0.500038
C79	C	1.226093	0.091553	0.000037
C80	C	1.726093	0.591553	0.500037
C81	C	0.975245	0.222980	0.000009
C82	C	1.475245	0.722980	0.500009
C83	C	0.976604	0.300487	-0.000004
C84	C	1.476604	0.800487	0.499996
N85	N	0.981771	0.095326	0.228206
N86	N	1.481771	0.595326	0.728206
C87	C	1.038484	0.047864	0.453940
C88	C	1.538484	0.547864	0.953940
C89	C	1.038486	0.047863	0.546129
C90	C	1.538486	0.547863	1.046129
C91	C	0.925072	0.142792	0.546117
C92	C	1.425072	0.642792	1.046117
C93	C	0.925066	0.142790	0.453929
C94	C	1.425066	0.642790	0.953929
C95	C	0.981777	0.095326	0.407843
C96	C	1.481777	0.595326	0.907843
C97	C	0.981785	0.095328	0.592220
C98	C	1.481785	0.595328	1.092220
C99	C	0.981787	0.095327	0.692176
C100	C	1.481787	0.595327	1.192176
C101	C	0.981774	0.095326	0.307880
C102	C	1.481774	0.595326	0.807880
N103	N	0.981791	0.095328	0.771857
N104	N	1.481791	0.595328	1.271857
H105	H	0.578855	-0.018910	0.000029
H106	H	1.078855	0.481090	0.500029
H107	H	0.542020	0.211890	0.000013
H108	H	1.042020	0.711890	0.500013
O109	O	1.093494	0.001786	0.591044
O110	O	1.593494	0.501786	1.091044
C111	C	1.143801	-0.040258	0.733068
C112	C	1.643801	0.459742	1.233068
C113	C	1.081446	0.011954	0.682313
C114	C	1.581446	0.511954	1.182313
H115	H	1.134094	-0.032046	0.806868
H116	H	1.634094	0.467954	1.306868
H117	H	1.133174	-0.096200	0.715019
H118	H	1.633174	0.403800	1.215019
H119	H	1.210345	-0.031149	0.714882
H120	H	1.710345	0.468851	1.214882
H121	H	1.014877	0.002909	0.700471
H122	H	1.514877	0.502909	1.200471
H123	H	1.092146	0.067877	0.700366
H124	H	1.592146	0.567877	1.200366
H125	H	0.839252	-0.677616	-0.000015
H126	H	1.339252	-0.177616	0.499985
H127	H	1.084660	0.009216	0.416419
H128	H	1.584660	0.509216	0.916419
O129	O	1.126072	-0.714814	0.000049
O130	O	1.626072	-0.214814	0.500049
C131	C	1.276518	-0.723674	0.000024
C132	C	1.776518	-0.223674	0.500024
C133	C	1.193839	-0.674475	-0.000009
C134	C	1.693839	-0.174475	0.499991
H135	H	1.331329	-0.691080	-0.000041
H136	H	1.831329	-0.191080	0.499959
H137	H	1.279755	-0.758185	0.061326
H138	H	1.779755	-0.258185	0.561326
H139	H	1.279672	-0.758188	-0.061258
H140	H	1.779672	-0.258188	0.438742
H141	H	1.190630	-0.639917	0.061232
H142	H	1.690630	-0.139917	0.561232
H143	H	1.190636	-0.640012	-0.061351
H144	H	1.690636	-0.140012	0.438649
O145	O	0.870072	0.188873	0.591023
O146	O	1.370072	0.688873	1.091023
C147	C	0.819786	0.230925	0.733038
C148	C	1.319786	0.730925	1.233038
C149	C	0.882131	0.178709	0.682294
C150	C	1.382131	0.678709	1.182294
H151	H	0.829502	0.222716	0.806839
H152	H	1.329502	0.722716	1.306839
H153	H	0.830415	0.286865	0.714961
H154	H	1.330415	0.786865	1.214961
H155	H	0.753238	0.221819	0.714869
H156	H	1.253238	0.721819	1.214869
H157	H	0.948703	0.187751	0.700436
H158	H	1.448703	0.687751	1.200436
H159	H	0.871429	0.122787	0.700376
H160	H	1.371429	0.622787	1.200376
H161	H	0.421531	-0.021243	0.000030
H162	H	0.921531	0.478757	0.500030
H163	H	0.841570	-0.545497	0.000002
H164	H	1.341570	-0.045497	0.500002
O165	O	0.837579	-0.094397	-0.000119
O166	O	1.337579	0.405603	0.499881
C167	C	0.751104	-0.002448	-0.075963
C168	C	1.251104	0.497552	0.424037
C169	C	0.833753	-0.051685	-0.075905
C170	C	1.333753	0.448315	0.424095
H171	H	0.747992	0.032107	-0.137220
H172	H	1.247992	0.532107	0.362780
H173	H	0.696239	-0.034986	-0.076030
H174	H	1.196239	0.465014	0.423970
H175	H	0.747921	0.032019	-0.014639
H176	H	1.247921	0.532019	0.485361
H177	H	0.837018	-0.086162	-0.137219
H178	H	1.337018	0.413838	0.362781
H179	H	0.888579	-0.019106	-0.075793
H180	H	1.388579	0.480894	0.424207
H181	H	1.121986	-0.263847	0.000057
H182	H	1.621986	0.236153	0.500057
O183	O	0.870060	0.188995	0.409185
O184	O	1.370060	0.688995	0.909185
C185	C	0.820865	0.310386	0.380988
C186	C	1.320865	0.810386	0.880988
C187	C	0.883217	0.258142	0.431699
C188	C	1.383217	0.758142	0.931699
H189	H	0.831468	0.366302	0.399186
H190	H	1.331468	0.866302	0.899186
H191	H	0.830599	0.302291	0.307173
H192	H	1.330599	0.802291	0.807173
H193	H	0.754319	0.301237	0.399112
H194	H	1.254319	0.801237	0.899112
H195	H	0.949787	0.267260	0.413649
H196	H	1.449787	0.767260	0.913649
H197	H	0.873410	0.266250	0.505502
H198	H	1.373410	0.766250	1.005502
O199	O	0.376332	0.219479	-0.000140
O200	O	0.876332	0.719479	0.499860
C201	C	0.332494	0.327839	-0.076007
C202	C	0.832494	0.827839	0.423993
C203	C	0.391346	0.258564	-0.075937
C204	C	0.891346	0.758564	0.424063
H205	H	0.344625	0.359466	-0.137273
H206	H	0.844625	0.859466	0.362727
H207	H	0.264795	0.315932	-0.076062
H208	H	0.764795	0.815932	0.423938
H209	H	0.344534	0.359427	-0.014692
H210	H	0.844534	0.859427	0.485308
H211	H	0.379382	0.226942	-0.137242
H212	H	0.879382	0.726942	0.362758
H213	H	0.459026	0.270521	-0.075836
H214	H	0.959026	0.770521	0.424164
H215	H	1.124306	-0.131732	0.000080
H216	H	1.624306	0.368268	0.500080
H217	H	0.847050	-0.233587	0.000029
H218	H	1.347050	0.266413	0.500029
O219	O	1.128464	-0.571261	-0.000088
O220	O	1.628464	-0.071261	0.499912
C221	C	1.217875	-0.498736	-0.075978
C222	C	1.717875	0.001264	0.424022
C223	C	1.133839	-0.529653	-0.075951
C224	C	1.633839	-0.029653	0.424049
H225	H	1.222256	-0.465101	-0.137316
H226	H	1.722256	0.034899	0.362684
H227	H	1.222272	-0.465024	-0.014723
H228	H	1.722272	0.034976	0.485277
H229	H	1.271342	-0.543242	-0.075941
H230	H	1.771342	-0.043242	0.424059
H231	H	1.080324	-0.485192	-0.076019
H232	H	1.580324	0.014808	0.423981
H233	H	1.129514	-0.563383	-0.137201
H234	H	1.629514	-0.063383	0.362799
