data_functionalizedCrystal
_audit_creation_method	'MofGen! by Chris Wilmer'
_symmetry_space_group_name_H-M	'P1'
_symmetry_Int_Tables_number	1
_symmetry_cell_setting	triclinic
loop_
_symmetry_equiv_pos_as_xyz
  x,y,z
_cell_length_a	15.995350
_cell_length_b	14.750779
_cell_length_c	15.538191
_cell_angle_alpha	97.569385
_cell_angle_beta	114.617766
_cell_angle_gamma	102.645612
loop_
_atom_site_label
_atom_site_type_symbol
_atom_site_fract_x
_atom_site_fract_y
_atom_site_fract_z
O1	O	1.049723	-0.079738	-0.141838
O2	O	0.801385	-0.079757	-0.156837
O3	O	0.973893	-0.079748	-0.012208
O4	O	0.877214	-0.079747	-0.286467
O5	O	1.022658	0.079904	0.028672
O6	O	0.850149	0.079896	-0.115957
O7	O	1.098487	0.079915	-0.100958
Zn8	Zn	0.982061	0.105253	-0.101966
Zn9	Zn	0.917811	-0.105096	-0.155828
O10	O	0.925979	0.079906	-0.245586
C11	C	0.794760	0.000067	-0.135777
C12	C	0.702372	0.000059	-0.133921
N13	N	1.025916	0.248811	-0.065207
N14	N	0.873965	-0.248654	-0.192580
C15	C	0.366659	0.000079	-0.127242
C16	C	0.445505	0.000435	-0.024151
C17	C	0.541519	0.000068	-0.026103
C18	C	0.533211	0.000070	-0.130555
C19	C	0.448838	-0.091096	-0.204702
C20	C	0.352967	-0.091165	-0.202132
C21	C	0.407436	0.090390	-0.157771
C22	C	0.504755	0.091588	-0.157440
C23	C	0.627335	0.000061	-0.132433
C24	C	0.272531	0.000081	-0.125368
C25	C	1.105111	0.000089	-0.122018
C26	C	1.197497	0.000090	-0.123876
C27	C	1.008390	0.000075	0.043327
C28	C	1.038518	0.000068	0.147899
C29	C	0.751497	0.600616	-0.295203
C30	C	0.782232	0.701116	-0.269450
C31	C	0.934998	0.701087	-0.141429
C32	C	0.904273	0.600584	-0.167168
C33	C	0.812523	0.550356	-0.244056
C34	C	0.965299	0.550325	-0.116021
C35	C	0.934579	0.449831	-0.141761
C36	C	0.842833	0.399596	-0.218648
C37	C	0.781803	0.449863	-0.269797
C38	C	1.057052	0.600554	-0.039137
C39	C	1.118078	0.550295	0.012010
C40	C	1.087356	0.449799	-0.013726
C41	C	0.995610	0.399565	-0.090613
C42	C	1.148387	0.399533	0.037422
C43	C	1.117667	0.299039	0.011682
C44	C	0.964890	0.299071	-0.116354
C45	C	0.891481	0.000080	-0.301122
C46	C	0.861351	0.000081	-0.405695
C47	C	0.739183	0.000066	0.435689
C48	C	0.767518	0.000070	0.533956
C49	C	0.926887	0.000082	0.556402
C50	C	0.898565	0.000073	0.458133
C51	C	0.804712	0.000066	0.397785
C52	C	0.964093	0.000073	0.420229
C53	C	0.935774	0.000069	0.321971
C54	C	0.841927	0.000065	0.261617
C55	C	0.776393	0.000062	0.299526
C56	C	1.057948	0.000087	0.480581
C57	C	1.123476	0.000087	0.442677
C58	C	1.095156	0.000076	0.344415
C59	C	1.001308	0.000072	0.284061
C60	C	1.160689	0.000079	0.306506
C61	C	1.132371	0.000075	0.208248
C62	C	0.972989	0.000068	0.185803
H63	H	0.602045	0.065420	0.030565
H64	H	0.459465	0.065813	0.033762
H65	H	0.676780	0.559719	-0.357807
H66	H	0.732530	0.742033	-0.311108
C67	C	1.219000	0.605557	0.096588
N68	N	1.295014	0.647179	0.160297
C69	C	1.035920	0.756348	-0.056850
N70	N	1.111934	0.797971	0.006859
C71	C	1.184797	0.243751	0.067948
N72	N	1.235362	0.202107	0.110329
C73	C	1.226711	0.000094	0.509071
N74	N	1.304468	0.000095	0.559077
C75	C	0.584692	0.182703	-0.083980
N76	N	0.644902	0.251329	-0.028641
C77	C	0.496530	0.099041	-0.258430
N78	N	0.490338	0.104653	-0.334497
C79	C	0.695421	0.000064	0.575644
N80	N	0.641119	0.000060	0.607043
H81	H	1.223094	0.440441	0.100019
H82	H	0.896563	0.000055	0.136661
C83	C	1.263927	0.000095	0.372904
N84	N	1.341686	0.000107	0.422915
H85	H	0.467212	-0.158944	-0.186789
H86	H	0.418507	-0.064584	0.000183
C87	C	0.333601	0.091227	-0.260149
N88	N	0.277983	0.091852	-0.337257
C89	C	0.315327	-0.183227	-0.175645
N90	N	0.286983	-0.252568	-0.155690
H91	H	0.890173	0.258173	-0.178957
C92	C	0.673150	0.000053	0.233136
N93	N	0.595391	0.000051	0.183132
H94	H	1.082063	0.682383	-0.018186
C95	C	0.809040	0.289049	-0.246963
N96	N	0.783586	0.205785	-0.268287
H97	H	0.662757	0.000053	0.386547
C98	C	0.435016	-0.095680	-0.309545
N99	N	0.424609	-0.099133	-0.388512
C100	C	1.030122	0.000089	0.622795
N101	N	1.107879	0.000090	0.672802
C102	C	0.568648	-0.088376	0.005560
N103	N	0.589079	-0.154998	0.029408
C104	C	0.276638	-0.096773	-0.305726
N105	N	0.219148	-0.101008	-0.383754
C106	C	0.810775	0.000059	0.153528
N107	N	0.787311	0.000052	0.072115
H108	H	1.185731	0.000076	0.177386
C109	C	0.680849	0.394606	-0.354340
N110	N	0.604808	0.352988	-0.418005
H111	H	1.080999	0.000081	0.560587
C112	C	0.422044	0.183744	-0.088370
N113	N	0.433051	0.254053	-0.036086
