data_functionalizedCrystal
_audit_creation_method	'MofGen! by Chris Wilmer'
_symmetry_space_group_name_H-M	'P1'
_symmetry_Int_Tables_number	1
_symmetry_cell_setting	triclinic
loop_
_symmetry_equiv_pos_as_xyz
  x,y,z
_cell_length_a	19.188930
_cell_length_b	16.992695
_cell_length_c	15.455313
_cell_angle_alpha	87.152573
_cell_angle_beta	92.686066
_cell_angle_gamma	86.906501
loop_
_atom_site_label
_atom_site_type_symbol
_atom_site_fract_x
_atom_site_fract_y
_atom_site_fract_z
O1	O	-0.934752	-0.094420	-0.072413
O2	O	-0.434752	0.405580	0.427587
O3	O	-0.732209	-0.107598	-0.072354
O4	O	-0.232209	0.392402	0.427646
O5	O	-0.832668	0.013131	-0.072377
O6	O	-0.332668	0.513131	0.427623
O7	O	-0.834293	-0.215148	-0.072391
O8	O	-0.334293	0.284852	0.427609
O9	O	-0.826922	0.006255	0.071887
O10	O	-0.326922	0.506255	0.571887
O11	O	-0.726463	-0.114473	0.071909
O12	O	-0.226463	0.385527	0.571909
O13	O	-0.929005	-0.101295	0.071850
O14	O	-0.429005	0.398705	0.571850
Cu15	Cu	-0.827209	-0.108512	0.085052
Cu16	Cu	-0.327209	0.391488	0.585052
Cu17	Cu	-0.834005	-0.100381	-0.085556
Cu18	Cu	-0.334005	0.399619	0.414444
O19	O	-0.828546	-0.222024	0.071873
O20	O	-0.328546	0.277976	0.571873
C21	C	-0.827706	0.038899	-0.000244
C22	C	-0.327706	0.538899	0.499756
C23	C	-0.821473	0.125921	-0.000243
C24	C	-0.321473	0.625921	0.499757
C25	C	-0.703300	-0.110609	-0.000215
C26	C	-0.203300	0.389391	0.499785
C27	C	-0.625719	-0.109329	-0.000192
C28	C	-0.125719	0.390671	0.499808
C29	C	-0.957915	-0.098284	-0.000291
C30	C	-0.457915	0.401716	0.499709
C31	C	-1.035495	-0.099563	-0.000320
C32	C	-0.535495	0.400437	0.499680
C33	C	-0.584941	-0.180168	-0.000210
C34	C	-0.084941	0.319832	0.499790
C35	C	-0.512047	-0.178964	-0.000219
C36	C	-0.012047	0.321036	0.499781
C37	C	-0.479935	-0.106917	-0.000228
C38	C	0.020065	0.393083	0.499772
C39	C	-0.520722	-0.036070	-0.000205
C40	C	-0.020722	0.463930	0.499795
C41	C	-0.593614	-0.037276	-0.000187
C42	C	-0.093614	0.462724	0.499813
N43	N	-0.370689	-0.049505	-0.049359
N44	N	0.129311	0.450495	0.450641
N45	N	-0.301445	-0.048364	-0.049378
N46	N	0.198555	0.451636	0.450622
C47	C	-0.260316	-0.103279	-0.000281
C48	C	0.239684	0.396721	0.499719
N49	N	-0.291047	-0.159389	0.048825
N50	N	0.208953	0.340611	0.548825
N51	N	-0.360298	-0.160532	0.048840
N52	N	0.139702	0.339468	0.548840
C53	C	-0.400897	-0.105601	-0.000247
C54	C	0.099103	0.394399	0.499753
C55	C	-0.140498	-0.172817	-0.000308
C56	C	0.359502	0.327183	0.499692
C57	C	-0.067603	-0.171610	-0.000312
C58	C	0.432397	0.328390	0.499688
C59	C	-0.076279	-0.028714	-0.000307
C60	C	0.423721	0.471286	0.499693
C61	C	-0.149173	-0.029923	-0.000294
C62	C	0.350827	0.470077	0.499706
C63	C	-0.181278	-0.101976	-0.000299
C64	C	0.318722	0.398024	0.499701
C65	C	-0.833508	-0.247791	-0.000261
C66	C	-0.333508	0.252209	0.499739
C67	C	-0.839742	-0.334814	-0.000269
C68	C	-0.339742	0.165186	0.499731
N69	N	-0.822435	-0.114230	0.205049
N70	N	-0.322435	0.385770	0.705049
C71	C	-0.881613	0.176369	-0.000259
C72	C	-0.381613	0.676369	0.499741
C73	C	-0.875753	0.258136	-0.000266
C74	C	-0.375753	0.758136	0.499734
C75	C	-0.809751	0.289453	-0.000250
C76	C	-0.309751	0.789453	0.499750
C77	C	-0.749607	0.238999	-0.000235
C78	C	-0.249607	0.738999	0.499765
C79	C	-0.755468	0.157234	-0.000235
C80	C	-0.255468	0.657234	0.499765
C81	C	-0.785458	0.532968	-0.000254
C82	C	-0.285458	1.032968	0.499746
C83	C	-0.779602	0.614739	-0.000252
C84	C	-0.279602	1.114739	0.499748
C85	C	-0.905748	0.633870	-0.000284
C86	C	-0.405748	1.133870	0.499716
C87	C	-0.911604	0.552102	-0.000279
C88	C	-0.411604	1.052102	0.499721
C89	C	-0.851459	0.501656	-0.000269
C90	C	-0.351459	1.001656	0.499731
N91	N	-0.803759	0.373031	-0.000253
N92	N	-0.303759	0.873031	0.499747
N93	N	-0.857452	0.418079	-0.000271
N94	N	-0.357452	0.918079	0.499729
N95	N	-0.838785	-0.094656	-0.205553
N96	N	-0.338785	0.405344	0.294447
C97	C	-0.865130	-0.062959	0.250433
C98	C	-0.365130	0.437041	0.750433
C99	C	-0.861526	-0.067291	0.341242
C100	C	-0.361526	0.432709	0.841242
C101	C	-0.815230	-0.122898	0.386664
C102	C	-0.315230	0.377102	0.886664
C103	C	-0.772530	-0.174172	0.341274
C104	C	-0.272530	0.325828	0.841274
C105	C	-0.776131	-0.169835	0.250467
C106	C	-0.276131	0.330165	0.750467
C107	C	-0.799686	-0.141593	0.658249
C108	C	-0.299686	0.358407	1.158249
C109	C	-0.796089	-0.145927	0.749063
C110	C	-0.296089	0.354073	1.249063
C111	C	-0.885085	-0.039045	0.749025
C112	C	-0.385085	0.460955	1.249025
C113	C	-0.888685	-0.034717	0.658216
C114	C	-0.388685	0.465283	1.158216
C115	C	-0.845982	-0.085988	0.612833
C116	C	-0.345982	0.414012	1.112833
N117	N	-0.811546	-0.127329	0.479486
N118	N	-0.311546	0.372671	0.979486
N119	N	-0.849663	-0.081553	0.520014
N120	N	-0.349663	0.418447	1.020014
H121	H	-0.611076	-0.238839	-0.000215
H122	H	-0.111076	0.261161	0.499785
O123	O	-0.926626	0.010801	0.792976
O124	O	-0.426626	0.510801	1.292976
C125	C	-0.968243	0.060828	0.733412
C126	C	-0.468243	0.560828	1.233412
H127	H	-0.973396	0.031775	0.668677
H128	H	-0.473396	0.531775	1.168677
H129	H	-1.022282	0.071702	0.759621
H130	H	-0.522282	0.571702	1.259621
H131	H	-0.942705	0.119457	0.723774
H132	H	-0.442705	0.619457	1.223774
O133	O	-0.751046	-0.199962	0.793053
O134	O	-0.251046	0.300038	1.293053
C135	C	-0.714136	-0.244295	0.733526
C136	C	-0.214136	0.255705	1.233526
H137	H	-0.714126	-0.209069	0.668800
H138	H	-0.214126	0.290931	1.168800
H139	H	-0.658013	-0.257649	0.759797
H140	H	-0.158013	0.242351	1.259797
H141	H	-0.740420	-0.302016	0.723847
H142	H	-0.240420	0.197984	1.223847
O143	O	-0.188687	0.038965	-0.000325
O144	O	0.311313	0.538965	0.499675
C145	C	-0.144715	0.102814	-0.000312
C146	C	0.355285	0.602814	0.499688
H147	H	-0.092581	0.084031	-0.027637
H148	H	0.407419	0.584031	0.472363
H149	H	-0.170493	0.154430	-0.042188
H150	H	0.329507	0.654430	0.457812
H151	H	-0.135516	0.121612	0.068898
H152	H	0.364484	0.621612	0.568898
O153	O	-0.715432	0.645033	-0.000284
O154	O	-0.215432	1.145033	0.499716
C155	C	-0.663602	0.582975	-0.000258
C156	C	-0.163602	1.082975	0.499742
H157	H	-0.687358	0.528793	-0.027572
H158	H	-0.187358	1.028793	0.472428
H159	H	-0.619472	0.601907	-0.042137
H160	H	-0.119472	1.101907	0.457863
H161	H	-0.642066	0.568043	0.068954
H162	H	-0.142066	1.068043	0.568954
H163	H	-0.924725	0.299207	-0.000278
H164	H	-0.424725	0.799207	0.499722
H165	H	-0.706495	0.116160	-0.000222
H166	H	-0.206495	0.616160	0.499778
O167	O	-0.903033	-0.017604	0.385428
O168	O	-0.403033	0.482396	0.885428
C169	C	-0.946362	-0.061982	0.437907
C170	C	-0.446362	0.438018	0.937907
H171	H	-0.921435	-0.124052	0.451509
H172	H	-0.421435	0.375948	0.951509
H173	H	-0.953049	-0.032282	0.501765
H174	H	-0.453049	0.467718	1.001765
H175	H	-0.999640	-0.065498	0.402883
H176	H	-0.499640	0.434502	0.902883
O177	O	-0.945749	0.145995	-0.000431
O178	O	-0.445749	0.645995	0.499569
C179	C	-0.985666	0.175368	-0.075148
C180	C	-0.485666	0.675368	0.424852
H181	H	-0.949229	0.194731	-0.127357
H182	H	-0.449229	0.694731	0.372643
H183	H	-1.019129	0.127130	-0.100238
H184	H	-0.519129	0.627130	0.399762
H185	H	-1.020919	0.227991	-0.058269
H186	H	-0.520919	0.727991	0.441731
O187	O	-0.758144	-0.191294	0.614128
O188	O	-0.258144	0.308706	1.114128
C189	C	-0.714828	-0.146931	0.561615
C190	C	-0.214828	0.353069	1.061615
H191	H	-0.709107	-0.086416	0.588993
H192	H	-0.209107	0.413584	1.088993
H193	H	-0.661171	-0.179032	0.560607
H194	H	-0.161171	0.320968	1.060607
H195	H	-0.739178	-0.139473	0.492784
H196	H	-0.239178	0.360527	0.992784
H197	H	-0.734830	-0.219446	0.378262
H198	H	-0.234830	0.280554	0.878262
O199	O	-0.734631	-0.219724	0.206511
O200	O	-0.234631	0.280276	0.706511
C201	C	-0.692984	-0.269723	0.266072
C202	C	-0.192984	0.230277	0.766072
H203	H	-0.719087	-0.273621	0.330786
H204	H	-0.219087	0.226379	0.830786
H205	H	-0.686864	-0.331106	0.239826
H206	H	-0.186864	0.168894	0.739826
H207	H	-0.639326	-0.244872	0.275766
H208	H	-0.139326	0.255128	0.775766
O209	O	-0.975773	0.521815	-0.000330
O210	O	-0.475773	1.021815	0.499670
C211	C	-1.027598	0.583875	-0.000320
C212	C	-0.527598	1.083875	0.499680
H213	H	-1.006023	0.640655	-0.027635
H214	H	-0.506023	1.140655	0.472365
H215	H	-1.075076	0.568932	-0.042208
H216	H	-0.575076	1.068932	0.457792
H217	H	-1.043604	0.592222	0.068887
H218	H	-0.543604	1.092222	0.568887
O219	O	-0.910120	-0.008873	0.206448
O220	O	-0.410120	0.491127	0.706448
C221	C	-0.947042	0.035438	0.265983
C222	C	-0.447042	0.535438	0.765983
H223	H	-0.915805	0.033152	0.330730
H224	H	-0.415805	0.533152	0.830730
H225	H	-0.955241	0.099329	0.239755
H226	H	-0.455241	0.599329	0.739755
H227	H	-0.999936	0.009668	0.275606
H228	H	-0.499936	0.509668	0.775606
O229	O	-0.964100	0.682987	-0.000339
O230	O	-0.464100	1.182987	0.499661
C231	C	-0.944777	0.761870	-0.000315
C232	C	-0.444777	1.261870	0.499685
H233	H	-0.890859	0.766116	-0.027609
H234	H	-0.390859	1.266116	0.472391
H235	H	-0.984499	0.801047	-0.042212
H236	H	-0.484499	1.301047	0.457788
H237	H	-0.943349	0.782234	0.068894
H238	H	-0.443349	1.282234	0.568894
H239	H	-0.034402	-0.229298	-0.000322
H240	H	0.465598	0.270702	0.499678
O241	O	-0.044984	0.041206	-0.000356
O242	O	0.455016	0.541206	0.499644
C243	C	0.028098	0.027082	-0.000351
C244	C	0.528098	0.527082	0.499649
H245	H	0.040685	-0.032854	-0.027666
H246	H	0.540685	0.467146	0.472334
H247	H	0.051348	0.075164	-0.042241
H248	H	0.551348	0.575164	0.457759
H249	H	0.051358	0.027515	0.068855
H250	H	0.551358	0.527515	0.568855
H251	H	-0.494572	0.022592	-0.000224
H252	H	0.005428	0.522592	0.499776
O253	O	-0.472531	-0.247849	-0.000283
O254	O	0.027469	0.252151	0.499717
C255	C	-0.516497	-0.311703	-0.000260
C256	C	-0.016497	0.188297	0.499740
H257	H	-0.570829	-0.290317	-0.027550
H258	H	-0.070829	0.209683	0.472450
H259	H	-0.494087	-0.359319	-0.042163
H260	H	0.005913	0.140681	0.457837
H261	H	-0.520129	-0.337109	0.068948
H262	H	-0.020129	0.162891	0.568948
H263	H	-0.166638	-0.231487	-0.000299
H264	H	0.333362	0.268513	0.499701
O265	O	-0.933394	0.019639	0.614195
O266	O	-0.433394	0.519639	1.114195
C267	C	-0.895127	0.070369	0.561996
C268	C	-0.395127	0.570369	1.061996
H269	H	-0.842945	0.039369	0.548231
H270	H	-0.342945	0.539369	1.048231
H271	H	-0.926060	0.086394	0.498202
H272	H	-0.426060	0.586394	0.998202
H273	H	-0.885433	0.126365	0.597344
H274	H	-0.385433	0.626365	1.097344
H275	H	-0.626816	0.020411	-0.000173
H276	H	-0.126816	0.520411	0.499827
H277	H	-0.736484	0.491903	-0.000246
H278	H	-0.236484	0.991903	0.499754
H279	H	-0.695867	0.264504	-0.000228
H280	H	-0.195867	0.764504	0.499772
