data_functionalizedCrystal
_audit_creation_method	'MofGen! by Chris Wilmer'
_symmetry_space_group_name_H-M	'P1'
_symmetry_Int_Tables_number	1
_symmetry_cell_setting	triclinic
loop_
_symmetry_equiv_pos_as_xyz
  x,y,z
_cell_length_a	16.120490
_cell_length_b	16.120484
_cell_length_c	10.686551
_cell_angle_alpha	91.292191
_cell_angle_beta	97.502252
_cell_angle_gamma	90.164100
loop_
_atom_site_label
_atom_site_type_symbol
_atom_site_fract_x
_atom_site_fract_y
_atom_site_fract_z
Zn1	Zn	1.299167	-0.355280	0.840275
Zn2	Zn	1.281321	-0.504002	0.639296
Zn3	Zn	1.148284	-0.358925	0.618002
Zn4	Zn	1.152958	-0.487281	0.839125
O5	O	1.220432	-0.426372	0.734175
O6	O	1.413665	-0.380481	0.823008
O7	O	1.254249	-0.493280	0.459821
O8	O	1.173812	-0.242484	0.639057
O9	O	1.400553	-0.489746	0.675350
O10	O	1.284665	-0.239806	0.802360
O11	O	1.156507	-0.386693	0.444176
O12	O	1.032039	-0.370480	0.637941
O13	O	1.181777	-0.461247	1.015929
O14	O	1.035473	-0.464782	0.800400
O15	O	1.289197	-0.364267	1.016774
O16	O	1.258780	-0.617741	0.674235
O17	O	1.164473	-0.605456	0.821048
C18	C	1.003454	-0.416212	0.716736
C19	C	0.910630	-0.411885	0.709307
C20	C	0.701033	-0.448815	0.772712
C21	C	0.740685	-0.403991	0.695742
C22	C	0.835252	-0.408384	0.703292
C23	C	0.606458	-0.444422	0.765164
C24	C	1.210221	-0.641665	0.749856
C25	C	1.205931	-0.733770	0.756613
C26	C	1.198105	-0.902406	0.768976
C27	C	1.242910	-0.949504	0.699406
C28	C	1.238556	-1.043339	0.706285
C29	C	1.202459	-0.808562	0.762099
C30	C	1.438258	-0.436572	0.751683
C31	C	1.531083	-0.440919	0.759143
C32	C	1.237999	-0.410486	1.063436
C33	C	1.245485	-0.403716	1.203747
C34	C	1.230708	-0.210238	0.718461
C35	C	1.235087	-0.118135	0.711765
C36	C	1.202985	-0.442139	0.406194
C37	C	1.195672	-0.448683	0.265880
H38	H	0.738104	-0.490487	0.844272
H39	H	1.156479	-0.932555	0.833697
H40	H	1.293865	-0.360039	1.257902
O41	O	1.292694	-0.913576	0.622324
C42	C	1.432728	-0.896408	0.570638
C43	C	1.376455	-0.937137	0.658041
H44	H	1.500457	-0.915456	0.599466
H45	H	1.427507	-0.826034	0.578785
H46	H	1.411862	-0.917630	0.468884
H47	H	1.397282	-0.915982	0.759830
H48	H	1.381681	-1.007506	0.649784
H49	H	0.703611	-0.362316	0.624175
H50	H	1.147301	-0.492363	1.211732
