data_functionalizedCrystal
_audit_creation_method	'MofGen! by Chris Wilmer'
_symmetry_space_group_name_H-M	'P1'
_symmetry_Int_Tables_number	1
_symmetry_cell_setting	triclinic
loop_
_symmetry_equiv_pos_as_xyz
  x,y,z
_cell_length_a	14.044202
_cell_length_b	14.971486
_cell_length_c	13.448316
_cell_angle_alpha	89.999959
_cell_angle_beta	90.010379
_cell_angle_gamma	88.403416
loop_
_atom_site_label
_atom_site_type_symbol
_atom_site_fract_x
_atom_site_fract_y
_atom_site_fract_z
O1	O	-0.123533	-1.196681	-0.082595
O2	O	0.209800	-0.863348	0.250739
O3	O	0.543134	-0.530014	0.584072
O4	O	-0.138327	-0.937447	-0.082624
O5	O	0.195007	-0.604113	0.250709
O6	O	0.528340	-0.270780	0.584043
O7	O	0.007059	-1.063169	-0.082583
O8	O	0.340393	-0.729835	0.250751
O9	O	0.673726	-0.396502	0.584084
O10	O	-0.268919	-1.070959	-0.082636
O11	O	0.064414	-0.737626	0.250697
O12	O	0.397748	-0.404293	0.584031
O13	O	0.007058	-1.063155	0.082801
O14	O	0.340391	-0.729822	0.416134
O15	O	0.673725	-0.396488	0.749468
O16	O	-0.138328	-0.937433	0.082760
O17	O	0.195005	-0.604100	0.416093
O18	O	0.528339	-0.270767	0.749427
O19	O	-0.123534	-1.196668	0.082789
O20	O	0.209799	-0.863334	0.416122
O21	O	0.543132	-0.530001	0.749456
Cu22	Cu	-0.130931	-1.067049	0.097875
Cu23	Cu	0.202402	-0.733716	0.431209
Cu24	Cu	0.535735	-0.400383	0.764542
Cu25	Cu	-0.130930	-1.067065	-0.097710
Cu26	Cu	0.202404	-0.733732	0.235623
Cu27	Cu	0.535737	-0.400399	0.568956
O28	O	-0.268920	-1.070946	0.082748
O29	O	0.064413	-0.737613	0.416081
O30	O	0.397746	-0.404279	0.749415
C31	C	0.042377	-1.059754	0.000114
C32	C	0.375710	-0.726421	0.333447
C33	C	0.709044	-0.393087	0.666780
C34	C	0.147614	-1.049590	0.000127
C35	C	0.480948	-0.716256	0.333460
C36	C	0.814281	-0.382923	0.666793
C37	C	-0.137666	-0.904063	0.000065
C38	C	0.195667	-0.570730	0.333398
C39	C	0.529001	-0.237397	0.666731
C40	C	-0.135683	-0.804610	0.000055
C41	C	0.197650	-0.471277	0.333388
C42	C	0.530983	-0.137943	0.666721
C43	C	0.397840	-1.103089	0.000107
C44	C	0.731173	-0.769756	0.333441
C45	C	1.064506	-0.436423	0.666774
C46	C	0.340293	-1.031021	0.000103
C47	C	0.673626	-0.697688	0.333436
C48	C	1.006959	-0.364355	0.666770
C49	C	0.233077	-1.041355	0.000116
C50	C	0.566410	-0.708022	0.333450
C51	C	0.899743	-0.374689	0.666783
C52	C	0.505066	-1.092757	0.000094
C53	C	0.838399	-0.759424	0.333427
C54	C	1.171732	-0.426090	0.666761
C55	C	-0.124195	-1.230051	0.000098
C56	C	0.209138	-0.896718	0.333432
C57	C	0.542472	-0.563385	0.666765
C58	C	-0.126178	-1.329505	0.000102
C59	C	0.207156	-0.996171	0.333435
C60	C	0.540489	-0.662838	0.666768
C61	C	0.695762	-1.074358	0.000063
C62	C	1.029095	-0.741025	0.333396
C63	C	1.362429	-0.407692	0.666730
C64	C	0.590524	-1.084517	0.000084
C65	C	0.923857	-0.751184	0.333417
C66	C	1.257190	-0.417850	0.666750
N67	N	-0.130932	-1.067045	0.235440
N68	N	0.202401	-0.733711	0.568773
N69	N	0.535735	-0.400378	0.902106
C70	C	-0.221094	-0.754116	0.000040
C71	C	0.112240	-0.420782	0.333373
C72	C	0.445573	-0.087449	0.666706
C73	C	-0.219225	-0.660669	0.000055
C74	C	0.114108	-0.327336	0.333388
C75	C	0.447442	0.005998	0.666722
C76	C	-0.131945	-0.617718	0.000078
C77	C	0.201388	-0.284385	0.333411
C78	C	0.534722	0.048948	0.666745
C79	C	-0.046528	-0.668219	0.000096
C80	C	0.286805	-0.334886	0.333429
C81	C	0.620138	-0.001553	0.666763
C82	C	-0.048398	-0.761664	0.000088
C83	C	0.284936	-0.428331	0.333421
C84	C	0.618269	-0.094998	0.666755
C85	C	-0.042638	-0.473450	0.000110
C86	C	0.290696	-0.140117	0.333444
C87	C	0.624029	0.193217	0.666777
C88	C	-0.040767	-0.379999	0.000117
C89	C	0.292566	-0.046665	0.333450
C90	C	0.625899	0.286668	0.666783
C91	C	-0.213465	-0.372455	0.000077
C92	C	0.119869	-0.039122	0.333411
C93	C	0.453202	0.294212	0.666744
C94	C	-0.215334	-0.465900	0.000069
C95	C	0.117999	-0.132567	0.333403
C96	C	0.451332	0.200767	0.666736
C97	C	-0.129917	-0.516394	0.000085
C98	C	0.203416	-0.183061	0.333419
C99	C	0.536750	0.150272	0.666752
N100	N	-0.130922	-1.067076	-0.235275
N101	N	0.202412	-0.733743	0.098059
N102	N	0.535745	-0.400410	0.431392
C103	C	-0.073330	-1.008235	0.712692
C104	C	0.260003	-0.674902	1.046026
C105	C	0.593336	-0.341569	1.379359
C106	C	-0.073327	-1.008232	0.608589
C107	C	0.260006	-0.674899	0.941923
C108	C	0.593339	-0.341566	1.275256
C109	C	-0.130922	-1.067066	0.556521
C110	C	0.202412	-0.733733	0.889854
C111	C	0.535745	-0.400400	1.223188
C112	C	-0.188515	-1.125914	0.608561
C113	C	0.144818	-0.792580	0.941895
C114	C	0.478151	-0.459247	1.275228
C115	C	-0.188512	-1.125920	0.712663
C116	C	0.144821	-0.792587	1.045996
C117	C	0.478154	-0.459254	1.379329
C118	C	-0.188519	-1.125893	0.391581
C119	C	0.144815	-0.792560	0.724914
C120	C	0.478148	-0.459227	1.058248
C121	C	-0.188523	-1.125886	0.287473
C122	C	0.144810	-0.792552	0.620806
C123	C	0.478144	-0.459219	0.954139
C124	C	-0.073334	-1.008205	0.287508
C125	C	0.259999	-0.674872	0.620841
C126	C	0.593333	-0.341538	0.954175
C127	C	-0.073331	-1.008212	0.391609
C128	C	0.260002	-0.674879	0.724943
C129	C	0.593336	-0.341545	1.058276
C130	C	-0.130926	-1.067058	0.443642
C131	C	0.202407	-0.733725	0.776976
C132	C	0.535740	-0.400392	1.110309
H133	H	0.371547	-0.961561	0.000092
H134	H	0.704880	-0.628227	0.333425
H135	H	1.038213	-0.294894	0.666758
Br136	Br	-0.339551	-0.812397	-0.000002
Br137	Br	-0.006218	-0.479063	0.333331
Br138	Br	0.327115	-0.145730	0.666665
H139	H	-0.288775	-0.619560	0.000041
H140	H	0.044559	-0.286227	0.333375
H141	H	0.377892	0.047106	0.666708
Br142	Br	0.345750	-1.218856	0.000131
Br143	Br	0.679084	-0.885522	0.333464
Br144	Br	1.012417	-0.552189	0.666797
Br145	Br	-0.333787	-0.524190	0.000023
Br146	Br	-0.000453	-0.190857	0.333356
Br147	Br	0.332880	0.142476	0.666689
H148	H	-0.235425	-1.173791	0.245081
H149	H	0.097909	-0.840457	0.578415
H150	H	0.431242	-0.507124	0.911748
H151	H	-0.283015	-0.331338	0.000069
H152	H	0.050319	0.001996	0.333402
H153	H	0.383652	0.335329	0.666735
H154	H	0.021152	-0.802776	0.000100
H155	H	0.354486	-0.469442	0.333433
H156	H	0.687819	-0.136109	0.666766
Br157	Br	0.077685	-0.321708	0.000181
Br158	Br	0.411018	0.011625	0.333515
Br159	Br	0.744352	0.344958	0.666848
H160	H	-0.026436	-0.960321	0.755079
H161	H	0.306898	-0.626988	1.088412
H162	H	0.640231	-0.293655	1.421746
Br163	Br	-0.266673	-1.205767	0.537898
Br164	Br	0.066661	-0.872434	0.871232
Br165	Br	0.399994	-0.539101	1.204565
Br166	Br	0.073287	-0.541978	0.000137
Br167	Br	0.406620	-0.208645	0.333471
Br168	Br	0.739954	0.124688	0.666804
Br169	Br	0.071925	-0.609930	0.000137
Br170	Br	0.405258	-0.276597	0.333471
Br171	Br	0.738592	0.056737	0.666804
Br172	Br	0.004805	-0.928346	0.537976
Br173	Br	0.338138	-0.595013	0.871310
Br174	Br	0.671472	-0.261680	1.204643
H175	H	-0.026438	-0.960300	0.434000
H176	H	0.306896	-0.626967	0.767334
H177	H	0.640229	-0.293633	1.100667
Br178	Br	0.004827	-0.928338	0.216893
Br179	Br	0.338161	-0.595005	0.550227
Br180	Br	0.671494	-0.261672	0.883560
Br181	Br	-0.266678	-1.205763	0.462197
Br182	Br	0.066655	-0.872429	0.795530
Br183	Br	0.399989	-0.539096	1.128864
Br184	Br	-0.266667	-1.205786	0.783280
Br185	Br	0.066666	-0.872452	1.116614
Br186	Br	0.399999	-0.539119	1.449947
