data_functionalizedCrystal
_audit_creation_method	'MofGen! by Chris Wilmer'
_symmetry_space_group_name_H-M	'P1'
_symmetry_Int_Tables_number	1
_symmetry_cell_setting	triclinic
loop_
_symmetry_equiv_pos_as_xyz
  x,y,z
_cell_length_a	14.560438
_cell_length_b	14.560438
_cell_length_c	14.560438
_cell_angle_alpha	60.000905
_cell_angle_beta	90.002385
_cell_angle_gamma	60.001166
loop_
_atom_site_label
_atom_site_type_symbol
_atom_site_fract_x
_atom_site_fract_y
_atom_site_fract_z
Zr1	Zr	0.884751	1.005292	-0.120493
O2	O	0.738102	1.196893	-0.267140
O3	O	0.929707	0.813691	-0.075540
O4	O	0.929703	1.005295	-0.267141
O5	O	0.738110	1.005286	0.075601
O6	O	1.080841	1.005298	-0.267138
O7	O	0.738106	1.005289	-0.075540
O8	O	1.080849	0.662553	0.075600
O9	O	0.738102	1.348031	-0.267138
O10	O	1.061673	0.892501	-0.056364
O11	O	0.948883	0.892497	0.056429
O12	O	0.948878	1.118086	-0.169156
O13	O	0.836088	1.118083	-0.056363
Zr14	Zr	1.125806	1.005292	0.120563
Zr15	Zr	1.125800	1.005296	-0.120489
Zr16	Zr	0.884758	1.005288	0.120559
Zr17	Zr	0.884752	1.246340	-0.120488
Zr18	Zr	1.125805	0.764244	0.120559
O19	O	1.080850	1.196893	0.075610
O20	O	1.080841	1.196898	-0.267135
O21	O	0.738111	1.196887	0.075605
O22	O	1.272455	0.813691	0.267210
O23	O	1.272446	0.813697	-0.075535
O24	O	0.929716	0.813685	0.267205
O25	O	1.272447	1.005298	-0.075531
O26	O	1.080854	1.005289	0.267211
O27	O	0.929716	1.005286	0.267209
O28	O	1.272451	1.005295	0.075610
O29	O	0.929703	1.348034	-0.267134
O30	O	1.080854	0.662550	0.267205
O31	O	1.272455	0.662553	0.267208
O32	O	1.272450	0.662557	0.075603
O33	O	0.738107	1.348027	-0.075533
O34	O	0.929708	1.348031	-0.075530
O35	O	1.061679	0.892498	0.169226
O36	O	1.174469	0.892501	0.056433
O37	O	1.061674	1.118086	-0.056359
O38	O	0.948884	1.118083	0.056434
C39	C	1.005278	0.703778	0.000029
C40	C	1.005278	0.601447	0.000027
C41	C	1.064151	0.553373	-0.058849
C42	C	1.064155	0.457214	-0.058839
C43	C	0.946405	0.457215	0.058927
C44	C	0.946408	0.553366	0.058922
C45	C	0.703764	1.005287	0.000030
C46	C	0.601433	1.005285	0.000029
C47	C	0.612232	0.887534	0.058905
C48	C	0.516077	0.887540	0.058915
C49	C	0.398327	1.123059	-0.058836
C50	C	0.494481	1.123051	-0.058839
C51	C	0.719185	0.769768	0.117772
C52	C	0.729989	0.652007	0.176652
C53	C	0.633834	0.652014	0.176662
C54	C	0.526875	0.769780	0.117793
C55	C	1.306793	1.005297	0.000040
C56	C	1.409124	1.005299	0.000042
C57	C	1.005271	1.005297	-0.301484
C58	C	1.005268	1.005299	-0.403817
C59	C	1.005279	1.306806	0.000041
C60	C	1.005279	1.409137	0.000043
C61	C	0.946392	1.123050	-0.510770
C62	C	0.946405	1.123044	-0.606919
C63	C	1.064173	0.887525	-0.489149
C64	C	1.064166	0.887533	-0.393002
C65	C	1.005286	1.005287	0.301555
C66	C	1.005289	1.005285	0.403887
C67	C	1.306792	0.703783	0.000034
C68	C	1.409123	0.601454	0.000034
C69	C	1.005286	0.703773	0.301549
C70	C	1.005288	0.601440	0.403880
C71	C	1.306800	0.703778	0.301554
C72	C	1.409134	0.601447	0.403886
C73	C	0.703757	1.306806	-0.301484
C74	C	0.601424	1.409137	-0.403816
C75	C	0.703765	1.306801	0.000036
C76	C	0.601434	1.409130	0.000036
C77	C	1.005272	1.306811	-0.301479
C78	C	1.005269	1.409144	-0.403810
C79	C	1.398323	0.553377	-0.058842
C80	C	1.494478	0.457236	-0.058846
C81	C	1.612229	0.457253	0.058911
C82	C	1.516076	0.553399	0.058908
C83	C	1.064166	0.553362	0.510834
C84	C	1.064156	0.457219	0.606981
C85	C	0.946387	0.457236	0.489206
C86	C	0.946392	0.553384	0.393062
C87	C	1.516085	0.553372	0.393089
C88	C	1.612235	0.457229	0.489245
C89	C	1.494467	0.457243	0.606993
C90	C	1.398320	0.553390	0.510838
H91	H	1.112088	0.592517	-0.106803
H92	H	1.524896	0.592500	0.306007
O93	O	1.127683	0.760508	-0.477483
H94	H	1.117787	0.780283	-0.562307
O95	O	1.127686	0.605195	0.522504
H96	H	1.117811	0.680120	0.437682
H97	H	1.699320	0.418113	0.106845
H98	H	0.898438	0.418095	0.480412
H99	H	1.112099	0.418080	0.694064
O100	O	0.882943	0.605274	0.277657
H101	H	0.942451	0.586806	0.231098
O102	O	1.727602	0.405364	0.477625
H103	H	1.737410	0.361529	0.430960
O104	O	1.127650	0.405372	-0.122350
H105	H	1.117770	0.330425	-0.112447
O106	O	1.282956	0.605248	0.522487
H107	H	1.217918	0.680190	0.437655
H108	H	1.112116	0.791640	-0.305910
H109	H	0.485684	1.218934	-0.106760
O110	O	1.482803	0.405392	0.722346
H111	H	1.567628	0.330444	0.787396
H112	H	0.898473	0.418057	0.106875
H113	H	0.898465	0.592507	0.106872
H114	H	0.898463	1.218928	-0.694001
O115	O	0.882870	1.250064	-0.522431
H116	H	0.942302	1.255703	-0.481431
O117	O	1.282970	0.605219	-0.122352
H118	H	1.236345	0.711284	-0.187422
H119	H	0.797485	0.769750	0.117769
H120	H	0.817079	0.556126	0.224589
O121	O	0.645476	0.525011	0.240158
H122	H	0.736001	0.443126	0.281080
H123	H	0.311236	1.218939	-0.106768
O124	O	0.423160	0.769795	0.117798
H125	H	0.448636	0.668130	0.168624
H126	H	1.485675	0.418097	-0.106791
H127	H	1.524878	0.592548	0.106852
