data_functionalizedCrystal
_audit_creation_method	'MofGen! by Chris Wilmer'
_symmetry_space_group_name_H-M	'P1'
_symmetry_Int_Tables_number	1
_symmetry_cell_setting	triclinic
loop_
_symmetry_equiv_pos_as_xyz
  x,y,z
_cell_length_a	24.447405
_cell_length_b	24.446649
_cell_length_c	24.443239
_cell_angle_alpha	60.006064
_cell_angle_beta	60.011844
_cell_angle_gamma	59.992812
loop_
_atom_site_label
_atom_site_type_symbol
_atom_site_fract_x
_atom_site_fract_y
_atom_site_fract_z
O1	O	0.075907	-0.799232	0.668277
O2	O	0.575907	-0.299232	1.168277
O3	O	0.028634	-0.622262	0.538455
O4	O	0.528634	-0.122262	1.038455
O5	O	0.140702	-0.734230	0.538349
O6	O	0.640702	-0.234230	1.038349
O7	O	-0.036160	-0.687265	0.668384
O8	O	0.463840	-0.187265	1.168384
O9	O	0.177886	-0.697056	0.575424
O10	O	0.677886	-0.197056	1.075424
O11	O	0.065818	-0.585088	0.575530
O12	O	0.565818	-0.085088	1.075530
O13	O	0.113091	-0.762059	0.705353
O14	O	0.613091	-0.262059	1.205353
Cu15	Cu	0.092850	-0.670179	0.643827
Cu16	Cu	0.592850	-0.170179	1.143827
Cu17	Cu	0.048876	-0.714142	0.599981
Cu18	Cu	0.548876	-0.214142	1.099981
O19	O	0.001024	-0.650091	0.705459
O20	O	0.501024	-0.150091	1.205459
N21	N	0.123780	-0.639263	0.674669
N22	N	0.623780	-0.139263	1.174669
N23	N	0.017951	-0.745064	0.569139
N24	N	0.517951	-0.245064	1.069139
C25	C	0.170236	-0.489965	0.721065
C26	C	0.670236	0.010035	1.221065
C27	C	0.170249	-0.592837	0.721058
C28	C	0.670249	-0.092837	1.221058
C29	C	0.195989	-0.567121	0.746758
C30	C	0.695989	-0.067121	1.246758
C31	C	0.308182	-0.547773	0.687664
C32	C	0.808182	-0.047773	1.187664
C33	C	0.378316	-0.571143	0.664253
C34	C	0.878316	-0.071143	1.164253
C35	C	0.378353	-0.684626	0.707525
C36	C	0.878353	-0.184626	1.207525
C37	C	0.308220	-0.661254	0.730938
C38	C	0.808220	-0.161254	1.230938
C39	C	0.187125	-0.454882	0.652117
C40	C	0.687125	0.045118	1.152117
C41	C	0.163710	-0.384741	0.628763
C42	C	0.663710	0.115259	1.128763
C43	C	0.106523	-0.384772	0.743308
C44	C	0.606523	0.115228	1.243308
C45	C	0.129938	-0.454913	0.766662
C46	C	0.629938	0.045087	1.266662
C47	C	0.101291	-0.575906	0.738041
C48	C	0.601291	-0.075906	1.238041
C49	C	0.077897	-0.599283	0.714670
C50	C	0.577897	-0.099283	1.214670
C51	C	0.192412	-0.656523	0.657348
C52	C	0.692412	-0.156523	1.157348
C53	C	0.215809	-0.633146	0.680711
C54	C	0.715809	-0.133146	1.180711
C55	C	0.101393	-0.575928	0.859014
C56	C	0.601393	-0.075928	1.359014
C57	C	0.078071	-0.599328	0.929152
C58	C	0.578071	-0.099328	1.429152
C59	C	0.192636	-0.656582	0.929078
C60	C	0.692636	-0.156582	1.429078
C61	C	0.215955	-0.633184	0.858938
C62	C	0.715955	-0.133184	1.358938
C63	C	0.170332	-0.592855	0.823908
C64	C	0.670332	-0.092855	1.323908
C65	C	0.273137	-0.592827	0.721004
C66	C	0.773137	-0.092827	1.221004
C67	C	-0.131205	-0.791294	0.522327
C68	C	0.368795	-0.291294	1.022327
C69	C	-0.028388	-0.791420	0.522551
C70	C	0.471612	-0.291420	1.022551
C71	C	-0.054056	-0.817099	0.496741
C72	C	0.445944	-0.317099	0.996741
C73	C	-0.073479	-0.929255	0.555734
C74	C	0.426521	-0.429255	1.055734
C75	C	-0.050156	-0.999396	0.579142
C76	C	0.449844	-0.499396	1.079142
C77	C	0.063326	-0.999525	0.536064
C78	C	0.563326	-0.499525	1.036064
C79	C	0.040001	-0.929386	0.512654
C80	C	0.540001	-0.429386	1.012654
C81	C	-0.166365	-0.808188	0.591256
C82	C	0.333635	-0.308188	1.091256
C83	C	-0.236499	-0.784726	0.614512
C84	C	0.263501	-0.284726	1.114512
C85	C	-0.236309	-0.727482	0.499907
C86	C	0.263691	-0.227482	0.999907
C87	C	-0.166175	-0.750944	0.476651
C88	C	0.333825	-0.250944	0.976651
C89	C	-0.045285	-0.722468	0.505590
C90	C	0.454715	-0.222468	1.005590
C91	C	-0.021951	-0.699130	0.529061
C92	C	0.478049	-0.199130	1.029061
C93	C	0.035176	-0.813691	0.586439
C94	C	0.535176	-0.313691	1.086439
C95	C	0.011842	-0.837031	0.562976
C96	C	0.511842	-0.337031	1.062976
C97	C	-0.045097	-0.722476	0.384488
C98	C	0.454903	-0.222476	0.884488
C99	C	-0.021613	-0.699140	0.314350
C100	C	0.478387	-0.199140	0.814350
C101	C	0.035607	-0.813706	0.314419
C102	C	0.535607	-0.313706	0.814419
C103	C	0.012124	-0.837041	0.384558
C104	C	0.512124	-0.337041	0.884558
C105	C	-0.028229	-0.791425	0.419591
C106	C	0.471771	-0.291425	0.919591
C107	C	-0.028402	-0.894253	0.522492
C108	C	0.471598	-0.394253	1.022492
N109	N	0.412405	-0.639229	0.674505
N110	N	0.912405	-0.139229	1.174505
O111	O	0.626552	-0.645384	0.514503
O112	O	1.126552	-0.145384	1.014503
O113	O	0.626802	-0.775625	0.691288
O114	O	1.126802	-0.275625	1.191288
O115	O	0.626698	-0.775326	0.579168
O116	O	1.126698	-0.275326	1.079168
O117	O	0.626656	-0.645683	0.626623
O118	O	1.126656	-0.145683	1.126623
O119	O	0.515277	-0.738265	0.616407
O120	O	1.015277	-0.238265	1.116407
O121	O	0.515382	-0.738564	0.728527
O122	O	1.015382	-0.238564	1.228527
O123	O	0.515131	-0.608323	0.551742
O124	O	1.015131	-0.108323	1.051742
Cu125	Cu	0.505083	-0.670059	0.643535
Cu126	Cu	1.005083	-0.170059	1.143535
Cu127	Cu	0.636850	-0.713889	0.599495
Cu128	Cu	1.136850	-0.213889	1.099495
O129	O	0.515236	-0.608622	0.663862
O130	O	1.015236	-0.108622	1.163862
N131	N	0.729529	-0.744719	0.568518
N132	N	1.229529	-0.244719	1.068518
N133	N	0.123755	-0.350686	0.674680
N134	N	0.623755	0.149314	1.174680
O135	O	-0.036153	-0.136410	0.668391
O136	O	0.463847	0.363590	1.168391
O137	O	0.140633	-0.136380	0.538141
O138	O	0.640633	0.363620	1.038141
O139	O	0.028472	-0.136412	0.538488
O140	O	0.528472	0.363588	1.038488
O141	O	0.076007	-0.136377	0.668044
O142	O	0.576007	0.363623	1.168044
O143	O	0.065663	-0.247842	0.575621
O144	O	0.565663	0.252158	1.075621
O145	O	0.177823	-0.247810	0.575274
O146	O	0.677823	0.252190	1.075274
O147	O	0.001037	-0.247840	0.705524
O148	O	0.501037	0.252160	1.205524
Cu149	Cu	0.092826	-0.258000	0.643789
Cu150	Cu	0.592826	0.242000	1.143789
Cu151	Cu	0.048844	-0.126220	0.599875
Cu152	Cu	0.548844	0.373780	1.099875
O153	O	0.113198	-0.247808	0.705177
O154	O	0.613198	0.252192	1.205177
N155	N	0.017907	-0.033534	0.568986
N156	N	0.517907	0.466466	1.068986
N157	N	0.124013	-0.639306	0.963182
N158	N	0.624013	-0.139306	1.463182
O159	O	0.117754	-0.799195	1.177439
O160	O	0.617754	-0.299195	1.677439
O161	O	-0.012458	-0.622342	1.177485
O162	O	0.487542	-0.122342	1.677485
O163	O	-0.012155	-0.734480	1.177444
O164	O	0.487845	-0.234480	1.677444
O165	O	0.117450	-0.687057	1.177480
O166	O	0.617450	-0.187057	1.677480
O167	O	0.024954	-0.697317	1.066020
O168	O	0.524954	-0.197317	1.566020
O169	O	0.024650	-0.585179	1.066061
O170	O	0.524650	-0.085179	1.566061
O171	O	0.154862	-0.762032	1.066014
O172	O	0.654862	-0.262032	1.566014
Cu173	Cu	0.093145	-0.670212	1.055863
Cu174	Cu	0.593145	-0.170212	1.555863
Cu175	Cu	0.049259	-0.714162	1.187636
Cu176	Cu	0.549259	-0.214162	1.687636
O177	O	0.154559	-0.649894	1.066055
O178	O	0.654559	-0.149894	1.566055
N179	N	0.018389	-0.745075	1.280318
N180	N	0.518389	-0.245075	1.780318
C181	C	0.042795	-0.581375	0.539107
C182	C	0.542795	-0.081375	1.039107
C183	C	0.181576	-0.720034	0.538975
C184	C	0.681576	-0.220034	1.038975
C185	C	0.098930	-0.802946	0.704700
C186	C	0.598930	-0.302946	1.204700
C187	C	-0.039851	-0.664287	0.704832
C188	C	0.460149	-0.164287	1.204832
C189	C	0.571122	-0.775030	0.732180
C190	C	1.071122	-0.275030	1.232180
C191	C	0.570995	-0.774660	0.593332
C192	C	1.070995	-0.274660	1.093332
C193	C	0.570808	-0.608917	0.510851
C194	C	1.070808	-0.108917	1.010851
C195	C	0.570939	-0.609288	0.649698
C196	C	1.070939	-0.109288	1.149698
C197	C	0.181453	-0.191954	0.538725
C198	C	0.681453	0.308046	1.038725
C199	C	0.042602	-0.192131	0.539201
C200	C	0.542602	0.307869	1.039201
C201	C	-0.039829	-0.192128	0.704893
C202	C	0.460171	0.307872	1.204893
C203	C	0.099069	-0.192090	0.704464
C204	C	0.599069	0.307910	1.204464
C205	C	-0.011836	-0.581480	1.121779
C206	C	0.488164	-0.081480	1.621779
C207	C	-0.011453	-0.720342	1.121706
C208	C	0.488547	-0.220342	1.621706
C209	C	0.154240	-0.802894	1.121720
C210	C	0.654240	-0.302894	1.621720
C211	C	0.153865	-0.664024	1.121769
C212	C	0.653865	-0.164024	1.621769
H213	H	0.021932	-0.585534	0.957726
H214	H	0.521932	-0.085534	1.457726
O215	O	0.571323	-0.823829	0.792721
O216	O	1.071323	-0.323829	1.292721
C217	C	0.629045	-0.839339	0.804707
C218	C	1.129045	-0.339339	1.304707
H219	H	0.669328	-0.824476	0.754961
H220	H	1.169328	-0.324476	1.254961
H221	H	0.648475	-0.895443	0.831759
H222	H	1.148475	-0.395443	1.331759
H223	H	0.616006	-0.810643	0.837092
H224	H	1.116006	-0.310643	1.337092
O225	O	0.111156	-0.192174	0.753111
O226	O	0.611156	0.307826	1.253111
C227	C	0.103767	-0.249898	0.809596
C228	C	0.603767	0.250102	1.309596
H229	H	0.070161	-0.269148	0.809082
H230	H	0.570161	0.230852	1.309082
H231	H	0.080153	-0.236922	0.857148
H232	H	0.580153	0.263078	1.357148
H233	H	0.155012	-0.290301	0.808234
H234	H	0.655012	0.209699	1.308234
O235	O	-0.038041	-0.632174	0.280185
O236	O	0.461959	-0.132174	0.780185
C237	C	-0.073281	-0.615197	0.239528
C238	C	0.426719	-0.115197	0.739528
H239	H	-0.060615	-0.661418	0.229013
H240	H	0.439385	-0.161418	0.729013
H241	H	-0.058297	-0.574550	0.190218
H242	H	0.441703	-0.074550	0.690218
H243	H	-0.129426	-0.595895	0.266475
H244	H	0.370574	-0.095895	0.766475
O245	O	0.571043	-0.560720	0.661736
O246	O	1.071043	-0.060720	1.161736
C247	C	0.628693	-0.542634	0.615764
C248	C	1.128693	-0.042634	1.115764
H249	H	0.669035	-0.585537	0.596089
H250	H	1.169035	-0.085537	1.096089
H251	H	0.648087	-0.531767	0.641852
H252	H	1.148087	-0.031767	1.141852
H253	H	0.615574	-0.495974	0.572177
H254	H	1.115574	0.004026	1.072177
O255	O	0.571043	-0.823333	0.581324
O256	O	1.071043	-0.323333	1.081324
C257	C	0.571115	-0.881160	0.638841
C258	C	1.071115	-0.381160	1.138841
H259	H	0.592241	-0.880578	0.670812
H260	H	1.092241	-0.380578	1.170812
H261	H	0.603480	-0.927662	0.623106
H262	H	1.103480	-0.427662	1.123106
H263	H	0.517684	-0.882001	0.669116
H264	H	1.017684	-0.382001	1.169116
O265	O	-0.100447	-0.192096	0.753591
O266	O	0.399553	0.307904	1.253591
C267	C	-0.142160	-0.192124	0.729503
C268	C	0.357840	0.307876	1.229503
H269	H	-0.124042	-0.171040	0.672434
H270	H	0.375958	0.328960	1.172434
H271	H	-0.195823	-0.159767	0.750046
H272	H	0.304177	0.340233	1.250046
H273	H	-0.140346	-0.245584	0.746549
H274	H	0.359654	0.254416	1.246549
H275	H	-0.052152	-0.730472	1.121651
H276	H	0.447848	-0.230472	1.621651
O277	O	0.083878	-0.895487	0.480402
O278	O	0.583878	-0.395487	0.980402
C279	C	0.149255	-0.941540	0.476729
C280	C	0.649255	-0.441540	0.976729
H281	H	0.146522	-0.991515	0.518157
H282	H	0.646522	-0.491515	1.018157
H283	H	0.178021	-0.921313	0.483155
H284	H	0.678021	-0.421313	0.983155
H285	H	0.176087	-0.949031	0.425908
H286	H	0.676087	-0.449031	0.925908
H287	H	0.570727	-0.568026	0.460082
H288	H	1.070727	-0.068026	0.960082
O289	O	0.241921	-0.191541	0.489880
O290	O	0.741921	0.308459	0.989880
C291	C	0.283601	-0.191415	0.513936
C292	C	0.783601	0.308585	1.013936
H293	H	0.251382	-0.170541	0.557101
H294	H	0.751382	0.329459	1.057101
H295	H	0.315430	-0.158801	0.471862
H296	H	0.815430	0.341199	0.971862
H297	H	0.317695	-0.244801	0.532296
H298	H	0.817695	0.255199	1.032296
H299	H	-0.052716	-0.530687	1.121793
H300	H	0.447284	-0.030687	1.621793
O301	O	0.202380	-0.651803	1.121742
O302	O	0.702380	-0.151803	1.621742
C303	C	0.177969	-0.585948	1.121778
C304	C	0.677969	-0.085948	1.621778
H305	H	0.134952	-0.554244	1.100691
H306	H	0.634952	-0.054244	1.600691
H307	H	0.219919	-0.563409	1.089431
H308	H	0.719919	-0.063409	1.589431
H309	H	0.159299	-0.586939	1.175239
H310	H	0.659299	-0.086939	1.675239
O311	O	0.129770	-1.033733	0.526475
O312	O	0.629770	-0.533733	1.026475
C313	C	0.154112	-1.074306	0.488311
C314	C	0.654112	-0.574306	0.988311
H315	H	0.110825	-1.084756	0.493713
H316	H	0.610825	-0.584756	0.993713
H317	H	0.192849	-1.123656	0.506994
H318	H	0.692849	-0.623656	1.006994
H319	H	0.178345	-1.047315	0.433366
H320	H	0.678345	-0.547315	0.933366
O321	O	0.030484	-0.192275	0.490701
O322	O	0.530484	0.307725	0.990701
C323	C	0.014722	-0.249993	0.513810
C324	C	0.514722	0.250007	1.013810
H325	H	0.036367	-0.290310	0.555409
H326	H	0.536367	0.209690	1.055409
H327	H	0.037067	-0.269384	0.470677
H328	H	0.537067	0.230616	0.970677
H329	H	-0.042012	-0.236960	0.534028
H330	H	0.457988	0.263040	1.034028
O331	O	0.056980	-0.536784	0.825090
O332	O	0.556980	-0.036784	1.325090
C333	C	-0.008870	-0.526844	0.871115
C334	C	0.491130	-0.026844	1.371115
H335	H	-0.008700	-0.569137	0.921099
H336	H	0.491300	-0.069137	1.421099
H337	H	-0.042193	-0.526476	0.850876
H338	H	0.457807	-0.026476	1.350876
H339	H	-0.028964	-0.476882	0.878586
H340	H	0.471036	0.023118	1.378586
O341	O	0.237046	-0.695762	0.962997
O342	O	0.737046	-0.195762	1.462997
C343	C	0.302894	-0.705663	0.916968
C344	C	0.802894	-0.205663	1.416968
H345	H	0.302726	-0.697821	0.866984
H346	H	0.802726	-0.197821	1.366984
H347	H	0.336228	-0.758854	0.937203
H348	H	0.836228	-0.258854	1.437203
H349	H	0.322976	-0.668321	0.909498
H350	H	0.822976	-0.168321	1.409498
H351	H	0.032695	-0.530537	0.498334
H352	H	0.532695	-0.030537	0.998334
H353	H	0.195123	-0.853684	1.121698
H354	H	0.695123	-0.353684	1.621698
H355	H	0.272095	-0.646975	0.830359
H356	H	0.772095	-0.146975	1.330359
H357	H	0.064189	-0.543085	0.770891
H358	H	0.564189	-0.043085	1.270891
H359	H	0.021747	-0.585481	0.728482
H360	H	0.521747	-0.085481	1.228482
H361	H	0.232372	-0.730046	0.498140
H362	H	0.732372	-0.230046	0.998140
H363	H	0.229515	-0.689349	0.624505
H364	H	0.729515	-0.189349	1.124505
H365	H	-0.090650	-0.654278	0.745664
H366	H	0.409350	-0.154278	1.245664
O367	O	0.282816	-0.649658	0.664162
O368	O	0.782816	-0.149658	1.164162
C369	C	0.318014	-0.690224	0.623516
C370	C	0.818014	-0.190224	1.123516
H371	H	0.284580	-0.715749	0.632494
H372	H	0.784580	-0.215749	1.132494
H373	H	0.364861	-0.729887	0.636605
H374	H	0.864861	-0.229887	1.136605
H375	H	0.333063	-0.657840	0.568584
H376	H	0.833063	-0.157840	1.068584
H377	H	0.279688	-0.697946	0.758086
H378	H	0.779688	-0.197946	1.258086
H379	H	0.406848	-0.534453	0.637104
H380	H	0.906848	-0.034453	1.137104
O381	O	0.412335	-0.751122	0.717246
O382	O	0.912335	-0.251122	1.217246
C383	C	0.366364	-0.785876	0.751677
C384	C	0.866364	-0.285876	1.251677
H385	H	0.316379	-0.755287	0.780439
H386	H	0.816379	-0.255287	1.280439
H387	H	0.386667	-0.836458	0.788273
H388	H	0.886667	-0.336458	1.288273
H389	H	0.358872	-0.793987	0.714163
H390	H	0.858872	-0.293987	1.214163
H391	H	0.025599	-0.893178	0.576787
H392	H	0.525599	-0.393178	1.076787
O393	O	0.274178	-0.481276	0.677898
O394	O	0.774178	0.018724	1.177898
C395	C	0.291252	-0.445084	0.608649
C396	C	0.791252	0.054916	1.108649
H397	H	0.342166	-0.475726	0.581013
H398	H	0.842166	0.024274	1.081013
H399	H	0.293645	-0.395638	0.599381
H400	H	0.793645	0.104362	1.099381
H401	H	0.251754	-0.434622	0.589558
H402	H	0.751754	0.065378	1.089558
O403	O	0.226234	-0.488829	0.607736
O404	O	0.726234	0.011171	1.107736
C405	C	0.236125	-0.442821	0.541871
C406	C	0.736125	0.057179	1.041871
H407	H	0.193827	-0.392830	0.542024
H408	H	0.693827	0.107170	1.042024
H409	H	0.236462	-0.463080	0.508581
H410	H	0.736462	0.036920	1.008581
H411	H	0.286082	-0.435350	0.521746
H412	H	0.786082	0.064650	1.021746
O413	O	-0.084190	-0.678141	0.418494
O414	O	0.415810	-0.178141	0.918494
C415	C	-0.048763	-0.637640	0.401423
C416	C	0.451237	-0.137640	0.901423
H417	H	0.007347	-0.664780	0.382223
H418	H	0.507347	-0.164780	0.882223
H419	H	-0.061361	-0.627033	0.447568
H420	H	0.438639	-0.127033	0.947568
H421	H	-0.063626	-0.588359	0.360675
H422	H	0.436374	-0.088359	0.860675
O423	O	0.180141	-0.350584	0.561798
O424	O	0.680141	0.149416	1.061798
C425	C	0.215452	-0.310018	0.544834
C426	C	0.715452	0.189982	1.044834
H427	H	0.202831	-0.299522	0.591054
H428	H	0.702831	0.200478	1.091054
H429	H	0.200491	-0.260690	0.504177
H430	H	0.700491	0.239310	1.004177
H431	H	0.271584	-0.337037	0.525554
H432	H	0.771584	0.162963	1.025554
H433	H	0.109031	-0.853782	0.745475
H434	H	0.609031	-0.353782	1.245475
H435	H	0.073721	-0.356231	0.780438
H436	H	0.573721	0.143769	1.280438
H437	H	0.068452	-0.850855	0.285902
H438	H	0.568452	-0.350855	0.785902
O439	O	0.113614	-0.488967	0.833649
O440	O	0.613614	0.011033	1.333649
C441	C	0.137607	-0.471820	0.862766
C442	C	0.637607	0.028180	1.362766
H443	H	0.180839	-0.452522	0.822819
H444	H	0.680839	0.047478	1.322819
H445	H	0.155853	-0.517953	0.904095
H446	H	0.655853	-0.017953	1.404095
H447	H	0.095533	-0.431120	0.884928
H448	H	0.595533	0.068880	1.384928
O449	O	0.028548	-0.904044	0.418552
O450	O	0.528548	-0.404044	0.918552
C451	C	0.069209	-0.939298	0.372589
C452	C	0.569209	-0.439298	0.872589
H453	H	0.060345	-0.905847	0.322546
H454	H	0.560345	-0.405847	0.822546
H455	H	0.056030	-0.986069	0.392818
H456	H	0.556030	-0.486069	0.892818
H457	H	0.124127	-0.954485	0.365237
H458	H	0.624127	-0.454485	0.865237
H459	H	-0.035712	-0.642984	0.515253
H460	H	0.464288	-0.142984	1.015253
O461	O	-0.084463	-0.678132	0.466428
O462	O	0.415537	-0.178132	0.966428
C463	C	-0.143297	-0.637517	0.501767
C464	C	0.356703	-0.137517	1.001767
H465	H	-0.153134	-0.664581	0.557894
H466	H	0.346866	-0.164581	1.057894
H467	H	-0.187435	-0.626860	0.489118
H468	H	0.312565	-0.126860	0.989118
H469	H	-0.136899	-0.588267	0.486867
H470	H	0.363101	-0.088267	0.986867
H471	H	-0.086862	-1.027893	0.606199
H472	H	0.413138	-0.527893	1.106199
O473	O	0.074227	-0.858090	0.625719
O474	O	0.574227	-0.358090	1.125719
C475	C	0.084150	-0.923951	0.635634
C476	C	0.584150	-0.423951	1.135634
H477	H	0.041900	-0.923773	0.627696
H478	H	0.541900	-0.423773	1.127696
H479	H	0.084430	-0.957240	0.688857
H480	H	0.584430	-0.457240	1.188857
H481	H	0.134144	-0.944098	0.598367
H482	H	0.634144	-0.444098	1.098367
H483	H	-0.129177	-0.900656	0.563750
H484	H	0.370823	-0.400656	1.063750
H485	H	-0.265127	-0.798479	0.670643
H486	H	0.234873	-0.298479	1.170643
O487	O	-0.132497	-0.847351	0.635713
O488	O	0.367503	-0.347351	1.135713
C489	C	-0.178572	-0.857238	0.701541
C490	C	0.321428	-0.357238	1.201541
H491	H	-0.228534	-0.814906	0.701329
H492	H	0.271466	-0.314906	1.201329
H493	H	-0.158368	-0.857629	0.734910
H494	H	0.341632	-0.357629	1.234910
H495	H	-0.186071	-0.907174	0.721613
H496	H	0.313929	-0.407174	1.221613
H497	H	-0.264783	-0.694634	0.462714
H498	H	0.235217	-0.194634	0.962714
H499	H	-0.137547	-0.737181	0.420520
H500	H	0.362453	-0.237181	0.920520
