data_functionalizedCrystal
_audit_creation_method	'MofGen! by Chris Wilmer'
_symmetry_space_group_name_H-M	'P1'
_symmetry_Int_Tables_number	1
_symmetry_cell_setting	triclinic
loop_
_symmetry_equiv_pos_as_xyz
  x,y,z
_cell_length_a	14.519709
_cell_length_b	10.540539
_cell_length_c	13.596369
_cell_angle_alpha	89.996161
_cell_angle_beta	90.000291
_cell_angle_gamma	84.102818
loop_
_atom_site_label
_atom_site_type_symbol
_atom_site_fract_x
_atom_site_fract_y
_atom_site_fract_z
O1	O	1.224765	0.166400	-0.081658
O2	O	1.724765	0.666400	0.418342
O3	O	0.956394	0.185995	-0.081688
O4	O	1.456394	0.685995	0.418312
O5	O	1.096702	-0.008572	-0.081671
O6	O	1.596702	0.491428	0.418329
O7	O	1.084457	0.360966	-0.081675
O8	O	1.584457	0.860966	0.418325
O9	O	1.096688	-0.008582	0.081912
O10	O	1.596688	0.491418	0.581912
O11	O	0.956380	0.185985	0.081895
O12	O	1.456380	0.685985	0.581895
O13	O	1.224751	0.166389	0.081924
O14	O	1.724751	0.666389	0.581924
Zn15	Zn	1.090563	0.176185	0.107882
Zn16	Zn	1.590563	0.676185	0.607882
Zn17	Zn	1.090582	0.176199	-0.107646
Zn18	Zn	1.590582	0.676199	0.392354
O19	O	1.084442	0.360956	0.081908
O20	O	1.584442	0.860956	0.581908
C21	C	0.922022	0.185077	0.000100
C22	C	1.422022	0.685077	0.500100
C23	C	0.819626	0.182340	0.000088
C24	C	1.319626	0.682340	0.500088
C25	C	1.095777	-0.055870	0.000118
C26	C	1.595777	0.444130	0.500118
C27	C	1.093029	-0.196790	0.000113
C28	C	1.593029	0.303210	0.500113
C29	C	0.444676	0.172265	0.000133
C30	C	0.944676	0.672265	0.500133
C31	C	0.548999	0.175063	0.000120
C32	C	1.048999	0.675063	0.500120
C33	C	0.632148	0.177303	0.000110
C34	C	1.132148	0.677303	0.500110
C35	C	0.736477	0.180101	0.000099
C36	C	1.236477	0.680101	0.500099
C37	C	0.987750	-0.379142	-0.000266
C38	C	1.487750	0.120858	0.499734
C39	C	0.990535	-0.232553	0.000102
C40	C	1.490535	0.267447	0.500102
C41	C	1.142346	-0.258957	0.093532
C42	C	1.642346	0.241043	0.593532
C43	C	1.138848	-0.405466	0.093610
C44	C	1.638848	0.094534	0.593610
C45	C	1.140949	-0.405994	-0.092414
C46	C	1.640949	0.094006	0.407586
C47	C	1.141893	-0.259022	-0.093649
C48	C	1.641893	0.240978	0.406351
C49	C	1.259123	0.167308	0.000135
C50	C	1.759123	0.667308	0.500135
C51	C	1.361519	0.170044	0.000140
C52	C	1.861519	0.670044	0.500140
C53	C	1.085368	0.408255	0.000116
C54	C	1.585368	0.908255	0.500116
C55	C	1.088115	0.549175	0.000115
C56	C	1.588115	1.049175	0.500115
N57	N	1.090557	0.176175	0.254974
N58	N	1.590557	0.676175	0.754974
N59	N	1.090595	0.176199	-0.254737
N60	N	1.590595	0.676199	0.245263
C61	C	1.090580	0.176200	0.656265
C62	C	1.590580	0.676200	1.156265
C63	C	1.090571	0.176198	0.544613
C64	C	1.590571	0.676198	1.044613
C65	C	1.090569	0.176189	0.455623
C66	C	1.590569	0.676189	0.955623
C67	C	1.090559	0.176184	0.343964
C68	C	1.590559	0.676184	0.843964
H69	H	0.947268	-0.407325	-0.067259
H70	H	1.447268	0.092675	0.432741
N71	N	1.099349	-0.445114	-0.181252
N72	N	1.599349	0.054886	0.318748
N73	N	1.132089	-0.417880	-0.262690
N74	N	1.632089	0.082120	0.237310
H75	H	1.102701	-0.445506	-0.325429
H76	H	1.602701	0.054494	0.174571
H77	H	1.102389	-0.433298	0.163435
H78	H	1.602389	0.066702	0.663435
H79	H	0.951446	-0.190402	0.067172
H80	H	1.451446	0.309598	0.567172
N81	N	1.235630	-0.229564	-0.100719
N82	N	1.735630	0.270436	0.399281
N83	N	1.268094	-0.161930	-0.036479
N84	N	1.768094	0.338070	0.463521
H85	H	1.334298	-0.141119	-0.041468
H86	H	1.834298	0.358881	0.458532
N87	N	1.096677	-0.207199	-0.180343
N88	N	1.596677	0.292801	0.319657
N89	N	1.028718	-0.124737	-0.173178
N90	N	1.528718	0.375263	0.326822
H91	H	0.996781	-0.088129	-0.234404
H92	H	1.496781	0.411871	0.265596
N93	N	1.231311	-0.466600	0.098974
N94	N	1.731311	0.033400	0.598974
N95	N	1.254984	-0.538752	0.169510
N96	N	1.754984	-0.038752	0.669510
H97	H	1.320285	-0.581925	0.173306
H98	H	1.820285	-0.081925	0.673306
N99	N	1.099338	-0.205098	0.180729
N100	N	1.599338	0.294902	0.680729
N101	N	1.015488	-0.214434	0.196485
N102	N	1.515488	0.285566	0.696485
H103	H	0.985107	-0.176398	0.258066
H104	H	1.485107	0.323602	0.758066
H105	H	1.217615	-0.237372	0.097013
H106	H	1.717615	0.262628	0.597013
H107	H	1.214980	-0.453976	-0.093034
H108	H	1.714980	0.046024	0.406966
N109	N	0.941849	-0.178615	-0.083907
N110	N	1.441849	0.321385	0.416093
N111	N	0.905569	-0.249226	-0.143221
N112	N	1.405569	0.250774	0.356779
H113	H	0.871178	-0.211138	-0.202554
H114	H	1.371178	0.288862	0.297446
N115	N	0.937163	-0.416535	0.083294
N116	N	1.437163	0.083465	0.583294
N117	N	0.974707	-0.495748	0.143126
N118	N	1.474707	0.004252	0.643126
H119	H	0.938983	-0.522160	0.202142
H120	H	1.438983	-0.022160	0.702142
