data_functionalizedCrystal
_audit_creation_method	'MofGen! by Chris Wilmer'
_symmetry_space_group_name_H-M	'P1'
_symmetry_Int_Tables_number	1
_symmetry_cell_setting	triclinic
loop_
_symmetry_equiv_pos_as_xyz
  x,y,z
_cell_length_a	19.077105
_cell_length_b	13.897448
_cell_length_c	19.076919
_cell_angle_alpha	87.727045
_cell_angle_beta	89.923776
_cell_angle_gamma	87.714101
loop_
_atom_site_label
_atom_site_type_symbol
_atom_site_fract_x
_atom_site_fract_y
_atom_site_fract_z
Zn1	Zn	1.058310	-0.466652	0.440425
Zn2	Zn	1.558310	0.033348	0.940425
Zn3	Zn	1.062963	-0.621745	0.322920
Zn4	Zn	1.562963	-0.121745	0.822920
Zn5	Zn	0.945527	-0.453730	0.318218
Zn6	Zn	1.445527	0.046270	0.818218
Zn7	Zn	0.940785	-0.621164	0.435673
Zn8	Zn	1.440785	-0.121164	0.935673
O9	O	1.001896	-0.540823	0.379309
O10	O	1.501896	-0.040823	0.879309
O11	O	1.157260	-0.492877	0.428794
O12	O	1.657260	0.007123	0.928794
O13	O	1.051317	-0.594293	0.223965
O14	O	1.551317	-0.094293	0.723965
O15	O	0.960525	-0.320466	0.334450
O16	O	1.460525	0.179534	0.834450
O17	O	1.160678	-0.606823	0.342464
O18	O	1.660678	-0.106823	0.842464
O19	O	1.043386	-0.329960	0.424235
O20	O	1.543386	0.170040	0.924235
O21	O	0.965037	-0.470854	0.220510
O22	O	1.465037	0.029146	0.720510
O23	O	0.846566	-0.470290	0.329842
O24	O	1.346566	0.029710	0.829842
O25	O	0.952443	-0.605832	0.534635
O26	O	1.452443	-0.105832	1.034635
O27	O	0.843082	-0.593302	0.416136
O28	O	1.343082	-0.093302	0.916136
O29	O	1.038788	-0.492313	0.538126
O30	O	1.538788	0.007687	1.038126
O31	O	1.046719	-0.756647	0.337856
O32	O	1.546719	-0.256647	0.837856
O33	O	0.956955	-0.756219	0.420695
O34	O	1.456955	-0.256219	0.920695
C35	C	0.819327	-0.530331	0.371963
C36	C	1.319327	-0.030331	0.871963
C37	C	0.741223	-0.525867	0.368837
C38	C	1.241223	-0.025867	0.868837
C39	C	1.001846	-0.791433	0.379287
C40	C	1.501846	-0.291433	0.879287
C41	C	1.001888	-0.898650	0.379303
C42	C	1.501888	-0.398650	0.879303
C43	C	0.702736	-0.587905	0.412227
C44	C	1.202736	-0.087905	0.912227
C45	C	0.629349	-0.583698	0.409293
C46	C	1.129349	-0.083698	0.909293
C47	C	0.594449	-0.517456	0.362966
C48	C	1.094449	-0.017456	0.862966
C49	C	0.632940	-0.455412	0.319575
C50	C	1.132940	0.044588	0.819575
C51	C	0.706327	-0.459615	0.322513
C52	C	1.206327	0.040385	0.822513
C53	C	0.375160	-0.498004	0.349373
C54	C	0.875160	0.001996	0.849373
C55	C	0.301769	-0.493807	0.346437
C56	C	0.801769	0.006193	0.846437
C57	C	0.298182	-0.622092	0.436157
C58	C	0.798182	-0.122092	0.936157
C59	C	0.371570	-0.626293	0.439087
C60	C	0.871570	-0.126293	0.939087
C61	C	0.410055	-0.564245	0.395699
C62	C	0.910055	-0.064245	0.895699
N63	N	0.519435	-0.513157	0.359965
N64	N	1.019435	-0.013157	0.859965
N65	N	0.485067	-0.568541	0.398704
N66	N	0.985067	-0.068541	0.898704
C67	C	1.001960	-1.094952	0.379350
C68	C	1.501960	-0.594952	0.879350
C69	C	1.001918	-0.985716	0.379326
C70	C	1.501918	-0.485716	0.879326
C71	C	1.185178	-0.551356	0.386684
C72	C	1.685178	-0.051356	0.886684
C73	C	1.263282	-0.555845	0.389826
C74	C	1.763282	-0.055845	0.889826
C75	C	0.994568	-0.550449	0.562589
C76	C	1.494568	-0.050449	1.062589
C77	C	0.991445	-0.554551	0.640692
C78	C	1.491445	-0.054551	1.140692
C79	C	1.001966	-0.289236	0.379348
C80	C	1.501966	0.210764	0.879348
C81	C	1.001995	-0.182024	0.379364
C82	C	1.501995	0.317976	0.879364
C83	C	1.009237	-0.531167	0.196743
C84	C	1.509237	-0.031167	0.696743
C85	C	1.012496	-0.526801	0.118646
C86	C	1.512496	-0.026801	0.618646
C87	C	1.034931	-0.497377	0.679204
C88	C	1.534931	0.002623	1.179204
C89	C	1.031988	-0.501227	0.752590
C90	C	1.531988	-0.001227	1.252590
C91	C	0.985562	-0.562257	0.787463
C92	C	1.485562	-0.062257	1.287463
C93	C	0.942071	-0.619432	0.748946
C94	C	1.442071	-0.119432	1.248946
C95	C	0.945011	-0.615576	0.675561
C96	C	1.445011	-0.115576	1.175561
C97	C	0.971945	-0.580121	1.006744
C98	C	1.471945	-0.080121	1.506744
C99	C	0.969010	-0.583975	1.080134
C100	C	1.469010	-0.083975	1.580134
C101	C	1.058926	-0.465768	1.083773
C102	C	1.558926	0.034232	1.583773
C103	C	1.061865	-0.461922	1.010387
C104	C	1.561865	0.038078	1.510387
C105	C	1.018372	-0.519094	0.971877
C106	C	1.518372	-0.019094	1.471877
N107	N	0.982554	-0.566196	0.862475
N108	N	1.482554	-0.066196	1.362475
N109	N	1.021376	-0.515149	0.896866
N110	N	1.521376	-0.015149	1.396866
H111	H	0.598016	-0.634216	0.444625
H112	H	1.098016	-0.134216	0.944625
H113	H	0.266840	-0.672607	0.471482
H114	H	0.766840	-0.172607	0.971482
N115	N	0.927515	-0.638525	0.967424
N116	N	1.427515	-0.138525	1.467424
N117	N	0.886070	-0.693012	0.998571
N118	N	1.386070	-0.193012	1.498571
H119	H	0.854689	-0.734265	0.970799
H120	H	1.354689	-0.234265	1.470799
N121	N	0.900593	-0.673966	0.636209
N122	N	1.400593	-0.173966	1.136209
N123	N	0.857468	-0.635297	0.593461
N124	N	1.357468	-0.135297	1.093461
H125	H	0.826094	-0.676532	0.565667
H126	H	1.326094	-0.176532	1.065667
N127	N	0.407206	-0.693966	0.486412
N128	N	0.907206	-0.193966	0.986412
N129	N	0.372834	-0.749353	0.525149
N130	N	0.872834	-0.249353	1.025149
H131	H	0.398002	-0.797151	0.558572
H132	H	0.898002	-0.297151	1.058572
N133	N	0.745653	-0.396261	0.278189
N134	N	1.245653	0.103739	0.778189
N135	N	0.811175	-0.400022	0.280818
N136	N	1.311175	0.099978	0.780818
H137	H	0.838950	-0.355275	0.249514
H138	H	1.338950	0.144725	0.749514
H139	H	0.931203	-0.633674	1.108525
H140	H	1.431203	-0.133674	1.608525
N141	N	0.738372	-0.655584	0.459547
N142	N	1.238372	-0.155584	0.959547
N143	N	0.703997	-0.710969	0.498284
N144	N	1.203997	-0.210969	0.998284
H145	H	0.729161	-0.758769	0.531706
H146	H	1.229161	-0.258769	1.031706
H147	H	1.072738	-0.447684	0.650816
H148	H	1.572738	0.052316	1.150816
H149	H	1.067400	-0.454673	0.783943
H150	H	1.567400	0.045327	1.283943
N151	N	1.109298	-0.399585	0.974779
N152	N	1.609298	0.100415	1.474779
N153	N	1.148125	-0.348545	1.009174
N154	N	1.648125	0.151455	1.509174
H155	H	1.181630	-0.304523	0.984026
H156	H	1.681630	0.195477	1.484026
N157	N	1.103346	-0.407380	1.123122
N158	N	1.603346	0.092620	1.623122
N159	N	1.100719	-0.410828	1.188643
N160	N	1.600719	0.089172	1.688643
H161	H	1.132091	-0.369588	1.216435
H162	H	1.632091	0.130412	1.716435
N163	N	0.266129	-0.426134	0.299109
N164	N	0.766129	0.073866	0.799109
N165	N	0.300498	-0.370739	0.260373
N166	N	0.800498	0.129261	0.760373
H167	H	0.275328	-0.322947	0.226949
H168	H	0.775328	0.177053	0.726949
N169	N	0.414455	-0.434624	0.305046
N170	N	0.914455	0.065376	0.805046
N171	N	0.383283	-0.375492	0.263682
N172	N	0.883283	0.124508	0.763682
H173	H	0.411037	-0.330729	0.232371
H174	H	0.911037	0.169271	0.732371
N175	N	0.894646	-0.681759	0.784576
N176	N	1.394646	-0.181759	1.284576
N177	N	0.892027	-0.685195	0.850098
N178	N	1.392027	-0.185195	1.350098
H179	H	0.858533	-0.729216	0.875261
H180	H	1.358533	-0.229216	1.375261
H181	H	0.604519	-0.401473	0.281858
H182	H	1.104519	0.098527	0.781858
