data_functionalizedCrystal
_audit_creation_method	'MofGen! by Chris Wilmer'
_symmetry_space_group_name_H-M	'P1'
_symmetry_Int_Tables_number	1
_symmetry_cell_setting	triclinic
loop_
_symmetry_equiv_pos_as_xyz
  x,y,z
_cell_length_a	12.594517
_cell_length_b	12.594516
_cell_length_c	13.897441
_cell_angle_alpha	89.973623
_cell_angle_beta	89.977798
_cell_angle_gamma	90.015853
loop_
_atom_site_label
_atom_site_type_symbol
_atom_site_fract_x
_atom_site_fract_y
_atom_site_fract_z
Zn1	Zn	1.627276	-0.423714	-0.545447
Zn2	Zn	2.127276	0.076286	-0.045447
Zn3	Zn	1.627164	-0.601725	-0.384161
Zn4	Zn	2.127164	-0.101725	0.115839
Zn5	Zn	1.449277	-0.423760	-0.384161
Zn6	Zn	1.949277	0.076240	0.115839
Zn7	Zn	1.449262	-0.601650	-0.545409
Zn8	Zn	1.949262	-0.101650	-0.045409
O9	O	1.538245	-0.512712	-0.464795
O10	O	2.038245	-0.012712	0.035205
O11	O	1.776207	-0.447339	-0.524068
O12	O	2.276207	0.052661	-0.024068
O13	O	1.603527	-0.578168	-0.249179
O14	O	2.103527	-0.078168	0.250821
O15	O	1.472942	-0.274808	-0.405573
O16	O	1.972942	0.225192	0.094427
O17	O	1.776125	-0.578123	-0.405571
O18	O	2.276125	-0.078123	0.094429
O19	O	1.603717	-0.274774	-0.524069
O20	O	2.103717	0.225226	-0.024069
O21	O	1.472834	-0.447418	-0.249180
O22	O	1.972834	0.052582	0.250820
O23	O	1.300330	-0.447346	-0.405536
O24	O	1.800330	0.052654	0.094464
O25	O	1.472917	-0.577996	-0.680396
O26	O	1.972917	-0.077996	-0.180396
O27	O	1.300318	-0.578041	-0.524004
O28	O	1.800318	-0.078041	-0.024004
O29	O	1.603703	-0.447267	-0.680424
O30	O	2.103703	0.052733	-0.180424
O31	O	1.603512	-0.750661	-0.405534
O32	O	2.103512	-0.250661	0.094466
O33	O	1.472808	-0.750606	-0.524003
O34	O	1.972808	-0.250606	-0.024003
C35	C	1.261704	-0.512691	-0.464766
C36	C	1.761704	-0.012691	0.035234
C37	C	1.143399	-0.512707	-0.464777
C38	C	1.643399	-0.012707	0.035223
C39	C	1.074121	-0.441525	-0.400465
C40	C	1.574121	0.058475	0.099535
C41	C	1.003309	-0.538614	-0.376743
C42	C	1.503309	-0.038614	0.123257
C43	C	1.003411	-0.415666	-0.488516
C44	C	1.503411	0.084334	0.011484
C45	C	1.074145	-0.609847	-0.441008
C46	C	1.574145	-0.109847	0.058992
C47	C	1.074253	-0.486834	-0.552822
C48	C	1.574253	0.013166	-0.052822
C49	C	1.003474	-0.583990	-0.529133
C50	C	1.503474	-0.083990	-0.029133
C51	C	1.538175	-0.789253	-0.464785
C52	C	2.038175	-0.289253	0.035215
C53	C	1.538243	-0.907559	-0.464813
C54	C	2.038243	-0.407559	0.035187
C55	C	1.467146	-0.976821	-0.529203
C56	C	1.967146	-0.476821	-0.029203
C57	C	1.441211	-1.047686	-0.441186
C58	C	1.941211	-0.547686	0.058814
C59	C	1.564275	-1.047492	-0.552846
C60	C	2.064275	-0.547492	-0.052846
C61	C	1.512257	-0.976866	-0.376749
C62	C	2.012257	-0.476866	0.123251
C63	C	1.635365	-0.976665	-0.488469
C64	C	2.135365	-0.476665	0.011531
C65	C	1.609467	-1.047499	-0.400391
C66	C	2.109467	-0.547499	0.099609
C67	C	1.815866	-0.512734	-0.464824
C68	C	2.315866	-0.012734	0.035176
C69	C	1.934171	-0.512744	-0.464836
C70	C	2.434171	-0.012744	0.035164
C71	C	1.538321	-0.512618	-0.716388
C72	C	2.038321	-0.012618	-0.216388
C73	C	1.538353	-0.512578	-0.823602
C74	C	2.038353	-0.012578	-0.323602
C75	C	1.538344	-0.235091	-0.464825
C76	C	2.038344	0.264909	0.035175
C77	C	1.538386	-0.116786	-0.464838
C78	C	2.038386	0.383214	0.035162
C79	C	1.538382	-0.512506	-1.019897
C80	C	2.038382	-0.012506	-0.519897
C81	C	1.538362	-0.512549	-0.910664
C82	C	2.038362	-0.012549	-0.410664
C83	C	1.538231	-0.512729	-0.214180
C84	C	2.038231	-0.012729	0.285820
C85	C	1.538405	-0.512469	-0.106967
C86	C	2.038405	-0.012469	0.393033
H87	H	0.972149	-0.560521	-0.302310
H88	H	1.472149	-0.060521	0.197690
H89	H	1.105141	-0.381388	-0.346012
H90	H	1.605141	0.118612	0.153988
H91	H	1.105439	-0.464897	-0.627233
H92	H	1.605439	0.035103	-0.127233
H93	H	0.972649	-0.644271	-0.583545
H94	H	1.472649	-0.144271	-0.083545
H95	H	1.717414	-0.945449	-0.508499
H96	H	2.217414	-0.445449	-0.008499
H97	H	1.359143	-1.078905	-0.421198
H98	H	1.859143	-0.578905	0.078802
C99	C	1.115930	-0.720765	-0.413796
C100	C	1.615930	-0.220765	0.086204
H101	H	1.057686	-0.767076	-0.402493
H102	H	1.557686	-0.267076	0.097507
H103	H	1.157874	-0.715775	-0.357184
H104	H	1.657874	-0.215775	0.142816
H105	H	1.157998	-0.747879	-0.464938
H106	H	1.657998	-0.247879	0.035062
H107	H	0.972284	-0.333595	-0.508536
H108	H	1.472284	0.166405	-0.008536
H109	H	1.490202	-0.945971	-0.302291
H110	H	1.990202	-0.445971	0.197709
H111	H	1.669653	-1.078337	-0.345886
H112	H	2.169653	-0.578337	0.154114
H113	H	1.406914	-0.945786	-0.583576
H114	H	1.906914	-0.445786	-0.083576
C115	C	1.593947	-1.089400	-0.653402
C116	C	2.093947	-0.589400	-0.153402
H117	H	1.543311	-1.065187	-0.699059
H118	H	2.043311	-0.565187	-0.199059
H119	H	1.594424	-1.164817	-0.652552
H120	H	2.094424	-0.664817	-0.152552
H121	H	1.662405	-1.064028	-0.670638
H122	H	2.162405	-0.564028	-0.170638
