data_functionalizedCrystal
_audit_creation_method	'MofGen! by Chris Wilmer'
_symmetry_space_group_name_H-M	'P1'
_symmetry_Int_Tables_number	1
_symmetry_cell_setting	triclinic
loop_
_symmetry_equiv_pos_as_xyz
  x,y,z
_cell_length_a	15.944551
_cell_length_b	10.654550
_cell_length_c	9.730223
_cell_angle_alpha	90.003749
_cell_angle_beta	89.997716
_cell_angle_gamma	96.008180
loop_
_atom_site_label
_atom_site_type_symbol
_atom_site_fract_x
_atom_site_fract_y
_atom_site_fract_z
O1	O	0.117973	-1.666308	-0.114406
O2	O	0.129213	-1.300684	-0.114384
O3	O	0.001376	-1.493480	-0.114384
O4	O	0.245810	-1.473511	-0.114407
O5	O	0.001379	-1.493478	0.114196
O6	O	0.129216	-1.300681	0.114196
O7	O	0.117976	-1.666305	0.114174
Zn8	Zn	0.123597	-1.483493	0.150477
Zn9	Zn	0.123592	-1.483496	-0.150687
O10	O	0.245813	-1.473509	0.114173
C11	C	-0.029921	-1.492650	-0.000093
C12	C	-0.123182	-1.490165	-0.000092
C13	C	0.128389	-1.253895	-0.000092
C14	C	0.125920	-1.114484	-0.000083
C15	C	0.118800	-1.713094	-0.000122
C16	C	0.121269	-1.852505	-0.000140
C17	C	-0.338765	-1.364720	-0.000104
C18	C	-0.399443	-1.422971	0.112596
C19	C	-0.293934	-1.485668	-0.000103
C20	C	-0.399430	-1.423002	-0.112765
C21	C	-0.458872	-1.481317	-0.000119
C22	C	-0.353384	-1.543953	0.112691
C23	C	-0.353364	-1.543967	-0.112772
C24	C	-0.414024	-1.602306	-0.000045
C25	C	-0.198917	-1.488172	-0.000092
C26	C	-0.553887	-1.478822	-0.000119
C27	C	0.277110	-1.474339	-0.000120
C28	C	0.370371	-1.476824	-0.000130
N29	N	0.123599	-1.483500	0.356013
C30	C	0.201188	-1.034024	-0.000110
C31	C	0.198863	-0.903034	-0.000134
C32	C	0.045995	-0.932975	-0.000108
C33	C	0.048321	-1.063963	-0.000075
C34	C	0.289446	-1.016737	-0.000131
C35	C	0.287121	-0.885746	-0.000154
N36	N	0.123583	-1.483499	-0.356224
C37	C	0.067012	-1.568892	0.427939
C38	C	0.067002	-1.568889	0.571822
C39	C	0.180173	-1.398098	0.571840
C40	C	0.180178	-1.398096	0.427959
C41	C	0.001676	-1.667501	0.427931
C42	C	0.001666	-1.667498	0.571814
H43	H	-0.306038	-1.264327	0.000015
H44	H	0.320374	-0.843584	-0.095825
O45	O	-0.423882	-1.361827	0.226125
C46	C	-0.492774	-1.187877	0.314477
C47	C	-0.465169	-1.257028	0.185800
H48	H	-0.526144	-1.103117	0.281921
H49	H	-0.537645	-1.254960	0.378164
H50	H	-0.434908	-1.154313	0.378621
H51	H	-0.522984	-1.290597	0.121550
H52	H	-0.420269	-1.189899	0.122216
O53	O	-0.423889	-1.361947	-0.226330
C54	C	-0.539867	-1.292328	-0.354252
C55	C	-0.512286	-1.361486	-0.225577
H56	H	-0.611338	-1.291955	-0.353700
H57	H	-0.508707	-1.191018	-0.354097
H58	H	-0.519969	-1.342893	-0.450280
H59	H	-0.532177	-1.311026	-0.129481
H60	H	-0.543438	-1.462798	-0.225853
O61	O	0.330500	-1.051170	0.114132
C62	C	0.334399	-1.054276	0.361665
C63	C	0.287816	-1.015237	0.232382
H64	H	0.299918	-1.025216	0.457302
H65	H	0.336274	-1.160946	0.361807
H66	H	0.401535	-1.005485	0.361588
H67	H	0.220659	-1.063940	0.232374
H68	H	0.286009	-0.908554	0.232289
H69	H	-0.017184	-0.891824	-0.000123
H70	H	-0.062885	-1.646893	0.388884
H71	H	0.022134	-1.758420	0.383297
H72	H	-0.012970	-1.129470	-0.000033
O73	O	0.235048	-1.314970	0.641672
C74	C	0.282931	-1.096615	0.685646
C75	C	0.220723	-1.190619	0.606505
H76	H	0.271383	-0.996057	0.657221
H77	H	0.273205	-1.111171	0.800853
H78	H	0.350307	-1.113038	0.657382
H79	H	0.153323	-1.174254	0.634654
H80	H	0.230523	-1.176041	0.491317
H81	H	0.313795	-0.839729	0.098527
H82	H	0.226248	-1.328552	0.369398
O83	O	0.322924	-1.059070	-0.117795
C84	C	0.361379	-1.238942	-0.244174
C85	C	0.323433	-1.191172	-0.110865
H86	H	0.361820	-1.345747	-0.238605
H87	H	0.321779	-1.213774	-0.335728
H88	H	0.428692	-1.192641	-0.256844
H89	H	0.256127	-1.237446	-0.098064
H90	H	0.363095	-1.216321	-0.019380
O91	O	-0.071194	-1.632110	0.624835
C92	C	-0.208051	-1.565451	0.577079
C93	C	-0.125586	-1.605513	0.516847
H94	H	-0.252042	-1.543911	0.489800
H95	H	-0.239893	-1.645166	0.642950
H96	H	-0.193239	-1.477524	0.643095
H97	H	-0.140325	-1.693411	0.450769
H98	H	-0.093768	-1.525724	0.451055
H99	H	0.016057	-1.763823	0.610857
H100	H	-0.446602	-1.702787	0.000013
O101	O	-0.329246	-1.605131	0.226387
C102	C	-0.341197	-1.799088	0.355645
C103	C	-0.368589	-1.729971	0.226814
H104	H	-0.373007	-1.900024	0.356047
H105	H	-0.269807	-1.800547	0.354769
H106	H	-0.360542	-1.747817	0.451555
H107	H	-0.349301	-1.781186	0.130836
H108	H	-0.439976	-1.728499	0.227811
H109	H	-0.332939	-1.595080	-0.208062
