data_functionalizedCrystal
_audit_creation_method	'MofGen! by Chris Wilmer'
_symmetry_space_group_name_H-M	'P1'
_symmetry_Int_Tables_number	1
_symmetry_cell_setting	triclinic
loop_
_symmetry_equiv_pos_as_xyz
  x,y,z
_cell_length_a	23.532407
_cell_length_b	22.010155
_cell_length_c	10.967953
_cell_angle_alpha	77.865466
_cell_angle_beta	83.799182
_cell_angle_gamma	90.005729
loop_
_atom_site_label
_atom_site_type_symbol
_atom_site_fract_x
_atom_site_fract_y
_atom_site_fract_z
O1	O	0.756243	0.034628	0.151454
O2	O	0.590522	0.032342	0.173370
O3	O	0.677209	0.052507	-0.019286
O4	O	0.669556	0.014463	0.344110
O5	O	0.677193	-0.048546	-0.019258
O6	O	0.590506	-0.068711	0.173399
O7	O	0.756227	-0.066426	0.151483
Cu8	Cu	0.673365	-0.076795	0.162444
Cu9	Cu	0.673384	0.042712	0.162409
O10	O	0.669540	-0.086590	0.344139
C11	C	0.569294	-0.018125	0.172826
C12	C	0.506066	-0.017945	0.171148
N13	N	0.673356	-0.160850	0.162467
C14	C	0.239117	-0.005302	0.050219
C15	C	0.298527	-0.005465	0.051777
O16	O	0.334651	0.004557	-0.044155
N17	N	0.321894	-0.017451	0.166312
C18	C	0.285847	-0.029281	0.279295
O19	O	0.311178	-0.039492	0.376858
C20	C	0.226438	-0.029123	0.277734
C21	C	0.203074	-0.017129	0.163193
C22	C	0.215753	0.006690	-0.064314
C23	C	0.156346	0.006854	-0.065872
C24	C	0.120304	-0.004974	0.047102
C25	C	0.143668	-0.016965	0.161635
C26	C	0.190392	-0.040957	0.390716
C27	C	0.130980	-0.040798	0.389146
C28	C	0.107616	-0.028804	0.274604
C29	C	0.048220	-0.028629	0.273051
N30	N	0.024853	-0.016642	0.158516
C31	C	0.060895	-0.004815	0.045542
C32	C	0.410611	-0.029615	0.282562
C33	C	0.470019	-0.029770	0.284123
C34	C	0.482695	-0.005954	0.056606
C35	C	0.423285	-0.005795	0.055045
C36	C	0.387244	-0.017629	0.168028
C37	C	-0.063863	-0.004471	0.042278
C38	C	-0.123275	-0.004305	0.040730
C39	C	-0.135946	-0.028124	0.268247
C40	C	-0.076539	-0.028286	0.269796
C41	C	-0.040498	-0.016461	0.156802
O42	O	0.012061	-0.038648	0.368933
O43	O	0.035556	0.005386	-0.052005
C44	C	0.711771	-0.571696	0.077113
C45	C	0.711774	-0.635303	0.077104
O46	O	0.744413	-0.660600	0.004550
N47	N	0.673383	-0.676049	0.162383
C48	C	0.634984	-0.653184	0.247668
O49	O	0.602330	-0.693682	0.320202
C50	C	0.634979	-0.589578	0.247669
C51	C	0.673376	-0.548836	0.162393
C52	C	0.750165	-0.530954	-0.008157
C53	C	0.750163	-0.467352	-0.008146
C54	C	0.711767	-0.444492	0.077134
C55	C	0.673374	-0.485233	0.162404
C56	C	0.596577	-0.566714	0.332947
C57	C	0.596575	-0.503102	0.332941
C58	C	0.634972	-0.462360	0.247665
C59	C	0.634976	-0.398771	0.247695
N60	N	0.673367	-0.358025	0.162416
C61	C	0.711762	-0.380885	0.077136
C62	C	0.634996	-0.786761	0.247656
C63	C	0.635004	-0.850367	0.247662
C64	C	0.711793	-0.832480	0.077096
C65	C	0.711788	-0.768874	0.077098
C66	C	0.673387	-0.746015	0.162378
C67	C	0.711755	-0.247317	0.077165
C68	C	0.711752	-0.183711	0.077186
C69	C	0.634960	-0.201602	0.247747
C70	C	0.634966	-0.265203	0.247730
C71	C	0.673366	-0.288058	0.162429
O72	O	0.602352	-0.373429	0.320209
O73	O	0.744406	-0.340380	0.004602
C74	C	0.777455	-0.015957	0.152026
C75	C	0.840683	-0.016133	0.153704
C76	C	0.676646	0.006848	-0.065755
C77	C	0.674984	0.021352	-0.204260
N78	N	0.673397	0.126768	0.162376
C79	C	0.672515	-0.009548	-0.409148
C80	C	0.674234	-0.024537	-0.265996
C81	C	0.670103	-0.040930	0.390608
C82	C	0.671765	-0.055430	0.529113
H83	H	-0.142294	0.005463	-0.052547
H84	H	0.245093	0.016320	-0.156316
H85	H	0.743021	-0.150539	0.007744
H86	H	0.404267	0.003970	-0.038224
H87	H	0.603705	-0.298378	0.317181
C88	C	0.675085	-0.092600	-0.194242
N89	N	0.675725	-0.143865	-0.140194
C90	C	0.674132	0.089416	-0.276011
N91	N	0.673489	0.140681	-0.330055
C92	C	0.370969	-0.042627	0.406860
N93	N	0.341114	-0.052429	0.500481
C94	C	0.672616	-0.123490	-0.399128
N95	N	0.673256	-0.174755	-0.345080
H96	H	-0.034525	0.005159	-0.049733
C97	C	-0.175603	-0.041137	0.392513
N98	N	-0.205475	-0.050945	0.486110
H99	H	0.671887	0.040830	-0.462270
H100	H	0.489036	-0.039527	0.377395
H101	H	0.137330	0.016618	-0.159144
H102	H	0.512051	0.003676	-0.035384
H103	H	0.743054	-0.735705	0.007659
H104	H	0.209404	-0.050721	0.483988
H105	H	0.603701	-0.182979	0.317185
C106	C	0.091337	-0.053814	0.513439
N107	N	0.061479	-0.063616	0.607057
H108	H	-0.057515	-0.038051	0.363065
H109	H	0.565311	-0.599878	0.402385
C110	C	0.753998	-0.272448	-0.016668
N111	N	0.785818	-0.291377	-0.087337
C112	C	0.792402	-0.556088	-0.101990
N113	N	0.824219	-0.575014	-0.172669
C114	C	0.792396	-0.422542	-0.101971
N115	N	0.824207	-0.388793	-0.172650
H116	H	0.743056	-0.851104	0.007655
H117	H	0.565303	-0.484494	0.402384
H118	H	0.603743	-0.883537	0.317114
H119	H	0.603727	-0.768154	0.317111
