data_functionalizedCrystal
_audit_creation_method	'MofGen! by Chris Wilmer'
_symmetry_space_group_name_H-M	'P1'
_symmetry_Int_Tables_number	1
_symmetry_cell_setting	triclinic
loop_
_symmetry_equiv_pos_as_xyz
  x,y,z
_cell_length_a	6.817900
_cell_length_b	14.858572
_cell_length_c	15.300992
_cell_angle_alpha	94.836158
_cell_angle_beta	104.175078
_cell_angle_gamma	104.524003
loop_
_atom_site_label
_atom_site_type_symbol
_atom_site_fract_x
_atom_site_fract_y
_atom_site_fract_z
V1	V	-4.041806	-0.290242	-0.125326
V2	V	-3.541806	0.209758	0.374674
O3	O	-4.025461	-0.284428	0.005438
O4	O	-3.525461	0.215572	0.505438
O5	O	-3.996655	-0.288534	-0.247939
O6	O	-3.496655	0.211466	0.252061
O7	O	-3.998399	-0.416699	-0.123655
O8	O	-3.498399	0.083301	0.376345
O9	O	-4.023705	-0.155375	-0.119706
O10	O	-3.523705	0.344625	0.380294
V11	V	-4.524366	-0.274077	-0.109655
V12	V	-4.024366	0.225923	0.390345
O13	O	-4.305177	-0.325700	-0.159702
O14	O	-3.805177	0.174300	0.340298
O15	O	-4.711192	-0.238618	-0.075279
O16	O	-4.211192	0.261382	0.424721
O17	O	-4.346310	-0.275785	0.012958
O18	O	-3.846310	0.224215	0.512958
O19	O	-4.658107	-0.279890	-0.240420
O20	O	-4.158107	0.220110	0.259580
O21	O	-4.659864	-0.408943	-0.115275
O22	O	-4.159864	0.091057	0.384725
O23	O	-4.344566	-0.147619	-0.111326
O24	O	-3.844566	0.352381	0.388674
C25	C	-3.842285	-0.284026	-0.277821
C26	C	-3.342285	0.215974	0.222179
C27	C	-3.886688	-0.283473	-0.378061
C28	C	-3.386688	0.216527	0.121939
C29	C	-3.863544	-0.198019	-0.412109
C30	C	-3.363544	0.301981	0.087891
C31	C	-3.905287	-0.197502	-0.506296
C32	C	-3.405287	0.302498	-0.006296
C33	C	-3.970158	-0.282440	-0.566432
C34	C	-3.470158	0.217560	-0.066432
C35	C	-3.993309	-0.367900	-0.532378
C36	C	-3.493309	0.132100	-0.032378
C37	C	-3.951581	-0.368417	-0.438193
C38	C	-3.451581	0.131583	0.061807
C39	C	-4.080274	-0.366818	-0.728687
C40	C	-3.580274	0.133182	-0.228687
C41	C	-4.122001	-0.366302	-0.822877
C42	C	-3.622001	0.133698	-0.322877
C43	C	-4.033980	-0.195904	-0.796789
C44	C	-3.533980	0.304096	-0.296789
C45	C	-3.992252	-0.196420	-0.702605
C46	C	-3.492252	0.303580	-0.202605
C47	C	-4.015402	-0.281881	-0.668557
C48	C	-3.515402	0.218119	-0.168557
C49	C	-3.844509	-0.447513	-0.119283
C50	C	-3.344509	0.052487	0.380717
C51	C	-3.890324	-0.550895	-0.118728
C52	C	-3.390324	-0.050895	0.381272
C53	C	-4.058010	-0.929459	-0.116698
C54	C	-3.558010	-0.429459	0.383302
C55	C	-4.011346	-0.824131	-0.117263
C56	C	-3.511346	-0.324131	0.382737
C57	C	-3.974168	-0.740180	-0.117714
C58	C	-3.474168	-0.240180	0.382286
C59	C	-3.927502	-0.634845	-0.118277
C60	C	-3.427502	-0.134845	0.381723
C61	C	-4.164022	-0.280289	0.042836
C62	C	-3.664022	0.219711	0.542836
C63	C	-4.098857	-0.280849	0.143074
C64	C	-3.598857	0.219151	0.643074
C65	C	-4.161798	-0.116800	-0.115701
C66	C	-3.661798	0.383200	0.384299
C67	C	-4.095221	-0.013417	-0.116252
C68	C	-3.595221	0.486583	0.383748
H69	H	-4.099162	-0.436410	-0.700970
H70	H	-3.599162	0.063590	-0.200970
H71	H	-3.970450	-0.438002	-0.410474
H72	H	-3.470450	0.061998	0.089526
F73	F	-4.191199	-0.456706	-0.886881
F74	F	-3.691199	0.043294	-0.386881
H75	H	-4.046145	-0.437058	-0.581348
H76	H	-3.546145	0.062942	-0.081348
F77	F	-3.923193	-0.106020	-0.638605
F78	F	-3.423193	0.393980	-0.138605
H79	H	-3.810706	-0.128853	-0.363151
H80	H	-3.310706	0.371147	0.136849
F81	F	-4.009333	-0.104950	-0.833025
F82	F	-3.509333	0.395050	-0.333025
H83	H	-3.886443	-0.127918	-0.534013
H84	H	-3.386443	0.372082	-0.034013
