data_functionalizedCrystal
_audit_creation_method	'MofGen! by Chris Wilmer'
_symmetry_space_group_name_H-M	'P1'
_symmetry_Int_Tables_number	1
_symmetry_cell_setting	triclinic
loop_
_symmetry_equiv_pos_as_xyz
  x,y,z
_cell_length_a	12.645331
_cell_length_b	12.645330
_cell_length_c	19.076919
_cell_angle_alpha	92.276250
_cell_angle_beta	92.285419
_cell_angle_gamma	90.018103
loop_
_atom_site_label
_atom_site_type_symbol
_atom_site_fract_x
_atom_site_fract_y
_atom_site_fract_z
Zn1	Zn	1.596598	-0.446128	-0.397892
Zn2	Zn	1.603618	-0.616286	-0.280207
Zn3	Zn	1.426450	-0.439039	-0.280220
Zn4	Zn	1.419296	-0.623350	-0.397872
O5	O	1.511490	-0.531201	-0.339048
O6	O	1.745876	-0.468710	-0.382284
O7	O	1.586048	-0.586850	-0.181719
O8	O	1.449077	-0.291633	-0.295843
O9	O	1.751034	-0.593724	-0.295821
O10	O	1.574084	-0.296841	-0.382296
O11	O	1.455883	-0.456627	-0.181728
O12	O	1.277154	-0.463477	-0.295823
O13	O	1.436883	-0.605765	-0.496365
O14	O	1.271898	-0.598890	-0.382262
O15	O	1.567147	-0.475561	-0.496379
O16	O	1.579111	-0.765569	-0.295802
O17	O	1.443690	-0.770760	-0.382250
C18	C	1.236061	-0.531182	-0.339042
C19	C	1.118230	-0.531201	-0.339057
C20	C	1.070082	-0.616524	-0.393356
C21	C	0.947532	-0.616851	-0.393195
C22	C	0.954781	-0.556539	-0.264794
C23	C	1.077360	-0.557138	-0.265108
C24	C	1.071912	-0.420325	-0.358372
C25	C	0.949208	-0.421043	-0.360007
C26	C	1.511414	-0.806630	-0.339038
C27	C	1.511476	-0.924461	-0.339057
C28	C	1.426611	-1.095345	-0.393609
C29	C	1.426204	-0.972774	-0.393434
C30	C	1.485730	-0.964561	-0.264885
C31	C	1.485212	-1.087180	-0.265216
C32	C	1.622624	-1.092702	-0.358076
C33	C	1.621837	-0.970193	-0.359697
C34	C	1.787995	-0.531220	-0.339054
C35	C	1.905825	-0.531228	-0.339056
C36	C	1.500434	-0.542242	-0.522623
C37	C	1.495723	-0.546947	-0.600852
C38	C	1.511595	-0.254697	-0.339073
C39	C	1.511640	-0.136867	-0.339084
C40	C	1.561327	-0.481370	-0.637613
C41	C	1.556887	-0.485787	-0.711117
C42	C	1.486847	-0.555787	-0.747859
C43	C	1.421236	-0.621366	-0.711093
C44	C	1.425671	-0.616943	-0.637590
C45	C	1.466305	-0.576279	-0.967689
C46	C	1.461877	-0.580699	-1.041197
C47	C	1.597527	-0.445118	-1.041216
C48	C	1.601961	-0.440706	-0.967712
C49	C	1.536345	-0.506281	-0.930952
N50	N	1.482310	-0.560306	-0.822993
N51	N	1.540878	-0.501756	-0.855820
C52	C	1.522564	-0.520126	-0.156187
C53	C	1.527481	-0.515122	-0.077958
H54	H	0.925058	-0.636533	-0.248191
Cl55	Cl	1.680005	-0.362682	-1.087432
H56	H	1.364205	-0.678358	-0.741015
H57	H	1.099639	-0.396313	-0.411611
Cl58	Cl	1.720349	-1.133763	-0.296773
H59	H	0.918950	-0.699108	-0.380380
H60	H	1.106914	-0.638038	-0.248783
Cl61	Cl	1.651946	-0.930295	-0.443975
H62	H	1.412892	-0.629691	-0.937768
Cl63	Cl	1.578619	-0.915641	-0.200445
Cl64	Cl	1.300228	-1.141915	-0.374448
Cl65	Cl	0.899243	-0.391430	-0.444387
H66	H	1.372239	-0.670332	-0.607661
Cl67	Cl	1.639412	-0.403390	-0.757328
Cl68	Cl	1.110517	-0.593339	-0.478621
Cl69	Cl	0.895972	-0.593296	-0.478197
Cl70	Cl	0.905348	-0.318268	-0.303452
Cl71	Cl	1.118786	-0.742800	-0.373817
Cl72	Cl	1.120396	-0.322272	-0.297317
H73	H	1.441792	-0.945953	-0.448432
H74	H	1.442014	-1.128100	-0.448788
Cl75	Cl	1.577043	-1.129042	-0.200350
Cl76	Cl	1.299031	-0.926454	-0.374012
Cl77	Cl	1.362021	-0.915778	-0.239595
Cl78	Cl	1.724247	-0.919420	-0.302852
Cl79	Cl	1.360160	-1.129978	-0.240377
H80	H	1.646989	-1.126767	-0.411242
Cl81	Cl	0.913682	-0.463238	-0.200612
Cl82	Cl	1.127094	-0.464955	-0.200483
H83	H	1.618364	-0.424372	-0.607703
Cl84	Cl	1.373815	-0.668700	-1.087387
Cl85	Cl	1.690015	-0.352703	-0.921527
