data_functionalizedCrystal
_audit_creation_method	'MofGen! by Chris Wilmer'
_symmetry_space_group_name_H-M	'P1'
_symmetry_Int_Tables_number	1
_symmetry_cell_setting	triclinic
loop_
_symmetry_equiv_pos_as_xyz
  x,y,z
_cell_length_a	23.532407
_cell_length_b	23.532407
_cell_length_c	10.868271
_cell_angle_alpha	89.990218
_cell_angle_beta	90.001021
_cell_angle_gamma	82.848678
loop_
_atom_site_label
_atom_site_type_symbol
_atom_site_fract_x
_atom_site_fract_y
_atom_site_fract_z
O1	O	0.755259	0.069135	-0.102181
O2	O	1.255259	0.569135	0.397819
O3	O	0.589396	0.079138	-0.102219
O4	O	1.089396	0.579138	0.397781
O5	O	0.677329	-0.008795	-0.102176
O6	O	1.177329	0.491205	0.397824
O7	O	0.667326	0.157068	-0.102224
O8	O	1.167326	0.657068	0.397776
O9	O	0.677322	-0.008798	0.102468
O10	O	1.177322	0.491202	0.602468
O11	O	0.589389	0.079135	0.102426
O12	O	1.089389	0.579135	0.602426
O13	O	0.755252	0.069132	0.102464
O14	O	1.255252	0.569132	0.602464
Zn15	Zn	0.672319	0.074133	0.134936
Zn16	Zn	1.172319	0.574133	0.634936
Zn17	Zn	0.672329	0.074137	-0.134692
Zn18	Zn	1.172329	0.574137	0.365308
O19	O	0.667319	0.157065	0.102421
O20	O	1.167319	0.657065	0.602421
C21	C	0.568176	0.078882	0.000099
C22	C	1.068176	0.578882	0.500099
C23	C	0.504959	0.078116	0.000085
C24	C	1.004959	0.578116	0.500085
C25	C	0.105856	0.125350	0.000128
C26	C	0.605856	0.625350	0.500128
C27	C	0.046456	0.124638	0.000135
C28	C	0.546456	0.624638	0.500135
O29	O	0.009711	0.168424	0.000168
O30	O	0.509711	0.668424	0.500168
N31	N	0.023830	0.072362	0.000148
N32	N	0.523830	0.572362	0.500148
C33	C	0.060607	0.020794	0.000166
C34	C	0.560607	0.520794	0.500166
O35	O	0.035908	-0.023737	0.000179
O36	O	0.535908	0.476263	0.500179
C37	C	0.120006	0.021506	0.000167
C38	C	0.620006	0.521506	0.500167
C39	C	0.142629	0.073785	0.000142
C40	C	0.642629	0.573785	0.500142
C41	C	0.128479	0.177625	0.000104
C42	C	0.628479	0.677625	0.500104
C43	C	0.187876	0.178336	0.000094
C44	C	0.687876	0.678336	0.500094
C45	C	0.224649	0.126772	0.000108
C46	C	0.724649	0.626772	0.500108
C47	C	0.202025	0.074496	0.000132
C48	C	0.702025	0.574496	0.500132
C49	C	0.156783	-0.030062	0.000193
C50	C	0.656783	0.469938	0.500193
C51	C	0.216185	-0.029345	0.000195
C52	C	0.716185	0.470655	0.500195
C53	C	0.238808	0.022934	0.000170
C54	C	0.738808	0.522934	0.500170
C55	C	0.298194	0.023643	0.000136
C56	C	0.798194	0.523643	0.500136
N57	N	0.320820	0.075920	0.000123
N58	N	0.820820	0.575920	0.500123
C59	C	0.284048	0.127484	0.000109
C60	C	0.784048	0.627484	0.500109
C61	C	-0.064135	0.019302	0.000166
C62	C	0.435865	0.519302	0.500166
C63	C	-0.123533	0.018589	0.000156
C64	C	0.376467	0.518589	0.500156
C65	C	-0.137680	0.122434	0.000128
C66	C	0.362320	0.622434	0.500128
C67	C	-0.078281	0.123146	0.000129
C68	C	0.421719	0.623146	0.500129
C69	C	-0.041509	0.071578	0.000153
C70	C	0.458491	0.571578	0.500153
C71	C	0.408784	0.128974	0.000087
C72	C	0.908784	0.628974	0.500087
C73	C	0.468186	0.129680	0.000071
C74	C	0.968186	0.629680	0.500071
C75	C	0.482329	0.025836	0.000106
C76	C	0.982329	0.525836	0.500106
C77	C	0.422932	0.025129	0.000115
C78	C	0.922932	0.525129	0.500115
C79	C	0.386160	0.076702	0.000109
C80	C	0.886160	0.576702	0.500109
O81	O	0.334974	-0.020119	0.000108
O82	O	0.834974	0.479881	0.500108
O83	O	0.308755	0.172007	0.000112
O84	O	0.808755	0.672007	0.500112
C85	C	0.677071	-0.030013	0.000149
C86	C	1.177071	0.469987	0.500149
C87	C	0.676305	-0.093230	0.000158
C88	C	1.176305	0.406770	0.500158
C89	C	0.723539	-0.492333	0.000102
C90	C	1.223539	0.007667	0.500102
C91	C	0.722827	-0.551733	0.000092
C92	C	1.222827	-0.051733	0.500092
O93	O	0.766613	-0.588478	0.000057
O94	O	1.266613	-0.088478	0.500057
N95	N	0.670551	-0.574359	0.000081
N96	N	1.170551	-0.074359	0.500081
C97	C	0.618983	-0.537582	0.000067
C98	C	1.118983	-0.037582	0.500067
O99	O	0.574452	-0.562281	0.000056
O100	O	1.074452	-0.062281	0.500056
C101	C	0.619695	-0.478182	0.000068
C102	C	1.119695	0.021818	0.500068
C103	C	0.671974	-0.455560	0.000091
C104	C	1.171974	0.044440	0.500091
C105	C	0.775814	-0.469710	0.000124
C106	C	1.275814	0.030290	0.500124
C107	C	0.776525	-0.410313	0.000136
C108	C	1.276525	0.089687	0.500136
C109	C	0.724961	-0.373540	0.000125
C110	C	1.224961	0.126460	0.500125
C111	C	0.672685	-0.396164	0.000103
C112	C	1.172685	0.103836	0.500103
C113	C	0.568127	-0.441406	0.000045
C114	C	1.068127	0.058594	0.500045
C115	C	0.568844	-0.382004	0.000045
C116	C	1.068844	0.117996	0.500045
C117	C	0.621123	-0.359381	0.000068
C118	C	1.121123	0.140619	0.500068
C119	C	0.621832	-0.299995	0.000105
C120	C	1.121832	0.200005	0.500105
N121	N	0.674109	-0.277368	0.000116
N122	N	1.174109	0.222632	0.500116
C123	C	0.725673	-0.314141	0.000126
C124	C	1.225673	0.185859	0.500126
C125	C	0.617491	-0.662324	0.000063
C126	C	1.117491	-0.162324	0.500063
C127	C	0.616778	-0.721722	0.000072
C128	C	1.116778	-0.221722	0.500072
C129	C	0.720623	-0.735869	0.000094
C130	C	1.220623	-0.235869	0.500094
C131	C	0.721335	-0.676470	0.000095
C132	C	1.221335	-0.176470	0.500095
C133	C	0.669767	-0.639698	0.000075
C134	C	1.169767	-0.139698	0.500075
C135	C	0.727163	-0.189405	0.000152
C136	C	1.227163	0.310595	0.500152
C137	C	0.727869	-0.130003	0.000169
C138	C	1.227869	0.369997	0.500169
C139	C	0.624025	-0.115860	0.000139
C140	C	1.124025	0.384140	0.500139
C141	C	0.623318	-0.175257	0.000129
C142	C	1.123318	0.324743	0.500129
C143	C	0.674891	-0.212029	0.000131
C144	C	1.174891	0.287971	0.500131
O145	O	0.578070	-0.263215	0.000135
O146	O	1.078070	0.236785	0.500135
O147	O	0.770196	-0.289433	0.000121
O148	O	1.270196	0.210567	0.500121
C149	C	0.776472	0.069388	0.000143
C150	C	1.276472	0.569388	0.500143
C151	C	0.839689	0.070154	0.000148
C152	C	1.339689	0.570154	0.500148
C153	C	0.667577	0.178283	0.000093
C154	C	1.167577	0.678283	0.500093
C155	C	0.668343	0.241500	0.000075
C156	C	1.168343	0.741500	0.500075
N157	N	0.672317	0.074129	0.318950
N158	N	1.172317	0.574129	0.818950
N159	N	0.672336	0.074136	-0.318706
N160	N	1.172336	0.574136	0.181294
C161	C	0.672326	0.074136	0.569956
C162	C	1.172326	0.574136	1.069956
C163	C	0.672319	0.074134	0.430279
C164	C	1.172319	0.574134	0.930279
H165	H	-0.167632	0.164421	0.000122
H166	H	0.332368	0.664421	0.500122
Br167	Br	0.545825	-0.752416	0.000069
Br168	Br	1.045825	-0.252416	0.500069
Br169	Br	0.547499	-0.612424	0.000046
Br170	Br	1.047499	-0.112424	0.500046
H171	H	-0.059867	0.165717	0.000115
H172	H	0.440133	0.665717	0.500115
Br173	Br	0.497171	-0.472092	0.000008
Br174	Br	0.997171	0.027908	0.500008
Br175	Br	0.554048	-0.065943	0.000126
Br176	Br	1.054048	0.434057	0.500126
H177	H	0.246123	-0.071339	0.000216
H178	H	0.746123	0.428661	0.500216
H179	H	-0.034198	-0.022693	0.000175
H180	H	0.465802	0.477307	0.500175
Br181	Br	0.798825	-0.099305	0.000202
Br182	Br	1.298825	0.400695	0.500202
H183	H	-0.141947	-0.023982	0.000157
H184	H	0.358053	0.476018	0.500157
H185	H	0.098544	0.219617	0.000097
H186	H	0.598544	0.719617	0.500097
Br187	Br	0.845804	-0.519606	0.000137
Br188	Br	1.345804	-0.019606	0.500137
H189	H	0.378851	0.170970	0.000086
H190	H	0.878851	0.670970	0.500086
H191	H	0.138375	-0.072634	0.000215
H192	H	0.638375	0.427366	0.500215
H193	H	0.404512	-0.017441	0.000117
H194	H	0.904512	0.482559	0.500117
H195	H	0.512280	-0.016146	0.000113
H196	H	1.012280	0.483854	0.500113
Br197	Br	0.797156	-0.239299	0.000153
Br198	Br	1.297156	0.260701	0.500153
Br199	Br	0.218568	0.249291	0.000065
Br200	Br	0.718568	0.749291	0.500065
H201	H	0.526850	-0.352066	0.000026
H202	H	1.026850	0.147934	0.500026
H203	H	0.580748	-0.193677	0.000144
H204	H	1.080748	0.306323	0.500144
H205	H	0.486602	0.172255	0.000050
H206	H	0.986602	0.672255	0.500050
H207	H	0.762610	-0.765821	0.000098
H208	H	1.262610	-0.265821	0.500098
Br209	Br	0.792288	-0.645775	0.000130
Br210	Br	1.292288	-0.145775	0.500130
Br211	Br	0.847480	-0.379621	0.000133
Br212	Br	1.347480	0.120379	0.500133
