data_functionalizedCrystal
_audit_creation_method	'MofGen! by Chris Wilmer'
_symmetry_space_group_name_H-M	'P1'
_symmetry_Int_Tables_number	1
_symmetry_cell_setting	triclinic
loop_
_symmetry_equiv_pos_as_xyz
  x,y,z
_cell_length_a	19.188925
_cell_length_b	18.266242
_cell_length_c	19.188930
_cell_angle_alpha	90.011475
_cell_angle_beta	83.143665
_cell_angle_gamma	90.009988
loop_
_atom_site_label
_atom_site_type_symbol
_atom_site_fract_x
_atom_site_fract_y
_atom_site_fract_z
O1	O	0.926152	0.060905	0.087151
O2	O	0.722840	0.060904	0.098889
O3	O	0.830363	0.060890	-0.008636
O4	O	0.818629	0.060919	0.194675
O5	O	0.830345	-0.060872	-0.008642
O6	O	0.722822	-0.060858	0.098883
O7	O	0.926133	-0.060857	0.087145
Zn8	Zn	0.824475	-0.080190	0.093013
Zn9	Zn	0.824499	0.080237	0.093021
O10	O	0.818610	-0.060843	0.194670
C11	C	0.696820	0.000023	0.098507
C12	C	0.619315	0.000022	0.097367
N13	N	0.824463	-0.189677	0.093008
C14	C	0.057545	0.000031	0.152831
C15	C	0.130368	0.000035	0.153908
C16	C	0.175302	0.000025	0.090816
C17	C	0.147408	0.000030	0.026642
C18	C	0.074586	0.000033	0.025568
N19	N	0.295973	-0.041430	0.045138
N20	N	0.365151	-0.041435	0.046163
C21	C	0.394712	0.000017	0.094050
N22	N	0.352480	0.041464	0.140883
N23	N	0.283296	0.041465	0.139860
C24	C	0.254267	0.000022	0.091974
C25	C	0.501561	0.000022	0.159386
C26	C	0.574385	0.000031	0.160460
C27	C	0.591425	0.000018	0.033193
C28	C	0.518601	0.000016	0.032121
C29	C	0.473673	0.000015	0.095220
C30	C	0.872090	-0.227992	0.045419
C31	C	0.872095	-0.304637	0.045416
C32	C	0.824479	-0.342964	0.093013
C33	C	0.776843	-0.304639	0.140606
C34	C	0.776836	-0.227996	0.140603
N35	N	0.815403	-0.463287	0.154821
N36	N	0.815415	-0.536096	0.154821
C37	C	0.824499	-0.573886	0.093024
N38	N	0.833584	-0.536118	0.031223
N39	N	0.833576	-0.463303	0.031223
C40	C	0.824482	-0.426071	0.093021
C41	C	0.872133	-0.695308	0.045427
C42	C	0.872132	-0.771955	0.045423
C43	C	0.776884	-0.771956	0.140619
C44	C	0.776881	-0.695311	0.140617
C45	C	0.824509	-0.656992	0.093022
C46	C	0.952154	0.000026	0.087527
C47	C	1.029658	0.000032	0.088666
C48	C	0.829974	0.000007	-0.034650
C49	C	0.828833	0.000001	-0.112154
N50	N	0.824515	0.189724	0.093020
C51	C	0.891924	-0.000002	-0.157079
C52	C	0.890852	0.000009	-0.229903
C53	C	0.826686	0.000010	-0.257799
C54	C	0.763587	0.000017	-0.212864
C55	C	0.764660	0.000012	-0.140041
N56	N	0.777633	-0.041429	-0.365805
N57	N	0.776617	-0.041426	-0.434983
C58	C	0.823448	0.000024	-0.477207
N59	N	0.871343	0.041463	-0.447641
N60	N	0.872361	0.041457	-0.378456
C61	C	0.825515	0.000015	-0.336761
C62	C	0.885381	0.000035	-0.601097
C63	C	0.884307	0.000051	-0.673922
C64	C	0.757040	0.000051	-0.656880
C65	C	0.758116	0.000042	-0.584057
C66	C	0.822289	0.000031	-0.556170
C67	C	0.819000	0.000041	0.220684
C68	C	0.820140	0.000053	0.298188
H69	H	0.020968	0.000034	0.204211
N70	N	0.694378	0.000021	-0.242945
H71	H	0.703271	0.000021	-0.295895
H72	H	0.666771	-0.045117	-0.226505
N73	N	0.639875	0.000001	-0.034861
H74	H	0.630935	0.045135	-0.062864
H75	H	0.690221	-0.000029	-0.024391
H76	H	0.738112	-0.803161	0.179371
H77	H	0.495896	0.000012	-0.020129
N78	N	0.725461	-0.186671	0.191935
H79	H	0.733346	-0.199996	0.241470
H80	H	0.732707	-0.132316	0.184652
H81	H	0.153078	0.000028	0.206160
H82	H	0.713282	0.000015	-0.103462
N83	N	0.725522	-0.653982	0.191957
H84	H	0.732742	-0.599614	0.184734
H85	H	0.676019	-0.667394	0.184017
N86	N	0.923456	-0.186666	-0.005918
H87	H	0.896872	-0.154881	-0.036769
H88	H	0.954268	-0.154893	0.020738
H89	H	0.910912	-0.664108	0.006670
N90	N	0.923463	-0.345975	-0.005915
H91	H	0.953632	-0.310070	-0.036067
H92	H	0.954244	-0.377758	0.020745
H93	H	0.910914	-0.803151	0.006667
H94	H	0.937635	0.000029	-0.578390
H95	H	0.738073	-0.335849	0.179359
N96	N	0.961136	-0.000014	-0.127001
H97	H	1.000941	-0.000014	-0.166516
H98	H	0.964363	0.045123	-0.097148
H99	H	0.597088	0.000036	0.212713
N100	N	0.958903	0.000007	-0.278371
H101	H	0.999718	0.000001	-0.249654
H102	H	0.961215	-0.045131	-0.308964
H103	H	0.935686	0.000053	-0.710500
N104	N	0.687830	0.000060	-0.686956
H105	H	0.696722	0.000065	-0.739906
H106	H	0.660222	-0.045079	-0.670519
N107	N	0.690067	0.000042	-0.535596
H108	H	0.649254	0.000043	-0.564316
H109	H	0.687734	-0.045099	-0.505021
H110	H	0.051883	0.000033	-0.026685
N111	N	0.195868	0.000021	-0.041408
H112	H	0.246233	0.000017	-0.030992
H113	H	0.186849	-0.045118	-0.069387
H114	H	0.464978	0.000022	0.210765
