data_functionalizedCrystal
_audit_creation_method	'MofGen! by Chris Wilmer'
_symmetry_space_group_name_H-M	'P1'
_symmetry_Int_Tables_number	1
_symmetry_cell_setting	triclinic
loop_
_symmetry_equiv_pos_as_xyz
  x,y,z
_cell_length_a	15.995350
_cell_length_b	10.654562
_cell_length_c	9.130313
_cell_angle_alpha	89.996930
_cell_angle_beta	90.000982
_cell_angle_gamma	83.991239
loop_
_atom_site_label
_atom_site_type_symbol
_atom_site_fract_x
_atom_site_fract_y
_atom_site_fract_z
O1	O	0.117649	1.666288	-0.121888
O2	O	0.128843	1.300665	-0.121869
O3	O	0.001417	1.493471	-0.121877
O4	O	0.245075	1.473482	-0.121879
O5	O	0.001420	1.493469	0.121721
O6	O	0.128846	1.300663	0.121730
O7	O	0.117653	1.666285	0.121711
Cu8	Cu	0.123250	1.483474	0.143963
Cu9	Cu	0.123246	1.483477	-0.144121
O10	O	0.245079	1.473480	0.121720
C11	C	0.128020	1.253877	-0.000067
C12	C	0.125555	1.114467	-0.000060
C13	C	0.124407	1.048950	0.132714
C14	C	0.122097	0.917958	0.132690
C15	C	0.122086	0.918010	-0.132895
C16	C	0.124390	1.049001	-0.132869
C17	C	0.125571	1.114415	0.265523
C18	C	0.124424	1.048898	0.398308
C19	C	0.122114	0.917906	0.398284
C20	C	0.120951	0.852431	0.265474
C21	C	-0.029781	1.492643	-0.000081
C22	C	-0.122746	1.490166	-0.000089
C23	C	-0.460545	1.481269	-0.000083
C24	C	-0.413913	1.343956	-0.000623
C25	C	-0.317208	1.346434	-0.000074
C26	C	-0.292959	1.485682	-0.000087
C27	C	-0.333639	1.553408	0.139014
C28	C	-0.430295	1.549959	0.139130
C29	C	-0.430641	1.552798	-0.137887
C30	C	-0.333696	1.552765	-0.139726
C31	C	-0.198247	1.488183	-0.000084
C32	C	-0.555258	1.478771	-0.000077
C33	C	0.276277	1.474307	-0.000080
C34	C	0.369241	1.476785	-0.000082
C35	C	0.118475	1.713074	-0.000094
C36	C	0.120941	1.852484	-0.000110
N37	N	0.123252	1.483481	0.346586
N38	N	0.123237	1.483479	-0.346743
C39	C	0.066847	1.568877	0.423234
C40	C	0.066837	1.568874	0.576571
C41	C	0.179644	1.398074	0.576598
C42	C	0.179650	1.398073	0.423264
C43	C	0.010450	1.654286	0.346556
C44	C	-0.045959	1.739690	0.423204
C45	C	-0.045969	1.739686	0.576541
C46	C	0.010430	1.654279	0.653230
H47	H	0.119068	0.745769	0.265465
H48	H	-0.461811	1.654038	-0.138832
H49	H	0.125329	1.102346	-0.240986
C50	C	0.241667	1.304117	0.660945
H51	H	0.275252	1.253242	0.593333
H52	H	0.276808	1.349262	0.720778
H53	H	0.211196	1.251854	0.720743
H54	H	-0.451444	1.507905	-0.243318
H55	H	0.010454	1.654299	0.221701
C56	C	-0.279228	1.274499	-0.134760
H57	H	-0.322898	1.243490	-0.190301
H58	H	-0.250615	1.329833	-0.193624
H59	H	-0.240750	1.205765	-0.103437
C60	C	-0.312150	1.689948	-0.151088
H61	H	-0.277881	1.708190	-0.070453
H62	H	-0.282744	1.700585	-0.239873
H63	H	-0.362541	1.745709	-0.149911
C64	C	0.120850	0.845840	0.544337
H65	H	0.121880	0.903592	0.623431
H66	H	0.071211	0.804305	0.549860
H67	H	0.168698	0.785174	0.549838
H68	H	0.121142	0.864690	-0.241022
H69	H	-0.432766	1.289074	-0.100374
H70	H	-0.091905	1.809217	0.638947
H71	H	0.010411	1.654275	0.778087
C72	C	-0.107989	1.833634	0.338854
H73	H	-0.099899	1.821418	0.236555
H74	H	-0.163960	1.820014	0.363965
H75	H	-0.098361	1.917441	0.363990
H76	H	0.225579	1.328534	0.360856
C77	C	0.125701	1.120914	0.544386
H78	H	0.127248	1.208310	0.525388
H79	H	0.076584	1.109007	0.598949
H80	H	0.174071	1.089863	0.598935
H81	H	0.127454	1.221075	0.265558
C82	C	-0.440799	1.270141	0.133395
H83	H	-0.480318	1.322643	0.189678
H84	H	-0.465766	1.197851	0.101419
H85	H	-0.392896	1.244412	0.191788
C86	C	-0.279981	1.274049	0.134876
H87	H	-0.323971	1.243022	0.189584
H88	H	-0.241412	1.205324	0.103871
H89	H	-0.251606	1.329160	0.194453
C90	C	-0.455414	1.483228	0.279595
H91	H	-0.514590	1.480540	0.280908
H92	H	-0.428102	1.399672	0.281762
H93	H	-0.439056	1.528322	0.362780
C94	C	-0.473069	1.686140	0.147672
H95	H	-0.431351	1.743323	0.151068
H96	H	-0.507487	1.703465	0.063793
H97	H	-0.506745	1.695647	0.233458
C98	C	-0.313758	1.691610	0.146003
H99	H	-0.338955	1.730780	0.230921
H100	H	-0.254607	1.694017	0.150171
H101	H	-0.335466	1.735303	0.061228
C102	C	-0.295683	1.489852	0.278868
H103	H	-0.255055	1.422054	0.252785
H104	H	-0.269593	1.549826	0.335149
H105	H	-0.338990	1.458437	0.334937
H106	H	-0.306737	1.503249	-0.242629
