data_functionalizedCrystal
_audit_creation_method	'MofGen! by Chris Wilmer'
_symmetry_space_group_name_H-M	'P1'
_symmetry_Int_Tables_number	1
_symmetry_cell_setting	triclinic
loop_
_symmetry_equiv_pos_as_xyz
  x,y,z
_cell_length_a	16.625546
_cell_length_b	16.625548
_cell_length_c	16.625539
_cell_angle_alpha	89.979432
_cell_angle_beta	90.030397
_cell_angle_gamma	89.976464
loop_
_atom_site_label
_atom_site_type_symbol
_atom_site_fract_x
_atom_site_fract_y
_atom_site_fract_z
Zn1	Zn	-0.320977	-1.232680	0.455898
Zn2	Zn	0.179023	-0.732680	0.955898
Zn3	Zn	-0.455820	-1.232584	0.321060
Zn4	Zn	0.044180	-0.732584	0.821060
Zn5	Zn	-0.321008	-1.097842	0.321078
Zn6	Zn	0.178992	-0.597842	0.821078
Zn7	Zn	-0.455774	-1.097813	0.455850
Zn8	Zn	0.044226	-0.597813	0.955850
O9	O	-0.388395	-1.165230	0.388471
O10	O	0.111605	-0.665230	0.888471
O11	O	-0.338871	-1.345500	0.438024
O12	O	0.161129	-0.845500	0.938024
O13	O	-0.437969	-1.214682	0.208230
O14	O	0.062031	-0.714682	0.708230
O15	O	-0.208171	-1.115782	0.338990
O16	O	0.291829	-0.615782	0.838990
O17	O	-0.437940	-1.345429	0.338959
O18	O	0.062060	-0.845429	0.838959
O19	O	-0.208149	-1.214847	0.438041
O20	O	0.291851	-0.714847	0.938041
O21	O	-0.338923	-1.115688	0.208243
O22	O	0.161077	-0.615688	0.708243
O23	O	-0.338878	-0.985006	0.338944
O24	O	0.161122	-0.485006	0.838944
O25	O	-0.437861	-1.115731	0.568689
O26	O	0.062139	-0.615731	1.068689
O27	O	-0.437890	-0.984984	0.437960
O28	O	0.062110	-0.484984	0.937960
O29	O	-0.338826	-1.214818	0.568724
O30	O	0.161174	-0.714818	1.068724
O31	O	-0.568647	-1.214653	0.338912
O32	O	-0.068647	-0.714653	0.838912
O33	O	-0.568613	-1.115637	0.437942
O34	O	-0.068613	-0.615637	0.937942
C35	C	-0.597886	-1.165153	0.388438
C36	C	-0.097886	-0.665153	0.888438
C37	C	-0.687507	-1.165195	0.388450
C38	C	-0.187507	-0.665195	0.888450
C39	C	-0.388383	-0.955739	0.388449
C40	C	0.111617	-0.455739	0.888449
C41	C	-0.388398	-0.866118	0.388458
C42	C	0.111602	-0.366118	0.888458
C43	C	-0.388335	-1.165282	0.598780
C44	C	0.111665	-0.665282	1.098780
C45	C	-0.388309	-1.165305	0.688402
C46	C	0.111691	-0.665305	1.188402
C47	C	-1.015682	-1.165335	0.388534
C48	C	-0.515682	-0.665335	0.888534
C49	C	-0.924374	-1.165294	0.388513
C50	C	-0.424374	-0.665294	0.888513
C51	C	-0.851598	-1.165264	0.388492
C52	C	-0.351598	-0.665264	0.888492
C53	C	-0.760283	-1.165224	0.388471
C54	C	-0.260283	-0.665224	0.888471
C55	C	-0.178086	-1.165328	0.388523
C56	C	0.321914	-0.665328	0.888523
C57	C	-0.088465	-1.165370	0.388545
C58	C	0.411535	-0.665370	0.888545
C59	C	-0.388407	-1.375539	0.388494
C60	C	0.111593	-0.875539	0.888494
C61	C	-0.388412	-1.465160	0.388504
C62	C	0.111588	-0.965160	0.888504
C63	C	-0.388403	-0.537942	0.388493
C64	C	0.111597	-0.037942	0.888493
C65	C	-0.388399	-0.629251	0.388481
C66	C	0.111601	-0.129251	0.888481
C67	C	-0.388401	-0.702027	0.388475
C68	C	0.111599	-0.202027	0.888475
C69	C	-0.388396	-0.793341	0.388464
C70	C	0.111604	-0.293341	0.888464
C71	C	-0.388397	-1.165224	0.178981
C72	C	0.111603	-0.665224	0.678981
C73	C	-0.388195	-1.165358	0.089360
C74	C	0.111805	-0.665358	0.589360
C75	C	-0.388219	-1.165342	1.016577
C76	C	0.111781	-0.665342	1.516577
C77	C	-0.388247	-1.165329	0.925269
C78	C	0.111753	-0.665329	1.425269
C79	C	-0.388265	-1.165324	0.852492
C80	C	0.111735	-0.665324	1.352492
C81	C	-0.388291	-1.165310	0.761178
C82	C	0.111709	-0.665310	1.261178
