data_functionalizedCrystal
_audit_creation_method	'MofGen! by Chris Wilmer'
_symmetry_space_group_name_H-M	'P1'
_symmetry_Int_Tables_number	1
_symmetry_cell_setting	triclinic
loop_
_symmetry_equiv_pos_as_xyz
  x,y,z
_cell_length_a	16.625548
_cell_length_b	25.639239
_cell_length_c	16.625539
_cell_angle_alpha	89.970608
_cell_angle_beta	89.982945
_cell_angle_gamma	90.039754
loop_
_atom_site_label
_atom_site_type_symbol
_atom_site_fract_x
_atom_site_fract_y
_atom_site_fract_z
Zn1	Zn	1.232562	-0.208145	-0.455893
Zn2	Zn	1.732562	0.291855	0.044107
Zn3	Zn	1.232435	-0.295580	-0.321053
Zn4	Zn	1.732435	0.204420	0.178947
Zn5	Zn	1.097732	-0.208162	-0.321073
Zn6	Zn	1.597732	0.291838	0.178927
Zn7	Zn	1.097656	-0.295552	-0.455843
Zn8	Zn	1.597656	0.204448	0.044157
O9	O	1.165096	-0.251860	-0.388466
O10	O	1.665096	0.248140	0.111534
O11	O	1.345377	-0.219747	-0.438018
O12	O	1.845377	0.280253	0.061982
O13	O	1.214545	-0.284002	-0.208223
O14	O	1.714545	0.215998	0.291777
O15	O	1.115702	-0.134994	-0.338987
O16	O	1.615702	0.365006	0.161013
O17	O	1.345284	-0.283985	-0.338952
O18	O	1.845284	0.216015	0.161048
O19	O	1.214761	-0.134982	-0.438038
O20	O	1.714761	0.365018	0.061962
O21	O	1.115579	-0.219776	-0.208238
O22	O	1.615579	0.280224	0.291762
O23	O	0.984889	-0.219750	-0.338938
O24	O	1.484889	0.280250	0.161062
O25	O	1.115572	-0.283939	-0.568682
O26	O	1.615572	0.216061	-0.068682
O27	O	0.984833	-0.283956	-0.437953
O28	O	1.484833	0.216044	0.062047
O29	O	1.214687	-0.219721	-0.568719
O30	O	1.714687	0.280279	-0.068719
O31	O	1.214471	-0.368741	-0.338904
O32	O	1.714471	0.131259	0.161096
O33	O	1.115450	-0.368721	-0.437933
O34	O	1.615450	0.131279	0.062067
C35	C	0.955605	-0.251852	-0.388443
C36	C	1.455605	0.248148	0.111557
C37	C	0.865984	-0.251861	-0.388452
C38	C	1.365984	0.248139	0.111548
C39	C	0.537808	-0.251865	-0.388487
C40	C	1.037808	0.248135	0.111513
C41	C	0.629117	-0.251863	-0.388475
C42	C	1.129117	0.248137	0.111525
C43	C	0.701893	-0.251863	-0.388469
C44	C	1.201893	0.248137	0.111531
C45	C	0.793208	-0.251861	-0.388458
C46	C	1.293208	0.248139	0.111542
C47	C	1.164960	-0.387702	-0.388429
C48	C	1.664960	0.112298	0.111571
C49	C	1.164976	-0.445816	-0.388440
C50	C	1.664976	0.054184	0.111560
C51	C	1.216791	-0.806177	-0.336989
C52	C	1.716791	-0.306177	0.163011
C53	C	1.216822	-0.860781	-0.336999
C54	C	1.716822	-0.360781	0.163001
O55	O	1.260737	-0.889016	-0.293213
O56	O	1.760737	-0.389016	0.206787
N57	N	1.165238	-0.888099	-0.388519
N58	N	1.665238	-0.388099	0.111481
C59	C	1.113624	-0.860809	-0.440037
C60	C	1.613624	-0.360809	0.059963
O61	O	1.069751	-0.889058	-0.483860
O62	O	1.569751	-0.389058	0.016140
C63	C	1.113598	-0.806205	-0.440029
C64	C	1.613598	-0.306205	0.059971
C65	C	1.165180	-0.778891	-0.388501
C66	C	1.665180	-0.278891	0.111499
C67	C	1.268370	-0.778863	-0.285465
C68	C	1.768370	-0.278863	0.214535
C69	C	1.268337	-0.724262	-0.285453
C70	C	1.768337	-0.224262	0.214547
C71	C	1.216726	-0.696976	-0.336965
C72	C	1.716726	-0.196976	0.163035
C73	C	1.165147	-0.724290	-0.388489
C74	C	1.665147	-0.224290	0.111511
C75	C	1.061989	-0.778917	-0.491551
C76	C	1.561989	-0.278917	0.008449
C77	C	1.061967	-0.724310	-0.491539
C78	C	1.561967	-0.224310	0.008461
C79	C	1.113549	-0.696995	-0.440011
C80	C	1.613549	-0.196995	0.059989
C81	C	1.113504	-0.642404	-0.439990
C82	C	1.613504	-0.142404	0.060010
N83	N	1.165088	-0.615087	-0.388470
N84	N	1.665088	-0.115087	0.111530
C85	C	1.216700	-0.642373	-0.336958
C86	C	1.716700	-0.142373	0.163042
C87	C	1.113685	-0.975479	-0.440049
C88	C	1.613685	-0.475479	0.059951
C89	C	1.113707	-1.030082	-0.440053
C90	C	1.613707	-0.530082	0.059947
C91	C	1.216906	-1.030050	-0.337017
C92	C	1.716906	-0.530050	0.162983
C93	C	1.216880	-0.975447	-0.337009
C94	C	1.716880	-0.475447	0.162991
C95	C	1.165270	-0.948162	-0.388530
C96	C	1.665270	-0.448162	0.111470
C97	C	1.216627	-0.527708	-0.336937
C98	C	1.716627	-0.027708	0.163063
C99	C	1.216587	-0.473102	-0.336928
C100	C	1.716587	0.026898	0.163072
C101	C	1.113391	-0.473138	-0.439967
C102	C	1.613391	0.026862	0.060033
C103	C	1.113427	-0.527739	-0.439973
C104	C	1.613427	-0.027739	0.060027
C105	C	1.165052	-0.555022	-0.388456
C106	C	1.665052	-0.055022	0.111544
O107	O	1.069614	-0.614134	-0.483756
O108	O	1.569614	-0.114134	0.016244
O109	O	1.260573	-0.614117	-0.293150
O110	O	1.760573	-0.114117	0.206850
C111	C	1.375405	-0.251867	-0.388489
C112	C	1.875405	0.248133	0.111511
C113	C	1.465026	-0.251871	-0.388498
C114	C	1.965026	0.248129	0.111502
C115	C	1.165136	-0.251825	-0.598775
C116	C	1.665136	0.248175	-0.098775
C117	C	1.165152	-0.251810	-0.688396
C118	C	1.665152	0.248190	-0.188396
C119	C	1.165254	-0.115487	-0.388520
C120	C	1.665254	0.384513	0.111480
C121	C	1.165321	-0.057372	-0.388544
C122	C	1.665321	0.442628	0.111456
C123	C	1.165166	-0.251799	-0.761178
C124	C	1.665166	0.248201	-0.261178
C125	C	1.165184	-0.251779	-0.852487
C126	C	1.665184	0.248221	-0.352487
C127	C	1.165203	-0.251761	-0.925263
C128	C	1.665203	0.248239	-0.425263
C129	C	1.165223	-0.251742	-1.016578
C130	C	1.665223	0.248258	-0.516578
C131	C	1.165103	-0.251856	-0.178975
C132	C	1.665103	0.248144	0.321025
C133	C	1.165242	-0.251724	-0.089354
C134	C	1.665242	0.248276	0.410646
H135	H	1.258666	-0.549915	-0.294988
H136	H	1.758666	-0.049915	0.205012
Cl137	Cl	1.281439	-0.438767	-0.272144
Cl138	Cl	1.781439	0.061233	0.227856
Cl139	Cl	1.333200	-0.689932	-0.220683
Cl140	Cl	1.833200	-0.189932	0.279317
H141	H	1.071696	-1.052316	-0.482005
H142	H	1.571696	-0.552316	0.017995
H143	H	1.071651	-0.953266	-0.482001
H144	H	1.571651	-0.453266	0.017999
Cl145	Cl	1.048564	-0.562078	-0.504736
Cl146	Cl	1.548564	-0.062078	-0.004736
Cl147	Cl	1.333262	-0.813155	-0.220698
Cl148	Cl	1.833262	-0.313155	0.279302
Cl149	Cl	1.281729	-0.941115	-0.272229
Cl150	Cl	1.781729	-0.441115	0.227771
Cl151	Cl	1.281789	-1.064363	-0.272257
Cl152	Cl	1.781789	-0.564363	0.227743
H153	H	1.071367	-0.450913	-0.481905
H154	H	1.571367	0.049087	0.018095
Cl155	Cl	0.997147	-0.813241	-0.556343
Cl156	Cl	1.497147	-0.313241	-0.056343
H157	H	1.019941	-0.702097	-0.533496
H158	H	1.519941	-0.202097	-0.033496
