data_functionalizedCrystal
_audit_creation_method	'MofGen! by Chris Wilmer'
_symmetry_space_group_name_H-M	'P1'
_symmetry_Int_Tables_number	1
_symmetry_cell_setting	triclinic
loop_
_symmetry_equiv_pos_as_xyz
  x,y,z
_cell_length_a	10.540514
_cell_length_b	9.616153
_cell_length_c	16.992695
_cell_angle_alpha	89.997656
_cell_angle_beta	92.408309
_cell_angle_gamma	90.007401
loop_
_atom_site_label
_atom_site_type_symbol
_atom_site_fract_x
_atom_site_fract_y
_atom_site_fract_z
O1	O	1.695496	0.115665	-0.110465
O2	O	1.326985	0.115664	-0.120902
O3	O	1.509763	0.115654	-0.001533
O4	O	1.512718	0.115676	-0.229834
O5	O	1.509737	-0.115638	-0.001535
O6	O	1.326958	-0.115627	-0.120905
O7	O	1.695470	-0.115626	-0.110467
Zn8	Zn	1.511210	-0.152349	-0.115686
Zn9	Zn	1.511245	0.152387	-0.115683
O10	O	1.512691	-0.115616	-0.229837
C11	C	1.279601	0.000018	-0.120125
C12	C	1.138449	0.000018	-0.117796
C13	C	1.075151	0.000029	-0.203168
C14	C	0.928330	0.000560	-0.200773
C15	C	0.942097	0.131843	-0.071365
C16	C	1.088897	0.131947	-0.074365
C17	C	1.089160	-0.131084	-0.073104
C18	C	0.942110	-0.132810	-0.072280
N19	N	1.511195	-0.360324	-0.115688
C20	C	1.413087	-0.580688	-0.179329
C21	C	1.413336	-0.419521	-0.179567
C22	C	1.645536	-0.418771	-0.134304
C23	C	1.645010	-0.579989	-0.134754
C24	C	1.476267	-0.580243	-0.033223
C25	C	1.473267	-0.419017	-0.033758
C26	C	1.742854	0.000023	-0.111244
C27	C	1.884006	0.000032	-0.113574
C28	C	1.505949	0.000008	0.027700
C29	C	1.494609	0.000008	0.114807
N30	N	1.511269	0.360362	-0.115675
C31	C	1.516505	0.000033	-0.259069
C32	C	1.527846	0.000042	-0.346176
C33	C	1.604029	0.000007	0.164441
C34	C	1.593366	0.000020	0.246286
C35	C	1.473281	0.000025	0.278497
C36	C	1.363852	0.000030	0.228856
C37	C	1.374517	0.000027	0.147012
C38	C	1.429082	0.000044	0.522339
C39	C	1.418425	0.000043	0.604190
C40	C	1.647940	0.000036	0.621614
C41	C	1.658594	0.000024	0.539768
C42	C	1.549165	0.000037	0.490135
N43	N	1.462379	0.000034	0.362156
N44	N	1.560069	0.000038	0.406477
H45	H	1.123109	-0.231024	-0.101524
N46	N	1.705120	0.000019	0.297001
N47	N	1.724791	0.097513	0.344614
H48	H	1.803720	0.097512	0.380433
N49	N	1.781252	0.000007	0.506859
N50	N	1.812789	-0.097496	0.463139
H51	H	1.899419	-0.097517	0.439896
H52	H	1.131462	0.137569	-0.011653
H53	H	0.902012	0.230317	-0.100296
H54	H	0.914226	0.136366	-0.007319
H55	H	1.539487	-0.378726	0.015885
H56	H	1.436543	-0.380935	-0.240739
H57	H	1.266076	0.000042	0.255088
H58	H	1.737031	0.000028	0.662034
N59	N	1.683223	-0.368106	-0.208920
N60	N	1.617259	-0.394695	-0.269914
H61	H	1.643867	-0.358915	-0.322615
N62	N	1.355461	-0.631302	-0.011020
N63	N	1.293690	-0.712099	-0.055702
H64	H	1.208362	-0.748155	-0.040032
N65	N	1.141614	-0.132693	0.005885
N66	N	1.259285	-0.137075	0.018256
H67	H	1.296338	-0.138202	0.074040
H68	H	0.903780	-0.230325	-0.103127
N69	N	1.682117	-0.627123	-0.210218
N70	N	1.708219	-0.540953	-0.262186
H71	H	1.734426	-0.574234	-0.315484
N72	N	1.295764	0.000073	0.637106
N73	N	1.286267	0.000074	0.710182
H74	H	1.199643	0.000095	0.733431
N75	N	0.904835	-0.143291	0.007452
N76	N	0.834533	-0.052615	0.035266
H77	H	0.808208	-0.060006	0.091580
H78	H	1.720678	-0.380422	-0.089207
H79	H	1.374403	-0.380818	-0.019648
H80	H	1.547769	-0.618364	0.014154
N81	N	1.739951	-0.628893	-0.078851
N82	N	1.806392	-0.543953	-0.039631
H83	H	1.873448	-0.578485	-0.000152
H84	H	1.339976	0.000054	0.481937
N85	N	1.288263	-0.369965	-0.165899
N86	N	1.200181	-0.454449	-0.156107
H87	H	1.111791	-0.419459	-0.146600
H88	H	0.888536	-0.093905	-0.233972
H89	H	0.889478	0.095610	-0.233828
H90	H	1.285414	0.000028	0.106600
N91	N	1.726705	-0.000016	0.131555
N92	N	1.824391	-0.000018	0.175885
H93	H	1.911036	-0.000034	0.152663
N94	N	1.127664	0.256039	-0.113032
N95	N	1.046322	0.341963	-0.137621
H96	H	1.073694	0.429606	-0.164932
H97	H	1.106685	-0.094480	-0.237801
N98	N	1.287796	-0.629418	-0.165494
N99	N	1.264856	-0.756957	-0.166017
H100	H	1.176368	-0.791388	-0.156244
N101	N	1.441853	-0.631498	-0.255634
N102	N	1.441698	-0.759379	-0.268822
H103	H	1.462017	-0.795268	-0.322712
N104	N	1.116806	0.118442	-0.245971
N105	N	1.192907	0.202825	-0.213874
H106	H	1.222328	0.286459	-0.244102
