data_functionalizedCrystal
_audit_creation_method	'MofGen! by Chris Wilmer'
_symmetry_space_group_name_H-M	'P1'
_symmetry_Int_Tables_number	1
_symmetry_cell_setting	triclinic
loop_
_symmetry_equiv_pos_as_xyz
  x,y,z
_cell_length_a	10.654562
_cell_length_b	17.019294
_cell_length_c	9.730223
_cell_angle_alpha	86.119703
_cell_angle_beta	89.996961
_cell_angle_gamma	83.940708
loop_
_atom_site_label
_atom_site_type_symbol
_atom_site_fract_x
_atom_site_fract_y
_atom_site_fract_z
O1	O	1.666088	0.110838	-0.127495
O2	O	1.300447	0.121384	-0.128726
O3	O	1.493469	0.001335	-0.114521
O4	O	1.473067	0.230887	-0.141700
O5	O	1.493466	0.001338	0.114058
O6	O	1.300445	0.121387	0.099853
O7	O	1.666086	0.110841	0.101084
Zn8	Zn	1.483265	0.116115	0.136761
Zn9	Zn	1.483268	0.116111	-0.164403
O10	O	1.473064	0.230890	0.086879
C11	C	1.253660	0.120609	-0.014342
C12	C	1.114254	0.118286	-0.014061
C13	C	1.048739	0.117204	0.110656
C14	C	0.917751	0.115028	0.110890
C15	C	0.917804	0.115019	-0.138319
C16	C	1.048791	0.117189	-0.138552
C17	C	1.048707	0.117213	0.254534
C18	C	0.917719	0.115037	0.254769
C19	C	1.492694	-0.028057	0.003246
C20	C	1.490374	-0.115640	0.013608
C21	C	1.489288	-0.156784	-0.106122
C22	C	1.487100	-0.239077	-0.096382
C23	C	1.486007	-0.280225	0.033089
C24	C	1.487089	-0.239075	0.152828
C25	C	1.489268	-0.156783	0.143087
C26	C	1.479420	-0.528693	0.068736
C27	C	1.477245	-0.610991	0.078468
C28	C	1.477254	-0.610987	-0.170743
C29	C	1.479440	-0.528694	-0.180473
C30	C	1.480515	-0.487551	-0.060734
C31	C	1.483775	-0.364342	0.043048
C32	C	1.482739	-0.403435	-0.070695
C33	C	1.712873	0.111616	-0.013303
C34	C	1.852279	0.113939	-0.013593
C35	C	1.473839	0.260282	-0.030891
C36	C	1.476159	0.347865	-0.041262
N37	N	1.483272	0.116117	0.342297
N38	N	1.483271	0.116102	-0.369938
C39	C	1.568764	0.062977	0.420511
C40	C	1.568761	0.062968	0.564395
C41	C	1.397770	0.169244	0.551838
C42	C	1.397768	0.169249	0.407957
C43	C	1.667488	0.001622	0.427761
C44	C	1.667485	0.001612	0.571645
H45	H	1.095820	0.062699	0.316242
H46	H	1.476348	-0.644491	0.183905
H47	H	1.637869	-0.055685	0.623047
H48	H	1.480332	-0.495197	-0.285902
H49	H	1.646995	-0.059010	0.395887
H50	H	1.763784	0.015130	0.609091
H51	H	1.758370	0.020837	0.380856
H52	H	0.889031	0.057508	0.306227
H53	H	1.102130	0.118058	-0.240106
H54	H	0.870578	0.169553	0.303550
H55	H	1.077380	0.174744	0.292366
H56	H	0.864487	0.114126	-0.239675
H57	H	1.328154	0.212503	0.605314
H58	H	1.483620	-0.369928	-0.176110
H59	H	1.480321	-0.495206	0.166236
H60	H	1.490185	-0.123287	-0.211552
H61	H	1.486221	-0.272573	-0.193879
H62	H	1.476376	-0.644494	-0.268227
H63	H	1.328143	0.212513	0.344277
H64	H	1.486192	-0.272584	0.258247
H65	H	1.490135	-0.123283	0.240584
H66	H	1.482889	-0.397854	0.148465
