data_functionalizedCrystal
_audit_creation_method	'MofGen! by Chris Wilmer'
_symmetry_space_group_name_H-M	'P1'
_symmetry_Int_Tables_number	1
_symmetry_cell_setting	triclinic
loop_
_symmetry_equiv_pos_as_xyz
  x,y,z
_cell_length_a	11.169416
_cell_length_b	11.169417
_cell_length_c	11.169409
_cell_angle_alpha	90.021683
_cell_angle_beta	89.969126
_cell_angle_gamma	89.990722
loop_
_atom_site_label
_atom_site_type_symbol
_atom_site_fract_x
_atom_site_fract_y
_atom_site_fract_z
Zn1	Zn	-0.477744	-1.834962	-0.678614
Zn2	Zn	-0.144411	-1.501629	-0.345281
Zn3	Zn	0.188923	-1.168296	-0.011948
Zn4	Zn	-0.678484	-1.834852	-0.477936
Zn5	Zn	-0.345151	-1.501518	-0.144603
Zn6	Zn	-0.011818	-1.168185	0.188730
Zn7	Zn	-0.477810	-1.634248	-0.477942
Zn8	Zn	-0.144477	-1.300915	-0.144609
Zn9	Zn	0.188856	-0.967582	0.188724
Zn10	Zn	-0.678380	-1.634256	-0.678575
Zn11	Zn	-0.345047	-1.300922	-0.345242
Zn12	Zn	-0.011713	-0.967589	-0.011908
O13	O	-0.578105	-1.734579	-0.578267
O14	O	-0.244771	-1.401246	-0.244934
O15	O	0.088562	-1.067913	0.088400
O16	O	-0.504389	-2.002897	-0.652008
O17	O	-0.171055	-1.669564	-0.318675
O18	O	0.162278	-1.336231	0.014658
O19	O	-0.651936	-1.808192	-0.309987
O20	O	-0.318603	-1.474858	0.023346
O21	O	0.014731	-1.141525	0.356679
O22	O	-0.309852	-1.660917	-0.504581
O23	O	0.023482	-1.327583	-0.171248
O24	O	0.356815	-0.994250	0.162086
O25	O	-0.651872	-2.002816	-0.504571
O26	O	-0.318538	-1.669483	-0.171238
O27	O	0.014795	-1.336149	0.162096
O28	O	-0.309803	-1.808380	-0.652014
O29	O	0.023530	-1.475047	-0.318681
O30	O	0.356864	-1.141714	0.014653
O31	O	-0.504502	-1.660809	-0.309992
O32	O	-0.171168	-1.327476	0.023342
O33	O	0.162165	-0.994143	0.356675
O34	O	-0.504400	-1.466300	-0.504543
O35	O	-0.171067	-1.132966	-0.171209
O36	O	0.162266	-0.799633	0.162124
O37	O	-0.651694	-1.660929	-0.846530
O38	O	-0.318360	-1.327596	-0.513197
O39	O	0.014973	-0.994263	-0.179863
O40	O	-0.651758	-1.466305	-0.651946
O41	O	-0.318425	-1.132972	-0.318613
O42	O	0.014909	-0.799638	0.014720
O43	O	-0.504287	-1.808388	-0.846559
O44	O	-0.170954	-1.475054	-0.513226
O45	O	0.162379	-1.141721	-0.179892
O46	O	-0.846420	-1.808199	-0.504533
O47	O	-0.513087	-1.474866	-0.171199
O48	O	-0.179754	-1.141532	0.162134
O49	O	-0.846344	-1.660822	-0.651941
O50	O	-0.513010	-1.327489	-0.318607
O51	O	-0.179677	-0.994155	0.014726
C52	C	-0.578076	-1.422755	-0.578241
C53	C	-0.244743	-1.089421	-0.244908
C54	C	0.088591	-0.756088	0.088425
C55	C	-0.578093	-1.289355	-0.578259
C56	C	-0.244759	-0.956021	-0.244926
C57	C	0.088574	-0.622688	0.088408
C58	C	-0.889929	-1.734532	-0.578258
C59	C	-0.556596	-1.401199	-0.244925
C60	C	-0.223263	-1.067865	0.088409
C61	C	-1.023329	-1.734621	-0.578294
C62	C	-0.689996	-1.401288	-0.244961
C63	C	-0.356663	-1.067955	0.088373
C64	C	-0.265062	-1.734660	-0.578302
C65	C	0.068271	-1.401327	-0.244969
C66	C	0.401604	-1.067993	0.088364
C67	C	-0.131662	-1.734694	-0.578318
C68	C	0.201671	-1.401361	-0.244984
C69	C	0.535004	-1.068028	0.088349
C70	C	-0.577971	-1.734672	-0.891310
C71	C	-0.244638	-1.401338	-0.557976
C72	C	0.088695	-1.068005	-0.224643
C73	C	-0.577915	-1.734711	-1.024710
C74	C	-0.244581	-1.401378	-0.691376
C75	C	0.088752	-1.068044	-0.358043
C76	C	-0.578124	-1.047622	-0.578284
C77	C	-0.244791	-0.714288	-0.244951
C78	C	0.088542	-0.380955	0.088383
C79	C	-0.578107	-1.181022	-0.578267
C80	C	-0.244773	-0.847688	-0.244933
C81	C	0.088560	-0.514355	0.088400
C82	C	-0.578151	-1.734557	-0.266442
C83	C	-0.244817	-1.401223	0.066891
C84	C	0.088516	-1.067890	0.400224
C85	C	-0.577870	-1.734750	-0.133043
C86	C	-0.244536	-1.401417	0.200290
C87	C	0.088797	-1.068083	0.533624
