data_functionalizedCrystal
_audit_creation_method	'MofGen! by Chris Wilmer'
_symmetry_space_group_name_H-M	'P1'
_symmetry_Int_Tables_number	1
_symmetry_cell_setting	triclinic
loop_
_symmetry_equiv_pos_as_xyz
  x,y,z
_cell_length_a	15.995300
_cell_length_b	15.995292
_cell_length_c	14.472310
_cell_angle_alpha	90.002121
_cell_angle_beta	89.985388
_cell_angle_gamma	83.470212
loop_
_atom_site_label
_atom_site_type_symbol
_atom_site_fract_x
_atom_site_fract_y
_atom_site_fract_z
O1	O	1.111000	0.107723	-0.076868
O2	O	0.867217	0.121095	-0.076862
O3	O	0.995798	-0.007483	-0.076867
O4	O	0.982419	0.236301	-0.076863
O5	O	0.995765	-0.007476	0.076815
O6	O	0.867183	0.121102	0.076820
O7	O	1.110967	0.107731	0.076814
Cu8	Cu	0.989072	0.114417	0.090849
Cu9	Cu	0.989111	0.114408	-0.090897
O10	O	0.982386	0.236309	0.076819
C11	C	0.836005	0.120553	-0.000020
C12	C	0.743052	0.118918	-0.000018
C13	C	0.995237	-0.038675	-0.000028
C14	C	0.993604	-0.131627	-0.000035
C15	C	0.572870	0.115899	-0.000025
C16	C	0.525385	0.207449	-0.000022
C17	C	0.428698	0.205779	-0.000373
C18	C	0.405314	0.112927	-0.000031
C19	C	0.446475	0.067501	-0.087619
C20	C	0.543108	0.069818	-0.087690
C21	C	0.543350	0.068471	0.087082
C22	C	0.446405	0.068479	0.088230
C23	C	0.310619	0.111242	-0.000037
C24	C	0.667565	0.117580	-0.000025
C25	C	0.987603	-0.469365	-0.000026
C26	C	1.080409	-0.446069	0.000315
C27	C	1.082173	-0.349394	-0.000035
C28	C	0.990581	-0.301809	-0.000030
C29	C	0.944201	-0.330906	-0.087786
C30	C	0.943084	-0.427697	-0.087856
C31	C	0.941151	-0.427545	0.086909
C32	C	0.944590	-0.331053	0.088066
C33	C	0.992259	-0.207114	-0.000035
C34	C	0.985922	-0.564060	-0.000027
C35	C	1.142179	0.108272	-0.000030
C36	C	1.235131	0.109907	-0.000038
C37	C	0.982947	0.267500	-0.000022
C38	C	0.984579	0.360453	-0.000021
N39	N	0.989051	0.114423	0.218680
N40	N	0.989139	0.114396	-0.218728
C41	C	0.989110	0.114405	0.592772
C42	C	0.920078	0.182974	0.553608
C43	C	0.920238	0.183224	0.446520
C44	C	0.989080	0.114414	0.407180
C45	C	1.076443	0.133480	0.446016
C46	C	1.076055	0.133968	0.553137
C47	C	0.971559	0.026566	0.553300
C48	C	0.969555	0.027152	0.446173
C49	C	0.989069	0.114417	0.302292
C50	C	0.989128	0.114403	0.697660
H51	H	0.543855	0.244244	0.062778
C52	C	0.425678	-0.022961	0.095748
H53	H	0.391549	-0.035287	0.044924
H54	H	0.396297	-0.029856	0.151787
H55	H	0.476400	-0.060157	0.095154
H56	H	0.561434	0.102550	-0.153410
C57	C	1.147532	0.069075	0.588142
H58	H	1.147777	0.068930	0.653786
H59	H	1.199943	0.083529	0.566053
H60	H	1.138965	0.014727	0.566189
C61	C	0.427445	-0.024663	-0.091698
H62	H	0.394144	-0.036283	-0.039899
H63	H	0.478750	-0.060959	-0.090746
H64	H	0.397680	-0.033599	-0.146965
C65	C	0.986516	-0.463945	-0.176472
H66	H	0.986214	-0.523300	-0.177298
H67	H	1.042952	-0.450829	-0.177841
H68	H	0.957164	-0.440073	-0.228952
C69	C	0.409444	0.113280	0.175773
H70	H	0.434552	0.086104	0.228931
H71	H	0.350372	0.111028	0.177394
H72	H	0.420617	0.170352	0.175007
C73	C	0.887354	0.001804	0.589831
H74	H	0.877968	-0.051383	0.565184
H75	H	0.842918	0.042945	0.571497
H76	H	0.889234	-0.001436	0.655355
C77	C	0.586304	-0.022710	0.088226
H78	H	0.622060	-0.031865	0.035908
H79	H	0.544660	-0.060548	0.086435
H80	H	0.618709	-0.031962	0.143035
C81	C	0.551869	0.256407	-0.084747
H82	H	0.591737	0.221296	-0.120124
H83	H	0.576373	0.304677	-0.064749
H84	H	0.503831	0.273438	-0.121652
C85	C	0.391076	0.253805	-0.085666
H86	H	0.434895	0.274402	-0.120243
H87	H	0.352077	0.299679	-0.066243
H88	H	0.363058	0.216959	-0.123141
C89	C	0.571004	0.109197	0.176794
H90	H	0.600815	0.155511	0.161961
H91	H	0.606477	0.068911	0.211216
H92	H	0.522771	0.128315	0.212541
C93	C	0.882743	0.007594	0.411888
H94	H	0.871292	-0.045268	0.435710
H95	H	0.882653	0.005715	0.346283
H96	H	0.840721	0.050268	0.432532
H97	H	0.418097	0.098638	-0.153046
H98	H	1.118740	-0.330999	-0.063054
C99	C	1.131254	-0.323694	0.084935
H100	H	1.150295	-0.372380	0.119977
H101	H	1.095520	-0.285892	0.122070
H102	H	1.178247	-0.296970	0.065172
H103	H	1.116168	-0.474070	0.063248
C104	C	1.039554	-0.042372	0.587517
H105	H	1.028615	-0.095302	0.563435
H106	H	1.038733	-0.044279	0.653112
H107	H	1.093266	-0.030066	0.567101
C108	C	1.128486	-0.485271	-0.084231
H109	H	1.092244	-0.515771	-0.119738
H110	H	1.175594	-0.522293	-0.064054
H111	H	1.147265	-0.441926	-0.121072
H112	H	1.129038	0.084866	0.420530
C113	C	0.853154	-0.287836	-0.092200
H114	H	0.842594	-0.251636	-0.040441
H115	H	0.815205	-0.329401	-0.091384
H116	H	0.845498	-0.255883	-0.147497
C117	C	0.987671	-0.303719	-0.176017
H118	H	1.034087	-0.274657	-0.159563
H119	H	0.948712	-0.267647	-0.211434
H120	H	1.007029	-0.352056	-0.211480
H121	H	0.872838	-0.441523	0.087504
H122	H	0.575396	0.002592	-0.091433
H123	H	0.875038	-0.442235	-0.091828
C124	C	0.980404	-0.465716	0.176767
H125	H	1.025496	-0.507519	0.162101
H126	H	0.938932	-0.490470	0.211036
H127	H	1.001024	-0.422707	0.212591
C128	C	0.990202	-0.305970	0.175771
H129	H	1.037076	-0.277789	0.158782
H130	H	1.009120	-0.355038	0.210232
H131	H	0.952549	-0.269589	0.212401
H132	H	0.400213	0.241472	0.062399
H133	H	0.877735	-0.298071	0.093369
C134	C	0.832509	0.167897	0.411047
H135	H	0.796450	0.161465	0.462106
H136	H	0.837113	0.118283	0.374453
H137	H	0.809830	0.214506	0.374713
C138	C	0.832066	0.167897	0.588456
H139	H	0.836629	0.119653	0.627207
H140	H	0.796981	0.159152	0.537221
H141	H	0.808296	0.215584	0.622462
H142	H	1.091524	0.198028	0.578113
H143	H	0.931129	0.247791	0.580518
C144	C	0.935380	0.271278	0.411884
H145	H	0.941466	0.307034	0.463283
H146	H	0.888876	0.294036	0.375457
H147	H	0.985157	0.267090	0.375555
C148	C	1.097842	0.219034	0.409771
H149	H	1.053655	0.243243	0.370984
H150	H	1.148805	0.211134	0.375531
H151	H	1.104250	0.255516	0.460447
C152	C	1.033073	-0.045009	0.410015
H153	H	1.072510	-0.022763	0.370493
H154	H	1.004027	-0.083877	0.376573
H155	H	1.061887	-0.072897	0.460681
