data_functionalizedCrystal
_audit_creation_method	'MofGen! by Chris Wilmer'
_symmetry_space_group_name_H-M	'P1'
_symmetry_Int_Tables_number	1
_symmetry_cell_setting	triclinic
loop_
_symmetry_equiv_pos_as_xyz
  x,y,z
_cell_length_a	10.540535
_cell_length_b	10.654550
_cell_length_c	9.130313
_cell_angle_alpha	89.998468
_cell_angle_beta	90.002127
_cell_angle_gamma	84.504273
loop_
_atom_site_label
_atom_site_type_symbol
_atom_site_fract_x
_atom_site_fract_y
_atom_site_fract_z
O1	O	1.685820	0.176959	-0.121720
O2	O	1.316400	0.193641	-0.121741
O3	O	1.509604	0.002564	-0.121719
O4	O	1.492616	0.368037	-0.121742
O5	O	1.509601	0.002569	0.121879
O6	O	1.316398	0.193647	0.121858
O7	O	1.685817	0.176965	0.121879
Cu8	Cu	1.501107	0.185306	0.144111
Cu9	Cu	1.501110	0.185300	-0.143973
O10	O	1.492614	0.368042	0.121857
C11	C	1.269096	0.192394	0.000056
C12	C	1.128149	0.188655	0.000048
C13	C	1.091529	0.049145	0.000063
C14	C	0.944930	0.045210	0.000630
C15	C	0.918789	0.252342	0.138898
C16	C	1.065553	0.255310	0.139000
C17	C	1.065439	0.257334	-0.138027
C18	C	0.919095	0.250882	-0.139837
C19	C	1.508355	-0.044232	0.000080
C20	C	1.504623	-0.183676	0.000078
C21	C	1.733121	0.178212	0.000078
C22	C	1.874068	0.181951	0.000076
C23	C	1.493862	0.414838	0.000055
C24	C	1.497594	0.554282	0.000047
N25	N	1.501115	0.185310	0.346733
C26	C	1.383839	0.633730	0.000054
C27	C	1.387353	0.764752	0.000065
C28	C	1.618387	0.736866	0.000066
C29	C	1.614872	0.605847	0.000045
C30	C	1.250453	0.649831	0.000060
C31	C	1.253967	0.780853	0.000070
N32	N	1.501113	0.185287	-0.346596
C33	C	1.586687	0.100730	0.423395
C34	C	1.586684	0.100715	0.576732
C35	C	1.415531	0.269871	0.576732
C36	C	1.415529	0.269879	0.423398
C37	C	1.685505	0.003072	0.423396
C38	C	1.685501	0.003057	0.576733
H39	H	1.135004	-0.003529	0.099475
H40	H	1.198280	0.620471	-0.101886
H41	H	1.207966	0.614174	0.105226
O42	O	1.659411	-0.112045	0.373815
C43	C	1.538756	-0.138523	0.425440
H44	H	1.479252	-0.046461	0.452682
H45	H	1.551015	-0.199419	0.528075
C46	C	1.543863	-0.322620	0.272929
C47	C	1.470775	-0.209547	0.306377
H48	H	1.501930	-0.366436	0.199489
H49	H	1.625153	-0.304785	0.238151
H50	H	1.554073	-0.373351	0.358468
H51	H	1.460579	-0.158812	0.220843
H52	H	1.389481	-0.227375	0.341137
O53	O	1.648514	-0.105678	0.633525
C54	C	1.538803	-0.078115	0.720415
H55	H	1.487351	0.015863	0.684604
H56	H	1.567762	-0.072088	0.840327
C57	C	1.512540	-0.298523	0.745702
C58	C	1.449340	-0.183102	0.701711
H59	H	1.457356	-0.363286	0.734171
H60	H	1.586457	-0.317094	0.687168
H61	H	1.536669	-0.293482	0.845626
H62	H	1.425227	-0.188139	0.601784
H63	H	1.375417	-0.164535	0.760228
O64	O	1.113675	0.198476	0.263126
C65	C	1.199906	0.094053	0.225566
H66	H	1.237514	0.107238	0.110070
H67	H	1.149077	0.004375	0.230045
C68	C	1.265769	0.067121	0.476357
C69	C	1.311968	0.083321	0.334507
H70	H	1.334892	0.060496	0.543560
H71	H	1.207670	0.137469	0.501664
H72	H	1.223412	-0.007609	0.480069
H73	H	1.354309	0.158058	0.330793
H74	H	1.370077	0.012984	0.309202
H75	H	0.915613	-0.009840	-0.098862
O76	O	1.193837	0.830520	0.121640
C77	C	1.066032	0.801739	0.121382
H78	H	1.056993	0.714912	0.050591
H79	H	1.002516	0.885020	0.075177
C80	C	1.035538	0.881734	0.366085
C81	C	1.024438	0.775084	0.279149
H82	H	1.009878	0.865297	0.463404
H83	H	1.121641	0.901129	0.366259
H84	H	0.982608	0.951124	0.327565
H85	H	1.077380	0.705701	0.317660
H86	H	0.938343	0.755677	0.278986
O87	O	1.332349	0.352151	0.349155
C88	C	1.256793	0.426766	0.449706
H89	H	1.308851	0.428685	0.559009
H90	H	1.162146	0.385070	0.466012
C91	C	1.167850	0.559650	0.255620
C92	C	1.231795	0.562015	0.389864
H93	H	1.152424	0.643076	0.218705
H94	H	1.218749	0.509378	0.187875
H95	H	1.088985	0.524897	0.269226
H96	H	1.310665	0.596752	0.376253
H97	H	1.180908	0.612296	0.457605
H98	H	0.890512	0.199656	-0.242540
H99	H	1.213663	0.826498	-0.105108
H100	H	1.783054	0.024608	0.618353
O101	O	0.860419	0.369879	-0.150548
C102	C	0.790771	0.382051	-0.282455
H103	H	0.767748	0.284972	-0.320829
H104	H	0.849898	0.426325	-0.369555
C105	C	0.694195	0.585909	-0.209917
C106	C	0.665909	0.466677	-0.257042
H107	H	0.617177	0.638115	-0.194245
H108	H	0.741122	0.577712	-0.121051
H109	H	0.743470	0.622788	-0.282509
H110	H	0.616649	0.429793	-0.184444
H111	H	0.618971	0.474870	-0.345896
H112	H	1.777672	0.033691	0.375841
O113	O	1.725286	0.528539	0.000213
C114	C	1.730198	0.451914	0.126375
H115	H	1.629383	0.444387	0.168450
H116	H	1.788574	0.495508	0.214720
C117	C	1.916713	0.328739	0.036336
C118	C	1.792889	0.319485	0.088006
H119	H	1.955388	0.247051	0.012671
H120	H	1.913407	0.380365	-0.048660
H121	H	1.965343	0.365071	0.109965
H122	H	1.744256	0.283168	0.014371
H123	H	1.796188	0.267850	0.172989
H124	H	0.871396	0.353022	0.143663
H125	H	0.916496	-0.009565	0.100738
H126	H	0.887903	0.204052	0.242614
H127	H	1.087587	0.359979	-0.139376
O128	O	1.332348	0.351847	0.651370
C129	C	1.253428	0.283826	0.740025
H130	H	1.303130	0.186029	0.762989
H131	H	1.159537	0.274400	0.680923
C132	C	1.165867	0.474479	0.857477
C133	C	1.226917	0.354367	0.885692
H134	H	1.149508	0.517993	0.947329
H135	H	1.219033	0.520308	0.797745
H136	H	1.087632	0.466607	0.808222
H137	H	1.305157	0.362240	0.934929
H138	H	1.173763	0.308541	0.945436
H139	H	1.088547	0.357582	0.144926
H140	H	1.133518	-0.004430	-0.099475
H141	H	1.107915	0.213799	-0.243286
H142	H	1.713871	0.778866	0.000040
