data_functionalizedCrystal
_audit_creation_method	'MofGen! by Chris Wilmer'
_symmetry_space_group_name_H-M	'P1'
_symmetry_Int_Tables_number	1
_symmetry_cell_setting	triclinic
loop_
_symmetry_equiv_pos_as_xyz
  x,y,z
_cell_length_a	14.519709
_cell_length_b	14.519709
_cell_length_c	7.681481
_cell_angle_alpha	84.246308
_cell_angle_beta	95.739713
_cell_angle_gamma	83.680145
loop_
_atom_site_label
_atom_site_type_symbol
_atom_site_fract_x
_atom_site_fract_y
_atom_site_fract_z
O1	O	1.215175	0.129595	-0.146206
O2	O	1.465175	0.379595	0.103794
O3	O	1.715175	0.629595	0.353794
O4	O	1.965175	0.879595	0.603794
O5	O	0.946695	0.143835	-0.146260
O6	O	1.196695	0.393835	0.103740
O7	O	1.446695	0.643835	0.353740
O8	O	1.696695	0.893835	0.603740
O9	O	1.088055	0.002475	-0.146216
O10	O	1.338055	0.252475	0.103784
O11	O	1.588055	0.502475	0.353784
O12	O	1.838055	0.752475	0.603784
O13	O	1.073816	0.270954	-0.146250
O14	O	1.323816	0.520954	0.103750
O15	O	1.573816	0.770954	0.353750
O16	O	1.823816	1.020954	0.603750
O17	O	1.105453	-0.014963	0.146647
O18	O	1.355453	0.235037	0.396647
O19	O	1.605453	0.485037	0.646647
O20	O	1.855453	0.735037	0.896647
O21	O	0.964094	0.126396	0.146603
O22	O	1.214094	0.376396	0.396603
O23	O	1.464094	0.626396	0.646603
O24	O	1.714094	0.876396	0.896603
O25	O	1.232574	0.112156	0.146657
O26	O	1.482574	0.362156	0.396657
O27	O	1.732574	0.612156	0.646657
O28	O	1.982574	0.862156	0.896657
Zn29	Zn	1.101097	0.116508	0.193128
Zn30	Zn	1.351097	0.366508	0.443128
Zn31	Zn	1.601097	0.616508	0.693128
Zn32	Zn	1.851097	0.866508	0.943128
Zn33	Zn	1.078173	0.139483	-0.192732
Zn34	Zn	1.328173	0.389483	0.057268
Zn35	Zn	1.578173	0.639483	0.307268
Zn36	Zn	1.828173	0.889483	0.557268
O37	O	1.091215	0.253516	0.146613
O38	O	1.341215	0.503516	0.396613
O39	O	1.591215	0.753516	0.646613
O40	O	1.841215	1.003516	0.896613
C41	C	0.921034	0.134452	0.000164
C42	C	1.171034	0.384452	0.250164
C43	C	1.421034	0.634452	0.500164
C44	C	1.671034	0.884452	0.750164
C45	C	0.818652	0.132465	0.000144
C46	C	1.068652	0.382465	0.250144
C47	C	1.318652	0.632465	0.500144
C48	C	1.568652	0.882465	0.750144
C49	C	0.443761	0.125141	0.000225
C50	C	0.693761	0.375141	0.250225
C51	C	0.943761	0.625141	0.500225
C52	C	1.193761	0.875141	0.750225
C53	C	0.548068	0.127175	0.000202
C54	C	0.798068	0.377175	0.250202
C55	C	1.048068	0.627175	0.500202
C56	C	1.298068	0.877175	0.750202
C57	C	0.631203	0.128803	0.000183
C58	C	0.881203	0.378803	0.250183
C59	C	1.131203	0.628803	0.500183
C60	C	1.381203	0.878803	0.750183
C61	C	0.735516	0.130837	0.000163
C62	C	0.985516	0.380837	0.250163
C63	C	1.235516	0.630837	0.500163
C64	C	1.485516	0.880837	0.750163
C65	C	1.096091	-0.040604	0.000216
C66	C	1.346091	0.209396	0.250216
C67	C	1.596091	0.459396	0.500216
C68	C	1.846091	0.709396	0.750216
C69	C	1.094102	-0.142985	0.000216
C70	C	1.344102	0.107015	0.250216
C71	C	1.594102	0.357015	0.500216
C72	C	1.844102	0.607015	0.750216
C73	C	1.086780	-0.517878	0.000169
C74	C	1.336780	-0.267878	0.250169
C75	C	1.586780	-0.017878	0.500169
C76	C	1.836780	0.232122	0.750169
C77	C	1.088813	-0.413571	0.000183
C78	C	1.338813	-0.163571	0.250183
C79	C	1.588813	0.086429	0.500183
C80	C	1.838813	0.336429	0.750183
C81	C	1.090441	-0.330435	0.000194
C82	C	1.340441	-0.080435	0.250194
C83	C	1.590441	0.169565	0.500194
C84	C	1.840441	0.419565	0.750194
C85	C	1.092475	-0.226121	0.000205
C86	C	1.342475	0.023879	0.250205
C87	C	1.592475	0.273879	0.500205
C88	C	1.842475	0.523879	0.750205
C89	C	1.258235	0.121539	0.000228
C90	C	1.508235	0.371539	0.250228
C91	C	1.758235	0.621539	0.500228
C92	C	2.008235	0.871539	0.750228
C93	C	1.360616	0.123527	0.000237
C94	C	1.610616	0.373527	0.250237
C95	C	1.860616	0.623527	0.500237
C96	C	2.110616	0.873527	0.750237
C97	C	1.083179	0.296595	0.000177
C98	C	1.333179	0.546595	0.250177
C99	C	1.583179	0.796595	0.500177
C100	C	1.833179	1.046595	0.750177
C101	C	1.085166	0.398977	0.000165
C102	C	1.335166	0.648977	0.250165
C103	C	1.585166	0.898977	0.500165
C104	C	1.835166	1.148977	0.750165
N105	N	1.116748	0.100827	0.456468
N106	N	1.366748	0.350827	0.706468
N107	N	1.616748	0.600827	0.956468
N108	N	1.866748	0.850827	1.206468
N109	N	1.062528	0.155157	-0.456071
N110	N	1.312528	0.405157	-0.206071
N111	N	1.562528	0.655157	0.043929
N112	N	1.812528	0.905157	0.293929
H113	H	1.007181	0.210612	0.468715
H114	H	1.257181	0.460612	0.718715
H115	H	1.507181	0.710612	0.968715
H116	H	1.757181	0.960612	1.218715
H117	H	1.172106	0.045374	0.531691
H118	H	1.422106	0.295374	0.781691
H119	H	1.672106	0.545374	1.031691
H120	H	1.922106	0.795374	1.281691
