data_functionalizedCrystal
_audit_creation_method	'MofGen! by Chris Wilmer'
_symmetry_space_group_name_H-M	'P1'
_symmetry_Int_Tables_number	1
_symmetry_cell_setting	triclinic
loop_
_symmetry_equiv_pos_as_xyz
  x,y,z
_cell_length_a	16.959453
_cell_length_b	16.959455
_cell_length_c	19.805399
_cell_angle_alpha	89.982119
_cell_angle_beta	89.973253
_cell_angle_gamma	90.024249
loop_
_atom_site_label
_atom_site_type_symbol
_atom_site_fract_x
_atom_site_fract_y
_atom_site_fract_z
Zn1	Zn	-0.314712	1.208383	-0.382693
Zn2	Zn	0.018621	1.541716	-0.049360
Zn3	Zn	0.351955	1.875049	0.283974
Zn4	Zn	-0.446894	1.208287	-0.269506
Zn5	Zn	-0.113561	1.541620	0.063827
Zn6	Zn	0.219772	1.874953	0.397160
Zn7	Zn	-0.314732	1.076204	-0.269521
Zn8	Zn	0.018601	1.409537	0.063812
Zn9	Zn	0.351934	1.742870	0.397146
Zn10	Zn	-0.446851	1.076165	-0.382656
Zn11	Zn	-0.113518	1.409498	-0.049323
Zn12	Zn	0.219816	1.742831	0.284010
O13	O	-0.380797	1.142259	-0.326094
O14	O	-0.047464	1.475593	0.007239
O15	O	0.285869	1.808926	0.340572
O16	O	-0.332256	1.318981	-0.367688
O17	O	0.001078	1.652314	-0.034354
O18	O	0.334411	1.985647	0.298979
O19	O	-0.429390	1.190742	-0.174792
O20	O	-0.096056	1.524075	0.158542
O21	O	0.237277	1.857408	0.491875
O22	O	-0.204119	1.093794	-0.284555
O23	O	0.129215	1.427127	0.048779
O24	O	0.462548	1.760460	0.382112
O25	O	-0.429370	1.318910	-0.284530
O26	O	-0.096036	1.652244	0.048803
O27	O	0.237297	1.985577	0.382137
O28	O	-0.204104	1.190905	-0.367702
O29	O	0.129230	1.524238	-0.034369
O30	O	0.462563	1.857572	0.298965
O31	O	-0.332291	1.093701	-0.174802
O32	O	0.001043	1.427034	0.158531
O33	O	0.334376	1.760368	0.491864
O34	O	-0.332249	0.965588	-0.284519
O35	O	0.001085	1.298921	0.048814
O36	O	0.334418	1.632254	0.382147
O37	O	-0.429296	1.093727	-0.477378
O38	O	-0.095962	1.427061	-0.144045
O39	O	0.237371	1.760394	0.189289
O40	O	-0.429316	0.965559	-0.367640
O41	O	-0.095982	1.298892	-0.034306
O42	O	0.237351	1.632226	0.299027
O43	O	-0.332214	1.190867	-0.477405
O44	O	0.001120	1.524201	-0.144071
O45	O	0.334453	1.857534	0.189262
O46	O	-0.557500	1.190704	-0.284495
O47	O	-0.224166	1.524037	0.048839
O48	O	0.109167	1.857371	0.382172
O49	O	-0.557468	1.093635	-0.367626
O50	O	-0.224134	1.426968	-0.034292
O51	O	0.109199	1.760301	0.299041
C52	C	-0.380780	0.936893	-0.326078
C53	C	-0.047447	1.270226	0.007256
C54	C	0.285886	1.603560	0.340589
C55	C	-0.380792	0.849037	-0.326086
C56	C	-0.047459	1.182370	0.007247
C57	C	0.285875	1.515703	0.340580
C58	C	-0.431283	0.807724	-0.282728
C59	C	-0.097949	1.141057	0.050605
C60	C	0.235384	1.474391	0.383938
C61	C	-0.330307	0.807795	-0.369450
C62	C	0.003026	1.141129	-0.036116
C63	C	0.336359	1.474462	0.297217
C64	C	-0.330314	0.725250	-0.369458
C65	C	0.003020	1.058583	-0.036125
C66	C	0.336353	1.391916	0.297209
C67	C	-0.380804	0.683937	-0.326100
C68	C	-0.047471	1.017270	0.007233
C69	C	0.285862	1.350604	0.340567
C70	C	-0.431289	0.725170	-0.282734
C71	C	-0.097955	1.058504	0.050600
C72	C	0.235378	1.391837	0.383933
C73	C	-0.279825	0.684010	-0.412818
C74	C	0.053509	1.017343	-0.079485
C75	C	0.386842	1.350677	0.253848
C76	C	-0.279828	0.601459	-0.412828
C77	C	0.053505	0.934792	-0.079494
C78	C	0.386839	1.268126	0.253839
C79	C	-0.330323	0.560145	-0.369472
C80	C	0.003010	0.893478	-0.036139
C81	C	0.336343	1.226812	0.297194
C82	C	-0.380810	0.601384	-0.326105
C83	C	-0.047477	0.934717	0.007228
C84	C	0.285856	1.268050	0.340561
C85	C	-0.431301	0.560071	-0.282747
C86	C	-0.097968	0.893404	0.050586
C87	C	0.235366	1.226738	0.383919
C88	C	-0.481793	0.601308	-0.239383
C89	C	-0.148460	0.934641	0.093950
C90	C	0.184874	1.267975	0.427284
C91	C	-0.481784	0.683857	-0.239379
C92	C	-0.148451	1.017190	0.093955
C93	C	0.184883	1.350523	0.427288
C94	C	-0.330332	0.477597	-0.369477
C95	C	0.003001	0.810930	-0.036143
C96	C	0.336334	1.144263	0.297190
C97	C	-0.431307	0.477518	-0.282753
C98	C	-0.097974	0.810851	0.050581
C99	C	0.235359	1.144184	0.383914
C100	C	-0.586164	1.142176	-0.326069
C101	C	-0.252830	1.475509	0.007264
C102	C	0.080503	1.808843	0.340597
C103	C	-0.674020	1.142213	-0.326081
C104	C	-0.340687	1.475546	0.007252
C105	C	-0.007354	1.808880	0.340585
C106	C	-0.715307	1.091648	-0.369333
C107	C	-0.381973	1.424982	-0.036000
C108	C	-0.048640	1.758315	0.297334
C109	C	-0.715287	1.192817	-0.282845
C110	C	-0.381954	1.526150	0.050489
C111	C	-0.048621	1.859483	0.383822
C112	C	-0.797833	1.192856	-0.282857
C113	C	-0.464500	1.526189	0.050477
C114	C	-0.131167	1.859523	0.383810
C115	C	-0.839120	1.142291	-0.326109
C116	C	-0.505786	1.475625	0.007225
C117	C	-0.172453	1.808958	0.340558
C118	C	-0.797860	1.091688	-0.369348
C119	C	-0.464527	1.425021	-0.036015
C120	C	-0.131194	1.758354	0.297319
C121	C	-0.839099	1.243464	-0.239623
C122	C	-0.505766	1.576798	0.093710
C123	C	-0.172432	1.910131	0.427044
C124	C	-0.921650	1.243506	-0.239634
C125	C	-0.588317	1.576840	0.093699
C126	C	-0.254983	1.910173	0.427033
C127	C	-0.962938	1.192937	-0.282883
C128	C	-0.629604	1.526270	0.050450
C129	C	-0.296271	1.859604	0.383784
C130	C	-0.921673	1.142331	-0.326124
C131	C	-0.588340	1.475664	0.007210
C132	C	-0.255007	1.808997	0.340543
C133	C	-0.962960	1.091766	-0.369375
C134	C	-0.629626	1.425100	-0.036042
C135	C	-0.296293	1.758433	0.297291
C136	C	-0.921697	1.041155	-0.412613
C137	C	-0.588363	1.374489	-0.079280
C138	C	-0.255030	1.707822	0.254053
C139	C	-0.839148	1.041119	-0.412597
C140	C	-0.505815	1.374452	-0.079264
C141	C	-0.172482	1.707785	0.254070
C142	C	-1.045486	1.192974	-0.282899
C143	C	-0.712153	1.526307	0.050434
C144	C	-0.378820	1.859640	0.383767
C145	C	-1.045513	1.091806	-0.369391
C146	C	-0.712180	1.425139	-0.036057
C147	C	-0.378847	1.758472	0.297276
C148	C	-0.174629	1.142364	-0.326134
C149	C	0.158704	1.475698	0.007199
C150	C	0.492037	1.809031	0.340533
C151	C	-0.086773	1.142409	-0.326151
C152	C	0.246561	1.475743	0.007182
C153	C	0.579894	1.809076	0.340516
C154	C	-0.380748	1.142304	-0.502637
C155	C	-0.047414	1.475637	-0.169304
C156	C	0.285919	1.808970	0.164030
C157	C	-0.380726	1.142323	-0.577869
C158	C	-0.047393	1.475656	-0.244536
C159	C	0.285940	1.808989	0.088798
C160	C	-0.380815	1.348428	-0.326111
C161	C	-0.047482	1.681761	0.007222
C162	C	0.285851	2.015094	0.340555
C163	C	-0.380823	1.436284	-0.326119
C164	C	-0.047490	1.769617	0.007215
C165	C	0.285844	2.102951	0.340548
C166	C	-0.330173	1.192904	-0.613228
C167	C	0.003160	1.526238	-0.279895
C168	C	0.336493	1.859571	0.053438
C169	C	-0.330150	1.192913	-0.683917
C170	C	0.003183	1.526246	-0.350583
C171	C	0.336516	1.859579	-0.017250
C172	C	-0.380685	1.142342	-0.719245
C173	C	-0.047352	1.475676	-0.385911
C174	C	0.285981	1.809009	-0.052578
C175	C	-0.431241	1.091755	-0.683881
C176	C	-0.097907	1.425088	-0.350547
C177	C	0.235426	1.758421	-0.017214
C178	C	-0.431259	1.091743	-0.613193
C179	C	-0.097926	1.425077	-0.279860
C180	C	0.235408	1.758410	0.053473
C181	C	-0.431167	1.091799	-0.968954
C182	C	-0.097834	1.425133	-0.635621
C183	C	0.235500	1.758466	-0.302287
C184	C	-0.431146	1.091817	-1.039646
C185	C	-0.097813	1.425150	-0.706313
C186	C	0.235520	1.758483	-0.372979
C187	C	-0.330058	1.192969	-1.039677
C188	C	0.003275	1.526302	-0.706344
C189	C	0.336608	1.859635	-0.373011
C190	C	-0.330077	1.192957	-0.968990
C191	C	0.003257	1.526291	-0.635657
C192	C	0.336590	1.859624	-0.302324
C193	C	-0.380629	1.142367	-0.933632
C194	C	-0.047295	1.475701	-0.600299
C195	C	0.286038	1.809034	-0.266966
C196	C	-0.380652	1.142358	-0.856984
C197	C	-0.047319	1.475691	-0.523650
C198	C	0.286015	1.809025	-0.190317
C199	C	-0.380667	1.142355	-0.795892
C200	C	-0.047333	1.475688	-0.462559
C201	C	0.286000	1.809022	-0.129225
C202	C	-0.380790	1.142261	-0.150238
C203	C	-0.047457	1.475594	0.183095
C204	C	0.285877	1.808927	0.516428
C205	C	-0.380589	1.142395	-0.075007
C206	C	-0.047255	1.475728	0.258327
C207	C	0.286078	1.809062	0.591660
H208	H	-0.472394	0.841303	-0.247424
H209	H	-0.139061	1.174636	0.085909
H210	H	0.194273	1.507969	0.419243
Br211	Br	-0.211308	0.545502	-0.471680
Br212	Br	0.122025	0.878835	-0.138347
Br213	Br	0.455358	1.212168	0.194987
H214	H	-0.289024	1.234087	-0.584469
H215	H	0.044309	1.567421	-0.251136
H216	H	0.377642	1.900754	0.082197
Br217	Br	-0.783065	1.312093	-0.180936
Br218	Br	-0.449732	1.645426	0.152397
Br219	Br	-0.116398	1.978759	0.485731
Br220	Br	-0.659256	1.261445	-0.224156
Br221	Br	-0.325923	1.594779	0.109177
Br222	Br	0.007411	1.928112	0.442511
Br223	Br	-0.499820	1.023118	-0.731825
Br224	Br	-0.166486	1.356451	-0.398491
Br225	Br	0.166847	1.689784	-0.065158
Br226	Br	-0.261576	1.261599	-0.731902
Br227	Br	0.071757	1.594933	-0.398569
Br228	Br	0.405090	1.928266	-0.065235
Br229	Br	-0.977643	1.312190	-0.180955
Br230	Br	-0.644309	1.645523	0.152378
Br231	Br	-0.310976	1.978857	0.485711
H232	H	-0.288929	1.234139	-0.940230
H233	H	0.044405	1.567473	-0.606896
H234	H	0.377738	1.900806	-0.273563
H235	H	-0.472416	1.050546	-0.584405
H236	H	-0.139083	1.383880	-0.251071
H237	H	0.194250	1.717213	0.082262
Br238	Br	-1.101483	1.261660	-0.224230
Br239	Br	-0.768150	1.594994	0.109103
Br240	Br	-0.434816	1.928327	0.442436
H241	H	-0.522899	0.567661	-0.204078
H242	H	-0.189566	0.900994	0.129255
H243	H	0.143767	1.234327	0.462588
H244	H	-0.805547	0.999914	-0.447800
H245	H	-0.472213	1.333247	-0.114467
H246	H	-0.138880	1.666580	0.218866
H247	H	-0.288894	1.234159	-1.068474
H248	H	0.044440	1.567492	-0.735141
H249	H	0.377773	1.900826	-0.401808
H250	H	-0.681708	1.050439	-0.404535
H251	H	-0.348375	1.383773	-0.071202
H252	H	-0.015042	1.717106	0.262132
H253	H	-0.238715	0.717653	-0.448115
H254	H	0.094619	1.050986	-0.114782
H255	H	0.427952	1.384319	0.218551
H256	H	-0.472299	1.050633	-1.068408
H257	H	-0.138966	1.383966	-0.735075
H258	H	0.194367	1.717299	-0.401742
Br259	Br	-0.261783	0.863862	-0.428286
Br260	Br	0.071550	1.197196	-0.094953
Br261	Br	0.404883	1.530529	0.238380
Br262	Br	-0.261805	0.421635	-0.428316
Br263	Br	0.071528	0.754968	-0.094982
Br264	Br	0.404861	1.088302	0.238351
H265	H	-0.522890	0.717439	-0.204072
H266	H	-0.189556	1.050772	0.129261
H267	H	0.143777	1.384106	0.462594
Br268	Br	-0.499772	1.023140	-0.920977
Br269	Br	-0.166438	1.356473	-0.587644
Br270	Br	0.166895	1.689807	-0.254310
H271	H	-0.472427	0.443887	-0.247448
H272	H	-0.139093	0.777220	0.085886
H273	H	0.194240	1.110553	0.419219
Br274	Br	-0.977738	0.972543	-0.471317
Br275	Br	-0.644405	1.305876	-0.137984
Br276	Br	-0.311071	1.639210	0.195350
Br277	Br	-1.101539	1.023172	-0.428087
Br278	Br	-0.768205	1.356505	-0.094754
Br279	Br	-0.434872	1.689839	0.238579
