data_functionalizedCrystal
_audit_creation_method	'MofGen! by Chris Wilmer'
_symmetry_space_group_name_H-M	'P1'
_symmetry_Int_Tables_number	1
_symmetry_cell_setting	triclinic
loop_
_symmetry_equiv_pos_as_xyz
  x,y,z
_cell_length_a	17.077404
_cell_length_b	12.827892
_cell_length_c	17.077396
_cell_angle_alpha	89.975123
_cell_angle_beta	89.980499
_cell_angle_gamma	90.015617
loop_
_atom_site_label
_atom_site_type_symbol
_atom_site_fract_x
_atom_site_fract_y
_atom_site_fract_z
Zn1	Zn	1.200096	-0.416027	-0.443862
Zn2	Zn	1.200020	-0.590789	-0.312605
Zn3	Zn	1.068827	-0.416063	-0.312610
Zn4	Zn	1.068812	-0.590727	-0.443828
O5	O	1.134439	-0.503402	-0.378226
O6	O	1.309932	-0.439220	-0.426463
O7	O	1.182591	-0.567653	-0.202758
O8	O	1.086278	-0.269823	-0.330038
O9	O	1.309877	-0.567617	-0.330028
O10	O	1.182720	-0.269796	-0.426468
O11	O	1.086205	-0.439282	-0.202763
O12	O	0.958978	-0.439222	-0.330005
O13	O	1.086253	-0.567511	-0.553680
O14	O	0.958968	-0.567547	-0.426410
O15	O	1.182706	-0.439160	-0.553705
O16	O	1.182577	-0.737017	-0.329995
O17	O	1.086179	-0.736971	-0.426404
C18	C	0.930491	-0.503383	-0.378205
C19	C	0.843241	-0.503400	-0.378214
C20	C	1.134390	-0.774912	-0.378213
C21	C	1.134440	-0.891065	-0.378233
C22	C	0.802266	-0.570319	-0.428332
C23	C	0.720285	-0.570321	-0.428344
C24	C	0.679282	-0.503409	-0.378235
C25	C	0.720263	-0.436482	-0.328115
C26	C	0.802242	-0.436475	-0.328107
C27	C	0.549393	-0.436502	-0.328134
C28	C	0.467408	-0.436510	-0.328140
C29	C	0.467436	-0.570349	-0.428371
C30	C	0.549415	-0.570342	-0.428363
C31	C	0.590391	-0.503416	-0.378242
C32	C	1.182198	-0.942837	-0.330579
C33	C	1.182251	-1.062888	-0.330599
C34	C	1.339183	-0.503421	-0.378249
C35	C	1.426433	-0.503430	-0.378258
C36	C	1.134486	-0.503325	-0.582971
C37	C	1.134506	-0.503292	-0.670221
C38	C	1.134509	-0.230831	-0.378257
C39	C	1.134540	-0.114678	-0.378271
C40	C	1.184731	-0.436454	-0.711225
C41	C	1.184741	-0.436419	-0.793206
C42	C	1.134529	-0.503228	-0.834180
C43	C	1.084298	-0.570069	-0.793170
C44	C	1.084285	-0.570098	-0.711191
C45	C	1.084330	-0.570007	-0.964040
C46	C	1.084344	-0.569980	-1.046025
C47	C	1.184785	-0.436327	-1.046055
C48	C	1.184772	-0.436356	-0.964076
C49	C	1.134543	-0.503199	-0.923071
C50	C	1.134437	-0.503403	-0.174279
C51	C	1.134568	-0.503141	-0.087029
H52	H	0.835645	-0.624811	-0.469134
H53	H	1.093597	-0.935617	-0.419049
O54	O	1.030154	-0.642101	-0.919812
H55	H	0.990220	-0.595334	-0.882467
H56	H	1.225683	-0.381900	-1.079445
O57	O	1.236321	-0.883827	-0.276533
H58	H	1.201166	-0.834167	-0.236583
O59	O	1.030105	-0.642184	-0.666968
H60	H	1.065207	-0.695370	-0.629608
O61	O	1.238932	-0.364299	-0.919882
H62	H	1.278852	-0.411096	-0.882540
O63	O	1.030133	-0.642121	-0.837360
H64	H	1.065254	-0.695289	-0.874706
O65	O	0.676087	-0.642698	-0.482248
H66	H	0.718372	-0.689307	-0.517029
H67	H	0.835603	-0.381977	-0.287300
H68	H	1.225641	-0.381995	-0.826588
O69	O	0.593643	-0.642505	-0.482414
H70	H	0.577890	-0.724502	-0.468856
O71	O	0.423249	-0.642529	-0.482439
H72	H	0.359355	-0.631284	-0.474036
O73	O	0.423177	-0.364332	-0.274104
H74	H	0.465441	-0.317780	-0.239260
O75	O	1.238892	-0.364399	-0.667031
H76	H	1.225450	-0.282375	-0.682766
O77	O	0.593592	-0.364330	-0.274069
H78	H	0.551309	-0.317813	-0.239217
H79	H	0.686871	-0.381996	-0.287318
H80	H	1.223136	-1.107411	-0.289799
H81	H	1.093647	-1.070163	-0.419068
H82	H	1.043455	-0.624379	-1.079384
