data_functionalizedCrystal
_audit_creation_method	'MofGen! by Chris Wilmer'
_symmetry_space_group_name_H-M	'P1'
_symmetry_Int_Tables_number	1
_symmetry_cell_setting	triclinic
loop_
_symmetry_equiv_pos_as_xyz
  x,y,z
_cell_length_a	10.654550
_cell_length_b	10.489741
_cell_length_c	9.730223
_cell_angle_alpha	89.995878
_cell_angle_beta	89.999957
_cell_angle_gamma	84.512052
loop_
_atom_site_label
_atom_site_type_symbol
_atom_site_fract_x
_atom_site_fract_y
_atom_site_fract_z
O1	O	1.667923	0.179162	-0.114186
O2	O	1.302452	0.196231	-0.114212
O3	O	1.493504	0.002095	-0.114190
O4	O	1.476872	0.373298	-0.114208
O5	O	1.493491	0.002089	0.114390
O6	O	1.302440	0.196226	0.114368
O7	O	1.667911	0.179157	0.114393
Zn8	Zn	1.485173	0.187690	0.150673
Zn9	Zn	1.485190	0.187697	-0.150491
O10	O	1.476859	0.373293	0.114372
C11	C	1.255648	0.194975	0.000075
C12	C	1.116203	0.191225	0.000066
C13	C	1.036771	0.305530	0.000064
C14	C	0.905748	0.301999	0.000088
C15	C	0.933603	0.069849	0.000110
C16	C	1.064623	0.073381	0.000095
C17	C	1.492241	-0.045439	0.000099
C18	C	1.488483	-0.187067	0.000096
C19	C	1.366923	-0.255148	0.000078
C20	C	1.424341	-0.347301	0.112783
C21	C	1.424382	-0.347270	-0.112579
C22	C	1.545951	-0.277354	0.112895
C23	C	1.545975	-0.277314	-0.112568
C24	C	1.603481	-0.369439	0.000165
C25	C	1.714715	0.180413	0.000104
C26	C	1.854160	0.184162	0.000104
C27	C	1.478122	0.420827	0.000080
C28	C	1.481880	0.562454	0.000074
N29	N	1.485171	0.187685	0.356209
N30	N	1.485201	0.187693	-0.356027
C31	C	1.569798	0.101758	0.428145
C32	C	1.569811	0.101758	0.572028
C33	C	1.400566	0.273624	0.572027
C34	C	1.400548	0.273616	0.428147
H35	H	0.841079	0.395078	0.000090
C36	C	0.876851	-0.059773	0.000129
N37	N	0.834108	-0.157407	0.000139
C38	C	1.662897	0.007221	0.651150
N39	N	1.733009	-0.063993	0.710744
H40	H	1.129300	-0.019705	0.000100
C41	C	1.231905	-0.187995	0.000224
N42	N	1.130213	-0.137412	0.000342
H43	H	1.331629	0.343589	0.369573
C44	C	1.307483	0.368141	0.651172
N45	N	1.237370	0.439333	0.710782
C46	C	1.354847	-0.389173	0.241496
N47	N	1.302496	-0.420707	0.338437
H48	H	1.597336	-0.246549	0.208286
C49	C	1.738620	-0.436288	0.000262
N50	N	1.840405	-0.486642	0.000343
H51	H	1.597372	-0.246292	-0.207851
H52	H	1.372936	-0.378207	-0.207872
H53	H	1.078762	0.401486	0.000050
C54	C	1.662876	0.007220	0.349018
N55	N	1.732981	-0.063992	0.289424
