data_functionalizedCrystal
_audit_creation_method	'MofGen! by Chris Wilmer'
_symmetry_space_group_name_H-M	'P1'
_symmetry_Int_Tables_number	1
_symmetry_cell_setting	triclinic
loop_
_symmetry_equiv_pos_as_xyz
  x,y,z
_cell_length_a	6.817900
_cell_length_b	16.417823
_cell_length_c	16.417824
_cell_angle_alpha	95.404945
_cell_angle_beta	103.385545
_cell_angle_gamma	103.385419
loop_
_atom_site_label
_atom_site_type_symbol
_atom_site_fract_x
_atom_site_fract_y
_atom_site_fract_z
V1	V	-4.025027	-0.116568	-0.261445
O2	O	-4.013072	0.004899	-0.256170
O3	O	-3.976078	-0.230460	-0.259943
O4	O	-3.976089	-0.115084	-0.375339
O5	O	-4.013060	-0.111276	-0.139975
V6	V	-4.508796	-0.102003	-0.246881
O7	O	-4.285746	-0.148519	-0.293391
O8	O	-4.698275	-0.070053	-0.214935
O9	O	-4.334540	0.011888	-0.248382
O10	O	-4.638149	-0.223470	-0.252156
O11	O	-4.638161	-0.107296	-0.368350
O12	O	-4.334528	-0.103488	-0.132987
C13	C	-3.820962	-0.258214	-0.255893
C14	C	-3.862223	-0.351324	-0.255424
C15	C	-3.956184	-0.640885	-0.177216
C16	C	-3.917388	-0.553396	-0.177642
C17	C	-3.997013	-0.577699	-0.331119
C18	C	-4.035794	-0.665185	-0.330691
C19	C	-4.015387	-0.696776	-0.253737
C20	C	-3.937810	-0.521800	-0.254592
C21	C	-3.895746	-0.426941	-0.255055
C22	C	-4.057450	-0.791641	-0.253274
C23	C	-3.820976	-0.111040	-0.403090
C24	C	-3.862243	-0.110579	-0.496201
C25	C	-3.997038	-0.186240	-0.722575
C26	C	-4.035828	-0.185802	-0.810062
C27	C	-3.956160	-0.032324	-0.785739
C28	C	-3.917386	-0.032764	-0.698254
C29	C	-3.937817	-0.109724	-0.666674
C30	C	-4.015381	-0.108846	-0.841646
C31	C	-4.057438	-0.108371	-0.936504
C32	C	-3.895761	-0.110200	-0.571811
C33	C	-4.152997	0.039639	-0.252430
C34	C	-4.090975	0.132747	-0.252904
C35	C	-4.152984	-0.107535	-0.105231
C36	C	-4.090955	-0.107991	-0.012119
H37	H	-3.869178	-0.507892	-0.115331
H38	H	-3.939559	-0.666603	-0.114555
H39	H	-4.013625	-0.551966	-0.393772
O40	O	-4.019078	-0.269241	-0.688509
H41	H	-4.181767	-0.309083	-0.714319
H42	H	-3.939527	0.030334	-0.811462
O43	O	-4.099672	-0.725479	-0.413229
H44	H	-4.107384	-0.688817	-0.466812
O45	O	-4.099653	-0.268327	-0.870357
H46	H	-4.107314	-0.321911	-0.833695
H47	H	-3.869167	0.029548	-0.652737
