data_functionalizedCrystal
_audit_creation_method	'MofGen! by Chris Wilmer'
_symmetry_space_group_name_H-M	'P1'
_symmetry_Int_Tables_number	1
_symmetry_cell_setting	triclinic
loop_
_symmetry_equiv_pos_as_xyz
  x,y,z
_cell_length_a	18.627244
_cell_length_b	18.627297
_cell_length_c	18.627468
_cell_angle_alpha	90.003243
_cell_angle_beta	120.000794
_cell_angle_gamma	60.000462
loop_
_atom_site_label
_atom_site_type_symbol
_atom_site_fract_x
_atom_site_fract_y
_atom_site_fract_z
O1	O	0.633160	-0.611812	1.125669
O2	O	0.486170	-0.507432	0.874277
O3	O	0.633163	-0.507419	1.021272
O4	O	0.486167	-0.611825	0.978674
O5	O	0.513760	-0.388019	1.021272
O6	O	0.366768	-0.388032	0.874277
O7	O	0.513757	-0.492412	1.125669
Zn8	Zn	0.421305	-0.421265	0.999973
Zn9	Zn	0.578623	-0.578580	0.999973
O10	O	0.366765	-0.492425	0.978674
C11	C	0.355972	-0.386925	0.742985
C12	C	0.406369	-0.431229	0.837677
C13	C	0.398764	-0.430323	0.699377
C14	C	0.225975	-0.256924	0.613000
C15	C	0.137379	-0.162230	0.568711
C16	C	0.268965	-0.300519	0.569589
C17	C	0.355967	-0.386915	0.612983
C18	C	0.406360	-0.431209	0.568677
C19	C	0.268970	-0.300529	0.699393
C20	C	0.643959	-0.256916	1.030967
C21	C	0.593563	-0.162220	1.024871
C22	C	0.730965	-0.300517	1.031575
C23	C	0.643958	-0.386916	1.030967
C24	C	0.593562	-0.431217	1.024871
C25	C	0.730964	-0.430320	1.031575
C26	C	0.773959	-0.386916	1.030967
C27	C	0.862560	-0.431216	1.024871
C28	C	0.601162	-0.300518	1.031575
C29	C	0.225967	-0.612927	0.968979
C30	C	0.137367	-0.568626	0.975075
C31	C	0.268961	-0.699325	0.968372
C32	C	0.355968	-0.612927	0.968979
C33	C	0.406366	-0.568627	0.975075
C34	C	0.398764	-0.699326	0.968372
C35	C	0.355966	-0.742927	0.968979
C36	C	0.406362	-0.837623	0.975075
C37	C	0.268962	-0.569523	0.968372
O38	O	1.104362	-0.611824	0.978674
O39	O	0.895561	-0.507417	1.021273
O40	O	0.895567	-0.507431	0.874277
O41	O	1.104356	-0.611810	1.125669
O42	O	0.895570	-0.388031	0.874277
O43	O	0.895564	-0.388017	1.021272
O44	O	1.104365	-0.492424	0.978674
Zn45	Zn	0.999965	-0.421263	0.999973
Zn46	Zn	0.999961	-0.578578	0.999973
O47	O	1.104360	-0.492410	1.125669
O48	O	-0.104407	0.125756	0.507548
O49	O	0.104380	-0.125635	0.611916
O50	O	0.104389	0.021361	0.611937
O51	O	-0.104415	-0.021239	0.507527
O52	O	0.104384	0.021371	0.492534
O53	O	0.104376	-0.125625	0.492512
O54	O	-0.104411	0.125766	0.388145
Zn55	Zn	-0.000018	0.000072	0.421371
Zn56	Zn	-0.000012	0.000059	0.578690
O57	O	-0.104419	-0.021229	0.388124
O58	O	0.486162	0.125778	0.978674
O59	O	0.633163	-0.125617	1.021272
O60	O	0.486168	0.021370	0.874277
O61	O	0.633157	-0.021209	1.125669
O62	O	0.366767	0.021366	0.874277
O63	O	0.513763	-0.125620	1.021272
O64	O	0.366761	0.125774	0.978674
Zn65	Zn	0.421305	0.000076	0.999973
Zn66	Zn	0.578620	0.000081	0.999973
O67	O	0.513757	-0.021213	1.125669
O68	O	0.513749	-0.492390	0.388068
O69	O	0.366759	-0.388006	0.492480
O70	O	0.513758	-0.388000	0.492483
O71	O	0.366751	-0.492396	0.388064
O72	O	0.633156	-0.507403	0.611871
O73	O	0.486157	-0.507409	0.611868
O74	O	0.633147	-0.611792	0.507456
Zn75	Zn	0.578609	-0.578558	0.578617
Zn76	Zn	0.421297	-0.421240	0.421318
O77	O	0.486148	-0.611798	0.507453
C78	C	0.773948	-0.742894	1.386961
C79	C	0.862547	-0.837586	1.431260
C80	C	0.730952	-0.699290	1.430364
C81	C	0.643951	-0.612904	1.256964
C82	C	0.593558	-0.568611	1.162270
C83	C	0.601153	-0.569497	1.300565
C84	C	0.643947	-0.612895	1.386961
C85	C	0.593549	-0.568593	1.431261
C86	C	0.730956	-0.699298	1.300565
C87	C	0.643975	-0.256953	0.612984
C88	C	0.593581	-0.162260	0.568684
C89	C	0.601179	-0.300558	0.569582
C90	C	0.773970	-0.386941	0.742982
C91	C	0.862567	-0.431233	0.837676
C92	C	0.730976	-0.430349	0.699383
C93	C	0.643974	-0.386952	0.612986
C94	C	0.593578	-0.431256	0.568689
C95	C	0.730978	-0.300547	0.699380
C96	C	1.355955	-0.612898	1.386963
C97	C	1.406354	-0.568597	1.431263
C98	C	1.398747	-0.699292	1.430364
C99	C	1.225956	-0.612904	1.256964
C100	C	1.137360	-0.568610	1.162270
C101	C	1.268946	-0.699298	1.300563
C102	C	1.355948	-0.742895	1.386960
C103	C	1.406340	-0.837588	1.431257
C104	C	1.268952	-0.569499	1.300566
C105	C	0.355989	0.031067	0.613040
C106	C	0.406382	0.024977	0.568739
C107	C	0.398790	0.031670	0.699441
C108	C	0.225991	0.031061	0.613040
C109	C	0.137390	0.024964	0.568738
C110	C	0.268989	0.031664	0.699441
C111	C	0.355996	0.031057	0.743043
C112	C	0.406397	0.024955	0.837741
C113	C	0.268982	0.031674	0.569635
O114	O	0.366774	0.125728	0.388094
O115	O	0.513783	-0.125665	0.492483
O116	O	0.366785	0.021324	0.492493
O117	O	0.513772	-0.021261	0.388084
O118	O	0.486183	0.021334	0.611891
O119	O	0.633181	-0.125655	0.611881
O120	O	0.486173	0.125739	0.507492
Zn121	Zn	0.578634	0.000043	0.578643
Zn122	Zn	0.421322	0.000030	0.421332
O123	O	0.633170	-0.021251	0.507481
C124	C	-0.356028	-0.030925	0.257019
C125	C	-0.406429	-0.024823	0.162321
C126	C	-0.398821	-0.031538	0.300622
C127	C	-0.226022	-0.030929	0.387022
C128	C	-0.137421	-0.024833	0.431323
C129	C	-0.269013	-0.031542	0.430427
C130	C	-0.356019	-0.030935	0.387023
C131	C	-0.406412	-0.024845	0.431325
C132	C	-0.269021	-0.031532	0.300621
H133	H	0.232994	-0.265532	0.734408
H134	H	0.233001	0.032653	0.498646
C135	C	1.491969	-0.745944	1.525076
C136	C	1.469318	-0.770059	1.578070
C137	C	1.555159	-0.813023	1.665321
H138	H	1.546101	-0.797069	1.528554
H139	H	1.511422	-0.707593	1.544842
H140	H	1.449879	-0.808409	1.558309
H141	H	1.415200	-0.718950	1.574618
H142	H	1.574612	-0.774672	1.685087
H143	H	1.609285	-0.864145	1.668790
H144	H	1.539800	-0.829384	1.701289
H145	H	0.766935	-0.501304	1.032539
C146	C	1.221170	-0.474894	1.253944
C147	C	1.291708	-0.470200	1.249653
C148	C	1.247731	-0.383068	1.206719
H149	H	1.163105	-0.455092	1.196113
H150	H	1.201569	-0.438773	1.285575
H151	H	1.311294	-0.506308	1.218021
H152	H	1.349776	-0.489984	1.307472
H153	H	1.228130	-0.346947	1.238351
H154	H	1.189666	-0.363273	1.148891
H155	H	1.295587	-0.379870	1.203809
C156	C	0.220864	0.033139	0.746025
C157	C	0.121095	0.108766	0.699271
C158	C	0.076744	0.110159	0.742167
H159	H	0.220410	-0.017524	0.749043
H160	H	0.258906	0.033461	0.803822
H161	H	0.083063	0.108436	0.641489
H162	H	0.121521	0.159441	0.696250
H163	H	0.114786	0.110482	0.799965
H164	H	0.076297	0.059493	0.745183
H165	H	0.009050	0.161475	0.710456
H166	H	0.766946	-0.265509	1.032554
H167	H	0.468767	-0.501312	0.734375
C168	C	0.220844	-0.474813	0.966895
C169	C	0.121074	-0.421801	0.891269
C170	C	0.076733	-0.334554	0.889877
H171	H	0.220394	-0.471333	1.017559
H172	H	0.258890	-0.455063	0.966571
H173	H	0.083037	-0.441545	0.891601
H174	H	0.121495	-0.425255	0.840593
H175	H	0.114779	-0.314804	0.889553
H176	H	0.076289	-0.331083	0.940545
H177	H	0.009038	-0.298573	0.838562
H178	H	0.766935	-0.734294	1.501351
H179	H	0.232974	-0.265510	0.498602
C180	C	-0.220866	-0.033055	0.525149
C181	C	-0.121103	-0.108694	0.578127
C182	C	-0.076726	-0.110134	0.665390
H183	H	-0.220397	0.017599	0.528656
H184	H	-0.258901	-0.033392	0.544905
H185	H	-0.083078	-0.108349	0.558376
H186	H	-0.121543	-0.159361	0.574647
H187	H	-0.114761	-0.110471	0.685146
H188	H	-0.076263	-0.059476	0.668888
H189	H	-0.009036	-0.161458	0.701347
H190	H	0.531132	-0.265500	1.032525
C191	C	0.778880	-0.253850	0.746160
C192	C	0.779261	-0.249538	0.821380
C193	C	0.823366	-0.206519	0.864487
H194	H	0.846622	-0.285413	0.762694
H195	H	0.740781	-0.196018	0.707842
H196	H	0.817361	-0.307360	0.859690
H197	H	0.711532	-0.217969	0.804870
H198	H	0.785266	-0.148687	0.826169
H199	H	0.891105	-0.238086	0.881015
H200	H	0.823622	-0.203580	0.915523
C201	C	0.492020	0.033153	0.746099
C202	C	0.469389	0.108788	0.770235
C203	C	0.555240	0.110189	0.813205
H204	H	0.546151	-0.017504	0.797217
H205	H	0.511468	0.033469	0.707746
H206	H	0.449955	0.108464	0.808586
H207	H	0.415273	0.159458	0.719133
H208	H	0.574688	0.110505	0.774852
H209	H	0.609365	0.059529	0.864319
H210	H	0.539894	0.161511	0.829579
C211	C	1.220959	-0.745927	1.253751
C212	C	1.220549	-0.750233	1.178517
C213	C	1.176346	-0.793174	1.135375
H214	H	1.258985	-0.803754	1.292016
H215	H	1.153211	-0.714294	1.237238
H216	H	1.288285	-0.781867	1.195031
H217	H	1.182517	-0.692419	1.140231
H218	H	1.108598	-0.761541	1.118862
H219	H	1.214377	-0.850998	1.173647
H220	H	1.176054	-0.796094	1.084320
C221	C	0.491998	-0.745916	0.966895
C222	C	0.469390	-0.699166	0.891269
C223	C	0.555246	-0.742073	0.889877
H224	H	0.546137	-0.748939	1.017559
H225	H	0.511424	-0.803712	0.966571
H226	H	0.449978	-0.641387	0.891601
H227	H	0.415265	-0.696141	0.840592
H228	H	0.574672	-0.799868	0.889552
H229	H	0.609380	-0.745093	0.940544
H230	H	0.539916	-0.710364	0.838561
C231	C	0.778937	-0.746122	1.253937
C232	C	0.779338	-0.821353	1.249646
C233	C	0.823533	-0.864510	1.206705
H234	H	0.740909	-0.707864	1.196105
H235	H	0.846687	-0.762638	1.285564
H236	H	0.711600	-0.804835	1.218017
H237	H	0.817371	-0.859632	1.307464
H238	H	0.891282	-0.881026	1.238333
H239	H	0.785500	-0.826245	1.148877
H240	H	0.823819	-0.915563	1.203795
H241	H	0.766958	-0.501333	0.734394
C242	C	0.507927	-0.253841	0.474885
C243	C	0.530548	-0.229671	0.421892
C244	C	0.444670	-0.186629	0.334658
H245	H	0.488417	-0.292134	0.455052
H246	H	0.453836	-0.202730	0.471489
H247	H	0.584620	-0.280774	0.425284
H248	H	0.550045	-0.191367	0.441697
H249	H	0.390579	-0.135518	0.331263
H250	H	0.425167	-0.224928	0.314834
H251	H	0.460003	-0.170217	0.298693
H252	H	0.232962	-0.734321	0.967378
C253	C	0.507937	-0.474784	1.253926
C254	C	0.530583	-0.421793	1.229797
C255	C	0.444751	-0.334539	1.186853
H256	H	0.453788	-0.471296	1.202807
H257	H	0.488509	-0.455024	1.292293
H258	H	0.549997	-0.441547	1.191433
H259	H	0.584717	-0.425254	1.280900
H260	H	0.425323	-0.314778	1.225219
H261	H	0.390608	-0.331060	1.135737
H262	H	0.460107	-0.298572	1.170483
C263	C	-0.492331	-0.032608	0.253853
C264	C	-0.571848	0.042264	0.178672
C265	C	-0.658021	0.041338	0.135580
H266	H	-0.477373	-0.083791	0.237278
H267	H	-0.511817	-0.032826	0.292196
H268	H	-0.552365	0.042474	0.140337
H269	H	-0.586837	0.093459	0.195223
H270	H	-0.677507	0.041120	0.173923
H271	H	-0.643053	-0.009848	0.119011
H272	H	-0.711986	0.092141	0.084570
H273	H	-0.233090	-0.032435	0.265587
