data_functionalizedCrystal
_audit_creation_method	'MofGen! by Chris Wilmer'
_symmetry_space_group_name_H-M	'P1'
_symmetry_Int_Tables_number	1
_symmetry_cell_setting	triclinic
loop_
_symmetry_equiv_pos_as_xyz
  x,y,z
_cell_length_a	12.837943
_cell_length_b	10.654550
_cell_length_c	11.295483
_cell_angle_alpha	94.136004
_cell_angle_beta	85.461227
_cell_angle_gamma	89.656922
loop_
_atom_site_label
_atom_site_type_symbol
_atom_site_fract_x
_atom_site_fract_y
_atom_site_fract_z
O1	O	1.384729	0.319125	-0.098998
O2	O	1.082808	0.302983	-0.099005
O3	O	1.240710	0.129073	-0.098997
O4	O	1.226827	0.493035	-0.099006
O5	O	1.226841	0.144321	0.099053
O6	O	1.068938	0.318232	0.099045
O7	O	1.370860	0.334374	0.099052
Cu8	Cu	1.218633	0.327695	0.117132
Cu9	Cu	1.235034	0.309662	-0.117085
O10	O	1.212958	0.508284	0.099044
C11	C	1.037213	0.305155	0.000019
C12	C	0.922019	0.288892	0.000016
C13	C	0.682466	0.484398	0.000028
C14	C	0.574230	0.469123	0.000026
C15	C	0.597310	0.243071	0.000019
C16	C	0.705546	0.258345	0.000021
C17	C	0.748119	0.379012	0.000024
C18	C	0.856358	0.394285	0.000017
C19	C	0.879435	0.168234	0.000018
C20	C	0.771199	0.152960	0.000017
C21	C	1.232756	0.089788	0.000027
C22	C	1.229706	-0.049989	0.000022
C23	C	1.322676	-0.119329	0.000028
C24	C	1.319805	-0.250663	0.000020
C25	C	1.130985	-0.243306	0.000005
C26	C	1.133858	-0.111974	0.000005
C27	C	1.418525	-0.057343	0.000046
C28	C	1.511502	-0.126683	0.000053
C29	C	1.508631	-0.258018	0.000045
C30	C	1.412782	-0.320013	0.000029
C31	C	1.416454	0.332202	0.000025
C32	C	1.531648	0.348464	0.000020
C33	C	1.220912	0.547569	0.000018
C34	C	1.223962	0.687345	0.000014
N35	N	1.207104	0.340379	0.281868
N36	N	1.246571	0.296969	-0.281821
C37	C	1.329560	0.205592	0.531164
C38	C	1.320855	0.215188	0.655827
C39	C	1.180985	0.369157	0.655860
C40	C	1.189690	0.359562	0.531196
C41	C	1.263981	0.277778	0.468853
C42	C	1.272690	0.268191	0.344187
C43	C	1.132816	0.422153	0.344222
C44	C	1.124111	0.431748	0.468886
H45	H	0.736520	0.054717	0.000028
Cl46	Cl	1.631992	-0.048750	0.000057
H47	H	1.420873	0.049596	0.000056
H48	H	1.120493	0.435734	0.706636
Cl49	Cl	1.625515	-0.345186	0.000041
Cl50	Cl	0.961979	0.035741	-0.000006
Cl51	Cl	0.543769	0.091390	0.000032
H52	H	1.063622	0.498332	0.519660
Cl53	Cl	1.409172	-0.485117	0.000072
Cl54	Cl	0.735992	0.636087	0.000015
Cl55	Cl	0.909878	0.545978	0.000017
Cl56	Cl	0.491696	0.601614	0.000036
H57	H	1.052949	-0.293793	-0.000006
Cl58	Cl	1.366085	0.165381	0.265815
H59	H	1.058153	-0.055516	0.000001
Cl60	Cl	1.422962	0.102795	0.452787
Cl61	Cl	1.403299	0.124432	0.734157
H62	H	1.079420	0.480936	0.293475
