data_functionalizedCrystal
_audit_creation_method	'MofGen! by Chris Wilmer'
_symmetry_space_group_name_H-M	'P1'
_symmetry_Int_Tables_number	1
_symmetry_cell_setting	triclinic
loop_
_symmetry_equiv_pos_as_xyz
  x,y,z
_cell_length_a	14.519709
_cell_length_b	16.109301
_cell_length_c	15.186229
_cell_angle_alpha	90.005167
_cell_angle_beta	89.997743
_cell_angle_gamma	83.570813
loop_
_atom_site_label
_atom_site_type_symbol
_atom_site_fract_x
_atom_site_fract_y
_atom_site_fract_z
O1	O	-1.223634	-0.108984	-0.073117
O2	O	-0.890301	0.224349	0.260217
O3	O	-0.556967	0.557682	0.593550
O4	O	-0.955130	-0.121819	-0.073144
O5	O	-0.621796	0.211514	0.260189
O6	O	-0.288463	0.544848	0.593523
O7	O	-1.096758	0.005617	-0.073121
O8	O	-0.763425	0.338950	0.260213
O9	O	-0.430091	0.672283	0.593546
O10	O	-1.082006	-0.236420	-0.073140
O11	O	-0.748672	0.096913	0.260193
O12	O	-0.415339	0.430247	0.593527
O13	O	-1.096748	0.005618	0.073337
O14	O	-0.763415	0.338952	0.406670
O15	O	-0.430082	0.672285	0.740003
O16	O	-0.955120	-0.121817	0.073313
O17	O	-0.621787	0.211516	0.406647
O18	O	-0.288454	0.544850	0.739980
O19	O	-1.223625	-0.108983	0.073340
O20	O	-0.890291	0.224351	0.406674
O21	O	-0.556958	0.557684	0.740007
Zn22	Zn	-1.089371	-0.115400	0.096580
Zn23	Zn	-0.756038	0.217934	0.429913
Zn24	Zn	-0.422704	0.551267	0.763247
Zn25	Zn	-1.089383	-0.115402	-0.096384
Zn26	Zn	-0.756050	0.217931	0.236950
Zn27	Zn	-0.422717	0.551265	0.570283
O28	O	-1.081996	-0.236418	0.073317
O29	O	-0.748663	0.096915	0.406650
O30	O	-0.415330	0.430249	0.739984
C31	C	-0.920766	-0.121220	0.000081
C32	C	-0.587433	0.212114	0.333415
C33	C	-0.254100	0.545447	0.666748
C34	C	-0.818389	-0.119427	0.000071
C35	C	-0.485056	0.213906	0.333404
C36	C	-0.151722	0.547239	0.666738
C37	C	-1.096156	0.036593	0.000108
C38	C	-0.762822	0.369927	0.333442
C39	C	-0.429489	0.703260	0.666775
C40	C	-1.094364	0.128892	0.000109
C41	C	-0.761031	0.462225	0.333443
C42	C	-0.427697	0.795559	0.666776
C43	C	-1.257988	-0.109582	0.000113
C44	C	-0.924654	0.223752	0.333447
C45	C	-0.591321	0.557085	0.666780
C46	C	-1.360365	-0.111374	0.000118
C47	C	-1.027032	0.221959	0.333451
C48	C	-0.693699	0.555293	0.666784
C49	C	-0.443507	-0.112829	0.000112
C50	C	-0.110174	0.220505	0.333445
C51	C	0.223159	0.553838	0.666778
C52	C	-0.547811	-0.114661	0.000100
C53	C	-0.214478	0.218672	0.333433
C54	C	0.118855	0.552005	0.666767
C55	C	-0.630945	-0.116128	0.000091
C56	C	-0.297612	0.217205	0.333424
C57	C	0.035722	0.550539	0.666757
C58	C	-0.735256	-0.117961	0.000081
C59	C	-0.401922	0.215373	0.333414
C60	C	-0.068589	0.548706	0.666747
C61	C	-1.082599	-0.267395	0.000086
C62	C	-0.749265	0.065938	0.333419
C63	C	-0.415932	0.399272	0.666753
C64	C	-1.084390	-0.359693	0.000079
C65	C	-0.751057	-0.026360	0.333413
C66	C	-0.417724	0.306973	0.666746
N67	N	-1.089369	-0.115397	0.228273
N68	N	-0.756036	0.217936	0.561606
N69	N	-0.422702	0.551269	0.894939
C70	C	-1.174238	0.351026	0.000104
C71	C	-0.840904	0.684359	0.333437
C72	C	-0.507571	1.017693	0.666770
C73	C	-1.172547	0.437749	0.000096
C74	C	-0.839214	0.771083	0.333429
C75	C	-0.505880	1.104416	0.666763
C76	C	-1.004510	0.418166	0.000082
C77	C	-0.671177	0.751499	0.333416
C78	C	-0.337843	1.084832	0.666749
C79	C	-1.006202	0.331444	0.000084
C80	C	-0.672868	0.664778	0.333417
C81	C	-0.339535	0.998111	0.666750
C82	C	-1.091068	0.297877	0.000099
C83	C	-0.757735	0.631210	0.333432
C84	C	-0.424401	0.964543	0.666765
C85	C	-1.087686	0.471322	0.000090
C86	C	-0.754353	0.804655	0.333423
C87	C	-0.421019	1.137988	0.666757
C88	C	-1.085852	0.565351	0.000082
C89	C	-0.752519	0.898684	0.333415
C90	C	-0.419186	1.232018	0.666749
C91	C	-1.092902	0.203842	0.000105
C92	C	-0.759569	0.537175	0.333438
C93	C	-0.426236	0.870508	0.666772
N94	N	-1.089392	-0.115397	-0.228076
N95	N	-0.756059	0.217936	0.105257
N96	N	-0.422726	0.551269	0.438590
C97	C	-1.152103	-0.058988	0.454006
C98	C	-0.818770	0.274345	0.787339
C99	C	-0.485437	0.607679	1.120673
C100	C	-1.152106	-0.058986	0.546196
C101	C	-0.818773	0.274347	0.879529
C102	C	-0.485440	0.607681	1.212862
C103	C	-1.026651	-0.171810	0.546184
C104	C	-0.693318	0.161524	0.879517
C105	C	-0.359985	0.494857	1.212851
C106	C	-1.026645	-0.171807	0.453996
C107	C	-0.693312	0.161527	0.787329
C108	C	-0.359978	0.494860	1.120663
C109	C	-1.089376	-0.115397	0.407909
C110	C	-0.756043	0.217936	0.741243
C111	C	-0.422709	0.551270	1.074576
C112	C	-1.089386	-0.115398	0.592287
C113	C	-0.756052	0.217936	0.925620
C114	C	-0.422719	0.551269	1.258954
C115	C	-1.089388	-0.115396	0.692243
C116	C	-0.756055	0.217937	1.025576
C117	C	-0.422722	0.551271	1.358910
C118	C	-1.089372	-0.115397	0.307947
C119	C	-0.756039	0.217936	0.641280
C120	C	-0.422706	0.551269	0.974614
H121	H	-1.243341	0.323699	0.000114
H122	H	-0.910008	0.657032	0.333447
H123	H	-0.576675	0.990365	0.666781
H124	H	-0.938471	0.288168	0.000077
H125	H	-0.605137	0.621501	0.333410
H126	H	-0.271804	0.954834	0.666744
H127	H	-1.203183	-0.013052	0.583725
H128	H	-0.869850	0.320282	0.917058
H129	H	-0.536517	0.653615	1.250392
H130	H	-0.935415	0.445507	0.000072
H131	H	-0.602081	0.778841	0.333405
H132	H	-0.268748	1.112174	0.666739
H133	H	-1.203182	-0.013055	0.416484
H134	H	-0.869848	0.320279	0.749818
H135	H	-0.536515	0.653612	1.083151
O136	O	-0.959003	-0.232660	0.595890
O137	O	-0.625670	0.100674	0.929223
O138	O	-0.292336	0.434007	1.262557
H139	H	-0.969552	-0.223193	0.667739
H140	H	-0.636219	0.110140	1.001073
H141	H	-0.302886	0.443473	1.334406
H142	H	-0.975560	-0.217742	0.416462
H143	H	-0.642227	0.115591	0.749795
H144	H	-0.308894	0.448924	1.083128
O145	O	-1.262256	0.495070	0.000111
O146	O	-0.928922	0.828404	0.333444
O147	O	-0.595589	1.161737	0.666777
H148	H	-1.265518	0.535038	-0.059588
H149	H	-0.932185	0.868372	0.273746
H150	H	-0.598852	1.201705	0.607079
