data_functionalizedCrystal
_audit_creation_method	'MofGen! by Chris Wilmer'
_symmetry_space_group_name_H-M	'P1'
_symmetry_Int_Tables_number	1
_symmetry_cell_setting	triclinic
loop_
_symmetry_equiv_pos_as_xyz
  x,y,z
_cell_length_a	9.065215
_cell_length_b	10.540510
_cell_length_c	7.540329
_cell_angle_alpha	89.998880
_cell_angle_beta	89.997574
_cell_angle_gamma	84.764004
loop_
_atom_site_label
_atom_site_type_symbol
_atom_site_fract_x
_atom_site_fract_y
_atom_site_fract_z
O1	O	1.959448	0.186128	-0.147451
O2	O	1.530085	0.201401	-0.147458
O3	O	1.754585	0.009092	-0.147454
O4	O	1.734948	0.378437	-0.147455
O5	O	1.754571	0.009089	0.147511
O6	O	1.530071	0.201398	0.147507
O7	O	1.959435	0.186126	0.147514
Cu8	Cu	1.744752	0.193762	0.174443
Cu9	Cu	1.744768	0.193765	-0.174387
O10	O	1.734934	0.378435	0.147510
C11	C	1.475099	0.199933	0.000023
C12	C	1.311278	0.195546	0.000020
C13	C	1.753115	-0.038218	0.000025
C14	C	1.748737	-0.179185	0.000014
C15	C	1.904696	-0.396065	0.000693
C16	C	1.909366	-0.249452	0.000019
C17	C	1.666518	-0.224245	-0.168423
C18	C	1.662985	-0.371019	-0.168555
C19	C	1.659625	-0.370843	0.166876
C20	C	1.667243	-0.224474	0.169093
C21	C	2.014421	0.187594	0.000029
C22	C	2.178241	0.191980	0.000020
C23	C	1.736404	0.425745	0.000027
C24	C	1.740782	0.566711	0.000026
N25	N	1.744751	0.193759	0.419792
N26	N	1.744780	0.193758	-0.419736
H27	H	1.967270	-0.437790	0.121488
H28	H	1.974083	-0.220807	-0.120930
H29	H	1.727069	-0.195642	0.293701
H30	H	1.719185	-0.411026	-0.294462
O31	O	1.979076	-0.447830	-0.142408
C32	C	2.101361	-0.529636	-0.084601
H33	H	2.080610	-0.562797	0.056378
H34	H	2.205356	-0.476461	-0.087137
C35	C	2.147976	-0.605301	-0.381625
C36	C	2.122484	-0.646039	-0.208477
H37	H	2.161011	-0.677101	-0.458040
H38	H	2.065594	-0.550183	-0.420572
H39	H	2.234635	-0.560988	-0.383712
H40	H	2.035816	-0.690337	-0.206387
H41	H	2.204852	-0.701167	-0.169531
H42	H	1.542844	-0.394457	-0.176188
O43	O	1.525506	-0.168076	-0.175690
C44	C	1.498999	-0.087040	-0.028127
H45	H	1.608861	-0.057950	0.024571
H46	H	1.440936	-0.139260	0.080173
C47	C	1.265135	-0.003006	-0.149145
C48	C	1.400069	0.032732	-0.084429
H49	H	1.204105	0.070873	-0.183870
H50	H	1.282989	-0.057604	-0.248558
H51	H	1.216768	-0.046524	-0.058883
H52	H	1.448441	0.076235	-0.174696
H53	H	1.382220	0.087341	0.014968
O54	O	1.734440	-0.187028	-0.318022
C55	C	1.633358	-0.107098	-0.418963
H56	H	1.541974	-0.062368	-0.328789
H57	H	1.582572	-0.165522	-0.526435
C58	C	1.827230	-0.056225	-0.616612
C59	C	1.714997	-0.001278	-0.505856
H60	H	1.877588	0.009046	-0.670219
H61	H	1.895331	-0.110080	-0.548611
H62	H	1.784892	-0.104911	-0.706157
H63	H	1.757339	0.047393	-0.416301
H64	H	1.646905	0.052587	-0.573844
H65	H	1.539023	-0.393438	0.168008
H66	H	1.710665	-0.412837	0.294552
H67	H	1.549971	-0.175839	0.179262
H68	H	1.973698	-0.219872	0.120759
