data_functionalizedCrystal
_audit_creation_method	'MofGen! by Chris Wilmer'
_symmetry_space_group_name_H-M	'P1'
_symmetry_Int_Tables_number	1
_symmetry_cell_setting	triclinic
loop_
_symmetry_equiv_pos_as_xyz
  x,y,z
_cell_length_a	19.077236
_cell_length_b	16.959453
_cell_length_c	19.076919
_cell_angle_alpha	87.728832
_cell_angle_beta	90.112677
_cell_angle_gamma	92.312753
loop_
_atom_site_label
_atom_site_type_symbol
_atom_site_fract_x
_atom_site_fract_y
_atom_site_fract_z
Zn1	Zn	1.058311	-0.286927	0.440540
Zn2	Zn	1.062960	-0.413599	0.323032
Zn3	Zn	0.945527	-0.286513	0.318320
Zn4	Zn	0.940780	-0.424144	0.435771
O5	O	1.001895	-0.352796	0.379416
O6	O	1.157261	-0.299491	0.428921
O7	O	1.051314	-0.392154	0.224077
O8	O	0.960529	-0.175956	0.334557
O9	O	1.160677	-0.392556	0.342588
O10	O	1.043391	-0.176261	0.424351
O11	O	0.965037	-0.298785	0.220614
O12	O	0.846564	-0.309010	0.329932
O13	O	0.952439	-0.410529	0.534734
O14	O	0.843076	-0.410127	0.416222
O15	O	1.038789	-0.309716	0.538238
O16	O	1.046712	-0.525610	0.337964
O17	O	0.956947	-0.533357	0.420792
C18	C	0.819323	-0.360668	0.372049
C19	C	0.741218	-0.364056	0.368914
C20	C	0.702743	-0.317277	0.412458
C21	C	0.629355	-0.320456	0.409506
C22	C	0.594443	-0.370418	0.363013
C23	C	0.632923	-0.417199	0.319464
C24	C	0.706310	-0.414016	0.322413
C25	C	0.375150	-0.385123	0.349364
C26	C	0.301758	-0.388305	0.346420
C27	C	0.298196	-0.291560	0.436461
C28	C	0.371584	-0.288384	0.439409
C29	C	0.410058	-0.335162	0.395857
N30	N	0.519428	-0.373671	0.359996
N31	N	0.485071	-0.331905	0.398871
C32	C	1.001837	-0.558164	0.379388
C33	C	1.001876	-0.646019	0.379402
C34	C	1.045095	-1.017596	0.426259
C35	C	0.958886	-1.017389	0.332685
C36	C	0.958861	-0.934844	0.332668
C37	C	1.001952	-0.893670	0.379448
C38	C	1.045070	-0.935043	0.426245
C39	C	0.915739	-0.893466	0.285876
C40	C	0.915712	-0.810915	0.285858
C41	C	0.958807	-0.769740	0.332635
C42	C	1.001927	-0.811117	0.379433
C43	C	1.045019	-0.769944	0.426213
C44	C	1.088142	-0.811320	0.473009
C45	C	1.088165	-0.893868	0.473022
C46	C	0.958784	-0.687192	0.332622
C47	C	1.044993	-0.687391	0.426199
C48	C	1.185179	-0.344893	0.386812
C49	C	1.263284	-0.341526	0.389964
C50	C	0.994566	-0.361345	0.562695
C51	C	0.991443	-0.364988	0.640798
C52	C	1.001971	-0.146626	0.379460
C53	C	1.002004	-0.058769	0.379479
C54	C	1.009236	-0.344221	0.196851
C55	C	1.012495	-0.340350	0.118754
C56	C	1.034931	-0.314214	0.679316
C57	C	1.031987	-0.317635	0.752701
C58	C	0.985559	-0.371833	0.787567
C59	C	0.942067	-0.422609	0.749044
C60	C	0.945007	-0.419184	0.675660
C61	C	0.971942	-0.387701	1.006847
C62	C	0.969007	-0.391123	1.080236
C63	C	1.058927	-0.286147	1.083889
C64	C	1.061866	-0.282731	1.010503
C65	C	1.018371	-0.333504	0.971986
N66	N	0.982551	-0.375333	0.862579
N67	N	1.021376	-0.330000	0.896975
H68	H	0.273335	-0.428994	0.308559
H69	H	0.923670	-0.653508	0.294525
C70	C	0.417462	-0.436579	0.301461
H71	H	0.386157	-0.466795	0.273356
H72	H	0.447311	-0.403622	0.272041
H73	H	0.445017	-0.471080	0.329437
C74	C	1.106765	-0.230296	1.126255
H75	H	1.134839	-0.197531	1.094980
H76	H	1.078752	-0.198351	1.153805
H77	H	1.136228	-0.260553	1.156112
C78	C	1.079828	-0.261787	0.795069
H79	H	1.107906	-0.229026	0.763794
H80	H	1.051817	-0.229838	0.822617
H81	H	1.109287	-0.292047	0.824926
H82	H	1.123224	-0.777787	0.511100
H83	H	0.880599	-0.777232	0.247754
H84	H	0.400005	-0.247702	0.477271
C85	C	0.890995	-0.482228	0.787391
H86	H	0.865512	-0.511972	0.753938
H87	H	0.916716	-0.516846	0.817096
H88	H	0.859240	-0.454643	0.814787
H89	H	1.123274	-0.927563	0.511120
H90	H	0.604491	-0.457876	0.281605
C91	C	0.748631	-0.465479	0.274520
H92	H	0.717329	-0.495698	0.246413
H93	H	0.778484	-0.432525	0.245101
H94	H	0.776183	-0.499978	0.302502
C95	C	0.924106	-0.443553	0.964484
H96	H	0.932498	-0.433749	0.915785
H97	H	0.933889	-0.496779	0.976915
H98	H	0.876413	-0.434577	0.974607
H99	H	1.080086	-0.653873	0.464290
H100	H	0.931197	-0.435260	1.108622
H101	H	1.080207	-1.051287	0.464357
H102	H	0.909587	-0.460522	0.644298
H103	H	0.598032	-0.282365	0.444966
C104	C	0.741144	-0.262321	0.463601
H105	H	0.790361	-0.267128	0.459127
H106	H	0.729533	-0.209240	0.452920
H107	H	0.727234	-0.276701	0.510314
C108	C	0.255874	-0.240102	0.484357
H109	H	0.207168	-0.249146	0.475940
H110	H	0.266020	-0.253428	0.532035
H111	H	0.268319	-0.185976	0.474633
C112	C	0.911492	-1.062677	0.281230
H113	H	0.917685	-1.117765	0.287938
H114	H	0.863855	-1.051699	0.289561
H115	H	0.923707	-1.046515	0.234438
H116	H	0.880654	-0.926995	0.247793
H117	H	1.072740	-0.270082	0.650934
C118	C	1.112937	-0.223112	0.972155
H119	H	1.138413	-0.193359	1.005606
H120	H	1.144688	-0.250696	0.944760
H121	H	1.087215	-0.188491	0.942449
