data_functionalizedCrystal
_audit_creation_method	'MofGen! by Chris Wilmer'
_symmetry_space_group_name_H-M	'P1'
_symmetry_Int_Tables_number	1
_symmetry_cell_setting	triclinic
loop_
_symmetry_equiv_pos_as_xyz
  x,y,z
_cell_length_a	12.594516
_cell_length_b	18.101398
_cell_length_c	18.101389
_cell_angle_alpha	89.991407
_cell_angle_beta	90.012519
_cell_angle_gamma	89.989142
loop_
_atom_site_label
_atom_site_type_symbol
_atom_site_fract_x
_atom_site_fract_y
_atom_site_fract_z
Zn1	Zn	-0.424001	-1.132198	0.418558
Zn2	Zn	-0.601969	-1.132127	0.294729
Zn3	Zn	-0.423989	-1.008357	0.294753
Zn4	Zn	-0.601922	-1.008341	0.418552
O5	O	-0.512970	-1.070256	0.356648
O6	O	-0.447634	-1.235822	0.402125
O7	O	-0.578374	-1.115686	0.191100
O8	O	-0.275045	-1.024822	0.311189
O9	O	-0.578386	-1.235769	0.311148
O10	O	-0.275054	-1.115808	0.402148
O11	O	-0.447613	-1.024753	0.191117
O12	O	-0.447567	-0.904722	0.311183
O13	O	-0.578306	-1.024794	0.522186
O14	O	-0.578294	-0.904710	0.402137
O15	O	-0.447588	-1.115791	0.522190
O16	O	-0.750909	-1.115669	0.311142
O17	O	-0.750874	-1.024724	0.402114
C18	C	-0.512925	-0.877845	0.356662
C19	C	-0.512931	-0.795531	0.356686
C20	C	-0.512988	-0.496440	0.356661
C21	C	-0.595636	-0.527782	0.413604
C22	C	-0.595379	-0.613401	0.413836
C23	C	-0.512961	-0.644823	0.356674
C24	C	-0.400857	-0.613748	0.377994
C25	C	-0.401352	-0.528103	0.378401
C26	C	-0.541456	-0.527993	0.278260
C27	C	-0.543918	-0.613643	0.278677
C28	C	-0.512938	-0.728682	0.356679
C29	C	-0.513003	-0.412581	0.356657
C30	C	-0.789511	-1.070207	0.356641
C31	C	-0.907817	-1.070254	0.356663
C32	C	-0.977090	-1.020784	0.406108
C33	C	-1.047930	-1.002743	0.338535
C34	C	-1.047776	-1.088363	0.424247
C35	C	-0.977098	-1.052177	0.289054
C36	C	-0.976938	-1.137829	0.374812
C37	C	-1.047746	-1.119813	0.307193
C38	C	-0.235349	-1.070325	0.356672
C39	C	-0.117044	-1.070354	0.356682
C40	C	-0.512943	-1.070299	0.549810
C41	C	-0.512932	-1.070317	0.632124
C42	C	-0.513012	-0.263418	0.356639
C43	C	-0.513018	-0.345732	0.356649
C44	C	-0.512920	-1.070256	0.164238
C45	C	-0.512632	-1.070381	0.081924
C46	C	-0.512732	-1.070360	0.931216
C47	C	-0.594715	-1.012909	0.899887
C48	C	-0.595095	-1.013065	0.814269
C49	C	-0.512831	-1.070338	0.782833
C50	C	-0.543288	-1.148369	0.813919
C51	C	-0.543827	-1.148049	0.899564
C52	C	-0.400111	-1.050458	0.899637
C53	C	-0.400761	-1.048722	0.813987
C54	C	-0.512886	-1.070330	0.698973
C55	C	-0.512681	-1.070373	1.015075
H56	H	-0.337611	-0.634100	0.337812
H57	H	-0.377204	-0.508137	0.435715
C58	C	-1.089455	-0.926551	0.318211
C59	C	-1.053685	-0.874927	0.370151
C60	C	-1.091923	-0.804733	0.351464
H61	H	-1.064239	-0.913281	0.270571
H62	H	-1.164882	-0.927221	0.317956
H63	H	-0.978274	-0.874255	0.370399
H64	H	-1.078898	-0.888173	0.417795
H65	H	-1.167350	-0.805403	0.351208
H66	H	-1.066705	-0.791471	0.303823
H67	H	-1.067667	-0.769699	0.386705
H68	H	-0.945735	-1.194916	0.390179
H69	H	-0.946064	-0.978874	0.447861
H70	H	-0.376273	-0.635208	0.434684
H71	H	-0.485453	-1.192324	0.793557
H72	H	-0.678510	-0.634411	0.400475
C73	C	-0.653603	-1.170660	0.926110
C74	C	-0.677144	-1.241568	0.899922
C75	C	-0.778269	-1.262418	0.924346
H76	H	-0.655049	-1.170732	0.978576
H77	H	-0.704792	-1.136634	0.907962
H78	H	-0.625969	-1.275585	0.918074
H79	H	-0.675721	-1.241515	0.847459
H80	H	-0.829458	-1.228392	0.906198
H81	H	-0.779706	-1.262487	0.976812
H82	H	-0.794259	-1.310528	0.906576
H83	H	-1.078821	-1.103639	0.481394
H84	H	-0.576035	-0.955202	0.793251
H85	H	-0.486707	-1.192306	0.920289
C86	C	-1.088722	-1.175759	0.251445
C87	C	-1.051145	-1.246162	0.269990
C88	C	-1.088863	-1.297712	0.218646
H89	H	-1.164138	-1.175872	0.251999
H90	H	-1.064361	-1.162860	0.203478
H91	H	-1.075511	-1.259057	0.317945
H92	H	-0.975733	-1.246072	0.269431
H93	H	-1.064503	-1.284813	0.170680
H94	H	-1.164279	-1.297819	0.219205
H95	H	-1.063365	-1.345485	0.231218
C96	C	-0.935676	-1.031693	0.212893
C97	C	-0.824514	-1.031830	0.213785
C98	C	-0.786318	-1.012951	0.143645
H99	H	-0.960320	-1.066618	0.177686
H100	H	-0.960516	-0.983856	0.199922
H101	H	-0.799685	-1.079659	0.226747
H102	H	-0.799842	-0.996903	0.248978
H103	H	-0.811157	-0.965114	0.130674
H104	H	-0.810969	-1.047879	0.108443
H105	H	-0.710891	-1.013034	0.144242
C106	C	-0.706930	-0.500401	0.396111
C107	C	-0.778463	-0.529297	0.447779
C108	C	-0.880998	-0.504083	0.431687
H109	H	-0.708320	-0.447981	0.398316
H110	H	-0.726579	-0.516132	0.347941
H111	H	-0.758820	-0.513562	0.495936
H112	H	-0.777107	-0.581715	0.445582
H113	H	-0.900647	-0.519814	0.383517
H114	H	-0.882377	-0.451663	0.433892
H115	H	-0.929547	-0.523690	0.466736
C116	C	-0.569419	-0.935580	0.927453
C117	C	-0.479714	-0.938134	0.973083
C118	C	-0.456386	-0.866912	0.998503
H119	H	-0.555750	-0.904127	0.886537
H120	H	-0.628114	-0.916990	0.954675
H121	H	-0.421031	-0.956713	0.945863
H122	H	-0.493358	-0.969572	1.014011
H123	H	-0.515081	-0.848322	1.025724
H124	H	-0.442722	-0.835465	0.957582
H125	H	-0.395525	-0.868636	1.029471
H126	H	-0.488091	-0.635033	0.233972
H127	H	-0.677684	-1.025920	0.921415
H128	H	-0.621802	-0.506394	0.258884
C129	C	-0.706332	-1.030575	0.786808
C130	C	-0.706968	-1.030741	0.709460
C131	C	-0.809427	-1.046861	0.684137
H132	H	-0.727300	-1.077780	0.804485
H133	H	-0.754437	-0.994181	0.804413
H134	H	-0.658879	-1.067133	0.691862
H135	H	-0.686019	-0.983542	0.691763
H136	H	-0.857532	-1.010467	0.701742
H137	H	-0.830386	-1.094065	0.701819
H138	H	-0.809874	-1.046969	0.631655
H139	H	-0.577041	-0.506269	0.471359
H140	H	-0.624741	-1.165529	0.792478
H141	H	-0.337568	-0.507369	0.338827
H142	H	-0.377794	-0.991298	0.793669
C143	C	-0.654001	-0.640583	0.257265
C144	C	-0.721019	-0.579784	0.246609
C145	C	-0.822438	-0.604580	0.226897
H146	H	-0.649733	-0.668335	0.212831
H147	H	-0.681615	-0.670887	0.295568
H148	H	-0.693412	-0.549493	0.208309
H149	H	-0.725318	-0.552027	0.291034
H150	H	-0.850051	-0.634883	0.265199
H151	H	-0.818159	-0.632331	0.182464
H152	H	-0.867924	-0.563332	0.219670
H153	H	-0.372364	-0.994546	0.921236
H154	H	-0.336437	-1.087511	0.792587
C155	C	-0.461272	-0.501070	0.221578
C156	C	-0.487450	-0.529547	0.152008
C157	C	-0.413598	-0.504766	0.099785
H158	H	-0.462405	-0.448632	0.219754
H159	H	-0.392282	-0.517397	0.235165
H160	H	-0.556423	-0.513216	0.138425
H161	H	-0.486310	-0.581983	0.153809
H162	H	-0.344608	-0.521092	0.113371
H163	H	-0.414736	-0.452327	0.097967
H164	H	-0.431344	-0.524088	0.052577
H165	H	-0.339030	-1.092302	0.919897
H166	H	-0.576545	-0.633900	0.471926
