data_functionalizedCrystal
_audit_creation_method	'MofGen! by Chris Wilmer'
_symmetry_space_group_name_H-M	'P1'
_symmetry_Int_Tables_number	1
_symmetry_cell_setting	triclinic
loop_
_symmetry_equiv_pos_as_xyz
  x,y,z
_cell_length_a	12.645331
_cell_length_b	12.645330
_cell_length_c	19.805399
_cell_angle_alpha	90.021721
_cell_angle_beta	90.018819
_cell_angle_gamma	90.016671
loop_
_atom_site_label
_atom_site_type_symbol
_atom_site_fract_x
_atom_site_fract_y
_atom_site_fract_z
Zn1	Zn	1.620691	-0.422093	0.382734
Zn2	Zn	1.620584	-0.599371	0.269557
Zn3	Zn	1.443417	-0.422119	0.269560
Zn4	Zn	1.443387	-0.599312	0.382705
O5	O	1.532020	-0.510724	0.326139
O6	O	1.769024	-0.445623	0.367731
O7	O	1.597051	-0.575894	0.174841
O8	O	1.466990	-0.273768	0.284585
O9	O	1.768946	-0.575869	0.284581
O10	O	1.597232	-0.273749	0.367734
O11	O	1.466887	-0.445668	0.174843
O12	O	1.295066	-0.445610	0.284558
O13	O	1.466939	-0.575767	0.477426
O14	O	1.295044	-0.575793	0.367685
O15	O	1.597203	-0.445565	0.477446
O16	O	1.597022	-0.747710	0.284553
O17	O	1.466836	-0.747667	0.367683
C18	C	1.256590	-0.510698	0.326119
C19	C	1.138760	-0.510713	0.326127
C20	C	1.531943	-0.786153	0.326129
C21	C	1.532007	-0.903983	0.326148
C22	C	0.971175	-0.428439	0.274120
C23	C	1.093734	-0.428651	0.273891
C24	C	1.094242	-0.622385	0.306644
C25	C	0.971644	-0.621936	0.306289
C26	C	0.971603	-0.482378	0.397818
C27	C	1.094209	-0.479883	0.397420
C28	C	1.450444	-1.071564	0.378606
C29	C	1.450027	-0.949005	0.378437
C30	C	1.501769	-0.948571	0.254816
C31	C	1.501271	-1.071169	0.255134
C32	C	1.644306	-1.071076	0.344444
C33	C	1.643617	-0.948469	0.346003
C34	C	1.808525	-0.510750	0.326159
C35	C	1.926355	-0.510761	0.326167
C36	C	1.532079	-0.510657	0.502682
C37	C	1.532105	-0.510628	0.577914
C38	C	1.532127	-0.234218	0.326163
C39	C	1.532172	-0.116388	0.326174
C40	C	1.532022	-0.510714	0.150283
C41	C	1.532202	-0.510443	0.075051
C42	C	1.599935	-0.442829	0.613270
C43	C	1.599946	-0.442798	0.683958
C44	C	1.532131	-0.510573	0.719289
C45	C	1.464294	-0.578375	0.683928
C46	C	1.464278	-0.578400	0.613241
C47	C	1.464353	-0.578277	0.969002
C48	C	1.464376	-0.578249	1.039694
C49	C	1.600021	-0.442675	1.039719
C50	C	1.600006	-0.442699	0.969032
C51	C	1.532165	-0.510497	0.933677
C52	C	1.532152	-0.510528	0.857028
C53	C	1.532148	-0.510548	0.795936
H54	H	1.123834	-0.345842	0.286103
H55	H	1.409149	-0.633442	1.068458
Br56	Br	1.596168	-1.120603	0.187797
H57	H	0.941995	-0.685348	0.342545
Br58	Br	1.145292	-0.572534	0.465515
Br59	Br	1.142733	-0.342924	0.421917
Br60	Br	1.145340	-0.663199	0.220277
H61	H	1.559408	-0.919410	0.214682
H62	H	1.420653	-0.917957	0.239059
H63	H	0.942620	-0.542338	0.436598
Br64	Br	1.692092	-0.350659	1.087704
Br65	Br	1.312756	-1.123090	0.358708
Br66	Br	1.690284	-1.122492	0.429666
Br67	Br	1.681630	-0.899896	0.433502
Br68	Br	1.692049	-0.350722	0.921086
H69	H	1.409129	-0.633497	0.940224
H70	H	0.940705	-0.402369	0.415537
Br71	Br	1.372251	-0.670351	0.731877
H72	H	1.469188	-1.100981	0.431672
H73	H	1.707715	-0.917817	0.310595
Br74	Br	0.923902	-0.662052	0.218986
H75	H	1.409033	-0.633599	0.584455
Br76	Br	1.142832	-0.727352	0.367850
H77	H	1.468945	-0.918855	0.431330
H78	H	0.941709	-0.345380	0.286201
H79	H	0.940332	-0.446989	0.221336
Br80	Br	1.142552	-0.459908	0.185392
H81	H	1.419300	-1.099858	0.239657
Br82	Br	1.311467	-0.900264	0.358269
H83	H	1.705195	-1.100062	0.306255
H84	H	1.655161	-0.387642	0.584508
H85	H	1.655182	-0.387592	0.712742
