data_functionalizedCrystal
_audit_creation_method	'MofGen! by Chris Wilmer'
_symmetry_space_group_name_H-M	'P1'
_symmetry_Int_Tables_number	1
_symmetry_cell_setting	triclinic
loop_
_symmetry_equiv_pos_as_xyz
  x,y,z
_cell_length_a	15.995350
_cell_length_b	15.995350
_cell_length_c	15.072220
_cell_angle_alpha	89.997847
_cell_angle_beta	90.005547
_cell_angle_gamma	83.492375
loop_
_atom_site_label
_atom_site_type_symbol
_atom_site_fract_x
_atom_site_fract_y
_atom_site_fract_z
O1	O	-0.107917	-1.110988	0.073703
O2	O	-0.121244	-0.867213	0.073721
O3	O	0.007307	-0.995764	0.073710
O4	O	-0.236468	-0.982437	0.073713
O5	O	0.007291	-0.995748	-0.073855
O6	O	-0.121260	-0.867196	-0.073844
O7	O	-0.107933	-1.110972	-0.073862
Zn8	Zn	-0.114599	-0.989081	-0.097283
Zn9	Zn	-0.114578	-0.989103	0.097141
O10	O	-0.236484	-0.982420	-0.073852
C11	C	-0.120701	-0.836010	-0.000060
C12	C	-0.119049	-0.743060	-0.000053
C13	C	0.038494	-0.995205	-0.000070
C14	C	0.131444	-0.993553	-0.000065
C15	C	-0.108476	-1.142175	-0.000080
C16	C	-0.110127	-1.235125	-0.000081
C17	C	-0.267671	-0.982980	-0.000069
C18	C	-0.360621	-0.984631	-0.000069
C19	C	0.469192	-0.987621	-0.000068
C20	C	0.421758	-0.896069	0.000270
C21	C	0.325068	-0.897721	-0.000063
C22	C	0.301631	-0.990564	-0.000066
C23	C	0.342700	-1.035711	-0.084335
C24	C	0.439335	-1.033411	-0.084405
C25	C	0.439712	-1.035321	0.083404
C26	C	0.342767	-1.035299	0.084518
C27	C	0.206934	-0.992231	-0.000068
C28	C	0.563890	-0.985956	-0.000072
N29	N	-0.114613	-0.989073	-0.229971
C30	C	-0.113117	-0.405312	-0.000071
C31	C	-0.021565	-0.452746	-0.000401
C32	C	-0.023217	-0.549436	-0.000063
C33	C	-0.116060	-0.572873	-0.000063
C34	C	-0.161207	-0.531795	0.084201
C35	C	-0.158907	-0.435159	0.084266
C36	C	-0.160817	-0.434801	-0.083543
C37	C	-0.160795	-0.531747	-0.084651
C38	C	-0.117727	-0.667570	-0.000055
C39	C	-0.111452	-0.310614	-0.000073
C40	C	-0.114594	-0.989088	-0.410969
C41	C	-0.183354	-0.920292	-0.448632
C42	C	-0.183166	-0.920057	-0.551458
C43	C	-0.114576	-0.989103	-0.589173
C44	C	-0.027105	-0.970378	-0.551830
C45	C	-0.027519	-0.969875	-0.448972
C46	C	-0.132515	-1.076821	-0.448863
C47	C	-0.134490	-1.076241	-0.551728
C48	C	-0.114561	-0.989113	-0.689886
C49	C	-0.114603	-0.989076	-0.310255
N50	N	-0.114557	-0.989119	0.229830
H51	H	0.296652	-0.862232	0.060344
N52	N	0.465498	-0.997797	0.163533
N53	N	0.541907	-0.994317	0.178404
H54	H	0.560120	-0.967810	0.234992
H55	H	-0.127838	-0.559056	-0.146989
N56	N	-0.245728	-0.551027	-0.091030
N57	N	-0.274802	-0.595586	-0.033076
H58	H	-0.334789	-0.609203	-0.037574
N59	N	0.038669	-1.031582	-0.582458
N60	N	0.082567	-1.076119	-0.527931
H61	H	0.129021	-1.119345	-0.549562
H62	H	0.012271	-0.577858	-0.060467
H63	H	-0.171674	-0.854951	-0.576077
N64	N	-0.245494	-0.394955	-0.084249
N65	N	-0.270701	-0.345045	-0.023609
H66	H	-0.330502	-0.316900	-0.024100
N67	N	-0.215204	-1.094104	-0.582350
N68	N	-0.242992	-1.160933	-0.559895
H69	H	-0.299996	-1.173549	-0.581528
N70	N	0.446296	-0.850338	-0.075110
N71	N	0.480113	-0.784333	-0.064455
H72	H	0.497436	-0.752035	-0.117695
N73	N	-0.075768	-1.143453	-0.583935
N74	N	-0.069062	-1.156983	-0.665445
H75	H	-0.027582	-1.204450	-0.688191
H76	H	0.297196	-0.861980	-0.060568
H77	H	-0.011778	-0.905904	-0.424993
N78	N	0.479548	-1.120002	0.084096
N79	N	0.529444	-1.145212	0.023445
H80	H	0.557579	-1.205016	0.023924
H81	H	0.314311	-1.004340	-0.147042
N82	N	0.024302	-0.429549	-0.076254
N83	N	-0.009942	-0.377781	-0.130953
H84	H	0.022443	-0.361414	-0.184542
H85	H	0.315525	-1.002291	0.146857
N86	N	0.445031	-0.850162	0.076065
N87	N	0.478500	-0.783877	0.065996
H88	H	0.494945	-0.751454	0.119529
N89	N	-0.210854	-1.099506	-0.416353
N90	N	-0.235738	-1.167550	-0.439453
H91	H	-0.291068	-1.183564	-0.416493
N92	N	-0.264721	-0.933986	-0.583126
N93	N	-0.322177	-0.943947	-0.529262
H94	H	-0.379780	-0.953783	-0.551623
N95	N	-0.265183	-0.933983	-0.417613
N96	N	-0.273784	-0.994601	-0.367382
H97	H	-0.331578	-1.004272	-0.345468
H98	H	-0.129836	-0.560176	0.146912
N99	N	-0.117573	-0.412211	0.163279
N100	N	-0.043237	-0.441934	0.178235
H101	H	-0.014042	-0.425732	0.234039
N102	N	-0.243229	-0.394711	0.089062
N103	N	-0.303587	-0.437879	0.092357
H104	H	-0.363139	-0.409317	0.095748
N105	N	0.038687	-1.030260	-0.417655
N106	N	0.113321	-1.023160	-0.437951
H107	H	0.160105	-1.065766	-0.415812
H108	H	0.327405	-1.103004	0.089603
H109	H	0.471583	-1.100627	-0.088231
H110	H	-0.010979	-0.907148	-0.577608
N111	N	-0.169154	-0.839057	-0.416256
N112	N	-0.217284	-0.775512	-0.438666
H113	H	-0.207251	-0.718139	-0.415804
H114	H	0.014868	-0.433159	0.059694
N115	N	-0.246778	-0.549500	0.088133
N116	N	-0.296485	-0.525964	0.026728
H117	H	-0.356920	-0.538468	0.029503
N118	N	-0.069610	-1.141034	-0.418304
N119	N	-0.011801	-1.122382	-0.368832
H120	H	0.032630	-1.167726	-0.347246
H121	H	0.012525	-0.577301	0.060446
N122	N	-0.123291	-0.409025	-0.163672
N123	N	-0.119810	-0.332619	-0.178548
H124	H	-0.093301	-0.314413	-0.235136
N125	N	0.462278	-0.992093	-0.163427
N126	N	0.406947	-0.965151	-0.218140
H127	H	0.423146	-0.935968	-0.273951
H128	H	0.328574	-1.103919	-0.087471
