data_functionalizedCrystal
_audit_creation_method	'MofGen! by Chris Wilmer'
_symmetry_space_group_name_H-M	'P1'
_symmetry_Int_Tables_number	1
_symmetry_cell_setting	triclinic
loop_
_symmetry_equiv_pos_as_xyz
  x,y,z
_cell_length_a	12.594517
_cell_length_b	12.594516
_cell_length_c	13.897441
_cell_angle_alpha	90.026377
_cell_angle_beta	90.023088
_cell_angle_gamma	90.015485
loop_
_atom_site_label
_atom_site_type_symbol
_atom_site_fract_x
_atom_site_fract_y
_atom_site_fract_z
Zn1	Zn	1.627276	-0.423724	0.545470
Zn2	Zn	1.877276	-0.173724	0.795470
Zn3	Zn	2.127276	0.076276	1.045470
Zn4	Zn	2.377276	0.326276	1.295470
Zn5	Zn	1.627164	-0.601735	0.384183
Zn6	Zn	1.877164	-0.351735	0.634183
Zn7	Zn	2.127164	-0.101735	0.884183
Zn8	Zn	2.377164	0.148265	1.134183
Zn9	Zn	1.449277	-0.423769	0.384182
Zn10	Zn	1.699277	-0.173769	0.634182
Zn11	Zn	1.949277	0.076231	0.884182
Zn12	Zn	2.199277	0.326231	1.134182
Zn13	Zn	1.449262	-0.601659	0.545429
Zn14	Zn	1.699262	-0.351659	0.795429
Zn15	Zn	1.949262	-0.101659	1.045429
Zn16	Zn	2.199262	0.148341	1.295429
O17	O	1.538245	-0.512722	0.464816
O18	O	1.788245	-0.262722	0.714816
O19	O	2.038245	-0.012722	0.964816
O20	O	2.288245	0.237278	1.214816
O21	O	1.776207	-0.447351	0.524093
O22	O	2.026207	-0.197351	0.774093
O23	O	2.276207	0.052649	1.024093
O24	O	2.526207	0.302649	1.274093
O25	O	1.603527	-0.578178	0.249201
O26	O	1.853527	-0.328178	0.499201
O27	O	2.103527	-0.078178	0.749201
O28	O	2.353527	0.171822	0.999201
O29	O	1.472942	-0.274817	0.405593
O30	O	1.722942	-0.024817	0.655593
O31	O	1.972942	0.225183	0.905593
O32	O	2.222942	0.475183	1.155593
O33	O	1.776125	-0.578134	0.405596
O34	O	2.026125	-0.328134	0.655596
O35	O	2.276125	-0.078134	0.905596
O36	O	2.526125	0.171866	1.155596
O37	O	1.603717	-0.274784	0.524091
O38	O	1.853717	-0.024784	0.774091
O39	O	2.103717	0.225216	1.024091
O40	O	2.353717	0.475216	1.274091
O41	O	1.472834	-0.447427	0.249200
O42	O	1.722834	-0.197427	0.499200
O43	O	1.972834	0.052573	0.749200
O44	O	2.222834	0.302573	0.999200
O45	O	1.300330	-0.447354	0.405554
O46	O	1.550330	-0.197354	0.655554
O47	O	1.800330	0.052646	0.905554
O48	O	2.050330	0.302646	1.155554
O49	O	1.472917	-0.578005	0.680416
O50	O	1.722917	-0.328005	0.930416
O51	O	1.972917	-0.078005	1.180416
O52	O	2.222917	0.171995	1.430416
O53	O	1.300318	-0.578049	0.524022
O54	O	1.550318	-0.328049	0.774022
O55	O	1.800318	-0.078049	1.024022
O56	O	2.050318	0.171951	1.274022
O57	O	1.603703	-0.447277	0.680446
O58	O	1.853703	-0.197277	0.930446
O59	O	2.103703	0.052723	1.180446
O60	O	2.353703	0.302723	1.430446
O61	O	1.603512	-0.750671	0.405557
O62	O	1.853512	-0.500671	0.655557
O63	O	2.103512	-0.250671	0.905557
O64	O	2.353512	-0.000671	1.155557
O65	O	1.472808	-0.750615	0.524023
O66	O	1.722808	-0.500615	0.774023
O67	O	1.972808	-0.250615	1.024023
O68	O	2.222808	-0.000615	1.274023
C69	C	1.261704	-0.512699	0.464784
C70	C	1.511704	-0.262699	0.714784
C71	C	1.761704	-0.012699	0.964784
C72	C	2.011704	0.237301	1.214784
C73	C	1.143399	-0.512715	0.464793
C74	C	1.393399	-0.262715	0.714793
C75	C	1.643399	-0.012715	0.964793
C76	C	1.893399	0.237285	1.214793
C77	C	1.003357	-0.441551	0.400506
C78	C	1.253357	-0.191551	0.650506
C79	C	1.503357	0.058449	0.900506
C80	C	1.753357	0.308449	1.150506
C81	C	1.074217	-0.415618	0.488525
C82	C	1.324217	-0.165618	0.738525
C83	C	1.574217	0.084382	0.988525
C84	C	1.824217	0.334382	1.238525
C85	C	1.074110	-0.538600	0.376783
C86	C	1.324110	-0.288600	0.626783
C87	C	1.574110	-0.038600	0.876783
C88	C	1.824110	0.211400	1.126783
C89	C	1.003473	-0.486773	0.552929
C90	C	1.253473	-0.236773	0.802929
C91	C	1.503473	0.013227	1.052929
C92	C	1.753473	0.263227	1.302929
C93	C	1.003360	-0.609800	0.441128
C94	C	1.253360	-0.359800	0.691128
C95	C	1.503360	-0.109800	0.941128
C96	C	1.753360	0.140200	1.191128
C97	C	1.074188	-0.583904	0.529208
C98	C	1.324188	-0.333904	0.779208
C99	C	1.574188	-0.083904	1.029208
C100	C	1.824188	0.166096	1.279208
C101	C	1.538175	-0.789263	0.464807
C102	C	1.788175	-0.539263	0.714807
C103	C	2.038175	-0.289263	0.964807
C104	C	2.288175	-0.039263	1.214807
C105	C	1.538243	-0.907568	0.464835
C106	C	1.788243	-0.657568	0.714835
C107	C	2.038243	-0.407568	0.964835
C108	C	2.288243	-0.157568	1.214835
C109	C	1.467146	-0.976830	0.529224
C110	C	1.717146	-0.726830	0.779224
C111	C	1.967146	-0.476830	1.029224
C112	C	2.217146	-0.226830	1.279224
C113	C	1.441211	-1.047695	0.441206
C114	C	1.691211	-0.797695	0.691206
C115	C	1.941211	-0.547695	0.941206
C116	C	2.191211	-0.297695	1.191206
C117	C	1.564275	-1.047502	0.552868
C118	C	1.814275	-0.797502	0.802868
C119	C	2.064275	-0.547502	1.052868
C120	C	2.314275	-0.297502	1.302868
C121	C	1.512257	-0.976876	0.376770
C122	C	1.762257	-0.726876	0.626770
C123	C	2.012257	-0.476876	0.876770
C124	C	2.262257	-0.226876	1.126770
C125	C	1.635365	-0.976676	0.488492
C126	C	1.885365	-0.726676	0.738492
C127	C	2.135365	-0.476676	0.988492
C128	C	2.385365	-0.226676	1.238492
C129	C	1.609467	-1.047509	0.400413
C130	C	1.859467	-0.797509	0.650413
C131	C	2.109467	-0.547509	0.900413
C132	C	2.359467	-0.297509	1.150413
C133	C	1.815866	-0.512746	0.464849
C134	C	2.065866	-0.262746	0.714849
C135	C	2.315866	-0.012746	0.964849
C136	C	2.565866	0.237254	1.214849
C137	C	1.934171	-0.512756	0.464863
C138	C	2.184171	-0.262756	0.714863
C139	C	2.434171	-0.012756	0.964863
C140	C	2.684171	0.237244	1.214863
C141	C	1.538321	-0.512628	0.716409
C142	C	1.788321	-0.262628	0.966409
C143	C	2.038321	-0.012628	1.216409
C144	C	2.288321	0.237372	1.466409
C145	C	1.538353	-0.512588	0.823623
C146	C	1.788353	-0.262588	1.073623
C147	C	2.038353	-0.012588	1.323623
C148	C	2.288353	0.237412	1.573623
C149	C	1.538344	-0.235101	0.464847
C150	C	1.788344	0.014899	0.714847
C151	C	2.038344	0.264899	0.964847
C152	C	2.288344	0.514899	1.214847
C153	C	1.538386	-0.116796	0.464860
C154	C	1.788386	0.133204	0.714860
C155	C	2.038386	0.383204	0.964860
C156	C	2.288386	0.633204	1.214860
C157	C	1.538231	-0.512739	0.214202
C158	C	1.788231	-0.262739	0.464202
C159	C	2.038231	-0.012739	0.714202
C160	C	2.288231	0.237261	0.964202
C161	C	1.538405	-0.512479	0.106988
C162	C	1.788405	-0.262479	0.356988
C163	C	2.038405	-0.012479	0.606988
C164	C	2.288405	0.237521	0.856988
C165	C	1.538382	-0.512516	1.019919
C166	C	1.788382	-0.262516	1.269919
C167	C	2.038382	-0.012516	1.519919
C168	C	2.288382	0.237484	1.769919
C169	C	1.538362	-0.512559	0.910686
C170	C	1.788362	-0.262559	1.160686
C171	C	2.038362	-0.012559	1.410686
C172	C	2.288362	0.237441	1.660686
H173	H	1.406914	-0.945795	0.583596
H174	H	1.656914	-0.695795	0.833596
H175	H	1.906914	-0.445795	1.083596
H176	H	2.156914	-0.195795	1.333596
N177	N	1.483041	-0.935956	0.278142
N178	N	1.733041	-0.685956	0.528142
N179	N	1.983041	-0.435956	0.778142
N180	N	2.233041	-0.185956	1.028142
H181	H	1.409975	-0.962421	0.260138
H182	H	1.659975	-0.712421	0.510138
H183	H	1.909975	-0.462421	0.760138
H184	H	2.159975	-0.212421	1.010138
H185	H	1.536501	-0.962277	0.229525
H186	H	1.786501	-0.712277	0.479525
H187	H	2.036501	-0.462277	0.729525
H188	H	2.286501	-0.212277	0.979525
H189	H	0.972573	-0.464800	0.627410
H190	H	1.222573	-0.214800	0.877410
H191	H	1.472573	0.035200	1.127410
H192	H	1.722573	0.285200	1.377410
N193	N	1.332503	-1.089030	0.414711
N194	N	1.582503	-0.839030	0.664711
N195	N	1.832503	-0.589030	0.914711
N196	N	2.082503	-0.339030	1.164711
H197	H	1.337657	-1.133190	0.354212
H198	H	1.587657	-0.883190	0.604212
H199	H	1.837657	-0.633190	0.854212
H200	H	2.087657	-0.383190	1.104212
H201	H	1.282962	-1.027250	0.403337
H202	H	1.532962	-0.777250	0.653337
H203	H	1.782962	-0.527250	0.903337
H204	H	2.032962	-0.277250	1.153337
H205	H	0.972213	-0.691863	0.421051
H206	H	1.222213	-0.441863	0.671051
H207	H	1.472213	-0.191863	0.921051
H208	H	1.722213	0.058137	1.171051
N209	N	1.115120	-0.663643	0.601342
N210	N	1.365120	-0.413643	0.851342
N211	N	1.615120	-0.163643	1.101342
N212	N	1.865120	0.086357	1.351342
H213	H	1.160328	-0.626153	0.650868
H214	H	1.410328	-0.376153	0.900868
H215	H	1.660328	-0.126153	1.150868
H216	H	1.910328	0.123847	1.400868
H217	H	1.159194	-0.718914	0.567043
H218	H	1.409194	-0.468914	0.817043
H219	H	1.659194	-0.218914	1.067043
H220	H	1.909194	0.031086	1.317043
H221	H	1.105142	-0.560476	0.302324
H222	H	1.355142	-0.310476	0.552324
H223	H	1.605142	-0.060476	0.802324
H224	H	1.855142	0.189524	1.052324
N225	N	1.689196	-1.088363	0.328227
N226	N	1.939196	-0.838363	0.578227
N227	N	2.189196	-0.588363	0.828227
N228	N	2.439196	-0.338363	1.078227
H229	H	1.669452	-1.062533	0.261798
H230	H	1.919452	-0.812533	0.511798
H231	H	2.169452	-0.562533	0.761798
H232	H	2.419452	-0.312533	1.011798
H233	H	1.689224	-1.168547	0.329106
H234	H	1.939224	-0.918547	0.579106
H235	H	2.189224	-0.668547	0.829106
H236	H	2.439224	-0.418547	1.079106
N237	N	1.744049	-0.935325	0.515023
N238	N	1.994049	-0.685325	0.765023
N239	N	2.244049	-0.435325	1.015023
N240	N	2.494049	-0.185325	1.265023
H241	H	1.738625	-0.890020	0.574803
H242	H	1.988625	-0.640020	0.824803
H243	H	2.238625	-0.390020	1.074803
H244	H	2.488625	-0.140020	1.324803
H245	H	1.772988	-0.891259	0.460286
H246	H	2.022988	-0.641259	0.710286
H247	H	2.272988	-0.391259	0.960286
H248	H	2.522988	-0.141259	1.210286
N249	N	0.962159	-0.361763	0.328538
N250	N	1.212159	-0.111763	0.578538
N251	N	1.462159	0.138237	0.828538
N252	N	1.712159	0.388237	1.078538
H253	H	0.987938	-0.288461	0.346570
H254	H	1.237938	-0.038461	0.596570
H255	H	1.487938	0.211539	0.846570
H256	H	1.737938	0.461539	1.096570
H257	H	0.881977	-0.362910	0.328666
H258	H	1.131977	-0.112910	0.578666
H259	H	1.381977	0.137090	0.828666
H260	H	1.631977	0.387090	1.078666
N261	N	1.115446	-0.306891	0.515095
N262	N	1.365446	-0.056891	0.765095
N263	N	1.615446	0.193109	1.015095
N264	N	1.865446	0.443109	1.265095
H265	H	1.089686	-0.253167	0.466470
H266	H	1.339686	-0.003167	0.716470
H267	H	1.589686	0.246833	0.966470
H268	H	1.839686	0.496833	1.216470
H269	H	1.195628	-0.307953	0.515500
H270	H	1.445628	-0.057953	0.765500
H271	H	1.695628	0.192047	1.015500
H272	H	1.945628	0.442047	1.265500
H273	H	1.586235	-1.078526	0.627306
H274	H	1.836235	-0.828526	0.877306
H275	H	2.086235	-0.578526	1.127306
H276	H	2.336235	-0.328526	1.377306
