data_functionalizedCrystal
_audit_creation_method	'MofGen! by Chris Wilmer'
_symmetry_space_group_name_H-M	'P1'
_symmetry_Int_Tables_number	1
_symmetry_cell_setting	triclinic
loop_
_symmetry_equiv_pos_as_xyz
  x,y,z
_cell_length_a	17.019282
_cell_length_b	17.038272
_cell_length_c	16.098538
_cell_angle_alpha	92.929602
_cell_angle_beta	83.391989
_cell_angle_gamma	87.241387
loop_
_atom_site_label
_atom_site_type_symbol
_atom_site_fract_x
_atom_site_fract_y
_atom_site_fract_z
O1	O	1.053664	0.099226	-0.006337
O2	O	1.553664	0.599226	0.493663
O3	O	0.824065	0.112771	0.010137
O4	O	1.324065	0.612771	0.510137
O5	O	0.937500	-0.007811	0.001992
O6	O	1.437500	0.492189	0.501992
O7	O	0.940229	0.219808	0.001809
O8	O	1.440229	0.719808	0.501809
O9	O	0.944121	-0.014834	-0.136997
O10	O	1.444121	0.485166	0.363003
O11	O	0.830686	0.105748	-0.128851
O12	O	1.330686	0.605748	0.371149
O13	O	1.060285	0.092203	-0.145325
O14	O	1.560285	0.592203	0.354675
Zn15	Zn	0.946537	0.097860	-0.159155
Zn16	Zn	1.446537	0.597860	0.340845
Zn17	Zn	0.937813	0.107113	0.023968
Zn18	Zn	1.437813	0.607113	0.523968
O19	O	0.946850	0.212785	-0.137179
O20	O	1.446850	0.712785	0.362821
C21	C	0.797853	0.108886	-0.057239
C22	C	1.297853	0.608886	0.442761
C23	C	0.709885	0.107765	-0.050927
C24	C	1.209885	0.607765	0.449073
C25	C	0.672171	0.103408	-0.123726
C26	C	1.172171	0.603408	0.376274
C27	C	0.589517	0.102342	-0.117798
C28	C	1.089517	0.602342	0.382202
C29	C	0.544577	0.105639	-0.039070
C30	C	1.044577	0.605639	0.460930
C31	C	0.582297	0.109994	0.033735
C32	C	1.082297	0.609994	0.533735
C33	C	0.664950	0.111054	0.027806
C34	C	1.164950	0.611054	0.527806
C35	C	0.294837	0.102624	-0.017378
C36	C	0.794837	0.602624	0.482622
C37	C	0.212178	0.101566	-0.011454
C38	C	0.712178	0.601566	0.488546
C39	C	0.219404	0.093913	-0.162988
C40	C	0.719404	0.593913	0.337012
C41	C	0.302058	0.094978	-0.168910
C42	C	0.802058	0.594978	0.331090
C43	C	0.339771	0.099329	-0.096105
C44	C	0.839771	0.599329	0.403895
C45	C	0.460091	0.104552	-0.033008
C46	C	0.960091	0.604552	0.466992
C47	C	0.424256	0.100410	-0.102167
C48	C	0.924256	0.600410	0.397833
C49	C	0.938328	-0.040440	-0.067324
C50	C	1.438328	0.459560	0.432676
C51	C	0.930923	-0.127199	-0.066793
C52	C	1.430923	0.372801	0.433207
C53	C	0.998916	-0.177621	-0.071672
C54	C	1.498916	0.322379	0.428328
C55	C	0.991952	-0.259140	-0.071165
C56	C	1.491952	0.240860	0.428835
C57	C	0.916995	-0.290235	-0.065784
C58	C	1.416995	0.209765	0.434216
C59	C	0.848997	-0.239806	-0.060901
C60	C	1.348997	0.260194	0.439099
C61	C	0.855961	-0.158289	-0.061403
C62	C	1.355961	0.341711	0.438597
C63	C	0.892393	-0.535881	-0.064007
C64	C	1.392393	-0.035881	0.435993
C65	C	0.885434	-0.617405	-0.063508
C66	C	1.385434	-0.117405	0.436492
C67	C	1.028389	-0.636733	-0.073770
C68	C	1.528389	-0.136733	0.426230
C69	C	1.035347	-0.555214	-0.074276
C70	C	1.535347	-0.055214	0.425724
C71	C	0.967349	-0.504792	-0.069390
C72	C	1.467349	-0.004792	0.430610
C73	C	0.909876	-0.373560	-0.065267
C74	C	1.409876	0.126440	0.434733
C75	C	0.974469	-0.421468	-0.069900
C76	C	1.474469	0.078532	0.430100
C77	C	1.086496	0.096087	-0.077947
C78	C	1.586496	0.596087	0.422053
C79	C	1.174464	0.097209	-0.084254
C80	C	1.674464	0.597209	0.415746
C81	C	0.946021	0.245413	-0.067861
C82	C	1.446021	0.745413	0.432139
C83	C	0.953427	0.332173	-0.068388
C84	C	1.453427	0.832173	0.431612
N85	N	0.931860	0.113422	0.148944
N86	N	1.431860	0.613422	0.648944
N87	N	0.952496	0.091545	-0.284133
N88	N	1.452496	0.591545	0.215867
C89	C	0.980112	0.062339	0.189065
C90	C	1.480112	0.562339	0.689065
C91	C	0.975945	0.066751	0.276553
C92	C	1.475945	0.566751	0.776553
C93	C	0.923522	0.122243	0.323920
C94	C	1.423522	0.622243	0.823920
C95	C	0.875268	0.173332	0.283793
C96	C	1.375268	0.673332	0.783793
C97	C	0.879440	0.168923	0.196307
C98	C	1.379440	0.668923	0.696307
C99	C	0.908413	0.138224	0.588254
C100	C	1.408413	0.638224	1.088254
C101	C	0.904244	0.142628	0.675747
C102	C	1.404244	0.642628	1.175747
C103	C	1.004922	0.036048	0.668501
C104	C	1.504922	0.536048	1.168501
C105	C	1.009085	0.031641	0.581013
C106	C	1.509085	0.531641	1.081013
C107	C	0.960835	0.082732	0.540894
C108	C	1.460835	0.582732	1.040894
C109	C	0.919260	0.126753	0.413347
C110	C	1.419260	0.626753	0.913347
C111	C	0.965101	0.078226	0.451468
C112	C	1.465101	0.578226	0.951468
H113	H	0.188690	0.090369	-0.222261
H114	H	0.688690	0.590369	0.277739
H115	H	0.824393	-0.642719	-0.059139
H116	H	1.324393	-0.142719	0.440861
H117	H	0.695655	0.114603	0.087087
H118	H	1.195655	0.614603	0.587087
H119	H	1.044207	-0.005547	0.701173
H120	H	1.544207	0.494453	1.201173
H121	H	0.861552	0.187818	0.714310
H122	H	1.361552	0.687818	1.214310
H123	H	1.051772	-0.013545	0.542448
H124	H	1.551772	0.486455	1.042448
H125	H	0.558815	0.098781	-0.177079
H126	H	1.058815	0.598781	0.322921
H127	H	0.325533	0.106164	0.041905
H128	H	0.825533	0.606164	0.541905
H129	H	1.083749	-0.677795	-0.077747
H130	H	1.583749	-0.177795	0.422253
H131	H	0.869124	0.179823	0.555597
H132	H	1.369124	0.679823	1.055597
H133	H	0.876575	0.171934	0.451920
H134	H	1.376575	0.671934	0.951920
H135	H	0.423492	0.107236	0.031093
H136	H	0.923492	0.607236	0.531093
H137	H	1.022796	0.017149	0.150504
H138	H	1.522796	0.517149	0.650504
H139	H	1.035497	-0.396146	-0.074263
H140	H	1.535497	0.103854	0.425737
H141	H	0.338643	0.092290	-0.233019
H142	H	0.838643	0.592290	0.266981
H143	H	0.832587	0.218518	0.322364
H144	H	1.332587	0.718518	0.822364
H145	H	0.800594	-0.117235	-0.057429
H146	H	1.300594	0.382765	0.442571
H147	H	0.837023	-0.494837	-0.060028
H148	H	1.337023	0.005163	0.439972
H149	H	0.175590	0.104253	0.052659
H150	H	0.675590	0.604253	0.552659
H151	H	0.840149	0.210521	0.163642
H152	H	1.340149	0.710521	0.663642
H153	H	0.545701	0.112672	0.097837
H154	H	1.045701	0.612672	0.597837
H155	H	1.007787	0.033047	0.412899
H156	H	1.507787	0.533047	0.912899
H157	H	1.059954	-0.152311	-0.076059
H158	H	1.559954	0.347689	0.423941
H159	H	0.708755	0.100730	-0.187835
H160	H	1.208755	0.600730	0.312165
H161	H	0.460850	0.097722	-0.166268
H162	H	0.960850	0.597722	0.333732
H163	H	1.047319	-0.300191	-0.075140
H164	H	1.547319	0.199809	0.424860
H165	H	1.096385	-0.529903	-0.078658
H166	H	1.596385	-0.029903	0.421342
H167	H	0.787966	-0.265130	-0.056515
H168	H	1.287966	0.234870	0.443485
H169	H	0.848846	-0.398887	-0.060888
H170	H	1.348846	0.101113	0.439112
H171	H	1.015236	0.025156	0.309218
H172	H	1.515236	0.525156	0.809218
