data_functionalizedCrystal
_audit_creation_method	'MofGen! by Chris Wilmer'
_symmetry_space_group_name_H-M	'P1'
_symmetry_Int_Tables_number	1
_symmetry_cell_setting	triclinic
loop_
_symmetry_equiv_pos_as_xyz
  x,y,z
_cell_length_a	18.215405
_cell_length_b	12.759401
_cell_length_c	18.215399
_cell_angle_alpha	90.014501
_cell_angle_beta	89.967040
_cell_angle_gamma	89.976906
loop_
_atom_site_label
_atom_site_type_symbol
_atom_site_fract_x
_atom_site_fract_y
_atom_site_fract_z
Zn1	Zn	-0.293010	-1.606129	-0.416057
Zn2	Zn	-0.416086	-1.606008	-0.292985
Zn3	Zn	-0.293034	-1.430446	-0.293009
Zn4	Zn	-0.416035	-1.430388	-0.416015
O5	O	-0.354541	-1.518243	-0.354517
O6	O	-0.309347	-1.753134	-0.399739
O7	O	-0.399794	-1.582692	-0.190004
O8	O	-0.190046	-1.453826	-0.309360
O9	O	-0.399771	-1.753045	-0.309318
O10	O	-0.190029	-1.582900	-0.399762
O11	O	-0.309389	-1.453708	-0.190022
O12	O	-0.309339	-1.283418	-0.309319
O13	O	-0.399684	-1.453727	-0.519005
O14	O	-0.399708	-1.283375	-0.399691
O15	O	-0.309298	-1.582843	-0.519036
O16	O	-0.519063	-1.582636	-0.309278
O17	O	-0.519026	-1.453610	-0.399667
C18	C	-0.354521	-1.245276	-0.354503
C19	C	-0.354530	-1.128499	-0.354515
C20	C	-0.307530	-1.073684	-0.401669
C21	C	-0.307535	-0.963960	-0.401672
C22	C	-0.401546	-0.963875	-0.307366
C23	C	-0.401537	-1.073597	-0.307360
C24	C	-0.545747	-1.518132	-0.354481
C25	C	-0.627546	-1.518181	-0.354491
C26	C	-0.815735	-1.585522	-0.307511
C27	C	-0.892594	-1.585569	-0.307529
C28	C	-0.892595	-1.451098	-0.401575
C29	C	-0.815738	-1.451057	-0.401560
C30	C	-0.777310	-1.518268	-0.354524
C31	C	-0.931026	-1.518356	-0.354557
C32	C	-1.014359	-1.518406	-0.354576
C33	C	-0.693971	-1.518219	-0.354505
C34	C	-0.162588	-1.518383	-0.354568
C35	C	-0.080789	-1.518443	-0.354590
C36	C	-0.354482	-1.518292	-0.546470
C37	C	-0.354457	-1.518314	-0.628268
C38	C	-0.354555	-0.792276	-0.354528
C39	C	-0.354544	-0.909053	-0.354525
C40	C	-0.307351	-1.451208	-0.816473
C41	C	-0.307336	-1.451227	-0.893331
C42	C	-0.401476	-1.585544	-0.893302
C43	C	-0.401494	-1.585520	-0.816445
C44	C	-0.354427	-1.518354	-0.778032
C45	C	-0.354394	-1.518396	-0.931748
C46	C	-0.354379	-1.518417	-1.015082
C47	C	-0.354444	-1.518332	-0.694693
C48	C	-0.354547	-1.518254	-0.163310
C49	C	-0.354364	-1.518436	-0.081512
H50	H	-0.439817	-0.919161	-0.268975
O51	O	-0.261798	-1.126854	-0.447494
C52	C	-0.168583	-1.115352	-0.541064
C53	C	-0.220328	-1.055011	-0.489192
H54	H	-0.135053	-1.057293	-0.574801
H55	H	-0.130006	-1.166694	-0.507381
H56	H	-0.202428	-1.166752	-0.579449
H57	H	-0.186543	-1.003554	-0.450797
H58	H	-0.258907	-1.003736	-0.522920
O59	O	-0.930024	-1.650784	-0.261864
C60	C	-1.016905	-1.665167	-0.162571
C61	C	-0.974561	-1.591168	-0.214227
H62	H	-1.052912	-1.616997	-0.124034
H63	H	-1.052857	-1.720035	-0.196418
H64	H	-0.976247	-1.713261	-0.128987
H65	H	-1.015166	-1.543007	-0.247823
H66	H	-0.938598	-1.536370	-0.180339
O67	O	-0.930039	-1.385839	-0.447188
C68	C	-1.048442	-1.326343	-0.488918
C69	C	-1.006131	-1.400288	-0.437213
H70	H	-1.109969	-1.338015	-0.480882
H71	H	-1.033439	-1.241609	-0.475934
H72	H	-1.033233	-1.344714	-0.548261
H73	H	-1.021317	-1.382012	-0.377852
H74	H	-1.021137	-1.485000	-0.450260
H75	H	-0.269003	-1.396549	-0.924626
H76	H	-0.269261	-0.919335	-0.440069
H77	H	-0.784449	-1.396290	-0.439847
H78	H	-0.269027	-1.396517	-0.785199
H79	H	-0.439811	-1.118229	-0.268957
H80	H	-0.439795	-1.640230	-0.924587
O81	O	-0.447249	-1.650849	-0.779213
C82	C	-0.540654	-1.784029	-0.787288
C83	C	-0.488862	-1.710126	-0.829544
H84	H	-0.574322	-1.831958	-0.827962
H85	H	-0.506913	-1.839045	-0.751336
H86	H	-0.579107	-1.735734	-0.751272
H87	H	-0.450398	-1.758336	-0.865600
H88	H	-0.522648	-1.655107	-0.865450
H89	H	-0.784449	-1.640251	-0.269213
