data_functionalizedCrystal
_audit_creation_method	'MofGen! by Chris Wilmer'
_symmetry_space_group_name_H-M	'P1'
_symmetry_Int_Tables_number	1
_symmetry_cell_setting	triclinic
loop_
_symmetry_equiv_pos_as_xyz
  x,y,z
_cell_length_a	16.992694
_cell_length_b	15.944551
_cell_length_c	16.053802
_cell_angle_alpha	92.564789
_cell_angle_beta	87.249047
_cell_angle_gamma	87.083481
loop_
_atom_site_label
_atom_site_type_symbol
_atom_site_fract_x
_atom_site_fract_y
_atom_site_fract_z
O1	O	1.043704	0.174798	-0.069327
O2	O	0.815419	0.172843	-0.069352
O3	O	0.935795	0.051964	-0.069332
O4	O	0.923328	0.295677	-0.069348
O5	O	0.929169	0.058588	0.069526
O6	O	0.808793	0.179467	0.069506
O7	O	1.037078	0.181422	0.069530
Zn8	Zn	0.921884	0.181497	0.091565
Zn9	Zn	0.930613	0.172769	-0.091386
O10	O	0.916702	0.302301	0.069510
C11	C	0.782894	0.173641	0.000074
C12	C	0.695850	0.166141	0.000065
C13	C	0.645613	0.238506	0.000061
C14	C	0.563826	0.231454	0.000073
C15	C	0.532276	0.152037	0.000083
C16	C	0.582519	0.079667	0.000089
C17	C	0.664305	0.086719	0.000083
C18	C	0.288676	0.122807	0.000107
C19	C	0.206884	0.115759	0.000111
C20	C	0.188196	0.267548	0.000095
C21	C	0.269984	0.274593	0.000084
C22	C	0.320220	0.202223	0.000095
N23	N	0.448677	0.144827	0.000092
N24	N	0.403818	0.209434	0.000092
C25	C	0.931964	0.023948	0.000097
C26	C	0.930413	-0.069402	0.000098
C27	C	0.852090	-0.289513	0.000078
C28	C	0.885194	-0.344825	0.068547
C29	C	0.927606	-0.240317	0.000091
C30	C	0.891744	-0.351338	-0.068356
C31	C	0.924889	-0.405412	0.000081
C32	C	0.960728	-0.294396	0.068617
C33	C	0.967271	-0.300907	-0.068348
C34	C	1.000429	-0.356196	0.000138
C35	C	0.929169	-0.145209	0.000098
C36	C	0.923332	-0.500518	0.000080
C37	C	1.069603	0.180624	0.000103
C38	C	1.156648	0.188124	0.000106
C39	C	0.920533	0.330318	0.000079
C40	C	0.922085	0.423667	0.000073
N41	N	0.915931	0.187453	0.216424
N42	N	0.936572	0.166806	-0.216246
C43	C	0.967170	0.136040	0.260127
C44	C	0.963014	0.140215	0.347533
C45	C	0.907622	0.195808	0.391235
C46	C	0.856378	0.247223	0.347526
C47	C	0.860531	0.243043	0.260121
C48	C	0.889481	0.214042	0.652641
C49	C	0.885333	0.218220	0.740052
C50	C	0.991968	0.111209	0.740053
C51	C	0.996120	0.107038	0.652646
C52	C	0.944873	0.158450	0.608945
N53	N	0.903374	0.200078	0.480578
N54	N	0.949118	0.154175	0.519604
H55	H	0.295666	0.339262	0.000066
H56	H	0.862556	-0.376319	-0.126245
C57	C	0.465448	0.001458	0.000098
C58	C	0.547842	-0.007631	0.000099
H59	H	0.444043	-0.052439	0.000096
H60	H	0.445905	0.033789	0.048516
H61	H	0.450517	0.029176	-0.048330
H62	H	0.562773	-0.035344	0.048530
H63	H	0.567393	-0.039975	-0.048324
C64	C	0.430156	0.288042	0.000070
C65	C	0.508605	0.310999	0.000058
H66	H	0.396067	0.337153	0.000064
H67	H	0.422900	0.253392	-0.048342
H68	H	0.418296	0.258023	0.048504
H69	H	0.520467	0.341013	-0.048380
H70	H	0.515864	0.345663	0.048474
C71	C	0.770526	0.003192	-0.071296
C72	C	0.719532	0.007176	0.000085
H73	H	0.804623	-0.045914	-0.071288
H74	H	0.740536	0.001279	-0.119709
H75	H	0.801013	0.051505	-0.071293
H76	H	0.689041	-0.041134	0.000079
H77	H	0.749525	0.009082	0.048510
H78	H	0.789404	-0.260406	0.000139
C79	C	0.054526	0.324138	0.000105
C80	C	0.132975	0.347093	0.000094
H81	H	0.020436	0.373250	0.000112
H82	H	0.047268	0.289498	-0.048313
H83	H	0.042668	0.294108	0.048533
H84	H	0.144835	0.377118	-0.048337
H85	H	0.140237	0.381747	0.048517
H86	H	0.850491	-0.364314	0.126426
H87	H	0.989876	-0.269501	0.126566
H88	H	1.063164	-0.385145	0.000184
C89	C	0.977838	-0.303257	-0.218116
C90	C	1.014079	-0.274558	-0.146483
H91	H	1.006730	-0.286983	-0.266357
H92	H	0.976794	-0.362791	-0.218955
H93	H	0.925414	-0.279447	-0.217621
H94	H	1.066502	-0.298373	-0.146975
H95	H	1.015132	-0.215012	-0.145644
H96	H	0.847755	0.255905	0.617067
H97	H	0.811273	0.292485	0.383113
H98	H	0.329568	0.063878	0.000117
C99	C	1.097780	0.005008	0.731273
C100	C	1.048287	0.054688	0.788090
H101	H	1.132550	-0.029886	0.760930
H102	H	1.066759	-0.029039	0.697191
H103	H	1.127607	0.040261	0.697173
H104	H	1.018456	0.019435	0.822186
H105	H	1.079312	0.088738	0.822186
C106	C	0.233567	-0.033576	0.000134
C107	C	0.172204	0.028457	0.000123
H108	H	0.212155	-0.087468	0.000145
H109	H	0.267383	-0.029983	-0.048285
H110	H	0.262772	-0.025352	0.048561
H111	H	0.143003	0.020238	-0.048306
H112	H	0.138374	0.024862	0.048548
C113	C	1.072150	0.030679	0.268916
C114	C	1.028058	0.074927	0.212094
H115	H	1.109735	-0.007055	0.239262
H116	H	1.098734	0.069184	0.302994
H117	H	1.037882	-0.000112	0.303019
H118	H	1.062325	0.105724	0.177995
H119	H	1.001473	0.036417	0.178002
H120	H	1.004736	0.098349	0.383115
H121	H	0.840224	0.263494	0.775630
C122	C	1.049283	0.052498	0.518666
C123	C	1.056627	0.045498	0.604612
H124	H	1.086531	0.014382	0.489014
H125	H	0.997474	0.039560	0.504580
H126	H	1.058878	0.108297	0.504116
H127	H	1.047026	-0.010300	0.619164
H128	H	1.108448	0.058430	0.618704
C129	C	0.618917	0.387831	0.000055
C130	C	0.680288	0.325805	0.000051
H131	H	0.640323	0.441727	0.000057
H132	H	0.589712	0.379615	-0.048362
H133	H	0.585103	0.384225	0.048484
H134	H	0.714099	0.329407	-0.048381
H135	H	0.709506	0.334025	0.048474
C136	C	0.754718	0.349245	0.268894
C137	C	0.804212	0.299563	0.212080
H138	H	0.719950	0.384140	0.239234
H139	H	0.724896	0.314001	0.302994
H140	H	0.785744	0.383300	0.302976
H141	H	0.773185	0.265503	0.178002
H142	H	0.834036	0.334811	0.177966
