data_functionalizedCrystal
_audit_creation_method	'MofGen! by Chris Wilmer'
_symmetry_space_group_name_H-M	'P1'
_symmetry_Int_Tables_number	1
_symmetry_cell_setting	triclinic
loop_
_symmetry_equiv_pos_as_xyz
  x,y,z
_cell_length_a	17.038272
_cell_length_b	16.098538
_cell_length_c	17.038272
_cell_angle_alpha	92.920305
_cell_angle_beta	91.111556
_cell_angle_gamma	87.069734
loop_
_atom_site_label
_atom_site_type_symbol
_atom_site_fract_x
_atom_site_fract_y
_atom_site_fract_z
O1	O	1.052033	-0.069152	0.167266
O2	O	1.552033	0.430848	0.667266
O3	O	0.824222	-0.069177	0.164557
O4	O	1.324222	0.430823	0.664557
O5	O	0.936773	-0.069158	0.052006
O6	O	1.436773	0.430842	0.552006
O7	O	0.939482	-0.069171	0.279817
O8	O	1.439482	0.430829	0.779817
O9	O	0.930197	0.069354	0.058553
O10	O	1.430197	0.569354	0.558553
O11	O	0.817646	0.069335	0.171104
O12	O	1.317646	0.569335	0.671104
O13	O	1.045456	0.069359	0.173813
O14	O	1.545456	0.569359	0.673813
Zn15	Zn	0.930507	0.091339	0.173498
Zn16	Zn	1.430507	0.591339	0.673498
Zn17	Zn	0.939172	-0.091156	0.164872
Zn18	Zn	1.439172	0.408844	0.664872
O19	O	0.932905	0.069341	0.286364
O20	O	1.432905	0.569341	0.786364
C21	C	0.791641	0.000076	0.165367
C22	C	1.291641	0.500076	0.665367
C23	C	0.704358	0.000067	0.158019
C24	C	1.204358	0.500067	0.658019
N25	N	0.924599	0.215887	0.179385
N26	N	1.424599	0.715887	0.679385
N27	N	0.945085	-0.215705	0.158979
N28	N	1.445085	0.284295	0.658979
C29	C	0.658749	0.000064	0.225482
C30	C	1.158749	0.500064	0.725482
C31	C	0.576737	0.000075	0.218574
C32	C	1.076737	0.500075	0.718574
C33	C	0.540335	0.000085	0.144201
C34	C	1.040335	0.500085	0.644201
C35	C	0.585950	0.000090	0.076733
C36	C	1.085950	0.500090	0.576733
C37	C	0.667961	0.000084	0.083642
C38	C	1.167961	0.500084	0.583642
C39	C	0.292946	0.000108	0.119792
C40	C	0.792946	0.500108	0.619792
C41	C	0.210929	0.000112	0.112887
C42	C	0.710929	0.500112	0.612887
C43	C	0.201722	0.000098	0.254729
C44	C	0.701722	0.500098	0.754729
C45	C	0.283734	0.000088	0.261632
C46	C	0.783734	0.500088	0.761632
C47	C	0.329342	0.000098	0.194164
C48	C	0.829342	0.500098	0.694164
C49	C	0.456505	0.000094	0.137138
C50	C	0.956505	0.500094	0.637138
C51	C	0.413170	0.000094	0.201228
C52	C	0.913170	0.500094	0.701228
C53	C	1.078037	0.000105	0.173002
C54	C	1.578037	0.500105	0.673002
C55	C	1.165320	0.000108	0.180351
C56	C	1.665320	0.500108	0.680351
C57	C	0.931022	0.000097	0.025987
C58	C	1.431022	0.500097	0.525987
C59	C	0.923674	0.000096	-0.061297
C60	C	1.423674	0.500096	0.438703
C61	C	0.972390	0.259480	0.131633
C62	C	1.472390	0.759480	0.631633
C63	C	0.968265	0.346668	0.135759
C64	C	1.468265	0.846668	0.635759
C65	C	0.916352	0.390262	0.187642
C66	C	1.416352	0.890262	0.687642
C67	C	0.868556	0.346663	0.235395
C68	C	1.368556	0.846663	0.735395
C69	C	0.872678	0.259476	0.231265
C70	C	1.372678	0.759476	0.731265
C71	C	0.901410	0.653510	0.202602
C72	C	1.401410	1.153510	0.702602
C73	C	0.897294	0.740702	0.206731
C74	C	1.397294	1.240702	0.706731
C75	C	0.997003	0.740702	0.107093
C76	C	1.497003	1.240702	0.607093
C77	C	1.001123	0.653513	0.102971
C78	C	1.501123	1.153513	0.602971
C79	C	0.953324	0.609922	0.150721
C80	C	1.453324	1.109922	0.650721
C81	C	0.912136	0.479383	0.191862
C82	C	1.412136	0.979383	0.691862
C83	C	0.957536	0.520803	0.146496
C84	C	1.457536	1.020803	0.646496
C85	C	0.991137	0.000104	-0.106906
C86	C	1.491137	0.500104	0.393094
C87	C	0.984229	0.000096	-0.188918
C88	C	1.484229	0.500096	0.311082
C89	C	0.909856	0.000085	-0.225320
C90	C	1.409856	0.500085	0.274680
C91	C	0.842388	0.000074	-0.179705
C92	C	1.342388	0.500074	0.320295
C93	C	0.849297	0.000077	-0.097694
C94	C	1.349297	0.500077	0.402306
C95	C	0.885446	0.000071	-0.472708
C96	C	1.385446	0.500071	0.027292
C97	C	0.878541	0.000071	-0.554725
C98	C	1.378541	0.500071	-0.054725
C99	C	1.020383	0.000091	-0.563932
C100	C	1.520383	0.500091	-0.063932
C101	C	1.027286	0.000098	-0.481920
C102	C	1.527286	0.500098	0.018080
C103	C	0.959818	0.000083	-0.436312
C104	C	1.459818	0.500083	0.063688
C105	C	0.902792	0.000079	-0.309149
C106	C	1.402792	0.500079	0.190851
C107	C	0.966882	0.000084	-0.352485
C108	C	1.466882	0.500084	0.147515
C109	C	0.938656	0.000083	0.312383
C110	C	1.438656	0.500083	0.812383
C111	C	0.946005	0.000079	0.399666
C112	C	1.446005	0.500079	0.899666
H113	H	0.539605	0.000072	0.273510
H114	H	1.039605	0.500072	0.773510
H115	H	0.705095	0.000086	0.028706
H116	H	1.205095	0.500086	0.528706
H117	H	1.075312	0.000101	-0.601075
H118	H	1.575312	0.500101	-0.101075
H119	H	0.442811	0.000091	0.261782
H120	H	0.942811	0.500091	0.761782
H121	H	0.688381	0.000056	0.286045
H122	H	1.188381	0.500056	0.786045
H123	H	1.014666	0.223992	0.089389
H124	H	1.514666	0.723992	0.589389
O125	O	0.171669	0.000132	0.032665
O126	O	0.671669	0.500132	0.532665
H127	H	0.106980	0.000127	0.039198
H128	H	0.606980	0.500127	0.539198
O129	O	0.417243	0.000104	0.056922
O130	O	0.917243	0.500104	0.556922
H131	H	0.382772	-0.056349	0.047713
H132	H	0.882772	0.443651	0.547713
O133	O	1.048556	0.787717	0.055593
O134	O	1.548556	1.287717	0.555593
H135	H	1.035277	0.770989	-0.007092
H136	H	1.535277	1.270989	0.492908
O137	O	0.798322	0.000050	-0.593992
O138	O	1.298322	0.500050	-0.093992
H139	H	0.752568	0.000030	-0.548502
H140	H	1.252568	0.500030	-0.048502
O141	O	0.812566	0.393676	0.291360
O142	O	1.312566	0.893676	0.791360
H143	H	0.817735	0.461626	0.286218
H144	H	1.317735	0.961626	0.786218
H145	H	0.999800	0.485307	0.104250
H146	H	1.499800	0.985307	0.604250
H147	H	0.862492	0.618024	0.241484
H148	H	1.362492	1.118024	0.741484
H149	H	1.039165	0.000104	-0.226050
H150	H	1.539165	0.500104	0.273950
O151	O	0.812680	0.000076	-0.423520
O152	O	1.312680	0.500076	0.076480
H153	H	0.759805	0.000083	-0.462613
H154	H	1.259805	0.500083	0.037387
O155	O	0.856149	0.526404	0.247824
O156	O	1.356149	1.026404	0.747824
H157	H	0.871016	0.509656	0.308924
H158	H	1.371016	1.009656	0.808924
H159	H	0.842238	0.000072	-0.338796
H160	H	1.342238	0.500072	0.161204
O161	O	1.107507	0.000092	-0.442668
O162	O	1.607507	0.500092	0.057332
H163	H	1.137516	0.056543	-0.457958
H164	H	1.637516	0.556543	0.042042
H165	H	1.051699	0.000118	-0.077274
H166	H	1.551699	0.500118	0.422726
H167	H	0.855019	0.776192	0.248983
H168	H	1.355019	1.276192	0.748983
O169	O	0.821136	0.212451	0.282771
O170	O	1.321136	0.712451	0.782771
H171	H	0.784351	0.257410	0.319549
H172	H	1.284351	0.757410	0.819549
H173	H	0.781832	0.000060	-0.209350
H174	H	1.281832	0.500060	0.290650
O175	O	0.776534	0.000077	-0.048495
O176	O	1.276534	0.500077	0.451505
H177	H	0.723656	0.000079	-0.087583
H178	H	1.223656	0.500079	0.412417
O179	O	1.047099	0.000092	-0.313231
O180	O	1.547099	0.500092	0.186769
H181	H	1.050956	0.056551	-0.273426
H182	H	1.550956	0.556551	0.226574
H183	H	0.164579	0.000092	0.309658
H184	H	0.664579	0.500092	0.809658
O185	O	0.322986	0.000097	0.341854
O186	O	0.822986	0.500097	0.841854
H187	H	0.307703	-0.056352	0.371874
H188	H	0.807703	0.443648	0.871874
O189	O	0.342130	0.000121	0.047024
O190	O	0.842130	0.500121	0.547024
H191	H	0.331275	-0.056333	0.009022
H192	H	0.831275	0.443667	0.509022
O193	O	0.546695	0.000103	-0.003487
O194	O	1.046695	0.500103	0.496513
H195	H	0.482005	0.000099	0.003041
H196	H	0.982005	0.500099	0.503041
O197	O	1.019825	0.393690	0.084271
O198	O	1.519825	0.893690	0.584271
H199	H	1.056628	0.348729	0.047513
H200	H	1.556628	0.848729	0.547513
O201	O	1.057107	0.606494	0.047005
O202	O	1.557107	1.106494	0.547005
H203	H	1.089641	0.651455	0.014486
H204	H	1.589641	1.151455	0.514486
