data_functionalizedCrystal
_audit_creation_method	'MofGen! by Chris Wilmer'
_symmetry_space_group_name_H-M	'P1'
_symmetry_Int_Tables_number	1
_symmetry_cell_setting	triclinic
loop_
_symmetry_equiv_pos_as_xyz
  x,y,z
_cell_length_a	25.639242
_cell_length_b	18.050589
_cell_length_c	18.050582
_cell_angle_alpha	90.018205
_cell_angle_beta	89.976321
_cell_angle_gamma	89.976251
loop_
_atom_site_label
_atom_site_type_symbol
_atom_site_fract_x
_atom_site_fract_y
_atom_site_fract_z
Zn1	Zn	0.799271	0.295795	-0.420109
Zn2	Zn	1.299271	0.795795	0.079891
Zn3	Zn	0.799208	0.419978	-0.295928
Zn4	Zn	1.299208	0.919978	0.204072
Zn5	Zn	0.711845	0.295797	-0.295914
Zn6	Zn	1.211845	0.795797	0.204086
Zn7	Zn	0.711808	0.419938	-0.420058
Zn8	Zn	1.211808	0.919938	0.079942
O9	O	0.755533	0.357877	-0.358002
O10	O	1.255533	0.857877	0.141998
O11	O	0.872428	0.312284	-0.403663
O12	O	1.372428	0.812284	0.096337
O13	O	0.787608	0.403523	-0.192001
O14	O	1.287608	0.903523	0.307999
O15	O	0.723484	0.191872	-0.312404
O16	O	1.223484	0.691872	0.187596
O17	O	0.872382	0.403521	-0.312428
O18	O	1.372382	0.903521	0.187572
O19	O	0.787715	0.191871	-0.403649
O20	O	1.287715	0.691871	0.096351
O21	O	0.723423	0.312288	-0.191991
O22	O	1.223423	0.812288	0.308009
O23	O	0.638675	0.312249	-0.312354
O24	O	1.138675	0.812249	0.187646
O25	O	0.723421	0.403453	-0.523989
O26	O	1.223421	0.903453	-0.023989
O27	O	0.638648	0.403455	-0.403562
O28	O	1.138648	0.903455	0.096438
O29	O	0.787680	0.312245	-0.524026
O30	O	1.287680	0.812245	-0.024026
O31	O	0.787573	0.523898	-0.312379
O32	O	1.287573	1.023898	0.187621
O33	O	0.723360	0.523868	-0.403576
O34	O	1.223360	1.023868	0.096424
C35	C	0.755470	0.550829	-0.357990
C36	C	1.255470	1.050829	0.142010
C37	C	0.755491	0.633375	-0.358009
C38	C	1.255491	1.133375	0.141991
C39	C	0.619690	0.357848	-0.357952
C40	C	1.119690	0.857848	0.142048
C41	C	0.561576	0.357853	-0.357948
C42	C	1.061576	0.857853	0.142052
C43	C	0.755554	0.357844	-0.551708
C44	C	1.255554	0.857844	-0.051708
C45	C	0.755562	0.357830	-0.634253
C46	C	1.255562	0.857830	-0.134253
C47	C	0.201208	0.405448	-0.405449
C48	C	0.701208	0.905448	0.094551
C49	C	0.146604	0.405452	-0.405461
C50	C	0.646604	0.905452	0.094539
O51	O	0.118363	0.445882	-0.445805
O52	O	0.618363	0.945882	0.054195
N53	N	0.119294	0.357898	-0.358050
N54	N	0.619294	0.857898	0.141950
C55	C	0.146591	0.310330	-0.310631
C56	C	0.646591	0.810330	0.189369
O57	O	0.118348	0.269882	-0.270306
O58	O	0.618348	0.769882	0.229694
C59	C	0.201194	0.310323	-0.310623
C60	C	0.701194	0.810323	0.189377
C61	C	0.228502	0.357885	-0.358031
C62	C	0.728502	0.857885	0.141969
C63	C	0.228515	0.453006	-0.452854
C64	C	0.728515	0.953006	0.047146
C65	C	0.283116	0.453002	-0.452841
C66	C	0.783116	0.953002	0.047159
C67	C	0.310409	0.405440	-0.405423
C68	C	0.810409	0.905440	0.094577
C69	C	0.283102	0.357882	-0.358018
C70	C	0.783102	0.857882	0.141982
C71	C	0.228491	0.262752	-0.263208
C72	C	0.728491	0.762752	0.236792
C73	C	0.283098	0.262748	-0.263205
C74	C	0.783098	0.762748	0.236795
C75	C	0.310405	0.310311	-0.310613
C76	C	0.810405	0.810311	0.189387
C77	C	0.364996	0.310316	-0.310588
C78	C	0.864996	0.810316	0.189412
N79	N	0.392306	0.357870	-0.357998
N80	N	0.892306	0.857870	0.142002
C81	C	0.365013	0.405432	-0.405416
C82	C	0.865013	0.905432	0.094584
C83	C	0.031920	0.310349	-0.310651
C84	C	0.531920	0.810349	0.189349
C85	C	-0.022682	0.310360	-0.310654
C86	C	0.477318	0.810360	0.189346
C87	C	-0.022665	0.405481	-0.405485
C88	C	0.477335	0.905481	0.094515
C89	C	0.031938	0.405473	-0.405478
C90	C	0.531938	0.905473	0.094522
C91	C	0.059230	0.357904	-0.358061
C92	C	0.559230	0.857904	0.141939
C93	C	0.479678	0.405421	-0.405385
C94	C	0.979678	0.905421	0.094615
C95	C	0.534283	0.405415	-0.405365
C96	C	1.034283	0.905415	0.094635
C97	C	0.534262	0.310292	-0.310537
C98	C	1.034262	0.810292	0.189463
C99	C	0.479661	0.310300	-0.310553
C100	C	0.979661	0.810300	0.189447
C101	C	0.452370	0.357867	-0.357983
C102	C	0.952370	0.857867	0.142017
O103	O	0.393272	0.269904	-0.270266
O104	O	0.893272	0.769904	0.229734
O105	O	0.393263	0.445867	-0.445740
O106	O	0.893263	0.945867	0.054260
C107	C	0.891906	0.357907	-0.358053
C108	C	1.391906	0.857907	0.141947
C109	C	0.950020	0.357920	-0.358075
C110	C	1.450020	0.857920	0.141925
C111	C	0.755611	0.164172	-0.358031
C112	C	1.255611	0.664172	0.141969
C113	C	0.755644	0.081626	-0.358043
C114	C	1.255644	0.581626	0.141957
C115	C	0.720606	0.832837	-0.407585
C116	C	1.220606	1.332837	0.092415
C117	C	0.707865	0.882269	-0.339815
C118	C	1.207865	1.382269	0.160185
C119	C	0.755542	0.784506	-0.358019
C120	C	1.255542	1.284506	0.141981
C121	C	0.768309	0.882155	-0.425797
C122	C	1.268309	1.382155	0.074203
C123	C	0.755591	0.930491	-0.358034
C124	C	1.255591	1.430491	0.141966
C125	C	0.742776	0.832851	-0.290213
C126	C	1.242776	1.332851	0.209787
C127	C	0.803242	0.832732	-0.376240
C128	C	1.303242	1.332732	0.123760
C129	C	0.790519	0.882142	-0.308424
C130	C	1.290519	1.382142	0.191576
C131	C	0.755513	0.700407	-0.358011
C132	C	1.255513	1.200407	0.141989
C133	C	0.755620	1.014587	-0.358034
C134	C	1.255620	1.514587	0.141966
C135	C	0.720645	0.407361	-0.833684
C136	C	1.220645	0.907361	-0.333684
C137	C	0.768346	0.425520	-0.883087
C138	C	1.268346	0.925520	-0.383087
C139	C	0.755588	0.357774	-0.785384
C140	C	1.255588	0.857774	-0.285384
C141	C	0.707913	0.339594	-0.883063
C142	C	1.207913	0.839594	-0.383063
C143	C	0.755609	0.357720	-0.931369
C144	C	1.255609	0.857720	-0.431369
C145	C	0.803314	0.375968	-0.833700
C146	C	1.303314	0.875968	-0.333700
C147	C	0.742849	0.290011	-0.833671
C148	C	1.242849	0.790011	-0.333671
C149	C	0.790583	0.308144	-0.883052
C150	C	1.290583	0.808144	-0.383052
C151	C	0.755575	0.357806	-0.701286
C152	C	1.255575	0.857806	-0.201286
C153	C	0.755627	0.357688	-1.015466
C154	C	1.255627	0.857688	-0.515466
C155	C	0.755543	0.357856	-0.165050
C156	C	1.255543	0.857856	0.334950
C157	C	0.755635	0.357661	-0.082504
C158	C	1.255635	0.857661	0.417496
H159	H	0.457464	0.444153	-0.444008
H160	H	0.957464	0.944153	0.055992
H161	H	0.305316	0.224006	-0.224596
H162	H	0.805316	0.724006	0.275404
H163	H	0.054139	0.271613	-0.272033
H164	H	0.554139	0.771613	0.227967
O165	O	0.825782	0.907940	-0.258427
O166	O	1.325782	1.407940	0.241573
C167	C	0.825711	0.986044	-0.259395
C168	C	1.325711	1.486044	0.240605
H169	H	0.810142	1.006369	-0.314939
H170	H	1.310142	1.506369	0.185061
H171	H	0.799753	1.007664	-0.212867
H172	H	1.299753	1.507664	0.287133
C173	C	0.900849	0.989738	-0.180055
C174	C	1.400849	1.489738	0.319945
C175	C	0.881731	1.014701	-0.248277
C176	C	1.381731	1.514701	0.251723
H177	H	0.935405	1.007416	-0.173193
H178	H	1.435405	1.507416	0.326807
H179	H	0.900896	0.937118	-0.179400
H180	H	1.400896	1.437118	0.320600
H181	H	0.879213	1.007757	-0.141289
H182	H	1.379213	1.507757	0.358711
H183	H	0.903363	0.996675	-0.287042
H184	H	1.403363	1.496675	0.212958
H185	H	0.881689	1.067319	-0.248938
H186	H	1.381689	1.567319	0.251062
H187	H	0.305345	0.491731	-0.491447
H188	H	0.805345	0.991731	0.008553
H189	H	0.691123	0.449350	-0.812008
H190	H	1.191123	0.949350	-0.312008
H191	H	0.556514	0.444150	-0.443971
H192	H	1.056514	0.944150	0.056029
H193	H	0.779088	0.903812	-0.483110
H194	H	1.279088	1.403812	0.016890
O195	O	0.781131	0.493900	-0.908953
O196	O	1.281131	0.993900	-0.408953
C197	C	0.744191	0.546046	-0.883790
C198	C	1.244191	1.046046	-0.383790
H199	H	0.706130	0.516509	-0.869917
H200	H	1.206130	1.016509	-0.369917
H201	H	0.759721	0.574897	-0.832124
H202	H	1.259721	1.074897	-0.332124
C203	C	0.781021	0.640211	-0.961875
C204	C	1.281021	1.140211	-0.461875
C205	C	0.734273	0.603933	-0.944842
C206	C	1.234273	1.103933	-0.444842
H207	H	0.774904	0.675921	-0.999532
H208	H	1.274904	1.175921	-0.499532
H209	H	0.805910	0.605081	-0.978826
H210	H	1.305910	1.105081	-0.478826
H211	H	0.793958	0.664247	-0.918814
H212	H	1.293958	1.164247	-0.418814
H213	H	0.721340	0.579890	-0.987899
H214	H	1.221340	1.079890	-0.487899
H215	H	0.709381	0.639061	-0.927899
H216	H	1.209381	1.139061	-0.427899
H217	H	0.731950	0.811283	-0.232884
H218	H	1.231950	1.311283	0.267116
O219	O	0.202089	0.499284	-0.498941
O220	O	0.702089	0.999284	0.001059
C221	C	0.237910	0.541237	-0.540787
C222	C	0.737910	1.041237	-0.040787
H223	H	0.276820	0.543747	-0.510351
H224	H	0.776820	1.043747	-0.010351
H225	H	0.243745	0.514122	-0.597237
H226	H	0.743745	1.014122	-0.097237
C227	C	0.168809	0.617219	-0.588737
C228	C	0.668809	1.117219	-0.088737
C229	C	0.216597	0.620307	-0.551352
C230	C	0.716597	1.120307	-0.051352
H231	H	0.155661	0.665993	-0.595258
H232	H	0.655661	1.165993	-0.095258
H233	H	0.144675	0.588953	-0.560547
H234	H	0.644675	1.088953	-0.060547
H235	H	0.173677	0.594620	-0.635774
H236	H	0.673677	1.094620	-0.135774
H237	H	0.211727	0.642897	-0.504313
H238	H	0.711727	1.142897	-0.004313
H239	H	0.240730	0.648579	-0.579535
H240	H	0.740730	1.148579	-0.079535
H241	H	0.843653	0.391387	-0.812107
H242	H	1.343653	0.891387	-0.312107
O243	O	0.201905	0.216536	-0.217247
O244	O	0.701905	0.716536	0.282753
C245	C	0.170345	0.168616	-0.259594
C246	C	0.670345	0.668616	0.240406
H247	H	0.162183	0.194868	-0.315841
H248	H	0.662183	0.694868	0.184159
H249	H	0.191394	0.113577	-0.267825
H250	H	0.691394	0.613577	0.232175
C251	C	0.128490	0.122912	-0.149671
C252	C	0.628490	0.622912	0.350329
C253	C	0.118461	0.155159	-0.218753
C254	C	0.618461	0.655159	0.281247
H255	H	0.096487	0.114608	-0.124478
H256	H	0.596487	0.614608	0.375522
H257	H	0.149754	0.155194	-0.121140
H258	H	0.649754	0.655194	0.378860
H259	H	0.146032	0.077050	-0.156540
H260	H	0.646032	0.577050	0.343460
H261	H	0.100926	0.201024	-0.211883
H262	H	0.600926	0.701024	0.288117
H263	H	0.097193	0.122884	-0.247282
H264	H	0.597193	0.622884	0.252718
O265	O	0.659845	0.321182	-0.909019
O266	O	1.159845	0.821182	-0.409019
C267	C	0.663474	0.256115	-0.951950
C268	C	1.163474	0.756115	-0.451950
H269	H	0.705081	0.249536	-0.973256
H270	H	1.205081	0.749536	-0.473256
H271	H	0.652748	0.206190	-0.916411
H272	H	1.152748	0.706190	-0.416411
C273	C	0.574618	0.269446	-0.991904
C274	C	1.074618	0.769446	-0.491904
C275	C	0.625720	0.261369	-1.018078
C276	C	1.125720	0.761369	-0.518078
H277	H	0.551329	0.272685	-1.032693
H278	H	1.051329	0.772685	-0.532693
H279	H	0.572173	0.313282	-0.962978
H280	H	1.072173	0.813282	-0.462978
H281	H	0.565687	0.227840	-0.962288
H282	H	1.065687	0.727840	-0.462288
H283	H	0.634653	0.302979	-1.047685
H284	H	1.134653	0.802979	-0.547685
H285	H	0.628166	0.217541	-1.047010
H286	H	1.128166	0.717541	-0.547010
H287	H	0.820176	0.266186	-0.904591
H288	H	1.320176	0.766186	-0.404591
H289	H	0.691019	0.811186	-0.449442
H290	H	1.191019	1.311186	0.050558
H291	H	0.457427	0.271572	-0.271949
H292	H	0.957427	0.771572	0.228051
H293	H	0.556494	0.271571	-0.271929
H294	H	1.056494	0.771571	0.228071
O295	O	0.058381	0.451695	-0.451604
O296	O	0.558381	0.951695	0.048396
C297	C	0.022576	0.493687	-0.493438
C298	C	0.522576	0.993687	0.006562
H299	H	-0.016339	0.463275	-0.496060
H300	H	0.483661	0.963275	0.003940
H301	H	0.016747	0.550053	-0.466147
H302	H	0.516747	1.050053	0.033853
C303	C	0.091701	0.541850	-0.569242
C304	C	0.591701	1.041850	-0.069242
C305	C	0.043906	0.504494	-0.572467
C306	C	0.543906	1.004494	-0.072467
H307	H	0.104859	0.548520	-0.617989
H308	H	0.604859	1.048520	-0.117989
H309	H	0.115824	0.513562	-0.541056
H310	H	0.615824	1.013562	-0.041056
H311	H	0.086837	0.588818	-0.546496
H312	H	0.586837	1.088818	-0.046496
H313	H	0.048772	0.457524	-0.595203
H314	H	0.548772	0.957524	-0.095203
H315	H	0.019784	0.532776	-0.600659
H316	H	0.519784	1.032776	-0.100659
H317	H	0.732047	0.232744	-0.811949
H318	H	1.232047	0.732744	-0.311949
O319	O	-0.049286	0.264246	-0.264607
O320	O	0.450714	0.764246	0.235393
C321	C	-0.103334	0.274434	-0.274784
C322	C	0.396666	0.774434	0.225216
H323	H	-0.110799	0.331773	-0.299028
H324	H	0.389201	0.831773	0.200972
H325	H	-0.118810	0.230427	-0.314391
H326	H	0.381190	0.730427	0.185609
C327	C	-0.122217	0.197128	-0.169873
C328	C	0.377783	0.697128	0.330127
C329	C	-0.131385	0.267556	-0.199644
C330	C	0.368615	0.767556	0.300356
H331	H	-0.139521	0.192882	-0.123524
H332	H	0.360479	0.692882	0.376476
H333	H	-0.085803	0.190262	-0.163018
H334	H	0.414197	0.690262	0.336982
H335	H	-0.135113	0.160463	-0.202886
H336	H	0.364887	0.660463	0.297114
H337	H	-0.118483	0.304218	-0.166635
H338	H	0.381517	0.804218	0.333365
H339	H	-0.167797	0.274428	-0.206492
H340	H	0.332203	0.774428	0.293508
O341	O	0.851310	0.806784	-0.394776
O342	O	1.351310	1.306784	0.105224
C343	C	0.864601	0.831874	-0.466294
C344	C	1.364601	1.331874	0.033706
H345	H	0.827540	0.845780	-0.498279
H346	H	1.327540	1.345780	0.001721
H347	H	0.889985	0.883505	-0.461651
H348	H	1.389985	1.383505	0.038349
C349	C	0.940408	0.753673	-0.468198
C350	C	1.440408	1.253673	0.031802
C351	C	0.894890	0.770746	-0.507485
C352	C	1.394890	1.270746	-0.007485
H353	H	0.959094	0.715968	-0.493606
H354	H	1.459094	1.215968	0.006394
H355	H	0.931456	0.736770	-0.420014
H356	H	1.431456	1.236770	0.079986
H357	H	0.961556	0.796704	-0.464332
H358	H	1.461556	1.296704	0.035668
H359	H	0.873740	0.727718	-0.511343
H360	H	1.373740	1.227718	-0.011343
H361	H	0.903839	0.787640	-0.555671
H362	H	1.403839	1.287640	-0.055671
O363	O	0.659773	0.908320	-0.321532
O364	O	1.159773	1.408320	0.178468
C365	C	0.640390	0.952361	-0.379856
C366	C	1.140390	1.452361	0.120144
H367	H	0.674326	0.973960	-0.414477
H368	H	1.174326	1.473960	0.085523
H369	H	0.613536	0.917624	-0.416269
H370	H	1.113536	1.417624	0.083731
C371	C	0.567971	0.991690	-0.305089
C372	C	1.067971	1.491690	0.194911
C373	C	0.609652	1.018222	-0.347607
C374	C	1.109652	1.518222	0.152393
H375	H	0.549009	1.032314	-0.285197
H376	H	1.049009	1.532314	0.214803
H377	H	0.581028	0.962017	-0.265795
H378	H	1.081028	1.462017	0.234205
H379	H	0.545599	0.962742	-0.335439
H380	H	1.045599	1.462742	0.164561
H381	H	0.632027	1.047161	-0.317254
H382	H	1.132027	1.547161	0.182746
H383	H	0.596598	1.047902	-0.386895
H384	H	1.096598	1.547902	0.113105
H385	H	-0.044897	0.444207	-0.444098
H386	H	0.455103	0.944207	0.055902
