data_functionalizedCrystal
_audit_creation_method	'MofGen! by Chris Wilmer'
_symmetry_space_group_name_H-M	'P1'
_symmetry_Int_Tables_number	1
_symmetry_cell_setting	triclinic
loop_
_symmetry_equiv_pos_as_xyz
  x,y,z
_cell_length_a	19.188930
_cell_length_b	19.188924
_cell_length_c	12.996460
_cell_angle_alpha	90.008213
_cell_angle_beta	90.019467
_cell_angle_gamma	83.143372
loop_
_atom_site_label
_atom_site_type_symbol
_atom_site_fract_x
_atom_site_fract_y
_atom_site_fract_z
O1	O	0.926144	0.087169	0.085902
O2	O	1.426144	0.587169	0.585902
O3	O	0.722832	0.098904	0.085832
O4	O	1.222832	0.598904	0.585832
O5	O	0.830357	-0.008620	0.085857
O6	O	1.330357	0.491380	0.585857
O7	O	0.818618	0.194692	0.085877
O8	O	1.318618	0.694692	0.585877
O9	O	0.830346	-0.008626	-0.085277
O10	O	1.330346	0.491374	0.414723
O11	O	0.722821	0.098898	-0.085301
O12	O	1.222821	0.598898	0.414699
O13	O	0.926132	0.087163	-0.085232
O14	O	1.426132	0.587163	0.414768
Cu15	Cu	0.824476	0.093030	-0.100892
Cu16	Cu	1.324476	0.593030	0.399108
Cu17	Cu	0.824489	0.093037	0.101493
Cu18	Cu	1.324489	0.593037	0.601493
O19	O	0.818607	0.194686	-0.085256
O20	O	1.318607	0.694686	0.414744
C21	C	0.696815	0.098521	0.000256
C22	C	1.196815	0.598521	0.500256
C23	C	0.619311	0.097380	0.000229
C24	C	1.119311	0.597380	0.500229
C25	C	0.829973	-0.034634	0.000289
C26	C	1.329973	0.465366	0.500289
C27	C	0.828834	-0.112138	0.000286
C28	C	1.328834	0.387862	0.500286
C29	C	0.574385	0.160471	0.000252
C30	C	1.074385	0.660471	0.500252
C31	C	0.501562	0.159399	0.000263
C32	C	1.001562	0.659399	0.500263
C33	C	0.473667	0.095233	0.000272
C34	C	0.973667	0.595233	0.500272
C35	C	0.518602	0.032134	0.000244
C36	C	1.018602	0.532134	0.500244
C37	C	0.591424	0.033207	0.000223
C38	C	1.091424	0.533207	0.500223
N39	N	0.365692	0.046188	0.058553
N40	N	0.865692	0.546188	0.558553
N41	N	0.296513	0.045172	0.058576
N42	N	0.796513	0.545172	0.558576
C43	C	0.254258	0.091995	0.000335
C44	C	0.754258	0.591995	0.500335
N45	N	0.283794	0.139882	-0.057917
N46	N	0.783794	0.639882	0.442083
N47	N	0.352979	0.140899	-0.057935
N48	N	0.852979	0.640899	0.442065
C49	C	0.394704	0.094062	0.000295
C50	C	0.894704	0.594062	0.500295
C51	C	0.130368	0.153928	0.000368
C52	C	0.630368	0.653928	0.500368
C53	C	0.057543	0.152854	0.000373
C54	C	0.557543	0.652854	0.500373
C55	C	0.074585	0.025586	0.000364
C56	C	0.574585	0.525586	0.500364
C57	C	0.147409	0.026663	0.000349
C58	C	0.647409	0.526663	0.500349
C59	C	0.175295	0.090835	0.000356
C60	C	0.675295	0.590835	0.500356
C61	C	0.828308	-0.148534	0.093571
C62	C	1.328308	0.351466	0.593571
C63	C	0.827228	-0.221357	0.093579
C64	C	1.327228	0.278643	0.593579
C65	C	0.826688	-0.257783	0.000296
C66	C	1.326688	0.242217	0.500296
C67	C	0.827210	-0.221378	-0.093002
C68	C	1.327210	0.278622	0.406998
C69	C	0.828282	-0.148556	-0.093007
C70	C	1.328282	0.351444	0.406993
N71	N	0.864731	-0.377449	-0.069119
N72	N	1.364731	0.122551	0.430881
N73	N	0.863714	-0.446627	-0.069109
N74	N	1.363714	0.053373	0.430891
C75	C	0.823454	-0.477192	0.000304
C76	C	1.323454	0.022808	0.500304
N77	N	0.784259	-0.435967	0.069722
N78	N	1.284259	0.064033	0.569722
N79	N	0.785280	-0.366783	0.069714
N80	N	1.285280	0.133217	0.569714
C81	C	0.825524	-0.336746	0.000290
C82	C	1.325524	0.163254	0.500290
C83	C	0.821757	-0.592550	0.093604
C84	C	1.321757	-0.092550	0.593604
C85	C	0.820672	-0.665374	0.093608
C86	C	1.320672	-0.165374	0.593608
C87	C	0.820660	-0.665394	-0.092975
C88	C	1.320660	-0.165394	0.407025
C89	C	0.821738	-0.592571	-0.092976
C90	C	1.321738	-0.092571	0.407024
C91	C	0.822289	-0.556154	0.000316
C92	C	1.322289	-0.056154	0.500316
C93	C	0.952149	0.087546	0.000347
C94	C	1.452149	0.587546	0.500347
C95	C	1.029654	0.088687	0.000381
C96	C	1.529654	0.588687	0.500381
C97	C	0.818992	0.220700	0.000314
C98	C	1.318992	0.720700	0.500314
C99	C	0.820131	0.298205	0.000324
C100	C	1.320131	0.798205	0.500324
N101	N	0.824472	0.093025	-0.243240
N102	N	1.324472	0.593025	0.256760
C103	C	0.824488	0.093038	-0.663054
C104	C	1.324488	0.593038	-0.163054
C105	C	0.824481	0.093036	-0.546249
C106	C	1.324481	0.593036	-0.046249
C107	C	0.824480	0.093032	-0.453150
C108	C	1.324480	0.593032	0.046850
C109	C	0.824473	0.093029	-0.336338
C110	C	1.324473	0.593029	0.163662
N111	N	0.824499	0.093037	0.243840
N112	N	1.324499	0.593037	0.743840
H113	H	0.597086	0.212725	0.000259
H114	H	1.097086	0.712725	0.500259
H115	H	0.820215	-0.695051	-0.168928
H116	H	1.320215	-0.195051	0.331072
H117	H	0.183988	-0.024713	0.000337
H118	H	0.683988	0.475287	0.500337
H119	H	0.822171	-0.562939	-0.168939
H120	H	1.322171	-0.062939	0.331061
Br121	Br	0.652399	-0.052423	0.000190
Br122	Br	1.152399	0.447577	0.500190
H123	H	0.822201	-0.562897	0.169568
H124	H	1.322201	-0.062897	0.669568
H125	H	0.495885	-0.020111	0.000266
H126	H	0.995885	0.479889	0.500266
H127	H	0.051874	-0.026659	0.000436
H128	H	0.551874	0.473341	0.500436
Br129	Br	0.828992	-0.099157	-0.219618
Br130	Br	1.328992	0.400843	0.280382
Br131	Br	0.829054	-0.099113	0.220182
Br132	Br	1.329054	0.400887	0.720182
Br133	Br	0.826467	-0.270810	-0.219601
Br134	Br	1.326467	0.229190	0.280399
H135	H	0.820241	-0.695005	0.169575
H136	H	1.320241	-0.195005	0.669575
H137	H	0.464976	0.210777	0.000278
H138	H	0.964976	0.710777	0.500278
H139	H	0.153075	0.206181	0.000358
H140	H	0.653075	0.706181	0.500358
H141	H	0.020965	0.204232	0.000385
H142	H	0.520965	0.704232	0.500385
Br143	Br	0.826513	-0.270762	0.220189
Br144	Br	1.326513	0.229238	0.720189
