data_functionalizedCrystal
_audit_creation_method	'MofGen! by Chris Wilmer'
_symmetry_space_group_name_H-M	'P1'
_symmetry_Int_Tables_number	1
_symmetry_cell_setting	triclinic
loop_
_symmetry_equiv_pos_as_xyz
  x,y,z
_cell_length_a	19.288840
_cell_length_b	10.654550
_cell_length_c	18.366186
_cell_angle_alpha	89.994973
_cell_angle_beta	89.983729
_cell_angle_gamma	83.805459
loop_
_atom_site_label
_atom_site_type_symbol
_atom_site_fract_x
_atom_site_fract_y
_atom_site_fract_z
O1	O	0.922389	0.156507	-0.060670
O2	O	0.720264	0.177672	-0.060644
O3	O	0.825974	-0.015750	-0.060655
O4	O	0.816679	0.349929	-0.060659
O5	O	0.825955	-0.015760	0.060445
O6	O	0.720246	0.177663	0.060455
O7	O	0.922370	0.156497	0.060430
Zn8	Zn	0.821305	0.167078	0.079670
Zn9	Zn	0.821329	0.167091	-0.079884
O10	O	0.816661	0.349919	0.060440
C11	C	0.694374	0.176992	-0.000091
C12	C	0.617256	0.174963	-0.000082
C13	C	0.581056	0.173994	-0.066095
C14	C	0.508597	0.172074	-0.066104
C15	C	0.472342	0.171098	-0.000096
C16	C	0.508550	0.172074	0.065926
C17	C	0.581007	0.174007	0.065933
C18	C	0.362505	0.094477	0.050467
C19	C	0.290049	0.092536	0.050457
C20	C	0.248859	0.165142	-0.000114
C21	C	0.280134	0.239672	-0.050688
C22	C	0.352591	0.241605	-0.050681
C23	C	0.393774	0.169003	-0.000096
C24	C	0.134090	0.162092	-0.066142
C25	C	0.061629	0.160180	-0.066148
C26	C	0.061584	0.160168	0.065884
C27	C	0.134043	0.162093	0.065888
C28	C	0.170292	0.163049	-0.000127
C29	C	0.825282	-0.062538	-0.000106
C30	C	0.823240	-0.201937	-0.000108
C31	C	0.885480	-0.282765	-0.000114
C32	C	0.883558	-0.413745	-0.000119
C33	C	0.757149	-0.383055	-0.000109
C34	C	0.759073	-0.252078	-0.000110
C35	C	0.949648	-0.232625	-0.000112
C36	C	1.011893	-0.313454	-0.000117
C37	C	1.009970	-0.444433	-0.000122
C38	C	0.945802	-0.494583	-0.000122
C39	C	0.948261	0.157178	-0.000125
C40	C	1.025378	0.159206	-0.000139
C41	C	0.817352	0.396707	-0.000110
C42	C	0.819394	0.536107	-0.000113
N43	N	0.821294	0.167069	0.188561
N44	N	0.821346	0.167090	-0.188775
C45	C	0.868118	0.081464	0.226656
C46	C	0.868122	0.081458	0.302884
C47	C	0.821309	0.167079	0.341014
C48	C	0.774477	0.252691	0.302909
C49	C	0.774469	0.252686	0.226682
C50	C	0.812760	0.281502	0.461773
C51	C	0.812773	0.281509	0.537998
C52	C	0.821329	0.167095	0.576121
C53	C	0.829888	0.052670	0.538010
C54	C	0.829880	0.052664	0.461783
C55	C	0.821312	0.167094	0.423668
C56	C	0.868160	0.081477	0.696872
C57	C	0.868160	0.081469	0.773101
C58	C	0.774518	0.252714	0.773124
C59	C	0.774515	0.252710	0.696896
C60	C	0.821340	0.167093	0.658775
H61	H	0.246598	0.298800	-0.091866
C62	C	0.943691	-0.638666	-0.000132
N63	N	0.942102	-0.747188	-0.000135
C64	C	0.386987	0.323653	-0.106279
N65	N	0.412891	0.385479	-0.148143
C66	C	0.919641	-0.012706	0.344798
N67	N	0.958448	-0.083625	0.376365
H68	H	0.836847	-0.040505	0.430756
H69	H	0.479026	0.171283	0.119670
C70	C	0.620926	0.175043	-0.138713
N71	N	0.650957	0.175831	-0.193410
H72	H	0.163518	0.162874	0.119643
H73	H	1.064136	-0.272613	-0.000135
C74	C	0.686570	-0.438226	-0.000098
N75	N	0.633408	-0.479781	-0.000084
C76	C	0.690605	-0.163162	-0.000098
N77	N	0.639034	-0.096190	-0.000089
H78	H	0.906244	0.011746	0.195620
C79	C	0.951769	-0.088546	-0.000107
N80	N	0.953365	0.019974	-0.000102
H81	H	0.736360	0.322404	0.333957
H82	H	0.479117	0.171286	-0.119861
H83	H	1.060653	-0.510242	-0.000133
H84	H	0.836855	-0.040497	0.569047
H85	H	0.906286	0.011758	0.665832
H86	H	0.906287	0.011752	0.804119
C87	C	0.021809	0.159108	-0.138772
N88	N	-0.008183	0.158296	-0.193473
H89	H	0.736399	0.322423	0.804168
C90	C	0.723055	0.346975	0.654989
N91	N	0.684309	0.418007	0.623425
H92	H	0.032066	0.159381	0.119629
H93	H	0.805809	0.374681	0.569023
C94	C	0.803347	0.407375	0.419846
N95	N	0.796258	0.502179	0.388267
H96	H	0.396037	0.035349	0.091651
H97	H	0.163605	0.162884	-0.119895
C98	C	0.255653	0.010564	0.106094
N99	N	0.229747	-0.051174	0.148005
H100	H	0.736339	0.322398	0.195664
H101	H	0.610481	0.174798	0.119691
