data_functionalizedCrystal
_audit_creation_method	'MofGen! by Chris Wilmer'
_symmetry_space_group_name_H-M	'P1'
_symmetry_Int_Tables_number	1
_symmetry_cell_setting	triclinic
loop_
_symmetry_equiv_pos_as_xyz
  x,y,z
_cell_length_a	9.065215
_cell_length_b	15.944493
_cell_length_c	14.421503
_cell_angle_alpha	90.008352
_cell_angle_beta	89.992958
_cell_angle_gamma	84.244871
loop_
_atom_site_label
_atom_site_type_symbol
_atom_site_fract_x
_atom_site_fract_y
_atom_site_fract_z
O1	O	1.957489	0.123144	-0.077087
O2	O	1.527963	0.133249	-0.077090
O3	O	1.754500	0.006008	-0.077096
O4	O	1.730952	0.250386	-0.077081
O5	O	1.754464	0.006022	0.077127
O6	O	1.527927	0.133263	0.077133
O7	O	1.957453	0.123158	0.077136
Cu8	Cu	1.742687	0.128212	0.091217
Cu9	Cu	1.742729	0.128195	-0.091170
O10	O	1.730916	0.250400	0.077142
C11	C	1.472982	0.132286	0.000021
C12	C	1.309207	0.129384	0.000019
C13	C	1.753519	-0.025287	0.000012
C14	C	1.750634	-0.118558	-0.000000
C15	C	1.883979	-0.353308	0.000018
C16	C	1.812089	-0.404428	-0.076022
C17	C	1.745287	-0.289319	0.000011
C18	C	1.812021	-0.404390	0.076030
C19	C	1.740133	-0.454268	0.000026
C20	C	1.673435	-0.339210	-0.076092
C21	C	1.673387	-0.339169	0.076029
C22	C	1.601396	-0.390256	-0.000030
C23	C	1.748261	-0.194297	0.000002
C24	C	1.737149	-0.549288	0.000029
C25	C	2.012434	0.124122	0.000023
C26	C	2.176208	0.127024	0.000019
C27	C	1.731896	0.281695	0.000033
C28	C	1.734782	0.374965	0.000038
N29	N	1.742667	0.128224	0.219498
N30	N	1.742760	0.128177	-0.219452
C31	C	1.638781	0.187534	0.530954
C32	C	1.608957	0.111637	0.469121
C33	C	1.742728	0.128191	0.591387
C34	C	1.772453	0.204102	0.469126
C35	C	1.742694	0.128211	0.408665
C36	C	1.712838	0.052256	0.530914
C37	C	1.876392	0.144770	0.530925
C38	C	1.846624	0.068819	0.469120
C39	C	1.742744	0.128181	0.696648
C40	C	1.742680	0.128213	0.303407
H41	H	2.003443	-0.336775	-0.000057
H42	H	1.989405	0.158815	0.558096
H43	H	1.870606	-0.432871	0.140312
Cl44	Cl	1.583043	-0.295107	0.175287
H45	H	1.870675	-0.432936	-0.140308
Cl46	Cl	1.416811	-0.415537	-0.000092
Cl47	Cl	1.673798	-0.046870	0.572637
Cl48	Cl	1.503002	0.264912	0.572875
H49	H	1.495909	0.097620	0.441967
Cl50	Cl	1.583086	-0.295414	-0.175455
H51	H	1.934519	0.018588	0.442142
H52	H	1.797628	0.268292	0.442002
