data_functionalizedCrystal
_audit_creation_method	'MofGen! by Chris Wilmer'
_symmetry_space_group_name_H-M	'P1'
_symmetry_Int_Tables_number	1
_symmetry_cell_setting	triclinic
loop_
_symmetry_equiv_pos_as_xyz
  x,y,z
_cell_length_a	14.971491
_cell_length_b	19.288865
_cell_length_c	14.048226
_cell_angle_alpha	89.988335
_cell_angle_beta	89.991693
_cell_angle_gamma	83.376241
loop_
_atom_site_label
_atom_site_type_symbol
_atom_site_fract_x
_atom_site_fract_y
_atom_site_fract_z
O1	O	1.186455	0.090534	-0.079213
O2	O	1.686455	0.590534	0.420787
O3	O	0.925997	0.101370	-0.079207
O4	O	1.425997	0.601370	0.420793
O5	O	1.063752	-0.005153	-0.079191
O6	O	1.563752	0.494847	0.420809
O7	O	1.048700	0.197058	-0.079229
O8	O	1.548700	0.697058	0.420771
O9	O	1.063735	-0.005160	0.079130
O10	O	1.563735	0.494840	0.579130
O11	O	0.925980	0.101364	0.079114
O12	O	1.425980	0.601364	0.579114
O13	O	1.186438	0.090528	0.079109
O14	O	1.686438	0.590528	0.579109
Zn15	Zn	1.056207	0.095945	0.104248
Zn16	Zn	1.556207	0.595945	0.604248
Zn17	Zn	1.056228	0.095953	-0.104347
Zn18	Zn	1.556228	0.595953	0.395653
O19	O	1.048683	0.197052	0.079093
O20	O	1.548683	0.697052	0.579093
C21	C	0.892666	0.100882	-0.000045
C22	C	1.392666	0.600882	0.499955
C23	C	0.793377	0.099428	-0.000042
C24	C	1.293377	0.599428	0.499958
C25	C	1.063259	-0.031035	-0.000028
C26	C	1.563259	0.468965	0.499972
C27	C	1.061805	-0.108143	-0.000019
C28	C	1.561805	0.391857	0.499981
C29	C	0.365715	0.093156	-0.086364
C30	C	0.865715	0.593156	0.413636
C31	C	0.459008	0.094521	-0.086361
C32	C	0.959008	0.594521	0.413639
C33	C	0.505641	0.095204	-0.000057
C34	C	1.005641	0.595204	0.499943
C35	C	0.458977	0.094516	0.086250
C36	C	0.958977	0.594516	0.586250
C37	C	0.365687	0.093147	0.086245
C38	C	0.865687	0.593147	0.586245
C39	C	0.653424	0.097371	0.086253
C40	C	1.153424	0.597371	0.586253
C41	C	0.746720	0.098742	0.086257
C42	C	1.246720	0.598742	0.586257
C43	C	0.746744	0.098745	-0.086354
C44	C	1.246744	0.598745	0.413646
C45	C	0.653454	0.097376	-0.086358
C46	C	1.153454	0.597376	0.413642
C47	C	0.606797	0.096689	-0.000051
C48	C	1.106797	0.596689	0.499949
C49	C	1.142634	-0.152575	-0.000016
C50	C	1.642634	0.347425	0.499984
C51	C	1.141268	-0.225026	-0.000031
C52	C	1.641268	0.274974	0.499969
C53	C	1.059069	-0.253043	-0.000030
C54	C	1.559069	0.246957	0.499970
C55	C	0.978230	-0.208601	-0.000038
C56	C	1.478230	0.291399	0.499962
C57	C	0.979598	-0.136151	-0.000033
C58	C	1.479598	0.363849	0.499967
C59	C	0.994445	-0.361544	0.055428
C60	C	1.494445	0.138456	0.555428
C61	C	0.993080	-0.433993	0.055428
C62	C	1.493080	0.066007	0.555428
C63	C	1.054846	-0.476502	-0.000051
C64	C	1.554846	0.023498	0.499949
C65	C	1.117991	-0.446555	-0.055519
C66	C	1.617991	0.053445	0.444481
C67	C	1.119359	-0.374105	-0.055514
C68	C	1.619359	0.125895	0.444486
C69	C	1.057576	-0.331602	-0.000037
C70	C	1.557576	0.168398	0.499963
C71	C	1.134199	-0.599495	-0.000066
C72	C	1.634199	-0.099495	0.499934
C73	C	1.132829	-0.671947	-0.000087
C74	C	1.632829	-0.171947	0.499913
C75	C	0.969789	-0.655521	-0.000085
C76	C	1.469789	-0.155521	0.499915
C77	C	0.971161	-0.583070	-0.000073
C78	C	1.471161	-0.083070	0.499927
C79	C	1.053368	-0.555061	-0.000059
C80	C	1.553368	-0.055061	0.499941
C81	C	1.219768	0.091016	-0.000055
C82	C	1.719768	0.591016	0.499945
C83	C	1.319057	0.092471	-0.000064
C84	C	1.819057	0.592471	0.499936
C85	C	1.049176	0.222933	-0.000073
C86	C	1.549176	0.722933	0.499927
C87	C	1.050630	0.300041	-0.000087
C88	C	1.550630	0.800041	0.499913
N89	N	1.056198	0.095939	0.246609
N90	N	1.556198	0.595939	0.746609
N91	N	1.056244	0.095954	-0.246707
N92	N	1.556244	0.595954	0.253293
C93	C	1.117215	0.048790	0.296434
C94	C	1.617215	0.548790	0.796434
C95	C	1.117221	0.048789	0.396092
C96	C	1.617221	0.548789	0.896092
C97	C	1.056214	0.095942	0.445923
C98	C	1.556214	0.595942	0.945923
C99	C	0.995190	0.143093	0.396091
C100	C	1.495190	0.643093	0.896091
C101	C	0.995181	0.143090	0.296435
C102	C	1.495181	0.643090	0.796435
C103	C	0.995216	0.143098	0.603805
C104	C	1.495216	0.643098	1.103805
C105	C	0.995227	0.143103	0.703467
C106	C	1.495227	0.643103	1.203467
C107	C	1.117257	0.048798	0.703462
C108	C	1.617257	0.548798	1.203462
C109	C	1.117247	0.048794	0.603806
C110	C	1.617247	0.548794	1.103806
C111	C	1.056224	0.095947	0.553981
C112	C	1.556224	0.595947	1.053981
H113	H	0.327752	0.092605	-0.156643
H114	H	0.827752	0.592605	0.343357
H115	H	1.166905	0.010397	0.436659
H116	H	1.666905	0.510397	0.936659
N117	N	1.231302	-0.122374	-0.000008
N118	N	1.731302	0.377626	0.499992
H119	H	1.266706	-0.138566	-0.058699
H120	H	1.766706	0.361434	0.441301
H121	H	1.219839	-0.069739	0.000031
H122	H	1.719839	0.430261	0.500031
N123	N	1.183022	-0.002064	0.242691
N124	N	1.683022	0.497936	0.742691
H125	H	1.221675	-0.031934	0.289381
H126	H	1.721675	0.468066	0.789381
H127	H	1.148904	-0.032818	0.201363
H128	H	1.648904	0.467182	0.701363
N129	N	1.184617	-0.492396	-0.115359
N130	N	1.684617	0.007604	0.384641
H131	H	1.224826	-0.462431	-0.150490
H132	H	1.724826	0.037569	0.349510
H133	H	1.222393	-0.526326	-0.072810
H134	H	1.722393	-0.026326	0.427190
H135	H	1.166928	0.010403	0.563234
H136	H	1.666928	0.510403	1.063234
H137	H	1.170772	-0.349725	-0.100679
H138	H	1.670772	0.150275	0.399321
H139	H	0.945494	0.181483	0.255868
H140	H	1.445494	0.681483	0.755868
N141	N	1.222859	-0.569278	-0.000053
N142	N	1.722859	-0.069278	0.499947
H143	H	1.258268	-0.585459	-0.058745
H144	H	1.758268	-0.085459	0.441255
H145	H	1.211382	-0.516644	-0.000005
H146	H	1.711382	-0.016644	0.499995
N147	N	0.315362	0.092402	0.179327
N148	N	0.815362	0.592402	0.679327
H149	H	0.359142	0.092554	0.233998
H150	H	0.859142	0.592554	0.733998
H151	H	0.269655	0.135108	0.183369
H152	H	0.769655	0.635108	0.683369
N153	N	0.929387	0.193946	0.449839
N154	N	1.429387	0.693946	0.949839
H155	H	0.963443	0.224748	0.491164
H156	H	1.463443	0.724748	0.991164
H157	H	0.890743	0.223767	0.403093
H158	H	1.390743	0.723767	0.903093
N159	N	0.881131	-0.685731	-0.000068
N160	N	1.381131	-0.185731	0.499932
H161	H	0.830132	-0.646586	-0.000061
H162	H	1.330132	-0.146586	0.499939
H163	H	0.877012	-0.715423	-0.058760
H164	H	1.377012	-0.215423	0.441240
N165	N	1.183078	-0.002059	0.757194
N166	N	1.683078	0.497941	1.257194
H167	H	1.173826	0.005094	0.827887
H168	H	1.673826	0.505094	1.327887
H169	H	1.172952	-0.051349	0.739792
H170	H	1.672952	0.448651	1.239792
N171	N	0.929436	0.193965	0.757217
N172	N	1.429436	0.693965	1.257217
H173	H	0.890775	0.223834	0.710533
H174	H	1.390775	0.723834	1.210533
H175	H	0.890013	0.167326	0.798594
H176	H	1.390013	0.667326	1.298594
H177	H	1.207090	-0.261209	-0.000033
H178	H	1.707090	0.238791	0.499967
N179	N	0.797021	0.099473	0.179340
N180	N	1.297021	0.599473	0.679340
H181	H	0.828296	0.143067	0.183182
H182	H	1.328296	0.643067	0.683182
H183	H	0.753257	0.098798	0.233959
H184	H	1.253257	0.598798	0.733959
H185	H	0.945522	0.181493	0.563240
H186	H	1.445522	0.681493	1.063240
H187	H	0.615437	0.096820	0.156533
H188	H	1.115437	0.596820	0.656533
N189	N	0.509271	0.095259	0.179335
N190	N	1.009271	0.595259	0.679335
H191	H	0.465556	0.094616	0.234006
H192	H	0.965556	0.594616	0.734006
H193	H	0.555406	0.052804	0.183110
H194	H	1.055406	0.552804	0.683110
N195	N	0.883981	-0.535142	-0.000071
N196	N	1.383981	-0.035142	0.499929
H197	H	0.831699	-0.563882	-0.000072
H198	H	1.331699	-0.063882	0.499928
H199	H	0.880992	-0.504735	0.058624
H200	H	1.380992	-0.004735	0.558624
H201	H	0.496993	0.095075	-0.156635
H202	H	0.996993	0.595075	0.343365
H203	H	0.615487	0.096825	-0.156634
H204	H	1.115487	0.596825	0.343366
H205	H	1.198652	-0.708123	-0.000090
H206	H	1.698652	-0.208123	0.499910
H207	H	0.944146	-0.326938	0.100611
H208	H	1.444146	0.173062	0.600611
N209	N	0.797060	0.099489	-0.179444
N210	N	1.297060	0.599489	0.320556
H211	H	0.863235	0.100457	-0.166349
H212	H	1.363235	0.600457	0.333651
H213	H	0.788183	0.056228	-0.217127
H214	H	1.288183	0.556228	0.282873
H215	H	0.941660	-0.458370	0.100588
H216	H	1.441660	0.041630	0.600588
N217	N	0.889571	-0.238814	-0.000042
N218	N	1.389571	0.261186	0.499958
H219	H	0.900969	-0.291453	-0.000042
H220	H	1.400969	0.208547	0.499958
H221	H	0.854205	-0.222573	0.058649
H222	H	1.354205	0.277427	0.558649
H223	H	0.913776	-0.099974	-0.000035
H224	H	1.413776	0.400026	0.499965
