data_functionalizedCrystal
_audit_creation_method	'MofGen! by Chris Wilmer'
_symmetry_space_group_name_H-M	'P1'
_symmetry_Int_Tables_number	1
_symmetry_cell_setting	triclinic
loop_
_symmetry_equiv_pos_as_xyz
  x,y,z
_cell_length_a	10.967926
_cell_length_b	15.944493
_cell_length_c	10.065918
_cell_angle_alpha	80.168722
_cell_angle_beta	92.218243
_cell_angle_gamma	84.105668
loop_
_atom_site_label
_atom_site_type_symbol
_atom_site_fract_x
_atom_site_fract_y
_atom_site_fract_z
O1	O	1.617224	0.091743	0.266887
O2	O	2.117224	0.591743	0.766887
O3	O	1.265826	0.111092	0.184239
O4	O	1.765826	0.611092	0.684239
O5	O	1.451159	-0.021023	0.227817
O6	O	1.951159	0.478977	0.727817
O7	O	1.431891	0.223859	0.223308
O8	O	1.931891	0.723859	0.723308
O9	O	1.419550	-0.042465	0.447369
O10	O	1.919550	0.457535	0.947369
O11	O	1.234217	0.089651	0.403791
O12	O	1.734217	0.589651	0.903791
O13	O	1.585615	0.070302	0.486438
O14	O	2.085615	0.570302	0.986438
Zn15	Zn	1.404897	0.076572	0.479973
Zn16	Zn	1.904897	0.576572	0.979973
Zn17	Zn	1.446544	0.104822	0.190704
Zn18	Zn	1.946544	0.604822	0.690704
O19	O	1.400282	0.202418	0.442860
O20	O	1.900282	0.702418	0.942860
C21	C	1.205056	0.100584	0.283439
C22	C	1.705056	0.600584	0.783439
C23	C	1.071071	0.101206	0.251926
C24	C	1.571071	0.601206	0.751926
C25	C	0.994961	0.090377	0.351610
C26	C	1.494961	0.590377	0.851610
C27	C	0.856481	0.091020	0.319042
C28	C	1.356481	0.591020	0.819042
C29	C	1.434568	-0.063025	0.337402
C30	C	1.934568	0.436975	0.837402
C31	C	1.432210	-0.156232	0.336830
C32	C	1.932210	0.343768	0.836830
C33	C	1.541296	-0.393854	0.362513
C34	C	2.041296	0.106146	0.862513
C35	C	1.498053	-0.432848	0.240427
C36	C	1.998053	0.067152	0.740427
C37	C	1.427833	-0.326880	0.335818
C38	C	1.927833	0.173120	0.835818
C39	C	1.466862	-0.453963	0.456882
C40	C	1.966862	0.046037	0.956882
C41	C	1.423614	-0.491720	0.334848
C42	C	1.923614	0.008280	0.834848
C43	C	1.384634	-0.364636	0.213650
C44	C	1.884634	0.135364	0.713650
C45	C	1.353445	-0.385758	0.430206
C46	C	1.853445	0.114242	0.930206
C47	C	1.310123	-0.424714	0.308074
C48	C	1.810123	0.075286	0.808074
C49	C	1.430268	-0.231920	0.336377
C50	C	1.930268	0.268080	0.836377
C51	C	1.421172	-0.586675	0.334277
C52	C	1.921172	-0.086675	0.834277
C53	C	1.646386	0.080811	0.387236
C54	C	2.146386	0.580811	0.887236
C55	C	1.780372	0.080189	0.418741
C56	C	2.280372	0.580189	0.918741
C57	C	1.416874	0.244420	0.333272
C58	C	1.916874	0.744420	0.833272
C59	C	1.419233	0.337627	0.333836
C60	C	1.919233	0.837627	0.833836
N61	N	1.376483	0.057291	0.677394
N62	N	1.876483	0.557291	1.177394
N63	N	1.474968	0.124096	-0.006714
N64	N	1.974968	0.624096	0.493286
C65	C	1.414801	0.083273	0.911352
C66	C	1.914801	0.583273	1.411352
C67	C	1.436659	0.098120	0.759327
C68	C	1.936659	0.598120	1.259327
H69	H	1.032323	0.080624	0.461065
H70	H	1.532323	0.580624	0.961065
F71	F	1.288007	-0.002770	0.732800
F72	F	1.788007	0.497230	1.232800
F73	F	1.669061	-0.375590	0.392420
F74	F	2.169061	0.124410	0.892420
H75	H	1.292392	-0.364919	0.510467
H76	H	1.792392	0.135081	1.010467
F77	F	1.512301	-0.504526	0.591232
F78	F	2.012301	-0.004526	1.091232
H79	H	1.033710	0.110952	0.142471
H80	H	1.533710	0.610952	0.642471
H81	H	0.819126	0.100766	0.209580
H82	H	1.319126	0.600766	0.709580
H83	H	0.817726	0.070437	0.528203
H84	H	1.317726	0.570437	1.028203
F85	F	1.525151	0.158169	0.703921
F86	F	2.025151	0.658169	1.203921
F87	F	1.339282	-0.314208	0.079178
F88	F	1.839282	0.185792	0.579178
F89	F	1.577905	-0.460070	0.135537
F90	F	2.077905	0.039930	0.635537
H91	H	1.212320	-0.438507	0.285010
H92	H	1.712320	0.061493	0.785010
F93	F	1.563456	0.184142	0.937874
F94	F	2.063456	0.684142	1.437874
H95	H	1.347114	0.037328	0.953754
H96	H	1.847114	0.537328	1.453754
