data_functionalizedCrystal
_audit_creation_method	'MofGen! by Chris Wilmer'
_symmetry_space_group_name_H-M	'P1'
_symmetry_Int_Tables_number	1
_symmetry_cell_setting	triclinic
loop_
_symmetry_equiv_pos_as_xyz
  x,y,z
_cell_length_a	16.109301
_cell_length_b	12.837942
_cell_length_c	14.586319
_cell_angle_alpha	89.996741
_cell_angle_beta	89.999213
_cell_angle_gamma	89.145211
loop_
_atom_site_label
_atom_site_type_symbol
_atom_site_fract_x
_atom_site_fract_y
_atom_site_fract_z
O1	O	1.113716	0.133240	-0.076181
O2	O	0.872971	0.149822	-0.076196
O3	O	0.988005	-0.009370	-0.076183
O4	O	0.998682	0.292432	-0.076194
O5	O	0.987996	-0.009372	0.076298
O6	O	0.872962	0.149819	0.076285
O7	O	1.113707	0.133238	0.076299
Cu8	Cu	0.993333	0.141528	0.090215
Cu9	Cu	0.993344	0.141531	-0.090111
O10	O	0.998673	0.292430	0.076287
C11	C	0.841938	0.149149	0.000043
C12	C	0.749483	0.147135	0.000037
C13	C	0.534343	0.236914	0.000045
C14	C	0.447471	0.235014	0.000051
C15	C	0.452341	0.046138	0.000054
C16	C	0.539211	0.048040	0.000054
C17	C	0.580209	0.143431	0.000045
C18	C	0.406468	0.139629	0.000050
C19	C	0.312278	0.137568	0.000057
C20	C	0.674405	0.145492	0.000040
C21	C	0.984394	-0.047991	0.000056
C22	C	0.973637	-0.163064	0.000054
C23	C	1.102954	-0.404066	0.000043
C24	C	1.092851	-0.512188	0.000041
C25	C	0.943328	-0.487433	0.000041
C26	C	0.953431	-0.379311	0.000043
C27	C	1.033247	-0.337632	0.000046
C28	C	1.043349	-0.229507	0.000054
C29	C	0.893827	-0.204754	0.000048
C30	C	0.883724	-0.312876	0.000046
C31	C	1.144739	0.133911	0.000059
C32	C	1.237195	0.135924	0.000058
C33	C	1.002284	0.331050	0.000045
C34	C	1.013041	0.446124	0.000041
N35	N	0.993332	0.141526	0.217047
N36	N	0.993352	0.141526	-0.216943
C37	C	1.044290	0.071059	0.452059
C38	C	1.044292	0.071057	0.548040
C39	C	0.942388	0.211995	0.548038
C40	C	0.942382	0.211992	0.452059
C41	C	0.993338	0.141525	0.404071
C42	C	0.993346	0.141526	0.596032
C43	C	0.993348	0.141524	0.700099
C44	C	0.993335	0.141526	0.299998
H45	H	1.108339	-0.195574	0.000059
C46	C	0.886338	0.289503	0.600833
N47	N	0.844120	0.347883	0.640598
C48	C	0.855538	-0.533301	0.000048
N49	N	0.789414	-0.567849	0.000059
H50	H	0.576557	-0.028091	0.000057
H51	H	0.818741	-0.346827	0.000041
C52	C	1.190750	-0.358216	0.000050
N53	N	1.256880	-0.323684	0.000055
C54	C	0.817145	-0.131666	0.000052
N55	N	0.759389	-0.076616	0.000057
C56	C	1.169535	-0.585264	0.000044
N57	N	1.227296	-0.640304	0.000048
C58	C	1.100335	-0.006464	0.399276
N59	N	1.142547	-0.064861	0.359523
H60	H	0.418949	-0.031526	0.000066
H61	H	0.410130	0.311138	0.000052
H62	H	0.900887	0.269375	0.412985
C63	C	0.579438	0.341847	0.000046
N64	N	0.613401	0.420885	0.000052
C65	C	1.100336	-0.006470	0.600821
N66	N	1.142547	-0.064870	0.640576
