data_functionalizedCrystal
_audit_creation_method	'MofGen! by Chris Wilmer'
_symmetry_space_group_name_H-M	'P1'
_symmetry_Int_Tables_number	1
_symmetry_cell_setting	triclinic
loop_
_symmetry_equiv_pos_as_xyz
  x,y,z
_cell_length_a	17.699077
_cell_length_b	23.532407
_cell_length_c	22.610064
_cell_angle_alpha	89.999397
_cell_angle_beta	89.992344
_cell_angle_gamma	83.064627
loop_
_atom_site_label
_atom_site_type_symbol
_atom_site_fract_x
_atom_site_fract_y
_atom_site_fract_z
O1	O	1.003719	0.071995	-0.049183
O2	O	1.503719	0.571995	0.450817
O3	O	0.783292	0.081368	-0.049186
O4	O	1.283292	0.581368	0.450814
O5	O	0.900152	-0.006231	-0.049174
O6	O	1.400152	0.493769	0.450826
O7	O	0.886858	0.159594	-0.049196
O8	O	1.386858	0.659594	0.450804
O9	O	0.900132	-0.006219	0.049196
O10	O	1.400132	0.493781	0.549196
O11	O	0.783271	0.081381	0.049183
O12	O	1.283271	0.581381	0.549183
O13	O	1.003698	0.072007	0.049186
O14	O	1.503698	0.572007	0.549186
Zn15	Zn	0.893481	0.076696	0.064803
Zn16	Zn	1.393481	0.576696	0.564803
Zn17	Zn	0.893509	0.076679	-0.064803
Zn18	Zn	1.393509	0.576679	0.435197
O19	O	0.886838	0.159607	0.049174
O20	O	1.386838	0.659607	0.549174
C21	C	0.755086	0.081039	-0.000002
C22	C	1.255086	0.581039	0.499998
C23	C	0.671073	0.080033	-0.000003
C24	C	1.171073	0.580033	0.499997
C25	C	0.631597	0.079566	0.053619
C26	C	1.131597	0.579566	0.553619
C27	C	0.552659	0.078612	0.053619
C28	C	1.052659	0.578612	0.553619
C29	C	0.513198	0.078129	-0.000002
C30	C	1.013198	0.578129	0.499998
C31	C	0.552681	0.078594	-0.053628
C32	C	1.052681	0.578594	0.446372
C33	C	0.631617	0.079544	-0.053628
C34	C	1.131617	0.579544	0.446372
C35	C	0.234337	0.074762	-0.053629
C36	C	0.734337	0.574762	0.446371
C37	C	0.155394	0.073813	-0.053624
C38	C	0.655394	0.573813	0.446376
C39	C	0.155378	0.073829	0.053619
C40	C	0.655378	0.573829	0.553619
C41	C	0.234315	0.074780	0.053619
C42	C	0.734315	0.574780	0.553619
C43	C	0.273791	0.075242	-0.000007
C44	C	0.773791	0.575242	0.499993
C45	C	0.359384	0.076275	-0.000007
C46	C	0.859384	0.576275	0.499993
C47	C	0.427606	0.077099	-0.000003
C48	C	0.927606	0.577099	0.499997
C49	C	0.899803	-0.027442	0.000012
C50	C	1.399803	0.472558	0.500012
C51	C	0.898786	-0.090662	0.000017
C52	C	1.398786	0.409338	0.500017
C53	C	0.961557	-0.489586	-0.000014
C54	C	1.461557	0.010414	0.499986
C55	C	0.960612	-0.548989	-0.000019
C56	C	1.460612	-0.048989	0.499981
O57	O	1.018802	-0.585567	-0.000040
O58	O	1.518802	-0.085567	0.499960
N59	N	0.891138	-0.571813	-0.000020
N60	N	1.391138	-0.071813	0.499980
C61	C	0.822606	-0.535231	-0.000022
C62	C	1.322606	-0.035231	0.499978
O63	O	0.763427	-0.560100	-0.000023
O64	O	1.263427	-0.060100	0.499977
C65	C	0.823552	-0.475830	-0.000022
C66	C	1.323552	0.024170	0.499978
C67	C	0.893030	-0.453009	-0.000015
C68	C	1.393030	0.046991	0.499985
C69	C	1.031029	-0.466764	-0.000008
C70	C	1.531029	0.033236	0.499992
C71	C	1.031975	-0.407365	-0.000003
C72	C	1.531975	0.092635	0.499997
C73	C	0.963448	-0.370788	-0.000003
C74	C	1.463448	0.129212	0.499997
C75	C	0.893975	-0.393610	-0.000009
C76	C	1.393975	0.106390	0.499991
C77	C	0.755021	-0.439249	-0.000028
C78	C	1.255021	0.060751	0.499972
C79	C	0.755973	-0.379844	-0.000028
C80	C	1.255973	0.120156	0.499972
C81	C	0.825451	-0.357023	-0.000022
C82	C	1.325451	0.142977	0.499978
C83	C	0.826393	-0.297634	-0.000004
C84	C	1.326393	0.202366	0.499996
N85	N	0.895867	-0.274809	-0.000003
N86	N	1.395867	0.225191	0.499997
C87	C	0.964394	-0.311386	-0.000003
C88	C	1.464394	0.188614	0.499997
C89	C	0.820624	-0.659980	-0.000024
C90	C	1.320624	-0.159980	0.499976
C91	C	0.819677	-0.719380	-0.000020
C92	C	1.319677	-0.219380	0.499980
C93	C	0.957683	-0.733133	-0.000018
C94	C	1.457683	-0.233133	0.499982
C95	C	0.958629	-0.673732	-0.000017
C96	C	1.458629	-0.173732	0.499983
C97	C	0.890097	-0.637155	-0.000023
C98	C	1.390097	-0.137155	0.499977
C99	C	0.966374	-0.186644	0.000009
C100	C	1.466374	0.313356	0.500009
C101	C	0.967313	-0.127239	0.000017
C102	C	1.467313	0.372761	0.500017
C103	C	0.829307	-0.113491	0.000012
C104	C	1.329307	0.386509	0.500012
C105	C	0.828368	-0.172891	0.000007
C106	C	1.328368	0.327109	0.500007
C107	C	0.896907	-0.209466	0.000004
C108	C	1.396907	0.290534	0.500004
O109	O	0.768234	-0.261021	0.000014
O110	O	1.268234	0.238979	0.500014
O111	O	1.023563	-0.286509	-0.000009
O112	O	1.523563	0.213491	0.499991
C113	C	1.031904	0.072336	0.000001
C114	C	1.531904	0.572336	0.500001
C115	C	1.115917	0.073342	-0.000002
C116	C	1.615917	0.573342	0.499998
C117	C	0.887187	0.180817	-0.000014
C118	C	1.387187	0.680817	0.499986
C119	C	0.888204	0.244037	-0.000022
C120	C	1.388204	0.744037	0.499978
N121	N	0.893468	0.076707	0.153255
N122	N	1.393468	0.576707	0.653255
N123	N	0.893528	0.076664	-0.153255
N124	N	1.393528	0.576664	0.346745
C125	C	0.945257	0.037896	0.561902
C126	C	1.445257	0.537896	1.061902
C127	C	0.945260	0.037892	0.623822
C128	C	1.445260	0.537892	1.123822
O129	O	0.989260	0.004902	0.655846
O130	O	1.489260	0.504902	1.155846
N131	N	0.893508	0.076668	0.654792
N132	N	1.393508	0.576668	1.154792
C133	C	0.841743	0.115446	0.623839
C134	C	1.341743	0.615446	1.123839
O135	O	0.797724	0.148427	0.655868
O136	O	1.297724	0.648427	1.155868
C137	C	0.841736	0.115447	0.561921
C138	C	1.341736	0.615447	1.061921
C139	C	0.893497	0.076673	0.530954
C140	C	1.393497	0.576673	1.030954
C141	C	0.997013	-0.000875	0.530935
C142	C	1.497013	0.499125	1.030935
C143	C	0.997010	-0.000870	0.469020
C144	C	1.497010	0.499130	0.969020
C145	C	0.945250	0.037906	0.438071
C146	C	1.445250	0.537906	0.938071
C147	C	0.893494	0.076678	0.469038
C148	C	1.393494	0.576678	0.969038
C149	C	0.789969	0.154222	0.530969
C150	C	1.289969	0.654222	1.030969
C151	C	0.789966	0.154219	0.469046
C152	C	1.289966	0.654219	0.969046
C153	C	0.841727	0.115445	0.438079
C154	C	1.341727	0.615445	0.938079
C155	C	0.841732	0.115459	0.376174
C156	C	1.341732	0.615459	0.876174
N157	N	0.893484	0.076684	0.345204
N158	N	1.393484	0.576684	0.845204
C159	C	0.945243	0.037907	0.376152
C160	C	1.445243	0.537907	0.876152
C161	C	0.841761	0.115440	0.753873
C162	C	1.341761	0.615440	1.253873
C163	C	0.841771	0.115442	0.815791
C164	C	1.341771	0.615442	1.315791
C165	C	0.945287	0.037888	0.815769
C166	C	1.445287	0.537888	1.315769
C167	C	0.945280	0.037889	0.753850
C168	C	1.445280	0.537889	1.253850
C169	C	0.893513	0.076665	0.722903
C170	C	1.393513	0.576665	1.222903
C171	C	0.945233	0.037921	0.246125
C172	C	1.445233	0.537921	0.746125
C173	C	0.945228	0.037931	0.184204
C174	C	1.445228	0.537931	0.684204
C175	C	0.841709	0.115483	0.184231
C176	C	1.341709	0.615483	0.684231
C177	C	0.841717	0.115475	0.246146
C178	C	1.341717	0.615475	0.746146
C179	C	0.893482	0.076690	0.277092
C180	C	1.393482	0.576690	0.777092
O181	O	0.797752	0.148431	0.344111
O182	O	1.297752	0.648431	0.844111
O183	O	0.989249	0.004927	0.344116
O184	O	1.489249	0.504927	0.844116
H185	H	0.266469	0.075136	-0.097294
H186	H	0.766469	0.575136	0.402706
N187	N	0.115066	0.073357	0.108404
N188	N	0.615066	0.573357	0.608404
N189	N	0.116597	0.113599	0.144299
N190	N	0.616597	0.613599	0.644299
H191	H	0.088129	0.113267	0.182991
H192	H	0.588129	0.613267	0.682991
H193	H	0.764813	-0.630201	-0.000023
H194	H	1.264813	-0.130201	0.499977
N195	N	0.998090	-0.001680	0.152564
N196	N	1.498090	0.498320	0.652564
N197	N	0.998083	-0.001675	0.097280
N198	N	1.498083	0.498325	0.597280
H199	H	1.035414	-0.029650	0.074934
H200	H	1.535414	0.470350	0.574934
H201	H	0.799569	0.147056	0.159023
H202	H	1.299569	0.647056	0.659023
N203	N	1.101043	-0.504112	0.000001
N204	N	1.601043	-0.004112	0.500001
N205	N	1.147332	-0.502069	0.041471
N206	N	1.647332	-0.002069	0.541471
H207	H	1.196785	-0.528442	0.041483
H208	H	1.696785	-0.028442	0.541483
H209	H	0.123267	0.073419	-0.097292
H210	H	0.623267	0.573419	0.402708
H211	H	1.023892	-0.108662	0.000024
H212	H	1.523892	0.391338	0.500024
N213	N	0.671887	0.080073	0.108398
N214	N	1.171887	0.580073	0.608398
N215	N	0.636627	0.079660	0.156271
N216	N	1.136627	0.579660	0.656271
H217	H	0.665079	0.080020	0.194961
H218	H	1.165079	0.580020	0.694961
N219	N	0.788837	0.155079	0.277776
N220	N	1.288837	0.655079	0.777776
N221	N	0.718890	0.154359	0.270862
N222	N	1.218890	0.654359	0.770862
H223	H	0.681536	0.182326	0.293197
H224	H	1.181536	0.682326	0.793197
H225	H	0.663758	0.079926	-0.097293
H226	H	1.163758	0.579926	0.402707
N227	N	0.759319	-0.076114	0.000017
N228	N	1.259319	0.423886	0.500017
N229	N	0.760181	-0.023079	0.000020
N230	N	1.260181	0.476921	0.500020
H231	H	0.710752	0.003320	0.000020
H232	H	1.210752	0.503320	0.500020
N233	N	0.512348	0.078131	0.108398
N234	N	1.012348	0.578131	0.608398
N235	N	0.547589	0.078564	0.156270
N236	N	1.047589	0.578564	0.656270
H237	H	0.519121	0.078222	0.194961
H238	H	1.019121	0.578222	0.694961
N239	N	0.274621	0.075284	0.108392
N240	N	0.774621	0.575284	0.608392
N241	N	0.258518	0.115311	0.144291
N242	N	0.758518	0.615311	0.644291
H243	H	0.286984	0.115666	0.182976
H244	H	0.786984	0.615666	0.682976
N245	N	0.512364	0.078094	-0.108397
N246	N	1.012364	0.578094	0.391603
N247	N	0.441886	0.077246	-0.108390
N248	N	0.941886	0.577246	0.391610
H249	H	0.413412	0.076894	-0.147072
H250	H	0.913412	0.576894	0.352928
N251	N	1.036391	-0.223991	0.000004
N252	N	1.536391	0.276009	0.500004
N253	N	1.098409	-0.203597	0.000010
N254	N	1.598409	0.296403	0.500010
H255	H	1.147860	-0.229972	0.000009
H256	H	1.647860	0.270028	0.500009
N257	N	0.998112	-0.001703	0.277720
N258	N	1.498112	0.498297	0.777720
N259	N	1.044314	-0.036315	0.250054
N260	N	1.544314	0.463685	0.750054
H261	H	1.081663	-0.064298	0.272367
H262	H	1.581663	0.435702	0.772367
N263	N	1.102952	-0.384068	0.000002
N264	N	1.602952	0.115932	0.500002
N265	N	1.164126	-0.416742	-0.000000
N266	N	1.664126	0.083258	0.500000
H267	H	1.214258	-0.400293	0.000001
H268	H	1.714258	0.099707	0.500001
H269	H	1.015204	-0.655155	-0.000012
H270	H	1.515204	-0.155155	0.499988
N271	N	1.027677	-0.770511	-0.000014
N272	N	1.527677	-0.270511	0.499986
N273	N	1.026814	-0.823546	-0.000015
N274	N	1.526814	-0.323546	0.499985
H275	H	1.076244	-0.849945	-0.000010
H276	H	1.576244	-0.349945	0.499990
N277	N	0.737088	0.193839	0.437444
N278	N	1.237088	0.693839	0.937444
N279	N	0.737724	0.246478	0.444368
N280	N	1.237724	0.746478	0.944368
H281	H	0.700381	0.274461	0.422051
H282	H	1.200381	0.774461	0.922051
H283	H	0.763101	-0.737955	-0.000015
H284	H	1.263101	-0.237955	0.499985
H285	H	0.698445	-0.457819	-0.000037
H286	H	1.198445	0.042181	0.499963
N287	N	0.685960	-0.342491	-0.000041
N288	N	1.185960	0.157509	0.499959
N289	N	0.623938	-0.362880	-0.000050
N290	N	1.123938	0.137120	0.499950
H291	H	0.574490	-0.336501	-0.000060
H292	H	1.074490	0.163499	0.499940
N293	N	0.757393	-0.196196	0.000019
N294	N	1.257393	0.303804	0.500019
N295	N	0.696214	-0.163528	0.000028
N296	N	1.196214	0.336472	0.500028
H297	H	0.646086	-0.179983	0.000034
H298	H	1.146086	0.320017	0.500034
N299	N	1.049942	-0.040440	0.437402
N300	N	1.549942	0.459560	0.937402
N301	N	1.096183	-0.075029	0.465052
N302	N	1.596183	0.424971	0.965052
H303	H	1.133589	-0.102964	0.442726
H304	H	1.633589	0.397036	0.942726
H305	H	0.987428	0.006315	0.728641
H306	H	1.487428	0.506315	1.228641
N307	N	1.049890	-0.040494	0.562533
N308	N	1.549890	0.459506	1.062533
N309	N	1.096090	-0.075106	0.534865
N310	N	1.596090	0.424894	1.034865
H311	H	1.133442	-0.103088	0.557176
H312	H	1.633442	0.396912	1.057176
H313	H	0.987431	0.006313	0.840979
H314	H	1.487431	0.506313	1.340979
H315	H	0.799630	0.147022	0.841000
H316	H	1.299630	0.647022	1.341000
H317	H	0.799608	0.147021	0.728679
H318	H	1.299608	0.647021	1.228679
H319	H	0.747820	0.185795	0.556174
H320	H	1.247820	0.685795	1.056174
