data_functionalizedCrystal
_audit_creation_method	'MofGen! by Chris Wilmer'
_symmetry_space_group_name_H-M	'P1'
_symmetry_Int_Tables_number	1
_symmetry_cell_setting	triclinic
loop_
_symmetry_equiv_pos_as_xyz
  x,y,z
_cell_length_a	21.395364
_cell_length_b	15.297327
_cell_length_c	21.395364
_cell_angle_alpha	80.327192
_cell_angle_beta	90.017013
_cell_angle_gamma	99.721665
loop_
_atom_site_label
_atom_site_type_symbol
_atom_site_fract_x
_atom_site_fract_y
_atom_site_fract_z
Zn1	Zn	0.914670	-0.359086	0.397403
Zn2	Zn	1.248004	-0.025752	0.730737
Zn3	Zn	1.581337	0.307581	1.064070
Zn4	Zn	0.896466	-0.509909	0.310746
Zn5	Zn	1.229799	-0.176576	0.644080
Zn6	Zn	1.563133	0.156757	0.977413
Zn7	Zn	0.809899	-0.359087	0.292640
Zn8	Zn	1.143232	-0.025753	0.625974
Zn9	Zn	1.476566	0.307580	0.959307
Zn10	Zn	0.791727	-0.509964	0.415493
Zn11	Zn	1.125061	-0.176630	0.748826
Zn12	Zn	1.458394	0.156703	1.082160
O13	O	0.853191	-0.434511	0.354071
O14	O	1.186524	-0.101178	0.687404
O15	O	1.519857	0.232155	1.020737
O16	O	0.999936	-0.379069	0.385915
O17	O	1.333270	-0.045736	0.719248
O18	O	1.666603	0.287597	1.052582
O19	O	0.884969	-0.489880	0.220664
O20	O	1.218302	-0.156546	0.553997
O21	O	1.551636	0.176787	0.887331
O22	O	0.839021	-0.232823	0.291389
O23	O	1.172354	0.100510	0.624722
O24	O	1.505687	0.433843	0.958056
O25	O	0.986562	-0.489879	0.322249
O26	O	1.319895	-0.156545	0.655582
O27	O	1.653228	0.176788	0.988915
O28	O	0.915996	-0.232823	0.368358
O29	O	1.249329	0.100511	0.701691
O30	O	1.582662	0.433844	1.035025
O31	O	0.821369	-0.379071	0.207361
O32	O	1.154702	-0.045738	0.540695
O33	O	1.488035	0.287596	0.874028
O34	O	0.719808	-0.379124	0.308930
O35	O	1.053141	-0.045791	0.642263
O36	O	1.386474	0.287543	0.975597
O37	O	0.808050	-0.489972	0.500774
O38	O	1.141383	-0.156639	0.834107
O39	O	1.474716	0.176695	1.167441
O40	O	0.706457	-0.489973	0.399190
O41	O	1.039790	-0.156640	0.732523
O42	O	1.373124	0.176694	1.065856
O43	O	0.898375	-0.379122	0.487483
O44	O	1.231709	-0.045789	0.820817
O45	O	1.565042	0.287544	1.154150
O46	O	0.867349	-0.636179	0.339789
O47	O	1.200682	-0.302846	0.673123
O48	O	1.534015	0.030487	1.006456
O49	O	0.790398	-0.636219	0.416746
O50	O	1.123731	-0.302886	0.750080
O51	O	1.457064	0.030447	1.083413
C52	C	0.690398	-0.434555	0.354058
C53	C	1.023731	-0.101222	0.687392
C54	C	1.357064	0.232112	1.020725
C55	C	0.620752	-0.434596	0.354071
C56	C	0.954085	-0.101262	0.687404
C57	C	1.287418	0.232071	1.020737
C58	C	0.595014	-0.376992	0.387295
C59	C	0.928347	-0.043658	0.720628
C60	C	1.261680	0.289675	1.053962
C61	C	0.529581	-0.376968	0.387295
C62	C	0.862915	-0.043634	0.720628
C63	C	1.196248	0.289699	1.053961
C64	C	0.489887	-0.434564	0.354078
C65	C	0.823221	-0.101230	0.687412
C66	C	1.156554	0.232103	1.020745
C67	C	0.515633	-0.492172	0.320846
C68	C	0.848966	-0.158839	0.654180
C69	C	1.182299	0.174495	0.987513
C70	C	0.581065	-0.492188	0.320843
C71	C	0.914398	-0.158854	0.654176
C72	C	1.247731	0.174479	0.987509
C73	C	0.376401	-0.515818	0.358803
C74	C	0.709735	-0.182484	0.692136
C75	C	1.043068	0.150849	1.025469
C76	C	0.310970	-0.515803	0.358811
C77	C	0.644303	-0.182470	0.692145
C78	C	0.977637	0.150863	1.025478
C79	C	0.288072	-0.434514	0.354086
C80	C	0.621406	-0.101181	0.687420
C81	C	0.954739	0.232153	1.020753
C82	C	0.330614	-0.353237	0.349366
C83	C	0.663948	-0.019903	0.682699
C84	C	0.997281	0.313430	1.016032
C85	C	0.396047	-0.353253	0.349362
C86	C	0.729380	-0.019919	0.682695
C87	C	1.062713	0.313414	1.016029
C88	C	0.418936	-0.434553	0.354078
C89	C	0.752270	-0.101219	0.687412
C90	C	1.085603	0.232114	1.020745
C91	C	0.191386	-0.376879	0.387312
C92	C	0.524719	-0.043546	0.720645
C93	C	0.858052	0.289787	1.053978
C94	C	0.125952	-0.376854	0.387307
C95	C	0.459285	-0.043520	0.720640
C96	C	0.792619	0.289813	1.053973
C97	C	0.112004	-0.492066	0.320863
C98	C	0.445337	-0.158733	0.654196
C99	C	0.778670	0.174601	0.987529
C100	C	0.177437	-0.492083	0.320864
C101	C	0.510770	-0.158750	0.654197
C102	C	0.844104	0.174583	0.987530
C103	C	0.217124	-0.434491	0.354091
C104	C	0.550457	-0.101158	0.687425
C105	C	0.883791	0.232175	1.020758
C106	C	0.824943	-0.668938	0.382209
C107	C	1.158276	-0.335605	0.715543
C108	C	1.491610	-0.002271	1.048876
C109	C	0.812916	-0.769227	0.394268
C110	C	1.146249	-0.435893	0.727601
C111	C	1.479582	-0.102560	1.060935
C112	C	0.939409	-1.051715	0.268099
C113	C	1.272743	-0.718382	0.601432
C114	C	1.606076	-0.385048	0.934765
C115	C	0.950709	-0.957489	0.256766
C116	C	1.284042	-0.624155	0.590099
C117	C	1.617376	-0.290822	0.923432
C118	C	0.916262	-0.910419	0.291140
C119	C	1.249595	-0.577085	0.624474
C120	C	1.582929	-0.243752	0.957807
C121	C	0.870513	-0.957584	0.336850
C122	C	1.203846	-0.624251	0.670183
C123	C	1.537179	-0.290917	1.003517
C124	C	0.859208	-1.051819	0.348181
C125	C	1.192541	-0.718486	0.681514
C126	C	1.525875	-0.385153	1.014847
C127	C	0.836061	-0.910523	0.371222
C128	C	1.169394	-0.577190	0.704556
C129	C	1.502727	-0.243856	1.037889
C130	C	0.790311	-0.957688	0.416932
C131	C	1.123645	-0.624355	0.750265
C132	C	1.456978	-0.291022	1.083598
C133	C	0.779009	-1.051915	0.428261
C134	C	1.112343	-0.718581	0.761594
C135	C	1.445676	-0.385248	1.094927
C136	C	0.813457	-1.098985	0.393886
C137	C	1.146790	-0.765651	0.727219
C138	C	1.480123	-0.432318	1.060553
C139	C	0.847365	-0.816288	0.359892
C140	C	1.180699	-0.482954	0.693225
C141	C	1.514032	-0.149621	1.026558
C142	C	0.767164	-0.816392	0.439974
C143	C	1.100497	-0.483059	0.773307
C144	C	1.433831	-0.149725	1.106640
C145	C	0.755864	-0.910618	0.451306
C146	C	1.089198	-0.577285	0.784640
C147	C	1.422531	-0.243952	1.117973
C148	C	1.016619	-0.434468	0.354084
C149	C	1.349953	-0.101135	0.687417
C150	C	1.683286	0.232199	1.020750
C151	C	1.086263	-0.434449	0.354089
C152	C	1.419596	-0.101116	0.687422
C153	C	1.752929	0.232217	1.020756
C154	C	0.853216	-0.434553	0.517499
C155	C	1.186549	-0.101220	0.850832
C156	C	1.519883	0.232114	1.184166
C157	C	0.853227	-0.434571	0.587142
C158	C	1.186560	-0.101238	0.920476
C159	C	1.519894	0.232096	1.253809
C160	C	0.881566	-0.199169	0.325836
C161	C	1.214899	0.134164	0.659169
C162	C	1.548233	0.467498	0.992503
C163	C	0.893658	-0.098880	0.313804
C164	C	1.226991	0.234453	0.647137
C165	C	1.560324	0.567786	0.980471
C166	C	0.900252	-0.376861	0.612937
C167	C	1.233586	-0.043528	0.946271
C168	C	1.566919	0.289806	1.279604
C169	C	0.900245	-0.376846	0.678371
C170	C	1.233578	-0.043513	1.011704
C171	C	1.566911	0.289820	1.345038
C172	C	0.853216	-0.434558	0.718009
C173	C	1.186550	-0.101224	1.051342
C174	C	1.519883	0.232109	1.384676
C175	C	0.806183	-0.492271	0.692207
C176	C	1.139516	-0.158938	1.025540
C177	C	1.472849	0.174395	1.358873
C178	C	0.806188	-0.492278	0.626773
C179	C	1.139521	-0.158945	0.960107
C180	C	1.472855	0.174389	1.293440
C181	C	0.838461	-0.515840	0.831440
C182	C	1.171794	-0.182507	1.164774
C183	C	1.505128	0.150827	1.498107
C184	C	0.838460	-0.515835	0.896873
C185	C	1.171793	-0.182501	1.230206
C186	C	1.505126	0.150832	1.563539
C187	C	0.853196	-0.434536	0.919827
C188	C	1.186529	-0.101203	1.253161
C189	C	1.519863	0.232130	1.586494
C190	C	0.867947	-0.353241	0.877341
C191	C	1.201280	-0.019907	1.210675
C192	C	1.534614	0.313426	1.544008
C193	C	0.867952	-0.353247	0.811908
C194	C	1.201286	-0.019914	1.145241
C195	C	1.534619	0.313419	1.478575
C196	C	0.853205	-0.434556	0.788961
C197	C	1.186538	-0.101223	1.122295
C198	C	1.519872	0.232110	1.455628
C199	C	0.900216	-0.376806	1.016572
C200	C	1.233549	-0.043472	1.349906
C201	C	1.566883	0.289861	1.683239
C202	C	0.900204	-0.376790	1.082007
C203	C	1.233537	-0.043456	1.415340
C204	C	1.566871	0.289877	1.748674
C205	C	0.806144	-0.492223	1.095843
C206	C	1.139477	-0.158889	1.429176
C207	C	1.472811	0.174444	1.762509
C208	C	0.806154	-0.492231	1.030408
C209	C	1.139487	-0.158898	1.363742
C210	C	1.472820	0.174436	1.697075
C211	C	0.853193	-0.434524	0.990777
C212	C	1.186526	-0.101190	1.324110
C213	C	1.519859	0.232143	1.657444
C214	C	0.853165	-0.434497	1.191281
C215	C	1.186498	-0.101164	1.524615
C216	C	1.519832	0.232170	1.857948
C217	C	0.853174	-0.434500	1.121641
C218	C	1.186508	-0.101167	1.454974
C219	C	1.519841	0.232166	1.788307
H220	H	0.508622	-0.330055	0.414348
H221	H	0.841955	0.003278	0.747682
H222	H	1.175288	0.336612	1.081015
Br223	Br	0.742354	-0.570588	0.745999
Br224	Br	1.075687	-0.237255	1.079332
Br225	Br	1.409021	0.096078	1.412666
H226	H	0.826453	-0.582031	0.931460
H227	H	1.159786	-0.248697	1.264793
H228	H	1.493119	0.084636	1.598127
H229	H	0.767864	-0.539230	1.009407
H230	H	1.101197	-0.205897	1.342740
H231	H	1.434530	0.127437	1.676074
Br232	Br	0.245251	-0.298716	0.432401
Br233	Br	0.578584	0.034618	0.765734
Br234	Br	0.911917	0.367951	1.099068
Br235	Br	0.986150	-1.115599	0.221450
Br236	Br	1.319484	-0.782265	0.554783
Br237	Br	1.652817	-0.448932	0.888116
H238	H	0.602019	-0.539097	0.293787
H239	H	0.935353	-0.205764	0.627120
H240	H	1.268686	0.127569	0.960453
Br241	Br	0.212371	-0.570258	0.275765
Br242	Br	0.545704	-0.236924	0.609098
Br243	Br	0.879037	0.096409	0.942432
H244	H	0.879948	-0.287040	0.896029
H245	H	1.213281	0.046293	1.229362
H246	H	1.546614	0.379627	1.562696
Br247	Br	0.797842	-1.226868	0.408984
Br248	Br	1.131175	-0.893535	0.742317
Br249	Br	1.464509	-0.560201	1.075650
Br250	Br	0.887967	-0.242924	0.754251
Br251	Br	1.221300	0.090409	1.087584
Br252	Br	1.554634	0.423743	1.420918
H253	H	0.826295	-0.582026	0.812755
H254	H	1.159629	-0.248693	1.146088
H255	H	1.492962	0.084641	1.479422
H256	H	0.311974	-0.287043	0.345518
H257	H	0.645307	0.046290	0.678852
H258	H	0.978640	0.379623	1.012185
H259	H	0.767891	-0.539271	0.605772
H260	H	1.101225	-0.205938	0.939106
H261	H	1.434558	0.127395	1.272439
Br262	Br	0.091022	-0.298663	0.432396
Br263	Br	0.424355	0.034670	0.765729
Br264	Br	0.757689	0.368003	1.099063
H265	H	0.079685	-0.538962	0.293817
H266	H	0.413019	-0.205628	0.627151
H267	H	0.746352	0.127705	0.960484
Br268	Br	0.407469	-0.626148	0.365204
Br269	Br	0.740802	-0.292814	0.698537
Br270	Br	1.074135	0.040519	1.031871
Br271	Br	0.964038	-0.298476	1.117017
Br272	Br	1.297371	0.034858	1.450350
Br273	Br	1.630705	0.368191	1.783683
H274	H	0.276337	-0.581984	0.362658
H275	H	0.609670	-0.248651	0.695991
H276	H	0.943003	0.084682	1.029325
Br277	Br	0.693779	-0.974639	0.513340
Br278	Br	1.027112	-0.641305	0.846674
Br279	Br	1.360446	-0.307972	1.180007
H280	H	0.739113	-0.778068	0.467963
H281	H	1.072446	-0.444735	0.801297
H282	H	1.405780	-0.111402	1.134630
Br283	Br	0.461765	-0.570332	0.275761
Br284	Br	0.795098	-0.236999	0.609094
Br285	Br	1.128431	0.096335	0.942428
H286	H	0.627323	-0.330095	0.414351
H287	H	0.960657	0.003238	0.747685
H288	H	1.293990	0.336572	1.081018
H289	H	0.938538	-0.329847	0.699377
H290	H	1.271871	0.003486	1.032710
H291	H	1.605204	0.336819	1.366044
H292	H	0.741750	-1.090314	0.465473
H293	H	1.075083	-0.756981	0.798806
H294	H	1.408417	-0.423647	1.132140
H295	H	0.884615	-0.777894	0.322674
H296	H	1.217948	-0.444561	0.656008
H297	H	1.551281	-0.111227	0.989341
Br298	Br	1.012800	-0.893485	0.194740
Br299	Br	1.346133	-0.560151	0.528073
Br300	Br	1.679466	-0.226818	0.861406
H301	H	0.938555	-0.329870	0.580673
H302	H	1.271888	0.003463	0.914006
H303	H	1.605221	0.336796	1.247340
Br304	Br	0.964051	-0.298488	0.962783
Br305	Br	1.297384	0.034845	1.296117
Br306	Br	1.630718	0.368178	1.629450
Br307	Br	0.931787	-0.782538	0.275949
Br308	Br	1.265121	-0.449205	0.609282
Br309	Br	1.598454	-0.115872	0.942616
H310	H	0.767847	-0.539203	1.128114
H311	H	1.101181	-0.205870	1.461448
H312	H	1.434514	0.127464	1.794781
H313	H	0.430682	-0.287074	0.345516
H314	H	0.764015	0.046259	0.678850
H315	H	1.097349	0.379593	1.012183
