data_functionalizedCrystal
_audit_creation_method	'MofGen! by Chris Wilmer'
_symmetry_space_group_name_H-M	'P1'
_symmetry_Int_Tables_number	1
_symmetry_cell_setting	triclinic
loop_
_symmetry_equiv_pos_as_xyz
  x,y,z
_cell_length_a	21.295417
_cell_length_b	12.827893
_cell_length_c	12.827893
_cell_angle_alpha	90.003786
_cell_angle_beta	90.015771
_cell_angle_gamma	90.030477
loop_
_atom_site_label
_atom_site_type_symbol
_atom_site_fract_x
_atom_site_fract_y
_atom_site_fract_z
Zn1	Zn	-0.250718	1.597400	0.590788
Zn2	Zn	-0.355959	1.597295	0.416023
Zn3	Zn	-0.250708	1.422689	0.416062
Zn4	Zn	-0.355953	1.422581	0.590723
O5	O	-0.303334	1.509991	0.503399
O6	O	-0.264685	1.743622	0.567616
O7	O	-0.341995	1.574135	0.269792
O8	O	-0.162620	1.445954	0.439283
O9	O	-0.342005	1.743545	0.439217
O10	O	-0.162627	1.574313	0.567653
O11	O	-0.264667	1.445852	0.269820
O12	O	-0.264662	1.276438	0.439220
O13	O	-0.341995	1.445769	0.736967
O14	O	-0.341985	1.276359	0.567542
O15	O	-0.264680	1.574208	0.737015
O16	O	-0.444048	1.574030	0.439154
O17	O	-0.444043	1.445668	0.567505
C18	C	-0.303322	1.238481	0.503379
C19	C	-0.303332	1.122328	0.503395
C20	C	-0.341654	1.070532	0.566795
C21	C	-0.341665	0.950481	0.566814
C22	C	-0.466886	1.509854	0.503341
C23	C	-0.536854	1.509891	0.503351
C24	C	-0.569702	1.576789	0.436587
C25	C	-0.635445	1.576838	0.436611
C26	C	-0.668337	1.509970	0.503387
C27	C	-0.635481	1.443068	0.570164
C28	C	-0.569739	1.443029	0.570146
N29	N	-0.771604	1.418552	0.511347
N30	N	-0.834055	1.418592	0.511358
C31	C	-0.866411	1.510088	0.503447
N32	N	-0.833957	1.601542	0.495504
N33	N	-0.771500	1.601501	0.495488
C34	C	-0.739622	1.510007	0.503414
C35	C	-0.970545	1.577044	0.436705
C36	C	-1.036289	1.577095	0.436736
C37	C	-1.036323	1.443316	0.570284
C38	C	-0.970581	1.443274	0.570258
C39	C	-0.937696	1.510137	0.503463
C40	C	-0.139144	1.510157	0.503480
C41	C	-0.069176	1.510228	0.503514
C42	C	-0.303338	1.509989	0.775969
C43	C	-0.303340	1.509987	0.892122
C44	C	-0.303347	1.782561	0.503419
C45	C	-0.303352	1.898714	0.503428
C46	C	-0.265083	1.446516	1.063965
C47	C	-0.265080	1.446515	0.943915
C48	C	-0.303345	1.509986	1.231889
C49	C	-0.303343	1.509987	1.115736
H50	H	-0.270544	0.943251	0.449142
C51	C	-1.072424	1.650687	0.363290
C52	C	-1.144737	1.650741	0.363312
C53	C	-1.180874	1.724333	0.289864
C54	C	-1.144697	1.797872	0.216394
C55	C	-1.072381	1.797822	0.216370
C56	C	-1.036244	1.724229	0.289817
H57	H	-1.171520	1.596300	0.417701
H58	H	-1.234407	1.724370	0.289883
H59	H	-1.171448	1.852350	0.162024
H60	H	-1.045597	1.852262	0.161981
H61	H	-0.982710	1.724192	0.289799
H62	H	-0.270529	1.077796	0.449134
C63	C	-0.533532	1.650346	0.363121
C64	C	-0.542611	1.641921	0.244318
C65	C	-0.506441	1.715482	0.170853
C66	C	-0.461191	1.797468	0.216191
C67	C	-0.452110	1.805896	0.335000
C68	C	-0.488281	1.732336	0.408465
H69	H	-0.576109	1.581228	0.210751
H70	H	-0.513164	1.709242	0.082903
H71	H	-0.434416	1.851921	0.161808
H72	H	-0.418612	1.866590	0.368567
H73	H	-0.481558	1.738575	0.496415
H74	H	-0.943834	1.388796	0.624620
H75	H	-0.374452	1.115064	0.621065
H76	H	-0.232326	1.392180	1.108519
H77	H	-0.336098	1.564329	0.936637
H78	H	-0.662195	1.631317	0.382244
H79	H	-0.232325	1.392172	0.899393
H80	H	-0.542994	1.388552	0.624515
C81	C	-0.671659	1.369513	0.643619
C82	C	-0.743972	1.369549	0.643639
C83	C	-0.780149	1.295996	0.717102
C84	C	-0.744013	1.222406	0.790546
C85	C	-0.671696	1.222368	0.790529
C86	C	-0.635519	1.295921	0.717066
H87	H	-0.770725	1.424027	0.589269
H88	H	-0.833683	1.296025	0.717114
H89	H	-0.770793	1.167958	0.844927
H90	H	-0.644943	1.167890	0.844899
H91	H	-0.581985	1.295892	0.717054
C92	C	-0.934364	1.650598	0.363246
C93	C	-0.943440	1.642183	0.244442
C94	C	-0.907260	1.715738	0.170985
C95	C	-0.862004	1.797709	0.216331
C96	C	-0.852925	1.806127	0.335141
C97	C	-0.889105	1.732572	0.408598
H98	H	-0.976943	1.581501	0.210869
H99	H	-0.913981	1.709506	0.083034
H100	H	-0.835221	1.852158	0.161954
H101	H	-0.819422	1.866809	0.368715
H102	H	-0.882385	1.738804	0.496550
H103	H	-1.063103	1.388876	0.624659
H104	H	-0.336096	1.564331	1.071182
C105	C	-0.385991	0.890316	0.640147
C106	C	-0.385939	0.770270	0.640060
C107	C	-0.430266	0.710102	0.713396
C108	C	-0.474645	0.769979	0.786818
C109	C	-0.474699	0.890031	0.786907
C110	C	-0.430372	0.950200	0.713571
H111	H	-0.353085	0.725939	0.585707
H112	H	-0.430226	0.621231	0.713330
H113	H	-0.507459	0.725439	0.841105
H114	H	-0.507553	0.934362	0.841261
H115	H	-0.430412	1.039070	0.713638
