data_functionalizedCrystal
_audit_creation_method	'MofGen! by Chris Wilmer'
_symmetry_space_group_name_H-M	'P1'
_symmetry_Int_Tables_number	1
_symmetry_cell_setting	triclinic
loop_
_symmetry_equiv_pos_as_xyz
  x,y,z
_cell_length_a	14.519709
_cell_length_b	10.540539
_cell_length_c	12.996460
_cell_angle_alpha	89.996006
_cell_angle_beta	90.000034
_cell_angle_gamma	84.102818
loop_
_atom_site_label
_atom_site_type_symbol
_atom_site_fract_x
_atom_site_fract_y
_atom_site_fract_z
O1	O	1.224765	0.166400	-0.085428
O2	O	1.558099	0.499733	0.247906
O3	O	1.891432	0.833067	0.581239
O4	O	0.956394	0.185995	-0.085459
O5	O	1.289727	0.519329	0.247875
O6	O	1.623061	0.852662	0.581208
O7	O	1.096702	-0.008571	-0.085441
O8	O	1.430036	0.324762	0.247892
O9	O	1.763369	0.658095	0.581225
O10	O	1.084457	0.360967	-0.085445
O11	O	1.417790	0.694300	0.247888
O12	O	1.751124	1.027633	0.581221
O13	O	1.096688	-0.008582	0.085693
O14	O	1.430021	0.324751	0.419026
O15	O	1.763354	0.658085	0.752359
O16	O	0.956379	0.185985	0.085675
O17	O	1.289713	0.519318	0.419008
O18	O	1.623046	0.852651	0.752342
O19	O	1.224751	0.166389	0.085706
O20	O	1.558084	0.499722	0.419039
O21	O	1.891417	0.833056	0.752373
Cu22	Cu	1.090563	0.176186	0.101316
Cu23	Cu	1.423897	0.509519	0.434650
Cu24	Cu	1.757230	0.842853	0.767983
Cu25	Cu	1.090581	0.176199	-0.101069
Cu26	Cu	1.423914	0.509532	0.232264
Cu27	Cu	1.757248	0.842865	0.565598
O28	O	1.084442	0.360956	0.085689
O29	O	1.417775	0.694289	0.419022
O30	O	1.751109	1.027623	0.752355
C31	C	0.922022	0.185077	0.000104
C32	C	1.255355	0.518410	0.333438
C33	C	1.588689	0.851743	0.666771
C34	C	0.819626	0.182340	0.000092
C35	C	1.152959	0.515674	0.333426
C36	C	1.486293	0.849007	0.666759
C37	C	0.444676	0.172265	0.000139
C38	C	0.778009	0.505599	0.333473
C39	C	1.111342	0.838932	0.666806
C40	C	0.548999	0.175063	0.000126
C41	C	0.882332	0.508397	0.333459
C42	C	1.215665	0.841730	0.666793
C43	C	0.632148	0.177303	0.000115
C44	C	0.965481	0.510636	0.333448
C45	C	1.298814	0.843969	0.666781
C46	C	0.736477	0.180101	0.000103
C47	C	1.069811	0.513434	0.333437
C48	C	1.403144	0.846768	0.666770
C49	C	1.095777	-0.055870	0.000124
C50	C	1.429110	0.277463	0.333457
C51	C	1.762443	0.610796	0.666790
C52	C	1.093029	-0.196790	0.000118
C53	C	1.426363	0.136543	0.333451
C54	C	1.759696	0.469876	0.666784
C55	C	0.987750	-0.379142	-0.000278
C56	C	1.321083	-0.045809	0.333055
C57	C	1.654416	0.287524	0.666388
C58	C	0.990535	-0.232553	0.000107
C59	C	1.323868	0.100781	0.333440
C60	C	1.657202	0.434114	0.666774
C61	C	1.142346	-0.258958	0.097849
C62	C	1.475679	0.074376	0.431183
C63	C	1.809012	0.407709	0.764516
C64	C	1.138848	-0.405467	0.097931
C65	C	1.472181	-0.072133	0.431265
C66	C	1.805514	0.261200	0.764598
C67	C	1.140949	-0.405994	-0.096680
C68	C	1.474282	-0.072660	0.236654
C69	C	1.807616	0.260673	0.569987
C70	C	1.141893	-0.259021	-0.097972
C71	C	1.475226	0.074312	0.235362
C72	C	1.808560	0.407645	0.568695
C73	C	1.259123	0.167308	0.000141
C74	C	1.592456	0.500641	0.333474
C75	C	1.925789	0.833974	0.666808
C76	C	1.361519	0.170044	0.000146
C77	C	1.694852	0.503378	0.333479
C78	C	2.028185	0.836711	0.666813
C79	C	1.085368	0.408255	0.000121
C80	C	1.418701	0.741588	0.333455
C81	C	1.752035	1.074922	0.666788
C82	C	1.088115	0.549175	0.000120
C83	C	1.421449	0.882508	0.333454
C84	C	1.754782	1.215842	0.666787
N85	N	1.090558	0.176176	0.243664
N86	N	1.423891	0.509509	0.576997
N87	N	1.757225	0.842843	0.910330
N88	N	1.090594	0.176198	-0.243416
N89	N	1.423927	0.509532	0.089917
N90	N	1.757261	0.842865	0.423250
C91	C	1.090580	0.176200	0.663478
C92	C	1.423913	0.509533	0.996811
C93	C	1.757246	0.842867	1.330145
C94	C	1.090571	0.176198	0.546673
C95	C	1.423904	0.509531	0.880006
C96	C	1.757238	0.842864	1.213339
C97	C	1.090569	0.176189	0.453574
C98	C	1.423903	0.509522	0.786908
C99	C	1.757236	0.842856	1.120241
C100	C	1.090560	0.176185	0.336762
C101	C	1.423893	0.509518	0.670095
C102	C	1.757226	0.842851	1.003429
H103	H	0.947268	-0.407325	-0.070364
H104	H	1.280601	-0.073991	0.262970
H105	H	1.613935	0.259342	0.596303
O106	O	1.236480	-0.470019	0.103840
O107	O	1.569814	-0.136686	0.437174
O108	O	1.903147	0.196647	0.770507
H109	H	1.285982	-0.396551	0.106635
H110	H	1.619315	-0.063218	0.439968
H111	H	1.952649	0.270115	0.773302
H112	H	1.214980	-0.453975	-0.097328
H113	H	1.548314	-0.120642	0.236005
H114	H	1.881647	0.212691	0.569338
H115	H	1.105809	-0.217790	-0.170271
H116	H	1.439142	0.115543	0.163063
H117	H	1.772475	0.448877	0.496396
O118	O	0.934327	-0.418608	0.092026
O119	O	1.267660	-0.085275	0.425359
O120	O	1.600993	0.248059	0.758693
H121	H	0.863587	-0.367465	0.090997
H122	H	1.196921	-0.034131	0.424330
H123	H	1.530254	0.299202	0.757664
H124	H	0.951445	-0.190402	0.070273
H125	H	1.284779	0.142931	0.403606
H126	H	1.618112	0.476264	0.736940
O127	O	1.242045	-0.230360	0.102695
O128	O	1.575379	0.102973	0.436029
O129	O	1.908712	0.436307	0.769362
H130	H	1.257540	-0.171389	0.035338
H131	H	1.590873	0.161945	0.368671
H132	H	1.924206	0.495278	0.702005
H133	H	1.102388	-0.433299	0.170979
H134	H	1.435721	-0.099965	0.504312
H135	H	1.769055	0.233368	0.837646
H136	H	1.108076	-0.216013	0.170570
H137	H	1.441409	0.117320	0.503903
H138	H	1.774742	0.450654	0.837236
O139	O	1.097019	-0.447317	-0.194806
O140	O	1.430352	-0.113983	0.138528
O141	O	1.763686	0.219350	0.471861
H142	H	1.037031	-0.500275	-0.175672
H143	H	1.370365	-0.166942	0.157662
H144	H	1.703698	0.166391	0.490995
O145	O	1.240880	-0.227959	-0.105786
O146	O	1.574214	0.105374	0.227547
O147	O	1.907547	0.438708	0.560880
H148	H	1.279872	-0.264784	-0.036708
H149	H	1.613205	0.068549	0.296626
H150	H	1.946538	0.401883	0.629959
H151	H	0.951730	-0.189549	-0.069951
H152	H	1.285063	0.143784	0.263382
H153	H	1.618396	0.477118	0.596716
