data_functionalizedCrystal
_audit_creation_method	'MofGen! by Chris Wilmer'
_symmetry_space_group_name_H-M	'P1'
_symmetry_Int_Tables_number	1
_symmetry_cell_setting	triclinic
loop_
_symmetry_equiv_pos_as_xyz
  x,y,z
_cell_length_a	12.811445
_cell_length_b	12.811415
_cell_length_c	11.295483
_cell_angle_alpha	88.701575
_cell_angle_beta	80.460739
_cell_angle_gamma	83.528277
loop_
_atom_site_label
_atom_site_type_symbol
_atom_site_fract_x
_atom_site_fract_y
_atom_site_fract_z
O1	O	1.412111	0.122594	-0.264745
O2	O	1.104367	0.140186	-0.233416
O3	O	1.264811	-0.020255	-0.233409
O4	O	1.251668	0.283035	-0.264752
O5	O	1.250719	-0.006185	-0.035356
O6	O	1.090275	0.154256	-0.035363
O7	O	1.398019	0.136664	-0.066692
Cu8	Cu	1.242860	0.146745	-0.032944
Cu9	Cu	1.259526	0.130105	-0.267164
O10	O	1.237575	0.297106	-0.066699
C11	C	1.057907	0.146665	-0.130073
C12	C	0.940463	0.144997	-0.117212
C13	C	0.735135	0.126541	-0.308986
C14	C	0.624787	0.124974	-0.296907
C15	C	0.609416	0.140302	-0.080977
C16	C	0.719764	0.141870	-0.093056
C17	C	0.782620	0.134987	-0.207064
C18	C	0.892971	0.136547	-0.219141
C19	C	0.877597	0.151883	-0.003213
C20	C	0.767249	0.150316	0.008866
C21	C	1.256597	-0.052021	-0.130067
C22	C	1.253103	-0.167637	-0.117208
C23	C	1.261883	-0.400221	-0.308985
C24	C	1.258601	-0.508853	-0.296908
C25	C	1.243247	-0.493533	-0.080980
C26	C	1.246530	-0.384902	-0.093056
C27	C	1.255850	-0.338250	-0.207063
C28	C	1.259140	-0.229617	-0.219139
C29	C	1.243779	-0.214299	-0.003210
C30	C	1.240496	-0.322930	0.008866
C31	C	1.444480	0.130185	-0.170037
C32	C	1.561924	0.131852	-0.182906
C33	C	1.245790	0.328872	-0.170043
C34	C	1.249285	0.444487	-0.182910
N35	N	1.231146	0.158448	0.131793
N36	N	1.271249	0.118394	-0.431901
C37	C	1.355573	0.034093	0.381081
C38	C	1.346728	0.042944	0.505743
C39	C	1.204607	0.184996	0.505784
C40	C	1.213452	0.176145	0.381122
C41	C	1.288938	0.100692	0.318774
C42	C	1.297788	0.091846	0.194108
C43	C	1.155662	0.233892	0.194152
C44	C	1.146817	0.242744	0.318815
H45	H	0.586129	0.118099	-0.379902
F46	F	0.802035	0.119204	-0.430318
F47	F	1.124264	0.265285	0.572155
F48	F	0.700342	0.157645	0.130194
H49	H	1.101407	0.288125	0.143408
H50	H	1.085355	0.304174	0.369593
H51	H	0.558219	0.145915	0.011842
F52	F	1.378129	0.011546	0.127755
F53	F	1.237366	-0.148337	0.105269
F54	F	1.271816	-0.350570	-0.430318
H55	H	0.916271	0.158759	0.079779
F56	F	1.269062	-0.179969	-0.340473
F57	F	1.233304	-0.543198	0.040346
F58	F	1.417648	-0.027942	0.572051
F59	F	0.959867	0.129219	-0.340476
F60	F	1.265020	-0.574804	-0.405388
H61	H	1.232905	-0.360929	0.101687
F62	F	1.435920	-0.046200	0.314723
