data_functionalizedCrystal
_audit_creation_method	'MofGen! by Chris Wilmer'
_symmetry_space_group_name_H-M	'P1'
_symmetry_Int_Tables_number	1
_symmetry_cell_setting	triclinic
loop_
_symmetry_equiv_pos_as_xyz
  x,y,z
_cell_length_a	15.538191
_cell_length_b	8.597213
_cell_length_c	14.750426
_cell_angle_alpha	96.489669
_cell_angle_beta	107.533656
_cell_angle_gamma	66.484382
loop_
_atom_site_label
_atom_site_type_symbol
_atom_site_fract_x
_atom_site_fract_y
_atom_site_fract_z
O1	O	0.084302	1.942890	-0.240511
O2	O	0.103701	1.489182	-0.202987
O3	O	-0.043986	1.804353	-0.229057
O4	O	0.231989	1.627719	-0.214440
O5	O	-0.007848	1.843298	-0.072619
O6	O	0.139839	1.528127	-0.046548
O7	O	0.120440	1.981835	-0.084072
Zn8	Zn	0.135877	1.761164	-0.040472
Zn9	Zn	0.088264	1.709853	-0.246587
O10	O	0.268127	1.666664	-0.058002
C11	C	0.121700	1.452005	-0.120082
C12	C	0.121480	1.283215	-0.106123
C13	C	-0.061193	1.842305	-0.152370
C14	C	-0.166303	1.897351	-0.156932
C15	C	-0.448780	1.350467	-0.111681
C16	C	-0.547548	1.402233	-0.115960
C17	C	-0.572817	1.693397	-0.140042
C18	C	-0.474051	1.641655	-0.135769
C19	C	-0.412039	1.470188	-0.121588
C20	C	-0.437310	1.761376	-0.145676
C21	C	-0.338551	1.709638	-0.141398
C22	C	-0.276532	1.538180	-0.127215
C23	C	-0.313280	1.418451	-0.117311
C24	C	-0.499322	1.932843	-0.159850
C25	C	-0.462581	2.052564	-0.169757
C26	C	-0.363822	2.000826	-0.165486
C27	C	-0.301803	1.829368	-0.151303
C28	C	-0.327074	2.120555	-0.175391
C29	C	-0.228315	2.068818	-0.171113
C30	C	-0.203044	1.777630	-0.147026
C31	C	0.285334	1.628711	-0.134691
C32	C	0.390442	1.573664	-0.130135
C33	C	0.102441	2.019011	-0.166979
C34	C	0.102659	2.187800	-0.180944
N35	N	0.168372	1.796194	0.100194
N36	N	0.055762	1.674839	-0.387254
C37	C	0.259059	1.894037	0.242848
C38	C	0.236305	1.869481	0.144374
C39	C	0.123160	1.747443	0.154477
C40	C	0.145900	1.771996	0.252953
C41	C	0.213851	1.845292	0.297131
C42	C	0.100693	1.723250	0.307236
C43	C	0.123435	1.747794	0.405704
C44	C	0.191385	1.821082	0.449890
C45	C	0.236593	1.869835	0.395599
C46	C	0.032748	1.649943	0.263058
C47	C	-0.012460	1.601198	0.317341
C48	C	0.010277	1.625752	0.415810
C49	C	0.078227	1.699041	0.459995
C50	C	-0.034931	1.576999	0.470100
C51	C	-0.012189	1.601543	0.568568
C52	C	0.100969	1.723584	0.558463
H53	H	-0.196116	1.496060	-0.123727
O54	O	-0.192533	2.184915	-0.180853
C55	C	-0.154902	2.143540	-0.260132
H56	H	-0.135385	2.002657	-0.276045
H57	H	-0.212303	2.221204	-0.324459
C58	C	-0.086592	2.356774	-0.218798
C59	C	-0.062614	2.183736	-0.238338
H60	H	-0.029667	2.381575	-0.205358
H61	H	-0.111948	2.384655	-0.165388
H62	H	-0.134428	2.421473	-0.272408
H63	H	-0.014789	2.119041	-0.184724
H64	H	-0.037248	2.155845	-0.291739
O65	O	0.324980	1.965472	0.285648
C66	C	0.291713	2.129223	0.247555
H67	H	0.238411	2.138261	0.173833
H68	H	0.253169	2.227420	0.295985
C69	C	0.444910	2.152138	0.330655
C70	C	0.379450	2.163235	0.240105
H71	H	0.499029	2.173124	0.326063
H72	H	0.467322	2.041819	0.356322
H73	H	0.412778	2.233970	0.371004
H74	H	0.411578	2.081390	0.199762
H75	H	0.357045	2.273542	0.214431
O76	O	-0.142677	1.611142	-0.133134
C77	C	-0.066088	1.592661	-0.048905
H78	H	-0.056024	1.718043	-0.031703
H79	H	-0.084804	1.554864	0.012121
C80	C	0.016900	1.300162	-0.083700
C81	C	0.029267	1.454155	-0.062576
H82	H	0.075719	1.214721	-0.092130
H83	H	-0.034701	1.312610	-0.140445
H84	H	0.001301	1.268688	-0.032842
H85	H	0.044854	1.485637	-0.113439
H86	H	0.080873	1.441709	-0.005840
O87	O	-0.100921	1.505702	0.427337
C88	C	-0.135967	1.467982	0.496361
H89	H	-0.080471	1.454906	0.569089
H90	H	-0.208484	1.574660	0.498207
C91	C	-0.219420	1.316398	0.381699
C92	C	-0.151254	1.300323	0.471023
H93	H	-0.228855	1.212983	0.366068
H94	H	-0.195813	1.341816	0.335195
H95	H	-0.279844	1.405303	0.383249
H96	H	-0.090830	1.211434	0.469469
H97	H	-0.174852	1.274887	0.517527
H98	H	0.086723	1.235235	-0.255677
O99	O	-0.583383	1.286053	-0.106479
C100	C	-0.658457	1.287068	-0.189262
H101	H	-0.690461	1.414499	-0.227373
H102	H	-0.627270	1.181153	-0.238403
C103	C	-0.700052	1.102597	-0.115020
C104	C	-0.739366	1.259116	-0.161824
H105	H	-0.749959	1.085348	-0.098097
H106	H	-0.649471	1.101908	-0.059248
H107	H	-0.674064	1.014353	-0.155978
H108	H	-0.765342	1.347358	-0.120862
H109	H	-0.789953	1.259820	-0.217588
H110	H	-0.067783	1.541515	0.281358
H111	H	0.137428	1.235765	-0.031384
O112	O	-0.387394	2.287049	-0.189325
C113	C	-0.464017	2.305519	-0.273523
H114	H	-0.440174	2.193216	-0.322034
H115	H	-0.531232	2.310168	-0.255203
C116	C	-0.518410	2.609047	-0.265129
C117	C	-0.489122	2.471122	-0.324715
H118	H	-0.533900	2.711202	-0.296705
H119	H	-0.466790	2.596605	-0.208402
H120	H	-0.574419	2.612898	-0.249868
H121	H	-0.433107	2.467260	-0.339965
H122	H	-0.540734	2.483567	-0.381446
O123	O	0.166891	1.795019	0.601262
C124	C	0.133624	1.958770	0.563169
H125	H	0.080322	1.967808	0.489448
H126	H	0.095080	2.056967	0.611599
C127	C	0.286821	1.981685	0.646270
C128	C	0.221361	1.992782	0.555720
H129	H	0.340940	2.002671	0.641678
H130	H	0.309233	1.871366	0.671937
H131	H	0.254689	2.063517	0.686618
H132	H	0.253489	1.910937	0.515377
H133	H	0.198956	2.103089	0.530046
H134	H	-0.262787	1.278824	-0.105770
H135	H	-0.398287	1.210841	-0.100140
H136	H	0.209903	1.841060	0.530069
H137	H	-0.623319	1.833006	-0.151584
O138	O	0.302515	1.941270	0.438399
C139	C	0.269248	2.105021	0.400306
H140	H	0.215946	2.114059	0.326584
H141	H	0.230704	2.203218	0.448736
C142	C	0.422445	2.127936	0.483406
C143	C	0.356984	2.139033	0.392856
H144	H	0.476564	2.148922	0.478814
H145	H	0.444857	2.017617	0.509073
H146	H	0.390312	2.209768	0.523755
H147	H	0.389113	2.057188	0.352513
H148	H	0.334580	2.249340	0.367182
H149	H	-0.513083	2.192173	-0.181299
H150	H	-0.579739	1.974959	-0.163341
O151	O	0.280319	1.916546	0.091622
C152	C	0.332640	1.773408	0.045320
H153	H	0.350803	1.653493	0.085537
H154	H	0.286157	1.768395	-0.030431
C155	C	0.405736	1.933094	-0.006650
C156	C	0.428052	1.785812	0.042749
H157	H	0.464589	1.940747	-0.008240
H158	H	0.370484	2.029532	0.024541
H159	H	0.366999	1.928898	-0.069771
H160	H	0.466778	1.790020	0.105872
H161	H	0.463313	1.689376	0.011569
H162	H	0.067837	1.687759	0.118495
H163	H	0.014239	1.629950	0.182879
H164	H	-0.048999	1.561844	0.612767
