data_functionalizedCrystal
_audit_creation_method	'MofGen! by Chris Wilmer'
_symmetry_space_group_name_H-M	'P1'
_symmetry_Int_Tables_number	1
_symmetry_cell_setting	triclinic
loop_
_symmetry_equiv_pos_as_xyz
  x,y,z
_cell_length_a	16.109301
_cell_length_b	10.489741
_cell_length_c	14.586319
_cell_angle_alpha	89.996488
_cell_angle_beta	89.999213
_cell_angle_gamma	84.000327
loop_
_atom_site_label
_atom_site_type_symbol
_atom_site_fract_x
_atom_site_fract_y
_atom_site_fract_z
O1	O	1.104141	0.163947	-0.076182
O2	O	0.862205	0.184350	-0.076196
O3	O	0.988678	-0.011529	-0.076183
O4	O	0.977668	0.359826	-0.076195
O5	O	0.988670	-0.011532	0.076298
O6	O	0.862196	0.184347	0.076284
O7	O	1.104132	0.163944	0.076299
Cu8	Cu	0.983164	0.174145	0.090214
Cu9	Cu	0.983174	0.174149	-0.090112
O10	O	0.977659	0.359823	0.076286
C11	C	0.831221	0.183522	0.000042
C12	C	0.738910	0.181044	0.000037
C13	C	0.517319	0.291514	0.000044
C14	C	0.430584	0.289175	0.000050
C15	C	0.449026	0.056771	0.000053
C16	C	0.535759	0.059111	0.000054
C17	C	0.569903	0.176486	0.000045
C18	C	0.396435	0.171808	0.000050
C19	C	0.302393	0.169272	0.000056
C20	C	0.663950	0.179022	0.000040
C21	C	0.987842	-0.059050	0.000057
C22	C	0.985354	-0.200644	0.000055
C23	C	0.904883	-0.267616	0.000043
C24	C	0.942893	-0.360292	0.075226
C25	C	0.942920	-0.360264	-0.075108
C26	C	1.023397	-0.291454	0.075300
C27	C	1.023414	-0.291417	-0.075102
C28	C	1.061482	-0.384066	0.000100
C29	C	1.135117	0.164772	0.000058
C30	C	1.227427	0.167250	0.000058
C31	C	0.978495	0.407344	0.000044
C32	C	0.980983	0.548938	0.000040
N33	N	0.983162	0.174142	0.217046
N34	N	0.983182	0.174142	-0.216944
C35	C	1.039183	0.087436	0.452058
C36	C	1.039186	0.087433	0.548040
C37	C	0.927155	0.260852	0.548038
C38	C	0.927149	0.260848	0.452058
C39	C	0.983168	0.174141	0.404071
C40	C	0.983176	0.174142	0.596032
C41	C	0.983178	0.174140	0.700099
C42	C	0.983165	0.174142	0.299997
H43	H	0.578575	-0.034565	0.000057
O44	O	0.872629	0.344951	0.594615
C45	C	0.728519	0.419674	0.623954
C46	C	0.790177	0.324339	0.571166
H47	H	0.661844	0.403061	0.605000
H48	H	0.738075	0.404785	0.700807
H49	H	0.740003	0.521829	0.605087
H50	H	0.778731	0.222146	0.589956
H51	H	0.780607	0.339340	0.494326
H52	H	0.881530	0.331455	0.412984
H53	H	0.545116	0.387088	0.000043
H54	H	0.387773	0.382843	0.000051
H55	H	0.838720	-0.217005	0.000115
O56	O	0.902353	-0.396577	0.151145
C57	C	0.898098	-0.401140	0.316237
C58	C	0.944083	-0.359954	0.230342
H59	H	0.931828	-0.371571	0.380290
H60	H	0.831342	-0.352786	0.316215
H61	H	0.897109	-0.509648	0.315788
H62	H	0.945136	-0.251462	0.230735
H63	H	1.010814	-0.408400	0.230397
H64	H	1.057413	-0.261117	0.138933
H65	H	1.127704	-0.434450	0.000146
O66	O	0.415953	-0.057319	-0.000070
C67	C	0.405137	-0.256624	-0.079101
C68	C	0.442661	-0.127473	-0.079059
H69	H	0.426702	-0.313369	-0.142966
H70	H	0.426757	-0.313564	-0.015332
H71	H	0.334116	-0.238505	-0.079061
H72	H	0.513684	-0.145475	-0.079132
H73	H	0.420976	-0.070575	-0.142823
O74	O	1.063883	-0.254991	-0.151020
C75	C	1.067254	-0.248399	-0.316101
C76	C	1.021340	-0.289698	-0.230191
H77	H	1.032887	-0.276467	-0.380131
H78	H	1.069265	-0.140093	-0.315065
H79	H	1.133648	-0.298145	-0.316700
H80	H	0.954926	-0.240042	-0.229535
H81	H	1.019397	-0.398016	-0.231259
H82	H	0.908865	-0.390732	-0.138675
O83	O	1.093623	0.003082	0.405585
C84	C	1.204772	-0.168882	0.415722
C85	C	1.143151	-0.073435	0.468463
H86	H	1.244843	-0.230753	0.466536
H87	H	1.168537	-0.232706	0.370820
H88	H	1.246595	-0.113776	0.370754
H89	H	1.101313	-0.128436	0.513480
H90	H	1.179438	-0.009612	0.513308
O91	O	1.093521	0.003258	0.594796
C92	C	1.143216	-0.073551	0.742656
C93	C	1.081622	0.021831	0.689820
H94	H	1.133629	-0.058550	0.819492
H95	H	1.131774	-0.175746	0.723858
H96	H	1.209893	-0.056910	0.723724
H97	H	1.014922	0.005308	0.708724
H98	H	1.093137	0.123993	0.708623
