data_functionalizedCrystal
_audit_creation_method	'MofGen! by Chris Wilmer'
_symmetry_space_group_name_H-M	'P1'
_symmetry_Int_Tables_number	1
_symmetry_cell_setting	triclinic
loop_
_symmetry_equiv_pos_as_xyz
  x,y,z
_cell_length_a	15.537937
_cell_length_b	16.109301
_cell_length_c	15.186229
_cell_angle_alpha	90.000894
_cell_angle_beta	90.003214
_cell_angle_gamma	114.637940
loop_
_atom_site_label
_atom_site_type_symbol
_atom_site_fract_x
_atom_site_fract_y
_atom_site_fract_z
O1	O	-1.250061	-0.270165	-0.073229
O2	O	-0.975758	-0.174133	-0.073227
O3	O	-1.120445	-0.345453	-0.073233
O4	O	-1.105374	-0.098845	-0.073223
O5	O	-1.120435	-0.345451	0.073225
O6	O	-0.975748	-0.174132	0.073230
O7	O	-1.250052	-0.270164	0.073229
Zn8	Zn	-1.112898	-0.222148	0.096483
Zn9	Zn	-1.112911	-0.222149	-0.096481
O10	O	-1.105365	-0.098844	0.073234
C11	C	-0.940653	-0.164084	0.000001
C12	C	-0.836064	-0.134155	0.000001
C13	C	-0.677398	-0.012841	0.000006
C14	C	-0.775676	-0.040974	0.000005
C15	C	-0.798190	-0.199240	0.000003
C16	C	-0.699912	-0.171120	0.000008
C17	C	-0.639523	-0.077920	0.000008
C18	C	-0.662038	-0.236199	0.000010
C19	C	-0.563768	-0.208081	0.000010
C20	C	-0.503373	-0.114885	0.000008
C21	C	-0.541254	-0.049802	0.000008
C22	C	-0.722428	-0.329399	0.000004
C23	C	-0.684554	-0.394478	0.000006
C24	C	-0.586282	-0.366361	0.000013
C25	C	-0.525887	-0.273164	0.000010
C26	C	-0.548402	-0.431444	0.000013
C27	C	-0.450132	-0.403326	0.000013
C28	C	-0.427618	-0.245047	0.000011
C29	C	-1.119830	-0.376243	-0.000007
C30	C	-1.117999	-0.467986	-0.000016
C31	C	-1.105980	-0.068054	0.000006
C32	C	-1.107810	0.023689	0.000010
C33	C	-0.285156	-0.280208	0.000003
C34	C	-0.389743	-0.310125	0.000013
N35	N	-1.112897	-0.222149	0.228175
C36	C	-1.026211	0.270573	-0.000003
C37	C	-1.027939	0.356772	-0.000009
C38	C	-1.199605	0.285122	-0.000006
C39	C	-1.197877	0.198924	-0.000006
C40	C	-1.111177	0.191653	0.000000
C41	C	-1.114632	0.364050	-0.000007
C42	C	-1.116506	0.457511	-0.000014
C43	C	-1.109304	0.098186	0.000006
N44	N	-1.112920	-0.222156	-0.228174
C45	C	-1.176986	-0.297997	0.453896
C46	C	-1.176989	-0.298000	0.546085
C47	C	-1.048824	-0.146304	0.546099
C48	C	-1.048818	-0.146304	0.453911
C49	C	-1.112904	-0.222152	0.407812
C50	C	-1.112913	-0.222154	0.592189
C51	C	-1.112916	-0.222156	0.692146
C52	C	-1.112900	-0.222150	0.307849
H53	H	-0.628225	0.063052	0.000018
N54	N	-0.979712	-0.064503	0.595828
H55	H	-1.015704	-0.038536	0.634069
H56	H	-0.939127	-0.016516	0.552590
H57	H	-0.996630	-0.084540	0.416387
N58	N	-1.246119	-0.379801	0.595786
H59	H	-1.210144	-0.405779	0.634040
H60	H	-1.286695	-0.427779	0.552531
H61	H	-0.419295	-0.456320	0.000014
N62	N	-1.289521	0.113793	0.000006
H63	H	-1.292635	0.076430	-0.054286
H64	H	-1.344655	0.131549	0.000043
H65	H	-0.378445	-0.169153	0.000023
N66	N	-0.397381	-0.084554	0.000026
H67	H	-0.364875	-0.015639	0.000029
H68	H	-0.378202	-0.108912	-0.054264
N69	N	-1.246102	-0.379800	0.404172
H70	H	-1.286697	-0.427848	0.447359
H71	H	-1.210044	-0.405690	0.365927
N72	N	-0.816524	0.029226	0.000010
H73	H	-0.887941	-0.002726	0.000009
H74	H	-0.794434	0.068695	-0.054284
H75	H	-0.492081	0.026091	0.000020
N76	N	-0.936300	0.441897	-0.000000
H77	H	-0.933191	0.479255	-0.054293
H78	H	-0.881169	0.424137	0.000039
H79	H	-1.270192	0.291054	-0.000003
N80	N	-0.863322	-0.299760	0.000006
H81	H	-0.904601	-0.314963	-0.054285
H82	H	-0.904529	-0.314880	0.054335
N83	N	-0.828420	-0.359728	0.000015
H84	H	-0.860929	-0.428643	0.000011
H85	H	-0.847600	-0.335368	-0.054274
N86	N	-0.749685	-0.494999	0.000010
H87	H	-0.790965	-0.510201	-0.054281
H88	H	-0.790893	-0.510119	0.054338
N89	N	-0.613535	-0.531964	0.000007
H90	H	-0.654809	-0.547158	-0.054287
H91	H	-0.654748	-0.547090	0.054332
N92	N	-0.932705	0.262726	0.000005
H93	H	-0.879142	0.325805	0.000002
H94	H	-0.928252	0.228519	-0.054286
