data_functionalizedCrystal
_audit_creation_method	'MofGen! by Chris Wilmer'
_symmetry_space_group_name_H-M	'P1'
_symmetry_Int_Tables_number	1
_symmetry_cell_setting	triclinic
loop_
_symmetry_equiv_pos_as_xyz
  x,y,z
_cell_length_a	19.077105
_cell_length_b	18.215405
_cell_length_c	18.215399
_cell_angle_alpha	90.030551
_cell_angle_beta	87.683200
_cell_angle_gamma	92.278881
loop_
_atom_site_label
_atom_site_type_symbol
_atom_site_fract_x
_atom_site_fract_y
_atom_site_fract_z
Zn1	Zn	1.075983	0.338265	-0.461243
Zn2	Zn	1.575983	0.838265	0.038757
Zn3	Zn	1.075896	0.461333	-0.338167
Zn4	Zn	1.575896	0.961333	0.161833
Zn5	Zn	0.958286	0.333336	-0.333253
Zn6	Zn	1.458286	0.833336	0.166747
Zn7	Zn	0.958253	0.456341	-0.456257
Zn8	Zn	1.458253	0.956341	0.043743
O9	O	1.017104	0.397319	-0.397230
O10	O	1.517104	0.897319	0.102770
O11	O	1.174463	0.358742	-0.449060
O12	O	1.674463	0.858742	0.050940
O13	O	1.060272	0.444380	-0.234530
O14	O	1.560272	0.944380	0.265470
O15	O	0.973949	0.231008	-0.350261
O16	O	1.473949	0.731008	0.149739
O17	O	1.174398	0.449160	-0.358637
O18	O	1.674398	0.949160	0.141363
O19	O	1.060421	0.234629	-0.444295
O20	O	1.560421	0.734629	0.055705
O21	O	0.973864	0.350341	-0.230919
O22	O	1.473864	0.850341	0.269081
O23	O	0.859790	0.345501	-0.345426
O24	O	1.359790	0.845501	0.154574
O25	O	0.973893	0.440652	-0.559904
O26	O	1.473893	0.940652	-0.059904
O27	O	0.859766	0.435872	-0.435797
O28	O	1.359766	0.935872	0.064203
O29	O	1.060389	0.353902	-0.563567
O30	O	1.560389	0.853902	-0.063567
O31	O	1.060240	0.563653	-0.353802
O32	O	1.560240	1.063653	0.146198
O33	O	0.973808	0.559985	-0.440562
O34	O	1.473808	1.059985	0.059438
C35	C	0.834241	0.389610	-0.389537
C36	C	1.334241	0.889610	0.110463
C37	C	0.756011	0.386331	-0.386264
C38	C	1.256011	0.886331	0.113736
C39	C	1.017030	0.588522	-0.397192
C40	C	1.517030	1.088522	0.102808
C41	C	1.017063	0.670322	-0.397202
C42	C	1.517063	1.170322	0.102798
C43	C	1.017147	0.397270	-0.589185
C44	C	1.517147	0.897270	-0.089185
C45	C	1.017166	0.397249	-0.670985
C46	C	1.517166	0.897249	-0.170985
C47	C	0.719264	0.431912	-0.431703
C48	C	1.219264	0.931912	0.068297
C49	C	0.645759	0.428820	-0.428631
C50	C	1.145759	0.928820	0.071369
C51	C	0.609002	0.380151	-0.380115
C52	C	1.109002	0.880151	0.119885
C53	C	0.645753	0.334564	-0.334674
C54	C	1.145753	0.834564	0.165326
C55	C	0.719257	0.337653	-0.337750
C56	C	1.219257	0.837653	0.162250
C57	C	0.389168	0.365857	-0.365880
C58	C	0.889168	0.865857	0.134120
C59	C	0.315659	0.362774	-0.362805
C60	C	0.815659	0.862774	0.137195
C61	C	0.315669	0.457030	-0.456763
C62	C	0.815669	0.957030	0.043237
C63	C	0.389175	0.460117	-0.459833
C64	C	0.889175	0.960117	0.040167
C65	C	0.425920	0.414528	-0.414394
C66	C	0.925920	0.914528	0.085606
N67	N	0.533867	0.376991	-0.376972
N68	N	1.033867	0.876991	0.123028
N69	N	0.501053	0.417684	-0.417542
N70	N	1.001053	0.917684	0.082458
C71	C	1.200682	0.405058	-0.404953
C72	C	1.700682	0.905058	0.095047
C73	C	1.278912	0.408356	-0.408244
C74	C	1.778912	0.908356	0.091756
C75	C	1.017198	0.205370	-0.397286
C76	C	1.517198	0.705370	0.102714
C77	C	1.017238	0.123573	-0.397309
C78	C	1.517238	0.623573	0.102691
C79	C	1.062173	0.860406	-0.352118
C80	C	1.562173	1.360406	0.147882
C81	C	1.062205	0.937266	-0.352137
C82	C	1.562205	1.437266	0.147863
C83	C	0.972126	0.933483	-0.442399
C84	C	1.472126	1.433483	0.057601
C85	C	0.972098	0.856625	-0.442383
C86	C	1.472098	1.356625	0.057617
C87	C	1.017121	0.820088	-0.397238
C88	C	1.517121	1.320088	0.102762
C89	C	1.017180	0.973807	-0.397273
C90	C	1.517180	1.473807	0.102727
C91	C	1.017214	1.057142	-0.397294
C92	C	1.517214	1.557142	0.102706
C93	C	1.017088	0.736748	-0.397218
C94	C	1.517088	1.236748	0.102782
C95	C	1.062220	0.352035	-0.861088
C96	C	1.562220	0.852035	-0.361088
C97	C	1.062229	0.352014	-0.937947
C98	C	1.562229	0.852014	-0.437947
C99	C	0.972161	0.442351	-0.934121
C100	C	1.472161	0.942351	-0.434121
C101	C	0.972149	0.442368	-0.857263
C102	C	1.472149	0.942368	-0.357263
C103	C	1.017183	0.397211	-0.820749
C104	C	1.517183	0.897211	-0.320749
C105	C	1.017203	0.397173	-0.974466
C106	C	1.517203	0.897173	-0.474466
C107	C	1.017212	0.397151	-1.057800
C108	C	1.517212	0.897151	-0.557800
C109	C	1.017174	0.397232	-0.737409
C110	C	1.517174	0.897232	-0.237409
C111	C	1.017102	0.397316	-0.206024
C112	C	1.517102	0.897316	0.293976
C113	C	1.017220	0.397135	-0.124230
C114	C	1.517220	0.897135	0.375770
H115	H	0.615843	0.465938	-0.465632
H116	H	1.115843	0.965938	0.034368
H117	H	1.098892	0.970089	-0.315396
H118	H	1.598892	1.470089	0.184604
H119	H	0.935411	0.823796	-0.479130
H120	H	1.435411	1.323796	0.020870
N121	N	0.923564	0.972891	-0.491086
N122	N	1.423564	1.472891	0.008914
H123	H	0.930415	1.027699	-0.484248
H124	H	1.430415	1.527699	0.015752
H125	H	0.873301	0.957390	-0.477468
H126	H	1.373301	1.457390	0.022532
N127	N	0.923575	0.491102	-0.813751
N128	N	1.423575	0.991102	-0.313751
H129	H	0.930401	0.484258	-0.759521
H130	H	1.430401	0.984258	-0.259521
H131	H	0.873316	0.477529	-0.825069
H132	H	1.373316	0.977529	-0.325069
N133	N	0.428783	0.316676	-0.316875
N134	N	0.928783	0.816676	0.183125
H135	H	0.415964	0.327494	-0.263734
H136	H	0.915964	0.827494	0.236266
H137	H	0.480914	0.326024	-0.326242
H138	H	0.980914	0.826024	0.173758
H139	H	0.749176	0.300531	-0.300753
H140	H	1.249176	0.800531	0.199247
H141	H	0.285743	0.494145	-0.493758
H142	H	0.785743	0.994145	0.006242
N143	N	1.110794	0.303335	-0.821705
N144	N	1.610794	0.803335	-0.321705
H145	H	1.103959	0.310204	-0.766895
H146	H	1.603959	0.810204	-0.266895
H147	H	1.161053	0.316913	-0.837263
H148	H	1.661053	0.816913	-0.337263
H149	H	1.098901	0.315226	-0.970788
H150	H	1.598901	0.815226	-0.470788
N151	N	0.606115	0.282074	-0.282338
N152	N	1.106115	0.782074	0.217662
H153	H	0.618890	0.293979	-0.230274
H154	H	1.118890	0.793979	0.269726
H155	H	0.618946	0.230066	-0.294460
H156	H	1.118946	0.730066	0.205540
H157	H	0.419097	0.499751	-0.499338
H158	H	0.919097	0.999751	0.000662
H159	H	0.749187	0.471547	-0.471207
H160	H	1.249187	0.971547	0.028793
H161	H	0.285733	0.323133	-0.323302
H162	H	0.785733	0.823133	0.176698
H163	H	1.098835	0.830659	-0.315359
H164	H	1.598835	1.330659	0.184641
N165	N	0.923580	0.491043	-0.973504
N166	N	1.423580	0.991043	-0.473504
H167	H	0.930418	0.484175	-1.028315
H168	H	1.430418	0.984175	-0.528315
H169	H	0.934496	0.544069	-0.960520
H170	H	1.434496	1.044069	-0.460520
