data_functionalizedCrystal
_audit_creation_method	'MofGen! by Chris Wilmer'
_symmetry_space_group_name_H-M	'P1'
_symmetry_Int_Tables_number	1
_symmetry_cell_setting	triclinic
loop_
_symmetry_equiv_pos_as_xyz
  x,y,z
_cell_length_a	19.188930
_cell_length_b	23.532407
_cell_length_c	17.666332
_cell_angle_alpha	89.988854
_cell_angle_beta	89.976766
_cell_angle_gamma	82.996728
loop_
_atom_site_label
_atom_site_type_symbol
_atom_site_fract_x
_atom_site_fract_y
_atom_site_fract_z
O1	O	0.925923	0.071102	-0.063199
O2	O	1.425923	0.571102	0.436801
O3	O	0.722581	0.080673	-0.063148
O4	O	1.222581	0.580673	0.436852
O5	O	0.830384	-0.007031	-0.063161
O6	O	1.330384	0.492969	0.436839
O7	O	0.818120	0.158806	-0.063186
O8	O	1.318120	0.658806	0.436814
O9	O	0.830365	-0.007036	0.062735
O10	O	1.330365	0.492964	0.562735
O11	O	0.722562	0.080669	0.062748
O12	O	1.222562	0.580669	0.562748
O13	O	0.925904	0.071097	0.062697
O14	O	1.425904	0.571097	0.562697
Cu15	Cu	0.824231	0.075883	0.074218
Cu16	Cu	1.324231	0.575883	0.574218
Cu17	Cu	0.824253	0.075888	-0.074669
Cu18	Cu	1.324253	0.575888	0.425331
O19	O	0.818101	0.158802	0.062711
O20	O	1.318101	0.658802	0.562711
C21	C	0.696561	0.080361	-0.000193
C22	C	1.196561	0.580361	0.499807
C23	C	0.619060	0.079431	-0.000173
C24	C	1.119060	0.579431	0.499827
C25	C	0.573972	0.130893	-0.000193
C26	C	1.073972	0.630893	0.499807
C27	C	0.501151	0.130019	-0.000201
C28	C	1.001151	0.630019	0.499799
C29	C	0.473421	0.077680	-0.000205
C30	C	0.973421	0.577680	0.499795
C31	C	0.518519	0.026211	-0.000181
C32	C	1.018519	0.526211	0.499819
C33	C	0.591339	0.027086	-0.000165
C34	C	1.091339	0.527086	0.499835
N35	N	0.365575	0.037674	-0.043078
N36	N	0.865575	0.537674	0.456922
N37	N	0.296399	0.036846	-0.043094
N38	N	0.796399	0.536846	0.456906
C39	C	0.254021	0.075038	-0.000251
C40	C	0.754021	0.575038	0.499749
N41	N	0.283431	0.114099	0.042600
N42	N	0.783431	0.614099	0.542600
N43	N	0.352613	0.114929	0.042614
N44	N	0.852613	0.614929	0.542614
C45	C	0.394462	0.076724	-0.000222
C46	C	0.894462	0.576724	0.499778
C47	C	0.129971	0.125556	-0.000278
C48	C	0.629971	0.625556	0.499722
C49	C	0.057149	0.124680	-0.000282
C50	C	0.557149	0.624680	0.499718
C51	C	0.074520	0.020870	-0.000269
C52	C	0.574520	0.520870	0.499731
C53	C	0.147340	0.021748	-0.000258
C54	C	0.647340	0.521748	0.499742
C55	C	0.175061	0.074092	-0.000266
C56	C	0.675061	0.574092	0.499734
C57	C	0.830062	-0.028250	-0.000211
C58	C	1.330062	0.471750	0.499789
C59	C	0.829123	-0.091469	-0.000205
C60	C	1.329123	0.408531	0.499795
C61	C	0.887029	-0.490449	-0.000261
C62	C	1.387029	0.009551	0.499739
C63	C	0.886157	-0.549851	-0.000267
C64	C	1.386157	-0.049851	0.499733
O65	O	0.939837	-0.586482	-0.000308
O66	O	1.439837	-0.086482	0.499692
N67	N	0.822068	-0.572613	-0.000250
N68	N	1.322068	-0.072613	0.499750
C69	C	0.758848	-0.535970	-0.000236
C70	C	1.258848	-0.035970	0.499764
O71	O	0.704255	-0.560786	-0.000223
O72	O	1.204255	-0.060786	0.499777
C73	C	0.759721	-0.476569	-0.000235
C74	C	1.259721	0.023431	0.499765
C75	C	0.823814	-0.453810	-0.000244
C76	C	1.323814	0.046190	0.499756
C77	C	0.951117	-0.467690	-0.000271
C78	C	1.451117	0.032310	0.499729
C79	C	0.951989	-0.408292	-0.000264
C80	C	1.451989	0.091708	0.499736
C81	C	0.888773	-0.371653	-0.000247
C82	C	1.388773	0.128347	0.499753
C83	C	0.824685	-0.394412	-0.000237
C84	C	1.324685	0.105588	0.499763
C85	C	0.696501	-0.439927	-0.000226
C86	C	1.196501	0.060073	0.499774
C87	C	0.697379	-0.380523	-0.000227
C88	C	1.197379	0.119477	0.499773
C89	C	0.761472	-0.357764	-0.000236
C90	C	1.261472	0.142236	0.499764
C91	C	0.762342	-0.298376	-0.000214
C92	C	1.262342	0.201624	0.499786
N93	N	0.826430	-0.275614	-0.000230
N94	N	1.326430	0.224386	0.499770
C95	C	0.889646	-0.312252	-0.000247
C96	C	1.389646	0.187748	0.499753
C97	C	0.757019	-0.660717	-0.000237
C98	C	1.257019	-0.160717	0.499763
C99	C	0.756146	-0.720116	-0.000232
C100	C	1.256146	-0.220116	0.499768
C101	C	0.883455	-0.733993	-0.000264
C102	C	1.383455	-0.233993	0.499736
C103	C	0.884328	-0.674592	-0.000264
C104	C	1.384328	-0.174592	0.499736
C105	C	0.821108	-0.637954	-0.000254
C106	C	1.321108	-0.137954	0.499746
C107	C	0.891472	-0.187512	-0.000232
C108	C	1.391472	0.312488	0.499768
C109	C	0.892339	-0.128108	-0.000222
C110	C	1.392339	0.371892	0.499778
C111	C	0.765029	-0.114236	-0.000193
C112	C	1.265029	0.385764	0.499807
C113	C	0.764163	-0.173634	-0.000199
C114	C	1.264163	0.326366	0.499801
C115	C	0.827390	-0.210272	-0.000221
C116	C	1.327390	0.289728	0.499779
O117	O	0.708690	-0.261710	-0.000176
O118	O	1.208690	0.238290	0.499824
O119	O	0.944230	-0.287428	-0.000270
O120	O	1.444230	0.212572	0.499730
C121	C	0.951923	0.071410	-0.000259
C122	C	1.451923	0.571410	0.499741
C123	C	1.029425	0.072340	-0.000284
C124	C	1.529425	0.572340	0.499716
C125	C	0.818423	0.180021	-0.000241
C126	C	1.318423	0.680021	0.499759
C127	C	0.819362	0.243240	-0.000252
C128	C	1.319362	0.743240	0.499748
N129	N	0.824221	0.075878	0.178938
N130	N	1.324221	0.575878	0.678938
N131	N	0.824270	0.075888	-0.179389
N132	N	1.324270	0.575888	0.320611
C133	C	0.871971	0.037062	0.218542
C134	C	1.371971	0.537062	0.718542
C135	C	0.871975	0.037059	0.297789
C136	C	1.371975	0.537059	0.797789
C137	C	0.824236	0.075883	0.337430
C138	C	1.324236	0.575883	0.837430
C139	C	0.776476	0.114702	0.297816
C140	C	1.276476	0.614702	0.797816
C141	C	0.776469	0.114700	0.218570
C142	C	1.276469	0.614700	0.718570
N143	N	0.814998	0.126298	0.461842
N144	N	1.314998	0.626298	0.961842
N145	N	0.815010	0.126298	0.537123
N146	N	1.315010	0.626298	1.037123
C147	C	0.824254	0.075891	0.576194
C148	C	1.324254	0.575891	1.076194
N149	N	0.833500	0.025481	0.537141
N150	N	1.333500	0.525481	1.037141
N151	N	0.833493	0.025482	0.461853
N152	N	1.333493	0.525482	0.961853
C153	C	0.824238	0.075889	0.423359
C154	C	1.324238	0.575889	0.923359
C155	C	0.872011	0.037068	0.701727
C156	C	1.372011	0.537068	1.201727
C157	C	0.872010	0.037064	0.780976
C158	C	1.372010	0.537064	1.280976
C159	C	0.776515	0.114713	0.781002
C160	C	1.276515	0.614713	1.281002
C161	C	0.776512	0.114711	0.701754
C162	C	1.276512	0.614711	1.201754
C163	C	0.824264	0.075889	0.662122
C164	C	1.324264	0.575889	1.162122
H165	H	0.495937	-0.016404	-0.000195
H166	H	0.995937	0.483596	0.499805
O167	O	1.021121	-0.383753	-0.000281
O168	O	1.521121	0.116247	0.499719
H169	H	1.011119	-0.336291	-0.000270
H170	H	1.511119	0.163709	0.499730
H171	H	0.051943	-0.021745	-0.000319
H172	H	0.551943	0.478255	0.499681
H173	H	0.910892	0.005452	0.813222
H174	H	1.410892	0.505452	1.313222
O175	O	0.961472	-0.103564	-0.000244
O176	O	1.461472	0.396436	0.499756
H177	H	0.991826	-0.118308	0.051055
H178	H	1.491826	0.381692	0.551055
O179	O	0.724987	0.156581	0.340565
O180	O	1.224987	0.656581	0.840565
H181	H	0.733020	0.150066	0.402324
H182	H	1.233020	0.650066	0.902324
H183	H	0.713561	-0.084394	-0.000177
H184	H	1.213561	0.415606	0.499823
O185	O	0.195973	-0.033760	-0.000243
O186	O	0.695973	0.466240	0.499757
H187	H	0.251267	-0.024359	-0.000225
H188	H	0.751267	0.475641	0.499775
H189	H	0.942958	-0.217335	-0.000252
H190	H	1.442958	0.282665	0.499748
O191	O	1.019305	-0.507204	-0.000278
O192	O	1.519305	-0.007204	0.499722
H193	H	1.064008	-0.481388	-0.000277
H194	H	1.564008	0.018612	0.499723
H195	H	0.936518	-0.656067	-0.000272
H196	H	1.436518	-0.156067	0.499728
H197	H	0.628050	-0.014822	-0.000150
H198	H	1.128050	0.485178	0.499850
H199	H	0.910852	0.005450	0.186275
H200	H	1.410852	0.505450	0.686275
O201	O	0.923486	-0.004803	0.340520
O202	O	1.423486	0.495197	0.840520
H203	H	0.956693	-0.031794	0.299647
H204	H	1.456693	0.468206	0.799647
O205	O	0.724970	0.156572	0.175847
O206	O	1.224970	0.656572	0.675847
H207	H	0.691775	0.183572	0.216721
H208	H	1.191775	0.683572	0.716721
O209	O	0.159880	0.182009	-0.000271
O210	O	0.659880	0.682009	0.499729
H211	H	0.116290	0.217649	-0.000272
H212	H	0.616290	0.717649	0.499728
O213	O	0.725023	0.156590	0.823744
O214	O	1.225023	0.656590	1.323744
H215	H	0.733052	0.150073	0.885503
H216	H	1.233052	0.650073	1.385503
H217	H	0.910892	0.005455	0.669457
H218	H	1.410892	0.505455	1.169457
H219	H	0.020438	0.166588	-0.000293
H220	H	0.520438	0.666588	0.499707
O221	O	0.725018	0.156584	0.659030
O222	O	1.225018	0.656584	1.159030
H223	H	0.691825	0.183585	0.699906
H224	H	1.191825	0.683585	1.199906
H225	H	0.645897	-0.350694	-0.000220
H226	H	1.145897	0.149306	0.499780
H227	H	0.703955	-0.738641	-0.000211
H228	H	1.203955	-0.238641	0.499789
O229	O	0.603873	0.187347	-0.000180
O230	O	1.103873	0.687347	0.499820
H231	H	0.560282	0.222985	-0.000183
H232	H	1.060282	0.722985	0.499817
O233	O	0.452506	0.185525	-0.000230
O234	O	0.952506	0.685525	0.499770
H235	H	0.484016	0.222070	-0.000238
H236	H	0.984016	0.722070	0.499762
H237	H	0.711973	-0.192165	-0.000171
H238	H	1.211973	0.307835	0.499829
O239	O	0.951642	-0.773516	-0.000290
O240	O	1.451642	-0.273516	0.499710
H241	H	0.940262	-0.818643	-0.000298
H242	H	1.440262	-0.318643	0.499702
O243	O	0.688826	-0.621203	-0.000204
O244	O	1.188826	-0.121203	0.499796
H245	H	0.658136	-0.629273	-0.051504
H246	H	1.158136	-0.129273	0.448496
O247	O	0.627372	-0.464466	-0.000219
O248	O	1.127372	0.035534	0.499781
H249	H	0.583568	-0.429001	-0.000217
H250	H	1.083568	0.070999	0.499783
