data_functionalizedCrystal
_audit_creation_method	'MofGen! by Chris Wilmer'
_symmetry_space_group_name_H-M	'P1'
_symmetry_Int_Tables_number	1
_symmetry_cell_setting	triclinic
loop_
_symmetry_equiv_pos_as_xyz
  x,y,z
_cell_length_a	17.038272
_cell_length_b	17.038272
_cell_length_c	15.021413
_cell_angle_alpha	90.004029
_cell_angle_beta	89.997778
_cell_angle_gamma	91.111556
loop_
_atom_site_label
_atom_site_type_symbol
_atom_site_fract_x
_atom_site_fract_y
_atom_site_fract_z
O1	O	1.048758	0.170527	-0.073921
O2	O	1.298758	0.420527	0.176079
O3	O	1.548758	0.670527	0.426079
O4	O	1.798758	0.920527	0.676079
O5	O	0.820947	0.167819	-0.073948
O6	O	1.070947	0.417819	0.176052
O7	O	1.320947	0.667819	0.426052
O8	O	1.570947	0.917819	0.676052
O9	O	0.933499	0.055267	-0.073928
O10	O	1.183499	0.305267	0.176072
O11	O	1.433499	0.555267	0.426072
O12	O	1.683499	0.805267	0.676072
O13	O	0.936206	0.283078	-0.073941
O14	O	1.186206	0.533078	0.176059
O15	O	1.436206	0.783078	0.426059
O16	O	1.686206	1.033078	0.676059
O17	O	0.933480	0.055283	0.074137
O18	O	1.183480	0.305283	0.324137
O19	O	1.433480	0.555283	0.574137
O20	O	1.683480	0.805283	0.824137
O21	O	0.820929	0.167835	0.074117
O22	O	1.070929	0.417835	0.324117
O23	O	1.320929	0.667835	0.574117
O24	O	1.570929	0.917835	0.824117
O25	O	1.048740	0.170543	0.074143
O26	O	1.298740	0.420543	0.324143
O27	O	1.548740	0.670543	0.574143
O28	O	1.798740	0.920543	0.824143
Zn29	Zn	0.934832	0.169191	0.097638
Zn30	Zn	1.184832	0.419191	0.347638
Zn31	Zn	1.434832	0.669191	0.597638
Zn32	Zn	1.684832	0.919191	0.847638
Zn33	Zn	0.934855	0.169170	-0.097443
Zn34	Zn	1.184855	0.419170	0.152557
Zn35	Zn	1.434855	0.669170	0.402557
Zn36	Zn	1.684855	0.919170	0.652557
O37	O	0.936188	0.283094	0.074123
O38	O	1.186188	0.533094	0.324123
O39	O	1.436188	0.783094	0.574123
O40	O	1.686188	1.033094	0.824123
C41	C	0.791645	0.165364	0.000081
C42	C	1.041645	0.415364	0.250081
C43	C	1.291645	0.665364	0.500081
C44	C	1.541645	0.915364	0.750081
C45	C	0.704361	0.158016	0.000071
C46	C	0.954361	0.408016	0.250071
C47	C	1.204361	0.658016	0.500071
C48	C	1.454361	0.908016	0.750071
C49	C	0.658752	0.225479	0.000068
C50	C	0.908752	0.475479	0.250068
C51	C	1.158752	0.725479	0.500068
C52	C	1.408752	0.975479	0.750068
C53	C	0.576740	0.218570	0.000081
C54	C	0.826740	0.468570	0.250081
C55	C	1.076740	0.718570	0.500081
C56	C	1.326740	0.968570	0.750081
C57	C	0.540339	0.144197	0.000090
C58	C	0.790339	0.394197	0.250090
C59	C	1.040339	0.644197	0.500090
C60	C	1.290339	0.894197	0.750090
C61	C	0.585954	0.076728	0.000096
C62	C	0.835954	0.326728	0.250096
C63	C	1.085954	0.576728	0.500096
C64	C	1.335954	0.826728	0.750096
C65	C	0.667965	0.083638	0.000090
C66	C	0.917965	0.333638	0.250090
C67	C	1.167965	0.583638	0.500090
C68	C	1.417965	0.833638	0.750090
C69	C	0.292951	0.119787	0.000116
C70	C	0.542951	0.369787	0.250116
C71	C	0.792951	0.619787	0.500116
C72	C	1.042951	0.869787	0.750116
C73	C	0.210935	0.112882	0.000119
C74	C	0.460935	0.362882	0.250119
C75	C	0.710935	0.612882	0.500119
C76	C	0.960935	0.862882	0.750119
C77	C	0.201726	0.254725	0.000105
C78	C	0.451726	0.504725	0.250105
C79	C	0.701726	0.754725	0.500105
C80	C	0.951726	1.004725	0.750105
C81	C	0.283739	0.261628	0.000094
C82	C	0.533739	0.511628	0.250094
C83	C	0.783739	0.761628	0.500094
C84	C	1.033739	1.011628	0.750094
C85	C	0.329347	0.194159	0.000104
C86	C	0.579347	0.444159	0.250104
C87	C	0.829347	0.694159	0.500104
C88	C	1.079347	0.944159	0.750104
C89	C	0.456510	0.137133	0.000101
C90	C	0.706510	0.387133	0.250101
C91	C	0.956510	0.637133	0.500101
C92	C	1.206510	0.887133	0.750101
C93	C	0.413174	0.201224	0.000100
C94	C	0.663174	0.451224	0.250100
C95	C	0.913174	0.701224	0.500100
C96	C	1.163174	0.951224	0.750100
C97	C	0.931027	0.025982	0.000104
C98	C	1.181027	0.275982	0.250104
C99	C	1.431027	0.525982	0.500104
C100	C	1.681027	0.775982	0.750104
C101	C	0.923679	-0.061301	0.000103
C102	C	1.173679	0.188699	0.250103
C103	C	1.423679	0.438699	0.500103
C104	C	1.673679	0.688699	0.750103
C105	C	0.991142	-0.106911	0.000112
C106	C	1.241142	0.143089	0.250112
C107	C	1.491142	0.393089	0.500112
C108	C	1.741142	0.643089	0.750112
C109	C	0.984233	-0.188923	0.000102
C110	C	1.234233	0.061077	0.250102
C111	C	1.484233	0.311077	0.500102
C112	C	1.734233	0.561077	0.750102
C113	C	0.909860	-0.225324	0.000091
C114	C	1.159860	0.024676	0.250091
C115	C	1.409860	0.274676	0.500091
C116	C	1.659860	0.524676	0.750091
C117	C	0.842391	-0.179708	0.000080
C118	C	1.092391	0.070292	0.250080
C119	C	1.342391	0.320292	0.500080
C120	C	1.592391	0.570292	0.750080
C121	C	0.849301	-0.097698	0.000082
C122	C	1.099301	0.152302	0.250082
C123	C	1.349301	0.402302	0.500082
C124	C	1.599301	0.652302	0.750082
C125	C	0.885449	-0.472712	0.000076
C126	C	1.135449	-0.222712	0.250076
C127	C	1.385449	0.027288	0.500076
C128	C	1.635449	0.277288	0.750076
C129	C	0.878545	-0.554728	0.000076
C130	C	1.128545	-0.304728	0.250076
C131	C	1.378545	-0.054728	0.500076
C132	C	1.628545	0.195272	0.750076
C133	C	1.020387	-0.563937	0.000097
C134	C	1.270387	-0.313937	0.250097
C135	C	1.520387	-0.063937	0.500097
C136	C	1.770387	0.186063	0.750097
C137	C	1.027291	-0.481924	0.000105
C138	C	1.277291	-0.231924	0.250105
C139	C	1.527291	0.018076	0.500105
C140	C	1.777291	0.268076	0.750105
C141	C	0.959822	-0.436316	0.000089
C142	C	1.209822	-0.186316	0.250089
C143	C	1.459822	0.063684	0.500089
C144	C	1.709822	0.313684	0.750089
C145	C	0.902796	-0.309153	0.000084
C146	C	1.152796	-0.059153	0.250084
C147	C	1.402796	0.190847	0.500084
C148	C	1.652796	0.440847	0.750084
C149	C	0.966886	-0.352488	0.000089
C150	C	1.216886	-0.102488	0.250089
C151	C	1.466886	0.147512	0.500089
C152	C	1.716886	0.397512	0.750089
C153	C	1.078042	0.172997	0.000112
C154	C	1.328042	0.422997	0.250112
C155	C	1.578042	0.672997	0.500112
C156	C	1.828042	0.922997	0.750112
C157	C	1.165326	0.180346	0.000116
C158	C	1.415326	0.430346	0.250116
C159	C	1.665326	0.680346	0.500116
C160	C	1.915326	0.930346	0.750116
C161	C	0.938660	0.312379	0.000089
C162	C	1.188660	0.562379	0.250089
C163	C	1.438660	0.812379	0.500089
C164	C	1.688660	1.062379	0.750089
C165	C	0.946008	0.399663	0.000084
C166	C	1.196008	0.649663	0.250084
C167	C	1.446008	0.899663	0.500084
C168	C	1.696008	1.149663	0.750084
N169	N	0.934821	0.169205	0.230776
N170	N	1.184821	0.419205	0.480776
N171	N	1.434821	0.669205	0.730776
N172	N	1.684821	0.919205	0.980776
N173	N	0.934872	0.169150	-0.230581
N174	N	1.184872	0.419150	0.019419
N175	N	1.434872	0.669150	0.269419
N176	N	1.684872	0.919150	0.519419
C177	C	0.882767	0.221223	0.470450
C178	C	1.132767	0.471223	0.720450
C179	C	1.382767	0.721223	0.970450
C180	C	1.632767	0.971223	1.220450
C181	C	0.954743	0.241185	0.529791
C182	C	1.204743	0.491185	0.779791
C183	C	1.454743	0.741185	1.029791
C184	C	1.704743	0.991185	1.279791
C185	C	0.934840	0.169187	0.412383
C186	C	1.184840	0.419187	0.662383
C187	C	1.434840	0.669187	0.912383
C188	C	1.684840	0.919187	1.162383
C189	C	0.862884	0.149244	0.529783
C190	C	1.112884	0.399244	0.779783
C191	C	1.362884	0.649244	1.029783
C192	C	1.612884	0.899244	1.279783
C193	C	0.934852	0.169171	0.587807
C194	C	1.184852	0.419171	0.837807
C195	C	1.434852	0.669171	1.087807
C196	C	1.684852	0.919171	1.337807
C197	C	1.006854	0.189187	0.470418
C198	C	1.256854	0.439187	0.720418
C199	C	1.506854	0.689187	0.970418
C200	C	1.756854	0.939187	1.220418
C201	C	0.914946	0.097212	0.470404
C202	C	1.164946	0.347212	0.720404
C203	C	1.414946	0.597212	0.970404
C204	C	1.664946	0.847212	1.220404
C205	C	0.986972	0.117147	0.529719
C206	C	1.236972	0.367147	0.779719
C207	C	1.486972	0.617147	1.029719
C208	C	1.736972	0.867147	1.279719
C209	C	0.934832	0.169198	0.311325
C210	C	1.184832	0.419198	0.561325
C211	C	1.434832	0.669198	0.811325
C212	C	1.684832	0.919198	1.061325
C213	C	0.934868	0.169159	0.688862
C214	C	1.184868	0.419159	0.938862
C215	C	1.434868	0.669159	1.188862
C216	C	1.684868	0.919159	1.438862
H217	H	0.330076	0.064848	0.000125
H218	H	0.580076	0.314848	0.250125
H219	H	0.830076	0.564848	0.500125
H220	H	1.080076	0.814848	0.750125
O221	O	0.762174	-0.218969	0.000077
O222	O	1.012174	0.031031	0.250077
O223	O	1.262174	0.281031	0.500077
O224	O	1.512174	0.531031	0.750077
H225	H	0.755640	-0.256124	-0.060265
H226	H	1.005640	-0.006124	0.189735
H227	H	1.255640	0.243876	0.439735
H228	H	1.505640	0.493876	0.689735
H229	H	0.556310	0.016172	0.000117
H230	H	0.806310	0.266172	0.250117
H231	H	1.056310	0.516172	0.500117
H232	H	1.306310	0.766172	0.750117
H233	H	1.087853	-0.452293	0.000115
H234	H	1.337853	-0.202293	0.250115
H235	H	1.587853	0.047707	0.500115
H236	H	1.837853	0.297707	0.750115
O237	O	0.824505	0.279565	0.435972
O238	O	1.074505	0.529565	0.685972
O239	O	1.324505	0.779565	0.935972
O240	O	1.574505	1.029565	1.185972
H241	H	0.764954	0.263561	0.460781
H242	H	1.014954	0.513561	0.710781
H243	H	1.264954	0.763561	0.960781
H244	H	1.514954	1.013561	1.210781
H245	H	0.817978	-0.584363	0.000081
H246	H	1.067978	-0.334363	0.250081
H247	H	1.317978	-0.084363	0.500081
H248	H	1.567978	0.165637	0.750081
O249	O	1.057003	-0.238109	0.000118
O250	O	1.307003	0.011891	0.250118
O251	O	1.557003	0.261891	0.500118
O252	O	1.807003	0.511891	0.750118
H253	H	1.057268	-0.275688	-0.060237
H254	H	1.307268	-0.025688	0.189763
H255	H	1.557268	0.224312	0.439763
H256	H	1.807268	0.474312	0.689763
O257	O	0.822582	-0.348420	0.000091
O258	O	1.072582	-0.098420	0.250091
O259	O	1.322582	0.151580	0.500091
O260	O	1.572582	0.401580	0.750091
H261	H	0.816049	-0.385573	-0.060254
H262	H	1.066049	-0.135573	0.189746
H263	H	1.316049	0.114427	0.439746
H264	H	1.566049	0.364427	0.689746
H265	H	0.898089	0.036368	0.444298
H266	H	1.148089	0.286368	0.694298
H267	H	1.398089	0.536368	0.944298
H268	H	1.648089	0.786368	1.194298
H269	H	0.313370	0.322190	0.000075
H270	H	0.563370	0.572190	0.250075
H271	H	0.813370	0.822190	0.500075
H272	H	1.063370	1.072190	0.750075
H273	H	0.539608	0.273507	0.000077
H274	H	0.789608	0.523507	0.250077
H275	H	1.039608	0.773507	0.500077
H276	H	1.289608	1.023507	0.750077
H277	H	0.971580	0.302046	0.555877
H278	H	1.221580	0.552046	0.805877
H279	H	1.471580	0.802046	1.055877
H280	H	1.721580	1.052046	1.305877
O281	O	0.812683	-0.423524	0.000081
O282	O	1.062683	-0.173524	0.250081
O283	O	1.312683	0.076476	0.500081
O284	O	1.562683	0.326476	0.750081
H285	H	0.759809	-0.462617	0.000089
H286	H	1.009809	-0.212617	0.250089
H287	H	1.259809	0.037383	0.500089
H288	H	1.509809	0.287383	0.750089
H289	H	0.164583	0.309653	0.000098
H290	H	0.414583	0.559653	0.250098
H291	H	0.664583	0.809653	0.500098
H292	H	0.914583	1.059653	0.750098
H293	H	0.802027	0.132383	0.555862
H294	H	1.052027	0.382383	0.805862
H295	H	1.302027	0.632383	1.055862
H296	H	1.552027	0.882383	1.305862
O297	O	0.171675	0.032659	0.000137
O298	O	0.421675	0.282659	0.250137
O299	O	0.671675	0.532659	0.500137
O300	O	0.921675	0.782659	0.750137
H301	H	0.134526	0.026137	0.060485
H302	H	0.384526	0.276137	0.310485
H303	H	0.634526	0.526137	0.560485
H304	H	0.884526	0.776137	0.810485
H305	H	0.705099	0.028702	0.000092
H306	H	0.955099	0.278702	0.250092
H307	H	1.205099	0.528702	0.500092
H308	H	1.455099	0.778702	0.750092
H309	H	1.031065	0.073136	0.555579
H310	H	1.281065	0.323136	0.805579
H311	H	1.531065	0.573136	1.055579
H312	H	1.781065	0.823136	1.305579
H313	H	1.067729	0.206120	0.444451
H314	H	1.317729	0.456120	0.694451
H315	H	1.567729	0.706120	0.944451
H316	H	1.817729	0.956120	1.194451
O317	O	0.776534	-0.048505	0.000077
O318	O	1.026534	0.201495	0.250077
O319	O	1.276534	0.451495	0.500077
O320	O	1.526534	0.701495	0.750077
H321	H	0.793832	0.014637	0.000072
H322	H	1.043832	0.264637	0.250072
H323	H	1.293832	0.514637	0.500072
H324	H	1.543832	0.764637	0.750072
H325	H	0.688384	0.286042	0.000059
H326	H	0.938384	0.536042	0.250059
H327	H	1.188384	0.786042	0.500059
H328	H	1.438384	1.036042	0.750059
H329	H	0.426863	0.076578	0.000134
H330	H	0.676863	0.326578	0.250134
H331	H	0.926863	0.576578	0.500134
H332	H	1.176863	0.826578	0.750134
O333	O	0.452431	0.281439	0.000098
O334	O	0.702431	0.531439	0.250098
O335	O	0.952431	0.781439	0.500098
O336	O	1.202431	1.031439	0.750098
H337	H	0.434480	0.314117	-0.060249
H338	H	0.684480	0.564117	0.189751
H339	H	0.934480	0.814117	0.439751
H340	H	1.184480	1.064117	0.689751
O341	O	1.071362	-0.067655	0.000114
O342	O	1.321362	0.182345	0.250114
O343	O	1.571362	0.432345	0.500114
O344	O	1.821362	0.682345	0.750114
H345	H	1.104042	-0.085607	0.060459
H346	H	1.354042	0.164393	0.310459
H347	H	1.604042	0.414393	0.560459
H348	H	1.854042	0.664393	0.810459
O349	O	1.093156	-0.613126	0.000108
O350	O	1.343156	-0.363126	0.250108
O351	O	1.593156	-0.113126	0.500108
O352	O	1.843156	0.136874	0.750108
H353	H	1.075860	-0.676268	0.000098
H354	H	1.325860	-0.426268	0.250098
H355	H	1.575860	-0.176268	0.500098
H356	H	1.825860	0.073732	0.750098
H357	H	1.027441	-0.322847	0.000079
H358	H	1.277441	-0.072847	0.250079
H359	H	1.527441	0.177153	0.500079
H360	H	1.777441	0.427153	0.750079
