data_functionalizedCrystal
_audit_creation_method	'MofGen! by Chris Wilmer'
_symmetry_space_group_name_H-M	'P1'
_symmetry_Int_Tables_number	1
_symmetry_cell_setting	triclinic
loop_
_symmetry_equiv_pos_as_xyz
  x,y,z
_cell_length_a	15.995350
_cell_length_b	10.908878
_cell_length_c	15.072220
_cell_angle_alpha	90.001986
_cell_angle_beta	90.000423
_cell_angle_gamma	71.788583
loop_
_atom_site_label
_atom_site_type_symbol
_atom_site_fract_x
_atom_site_fract_y
_atom_site_fract_z
O1	O	-0.129325	1.703851	0.073770
O2	O	-0.063939	1.329987	0.073773
O3	O	-0.219943	1.527138	0.073771
O4	O	0.026679	1.506699	0.073772
O5	O	-0.219941	1.527128	-0.073795
O6	O	-0.063937	1.329977	-0.073792
O7	O	-0.129323	1.703841	-0.073795
Zn8	Zn	-0.096630	1.516907	-0.097223
Zn9	Zn	-0.096632	1.516920	0.097201
O10	O	0.026681	1.506689	-0.073793
C11	C	-0.057828	1.282140	-0.000009
C12	C	-0.039630	1.139587	-0.000008
C13	C	-0.251019	1.526288	-0.000010
C14	C	-0.343617	1.523755	-0.000005
C15	C	-0.106030	1.090579	-0.000008
C16	C	-0.087223	0.943243	-0.000007
C17	C	-0.680097	1.514657	-0.000008
C18	C	-0.613112	1.374249	0.000324
C19	C	-0.516775	1.376783	-0.000009
C20	C	-0.513165	1.519170	-0.000006
C21	C	-0.563885	1.588418	-0.084272
C22	C	-0.660029	1.584891	-0.084343
C23	C	-0.660793	1.587803	0.083466
C24	C	-0.563843	1.587770	0.084580
C25	C	-0.418824	1.521728	-0.000008
C26	C	-0.774439	1.512104	-0.000012
C27	C	0.057757	1.507539	-0.000010
C28	C	0.150354	1.510072	-0.000009
C29	C	-0.135434	1.751687	-0.000011
C30	C	-0.153632	1.894240	-0.000007
N31	N	-0.096640	1.516930	0.229889
N32	N	-0.096630	1.516908	-0.229912
C33	C	-0.096633	1.516915	0.589091
C34	C	-0.180162	1.622290	0.551455
C35	C	-0.180039	1.622669	0.448629
C36	C	-0.096637	1.516922	0.410887
C37	C	-0.013232	1.545840	0.448215
C38	C	-0.013738	1.546592	0.551073
C39	C	-0.095681	1.382307	0.551184
C40	C	-0.097794	1.383209	0.448319
C41	C	-0.096634	1.516924	0.310173
C42	C	-0.096631	1.516916	0.689804
H43	H	-0.016448	0.876129	-0.000002
N44	N	-0.472236	1.308017	-0.075908
N45	N	-0.465289	1.191475	-0.085772
H46	H	-0.433834	1.142906	-0.139380
N47	N	-0.194818	1.174747	-0.000023
N48	N	-0.257254	1.128747	-0.000030
H49	H	-0.319965	1.188188	-0.000043
H50	H	-0.224407	0.961353	-0.000001
N51	N	-0.183451	1.746923	0.583857
N52	N	-0.247784	1.811452	0.628896
H53	H	-0.250107	1.899476	0.651777
H54	H	-0.182562	1.722567	0.424020
H55	H	-0.034551	1.303894	0.575523
N56	N	0.049158	1.055417	0.000001
N57	N	0.099775	1.060031	0.062202
H58	H	0.162485	1.000589	0.062208
N59	N	-0.024644	1.280223	0.416131
N60	N	-0.037483	1.190874	0.371865
H61	H	0.014188	1.118136	0.349145
N62	N	-0.471617	1.308489	0.075769
N63	N	-0.511197	1.258615	0.129271
H64	H	-0.479307	1.210373	0.182790
H65	H	-0.623831	1.318134	0.060753
H66	H	-0.624926	1.318375	-0.059767
N67	N	-0.011262	1.669736	0.581158
N68	N	-0.009174	1.754526	0.526190
H69	H	-0.007429	1.841503	0.547433
N70	N	-0.674158	1.521532	-0.163367
N71	N	-0.613080	1.480219	-0.218082
H72	H	-0.623053	1.435469	-0.273894
N73	N	-0.564417	1.719638	-0.088200
N74	N	-0.493433	1.744798	-0.091915
H75	H	-0.493805	1.837472	-0.094686
H76	H	-0.706631	1.687976	-0.088164
H77	H	-0.242634	1.605502	0.423391
H78	H	-0.529545	1.537140	0.146918
N79	N	-0.259002	1.601095	0.582489
N80	N	-0.254553	1.508085	0.632711
H81	H	-0.310236	1.493113	0.654634
N82	N	0.065661	1.452095	0.417562
N83	N	0.080269	1.335441	0.435642
H84	H	0.135986	1.269230	0.413993
N85	N	-0.519873	1.528064	-0.162936
N86	N	-0.451167	1.434066	-0.157157
H87	H	-0.420083	1.391431	-0.212711
H88	H	-0.562940	1.691605	0.089670
H89	H	-0.674942	1.541901	0.147335
H90	H	-0.010721	1.642874	0.422451
N91	N	-0.718713	1.717673	0.084163
N92	N	-0.774000	1.756342	0.023515
H93	H	-0.814906	1.848061	0.023997
N94	N	-0.169097	1.347325	0.583706
N95	N	-0.179338	1.242899	0.560599
H96	H	-0.231193	1.218203	0.583567
H97	H	0.049241	1.472537	0.575970
N98	N	-0.174653	1.355686	0.417716
N99	N	-0.228412	1.434189	0.368516
H100	H	-0.282695	1.414756	0.346899
