data_functionalizedCrystal
_audit_creation_method	'MofGen! by Chris Wilmer'
_symmetry_space_group_name_H-M	'P1'
_symmetry_Int_Tables_number	1
_symmetry_cell_setting	triclinic
loop_
_symmetry_equiv_pos_as_xyz
  x,y,z
_cell_length_a	27.732048
_cell_length_b	15.995350
_cell_length_c	14.472310
_cell_angle_alpha	90.001162
_cell_angle_beta	89.992508
_cell_angle_gamma	83.067515
loop_
_atom_site_label
_atom_site_type_symbol
_atom_site_fract_x
_atom_site_fract_y
_atom_site_fract_z
O1	O	0.641363	0.099622	-0.076718
O2	O	1.141363	0.599622	0.423282
O3	O	0.500635	0.114770	-0.076745
O4	O	1.000635	0.614770	0.423255
O5	O	0.574846	-0.014741	-0.076730
O6	O	1.074846	0.485259	0.423270
O7	O	0.567152	0.229134	-0.076733
O8	O	1.067152	0.729134	0.423267
O9	O	0.574827	-0.014733	0.076952
O10	O	1.074827	0.485267	0.576952
O11	O	0.500616	0.114778	0.076937
O12	O	1.000616	0.614778	0.576937
O13	O	0.641344	0.099630	0.076964
O14	O	1.141344	0.599630	0.576964
Cu15	Cu	0.570978	0.107205	0.090983
Cu16	Cu	1.070978	0.607205	0.590983
Cu17	Cu	0.571001	0.107196	-0.090764
Cu18	Cu	1.071001	0.607196	0.409236
O19	O	0.567133	0.229141	0.076949
O20	O	1.067133	0.729141	0.576949
C21	C	0.574518	-0.045928	0.000109
C22	C	1.074518	0.454072	0.500109
C23	C	0.573565	-0.138866	0.000104
C24	C	1.073565	0.361134	0.500104
C25	C	0.482617	0.114456	0.000092
C26	C	0.982617	0.614456	0.500092
C27	C	0.428958	0.113499	0.000082
C28	C	0.928958	0.613499	0.500082
C29	C	0.570140	-0.476569	0.000106
C30	C	1.070140	0.023431	0.500106
C31	C	0.517289	-0.428451	-0.000249
C32	C	1.017289	0.071549	0.499751
C33	C	0.518242	-0.331773	0.000098
C34	C	1.018242	0.168227	0.500098
C35	C	0.571839	-0.309031	0.000105
C36	C	1.071839	0.190969	0.500105
C37	C	0.597896	-0.350441	0.087868
C38	C	1.097896	0.149559	0.587868
C39	C	0.596569	-0.447060	0.087941
C40	C	1.096569	0.052940	0.587941
C41	C	0.597682	-0.447441	-0.086824
C42	C	1.097682	0.052559	0.413176
C43	C	0.597670	-0.350495	-0.087984
C44	C	1.097670	0.149505	0.412016
C45	C	0.572802	-0.214346	0.000107
C46	C	1.072802	0.285654	0.500107
C47	C	0.569179	-0.571255	0.000110
C48	C	1.069179	-0.071255	0.500110
C49	C	0.090447	0.184004	0.000121
C50	C	0.590447	0.684004	0.500121
C51	C	-0.111228	0.180451	0.000129
C52	C	0.388772	0.680451	0.500129
O53	O	-0.142205	0.244923	0.000168
O54	O	0.357795	0.744923	0.500168
N55	N	-0.130683	0.103656	0.000128
N56	N	0.369317	0.603656	0.500128
C57	C	-0.099715	0.027744	0.000132
C58	C	0.400285	0.527744	0.500132
O59	O	-0.120891	-0.037657	0.000141
O60	O	0.379109	0.462343	0.500141
C61	C	0.101958	0.031297	0.000130
C62	C	0.601958	0.531297	0.500130
C63	C	0.121410	0.108097	0.000121
C64	C	0.621410	0.608097	0.500121
C65	C	0.109900	0.260797	0.000113
C66	C	0.609900	0.760797	0.500113
C67	C	0.160315	0.261685	0.000106
C68	C	0.660315	0.761685	0.500106
C69	C	0.191279	0.185778	0.000107
C70	C	0.691279	0.685778	0.500107
C71	C	0.171826	0.108985	0.000114
C72	C	0.671826	0.608985	0.500114
C73	C	0.132925	-0.044614	0.000140
C74	C	0.632925	0.455386	0.500140
C75	C	0.183346	-0.043719	0.000142
C76	C	0.683346	0.456281	0.500142
C77	C	0.202798	0.033081	0.000133
C78	C	0.702798	0.533081	0.500133
C79	C	0.253205	0.033965	0.000108
C80	C	0.753205	0.533965	0.500108
N81	N	0.272660	0.110761	0.000108
N82	N	0.772660	0.610761	0.500108
C83	C	0.241697	0.186667	0.000108
C84	C	0.741697	0.686667	0.500108
C85	C	-0.205598	0.025883	0.000131
C86	C	0.294402	0.525883	0.500131
C87	C	-0.256016	0.024995	0.000130
C88	C	0.243984	0.524995	0.500130
C89	C	-0.267525	0.177703	0.000129
C90	C	0.232475	0.677703	0.500129
C91	C	-0.217106	0.178590	0.000123
C92	C	0.282894	0.678590	0.500123
C93	C	-0.186143	0.102679	0.000132
C94	C	0.313857	0.602679	0.500132
C95	C	0.347574	0.188525	0.000092
C96	C	0.847574	0.688525	0.500092
C97	C	0.397995	0.189405	0.000081
C98	C	0.897995	0.689405	0.500081
C99	C	0.409499	0.036698	0.000087
C100	C	0.909499	0.536698	0.500087
C101	C	0.359083	0.035817	0.000093
C102	C	0.859083	0.535817	0.500093
C103	C	0.328121	0.111737	0.000099
C104	C	0.828121	0.611737	0.500099
O105	O	0.284211	-0.030472	0.000079
O106	O	0.784211	0.469528	0.500079
O107	O	0.262881	0.252058	0.000119
O108	O	0.762881	0.752058	0.500119
C109	C	0.040031	0.183116	0.000128
C110	C	0.540031	0.683116	0.500128
C111	C	0.020579	0.106323	0.000136
C112	C	0.520579	0.606323	0.500136
C113	C	0.051542	0.030416	0.000136
C114	C	0.551542	0.530416	0.500136
C115	C	-0.029839	0.105434	0.000134
C116	C	0.470161	0.605434	0.500134
C117	C	-0.060803	0.181340	0.000134
C118	C	0.439197	0.681340	0.500134
C119	C	-0.041348	0.258135	0.000134
C120	C	0.458652	0.758135	0.500134
C121	C	0.009068	0.259023	0.000127
C122	C	0.509068	0.759023	0.500127
C123	C	0.032087	-0.046379	0.000136
C124	C	0.532087	0.453621	0.500136
C125	C	-0.018329	-0.047260	0.000142
C126	C	0.481671	0.452740	0.500142
C127	C	-0.049292	0.028646	0.000141
C128	C	0.450708	0.528646	0.500141
C129	C	0.659362	0.099944	0.000125
C130	C	1.159362	0.599944	0.500125
C131	C	0.713021	0.100901	0.000129
C132	C	1.213021	0.600901	0.500129
C133	C	0.567461	0.260328	0.000108
C134	C	1.067461	0.760328	0.500108
C135	C	0.568414	0.353266	0.000107
C136	C	1.068414	0.853266	0.500107
N137	N	0.570966	0.107210	0.218814
N138	N	1.070966	0.607210	0.718814
N139	N	0.571017	0.107183	-0.218595
N140	N	1.071017	0.607183	0.281405
C141	C	0.571000	0.107192	0.592905
C142	C	1.071000	0.607192	1.092905
C143	C	0.531158	0.176262	0.553731
C144	C	1.031158	0.676262	1.053731
C145	C	0.531250	0.176511	0.446643
C146	C	1.031250	0.676511	0.946643
C147	C	0.570983	0.107201	0.407314
C148	C	1.070983	0.607201	0.907314
C149	C	0.621417	0.125630	0.446161
C150	C	1.121417	0.625630	0.946161
C151	C	0.621193	0.126121	0.553282
C152	C	1.121193	0.626121	1.053282
C153	C	0.560858	0.019484	0.553433
C154	C	1.060858	0.519484	1.053433
C155	C	0.559701	0.020084	0.446305
C156	C	1.059701	0.520084	0.946305
C157	C	0.570976	0.107205	0.302426
C158	C	1.070976	0.607205	0.802426
C159	C	0.571010	0.107190	0.697793
C160	C	1.071010	0.607190	1.197793
H161	H	0.497759	-0.303089	-0.062815
H162	H	0.997759	0.196911	0.437185
H163	H	-0.292744	0.239509	0.000128
H164	H	0.207256	0.739509	0.500128
H165	H	0.651767	0.077762	0.579194
H166	H	1.151767	0.577762	1.079194
C167	C	0.480347	0.161818	0.588545
C168	C	0.980347	0.661818	1.088545
H169	H	0.456824	0.204154	0.564116
H170	H	0.956824	0.704154	1.064116
H171	H	0.479692	0.164363	0.654117
H172	H	0.979692	0.664363	1.154117
H173	H	0.473173	0.108021	0.568863
H174	H	0.973173	0.608021	1.068863
H175	H	0.343245	-0.026720	0.000087
H176	H	0.843245	0.473280	0.500087
H177	H	0.630131	0.190066	0.578259
H178	H	1.130131	0.690066	1.078259
H179	H	-0.201272	0.241128	0.000121
H180	H	0.298728	0.741128	0.500121
C181	C	0.443565	-0.046792	0.000095
C182	C	0.943565	0.453208	0.500095
H183	H	0.476377	-0.035258	0.000101
H184	H	0.976377	0.464742	0.500101
H185	H	0.437675	-0.078323	-0.053491
H186	H	0.937675	0.421677	0.446509
H187	H	0.437664	-0.078299	0.053700
H188	H	0.937664	0.421701	0.553700
C189	C	0.540009	0.264448	0.412003
C190	C	1.040009	0.764448	0.912003
H191	H	0.540093	0.264901	0.346360
H192	H	1.040093	0.764901	0.846360
H193	H	0.570454	0.277518	0.434192
H194	H	1.070454	0.777518	0.934192
H195	H	0.514878	0.305176	0.434076
H196	H	1.014878	0.805176	0.934076
C197	C	-0.277408	-0.059485	0.000130
C198	C	0.222592	0.440515	0.500130
H199	H	-0.251742	-0.104560	0.000140
H200	H	0.248258	0.395440	0.500140
H201	H	-0.296833	-0.063016	-0.053460
H202	H	0.203167	0.436984	0.446540
H203	H	-0.296838	-0.063003	0.053731
H204	H	0.203162	0.436997	0.553731
C205	C	0.313523	0.272035	0.000086
C206	C	0.813523	0.772035	0.500086
H207	H	0.332336	0.317891	0.000071
H208	H	0.832336	0.817891	0.500071
H209	H	0.293610	0.274880	0.053677
H210	H	0.793610	0.774880	0.553677
H211	H	0.293621	0.274858	-0.053515
H212	H	0.793621	0.774858	0.446485
H213	H	0.651773	0.076634	0.420684
H214	H	1.151773	0.576634	0.920684
H215	H	0.579782	-0.321822	0.153174
H216	H	1.079782	0.178178	0.653174
C217	C	0.648984	-0.491306	0.093345
C218	C	1.148984	0.008694	0.593345
H219	H	0.670994	-0.450207	0.095493
H220	H	1.170994	0.049793	0.595493
H221	H	0.655659	-0.525913	0.040429
H222	H	1.155659	-0.025913	0.540429
H223	H	0.652637	-0.525084	0.147466
H224	H	1.152637	-0.025084	0.647466
C225	C	0.488757	-0.453115	-0.085268
C226	C	0.988757	0.046885	0.414732
H227	H	0.456962	-0.423390	-0.084191
H228	H	0.956962	0.076610	0.415809
H229	H	0.486733	-0.511968	-0.084107
H230	H	0.986733	-0.011968	0.415893
H231	H	0.504972	-0.439188	-0.139963
H232	H	1.004972	0.060812	0.360037
H233	H	0.496250	-0.447770	0.062330
H234	H	0.996250	0.052230	0.562330
C235	C	0.490371	-0.293761	0.085228
C236	C	0.990371	0.206239	0.585228
H237	H	0.478425	-0.337414	0.119738
H238	H	0.978425	0.162586	0.619738
H239	H	0.463921	-0.254448	0.065660
H240	H	0.963921	0.245552	0.565660
H241	H	0.511579	-0.265981	0.122820
H242	H	1.011579	0.234019	0.622820
H243	H	0.577551	-0.465112	0.153541
H244	H	1.077551	0.034888	0.653541
C245	C	0.111539	-0.129095	0.000162
C246	C	0.611539	0.370905	0.500162
H247	H	0.137207	-0.174167	0.000177
H248	H	0.637207	0.325833	0.500177
H249	H	0.092112	-0.132637	-0.053424
H250	H	0.592112	0.367363	0.446576
H251	H	0.092110	-0.132609	0.053767
H252	H	0.592110	0.367391	0.553767
C253	C	0.651088	-0.332044	0.092294
C254	C	1.151088	0.167956	0.592294
H255	H	0.657892	-0.298862	0.040536
H256	H	1.157892	0.201138	0.540536
H257	H	0.672046	-0.383602	0.091484
H258	H	1.172046	0.116398	0.591484
H259	H	0.656137	-0.302300	0.147591
H260	H	1.156137	0.197700	0.647591
H261	H	-0.180391	-0.035937	0.000138
H262	H	0.319609	0.464063	0.500138
H263	H	0.024901	0.321561	0.000122
H264	H	0.524901	0.821561	0.500122
H265	H	0.580411	-0.467760	-0.153343
H266	H	1.080411	0.032240	0.346657
H267	H	0.630568	0.188843	0.419325
H268	H	1.130568	0.688843	0.919325
C269	C	0.571971	-0.313286	-0.175696
C270	C	1.071971	0.186714	0.324304
H271	H	0.545612	-0.272647	-0.158715
H272	H	1.045612	0.227353	0.341285
H273	H	0.560103	-0.357034	-0.210158
H274	H	1.060103	0.142966	0.289842
H275	H	0.594347	-0.287202	-0.212323
H276	H	1.094347	0.212798	0.287677
C277	C	0.512243	-0.004657	0.589949
C278	C	1.012243	0.495343	1.089949
H279	H	0.497676	0.038535	0.629613
H280	H	0.997676	0.538535	1.129613
H281	H	0.517890	-0.056050	0.623313
H282	H	1.017890	0.443950	1.123313
H283	H	0.491166	-0.011328	0.539442
H284	H	0.991166	0.488672	1.039442
C285	C	0.650472	-0.330434	-0.095137
C286	C	1.150472	0.169566	0.404863
H287	H	0.657487	-0.296361	-0.044264
H288	H	1.157487	0.203639	0.455736
H289	H	0.654573	-0.301145	-0.151149
H290	H	1.154573	0.198855	0.348851
H291	H	0.671935	-0.381428	-0.094389
H292	H	1.171935	0.118572	0.405611
C293	C	0.539786	0.263715	0.590074
C294	C	1.039786	0.763715	1.090074
H295	H	0.567564	0.258317	0.629015
H296	H	1.067564	0.758317	1.129015
H297	H	0.512193	0.287385	0.624174
H298	H	1.012193	0.787385	1.124174
H299	H	0.544933	0.299393	0.539449
H300	H	1.044933	0.799393	1.039449
H301	H	0.636649	-0.479706	-0.087409
H302	H	1.136649	0.020294	0.412591
H303	H	0.522601	0.006083	0.420916
H304	H	1.022601	0.506083	0.920916
H305	H	0.413829	0.251948	0.000073
H306	H	0.913829	0.751948	0.500073
C307	C	0.596359	-0.052538	0.410157
C308	C	1.096359	0.447462	0.910157
H309	H	0.619128	-0.030580	0.370641
H310	H	1.119128	0.469420	0.870641
H311	H	0.579587	-0.091192	0.376713
H312	H	1.079587	0.408808	0.876713
H313	H	0.612990	-0.080635	0.460828
H314	H	1.112990	0.419365	0.960828
H315	H	0.589913	-0.031908	0.578765
H316	H	1.089913	0.468092	1.078765
H317	H	0.084694	0.322613	0.000116
H318	H	0.584694	0.822613	0.500116
C319	C	0.181708	0.346163	0.000103
C320	C	0.681708	0.846163	0.500103
H321	H	0.216171	0.335832	0.000095
H322	H	0.716171	0.835832	0.500095
H323	H	0.171074	0.377390	0.053695
H324	H	0.671074	0.877390	0.553695
H325	H	0.171081	0.377383	-0.053496
H326	H	0.671081	0.877383	0.446504
C327	C	0.217402	-0.127224	0.000141
C328	C	0.717402	0.372776	0.500141
H329	H	0.198593	-0.173085	0.000137
H330	H	0.698593	0.326915	0.500137
H331	H	0.237310	-0.130054	0.053728
H332	H	0.737310	0.369946	0.553728
H333	H	0.237310	-0.130055	-0.053463
H334	H	0.737310	0.369945	0.446537
H335	H	-0.066567	0.319941	0.000130
H336	H	0.433433	0.819941	0.500130
H337	H	-0.034161	-0.109804	0.000141
H338	H	0.465839	0.390196	0.500141
C339	C	0.480605	0.161824	0.411158
C340	C	0.980605	0.661824	0.911158
H341	H	0.459788	0.155655	0.462212
H342	H	0.959788	0.655655	0.962212
H343	H	0.483257	0.112178	0.374565
H344	H	0.983257	0.612178	0.874565
H345	H	0.467519	0.208597	0.374820
H346	H	0.967519	0.708597	0.874820
H347	H	0.057293	-0.108193	0.000138
H348	H	0.557293	0.391807	0.500138
