data_functionalizedCrystal
_audit_creation_method	'MofGen! by Chris Wilmer'
_symmetry_space_group_name_H-M	'P1'
_symmetry_Int_Tables_number	1
_symmetry_cell_setting	triclinic
loop_
_symmetry_equiv_pos_as_xyz
  x,y,z
_cell_length_a	13.897449
_cell_length_b	19.121063
_cell_length_c	13.897441
_cell_angle_alpha	92.405670
_cell_angle_beta	89.979267
_cell_angle_gamma	92.470221
loop_
_atom_site_label
_atom_site_type_symbol
_atom_site_fract_x
_atom_site_fract_y
_atom_site_fract_z
Zn1	Zn	1.458257	-0.279567	-0.561726
Zn2	Zn	1.451242	-0.397031	-0.407294
Zn3	Zn	1.296944	-0.279601	-0.400446
Zn4	Zn	1.290021	-0.396984	-0.568544
O5	O	1.374116	-0.338296	-0.484503
O6	O	1.592308	-0.295154	-0.541253
O7	O	1.430735	-0.381487	-0.271406
O8	O	1.324176	-0.181312	-0.416120
O9	O	1.587154	-0.381454	-0.427793
O10	O	1.442692	-0.181287	-0.534612
O11	O	1.317374	-0.295211	-0.266375
O12	O	1.161045	-0.295166	-0.422732
O13	O	1.312377	-0.381375	-0.702620
O14	O	1.155958	-0.381408	-0.546233
O15	O	1.435979	-0.295109	-0.697610
O16	O	1.424022	-0.495309	-0.434404
O17	O	1.305574	-0.495275	-0.552874
C18	C	1.123502	-0.338286	-0.484480
C19	C	1.016288	-0.338299	-0.484494
C20	C	0.819992	-0.338302	-0.484520
C21	C	0.929225	-0.338298	-0.484503
C22	C	1.363311	-0.520776	-0.495143
C23	C	1.358777	-0.598842	-0.499727
C24	C	1.418365	-0.635512	-0.440252
C25	C	1.414106	-0.708863	-0.444569
C26	C	1.350255	-0.745543	-0.508358
C27	C	1.290665	-0.708868	-0.567840
C28	C	1.294929	-0.635518	-0.563527
C29	C	1.334297	-0.967012	-0.524468
C30	C	1.330035	-1.040367	-0.528775
C31	C	1.453478	-1.040357	-0.405504
C32	C	1.457733	-0.967006	-0.401192
C33	C	1.398147	-0.930337	-0.460678
C34	C	1.345898	-0.820519	-0.512770
C35	C	1.402509	-0.855362	-0.456270
C36	C	1.625708	-0.338306	-0.484526
C37	C	1.732922	-0.338310	-0.484536
C38	C	1.374188	-0.338234	-0.736092
C39	C	1.374219	-0.338207	-0.843305
C40	C	1.384989	-0.155103	-0.473842
C41	C	1.389623	-0.077037	-0.469299
C42	C	1.374248	-0.338160	-1.039597
C43	C	1.374229	-0.338188	-0.930366
C44	C	1.374103	-0.338307	-0.233889
C45	C	1.374271	-0.338135	-0.126665
H46	H	1.462628	-0.738716	-0.396136
H47	H	1.293908	-0.850392	-0.564705
O48	O	1.480473	-0.599992	-0.378259
C49	C	1.532135	-0.648091	-0.326674
H50	H	1.532417	-0.700352	-0.369261
H51	H	1.609374	-0.626858	-0.315201
H52	H	1.496393	-0.655957	-0.253847
O53	O	1.519852	-0.931486	-0.339211
C54	C	1.571519	-0.979581	-0.287626
H55	H	1.571795	-1.031845	-0.330207
H56	H	1.648760	-0.958348	-0.276165
H57	H	1.535785	-0.987442	-0.214794
O58	O	1.511332	-1.076086	-0.347832
C59	C	1.493867	-1.148692	-0.365300
H60	H	1.461644	-1.158687	-0.440295
H61	H	1.564509	-1.176524	-0.360472
H62	H	1.441329	-1.169575	-0.309259
O63	O	1.268117	-1.075970	-0.590883
C64	C	1.290185	-1.057974	-0.685981
H65	H	1.368415	-1.037756	-0.689727
H66	H	1.279057	-1.106194	-0.736456
H67	H	1.240928	-1.015420	-0.708659
O68	O	1.276369	-0.931318	-0.582102
C69	C	1.216548	-0.888971	-0.524635
H70	H	1.251249	-0.878003	-0.450923
H71	H	1.206598	-0.837377	-0.560879
H72	H	1.143425	-0.917288	-0.515633
H73	H	1.246408	-0.605662	-0.611960
O74	O	1.228769	-0.744575	-0.629857
C75	C	1.281191	-0.786923	-0.694711
H76	H	1.353672	-0.797886	-0.661402
H77	H	1.238894	-0.838520	-0.710634
H78	H	1.293397	-0.758610	-0.764540
H79	H	1.454500	-0.825495	-0.404337
