data_functionalizedCrystal
_audit_creation_method	'MofGen! by Chris Wilmer'
_symmetry_space_group_name_H-M	'P1'
_symmetry_Int_Tables_number	1
_symmetry_cell_setting	triclinic
loop_
_symmetry_equiv_pos_as_xyz
  x,y,z
_cell_length_a	15.944493
_cell_length_b	16.109301
_cell_length_c	14.586319
_cell_angle_alpha	89.994786
_cell_angle_beta	89.997059
_cell_angle_gamma	83.468262
loop_
_atom_site_label
_atom_site_type_symbol
_atom_site_fract_x
_atom_site_fract_y
_atom_site_fract_z
O1	O	1.114518	0.106998	-0.076231
O2	O	1.364518	0.356998	0.173769
O3	O	1.614518	0.606998	0.423769
O4	O	1.864518	0.856998	0.673769
O5	O	0.869957	0.120268	-0.076236
O6	O	1.119957	0.370268	0.173764
O7	O	1.369957	0.620268	0.423764
O8	O	1.619957	0.870268	0.673764
O9	O	0.998956	-0.007397	-0.076224
O10	O	1.248956	0.242603	0.173776
O11	O	1.498956	0.492603	0.423776
O12	O	1.748956	0.742603	0.673776
O13	O	0.985519	0.234663	-0.076243
O14	O	1.235519	0.484663	0.173757
O15	O	1.485519	0.734663	0.423757
O16	O	1.735519	0.984663	0.673757
O17	O	0.998947	-0.007399	0.076257
O18	O	1.248947	0.242601	0.326257
O19	O	1.498947	0.492601	0.576257
O20	O	1.748947	0.742601	0.826257
O21	O	0.869948	0.120266	0.076245
O22	O	1.119948	0.370266	0.326245
O23	O	1.369948	0.620266	0.576245
O24	O	1.619948	0.870266	0.826245
O25	O	1.114509	0.106996	0.076250
O26	O	1.364509	0.356996	0.326250
O27	O	1.614509	0.606996	0.576250
O28	O	1.864509	0.856996	0.826250
Cu29	Cu	0.992228	0.113631	0.090170
Cu30	Cu	1.242228	0.363631	0.340170
Cu31	Cu	1.492228	0.613631	0.590170
Cu32	Cu	1.742228	0.863631	0.840170
Cu33	Cu	0.992239	0.113633	-0.090156
Cu34	Cu	1.242239	0.363633	0.159844
Cu35	Cu	1.492239	0.613633	0.409844
Cu36	Cu	1.742239	0.863633	0.659844
O37	O	0.985510	0.234661	0.076238
O38	O	1.235510	0.484661	0.326238
O39	O	1.485510	0.734661	0.576238
O40	O	1.735510	0.984661	0.826238
C41	C	0.998407	-0.038373	0.000017
C42	C	1.248407	0.211627	0.250017
C43	C	1.498407	0.461627	0.500017
C44	C	1.748407	0.711627	0.750017
C45	C	0.996775	-0.130669	0.000018
C46	C	1.246775	0.119331	0.250018
C47	C	1.496775	0.369331	0.500018
C48	C	1.746775	0.619331	0.750018
C49	C	0.838658	0.119725	0.000004
C50	C	1.088658	0.369725	0.250004
C51	C	1.338658	0.619725	0.500004
C52	C	1.588658	0.869725	0.750004
C53	C	0.745410	0.118099	0.000002
C54	C	0.995410	0.368099	0.250002
C55	C	1.245410	0.618099	0.500002
C56	C	1.495410	0.868099	0.750002
C57	C	1.069526	-0.352933	0.000005
C58	C	1.319526	-0.102933	0.250005
C59	C	1.569526	0.147067	0.500005
C60	C	1.819526	0.397067	0.750005
C61	C	1.067987	-0.439653	-0.000003
C62	C	1.317987	-0.189653	0.249997
C63	C	1.567987	0.060347	0.499997
C64	C	1.817987	0.310347	0.749997
C65	C	0.914934	-0.419797	-0.000002
C66	C	1.164934	-0.169797	0.249998
C67	C	1.414934	0.080203	0.499998
C68	C	1.664934	0.330203	0.749998
C69	C	0.916475	-0.333078	-0.000001
C70	C	1.166475	-0.083078	0.249999
C71	C	1.416475	0.166922	0.499999
C72	C	1.666475	0.416922	0.749999
C73	C	0.993773	-0.299648	0.000007
C74	C	1.243773	-0.049648	0.250007
C75	C	1.493773	0.200352	0.500007
C76	C	1.743773	0.450352	0.750007
C77	C	0.990693	-0.473088	-0.000001
C78	C	1.240693	-0.223088	0.249999
C79	C	1.490693	0.026912	0.499999
C80	C	1.740693	0.276912	0.749999
C81	C	0.989023	-0.567114	-0.000010
C82	C	1.239023	-0.317114	0.249990
C83	C	1.489023	-0.067114	0.499990
C84	C	1.739023	0.182886	0.749990
C85	C	0.995444	-0.205616	0.000014
C86	C	1.245444	0.044384	0.250014
C87	C	1.495444	0.294384	0.500014
C88	C	1.745444	0.544384	0.750014
C89	C	0.509625	0.193245	-0.000004
C90	C	0.759625	0.443245	0.249996
C91	C	1.009625	0.693245	0.499996
C92	C	1.259625	0.943245	0.749996
C93	C	0.459076	0.152721	0.075184
C94	C	0.709076	0.402721	0.325184
C95	C	0.959076	0.652721	0.575184
C96	C	1.209076	0.902721	0.825184
C97	C	0.574690	0.115086	0.000004
C98	C	0.824690	0.365086	0.250004
C99	C	1.074690	0.615086	0.500004
C100	C	1.324690	0.865086	0.750004
C101	C	0.459089	0.152704	-0.075150
C102	C	0.709089	0.402704	0.174850
C103	C	0.959089	0.652704	0.424850
C104	C	1.209089	0.902704	0.674850
C105	C	0.409781	0.112181	0.000002
C106	C	0.659781	0.362181	0.250002
C107	C	0.909781	0.612181	0.500002
C108	C	1.159781	0.862181	0.750002
C109	C	0.525369	0.074582	0.075255
C110	C	0.775369	0.324582	0.325255
C111	C	1.025369	0.574582	0.575255
C112	C	1.275369	0.824582	0.825255
C113	C	0.525386	0.074577	-0.075147
C114	C	0.775386	0.324577	0.174853
C115	C	1.025386	0.574577	0.424853
C116	C	1.275386	0.824577	0.674853
C117	C	0.474869	0.033995	0.000059
C118	C	0.724869	0.283995	0.250059
C119	C	0.974869	0.533995	0.500059
C120	C	1.224869	0.783995	0.750059
C121	C	0.669689	0.116761	0.000006
C122	C	0.919689	0.366761	0.250006
C123	C	1.169689	0.616761	0.500006
C124	C	1.419689	0.866761	0.750006
C125	C	0.314785	0.110499	0.000007
C126	C	0.564785	0.360499	0.250007
C127	C	0.814785	0.610499	0.500007
C128	C	1.064785	0.860499	0.750007
C129	C	1.145808	0.107539	0.000008
C130	C	1.395808	0.357539	0.250008
C131	C	1.645808	0.607539	0.500008
C132	C	1.895808	0.857539	0.750008
C133	C	1.239056	0.109165	0.000003
C134	C	1.489056	0.359165	0.250003
C135	C	1.739056	0.609165	0.500003
C136	C	1.989056	0.859165	0.750003
C137	C	0.986059	0.265637	-0.000005
C138	C	1.236059	0.515637	0.249995
C139	C	1.486059	0.765637	0.499995
C140	C	1.736059	1.015637	0.749995
C141	C	0.987691	0.357932	-0.000012
C142	C	1.237691	0.607932	0.249988
C143	C	1.487691	0.857932	0.499988
C144	C	1.737691	1.107932	0.749988
N145	N	0.992227	0.113629	0.217002
N146	N	1.242227	0.363629	0.467002
N147	N	1.492227	0.613629	0.717002
N148	N	1.742227	0.863629	0.967002
N149	N	0.992246	0.113628	-0.216988
N150	N	1.242246	0.363628	0.033012
N151	N	1.492246	0.613628	0.283012
N152	N	1.742246	0.863628	0.533012
C153	C	1.049366	0.057117	0.452013
C154	C	1.299366	0.307117	0.702013
C155	C	1.549366	0.557117	0.952013
C156	C	1.799366	0.807117	1.202013
C157	C	1.049368	0.057115	0.547995
C158	C	1.299368	0.307115	0.797995
C159	C	1.549368	0.557115	1.047995
C160	C	1.799368	0.807115	1.297995
C161	C	0.935101	0.170142	0.547994
C162	C	1.185101	0.420142	0.797994
C163	C	1.435101	0.670142	1.047994
C164	C	1.685101	0.920142	1.297994
C165	C	0.935095	0.170140	0.452014
C166	C	1.185095	0.420140	0.702014
C167	C	1.435095	0.670140	0.952014
C168	C	1.685095	0.920140	1.202014
C169	C	0.992232	0.113628	0.404026
C170	C	1.242232	0.363628	0.654026
C171	C	1.492232	0.613628	0.904026
C172	C	1.742232	0.863628	1.154026
C173	C	0.992241	0.113629	0.595987
C174	C	1.242241	0.363629	0.845987
C175	C	1.492241	0.613629	1.095987
C176	C	1.742241	0.863629	1.345987
C177	C	0.992243	0.113627	0.700054
C178	C	1.242243	0.363627	0.950054
C179	C	1.492243	0.613627	1.200054
C180	C	1.742243	0.863627	1.450054
C181	C	0.992229	0.113629	0.299953
C182	C	1.242229	0.363629	0.549953
C183	C	1.492229	0.613629	0.799953
C184	C	1.742229	0.863629	1.049953
H185	H	1.132468	-0.325717	0.000010
H186	H	1.382468	-0.075717	0.250010
H187	H	1.632468	0.174283	0.500010
H188	H	1.882468	0.424283	0.750010
H189	H	1.129673	-0.483034	-0.000006
H190	H	1.379673	-0.233034	0.249994
H191	H	1.629673	0.016966	0.499994
H192	H	1.879673	0.266966	0.749994
H193	H	0.430144	0.185729	-0.138707
H194	H	0.680144	0.435729	0.111293
H195	H	0.930144	0.685729	0.361293
H196	H	1.180144	0.935729	0.611293
H197	H	0.852000	-0.447026	-0.000007
H198	H	1.102000	-0.197026	0.249993
H199	H	1.352000	0.052974	0.499993
H200	H	1.602000	0.302974	0.749993
H201	H	0.525227	0.260572	0.000061
H202	H	0.775227	0.510572	0.250061
H203	H	1.025227	0.760572	0.500061
H204	H	1.275227	1.010572	0.750061
H205	H	0.854784	-0.289691	-0.000002
H206	H	1.104784	-0.039691	0.249998
H207	H	1.354784	0.210309	0.499998
H208	H	1.604784	0.460309	0.749998
H209	H	1.095890	0.011101	0.412944
H210	H	1.345890	0.261101	0.662944
H211	H	1.595890	0.511101	0.912944
H212	H	1.845890	0.761101	1.162944
H213	H	0.430124	0.185728	0.138744
H214	H	0.680124	0.435728	0.388744
H215	H	0.930124	0.685728	0.638744
H216	H	1.180124	0.935728	0.888744
H217	H	1.095891	0.011098	0.587063
H218	H	1.345891	0.261098	0.837063
H219	H	1.595891	0.511098	1.087063
H220	H	1.845891	0.761098	1.337063
H221	H	0.554204	0.041593	0.138883
H222	H	0.804204	0.291593	0.388883
H223	H	1.054204	0.541593	0.638883
H224	H	1.304204	0.791593	0.888883
H225	H	0.888582	0.216154	0.587075
H226	H	1.138582	0.466154	0.837075
H227	H	1.388582	0.716154	1.087075
H228	H	1.638582	0.966154	1.337075
H229	H	0.459426	-0.033382	0.000108
H230	H	0.709426	0.216618	0.250108
H231	H	0.959426	0.466618	0.500108
H232	H	1.209426	0.716618	0.750108
H233	H	0.554346	0.041594	-0.138710
H234	H	0.804346	0.291594	0.111290
H235	H	1.054346	0.541594	0.361290
H236	H	1.304346	0.791594	0.611290
H237	H	0.888566	0.216158	0.412940
H238	H	1.138566	0.466158	0.662940
H239	H	1.388566	0.716158	0.912940
H240	H	1.638566	0.966158	1.162940
