data_functionalizedCrystal
_audit_creation_method	'MofGen! by Chris Wilmer'
_symmetry_space_group_name_H-M	'P1'
_symmetry_Int_Tables_number	1
_symmetry_cell_setting	triclinic
loop_
_symmetry_equiv_pos_as_xyz
  x,y,z
_cell_length_a	11.792254
_cell_length_b	10.268362
_cell_length_c	12.837942
_cell_angle_alpha	89.999312
_cell_angle_beta	90.486231
_cell_angle_gamma	90.004577
loop_
_atom_site_label
_atom_site_type_symbol
_atom_site_fract_x
_atom_site_fract_y
_atom_site_fract_z
O1	O	1.521325	0.108299	-0.142226
O2	O	1.192471	0.108301	-0.156864
O3	O	1.349606	0.108292	0.001399
O4	O	1.364190	0.108308	-0.300489
O5	O	1.349590	-0.108309	0.001393
O6	O	1.192454	-0.108299	-0.156870
O7	O	1.521309	-0.108302	-0.142232
Cu8	Cu	1.356880	-0.128078	-0.149551
Cu9	Cu	1.356899	0.128077	-0.149545
O10	O	1.364174	-0.108293	-0.300495
C11	C	1.150078	0.000001	-0.155945
C12	C	1.023785	0.000002	-0.153185
C13	C	0.921221	0.000008	-0.150943
C14	C	0.792550	0.000008	-0.148138
N15	N	1.356875	-0.308244	-0.149555
C16	C	1.356883	-0.426086	-0.149556
C17	C	1.356897	-0.573924	-0.149546
C18	C	1.563701	0.000001	-0.143151
C19	C	1.689994	0.000008	-0.145911
C20	C	1.344671	-0.000008	0.040045
C21	C	1.329977	-0.000005	0.155205
N22	N	1.356913	0.308243	-0.149533
C23	C	1.369109	0.000010	-0.339141
C24	C	1.383802	0.000016	-0.454301
C25	C	1.506623	0.000020	0.395163
C26	C	1.492822	0.000023	0.503367
C27	C	1.288576	0.000011	0.479819
C28	C	1.302377	0.000009	0.371615
C29	C	1.411404	0.000011	0.329291
C30	C	1.425204	-0.000000	0.221085
C31	C	1.220958	-0.000003	0.197539
C32	C	1.207158	-0.000000	0.305743
H33	H	1.595397	0.000010	0.360703
H34	H	1.143424	-0.000020	0.143894
H35	H	1.513979	-0.000003	0.186627
H36	H	1.199811	0.000023	0.514298
H37	H	1.118391	0.000002	0.340218
N38	N	1.595521	0.000035	0.574417
H39	H	1.666679	0.000036	0.531182
H40	H	1.594242	-0.080261	0.619826
