data_functionalizedCrystal
_audit_creation_method	'MofGen! by Chris Wilmer'
_symmetry_space_group_name_H-M	'P1'
_symmetry_Int_Tables_number	1
_symmetry_cell_setting	triclinic
loop_
_symmetry_equiv_pos_as_xyz
  x,y,z
_cell_length_a	6.817900
_cell_length_b	11.102294
_cell_length_c	9.582880
_cell_angle_alpha	90.972313
_cell_angle_beta	111.207034
_cell_angle_gamma	108.605785
loop_
_atom_site_label
_atom_site_type_symbol
_atom_site_fract_x
_atom_site_fract_y
_atom_site_fract_z
V1	V	-4.142615	-0.175303	-0.466600
V2	V	-3.642615	0.324697	0.033400
O3	O	-4.101056	0.008976	-0.457719
O4	O	-3.601056	0.508976	0.042281
O5	O	-4.119179	-0.348126	-0.463407
O6	O	-3.619179	0.151874	0.036593
O7	O	-4.132953	-0.172364	-0.670101
O8	O	-3.632953	0.327636	-0.170101
O9	O	-4.087186	-0.168003	-0.249594
O10	O	-3.587186	0.331997	0.250406
V11	V	-4.617988	-0.153289	-0.440644
V12	V	-4.117988	0.346711	0.059356
O13	O	-4.421749	-0.223590	-0.523535
O14	O	-3.921749	0.276410	-0.023535
O15	O	-4.789051	-0.105002	-0.383709
O16	O	-4.289051	0.394998	0.116291
O17	O	-4.418218	0.019534	-0.443837
O18	O	-3.918218	0.519534	0.056163
O19	O	-4.776944	-0.337568	-0.449525
O20	O	-4.276944	0.162432	0.050475
O21	O	-4.790813	-0.160589	-0.657649
O22	O	-4.290813	0.339411	-0.157649
O23	O	-4.404443	-0.156228	-0.237143
O24	O	-3.904443	0.343772	0.262857
C25	C	-3.968999	-0.390265	-0.456045
C26	C	-3.468999	0.109735	0.043955
C27	C	-4.031382	-0.531549	-0.454791
C28	C	-3.531382	-0.031549	0.045209
C29	C	-4.303811	-0.737151	-0.460511
C30	C	-3.803811	-0.237151	0.039489
C31	C	-4.245201	-0.604398	-0.461672
C32	C	-3.745201	-0.104398	0.038328
C33	C	-3.876156	-0.591457	-0.446734
C34	C	-3.376156	-0.091457	0.053266
C35	C	-3.934761	-0.724206	-0.445562
C36	C	-3.434761	-0.224206	0.054438
C37	C	-3.986568	-0.166061	-0.719702
C38	C	-3.486568	0.333939	-0.219702
C39	C	-4.060117	-0.164802	-0.886065
C40	C	-3.560117	0.335198	-0.386065
C41	C	-4.231740	0.061666	-0.451194
C42	C	-3.731740	0.561666	0.048806
C43	C	-4.148597	0.202949	-0.452458
C44	C	-3.648597	0.702949	0.047542
C45	C	-4.214170	-0.162536	-0.187534
C46	C	-3.714170	0.337464	0.312466
C47	C	-4.119858	-0.163788	-0.021169
C48	C	-3.619858	0.336212	0.478831
H49	H	-4.371596	-0.555633	-0.468225
H50	H	-3.871596	-0.055633	0.031775
H51	H	-4.477924	-0.796458	-0.466122
H52	H	-3.977924	-0.296458	0.033878
H53	H	-3.702052	-0.532131	-0.441122
H54	H	-3.202052	-0.032131	0.058878
H55	H	-3.808354	-0.772977	-0.439002
H56	H	-3.308354	-0.272977	0.060998
