data_functionalizedCrystal
_audit_creation_method	'MofGen! by Chris Wilmer'
_symmetry_space_group_name_H-M	'P1'
_symmetry_Int_Tables_number	1
_symmetry_cell_setting	triclinic
loop_
_symmetry_equiv_pos_as_xyz
  x,y,z
_cell_length_a	15.944545
_cell_length_b	11.792241
_cell_length_c	10.868271
_cell_angle_alpha	90.005281
_cell_angle_beta	90.001533
_cell_angle_gamma	83.844794
loop_
_atom_site_label
_atom_site_type_symbol
_atom_site_fract_x
_atom_site_fract_y
_atom_site_fract_z
O1	O	-1.115188	-0.146346	-0.102243
O2	O	-0.615188	0.353654	0.397757
O3	O	-0.870719	-0.164401	-0.102263
O4	O	-0.370719	0.335599	0.397737
O5	O	-0.998886	0.009846	-0.102244
O6	O	-0.498886	0.509846	0.397756
O7	O	-0.987021	-0.320593	-0.102262
O8	O	-0.487021	0.179407	0.397738
O9	O	-0.998875	0.009853	0.102401
O10	O	-0.498875	0.509853	0.602401
O11	O	-0.870708	-0.164394	0.102382
O12	O	-0.370708	0.335606	0.602382
O13	O	-1.115177	-0.146340	0.102402
O14	O	-0.615177	0.353660	0.602402
Zn15	Zn	-0.992941	-0.155366	0.134883
Zn16	Zn	-0.492941	0.344634	0.634883
Zn17	Zn	-0.992955	-0.155375	-0.134745
Zn18	Zn	-0.492955	0.344625	0.365255
O19	O	-0.987010	-0.320587	0.102382
O20	O	-0.487010	0.179413	0.602382
C21	C	-0.998135	0.052134	0.000078
C22	C	-0.498135	0.552134	0.500078
C23	C	-0.995904	0.178129	0.000077
C24	C	-0.495904	0.678129	0.500077
C25	C	-0.839416	-0.163649	0.000057
C26	C	-0.339416	0.336351	0.500057
C27	C	-0.746159	-0.161406	0.000049
C28	C	-0.246159	0.338594	0.500049
C29	C	-1.146480	-0.147091	0.000079
C30	C	-0.646480	0.352909	0.500079
C31	C	-1.239736	-0.149335	0.000078
C32	C	-0.739736	0.350665	0.500078
C33	C	-0.475009	-0.046697	0.000069
C34	C	0.024991	0.453303	0.500069
C35	C	-0.525835	-0.101997	0.100969
C36	C	-0.025835	0.398003	0.600969
C37	C	-0.410480	-0.153406	0.000071
C38	C	0.089520	0.346594	0.500071
C39	C	-0.525826	-0.102032	-0.100794
C40	C	-0.025826	0.397968	0.399206
C41	C	-0.575411	-0.157331	0.000058
C42	C	-0.075411	0.342669	0.500058
C43	C	-0.460077	-0.208678	0.101055
C44	C	0.039923	0.291322	0.601055
C45	C	-0.460065	-0.208698	-0.100800
C46	C	0.039935	0.291302	0.399200
C47	C	-0.510858	-0.264076	0.000126
C48	C	-0.010858	0.235924	0.500126
C49	C	-0.315467	-0.151142	0.000079
C50	C	0.184533	0.348858	0.500079
C51	C	-0.670420	-0.159603	0.000059
C52	C	-0.170420	0.340397	0.500059
C53	C	-0.987761	-0.362875	0.000058
C54	C	-0.487761	0.137125	0.500058
C55	C	-0.989991	-0.488870	0.000051
C56	C	-0.489991	0.011130	0.500051
N57	N	-0.992937	-0.155359	0.318897
N58	N	-0.492937	0.344641	0.818897
C59	C	-0.991802	0.408808	0.000056
C60	C	-0.491802	0.908808	0.500056
C61	C	-0.994081	0.280441	0.000067
C62	C	-0.494081	0.780441	0.500067
N63	N	-0.992965	-0.155373	-0.318759
N64	N	-0.492965	0.344627	0.181241
C65	C	-0.992950	-0.155372	0.569903
C66	C	-0.492950	0.344628	1.069903
C67	C	-0.992940	-0.155368	0.430226
C68	C	-0.492940	0.344632	0.930226
H69	H	-0.554558	-0.056928	0.186277
H70	H	-0.054558	0.443072	0.686277
H71	H	-0.431466	-0.253707	0.186450
H72	H	0.068534	0.246293	0.686450
H73	H	-0.458941	0.045202	0.000172
H74	H	0.041059	0.545202	0.500172
H75	H	-0.554545	-0.056951	-0.186093
H76	H	-0.054545	0.443049	0.313907
H77	H	-0.526765	-0.356046	0.000179
H78	H	-0.026765	0.143954	0.500179
C79	C	-0.333606	-0.267638	-0.214111
C80	C	0.166394	0.232362	0.285889
C81	C	-0.421259	-0.269491	-0.215960
C82	C	0.078741	0.230509	0.284040
H83	H	-0.309650	-0.305170	-0.285210
H84	H	0.190350	0.194830	0.214790
H85	H	-0.320723	-0.190846	-0.213396
H86	H	0.179277	0.309154	0.286604
H87	H	-0.311000	-0.305659	-0.142481
H88	H	0.189000	0.194341	0.357519
H89	H	-0.443866	-0.231462	-0.287586
H90	H	0.056134	0.268538	0.212414
H91	H	-0.434148	-0.346297	-0.216688
H92	H	0.065852	0.153703	0.283312
