data_functionalizedCrystal
_audit_creation_method	'MofGen! by Chris Wilmer'
_symmetry_space_group_name_H-M	'P1'
_symmetry_Int_Tables_number	1
_symmetry_cell_setting	triclinic
loop_
_symmetry_equiv_pos_as_xyz
  x,y,z
_cell_length_a	18.050591
_cell_length_b	21.295417
_cell_length_c	18.050583
_cell_angle_alpha	89.959541
_cell_angle_beta	89.977979
_cell_angle_gamma	90.026512
loop_
_atom_site_label
_atom_site_type_symbol
_atom_site_fract_x
_atom_site_fract_y
_atom_site_fract_z
Zn1	Zn	1.135289	-0.250631	-0.420010
Zn2	Zn	1.468622	0.082702	-0.086677
Zn3	Zn	1.801955	0.416036	0.246657
Zn4	Zn	1.135192	-0.355917	-0.295811
Zn5	Zn	1.468525	-0.022584	0.037523
Zn6	Zn	1.801859	0.310749	0.370856
Zn7	Zn	1.011106	-0.250659	-0.295821
Zn8	Zn	1.344439	0.082675	0.037512
Zn9	Zn	1.677772	0.416008	0.370846
Zn10	Zn	1.011051	-0.355859	-0.419946
Zn11	Zn	1.344384	-0.022526	-0.086613
Zn12	Zn	1.677718	0.310808	0.246720
O13	O	1.073159	-0.303267	-0.357897
O14	O	1.406493	0.030067	-0.024564
O15	O	1.739826	0.363400	0.308770
O16	O	1.239201	-0.264610	-0.403557
O17	O	1.572534	0.068723	-0.070224
O18	O	1.905867	0.402056	0.263110
O19	O	1.118714	-0.341991	-0.191887
O20	O	1.452048	-0.008657	0.141446
O21	O	1.785381	0.324676	0.474779
O22	O	1.027642	-0.162566	-0.312326
O23	O	1.360975	0.170768	0.021008
O24	O	1.694309	0.504101	0.354341
O25	O	1.239130	-0.341964	-0.312308
O26	O	1.572463	-0.008631	0.021025
O27	O	1.905796	0.324703	0.354358
O28	O	1.118879	-0.162545	-0.403567
O29	O	1.452212	0.170788	-0.070233
O30	O	1.785546	0.504121	0.263100
O31	O	1.027548	-0.264658	-0.191895
O32	O	1.360882	0.068676	0.141438
O33	O	1.694215	0.402009	0.474772
O34	O	0.907174	-0.264601	-0.312264
O35	O	1.240507	0.068732	0.021069
O36	O	1.573840	0.402066	0.354403
O37	O	1.027549	-0.341864	-0.523879
O38	O	1.360882	-0.008531	-0.190546
O39	O	1.694216	0.324802	0.142787
O40	O	0.907134	-0.341891	-0.403458
O41	O	1.240467	-0.008558	-0.070125
O42	O	1.573800	0.324776	0.263208
O43	O	1.118826	-0.264554	-0.523926
O44	O	1.452159	0.068780	-0.190593
O45	O	1.785493	0.402113	0.142741
O46	O	1.118661	-0.443999	-0.312247
O47	O	1.451995	-0.110666	0.021087
O48	O	1.785328	0.222668	0.354420
O49	O	1.027455	-0.443956	-0.403449
O50	O	1.360789	-0.110623	-0.070115
O51	O	1.694122	0.222710	0.263218
C52	C	0.880207	-0.303243	-0.357856
C53	C	1.213541	0.030090	-0.024523
C54	C	1.546874	0.363423	0.308811
C55	C	0.797662	-0.303248	-0.357856
C56	C	1.130995	0.030085	-0.024523
C57	C	1.464328	0.363418	0.308811
C58	C	0.598211	-0.261169	-0.308379
C59	C	0.931544	0.072164	0.024955
C60	C	1.264878	0.405498	0.358288
C61	C	0.548788	-0.318588	-0.290098
C62	C	0.882122	0.014746	0.043236
C63	C	1.215455	0.348079	0.376569
C64	C	0.646531	-0.303267	-0.357889
C65	C	0.979864	0.030066	-0.024556
C66	C	1.313198	0.363399	0.308777
C67	C	0.548872	-0.245869	-0.376169
C68	C	0.882206	0.087465	-0.042835
C69	C	1.215539	0.420798	0.290498
C70	C	0.500546	-0.303281	-0.357921
C71	C	0.833879	0.030053	-0.024587
C72	C	1.167213	0.363386	0.308746
C73	C	0.598196	-0.360716	-0.339573
C74	C	0.931529	-0.027383	-0.006240
C75	C	1.264862	0.305951	0.327094
C76	C	0.598284	-0.287959	-0.425676
C77	C	0.931617	0.045375	-0.092342
C78	C	1.264950	0.378708	0.240991
C79	C	0.548883	-0.345417	-0.407420
C80	C	0.882217	-0.012083	-0.074087
C81	C	1.215550	0.321250	0.259246
C82	C	0.730629	-0.303259	-0.357870
C83	C	1.063963	0.030074	-0.024536
C84	C	1.397296	0.363408	0.308797
C85	C	0.416450	-0.303296	-0.357940
C86	C	0.749783	0.030038	-0.024607
C87	C	1.083116	0.363371	0.308726
C88	C	1.073062	-0.466818	-0.357856
C89	C	1.406395	-0.133485	-0.024522
C90	C	1.739729	0.199848	0.308811
C91	C	1.073088	-0.536786	-0.357863
C92	C	1.406422	-0.203453	-0.024530
C93	C	1.739755	0.129880	0.308804
C94	C	1.120621	-0.569654	-0.310423
C95	C	1.453955	-0.236321	0.022910
C96	C	1.787288	0.097012	0.356244
C97	C	1.120656	-0.635397	-0.310440
C98	C	1.453990	-0.302064	0.022894
C99	C	1.787323	0.031270	0.356227
C100	C	1.073145	-0.668269	-0.357889
C101	C	1.406478	-0.334936	-0.024555
C102	C	1.739811	-0.001602	0.308778
C103	C	1.025608	-0.635393	-0.405338
C104	C	1.358942	-0.302059	-0.072005
C105	C	1.692275	0.031274	0.261329
C106	C	1.025580	-0.569652	-0.405325
C107	C	1.358913	-0.236318	-0.071992
C108	C	1.692247	0.097015	0.261341
N109	N	1.008178	-0.771530	-0.363536
N110	N	1.341511	-0.438197	-0.030203
N111	N	1.674844	-0.104863	0.303130
N112	N	1.008207	-0.833981	-0.363544
N113	N	1.341540	-0.500648	-0.030211
N114	N	1.674873	-0.167315	0.303122
C115	C	1.073228	-0.866344	-0.357931
C116	C	1.406561	-0.533010	-0.024598
C117	C	1.739895	-0.199677	0.308735
N118	N	1.138221	-0.833895	-0.352296
N119	N	1.471554	-0.500562	-0.018962
N120	N	1.804887	-0.167228	0.314371
N121	N	1.138191	-0.771438	-0.352284
N122	N	1.471524	-0.438104	-0.018951
N123	N	1.804857	-0.104771	0.314383
C124	C	1.073170	-0.739554	-0.357908
C125	C	1.406504	-0.406221	-0.024575
C126	C	1.739837	-0.072888	0.308758
C127	C	1.120803	-0.970497	-0.310507
C128	C	1.454136	-0.637164	0.022827
C129	C	1.787469	-0.303830	0.356160
C130	C	1.120839	-1.036241	-0.310529
C131	C	1.454172	-0.702907	0.022805
C132	C	1.787505	-0.369574	0.356138
C133	C	1.025784	-1.036235	-0.405423
C134	C	1.359117	-0.702902	-0.072090
C135	C	1.692451	-0.369569	0.261244
C136	C	1.025755	-0.970493	-0.405405
C137	C	1.359088	-0.637160	-0.072072
C138	C	1.692421	-0.303826	0.261262
C139	C	1.073263	-0.937628	-0.357943
C140	C	1.406596	-0.604294	-0.024610
C141	C	1.739930	-0.270961	0.308724
C142	C	1.266865	-0.303291	-0.357939
C143	C	1.600198	0.030043	-0.024605
C144	C	1.933532	0.363376	0.308728
C145	C	1.349411	-0.303301	-0.357956
C146	C	1.682744	0.030033	-0.024623
C147	C	2.016077	0.363366	0.308710
C148	C	1.073192	-0.303199	-0.551603
C149	C	1.406526	0.030134	-0.218269
C150	C	1.739859	0.363467	0.115064
C151	C	1.073206	-0.303171	-0.634148
C152	C	1.406540	0.030163	-0.300815
C153	C	1.739873	0.363496	0.032518
C154	C	1.073277	-0.139076	-0.357955
C155	C	1.406611	0.194257	-0.024621
C156	C	1.739944	0.527590	0.308712
C157	C	1.073328	-0.069108	-0.357979
C158	C	1.406661	0.264225	-0.024646
C159	C	1.739994	0.597558	0.308688
C160	C	1.122892	-0.261109	-0.833625
C161	C	1.456226	0.072224	-0.500291
C162	C	1.789559	0.405558	-0.166958
C163	C	1.055159	-0.245698	-0.883014
C164	C	1.388493	0.087635	-0.549680
C165	C	1.721826	0.420968	-0.216347
C166	C	1.073236	-0.303160	-0.785279
C167	C	1.406569	0.030173	-0.451946
C168	C	1.739903	0.363507	-0.118612
C169	C	1.140996	-0.318531	-0.882972
C170	C	1.474330	0.014803	-0.549638
C171	C	1.807663	0.348136	-0.216305
C172	C	1.073271	-0.303148	-0.931264
C173	C	1.406604	0.030185	-0.597931
C174	C	1.739937	0.363518	-0.264597
C175	C	1.005467	-0.287720	-0.833581
C176	C	1.338800	0.045614	-0.500247
C177	C	1.672134	0.378947	-0.166914
C178	C	1.091350	-0.360579	-0.833534
C179	C	1.424683	-0.027245	-0.500201
C180	C	1.758016	0.306088	-0.166868
C181	C	1.023570	-0.345190	-0.882901
C182	C	1.356903	-0.011857	-0.549568
C183	C	1.690237	0.321477	-0.216234
C184	C	1.073217	-0.303165	-0.701181
C185	C	1.406550	0.030168	-0.367847
C186	C	1.739884	0.363502	-0.034514
C187	C	1.073282	-0.303143	-1.015361
C188	C	1.406615	0.030190	-0.682027
C189	C	1.739949	0.363523	-0.348694
C190	C	1.073169	-0.303288	-0.164945
C191	C	1.406503	0.030045	0.168388
C192	C	1.739836	0.363379	0.501722
C193	C	1.073299	-0.303139	-0.082399
C194	C	1.406633	0.030194	0.250934
C195	C	1.739966	0.363527	0.584267
H196	H	0.619870	-0.225606	-0.266464
H197	H	0.953203	0.107727	0.066870
H198	H	1.286536	0.441060	0.400203
C199	C	0.966800	-0.393221	-0.911956
C200	C	1.300134	-0.059887	-0.578622
C201	C	1.633467	0.273446	-0.245289
H202	H	0.918722	-0.382194	-0.894952
H203	H	1.252056	-0.048861	-0.561619
H204	H	1.585389	0.284472	-0.228286
H205	H	0.979244	-0.433890	-0.894265
H206	H	1.312578	-0.100557	-0.560932
H207	H	1.645911	0.232776	-0.227598
H208	H	0.967402	-0.393197	-0.964582
H209	H	1.300735	-0.059863	-0.631249
H210	H	1.634069	0.273470	-0.297916
C211	C	0.627337	-0.426317	-0.318612
C212	C	0.960670	-0.092983	0.014722
C213	C	1.294003	0.240350	0.348055
H214	H	0.679966	-0.425906	-0.318703
H215	H	1.013300	-0.092572	0.014630
H216	H	1.346633	0.240761	0.347963
H217	H	0.610052	-0.456248	-0.353572
H218	H	0.943385	-0.122914	-0.020238
H219	H	1.276719	0.210419	0.313095
H220	H	0.609978	-0.437261	-0.270616
H221	H	0.943312	-0.103928	0.062718
H222	H	1.276645	0.229405	0.396051
H223	H	1.159366	-0.662163	-0.271808
H224	H	1.492699	-0.328830	0.061525
H225	H	1.826033	0.004503	0.394858
C226	C	0.519606	-0.180288	-0.397043
C227	C	0.852939	0.153045	-0.063710
C228	C	1.186272	0.486378	0.269623
H229	H	0.536505	-0.150426	-0.361805
H230	H	0.869838	0.182907	-0.028472
H231	H	1.203172	0.516240	0.304862
H232	H	0.466985	-0.180854	-0.397350
H233	H	0.800318	0.152480	-0.064016
H234	H	1.133651	0.485813	0.269317
H235	H	0.537289	-0.169120	-0.444849
H236	H	0.870622	0.164213	-0.111516
H237	H	1.203955	0.497546	0.221818
H238	H	1.106680	-0.409128	-0.811786
H239	H	1.440013	-0.075795	-0.478453
H240	H	1.773347	0.257539	-0.145119
C241	C	1.218387	-0.336106	-0.912276
C242	C	1.551721	-0.002773	-0.578942
C243	C	1.885054	0.330561	-0.245609
H244	H	1.253592	-0.306191	-0.895394
H245	H	1.586926	0.027142	-0.562061
H246	H	1.920259	0.360476	-0.228728
H247	H	1.217739	-0.336354	-0.964896
H248	H	1.551073	-0.003020	-0.631563
H249	H	1.884406	0.330313	-0.298230
H250	H	1.231581	-0.376613	-0.894598
H251	H	1.564914	-0.043280	-0.561265
H252	H	1.898248	0.290053	-0.227931
C253	C	0.973347	-0.671546	-0.457533
C254	C	1.306680	-0.338213	-0.124200
C255	C	1.640013	-0.004879	0.209134
H256	H	0.945036	-0.642553	-0.485790
H257	H	1.278370	-0.309219	-0.152457
H258	H	1.611703	0.024114	0.180876
H259	H	0.941016	-0.697236	-0.429099
H260	H	1.274349	-0.363902	-0.095765
H261	H	1.607683	-0.030569	0.237568
H262	H	1.001752	-0.697147	-0.489926
H263	H	1.335086	-0.363814	-0.156593
H264	H	1.668419	-0.030480	0.176740
C265	C	0.519413	-0.336093	-0.212679
C266	C	0.852746	-0.002759	0.120655
C267	C	1.186080	0.330574	0.453988
H268	H	0.536297	-0.306136	-0.177545
H269	H	0.869631	0.027197	0.155788
H270	H	1.202964	0.360530	0.489122
H271	H	0.537026	-0.376583	-0.199362
H272	H	0.870359	-0.043250	0.133971
H273	H	1.203693	0.290084	0.467304
H274	H	0.466788	-0.336343	-0.213364
H275	H	0.800122	-0.003009	0.119969
H276	H	1.133455	0.330324	0.453303
C277	C	0.519799	-0.393570	-0.463997
C278	C	0.853132	-0.060237	-0.130664
C279	C	1.186466	0.273096	0.202669
H280	H	0.536779	-0.434312	-0.450902
H281	H	0.870112	-0.100979	-0.117568
H282	H	1.203445	0.232355	0.215765
H283	H	0.537495	-0.383039	-0.511994
H284	H	0.870828	-0.049706	-0.178661
H285	H	1.204162	0.283628	0.154673
H286	H	0.467173	-0.393076	-0.463986
H287	H	0.800506	-0.059742	-0.130652
H288	H	1.133839	0.273591	0.202681
C289	C	0.627683	-0.270430	-0.503073
C290	C	0.961016	0.062903	-0.169740
C291	C	1.294350	0.396237	0.163593
H292	H	0.610827	-0.229608	-0.515978
H293	H	0.944160	0.103725	-0.182644
H294	H	1.277493	0.437059	0.150689
H295	H	0.610060	-0.299922	-0.538382
H296	H	0.943394	0.033411	-0.205048
H297	H	1.276727	0.366744	0.128285
H298	H	0.680307	-0.270930	-0.502604
H299	H	1.013640	0.062404	-0.169270
H300	H	1.346974	0.395737	0.164063
H301	H	0.986872	-0.542890	-0.443958
H302	H	1.320206	-0.209556	-0.110624
H303	H	1.653539	0.123777	0.222709
H304	H	0.948161	-0.274658	-0.811976
H305	H	1.281495	0.058676	-0.478643
H306	H	1.614828	0.392009	-0.145310
C307	C	1.034477	-0.180098	-0.912380
C308	C	1.367810	0.153235	-0.579046
C309	C	1.701143	0.486569	-0.245713
H310	H	1.069793	-0.150271	-0.895514
H311	H	1.403127	0.183062	-0.562180
H312	H	1.736460	0.516395	-0.228847
H313	H	0.986694	-0.168884	-0.894743
H314	H	1.320028	0.164449	-0.561410
H315	H	1.653361	0.497782	-0.228076
H316	H	1.034200	-0.180666	-0.965004
H317	H	1.367534	0.152668	-0.631671
H318	H	1.700867	0.486001	-0.298338
C319	C	1.172861	-0.533503	-0.258203
C320	C	1.506195	-0.200170	0.075131
C321	C	1.839528	0.133163	0.408464
H322	H	1.166029	-0.489642	-0.264978
H323	H	1.499362	-0.156309	0.068355
H324	H	1.832695	0.177025	0.401689
H325	H	1.222764	-0.544227	-0.269102
H326	H	1.556098	-0.210893	0.064231
H327	H	1.889431	0.122440	0.397564
H328	H	1.162002	-0.544331	-0.208300
H329	H	1.495336	-0.210998	0.125033
H330	H	1.828669	0.122336	0.458366
C331	C	1.173066	-0.934343	-0.258310
C332	C	1.506400	-0.601009	0.075024
C333	C	1.839733	-0.267676	0.408357
H334	H	1.201390	-0.963336	-0.230066
H335	H	1.534723	-0.630003	0.103268
H336	H	1.868056	-0.296670	0.436601
H337	H	1.144669	-0.908742	-0.225915
H338	H	1.478003	-0.575408	0.107418
H339	H	1.811336	-0.242075	0.440752
H340	H	1.205396	-0.908653	-0.286753
H341	H	1.538729	-0.575320	0.046581
H342	H	1.872062	-0.241986	0.379914
C343	C	1.179533	-0.213044	-0.804395
C344	C	1.512866	0.120289	-0.471061
C345	C	1.846200	0.453622	-0.137728
H346	H	1.166552	-0.172263	-0.821341
H347	H	1.499886	0.161071	-0.488007
H348	H	1.833219	0.494404	-0.154674
H349	H	1.227531	-0.223571	-0.822036
H350	H	1.560864	0.109762	-0.488703
H351	H	1.894198	0.443095	-0.155370
H352	H	1.179446	-0.213639	-0.751769
H353	H	1.512780	0.119694	-0.418435
H354	H	1.846113	0.453028	-0.085102
H355	H	1.159551	-1.063001	-0.271899
H356	H	1.492884	-0.729668	0.061435
H357	H	1.826217	-0.396334	0.394768
H358	H	0.987103	-1.062999	-0.444060
H359	H	1.320436	-0.729666	-0.110727
H360	H	1.653769	-0.396332	0.222606
H361	H	0.987046	-0.943730	-0.444032
H362	H	1.320379	-0.610397	-0.110699
H363	H	1.653712	-0.277063	0.222634
