data_functionalizedCrystal
_audit_creation_method	'MofGen! by Chris Wilmer'
_symmetry_space_group_name_H-M	'P1'
_symmetry_Int_Tables_number	1
_symmetry_cell_setting	triclinic
loop_
_symmetry_equiv_pos_as_xyz
  x,y,z
_cell_length_a	14.519709
_cell_length_b	11.792254
_cell_length_c	12.996460
_cell_angle_alpha	90.006814
_cell_angle_beta	89.994177
_cell_angle_gamma	83.939371
loop_
_atom_site_label
_atom_site_type_symbol
_atom_site_fract_x
_atom_site_fract_y
_atom_site_fract_z
O1	O	0.126461	1.506180	-0.085568
O2	O	0.459795	1.839514	0.247765
O3	O	0.793128	2.172847	0.581098
O4	O	0.139476	1.175769	-0.085571
O5	O	0.472810	1.509102	0.247762
O6	O	0.806143	1.842436	0.581096
O7	O	-0.001237	1.349735	-0.085560
O8	O	0.332096	1.683068	0.247773
O9	O	0.665429	2.016402	0.581106
O10	O	0.267175	1.332214	-0.085579
O11	O	0.600508	1.665548	0.247754
O12	O	0.933842	1.998881	0.581088
O13	O	-0.001245	1.349758	0.085574
O14	O	0.332088	1.683091	0.418907
O15	O	0.665421	2.016424	0.752240
O16	O	0.139468	1.175792	0.085563
O17	O	0.472802	1.509125	0.418896
O18	O	0.806135	1.842458	0.752230
O19	O	0.126453	1.506203	0.085565
O20	O	0.459787	1.839536	0.418899
O21	O	0.793120	2.172870	0.752232
Cu22	Cu	0.132960	1.340999	0.101190
Cu23	Cu	0.466293	1.674333	0.434523
Cu24	Cu	0.799627	2.007666	0.767857
Cu25	Cu	0.132970	1.340973	-0.101195
Cu26	Cu	0.466303	1.674306	0.232138
Cu27	Cu	0.799636	2.007639	0.565471
O28	O	0.267167	1.332237	0.085555
O29	O	0.600500	1.665570	0.418888
O30	O	0.933834	1.998903	0.752222
C31	C	0.138652	1.133494	-0.000004
C32	C	0.471986	1.466827	0.333329
C33	C	0.805319	1.800161	0.666662
C34	C	0.136199	1.007495	-0.000005
C35	C	0.469532	1.340828	0.333328
C36	C	0.802865	1.674161	0.666662
C37	C	-0.035604	1.348930	0.000007
C38	C	0.297729	1.682263	0.333340
C39	C	0.631063	2.015596	0.666673
C40	C	-0.137994	1.346483	0.000007
C41	C	0.195339	1.679816	0.333341
C42	C	0.528672	2.013150	0.666674
C43	C	0.134205	0.905169	-0.000009
C44	C	0.467538	1.238503	0.333324
C45	C	0.800871	1.571836	0.666658
C46	C	0.131711	0.776796	-0.000010
C47	C	0.465045	1.110130	0.333324
C48	C	0.798378	1.443463	0.666657
C49	C	-0.512923	1.337475	-0.000019
C50	C	-0.179590	1.670808	0.333314
C51	C	0.153743	2.004142	0.666647
C52	C	-0.408606	1.339976	-0.000012
C53	C	-0.075273	1.673310	0.333322
C54	C	0.258060	2.006643	0.666655
C55	C	-0.325462	1.341979	-0.000005
C56	C	0.007871	1.675312	0.333328
C57	C	0.341204	2.008645	0.666662
C58	C	-0.221138	1.344481	0.000001
C59	C	0.112195	1.677814	0.333334
C60	C	0.445528	2.011147	0.666667
C61	C	0.301534	1.333042	-0.000014
C62	C	0.634867	1.666375	0.333319
C63	C	0.968200	1.999709	0.666652
C64	C	0.403924	1.335489	-0.000022
C65	C	0.737257	1.668822	0.333312
C66	C	1.070591	2.002156	0.666645
C67	C	0.127277	1.548478	-0.000003
C68	C	0.460610	1.881811	0.333330
C69	C	0.793944	2.215144	0.666663
C70	C	0.129731	1.674477	-0.000010
C71	C	0.463064	2.007811	0.333324
C72	C	0.796398	2.341144	0.666657
N73	N	0.132969	1.340955	-0.243543
N74	N	0.466303	1.674288	0.089791
N75	N	0.799636	2.007621	0.423124
C76	C	0.132970	1.340958	-0.336649
C77	C	0.466304	1.674292	-0.003315
C78	C	0.799637	2.007625	0.330018
C79	C	0.132969	1.340974	-0.453454
C80	C	0.466302	1.674307	-0.120120
C81	C	0.799635	2.007640	0.213213
C82	C	0.132962	1.340993	-0.546552
C83	C	0.466296	1.674326	-0.213219
C84	C	0.799629	2.007659	0.120115
C85	C	0.132959	1.341007	-0.663365
C86	C	0.466292	1.674341	-0.330031
C87	C	0.799626	2.007674	0.003302
N88	N	0.132953	1.341026	0.243537
N89	N	0.466286	1.674360	0.576871
N90	N	0.799620	2.007693	0.910204
