data_functionalizedCrystal
_audit_creation_method	'MofGen! by Chris Wilmer'
_symmetry_space_group_name_H-M	'P1'
_symmetry_Int_Tables_number	1
_symmetry_cell_setting	triclinic
loop_
_symmetry_equiv_pos_as_xyz
  x,y,z
_cell_length_a	16.625547
_cell_length_b	25.639240
_cell_length_c	16.625539
_cell_angle_alpha	89.961562
_cell_angle_beta	89.975178
_cell_angle_gamma	90.032694
loop_
_atom_site_label
_atom_site_type_symbol
_atom_site_fract_x
_atom_site_fract_y
_atom_site_fract_z
Zn1	Zn	1.232623	-0.208151	-0.455944
Zn2	Zn	1.732623	0.291849	0.044056
Zn3	Zn	1.232502	-0.295589	-0.321087
Zn4	Zn	1.732502	0.204411	0.178913
Zn5	Zn	1.097785	-0.208169	-0.321115
Zn6	Zn	1.597785	0.291831	0.178885
Zn7	Zn	1.097731	-0.295557	-0.455867
Zn8	Zn	1.597731	0.204443	0.044133
O9	O	1.165160	-0.251866	-0.388503
O10	O	1.665160	0.248134	0.111497
O11	O	1.345439	-0.219755	-0.438076
O12	O	1.845439	0.280245	0.061924
O13	O	1.214603	-0.284013	-0.208259
O14	O	1.714603	0.215987	0.291741
O15	O	1.115744	-0.135001	-0.339043
O16	O	1.615744	0.364999	0.160957
O17	O	1.345350	-0.283995	-0.338997
O18	O	1.845350	0.216005	0.161003
O19	O	1.214809	-0.134988	-0.438102
O20	O	1.714809	0.365012	0.061898
O21	O	1.115627	-0.219786	-0.208279
O22	O	1.615627	0.280214	0.291721
O23	O	0.984945	-0.219755	-0.338969
O24	O	1.484945	0.280245	0.161031
O25	O	1.115653	-0.283941	-0.568710
O26	O	1.615653	0.216059	-0.068710
O27	O	0.984906	-0.283959	-0.437971
O28	O	1.484906	0.216041	0.062029
O29	O	1.214757	-0.219724	-0.568766
O30	O	1.714757	0.280276	-0.068766
O31	O	1.214551	-0.368750	-0.338923
O32	O	1.714551	0.131250	0.161077
O33	O	1.115535	-0.368726	-0.437945
O34	O	1.615535	0.131274	0.062055
C35	C	0.955669	-0.251856	-0.388465
C36	C	1.455669	0.248144	0.111535
C37	C	0.866048	-0.251864	-0.388468
C38	C	1.366048	0.248136	0.111532
C39	C	0.793266	-0.251865	-0.388478
C40	C	1.293266	0.248135	0.111522
C41	C	0.701957	-0.251868	-0.388498
C42	C	1.201957	0.248132	0.111502
C43	C	0.629181	-0.251873	-0.388519
C44	C	1.129181	0.248127	0.111481
C45	C	0.537866	-0.251877	-0.388538
C46	C	1.037866	0.248123	0.111462
C47	C	1.165046	-0.387709	-0.388440
C48	C	1.665046	0.112291	0.111560
C49	C	1.165071	-0.445823	-0.388440
C50	C	1.665071	0.054177	0.111560
C51	C	1.216769	-0.806140	-0.440176
C52	C	1.716769	-0.306140	0.059824
C53	C	1.216793	-0.860745	-0.440193
C54	C	1.716793	-0.360745	0.059807
O55	O	1.260612	-0.888943	-0.484116
O56	O	1.760612	-0.388943	0.015884
N57	N	1.165272	-0.888105	-0.388581
N58	N	1.665272	-0.388105	0.111419
C59	C	1.113718	-0.860859	-0.336956
C60	C	1.613718	-0.360859	0.163044
O61	O	1.069898	-0.889145	-0.293059
O62	O	1.569898	-0.389145	0.206941
C63	C	1.113691	-0.806255	-0.336944
C64	C	1.613691	-0.306255	0.163056
C65	C	1.165221	-0.778898	-0.388553
C66	C	1.665221	-0.278898	0.111447
C67	C	1.268294	-0.778783	-0.491782
C68	C	1.768294	-0.278783	0.008218
C69	C	1.268271	-0.724182	-0.491764
C70	C	1.768271	-0.224182	0.008236
C71	C	1.216723	-0.696939	-0.440141
C72	C	1.716723	-0.196939	0.059859
C73	C	1.165198	-0.724297	-0.388536
C74	C	1.665198	-0.224297	0.111464
C75	C	1.062134	-0.779010	-0.285324
C76	C	1.562134	-0.279010	0.214676
C77	C	1.062111	-0.724403	-0.285317
C78	C	1.562111	-0.224403	0.214683
C79	C	1.113641	-0.697045	-0.336926
C80	C	1.613641	-0.197045	0.163074
C81	C	1.113627	-0.642454	-0.336895
C82	C	1.613627	-0.142454	0.163105
N83	N	1.165148	-0.615093	-0.388506
N84	N	1.665148	-0.115093	0.111494
C85	C	1.216696	-0.642336	-0.440129
C86	C	1.716696	-0.142336	0.059871
C87	C	1.113778	-0.975529	-0.336986
C88	C	1.613778	-0.475529	0.163014
C89	C	1.113809	-1.030132	-0.336993
C90	C	1.613809	-0.530132	0.163007
C91	C	1.216883	-1.030014	-0.440230
C92	C	1.716883	-0.530014	0.059770
C93	C	1.216855	-0.975411	-0.440219
C94	C	1.716855	-0.475411	0.059781
C95	C	1.165299	-0.948169	-0.388597
C96	C	1.665299	-0.448169	0.111403
C97	C	1.216644	-0.527671	-0.440088
C98	C	1.716644	-0.027671	0.059912
C99	C	1.216619	-0.473066	-0.440063
C100	C	1.716619	0.026934	0.059937
C101	C	1.113543	-0.473188	-0.336829
C102	C	1.613543	0.026812	0.163171
C103	C	1.113571	-0.527789	-0.336850
C104	C	1.613571	-0.027789	0.163150
C105	C	1.165124	-0.555029	-0.388486
C106	C	1.665124	-0.055029	0.111514
O107	O	1.069827	-0.614221	-0.292997
O108	O	1.569827	-0.114221	0.207003
O109	O	1.260502	-0.614043	-0.484027
O110	O	1.760502	-0.114043	0.015973
C111	C	1.375469	-0.251877	-0.388542
C112	C	1.875469	0.248123	0.111458
C113	C	1.465090	-0.251881	-0.388559
C114	C	1.965090	0.248119	0.111441
C115	C	1.165212	-0.251827	-0.598812
C116	C	1.665212	0.248173	-0.098812
C117	C	1.165235	-0.251811	-0.688434
C118	C	1.665235	0.248189	-0.188434
C119	C	1.165296	-0.115493	-0.388584
C120	C	1.665296	0.384507	0.111416
C121	C	1.165354	-0.057379	-0.388619
C122	C	1.665354	0.442621	0.111381
C123	C	1.165272	-0.251752	-1.016609
C124	C	1.665272	0.248248	-0.516609
C125	C	1.165259	-0.251770	-0.925301
C126	C	1.665259	0.248230	-0.425301
C127	C	1.165254	-0.251782	-0.852524
C128	C	1.665254	0.248218	-0.352524
C129	C	1.165240	-0.251799	-0.761210
C130	C	1.665240	0.248201	-0.261210
C131	C	1.165154	-0.251867	-0.179013
C132	C	1.665154	0.248133	0.320987
C133	C	1.165288	-0.251737	-0.089392
C134	C	1.665288	0.248263	0.410608
H135	H	1.258584	-0.450793	-0.482089
H136	H	1.758584	0.049207	0.017911
H137	H	1.020125	-0.702225	-0.243281
H138	H	1.520125	-0.202225	0.256719
O139	O	1.318259	-0.805265	-0.542016
O140	O	1.818259	-0.305265	-0.042016
C141	C	1.272356	-0.836860	-0.594052
C142	C	1.772356	-0.336860	-0.094052
H143	H	1.208835	-0.820447	-0.598970
H144	H	1.708835	-0.320447	-0.098970
H145	H	1.301490	-0.837422	-0.656130
H146	H	1.801490	-0.337422	-0.156130
H147	H	1.269624	-0.878260	-0.569137
H148	H	1.769624	-0.378260	-0.069137
H149	H	1.071576	-0.450999	-0.294795
H150	H	1.571576	0.049001	0.205205
H151	H	1.258815	-0.953139	-0.482244
H152	H	1.758815	-0.453139	0.017756
H153	H	1.071857	-1.052402	-0.294959
H154	H	1.571857	-0.552402	0.205041
O155	O	1.266838	-1.056506	-0.490470
O156	O	1.766838	-0.556506	0.009530
C157	C	1.220910	-1.088097	-0.542490
C158	C	1.720910	-0.588097	-0.042490
H159	H	1.157397	-1.071671	-0.547400
H160	H	1.657397	-0.571671	-0.047400
H161	H	1.250033	-1.088671	-0.604573
H162	H	1.750033	-0.588671	-0.104573
H163	H	1.218160	-1.129494	-0.517564
H164	H	1.718160	-0.629494	-0.017564
O165	O	1.318209	-0.697555	-0.541945
O166	O	1.818209	-0.197555	-0.041945
C167	C	1.272259	-0.665980	-0.593987
C168	C	1.772259	-0.165980	-0.093987
H169	H	1.211171	-0.657842	-0.565482
H170	H	1.711171	-0.157842	-0.065482
H171	H	1.305083	-0.627563	-0.604830
H172	H	1.805083	-0.127563	-0.104830
H173	H	1.263365	-0.687004	-0.653729
H174	H	1.763365	-0.187004	-0.153729
H175	H	1.071798	-0.953352	-0.294942
H176	H	1.571798	-0.453352	0.205058
H177	H	1.071617	-0.550065	-0.294819
H178	H	1.571617	-0.050065	0.205181
H179	H	1.020173	-0.801275	-0.243298
H180	H	1.520173	-0.301275	0.256702
O181	O	1.266680	-0.554072	-0.490358
O182	O	1.766680	-0.054072	0.009642
C183	C	1.248991	-0.540699	-0.570697
C184	C	1.748991	-0.040699	-0.070697
H185	H	1.217974	-0.501070	-0.572319
H186	H	1.717974	-0.001070	-0.072319
H187	H	1.307161	-0.538774	-0.606910
H188	H	1.807161	-0.038774	-0.106910
H189	H	1.207537	-0.571438	-0.597826
H190	H	1.707537	-0.071438	-0.097826
