data_functionalizedCrystal
_audit_creation_method	'MofGen! by Chris Wilmer'
_symmetry_space_group_name_H-M	'P1'
_symmetry_Int_Tables_number	1
_symmetry_cell_setting	triclinic
loop_
_symmetry_equiv_pos_as_xyz
  x,y,z
_cell_length_a	13.635800
_cell_length_b	27.923327
_cell_length_c	10.943624
_cell_angle_alpha	84.544116
_cell_angle_beta	108.838799
_cell_angle_gamma	81.039279
loop_
_atom_site_label
_atom_site_type_symbol
_atom_site_fract_x
_atom_site_fract_y
_atom_site_fract_z
V1	V	2.033087	-0.067112	0.403360
O2	O	2.037792	0.003238	0.394849
O3	O	1.997821	-0.133085	0.401402
O4	O	2.022450	-0.066074	0.578914
O5	O	2.012992	-0.064236	0.216108
V6	V	2.274578	-0.058698	0.380866
O7	O	2.164311	-0.085569	0.452703
O8	O	2.368453	-0.040241	0.331523
O9	O	2.198241	0.007274	0.382824
O10	O	2.328571	-0.129048	0.389377
O11	O	2.353371	-0.061574	0.568118
O12	O	2.173612	-0.059736	0.205312
V13	V	2.533087	-0.067112	0.403360
O14	O	2.537792	0.003238	0.394849
O15	O	2.497821	-0.133085	0.401402
O16	O	2.522450	-0.066074	0.578914
O17	O	2.512992	-0.064236	0.216108
V18	V	2.774578	-0.058698	0.380866
O19	O	2.664311	-0.085569	0.452703
O20	O	2.868453	-0.040241	0.331523
O21	O	2.698241	0.007274	0.382824
O22	O	2.828571	-0.129048	0.389377
O23	O	2.853371	-0.061574	0.568118
O24	O	2.673612	-0.059736	0.205312
C25	C	1.917190	-0.149167	0.395245
C26	C	1.929089	-0.203101	0.394815
C27	C	1.923134	-0.585790	0.385474
C28	C	1.878299	-0.383079	0.386987
O29	O	1.795002	-0.354773	0.381730
N30	N	1.963836	-0.360200	0.393649
C31	C	2.060592	-0.388003	0.399942
O32	O	2.132321	-0.363892	0.405657
C33	C	2.105428	-0.590713	0.398437
C34	C	2.019880	-0.613588	0.391762
C35	C	1.837594	-0.608666	0.378800
C36	C	1.848802	-0.659340	0.378414
C37	C	1.945548	-0.687138	0.384702
C38	C	2.031088	-0.664263	0.391376
C39	C	2.202184	-0.618515	0.404739
C40	C	2.213386	-0.669195	0.404366
C41	C	2.127839	-0.692071	0.397690
C42	C	2.139042	-0.742735	0.397279
N43	N	2.053504	-0.765614	0.390617
C44	C	1.956758	-0.737816	0.384329
C45	C	2.037045	-0.281576	0.400729
C46	C	2.025836	-0.230899	0.401103
C47	C	1.843544	-0.225980	0.388151
C48	C	1.854752	-0.276657	0.387768
C49	C	1.951508	-0.304456	0.394067
C50	C	1.980300	-0.844236	0.383518
C51	C	1.991516	-0.894914	0.383128
C52	C	2.173807	-0.899830	0.396087
C53	C	2.162592	-0.849155	0.396471
C54	C	2.065832	-0.821359	0.390190
O55	O	2.222308	-0.771073	0.402547
O56	O	1.885049	-0.761937	0.378644
C57	C	1.911926	-0.535116	0.385859
C58	C	1.997466	-0.512240	0.392533
C59	C	2.094212	-0.540038	0.398821
C60	C	1.986257	-0.461562	0.392907
C61	C	1.889510	-0.433764	0.386618
C62	C	1.803972	-0.456643	0.379956
C63	C	1.815180	-0.507318	0.379571
C64	C	2.179750	-0.517159	0.405483
C65	C	2.168535	-0.466484	0.405866
C66	C	2.071788	-0.438686	0.399578
C67	C	1.948606	-0.063688	0.621678
C68	C	1.980478	-0.063276	0.765199
C69	C	2.110542	0.023355	0.388977
C70	C	2.088262	0.077288	0.389416
C71	C	2.079125	-0.062124	0.162541
C72	C	2.036873	-0.062533	0.019018
C73	C	2.417190	-0.149167	0.395245
C74	C	2.429089	-0.203101	0.394815
C75	C	2.448606	-0.063688	0.621678
C76	C	2.480478	-0.063276	0.765199
C77	C	1.903913	-0.060500	0.842313
C78	C	1.983452	-0.101702	0.948800
C79	C	1.957739	-0.021345	0.914445
C80	C	2.059609	-0.104516	0.869810
C81	C	2.033869	-0.024123	0.835431
C82	C	2.113472	-0.065336	0.941888
C83	C	2.610542	0.023355	0.388977
C84	C	2.588262	0.077288	0.389416
C85	C	2.579125	-0.062124	0.162541
C86	C	2.536873	-0.062533	0.019018
C87	C	2.525830	-0.230902	0.401093
C88	C	2.537029	-0.281579	0.400708
C89	C	2.451484	-0.304454	0.394036
C90	C	2.354737	-0.276650	0.387761
C91	C	2.343541	-0.225974	0.388155
C92	C	2.664015	0.105088	0.383141
C93	C	2.643088	0.155766	0.383533
C94	C	2.546410	0.178640	0.390208
C95	C	2.470651	0.150836	0.396479
C96	C	2.491576	0.100160	0.396079
C97	C	2.403913	-0.060500	0.842313
C98	C	2.483452	-0.101702	0.948800
C99	C	2.457739	-0.021345	0.914445
C100	C	2.559609	-0.104516	0.869810
C101	C	2.533869	-0.024123	0.835431
C102	C	2.613472	-0.065336	0.941888
H103	H	1.921849	-0.913537	0.377692
H104	H	1.758811	-0.586038	0.373684
H105	H	2.238202	-0.447863	0.411292
H106	H	2.285090	-0.295282	0.382328
O107	O	2.401097	0.025219	0.941321
H108	H	2.426030	0.025266	1.048402
H109	H	2.264760	-0.203341	0.383036
H110	H	2.615812	-0.304211	0.405814
H111	H	2.702374	-0.067390	0.985157
H112	H	2.554809	0.008677	0.786052
O113	O	2.366381	0.175510	0.403686
H114	H	2.357275	0.159422	0.495183
O115	O	1.762485	-0.301328	0.380581
H116	H	1.784171	-0.329469	0.468571
O117	O	1.875939	-0.814258	0.376734
H118	H	1.818348	-0.838685	0.372016
O119	O	2.616226	-0.151143	0.843196
H120	H	2.702888	-0.153251	0.884103
H121	H	2.595495	-0.212284	0.406518
H122	H	2.742742	0.086471	0.377707
O123	O	2.231239	-0.068090	0.999284
H124	H	2.265965	-0.070085	0.920646
H125	H	1.815044	-0.058511	0.798841
H126	H	2.258533	-0.539788	0.410606
H127	H	2.429887	0.077528	0.401200
O128	O	1.739195	-0.195994	0.381388
H129	H	1.745786	-0.156914	0.382784
O130	O	2.286196	-0.057861	0.784707
H131	H	2.265243	-0.090128	0.830554
O132	O	2.455670	-0.145142	1.014193
H133	H	2.368981	-0.143059	0.974100
O134	O	2.141407	-0.311555	0.407515
H135	H	2.129936	-0.329593	0.319188
O136	O	2.724825	0.185740	0.376792
H137	H	2.691232	0.214121	0.288189
O138	O	1.756535	-0.684009	0.371245
H139	H	1.689733	-0.667926	0.279755
O140	O	2.118107	-0.206228	0.408318
H141	H	2.187266	-0.234078	0.412652
H142	H	2.054809	0.008677	0.786052
O143	O	2.523855	0.233297	0.390667
H144	H	2.592786	0.248781	0.385202
H145	H	1.962470	-0.134499	0.998144
O146	O	2.294478	-0.593860	0.411989
H147	H	2.319429	-0.599602	0.326580
O148	O	2.317743	-0.699178	0.411147
H149	H	2.375334	-0.674753	0.415839
O150	O	2.254854	-0.824477	0.403666
H151	H	2.324012	-0.852323	0.407979
H152	H	2.252578	-0.922472	0.401204
H153	H	2.460615	-0.345718	0.393715
H154	H	1.745518	-0.525938	0.374138
O155	O	1.699623	-0.426658	0.373189
H156	H	1.706216	-0.387578	0.374592
H157	H	2.102370	-0.139705	0.849690
H158	H	1.914978	0.013798	0.934784
