data_functionalizedCrystal
_audit_creation_method	'MofGen! by Chris Wilmer'
_symmetry_space_group_name_H-M	'P1'
_symmetry_Int_Tables_number	1
_symmetry_cell_setting	triclinic
loop_
_symmetry_equiv_pos_as_xyz
  x,y,z
_cell_length_a	10.489741
_cell_length_b	17.699083
_cell_length_c	8.965430
_cell_angle_alpha	90.002817
_cell_angle_beta	90.007587
_cell_angle_gamma	96.088906
loop_
_atom_site_label
_atom_site_type_symbol
_atom_site_fract_x
_atom_site_fract_y
_atom_site_fract_z
O1	O	0.161299	-1.005129	0.123829
O2	O	0.182284	-0.784888	0.123878
O3	O	-0.013900	-0.900020	0.123844
O4	O	0.357482	-0.889997	0.123864
O5	O	-0.013918	-0.900014	-0.124235
O6	O	0.182265	-0.784882	-0.124201
O7	O	0.161281	-1.005123	-0.124250
Cu8	Cu	0.171771	-0.895002	-0.146877
Cu9	Cu	0.171793	-0.895009	0.146505
O10	O	0.357464	-0.889991	-0.124215
C11	C	-0.061427	-0.899260	-0.000195
C12	C	-0.203014	-0.896995	-0.000192
C13	C	0.181523	-0.756683	-0.000155
C14	C	0.179267	-0.672650	-0.000137
C15	C	0.162042	-1.033328	-0.000213
C16	C	0.164297	-1.117361	-0.000222
C17	C	-0.269793	-0.823740	-0.000164
C18	C	-0.362567	-0.858342	-0.122488
C19	C	-0.362524	-0.858365	0.122098
C20	C	-0.293924	-0.931627	-0.122616
C21	C	-0.293871	-0.931641	0.122080
C22	C	-0.386619	-0.966296	-0.000273
C23	C	0.404991	-0.890751	-0.000174
C24	C	0.546578	-0.893016	-0.000167
N25	N	0.171755	-0.895002	-0.353226
C26	C	0.294422	-0.624782	-0.000131
C27	C	0.292295	-0.545825	-0.000151
C28	C	0.175011	-0.514737	-0.000165
C29	C	0.059847	-0.562611	-0.000175
C30	C	0.061975	-0.641567	-0.000166
C31	C	0.051260	-0.244192	-0.000213
C32	C	0.049140	-0.165230	-0.000217
C33	C	0.281580	-0.148450	-0.000197
C34	C	0.283709	-0.227406	-0.000188
C35	C	0.168545	-0.275273	-0.000206
C36	C	0.170853	-0.360887	-0.000188
C37	C	0.172702	-0.429124	-0.000173
C38	C	0.080327	-0.947829	-0.549912
C39	C	0.195179	-0.963750	-0.450433
C40	C	0.056913	-0.879114	-0.450497
C41	C	0.286708	-0.910971	-0.549855
C42	C	0.148367	-0.826304	-0.549929
C43	C	0.263302	-0.842197	-0.450494
N44	N	0.171799	-0.895015	0.352854
H45	H	-0.393011	-0.827343	-0.225890
H46	H	0.389929	-0.650088	-0.000118
O47	O	0.415405	-0.928876	-0.607416
H48	H	0.434931	-0.985721	-0.566577
H49	H	-0.263674	-0.962593	-0.226147
O50	O	-0.021998	-1.007033	-0.607750
H51	H	-0.021667	-1.006147	-0.731540
H52	H	0.214989	-1.021852	-0.406729
H53	H	-0.437163	-1.026580	-0.000354
H54	H	0.386067	-0.506854	-0.000144
O55	O	0.365840	-0.783023	-0.393018
H56	H	0.461030	-0.796399	-0.433026
O57	O	-0.202517	-0.743966	-0.000320
H58	H	-0.142302	-0.735190	0.101290
O59	O	0.122080	-0.749371	-0.607899
H60	H	0.026627	-0.736307	-0.568187
O61	O	-0.402790	-0.817304	0.259090
H62	H	-0.355523	-0.758147	0.258834
O63	O	-0.071753	-0.861293	-0.392690
H64	H	-0.147489	-0.905218	-0.432528
O65	O	-0.253479	-0.972668	0.259046
H66	H	-0.280625	-0.942147	0.360444
H67	H	0.379213	-0.252713	-0.000169
O68	O	-0.072952	-0.295810	-0.000221
H69	H	-0.051778	-0.355937	-0.000230
H70	H	-0.046372	-0.139922	-0.000231
O71	O	0.405801	-0.096824	-0.000209
H72	H	0.384625	-0.036697	-0.000240
H73	H	-0.031796	-0.680540	-0.000170
O74	O	-0.066658	-0.529086	-0.000196
H75	H	-0.048795	-0.466141	-0.000188
