data_functionalizedCrystal
_audit_creation_method	'MofGen! by Chris Wilmer'
_symmetry_space_group_name_H-M	'P1'
_symmetry_Int_Tables_number	1
_symmetry_cell_setting	triclinic
loop_
_symmetry_equiv_pos_as_xyz
  x,y,z
_cell_length_a	21.295419
_cell_length_b	29.839131
_cell_length_c	21.295411
_cell_angle_alpha	90.020364
_cell_angle_beta	90.024539
_cell_angle_gamma	90.056221
loop_
_atom_site_label
_atom_site_type_symbol
_atom_site_fract_x
_atom_site_fract_y
_atom_site_fract_z
Zn1	Zn	0.962308	-0.178727	0.355917
Zn2	Zn	0.962190	-0.253843	0.250644
Zn3	Zn	0.857031	-0.178747	0.250662
Zn4	Zn	0.856980	-0.253850	0.355876
O5	O	0.909627	-0.216292	0.303275
O6	O	1.050382	-0.188680	0.341962
O7	O	0.948213	-0.243886	0.162557
O8	O	0.871067	-0.115877	0.264648
O9	O	1.050295	-0.243867	0.264619
O10	O	0.948413	-0.115863	0.341979
O11	O	0.870953	-0.188714	0.162570
O12	O	0.768935	-0.188721	0.264609
O13	O	0.870980	-0.243880	0.443971
O14	O	0.768898	-0.243899	0.341910
O15	O	0.948364	-0.188687	0.444001
O16	O	0.948163	-0.316711	0.264579
O17	O	0.870866	-0.316716	0.341893
C18	C	0.746076	-0.216313	0.303257
C19	C	0.676108	-0.216333	0.303264
C20	C	0.643308	-0.187644	0.343599
C21	C	0.577566	-0.187632	0.343602
C22	C	0.544625	-0.216317	0.303276
C23	C	0.577432	-0.245008	0.262933
C24	C	0.643173	-0.245016	0.262928
N25	N	0.441339	-0.255624	0.298357
N26	N	0.378888	-0.255616	0.298367
C27	C	0.346550	-0.216294	0.303290
N28	N	0.379024	-0.176981	0.308216
N29	N	0.441481	-0.176990	0.308210
C30	C	0.473340	-0.216311	0.303277
C31	C	0.242466	-0.187590	0.343629
C32	C	0.176722	-0.187577	0.343627
C33	C	0.176590	-0.244957	0.262962
C34	C	0.242332	-0.244965	0.262961
C35	C	0.275266	-0.216282	0.303298
C36	C	0.909514	-0.333014	0.303244
C37	C	0.909523	-0.382949	0.303251
C38	C	0.949949	-0.692577	0.263077
C39	C	0.950027	-0.880250	0.263101
O40	O	0.984309	-0.904501	0.228919
N41	N	0.909758	-0.903734	0.303322
C42	C	0.869469	-0.880297	0.343543
O43	O	0.835225	-0.904578	0.377759
C44	C	0.869395	-0.692625	0.343521
C45	C	0.909663	-0.669143	0.303293
C46	C	0.990214	-0.669095	0.222852
C47	C	0.990191	-0.622179	0.222844
C48	C	0.949905	-0.598746	0.263060
C49	C	0.909640	-0.622227	0.303285
C50	C	0.829111	-0.669188	0.383745
C51	C	0.829097	-0.622267	0.383737
C52	C	0.869364	-0.598786	0.343509
C53	C	0.869331	-0.551878	0.343493
N54	N	0.909600	-0.528394	0.303272
C55	C	0.949887	-0.551828	0.263056
C56	C	0.869510	-0.978827	0.343551
C57	C	0.869528	-1.025745	0.343556
C58	C	0.950086	-1.025695	0.263114
C59	C	0.950065	-0.978776	0.263107
C60	C	0.909779	-0.955343	0.303330
C61	C	0.949837	-0.453302	0.263041
C62	C	0.949809	-0.406382	0.263035
C63	C	0.869253	-0.406437	0.343478
C64	C	0.869279	-0.453352	0.343483
C65	C	0.909575	-0.476784	0.303262
O66	O	0.835072	-0.527598	0.377662
O67	O	0.984137	-0.527539	0.228855
C68	C	0.949971	-0.739492	0.263085
C69	C	0.909707	-0.762974	0.303309
C70	C	0.869420	-0.739540	0.343526
C71	C	0.909725	-0.809892	0.303314
C72	C	0.950011	-0.833325	0.263098
C73	C	0.990280	-0.809841	0.222876
C74	C	0.990258	-0.762926	0.222868
C75	C	0.829151	-0.763024	0.383747
C76	C	0.829176	-0.809940	0.383751
C77	C	0.869463	-0.833373	0.343535
C78	C	1.073818	-0.216270	0.303293
C79	C	1.143786	-0.216261	0.303301
C80	C	0.909680	-0.216282	0.467465
C81	C	0.909702	-0.216278	0.537433
C82	C	0.909759	-0.099113	0.303320
C83	C	0.909815	-0.049179	0.303339
C84	C	0.909612	-0.216269	0.139723
C85	C	0.909711	-0.216146	0.069755
C86	C	0.949994	-0.187538	0.570316
C87	C	0.949993	-0.187519	0.636059
C88	C	0.909707	-0.216247	0.668916
C89	C	0.869407	-0.244989	0.636025
C90	C	0.869405	-0.245005	0.570283
N91	N	0.904840	-0.255549	0.772132
N92	N	0.904846	-0.255533	0.834584
C93	C	0.909711	-0.216202	0.866991
N94	N	0.914582	-0.176886	0.834587
N95	N	0.914579	-0.176903	0.772129
C96	C	0.909705	-0.216233	0.740201
C97	C	0.950004	-0.187438	0.971159
C98	C	0.949999	-0.187418	1.036903
C99	C	0.869416	-0.244893	1.036868
C100	C	0.869418	-0.244909	0.971125
C101	C	0.909715	-0.216182	0.938275
H102	H	0.670119	-0.164288	0.376444
O103	O	0.830092	-0.476184	0.382466
C104	C	0.745150	-0.529253	0.390877
C105	C	0.789474	-0.503421	0.346650
H106	H	0.712307	-0.551287	0.361938
H107	H	0.716305	-0.504461	0.419604
H108	H	0.774058	-0.551157	0.423838
H109	H	0.760614	-0.481516	0.313651
H110	H	0.818321	-0.528237	0.317967
H111	H	0.982652	-0.472374	0.230291
O112	O	0.274530	-0.159703	0.382719
C113	C	0.348827	-0.099049	0.391338
C114	C	0.312569	-0.130609	0.346999
H115	H	0.379581	-0.075512	0.362476
H116	H	0.379629	-0.119688	0.424191
H117	H	0.314075	-0.078560	0.420177
H118	H	0.347276	-0.151105	0.318120
H119	H	0.281758	-0.109944	0.314188
O120	O	1.029373	-0.599442	0.183752
C121	C	1.109260	-0.604361	0.103950
C122	C	1.064923	-0.630163	0.148198
H123	H	1.138004	-0.629188	0.075183
H124	H	1.142195	-0.582371	0.132850
H125	H	1.080366	-0.582418	0.071026
H126	H	1.093766	-0.652130	0.181131
H127	H	1.031985	-0.652125	0.119259
H128	H	1.023081	-0.828929	0.190129
O129	O	0.545793	-0.159751	0.382848
C130	C	0.552857	-0.102832	0.462844
C131	C	0.588915	-0.134389	0.418438
H132	H	0.587706	-0.082312	0.491620
H133	H	0.522083	-0.123473	0.495746
H134	H	0.522081	-0.079325	0.434002
H135	H	0.619725	-0.157903	0.447229
H136	H	0.619650	-0.113720	0.385534
O137	O	0.989161	-0.159488	0.939341
C138	C	1.069110	-0.102498	0.946314
C139	C	1.024788	-0.134120	0.982423
H140	H	1.097935	-0.081986	0.981129
H141	H	1.040265	-0.078989	0.915540
H142	H	1.101976	-0.123134	0.915533
H143	H	0.991913	-0.113520	1.013238
H144	H	1.053672	-0.157630	1.013157
H145	H	1.023023	-0.688169	0.190103
O146	O	0.675135	-0.272846	0.223769
C147	C	0.776355	-0.298311	0.188046
C148	C	0.740236	-0.266762	0.232413
H149	H	0.828995	-0.293409	0.195028
H150	H	0.763467	-0.290367	0.137293
H151	H	0.763336	-0.334541	0.199001
H152	H	0.753235	-0.230522	0.221513
H153	H	0.753126	-0.274745	0.283152
O154	O	0.144502	-0.272808	0.223850
C155	C	0.043165	-0.298207	0.188082
C156	C	0.079429	-0.266650	0.232422
H157	H	-0.009452	-0.293233	0.194988
H158	H	0.055991	-0.334455	0.199046
H159	H	0.056116	-0.290272	0.137349
H160	H	0.066498	-0.274544	0.283170
H161	H	0.066601	-0.230412	0.221404
H162	H	0.150018	-0.164212	0.376472
H163	H	0.796381	-0.829055	0.416510
H164	H	0.796346	-0.743948	0.416497
O165	O	0.830305	-0.272960	0.667869
C166	C	0.799688	-0.349379	0.687995
C167	C	0.844004	-0.317754	0.651883
H168	H	0.810757	-0.385602	0.675094
H169	H	0.748927	-0.341536	0.675039
H170	H	0.806601	-0.344410	0.740628
H171	H	0.837147	-0.322706	0.599242
H172	H	0.894749	-0.325605	0.664891
O173	O	0.274099	-0.272880	0.223764
C174	C	0.267028	-0.329772	0.143731
C175	C	0.230974	-0.298189	0.188103
H176	H	0.232177	-0.350235	0.114878
H177	H	0.297766	-0.353327	0.172538
H178	H	0.297841	-0.309108	0.110893
H179	H	0.200128	-0.318816	0.220950
H180	H	0.200276	-0.274632	0.159256
H181	H	0.982599	-0.387265	0.230274
O182	O	0.545408	-0.272922	0.223852
C183	C	0.471055	-0.333541	0.215235
C184	C	0.507293	-0.301965	0.259570
H185	H	0.440220	-0.357025	0.244095
H186	H	0.505765	-0.354082	0.186416
H187	H	0.440319	-0.312868	0.182365
H188	H	0.538030	-0.322604	0.292479
H189	H	0.472549	-0.281423	0.288346
O190	O	0.989153	-0.159588	0.538504
C191	C	1.069106	-0.102601	0.545481
C192	C	1.024783	-0.134224	0.581587
H193	H	1.097934	-0.082093	0.580297
H194	H	1.040261	-0.079090	0.514711
H195	H	1.101970	-0.123236	0.514696
H196	H	0.991910	-0.113625	0.612406
H197	H	1.053667	-0.157737	0.612318
O198	O	0.989242	-0.956037	0.224011
C199	C	1.069114	-0.960952	0.144194
C200	C	1.024787	-0.986756	0.188450
H201	H	1.097855	-0.985777	0.115422
H202	H	1.102053	-0.938961	0.173090
H203	H	1.040213	-0.939009	0.111276
H204	H	1.053638	-1.008723	0.221376
H205	H	0.991846	-1.008718	0.159515
O206	O	0.789930	-0.599457	0.422724
C207	C	0.704882	-0.546588	0.431116
C208	C	0.749209	-0.572383	0.386895
H209	H	0.671939	-0.524699	0.402165
H210	H	0.733721	-0.524555	0.464045
H211	H	0.676139	-0.571444	0.459879
H212	H	0.777961	-0.547560	0.358091
H213	H	0.720333	-0.594423	0.354007
O214	O	0.989239	-1.048532	0.224144
C215	C	1.025023	-1.120796	0.188576
C216	C	0.980637	-1.094986	0.232720
H217	H	1.018074	-1.158358	0.195485
H218	H	1.075768	-1.111538	0.199733
H219	H	1.014056	-1.111593	0.137792
H220	H	0.991548	-1.104175	0.283519
H221	H	0.929905	-1.104246	0.221509
H222	H	0.836732	-1.044860	0.376308
O223	O	0.830310	-0.956137	0.382641
C224	C	0.750429	-0.961151	0.462447
C225	C	0.794784	-0.986900	0.418203
H226	H	0.721704	-0.986012	0.491219
H227	H	0.717476	-0.939238	0.433543
H228	H	0.779306	-0.939136	0.495366
H229	H	0.765957	-1.008940	0.385275
H230	H	0.827739	-1.008785	0.447146
O231	O	0.830354	-0.272949	0.538268
C232	C	0.821824	-0.333641	0.464068
C233	C	0.866117	-0.302014	0.500277
H234	H	0.850721	-0.357155	0.433354
H235	H	0.788944	-0.313052	0.433231
H236	H	0.793013	-0.354150	0.498852
H237	H	0.894969	-0.281498	0.465538
H238	H	0.898956	-0.322629	0.531123
O239	O	0.789977	-0.691922	0.422885
C240	C	0.710058	-0.687000	0.502655
C241	C	0.754357	-0.661200	0.458367
H242	H	0.681238	-0.662172	0.531344
H243	H	0.738921	-0.708914	0.535644
H244	H	0.677186	-0.709018	0.473726
H245	H	0.787238	-0.639157	0.487245
H246	H	0.725454	-0.639313	0.425376
H247	H	0.982808	-0.164012	1.063676
O248	O	0.830312	-0.272864	1.068704
C249	C	0.799696	-0.349284	1.088825
C250	C	0.844015	-0.317657	1.052719
H251	H	0.810768	-0.385507	1.075924
H252	H	0.748936	-0.341442	1.075864
H253	H	0.806603	-0.344315	1.141459
H254	H	0.837163	-0.322608	1.000076
H255	H	0.894758	-0.325507	1.065732
O256	O	0.830035	-0.383691	0.382482
C257	C	0.722947	-0.369436	0.412989
C258	C	0.767284	-0.395216	0.368761
H259	H	0.672204	-0.378752	0.401921
H260	H	0.729799	-0.331864	0.406074
H261	H	0.734023	-0.378631	0.463752
H262	H	0.756235	-0.386059	0.317981
H263	H	0.760424	-0.432782	0.375731
H264	H	1.023047	-0.743810	0.190111
H265	H	0.982802	-0.164113	0.662838
H266	H	0.836612	-0.268315	0.944351
