data_functionalizedCrystal
_audit_creation_method	'MofGen! by Chris Wilmer'
_symmetry_space_group_name_H-M	'P1'
_symmetry_Int_Tables_number	1
_symmetry_cell_setting	triclinic
loop_
_symmetry_equiv_pos_as_xyz
  x,y,z
_cell_length_a	12.645331
_cell_length_b	13.897448
_cell_length_c	12.645323
_cell_angle_alpha	90.028168
_cell_angle_beta	89.977324
_cell_angle_gamma	89.983329
loop_
_atom_site_label
_atom_site_type_symbol
_atom_site_fract_x
_atom_site_fract_y
_atom_site_fract_z
Zn1	Zn	1.620731	0.384034	-0.599422
Zn2	Zn	2.120731	0.884034	-0.099422
Zn3	Zn	1.620613	0.545348	-0.422152
Zn4	Zn	2.120613	1.045348	0.077848
Zn5	Zn	1.443446	0.384066	-0.422166
Zn6	Zn	1.943446	0.884066	0.077834
Zn7	Zn	1.443428	0.545285	-0.599367
Zn8	Zn	1.943428	1.045285	-0.099367
O9	O	1.532054	0.464683	-0.510777
O10	O	2.032054	0.964683	-0.010777
O11	O	1.769063	0.405445	-0.575924
O12	O	2.269063	0.905445	-0.075924
O13	O	1.597069	0.523994	-0.273806
O14	O	2.097069	1.023994	0.226194
O15	O	1.467020	0.249080	-0.445709
O16	O	1.967020	0.749080	0.054291
O17	O	1.768976	0.523962	-0.445684
O18	O	2.268976	1.023962	0.054316
O19	O	1.597271	0.249056	-0.575938
O20	O	2.097271	0.749056	-0.075938
O21	O	1.466906	0.405501	-0.273817
O22	O	1.966906	0.905501	0.226183
O23	O	1.295096	0.405439	-0.445656
O24	O	1.795096	0.905439	0.054344
O25	O	1.466989	0.523855	-0.747722
O26	O	1.966989	1.023855	-0.247722
O27	O	1.295083	0.523887	-0.575844
O28	O	1.795083	1.023887	-0.075844
O29	O	1.597253	0.405384	-0.747762
O30	O	2.097253	0.905384	-0.247762
O31	O	1.597052	0.680322	-0.445631
O32	O	2.097052	1.180322	0.054369
O33	O	1.466874	0.680275	-0.575830
O34	O	1.966874	1.180275	-0.075830
C35	C	1.531977	0.715298	-0.510746
C36	C	2.031977	1.215298	-0.010746
C37	C	1.532041	0.822512	-0.510768
C38	C	2.032041	1.322512	-0.010768
C39	C	1.256625	0.464660	-0.510746
C40	C	1.756625	0.964660	-0.010746
C41	C	1.138795	0.464674	-0.510758
C42	C	1.638795	0.964674	-0.010758
C43	C	1.532132	0.464609	-0.787282
C44	C	2.032132	0.964609	-0.287282
C45	C	1.532166	0.464577	-0.905112
C46	C	2.032166	0.964577	-0.405112
C47	C	0.971204	0.389816	-0.429308
C48	C	1.471204	0.889816	0.070692
C49	C	1.093763	0.390010	-0.428949
C50	C	1.593763	0.890010	0.071051
C51	C	1.094274	0.566286	-0.480237
C52	C	1.594274	1.066286	0.019763
C53	C	0.971676	0.565877	-0.479681
C54	C	1.471676	1.065877	0.020319
C55	C	0.971645	0.438886	-0.623044
C56	C	1.471645	0.938886	-0.123044
C57	C	1.094251	0.436616	-0.622420
C58	C	1.594251	0.936616	-0.122420
C59	C	1.808560	0.464707	-0.510808
C60	C	2.308560	0.964707	-0.010808
C61	C	1.926390	0.464717	-0.510822
C62	C	2.426390	0.964717	-0.010822
C63	C	1.532161	0.213090	-0.510831
C64	C	2.032161	0.713090	-0.010831
C65	C	1.532206	0.105876	-0.510854
C66	C	2.032206	0.605876	-0.010854
C67	C	1.532152	1.018807	-0.510835
C68	C	2.032152	1.518807	-0.010835
C69	C	1.532087	0.909574	-0.510801
C70	C	2.032087	1.409574	-0.010801
C71	C	1.449964	0.538756	-1.072651
C72	C	1.949964	1.038756	-0.572651
C73	C	1.450179	0.539123	-0.950091
C74	C	1.950179	1.039123	-0.450091
C75	C	1.643865	0.492166	-0.949631
C76	C	2.143865	0.992166	-0.449631
C77	C	1.643414	0.492631	-1.072229
C78	C	2.143414	0.992631	-0.572229
C79	C	1.503724	0.362395	-1.072317
C80	C	2.003724	0.862395	-0.572317
C81	C	1.501232	0.363007	-0.949710
C82	C	2.001232	0.863007	-0.449710
C83	C	1.532038	0.464688	-0.235347
C84	C	2.032038	0.964688	0.264653
C85	C	1.532210	0.464448	-0.117518
C86	C	2.032210	0.964448	0.382482
H87	H	1.123864	0.314660	-0.448081
H88	H	1.623864	0.814660	0.051919
H89	H	0.942666	0.493441	-0.683779
H90	H	1.442666	0.993441	-0.183779
H91	H	0.940356	0.406700	-0.346636
H92	H	1.440356	0.906700	0.153364
C93	C	1.390194	0.334888	-0.910392
C94	C	1.890194	0.834888	-0.410392
H95	H	1.362795	0.384831	-0.866974
H96	H	1.862795	0.884831	-0.366974
H97	H	1.344766	0.325444	-0.969299
H98	H	1.844766	0.825444	-0.469299
H99	H	1.394527	0.277047	-0.870621
H100	H	1.894527	0.777047	-0.370621
H101	H	0.943030	0.587783	-0.397641
H102	H	1.443030	1.087783	0.102359
H103	H	1.123041	0.407082	-0.345788
H104	H	1.623041	0.907082	0.154212
C105	C	1.728874	0.421375	-0.910272
C106	C	2.228874	0.921375	-0.410272
H107	H	1.696923	0.374255	-0.866230
H108	H	2.196923	0.874255	-0.366230
H109	H	1.761235	0.390722	-0.969138
H110	H	2.261235	0.890722	-0.469138
H111	H	1.780903	0.455477	-0.871144
H112	H	2.280903	0.955477	-0.371144
H113	H	0.940749	0.366084	-0.650800
H114	H	1.440749	0.866084	-0.150800
C115	C	1.338290	0.515789	-0.909422
C116	C	1.838290	1.015789	-0.409422
H117	H	1.292293	0.506005	-0.967828
H118	H	1.792293	1.006005	-0.467828
H119	H	1.340549	0.459101	-0.867541
H120	H	1.840549	0.959101	-0.367541
H121	H	1.312991	0.567880	-0.867822
H122	H	1.812991	1.067880	-0.367822
C123	C	1.133679	0.643701	-0.557910
C124	C	1.633679	1.143701	-0.057910
H125	H	1.105820	0.704567	-0.537998
H126	H	1.605820	1.204567	-0.037998
H127	H	1.208735	0.646072	-0.556250
H128	H	1.708735	1.146072	-0.056250
H129	H	1.110772	0.628227	-0.627407
H130	H	1.610772	1.128227	-0.127407
H131	H	1.366889	0.521657	-1.102126
H132	H	1.866889	1.021657	-0.602126
H133	H	1.124930	0.588568	-0.399077
H134	H	1.624930	1.088568	0.100923
H135	H	0.941740	0.314240	-0.448234
H136	H	1.441740	0.814240	0.051766
H137	H	1.123355	0.361841	-0.645435
H138	H	1.623355	0.861841	-0.145435
C139	C	1.676028	0.593409	-1.110885
C140	C	2.176028	1.093409	-0.610885
H141	H	1.676047	0.594580	-1.186002
H142	H	2.176047	1.094580	-0.686002
H143	H	1.627275	0.639773	-1.084931
H144	H	2.127275	1.139773	-0.584931
H145	H	1.744900	0.608040	-1.085577
H146	H	2.244900	1.108040	-0.585577
C147	C	1.677042	0.591895	-0.908181
C148	C	2.177042	1.091895	-0.408181
H149	H	1.622981	0.616852	-0.863758
H150	H	2.122981	1.116852	-0.363758
H151	H	1.740831	0.586169	-0.869033
H152	H	2.240831	1.086169	-0.369033
H153	H	1.687760	0.634199	-0.966190
H154	H	2.187760	1.134199	-0.466190
C155	C	1.135644	0.504948	-0.708855
C156	C	1.635644	1.004948	-0.208855
H157	H	1.180830	0.551695	-0.677835
H158	H	1.680830	1.051695	-0.177835
H159	H	1.173968	0.469070	-0.760081
H160	H	1.673968	0.969070	-0.260081
H161	H	1.077658	0.536260	-0.741961
H162	H	1.577658	1.036260	-0.241961
C163	C	0.931622	0.643739	-0.556479
C164	C	1.431622	1.143739	-0.056479
H165	H	0.990281	0.675493	-0.587861
H166	H	1.490281	1.175493	-0.087861
H167	H	0.889949	0.614558	-0.610118
H168	H	1.389949	1.114558	-0.110118
H169	H	0.889942	0.689191	-0.518852
H170	H	1.389942	1.189191	-0.018852
H171	H	1.468585	0.613940	-1.103465
H172	H	1.968585	1.113940	-0.603465
C173	C	1.729017	0.422711	-1.112333
C174	C	2.229017	0.922711	-0.612333
H175	H	1.763920	0.394154	-1.053695
H176	H	2.263920	0.894154	-0.553695
H177	H	1.697007	0.373906	-1.154066
H178	H	2.197007	0.873906	-0.654066
H179	H	1.778954	0.456953	-1.153963
H180	H	2.278954	0.956953	-0.653963
C181	C	1.475572	0.641328	-0.910476
C182	C	1.975572	1.141328	-0.410476
H183	H	1.485813	0.682782	-0.969311
H184	H	1.985813	1.182782	-0.469311
H185	H	1.418450	0.664428	-0.868768
H186	H	1.918450	1.164428	-0.368768
H187	H	1.538122	0.639834	-0.868921
H188	H	2.038122	1.139834	-0.368921
C189	C	1.395610	0.328418	-1.114066
C190	C	1.895610	0.828418	-0.614066
H191	H	1.366829	0.376162	-1.159457
H192	H	1.866829	0.876162	-0.659457
H193	H	1.404300	0.270065	-1.152247
H194	H	1.904300	0.770065	-0.652247
H195	H	1.348992	0.318089	-1.056247
H196	H	1.848992	0.818089	-0.556247
H197	H	1.556760	0.304716	-0.919093
H198	H	2.056760	0.804716	-0.419093
H199	H	1.563628	0.307032	-1.101334
H200	H	2.063628	0.807032	-0.601334
