data_functionalizedCrystal
_audit_creation_method	'MofGen! by Chris Wilmer'
_symmetry_space_group_name_H-M	'P1'
_symmetry_Int_Tables_number	1
_symmetry_cell_setting	triclinic
loop_
_symmetry_equiv_pos_as_xyz
  x,y,z
_cell_length_a	14.044220
_cell_length_b	18.266242
_cell_length_c	14.044220
_cell_angle_alpha	90.006886
_cell_angle_beta	93.188878
_cell_angle_gamma	90.003954
loop_
_atom_site_label
_atom_site_type_symbol
_atom_site_fract_x
_atom_site_fract_y
_atom_site_fract_z
O1	O	1.277174	0.060806	0.230170
O2	O	1.777174	0.560806	0.730170
O3	O	1.000503	0.060824	0.221864
O4	O	1.500503	0.560824	0.721864
O5	O	1.134686	0.060808	0.087681
O6	O	1.634686	0.560808	0.587681
O7	O	1.142991	0.060822	0.364352
O8	O	1.642991	0.560822	0.864352
O9	O	1.134660	-0.060954	0.087671
O10	O	1.634660	0.439046	0.587671
O11	O	1.000477	-0.060938	0.221854
O12	O	1.500477	0.439062	0.721854
O13	O	1.277149	-0.060956	0.230160
O14	O	1.777149	0.439044	0.730160
Zn15	Zn	1.138809	-0.080279	0.226006
Zn16	Zn	1.638809	0.419721	0.726006
Zn17	Zn	1.138843	0.080148	0.226018
Zn18	Zn	1.638843	0.580148	0.726018
O19	O	1.142966	-0.060940	0.364343
O20	O	1.642966	0.439060	0.864343
C21	C	0.964868	-0.000054	0.218223
C22	C	1.464868	0.499946	0.718223
C23	C	0.858725	-0.000047	0.207379
C24	C	1.358725	0.499953	0.707379
N25	N	1.138793	-0.189766	0.225997
N26	N	1.638793	0.310234	0.725997
C27	C	0.664388	-0.000063	0.187553
C28	C	1.164388	0.499937	0.687553
C29	C	0.613258	-0.000062	0.264467
C30	C	1.113258	0.499938	0.764467
C31	C	0.505122	-0.000071	0.253435
C32	C	1.005122	0.499929	0.753435
C33	C	0.772534	-0.000054	0.198583
C34	C	1.272534	0.499946	0.698583
C35	C	1.198233	-0.228082	0.166614
C36	C	1.698233	0.271918	0.666614
C37	C	1.198239	-0.304727	0.166610
C38	C	1.698239	0.195273	0.666610
C39	C	1.138815	-0.343053	0.226006
C40	C	1.638815	0.156947	0.726006
C41	C	1.079363	-0.304728	0.285393
C42	C	1.579363	0.195272	0.785393
C43	C	1.079352	-0.228084	0.285388
C44	C	1.579352	0.271916	0.785388
N45	N	1.133806	-0.463381	0.309456
N46	N	1.633806	0.036619	0.809456
N47	N	1.133822	-0.536189	0.309458
N48	N	1.633822	-0.036189	0.809458
C49	C	1.138843	-0.573975	0.226022
C50	C	1.638843	-0.073975	0.726022
N51	N	1.143866	-0.536203	0.142584
N52	N	1.643866	-0.036203	0.642584
N53	N	1.143855	-0.463389	0.142583
N54	N	1.643855	0.036611	0.642583
C55	C	1.138820	-0.426160	0.226017
C56	C	1.638820	0.073840	0.726017
C57	C	1.198292	-0.695399	0.166630
C58	C	1.698292	-0.195399	0.666630
C59	C	1.198291	-0.772045	0.166625
C60	C	1.698291	-0.272045	0.666625
C61	C	1.079420	-0.772044	0.285416
C62	C	1.579420	-0.272044	0.785416
C63	C	1.079416	-0.695399	0.285413
C64	C	1.579416	-0.195399	0.785413
C65	C	1.138857	-0.657081	0.226022
C66	C	1.638857	-0.157081	0.726022
C67	C	1.312783	-0.000076	0.233800
C68	C	1.812783	0.499924	0.733800
C69	C	1.418926	-0.000078	0.244645
C70	C	1.918926	0.499922	0.744645
C71	C	1.131037	-0.000073	0.052054
C72	C	1.631037	0.499927	0.552054
C73	C	1.120193	-0.000073	-0.054088
C74	C	1.620193	0.499927	0.445912
N75	N	1.138865	0.189634	0.226020
N76	N	1.638865	0.689634	0.726020
C77	C	1.100366	-0.000061	-0.248426
C78	C	1.600366	0.499939	0.251574
C79	C	1.177281	-0.000064	-0.299556
C80	C	1.677281	0.499936	0.200444
C81	C	1.166249	-0.000057	-0.407692
C82	C	1.666249	0.499943	0.092308
C83	C	1.111397	-0.000068	-0.140280
C84	C	1.611397	0.499932	0.359720
C85	C	1.146614	-0.000057	0.399969
C86	C	1.646614	0.499943	0.899969
C87	C	1.157459	-0.000052	0.506112
C88	C	1.657459	0.499948	1.006112
H89	H	0.650697	-0.000055	0.338600
H90	H	1.150697	0.499945	0.838600
H91	H	1.031019	-0.664200	0.333772
H92	H	1.531019	-0.164200	0.833772
H93	H	1.026239	-0.000054	-0.285863
H94	H	1.526239	0.499946	0.214137
H95	H	1.251414	-0.000020	-0.262117
H96	H	1.751414	0.499980	0.237883
N97	N	1.018722	-0.811172	0.346102
N98	N	1.518722	-0.311172	0.846102
N99	N	0.965660	-0.776947	0.399128
N100	N	1.465660	-0.276947	0.899128
H101	H	0.922788	-0.804583	0.441990
H102	H	1.422788	-0.304583	0.941990
H103	H	0.626951	-0.000071	0.113425
H104	H	1.126951	0.499929	0.613425
H105	H	1.246631	-0.196886	0.118252
H106	H	1.746631	0.303114	0.618252
H107	H	1.030977	-0.335936	0.333752
H108	H	1.530977	0.164064	0.833752
N109	N	1.258961	-0.343865	0.105941
N110	N	1.758961	0.156135	0.605941
N111	N	1.312023	-0.309644	0.052916
N112	N	1.812023	0.190356	0.552916
H113	H	1.354908	-0.337283	0.010067
H114	H	1.854908	0.162717	0.510067
N115	N	1.018638	-0.188954	0.346067
N116	N	1.518638	0.311046	0.846067
N117	N	1.027404	-0.197507	0.434424
N118	N	1.527404	0.302493	0.934424
H119	H	0.984525	-0.169871	0.477283
H120	H	1.484525	0.330129	0.977283
H121	H	1.246690	-0.664199	0.118267
H122	H	1.746690	-0.164199	0.618267
N123	N	1.259009	-0.811175	0.105949
N124	N	1.759009	-0.311175	0.605949
N125	N	1.312070	-0.776950	0.052928
N126	N	1.812070	-0.276950	0.552928
H127	H	1.354953	-0.804585	0.010073
H128	H	1.854953	-0.304585	0.510073
