data_functionalizedCrystal
_audit_creation_method	'MofGen! by Chris Wilmer'
_symmetry_space_group_name_H-M	'P1'
_symmetry_Int_Tables_number	1
_symmetry_cell_setting	triclinic
loop_
_symmetry_equiv_pos_as_xyz
  x,y,z
_cell_length_a	17.699083
_cell_length_b	13.330367
_cell_length_c	17.699082
_cell_angle_alpha	89.997287
_cell_angle_beta	96.717252
_cell_angle_gamma	90.001523
loop_
_atom_site_label
_atom_site_type_symbol
_atom_site_fract_x
_atom_site_fract_y
_atom_site_fract_z
O1	O	1.004079	0.083279	-0.095711
O2	O	1.337412	0.416612	0.237623
O3	O	1.670745	0.749945	0.570956
O4	O	0.783700	0.083311	-0.108163
O5	O	1.117034	0.416644	0.225170
O6	O	1.450367	0.749978	0.558503
O7	O	0.900116	0.083292	0.008252
O8	O	1.233450	0.416626	0.341586
O9	O	1.566783	0.749959	0.674919
O10	O	0.887663	0.083297	-0.212126
O11	O	1.220996	0.416631	0.121207
O12	O	1.554329	0.749964	0.454540
O13	O	0.900099	-0.083555	0.008255
O14	O	1.233433	0.249778	0.341588
O15	O	1.566766	0.583112	0.674921
O16	O	0.783683	-0.083536	-0.108161
O17	O	1.117017	0.249797	0.225173
O18	O	1.450350	0.583130	0.558506
O19	O	1.004062	-0.083569	-0.095708
O20	O	1.337395	0.249765	0.237625
O21	O	1.670729	0.583098	0.570958
Cu22	Cu	0.893871	-0.098787	-0.101934
Cu23	Cu	1.227204	0.234546	0.231399
Cu24	Cu	1.560538	0.567880	0.564732
Cu25	Cu	0.893891	0.098529	-0.101937
Cu26	Cu	1.227224	0.431863	0.231396
Cu27	Cu	1.560558	0.765196	0.564729
O28	O	0.887646	-0.083550	-0.212124
O29	O	1.220979	0.249784	0.121210
O30	O	1.554313	0.583117	0.454543
C31	C	0.755495	-0.000108	-0.107716
C32	C	1.088828	0.333225	0.225618
C33	C	1.422162	0.666558	0.558951
C34	C	0.671477	-0.000096	-0.106377
C35	C	1.004810	0.333237	0.226956
C36	C	1.338143	0.666571	0.560290
C37	C	0.622856	-0.000095	-0.174711
C38	C	0.956189	0.333239	0.158623
C39	C	1.289522	0.666572	0.491956
C40	C	0.543912	-0.000108	-0.173448
C41	C	0.877246	0.333226	0.159885
C42	C	1.210579	0.666559	0.493218
C43	C	0.513592	-0.000115	-0.103852
C44	C	0.846925	0.333218	0.229482
C45	C	1.180258	0.666552	0.562815
C46	C	0.562219	-0.000119	-0.035513
C47	C	0.895553	0.333214	0.297820
C48	C	1.228886	0.666547	0.631154
C49	C	0.641161	-0.000113	-0.036776
C50	C	0.974494	0.333220	0.296557
C51	C	1.307828	0.666553	0.629890
C52	C	0.243856	-0.000144	-0.030418
C53	C	0.577190	0.333189	0.302915
C54	C	0.910523	0.666523	0.636249
C55	C	0.164908	-0.000147	-0.029160
C56	C	0.498242	0.333186	0.304173
C57	C	0.831575	0.666520	0.637507
C58	C	0.146607	-0.000139	-0.167090
C59	C	0.479941	0.333195	0.166243
C60	C	0.813274	0.666528	0.499577
C61	C	0.225549	-0.000133	-0.168353
C62	C	0.558883	0.333201	0.164980
C63	C	0.892216	0.666534	0.498314
C64	C	0.274170	-0.000142	-0.100015
C65	C	0.607503	0.333191	0.233319
C66	C	0.940836	0.666524	0.566652
C67	C	0.359769	-0.000130	-0.101384
C68	C	0.693102	0.333203	0.231949
C69	C	1.026436	0.666537	0.565282
C70	C	0.427994	-0.000120	-0.102482
C71	C	0.761327	0.333213	0.230852
C72	C	1.094661	0.666547	0.564185
N73	N	0.893863	-0.237568	-0.101932
N74	N	1.227196	0.095765	0.231402
N75	N	1.560529	0.429098	0.564735
C76	C	0.842340	-0.710183	-0.153466
C77	C	1.175673	-0.376850	0.179868
C78	C	1.509007	-0.043516	0.513201
C79	C	0.945463	-0.710168	-0.050403
C80	C	1.278796	-0.376834	0.282931
C81	C	1.612129	-0.043501	0.616264
C82	C	0.945454	-0.605149	-0.050400
C83	C	1.278787	-0.271816	0.282933
C84	C	1.612121	0.061517	0.616266
C85	C	0.893888	-0.552643	-0.101932
C86	C	1.227222	-0.219310	0.231401
C87	C	1.560555	0.114024	0.564734
C88	C	0.842331	-0.605155	-0.153467
C89	C	1.175665	-0.271822	0.179867
C90	C	1.508998	0.061512	0.513200
C91	C	0.997015	-0.552629	0.001128
C92	C	1.330349	-0.219296	0.334461
C93	C	1.663682	0.114037	0.667794
C94	C	0.997010	-0.447605	0.001132
C95	C	1.330343	-0.114271	0.334465
C96	C	1.663676	0.219062	0.667798
C97	C	0.945440	-0.395096	-0.050397
C98	C	1.278773	-0.061763	0.282936
C99	C	1.612106	0.271570	0.616269
C100	C	0.893880	-0.447615	-0.101933
C101	C	1.227213	-0.114281	0.231400
C102	C	1.560546	0.219052	0.564734
C103	C	0.842314	-0.395108	-0.153465
C104	C	1.175647	-0.061775	0.179868
C105	C	1.508981	0.271558	0.513202
C106	C	0.790750	-0.447625	-0.204998
C107	C	1.124083	-0.114292	0.128335
C108	C	1.457417	0.219042	0.461669
C109	C	0.790761	-0.552647	-0.204996
C110	C	1.124095	-0.219313	0.128338
C111	C	1.457428	0.114020	0.461671
C112	C	0.945428	-0.290075	-0.050400
C113	C	1.278762	0.043259	0.282934
C114	C	1.612095	0.376592	0.616267
C115	C	0.842306	-0.290080	-0.153466
C116	C	1.175639	0.043253	0.179867
C117	C	1.508972	0.376586	0.513201
C118	C	1.032267	-0.000147	-0.096156
C119	C	1.365601	0.333186	0.237178
C120	C	1.698934	0.666520	0.570511
C121	C	1.116285	-0.000153	-0.097494
C122	C	1.449619	0.333181	0.235839
C123	C	1.782952	0.666514	0.569172
C124	C	0.888100	-0.000126	-0.240322
C125	C	1.221434	0.333208	0.093011
C126	C	1.554767	0.666541	0.426345
C127	C	0.889439	-0.000125	-0.324340
C128	C	1.222772	0.333209	0.008993
C129	C	1.556105	0.666542	0.342327
N130	N	0.893906	0.237311	-0.101934
N131	N	1.227239	0.570644	0.231400
N132	N	1.560572	0.903977	0.564733
C133	C	0.890077	0.090825	-0.363811
C134	C	1.223411	0.424158	-0.030477
C135	C	1.556744	0.757492	0.302856
C136	C	0.891344	0.090826	-0.442753
C137	C	1.224678	0.424159	-0.109420
C138	C	1.558011	0.757493	0.223913
C139	C	0.891967	-0.000123	-0.482225
C140	C	1.225301	0.333210	-0.148891
C141	C	1.558634	0.666543	0.184442
C142	C	0.891331	-0.091080	-0.442748
C143	C	1.224664	0.242253	-0.109415
C144	C	1.557998	0.575587	0.223918
C145	C	0.890069	-0.091080	-0.363806
C146	C	1.223403	0.242253	-0.030473
C147	C	1.556736	0.575587	0.302860
C148	C	0.896420	-0.091082	-0.761112
C149	C	1.229753	0.242251	-0.427779
C150	C	1.563087	0.575585	-0.094446
C151	C	0.897680	-0.091075	-0.840060
C152	C	1.231013	0.242259	-0.506727
C153	C	1.564346	0.575592	-0.173393
C154	C	0.897695	0.090824	-0.840059
C155	C	1.231028	0.424157	-0.506726
C156	C	1.564362	0.757491	-0.173392
C157	C	0.896433	0.090824	-0.761117
C158	C	1.229767	0.424157	-0.427784
C159	C	1.563100	0.757491	-0.094450
C160	C	0.895801	-0.000132	-0.721647
C161	C	1.229134	0.333202	-0.388314
C162	C	1.562468	0.666535	-0.054981
C163	C	0.894429	-0.000132	-0.636048
C164	C	1.227762	0.333202	-0.302715
C165	C	1.561095	0.666535	0.030618
C166	C	0.893334	-0.000124	-0.567823
C167	C	1.226668	0.333209	-0.234489
C168	C	1.560001	0.666542	0.098844
C169	C	0.899662	-0.000130	0.036451
C170	C	1.232995	0.333204	0.369784
C171	C	1.566328	0.666537	0.703117
C172	C	0.898324	-0.000124	0.120469
C173	C	1.231657	0.333209	0.453802
C174	C	1.564990	0.666542	0.787135
H175	H	0.537526	-0.000139	0.021154
H176	H	0.870860	0.333194	0.354487
H177	H	1.204193	0.666527	0.687820
H178	H	0.107011	-0.000136	-0.222734
H179	H	0.440344	0.333197	0.110599
H180	H	0.773677	0.666531	0.443932
H181	H	0.987414	-0.247321	-0.008446
H182	H	1.320748	0.086013	0.324888
H183	H	1.654081	0.419346	0.658221
H184	H	0.898183	-0.165141	-0.872196
H185	H	1.231516	0.168192	-0.538863
H186	H	1.564850	0.501525	-0.205529
H187	H	0.889549	-0.165140	-0.331671
H188	H	1.222882	0.168193	0.001663
H189	H	1.556216	0.501526	0.334996
H190	H	0.647536	-0.000088	-0.231384
H191	H	0.980869	0.333245	0.101949
H192	H	1.314202	0.666578	0.435283
H193	H	0.250231	-0.000122	-0.225026
H194	H	0.583565	0.333211	0.108308
H195	H	0.916898	0.666544	0.441641
H196	H	0.895906	-0.165144	-0.728985
H197	H	1.229240	0.168190	-0.395652
H198	H	1.562573	0.501523	-0.062319
H199	H	0.504327	-0.000106	-0.229092
H200	H	0.837661	0.333228	0.104241
H201	H	1.170994	0.666561	0.437574
H202	H	0.898212	0.164885	-0.872205
H203	H	1.231546	0.498218	-0.538871
H204	H	1.564879	0.831551	-0.205538
H205	H	0.140225	-0.000154	0.027517
H206	H	0.473558	0.333179	0.360850
H207	H	0.806892	0.666513	0.694184
H208	H	0.891843	-0.165133	-0.474892
H209	H	1.225177	0.168201	-0.141558
H210	H	1.558510	0.501534	0.191775
H211	H	0.800355	-0.752945	-0.195421
H212	H	1.133688	-0.419611	0.137912
H213	H	1.467022	-0.086278	0.471246
H214	H	0.891866	0.164886	-0.474886
H215	H	1.225199	0.498220	-0.141553
H216	H	1.558532	0.831553	0.191780
H217	H	0.283434	-0.000153	0.025228
H218	H	0.616767	0.333181	0.358561
H219	H	0.950101	0.666514	0.691894
H220	H	0.680748	-0.000114	0.018868
H221	H	1.014082	0.333220	0.352201
H222	H	1.347415	0.666553	0.685535
H223	H	0.895922	0.164884	-0.728984
H224	H	1.229256	0.498218	-0.395651
H225	H	1.562589	0.831551	-0.062317
H226	H	0.800312	-0.247336	-0.195427
H227	H	1.133645	0.085997	0.137906
H228	H	1.466978	0.419331	0.471240
H229	H	0.748768	-0.404862	-0.246959
H230	H	1.082101	-0.071529	0.086374
H231	H	1.415435	0.261804	0.419708
H232	H	0.748780	-0.595412	-0.246952
H233	H	1.082114	-0.262079	0.086381
H234	H	1.415447	0.071255	0.419714
H235	H	0.987450	-0.752922	-0.008450
H236	H	1.320783	-0.419588	0.324883
H237	H	1.654116	-0.086255	0.658216
H238	H	1.038995	-0.404852	0.043093
H239	H	1.372328	-0.071519	0.376426
H240	H	1.705661	0.261815	0.709759
H241	H	1.039002	-0.595383	0.043080
H242	H	1.372336	-0.262050	0.376413
H243	H	1.705669	0.071283	0.709747
H244	H	0.889563	0.164887	-0.331680
H245	H	1.222896	0.498220	0.001654
H246	H	1.556229	0.831553	0.334987
