data_functionalizedCrystal
_audit_creation_method	'MofGen! by Chris Wilmer'
_symmetry_space_group_name_H-M	'P1'
_symmetry_Int_Tables_number	1
_symmetry_cell_setting	triclinic
loop_
_symmetry_equiv_pos_as_xyz
  x,y,z
_cell_length_a	13.032831
_cell_length_b	18.101395
_cell_length_c	13.033352
_cell_angle_alpha	82.831707
_cell_angle_beta	89.095163
_cell_angle_gamma	82.835691
loop_
_atom_site_label
_atom_site_type_symbol
_atom_site_fract_x
_atom_site_fract_y
_atom_site_fract_z
Zn1	Zn	1.498111	-0.500316	0.780769
Zn2	Zn	1.519864	-0.610606	0.608787
Zn3	Zn	1.348031	-0.469331	0.587019
Zn4	Zn	1.326073	-0.606641	0.758907
O5	O	1.423020	-0.546723	0.683871
O6	O	1.644908	-0.529573	0.776215
O7	O	1.515363	-0.580558	0.461988
O8	O	1.368025	-0.369819	0.612760
O9	O	1.660890	-0.610603	0.649860
O10	O	1.478288	-0.392584	0.755108
O11	O	1.389118	-0.476763	0.445996
O12	O	1.201207	-0.472918	0.591562
O13	O	1.330601	-0.603844	0.905718
O14	O	1.185075	-0.573799	0.717847
O15	O	1.456996	-0.525728	0.921780
O16	O	1.494072	-0.713702	0.628661
O17	O	1.351695	-0.710788	0.738954
C18	C	1.155827	-0.519566	0.649970
C19	C	1.041517	-0.507968	0.635492
C20	C	0.982612	-0.552776	0.691427
C21	C	0.864467	-0.540790	0.676464
C22	C	1.422886	-0.739117	0.683823
C23	C	1.422919	-0.821437	0.683849
C24	C	1.423137	-1.120555	0.683933
C25	C	1.333716	-1.087462	0.753547
C26	C	1.333371	-1.001786	0.753250
C27	C	1.423029	-0.972159	0.683892
C28	C	1.407488	-0.991794	0.571791
C29	C	1.406916	-1.077425	0.572203
C30	C	1.528393	-1.102136	0.725488
C31	C	1.527451	-1.016607	0.727783
C32	C	1.422970	-0.888292	0.683863
C33	C	1.423194	-1.204422	0.683955
C34	C	1.691257	-0.573987	0.717904
C35	C	1.805563	-0.585605	0.732407
C36	C	1.388923	-0.567800	0.952107
C37	C	1.374393	-0.576781	1.066413
C38	C	1.423179	-0.353582	0.683945
C39	C	1.423247	-0.271277	0.683976
C40	C	1.430453	-0.542135	1.125322
C41	C	1.415437	-0.551417	1.243463
C42	C	1.456976	-0.525745	1.416677
C43	C	1.471504	-0.516766	1.302370
H44	H	1.341625	-1.116205	0.836474
H45	H	1.356314	-0.587948	1.280488
H46	H	0.827435	-0.493549	0.617499
H47	H	1.004481	-0.460730	0.576531
N48	N	1.031660	-0.615351	0.769529
H49	H	0.976118	-0.643608	0.804800
H50	H	1.070201	-0.593498	0.822803
N51	N	1.307295	-0.950391	0.526874
H52	H	1.260724	-0.987737	0.509674
H53	H	1.322268	-0.916801	0.461937
N54	N	1.230609	-1.103366	0.716033
H55	H	1.173594	-1.081920	0.761165
H56	H	1.230096	-1.159375	0.719600
N57	N	0.854592	-0.648180	0.810525
H58	H	0.893123	-0.626381	0.863865
H59	H	0.904409	-0.683629	0.774172
N60	N	1.305544	-1.090823	0.527696
H61	H	1.246537	-1.070185	0.571213
H62	H	1.304251	-1.146477	0.527516
N63	N	1.296074	-0.625164	1.115447
H64	H	1.296443	-0.624932	1.192893
H65	H	1.314389	-0.678218	1.098741
H66	H	1.596491	-0.997275	0.681874
N67	N	1.344124	-0.984729	0.862779
H68	H	1.349132	-1.032926	0.911690
H69	H	1.281756	-0.949888	0.881222
N70	N	1.229664	-0.961956	0.715342
H71	H	1.183997	-1.000050	0.698754
H72	H	1.239727	-0.926209	0.651071
H73	H	1.594846	-1.123815	0.674953
H74	H	1.469969	-1.098919	0.517826
H75	H	1.471177	-0.972303	0.517907
H76	H	1.545252	-1.132519	0.806563
H77	H	1.539421	-1.004773	0.810351
N78	N	1.508765	-0.493752	1.076275
H79	H	1.490498	-0.440671	1.092897
H80	H	1.508350	-0.494051	0.998845
H81	H	1.530615	-0.480225	1.265345
