data_functionalizedCrystal
_audit_creation_method	'MofGen! by Chris Wilmer'
_symmetry_space_group_name_H-M	'P1'
_symmetry_Int_Tables_number	1
_symmetry_cell_setting	triclinic
loop_
_symmetry_equiv_pos_as_xyz
  x,y,z
_cell_length_a	12.759401
_cell_length_b	12.759400
_cell_length_c	12.759393
_cell_angle_alpha	89.971295
_cell_angle_beta	89.981528
_cell_angle_gamma	90.014922
loop_
_atom_site_label
_atom_site_type_symbol
_atom_site_fract_x
_atom_site_fract_y
_atom_site_fract_z
Zn1	Zn	1.606255	-0.418219	-0.593988
Zn2	Zn	1.606150	-0.593931	-0.418310
Zn3	Zn	1.430557	-0.418268	-0.418327
Zn4	Zn	1.430546	-0.593857	-0.593951
O5	O	1.518377	-0.506069	-0.506144
O6	O	1.753262	-0.441538	-0.570692
O7	O	1.582818	-0.570680	-0.271291
O8	O	1.453913	-0.271240	-0.441651
O9	O	1.753185	-0.570633	-0.441622
O10	O	1.582997	-0.271205	-0.570708
O11	O	1.453811	-0.441621	-0.271303
O12	O	1.283535	-0.441550	-0.441616
O13	O	1.453893	-0.570507	-0.740977
O14	O	1.283526	-0.570555	-0.570646
O15	O	1.582986	-0.441467	-0.741004
O16	O	1.582807	-0.740943	-0.441587
O17	O	1.453791	-0.740888	-0.570630
C18	C	1.245410	-0.506050	-0.506129
C19	C	1.128633	-0.506067	-0.506148
C20	C	0.964063	-0.573358	-0.573236
C21	C	1.073787	-0.573347	-0.573225
C22	C	1.073749	-0.438803	-0.439070
C23	C	0.964027	-0.438821	-0.439077
C24	C	1.223739	-0.697273	-0.610541
C25	C	1.278619	-0.764526	-0.677628
C26	C	1.243046	-0.780786	-0.780117
C27	C	1.152594	-0.729780	-0.815539
C28	C	1.097720	-0.662520	-0.748458
C29	C	1.133292	-0.646279	-0.645955
C30	C	0.814073	-0.314893	-0.401771
C31	C	0.759197	-0.247626	-0.334694
C32	C	0.794768	-0.231355	-0.232204
C33	C	0.885223	-0.282343	-0.196785
C34	C	0.940099	-0.349609	-0.263862
C35	C	0.904520	-0.365883	-0.366351
C36	C	1.518315	-0.779036	-0.506125
C37	C	1.518384	-0.895813	-0.506152
C38	C	1.585569	-0.950566	-0.573410
C39	C	1.585628	-1.060290	-0.573438
C40	C	1.451314	-1.060498	-0.438943
C41	C	1.451251	-0.950776	-0.438921
C42	C	1.623187	-1.210122	-0.697406
C43	C	1.690389	-1.264879	-0.764654
C44	C	1.792874	-1.229171	-0.780865
C45	C	1.828179	-1.138707	-0.729812
C46	C	1.760983	-1.083955	-0.662556
C47	C	1.658483	-1.119662	-0.646366
C48	C	1.413703	-0.800943	-0.314951
C49	C	1.346511	-0.746189	-0.247689
C50	C	1.244024	-0.781895	-0.231468
C51	C	1.208724	-0.872362	-0.282502
C52	C	1.275915	-0.927116	-0.349764
C53	C	1.378401	-0.891402	-0.365987
C54	C	1.792410	-0.506089	-0.506159
C55	C	1.909187	-0.506097	-0.506165
C56	C	1.518450	-0.505973	-0.780177
C57	C	1.518481	-0.505933	-0.896954
C58	C	1.518468	-0.232036	-0.506186
C59	C	1.518507	-0.115259	-0.506203
C60	C	1.585659	-0.573104	-0.951813
C61	C	1.585690	-0.573052	-1.061537
C62	C	1.451356	-0.438654	-1.061533
C63	C	1.451332	-0.438702	-0.951811
C64	C	1.709616	-0.610536	-1.211497
C65	C	1.776784	-0.677724	-1.266360
C66	C	1.792870	-0.780255	-1.230744
C67	C	1.741773	-0.815620	-1.140266
C68	C	1.674597	-0.748437	-1.085409
C69	C	1.658531	-0.645892	-1.121024
C70	C	1.327404	-0.401228	-0.801849
C71	C	1.260222	-0.334051	-0.746990
C72	C	1.244125	-0.231518	-0.782604
C73	C	1.295204	-0.196157	-0.873085
C74	C	1.362386	-0.263335	-0.927945
C75	C	1.378485	-0.365867	-0.892323
C76	C	1.518365	-0.506088	-0.233176
C77	C	1.518537	-0.505833	-0.116400
H78	H	1.352265	-0.806055	-0.648777
F79	F	1.864354	-0.851760	-1.289139
F80	F	1.831161	-0.640084	-1.362652
H81	H	1.118413	-0.384028	-0.384451
H82	H	1.125271	-0.901437	-0.269292
H83	H	1.640232	-0.905818	-0.628155
H84	H	1.189319	-0.737306	-0.176694
H85	H	1.189411	-0.176826	-0.737932
F86	F	1.344536	-0.510357	-0.763936
H87	H	1.539733	-1.239197	-0.684224
F88	F	1.114749	-0.747077	-0.924629
F89	F	1.001462	-0.608235	-0.786152
F90	F	0.776212	-0.332201	-0.510858
F91	F	1.379892	-0.367110	-1.119925
H92	H	1.375264	-0.672529	-0.206129
F93	F	1.692514	-0.501404	-1.249401
F94	F	1.798551	-0.987685	-0.608222
F95	F	1.379869	-1.119002	-0.367396
H96	H	1.287737	-0.835545	-0.834739
F97	F	1.937264	-1.100718	-0.747056
H98	H	0.750084	-0.176570	-0.177595
H99	H	0.919415	-0.628139	-0.627863
H100	H	1.282097	-0.112666	-0.902084
F101	F	1.261600	-0.679983	-0.501456
F102	F	1.238340	-1.023398	-0.404084
F103	F	1.657128	-0.644654	-0.893434
F104	F	1.036369	-0.403880	-0.226161
H105	H	1.218622	-0.362854	-0.673322
H106	H	0.914190	-0.269090	-0.113331
F107	F	1.416752	-0.225696	-1.024242
F108	F	0.662930	-0.193353	-0.372397
H109	H	1.847590	-1.273762	-0.835620
F110	F	1.620226	-0.786065	-0.989116
F111	F	1.652813	-1.361156	-0.818984
F112	F	1.522784	-0.762935	-0.332210
H113	H	1.754865	-0.899116	-1.111283
