data_functionalizedCrystal
_audit_creation_method	'MofGen! by Chris Wilmer'
_symmetry_space_group_name_H-M	'P1'
_symmetry_Int_Tables_number	1
_symmetry_cell_setting	triclinic
loop_
_symmetry_equiv_pos_as_xyz
  x,y,z
_cell_length_a	13.032831
_cell_length_b	15.299816
_cell_length_c	13.032268
_cell_angle_alpha	107.904846
_cell_angle_beta	90.886977
_cell_angle_gamma	74.594753
loop_
_atom_site_label
_atom_site_type_symbol
_atom_site_fract_x
_atom_site_fract_y
_atom_site_fract_z
Zn1	Zn	1.608034	-0.636635	-0.922463
Zn2	Zn	1.653946	-0.777088	-0.781728
Zn3	Zn	1.451116	-0.597255	-0.719943
Zn4	Zn	1.459317	-0.771991	-0.930720
O5	O	1.543103	-0.695742	-0.838713
O6	O	1.761248	-0.673880	-0.926196
O7	O	1.642822	-0.738885	-0.626424
O8	O	1.449285	-0.470571	-0.717495
O9	O	1.794979	-0.777070	-0.822799
O10	O	1.564572	-0.499503	-0.866285
O11	O	1.493804	-0.606762	-0.581030
O12	O	1.305080	-0.601820	-0.725501
O13	O	1.463263	-0.768383	-1.076733
O14	O	1.311105	-0.730198	-0.880358
O15	O	1.572524	-0.668938	-1.070667
O16	O	1.650775	-0.908319	-0.830805
O17	O	1.507782	-0.904574	-0.940269
C18	C	1.269945	-0.661183	-0.797122
C19	C	1.153088	-0.646424	-0.779359
C20	C	1.585176	-0.940655	-0.893165
C21	C	1.603268	-1.045445	-0.916509
C22	C	1.104024	-0.703445	-0.847984
C23	C	0.983247	-0.688192	-0.829627
C24	C	1.414452	-1.280894	-0.672331
C25	C	1.397449	-1.182438	-0.650399
C26	C	1.448902	-1.148185	-0.716925
C27	C	1.517362	-1.212398	-0.805385
C28	C	1.534360	-1.310863	-0.827324
C29	C	1.568810	-1.178154	-0.871918
C30	C	1.637270	-1.242367	-0.960379
C31	C	1.654266	-1.340822	-0.982313
C32	C	1.602812	-1.375076	-0.915787
C33	C	1.551812	-1.079688	-0.849979
C34	C	1.671720	-1.109657	-1.004972
C35	C	1.688723	-1.208113	-1.026904
C36	C	1.817328	-0.730436	-0.880468
C37	C	1.934186	-0.745221	-0.898262
C38	C	1.513687	-0.722485	-1.112910
C39	C	1.501151	-0.733881	-1.229756
C40	C	1.500892	-0.449879	-0.784077
C41	C	1.482904	-0.345106	-0.760794
C42	C	1.549623	-0.689758	-1.278848
C43	C	1.536669	-0.701536	-1.399615
C44	C	1.572454	-0.669043	-0.565578
C45	C	1.585147	-0.657407	-0.448704
H46	H	0.935839	-0.628074	-0.757282
O47	O	1.645948	-0.601842	-1.392056
C48	C	1.582380	-0.527221	-1.305931
H49	H	1.510165	-0.548817	-1.284841
H50	H	1.631257	-0.512501	-1.232392
H51	H	1.554317	-0.460008	-1.330917
H52	H	1.485568	-0.748026	-1.446986
O53	O	1.330964	-1.120198	-0.564398
C54	C	1.289178	-1.171540	-0.510397
H55	H	1.344740	-1.246789	-0.528982
H56	H	1.282018	-1.133643	-0.419534
H57	H	1.206990	-1.175703	-0.539006
O58	O	0.990563	-0.816960	-0.984656
C59	C	0.921496	-0.867031	-1.044881
H60	H	0.836162	-0.818968	-1.028190
H61	H	0.946186	-0.889272	-1.134755
H62	H	0.926292	-0.933342	-1.020400
O63	O	1.440366	-0.789478	-1.286358
C64	C	1.503908	-0.864067	-1.372527
H65	H	1.591243	-0.877151	-1.353275
H66	H	1.478198	-0.931932	-1.384211
H67	H	1.493664	-0.843435	-1.449772
O68	O	1.755364	-1.270455	-1.112746
C69	C	1.858454	-1.257335	-1.100463
H70	H	1.868184	-1.222790	-1.011281
H71	H	1.920577	-1.329499	-1.131894
H72	H	1.869962	-1.209108	-1.148280
O73	O	1.160663	-0.775047	-0.934332
C74	C	1.207666	-0.736068	-1.000017
H75	H	1.215669	-0.663022	-0.949642
H76	H	1.290029	-0.785538	-1.034236
H77	H	1.155309	-0.728126	-1.069289
H78	H	1.105677	-0.586310	-0.707019
H79	H	1.496071	-1.027414	-0.777954
H80	H	1.435055	-1.068017	-0.699062
O81	O	1.619142	-1.470705	-0.937156
C82	C	1.521154	-1.493538	-0.956035
H83	H	1.462951	-1.435782	-0.982576
H84	H	1.534593	-1.565252	-1.022251
H85	H	1.486681	-1.498044	-0.878547
O86	O	1.364428	-1.314282	-0.607880
C87	C	1.299881	-1.368483	-0.670029
H88	H	1.330885	-1.395621	-0.758635
H89	H	1.302381	-1.431798	-0.640500
H90	H	1.214185	-1.321862	-0.661210
O91	O	1.720681	-1.403100	-1.068358
C92	C	1.682221	-1.386340	-1.164245
H93	H	1.629232	-1.309982	-1.144322
H94	H	1.752407	-1.397085	-1.222214
H95	H	1.633926	-1.438398	-1.203736
O96	O	1.721539	-1.076279	-1.069607
C97	C	1.644519	-1.018405	-1.115669
H98	H	1.566326	-0.990037	-1.063133
H99	H	1.673856	-0.955920	-1.120873
H100	H	1.631095	-1.062458	-1.200247
O101	O	1.610436	-0.634216	-1.222188
C102	C	1.546888	-0.559597	-1.136050
H103	H	1.474657	-0.581175	-1.114968
H104	H	1.595771	-0.544907	-1.062511
H105	H	1.518850	-0.492370	-1.161014
