data_functionalizedCrystal
_audit_creation_method	'MofGen! by Chris Wilmer'
_symmetry_space_group_name_H-M	'P1'
_symmetry_Int_Tables_number	1
_symmetry_cell_setting	triclinic
loop_
_symmetry_equiv_pos_as_xyz
  x,y,z
_cell_length_a	9.065218
_cell_length_b	14.519731
_cell_length_c	7.540329
_cell_angle_alpha	89.995423
_cell_angle_beta	89.996962
_cell_angle_gamma	84.352369
loop_
_atom_site_label
_atom_site_type_symbol
_atom_site_fract_x
_atom_site_fract_y
_atom_site_fract_z
O1	O	1.957881	0.135224	-0.147492
O2	O	1.528389	0.146316	-0.147495
O3	O	1.754506	0.006616	-0.147477
O4	O	1.731764	0.274924	-0.147509
O5	O	1.754493	0.006614	0.147488
O6	O	1.528376	0.146314	0.147470
O7	O	1.957867	0.135222	0.147473
Cu8	Cu	1.743120	0.140768	0.174405
Cu9	Cu	1.743136	0.140770	-0.174426
O10	O	1.731751	0.274922	0.147456
C11	C	1.473416	0.145249	-0.000012
C12	C	1.309632	0.142062	-0.000013
C13	C	1.753434	-0.027752	0.000006
C14	C	1.750241	-0.130156	0.000007
C15	C	1.747646	-0.213319	0.000003
C16	C	1.744404	-0.317651	-0.000011
C17	C	1.741831	-0.400809	-0.000022
C18	C	1.738589	-0.505148	-0.000032
C19	C	2.012841	0.136289	-0.000013
C20	C	2.176624	0.139476	-0.000024
C21	C	1.732823	0.309290	-0.000031
C22	C	1.736016	0.411694	-0.000044
N23	N	1.743120	0.140766	0.419753
N24	N	1.743148	0.140765	-0.419774
