data_functionalizedCrystal
_audit_creation_method	'MofGen! by Chris Wilmer'
_symmetry_space_group_name_H-M	'P1'
_symmetry_Int_Tables_number	1
_symmetry_cell_setting	triclinic
loop_
_symmetry_equiv_pos_as_xyz
  x,y,z
_cell_length_a	10.723024
_cell_length_b	17.666332
_cell_length_c	10.723024
_cell_angle_alpha	90.005257
_cell_angle_beta	84.467869
_cell_angle_gamma	90.009033
loop_
_atom_site_label
_atom_site_type_symbol
_atom_site_fract_x
_atom_site_fract_y
_atom_site_fract_z
O1	O	1.657197	0.062941	0.175029
O2	O	1.294045	0.062944	0.191783
O3	O	1.483998	0.062940	0.001830
O4	O	1.467244	0.062945	0.364982
O5	O	1.483964	-0.062957	0.001819
O6	O	1.294011	-0.062953	0.191772
O7	O	1.657163	-0.062955	0.175019
Cu8	Cu	1.475584	-0.074450	0.183395
Cu9	Cu	1.475624	0.074438	0.183407
O10	O	1.467211	-0.062951	0.364972
C11	C	1.247528	-0.000004	0.190558
C12	C	1.108974	-0.000003	0.186911
N13	N	1.475565	-0.179169	0.183385
C14	C	1.033991	-0.000001	0.293198
C15	C	0.890788	-0.000000	0.289431
C16	C	1.559704	-0.218781	0.099316
C17	C	1.559711	-0.298028	0.099310
C18	C	1.475592	-0.337661	0.183395
C19	C	1.391437	-0.298040	0.267471
C20	C	1.391424	-0.218794	0.267466
N21	N	1.460652	-0.462078	0.293680
N22	N	1.460672	-0.537358	0.293681
C23	C	1.475625	-0.576425	0.183413
N24	N	1.490581	-0.537368	0.073140
N25	N	1.490568	-0.462080	0.073141
C26	C	1.475596	-0.423590	0.183409
C27	C	1.559776	-0.701966	0.099330
C28	C	1.559775	-0.781215	0.099322
C29	C	1.391506	-0.781226	0.267494
C30	C	1.391502	-0.701978	0.267491
C31	C	1.475643	-0.662353	0.183410
C32	C	1.703680	-0.000006	0.176243
C33	C	1.842234	-0.000002	0.179891
C34	C	1.482762	-0.000008	-0.044675
C35	C	1.479114	-0.000005	-0.183229
N36	N	1.475653	0.179157	0.183407
C37	C	1.585401	-0.000005	-0.258212
C38	C	1.581634	-0.000002	-0.401415
C39	C	1.468447	-0.000002	0.411477
C40	C	1.472094	0.000000	0.550031
H41	H	1.075814	-0.000004	0.386984
H42	H	1.381099	-0.000005	-0.385544
O43	O	1.059034	0.000130	0.075049
C44	C	0.984533	0.065324	0.066391
H45	H	1.015976	0.110897	0.131820
H46	H	0.995226	0.087210	-0.034082
H47	H	0.882154	0.050582	0.094429
H48	H	0.826355	0.000005	0.380421
O49	O	1.641298	-0.180439	0.017295
C50	C	1.619768	-0.200000	-0.106295
H51	H	1.519791	-0.221728	-0.107589
H52	H	1.633625	-0.147992	-0.169031
H53	H	1.688477	-0.246097	-0.142204
H54	H	1.322943	-0.330313	0.335932
O55	O	1.641506	-0.336597	0.017813
C56	C	1.719082	-0.382403	0.085362
H57	H	1.670206	-0.394275	0.182556
H58	H	1.738396	-0.438130	0.033459
H59	H	1.811371	-0.351844	0.094691
O60	O	1.690074	0.000033	-0.478451
C61	C	1.662172	0.000015	-0.604282
H62	H	1.564097	0.023850	-0.609986
H63	H	1.733335	0.036568	-0.662714
H64	H	1.666521	-0.060383	-0.641895
H65	H	1.679187	-0.000010	-0.216390
H66	H	1.385328	0.000000	-0.225051
H67	H	1.322906	-0.186542	0.335926
O68	O	1.641543	-0.663586	0.017529
C69	C	1.715823	-0.715546	-0.056665
H70	H	1.664656	-0.772043	-0.058542
H71	H	1.734007	-0.692653	-0.156152
H72	H	1.808868	-0.723959	-0.015300
H73	H	1.323009	-0.813494	0.335953
O74	O	1.641564	-0.819781	0.017824
C75	C	1.719132	-0.865592	0.085371
H76	H	1.670254	-0.877463	0.182565
H77	H	1.738438	-0.921319	0.033467
H78	H	1.811425	-0.835039	0.094702
O79	O	0.918957	-0.000103	0.071245
C80	C	0.895702	-0.065317	0.001293
H81	H	0.797196	-0.087056	0.030971
H82	H	0.904099	-0.050653	-0.102709
H83	H	0.967003	-0.110973	0.019052
O84	O	1.309732	-0.663612	0.349287
C85	C	1.235463	-0.715583	0.423482
H86	H	1.286644	-0.772065	0.425363
H87	H	1.217271	-0.692681	0.522968
H88	H	1.142421	-0.724029	0.382115
