data_functionalizedCrystal
_audit_creation_method	'MofGen! by Chris Wilmer'
_symmetry_space_group_name_H-M	'P1'
_symmetry_Int_Tables_number	1
_symmetry_cell_setting	triclinic
loop_
_symmetry_equiv_pos_as_xyz
  x,y,z
_cell_length_a	30.570279
_cell_length_b	30.570279
_cell_length_c	30.570330
_cell_angle_alpha	89.997198
_cell_angle_beta	59.997346
_cell_angle_gamma	59.999926
loop_
_atom_site_label
_atom_site_type_symbol
_atom_site_fract_x
_atom_site_fract_y
_atom_site_fract_z
O1	O	0.385858	0.300077	-0.013024
O2	O	0.296280	0.236467	0.012943
O3	O	0.385854	0.236466	-0.076633
O4	O	0.296284	0.300078	0.076552
O5	O	0.313099	0.309221	-0.076633
O6	O	0.223525	0.309222	0.012943
O7	O	0.313103	0.372832	-0.013024
Zn8	Zn	0.256763	0.352578	-0.000040
Zn9	Zn	0.352620	0.256720	-0.000040
O10	O	0.223529	0.372833	0.076552
C11	C	0.447881	0.499850	-0.027243
C12	C	0.417174	0.557551	-0.023530
C13	C	0.421801	0.473284	-0.027610
C14	C	0.527094	0.420638	-0.027243
C15	C	0.581082	0.393644	-0.023531
C16	C	0.500894	0.394191	-0.027610
C17	C	0.447878	0.420639	-0.027238
C18	C	0.417167	0.393647	-0.023519
C19	C	0.500897	0.473282	-0.027615
C20	C	0.392356	0.371840	-0.020514
C21	C	0.392365	0.604168	-0.020529
C22	C	0.624698	0.371836	-0.020530
C23	C	0.361229	0.344483	-0.016744
C24	C	0.361241	0.662651	-0.016765
C25	C	0.679417	0.344476	-0.016766
C26	C	0.128236	0.080457	0.031435
C27	C	0.075222	0.107025	0.031804
C28	C	0.128234	0.159671	0.031439
C29	C	0.075220	0.186118	0.031808
C30	C	0.049024	0.159670	0.031435
C31	C	0.154312	0.107026	0.031808
C32	C	0.214055	-0.005155	0.025008
C33	C	0.243219	-0.059253	0.020949
C34	C	0.218189	-0.086386	0.018911
C35	C	0.249810	-0.145043	0.014508
C36	C	0.163991	-0.059426	0.020936
C37	C	0.134827	-0.005330	0.024997
C38	C	0.159861	0.021803	0.027030
C39	C	-0.030158	0.159463	0.025003
C40	C	-0.080198	0.184398	0.020944
C41	C	-0.105295	0.236562	0.018910
C42	C	-0.159549	0.263600	0.014506
C43	C	-0.080362	0.263802	0.020938
C44	C	-0.030327	0.238869	0.024999
C45	C	-0.005225	0.186700	0.027029
C46	C	0.214051	0.159467	0.025015
C47	C	0.243217	0.184400	0.020953
C48	C	0.218184	0.236565	0.018919
C49	C	0.249802	0.263603	0.014520
C50	C	0.163990	0.263800	0.020941
C51	C	0.134824	0.238869	0.025001
C52	C	0.159857	0.186703	0.027037
C53	C	0.481152	0.159674	-0.400688
C54	C	0.534167	0.107029	-0.427135
C55	C	0.481152	0.159674	-0.321476
C56	C	0.534167	0.107030	-0.348043
C57	C	0.560364	0.080462	-0.400687
C58	C	0.455075	0.186122	-0.348044
C59	C	0.395333	0.239065	-0.400483
C60	C	0.366170	0.264171	-0.425418
C61	C	0.391202	0.237104	-0.477581
C62	C	0.359583	0.264321	-0.504619
C63	C	0.445401	0.184931	-0.504819
C64	C	0.474564	0.159827	-0.479887
C65	C	0.449528	0.186894	-0.427719
C66	C	0.639548	-0.005151	-0.480077
C67	C	0.689589	-0.059248	-0.505182
C68	C	0.714685	-0.086380	-0.478114
C69	C	0.768939	-0.145037	-0.505330
C70	C	0.689750	-0.059419	-0.425941
C71	C	0.639715	-0.005324	-0.400838
C72	C	0.614614	0.021808	-0.427906
C73	C	0.395333	0.239065	-0.235863
C74	C	0.366165	0.264169	-0.181763
C75	C	0.391197	0.237102	-0.154631
C76	C	0.359578	0.264319	-0.095974
C77	C	0.445392	0.184931	-0.181589
C78	C	0.474559	0.159825	-0.235687
C79	C	0.449528	0.186895	-0.262821
O80	O	0.822689	0.309217	0.012925
O81	O	0.695472	0.372826	-0.013044
O82	O	0.695460	0.372823	0.076533
O83	O	0.822701	0.309220	-0.076652
O84	O	0.695466	0.300065	0.076526
O85	O	0.695478	0.300069	-0.013051
O86	O	0.822695	0.236459	0.012918
Zn87	Zn	0.759087	0.256712	-0.000068
Zn88	Zn	0.759080	0.352573	-0.000058
O89	O	0.822707	0.236462	-0.076659
O90	O	0.223537	0.835614	0.012926
O91	O	0.313114	0.682428	-0.013043
O92	O	0.223545	0.771991	0.076534
O93	O	0.313106	0.746051	-0.076651
O94	O	0.296303	0.771989	0.076528
O95	O	0.385873	0.682426	-0.013049
O96	O	0.296295	0.835612	0.012921
Zn97	Zn	0.352636	0.759019	-0.000065
Zn98	Zn	0.256774	0.759021	-0.000058
O99	O	0.385864	0.746049	-0.076656
O100	O	0.913923	-0.317563	-0.541081
O101	O	0.786698	-0.164380	-0.477474
O102	O	0.786694	-0.253948	-0.477466
O103	O	0.913927	-0.227994	-0.541089
O104	O	0.786696	-0.253950	-0.550221
O105	O	0.786700	-0.164382	-0.550229
O106	O	0.913925	-0.317565	-0.613836
Zn107	Zn	0.850313	-0.240973	-0.593584
Zn108	Zn	0.850310	-0.240971	-0.497726
O109	O	0.913929	-0.227996	-0.613844
O110	O	0.296279	0.300082	-0.613844
O111	O	0.385853	0.236466	-0.550234
O112	O	0.296278	0.236469	-0.550228
O113	O	0.385855	0.300079	-0.613851
O114	O	0.223525	0.309222	-0.477473
O115	O	0.313100	0.309219	-0.477480
O116	O	0.223526	0.372836	-0.541090
Zn117	Zn	0.256762	0.352579	-0.497733
Zn118	Zn	0.352618	0.256723	-0.593591
O119	O	0.313102	0.372833	-0.541096
C120	C	0.082302	0.499858	0.338341
C121	C	0.028316	0.557559	0.365333
C122	C	0.108499	0.473291	0.364790
C123	C	0.161515	0.420645	0.259130
C124	C	0.192223	0.393651	0.201429
C125	C	0.187592	0.394198	0.285699
C126	C	0.161514	0.420646	0.338343
C127	C	0.192222	0.393653	0.365337
C128	C	0.108500	0.473290	0.285697
C129	C	0.217031	0.371846	0.387145
C130	C	-0.015298	0.604176	0.387140
C131	C	0.217034	0.371843	0.154812
C132	C	0.248155	0.344488	0.414504
C133	C	-0.070016	0.662659	0.414497
C134	C	0.248158	0.344484	0.096329
C135	C	0.447853	0.420618	0.338316
C136	C	0.417145	0.393622	0.365306
C137	C	0.421771	0.473263	0.364766
C138	C	0.527070	0.420623	0.259107
C139	C	0.581062	0.393633	0.201406
C140	C	0.500868	0.473268	0.285677
C141	C	0.447848	0.499833	0.338321
C142	C	0.417136	0.557534	0.365317
C143	C	0.500873	0.394173	0.285672
C144	C	0.392322	0.604151	0.387126
C145	C	0.392336	0.371812	0.387111
C146	C	0.624681	0.371828	0.154789
C147	C	0.361193	0.662634	0.414487
C148	C	0.361212	0.344450	0.414466
C149	C	0.679404	0.344472	0.096306
C150	C	0.161573	0.786134	0.338309
C151	C	0.192287	0.782413	0.365297
C152	C	0.108561	0.786497	0.364758
C153	C	0.161560	0.786151	0.259103
C154	C	0.192260	0.782450	0.201404
C155	C	0.108548	0.786515	0.285672
C156	C	0.082358	0.786132	0.338314
C157	C	0.028375	0.782410	0.365308
C158	C	0.187642	0.786516	0.285667
C159	C	-0.015237	0.779402	0.387116
C160	C	0.217101	0.779407	0.387101
C161	C	0.217063	0.779458	0.154788
C162	C	-0.069951	0.775629	0.414476
C163	C	0.248231	0.775635	0.414455
C164	C	0.248179	0.775705	0.096307
C165	C	1.128285	0.080478	-0.400712
C166	C	1.154362	0.107048	-0.427157
C167	C	1.049063	0.159687	-0.321497
C168	C	1.075260	0.186137	-0.348062
C169	C	1.128280	0.159693	-0.400706
C170	C	1.075265	0.107042	-0.348068
C171	C	1.134512	-0.005138	-0.400513
C172	C	1.163509	-0.059235	-0.425450
C173	C	1.217712	-0.086364	-0.477613
C174	C	1.249156	-0.145021	-0.504653
C175	C	1.242924	-0.059400	-0.504848
C176	C	1.213928	-0.005305	-0.479913
C177	C	1.159724	0.021824	-0.427745
C178	C	1.214102	0.159494	-0.480092
C179	C	1.243264	0.184431	-0.505195
C180	C	1.218227	0.236595	-0.478124
C181	C	1.249846	0.263636	-0.505338
C182	C	1.164024	0.263830	-0.425952
C183	C	1.134861	0.238895	-0.400852
C184	C	1.159903	0.186727	-0.427922
C185	C	0.969873	0.159475	-0.235888
C186	C	0.919832	0.184404	-0.181788
C187	C	0.894730	0.236568	-0.154653
C188	C	0.840470	0.263601	-0.095997
C189	C	0.919665	0.263807	-0.181609
C190	C	0.969706	0.238880	-0.235706
C191	C	0.994807	0.186714	-0.262843
O192	O	0.296239	0.835597	0.449762
O193	O	0.385823	0.682414	0.386141
O194	O	0.296253	0.771983	0.386139
O195	O	0.385809	0.746028	0.449765
O196	O	0.223495	0.771976	0.458889
O197	O	0.313065	0.682407	0.458892
O198	O	0.223481	0.835590	0.522513
Zn199	Zn	0.256721	0.758997	0.502253
Zn200	Zn	0.352583	0.759006	0.406401
O201	O	0.313051	0.746021	0.522515
C202	C	0.560330	0.727613	-0.400700
C203	C	0.534126	0.727252	-0.427143
C204	C	0.481126	0.727598	-0.321488
C205	C	0.455041	0.727237	-0.348051
C206	C	0.481111	0.727619	-0.400693
C207	C	0.534141	0.727231	-0.348058
C208	C	0.639522	0.734035	-0.400501
C209	C	0.689562	0.738095	-0.425437
C210	C	0.714650	0.740143	-0.477598
C211	C	0.768904	0.744548	-0.504637
C212	C	0.689708	0.738126	-0.504832
C213	C	0.639673	0.734063	-0.479898
C214	C	0.614580	0.732020	-0.427732
C215	C	0.474873	0.734069	-0.480075
C216	C	0.445874	0.738135	-0.505175
C217	C	0.391675	0.740168	-0.478105
C218	C	0.360228	0.744579	-0.505317
C219	C	0.366470	0.738130	-0.425935
C220	C	0.395470	0.734061	-0.400837
C221	C	0.449669	0.732033	-0.427907
C222	C	0.474919	0.734004	-0.235882
C223	C	0.445930	0.738056	-0.181784
C224	C	0.391731	0.740088	-0.154649
C225	C	0.360300	0.744477	-0.095995
C226	C	0.366512	0.738073	-0.181603
C227	C	0.395496	0.734024	-0.235699
C228	C	0.449700	0.731989	-0.262836
H229	H	0.379133	0.494620	-0.028193
H230	H	0.518694	0.117348	-0.502066
C231	C	0.530500	0.335739	0.256851
C232	C	0.501685	0.306518	0.286059
C233	C	0.531311	0.248087	0.257238
C234	C	0.589754	0.218876	0.199210
C235	C	0.618572	0.248097	0.169999
C236	C	0.588945	0.306528	0.198820
H237	H	0.458419	0.328142	0.329018
H238	H	0.509978	0.226456	0.278863
H239	H	0.611685	0.175621	0.177875
H240	H	0.661837	0.226473	0.127040
H241	H	0.610279	0.328159	0.177195
C242	C	-0.107620	0.154434	0.018712
C243	C	-0.066747	0.101299	-0.026882
C244	C	-0.094174	0.071339	-0.029114
C245	C	-0.162473	0.094515	0.014246
C246	C	-0.203349	0.147654	0.059843
C247	C	-0.175923	0.177613	0.062075
H248	H	-0.016185	0.084140	-0.058983
H249	H	-0.063914	0.032002	-0.062868
H250	H	-0.182776	0.072337	0.012594
H251	H	-0.253912	0.164813	0.091944
H252	H	-0.206182	0.216950	0.095829
C253	C	0.245221	0.335764	0.256884
C254	C	0.242619	0.291694	0.279995
C255	C	0.300247	0.233262	0.251181
C256	C	0.360477	0.218901	0.199257
C257	C	0.363082	0.262972	0.176143
C258	C	0.305454	0.321403	0.204957
H259	H	0.198031	0.302324	0.318435
H260	H	0.298318	0.200638	0.268292
H261	H	0.403137	0.175646	0.177927
H262	H	0.407670	0.252341	0.137703
H263	H	0.307383	0.354028	0.187846
C264	C	-0.107971	0.321186	0.018698
C265	C	-0.176317	0.366205	0.062052
C266	C	-0.203923	0.423590	0.059812
C267	C	-0.163183	0.435955	0.014220
C268	C	-0.094832	0.390935	-0.029137
C269	C	-0.067226	0.333550	-0.026898
H270	H	-0.206480	0.357053	0.095805
H271	H	-0.254521	0.456917	0.091908
H272	H	-0.183618	0.478434	0.012562
H273	H	-0.064670	0.400087	-0.062891
H274	H	-0.016628	0.300224	-0.058994
C275	C	0.241587	0.102083	0.027255
C276	C	0.307466	0.055801	-0.019450
C277	C	0.335006	-0.001584	-0.017214
C278	C	0.296667	-0.012688	0.031726
C279	C	0.230784	0.033596	0.078434
C280	C	0.203244	0.090981	0.076199
H281	H	0.335850	0.064020	-0.055682
H282	H	0.383777	-0.035846	-0.051791
H283	H	0.317054	-0.055168	0.033381
H284	H	0.202400	0.025377	0.114666
H285	H	0.154473	0.125243	0.110776
H286	H	0.230309	0.787104	0.264333
H287	H	1.090374	0.016949	-0.358036
C288	C	0.078917	0.787330	0.256866
C289	C	0.107720	0.787742	0.198837
C290	C	0.078088	0.788559	0.170034
C291	C	0.019652	0.788964	0.199260
C292	C	-0.009155	0.788551	0.257292
C293	C	0.020477	0.787734	0.286095
H294	H	0.150981	0.787443	0.177199
H295	H	0.099413	0.788865	0.127075
H296	H	-0.002284	0.789568	0.177938
H297	H	-0.052416	0.788850	0.278930
H298	H	-0.000848	0.787428	0.329054
H299	H	1.287066	-0.081498	-0.547325
C300	C	0.534174	0.102438	-0.265343
C301	C	0.594305	0.091245	-0.314738
C302	C	0.653920	0.033856	-0.344394
C303	C	0.653403	-0.012340	-0.324656
C304	C	0.593270	-0.001148	-0.275258
C305	C	0.533655	0.056241	-0.245602
H306	H	0.594689	0.125443	-0.329352
H307	H	0.698434	0.025572	-0.380962
H308	H	0.697533	-0.054822	-0.346609
H309	H	0.592885	-0.035346	-0.260644
H310	H	0.489141	0.064525	-0.209035
C311	C	-0.002901	0.268831	0.027227
C312	C	-0.002453	0.279574	0.076167
C313	C	0.024972	0.309538	0.078392
C314	C	0.051950	0.328757	0.031678
C315	C	0.051503	0.318014	-0.017265
C316	C	0.024078	0.288051	-0.019491
H317	H	-0.022425	0.265347	0.110750
H318	H	0.025303	0.317490	0.114623
H319	H	0.072252	0.350938	0.033325
H320	H	0.071475	0.332242	-0.051849
H321	H	0.023747	0.280098	-0.055722
C322	C	0.078968	0.787257	0.423179
C323	C	0.107804	0.787623	0.452385
C324	C	0.078222	0.788367	0.510799
C325	C	0.019804	0.788744	0.540007
C326	C	-0.009035	0.788378	0.510801
C327	C	0.020547	0.787634	0.452387
H328	H	0.151052	0.787344	0.430764
H329	H	0.099571	0.788638	0.532420
H330	H	-0.002095	0.789295	0.583249
H331	H	-0.052283	0.788657	0.532423
H332	H	-0.000802	0.787362	0.430767
H333	H	0.053297	0.085693	0.032402
C334	C	0.563752	0.726428	-0.319236
C335	C	0.569792	0.772302	-0.310917
C336	C	0.599394	0.771504	-0.282091
C337	C	0.622957	0.724832	-0.261583
C338	C	0.616918	0.678954	-0.269901
C339	C	0.587316	0.679752	-0.298728
H340	H	0.552349	0.806855	-0.326099
H341	H	0.603865	0.805466	-0.275933
H342	H	0.644871	0.724242	-0.240244
H343	H	0.634361	0.644402	-0.254720
H344	H	0.582845	0.645790	-0.304886
C345	C	0.078884	0.502102	0.256878
C346	C	0.107699	0.472878	0.198850
C347	C	0.078085	0.501687	0.170031
C348	C	0.019656	0.559720	0.199241
C349	C	-0.009162	0.588947	0.257273
C350	C	0.020452	0.560138	0.286091
H351	H	0.150954	0.429916	0.177224
H352	H	0.099419	0.480051	0.127072
H353	H	-0.002265	0.581046	0.177908
H354	H	-0.052417	0.631909	0.278899
H355	H	-0.000882	0.581774	0.329050
H356	H	0.234441	0.016935	0.026668
C357	C	0.472935	0.155154	-0.562203
C358	C	0.480440	0.102053	-0.574560
C359	C	0.507977	0.072274	-0.631943
C360	C	0.528010	0.095595	-0.676968
C361	C	0.520506	0.148699	-0.664612
C362	C	0.492968	0.178478	-0.607229
H363	H	0.465610	0.084787	-0.541229
H364	H	0.513532	0.032964	-0.641089
H365	H	0.548395	0.073551	-0.719446
H366	H	0.535335	0.165965	-0.697943
H367	H	0.487414	0.217788	-0.598082
H368	H	0.374945	0.261109	-0.358006
H369	H	0.287345	-0.081199	0.019302
C370	C	0.612231	0.731847	-0.509847
C371	C	0.585239	0.778569	-0.529051
C372	C	0.557795	0.776355	-0.558998
C373	C	0.557342	0.727418	-0.569742
C374	C	0.584335	0.680692	-0.550538
C375	C	0.611780	0.682907	-0.520590
H376	H	0.585573	0.814798	-0.521098
H377	H	0.537813	0.810945	-0.573214
H378	H	0.537026	0.725779	-0.591911
H379	H	0.584001	0.644463	-0.558491
H380	H	0.631762	0.648317	-0.506374
C381	C	0.530509	0.335758	-0.028411
C382	C	0.501691	0.306545	-0.028814
C383	C	0.531303	0.248115	-0.029614
C384	C	0.589732	0.218896	-0.030011
C385	C	0.618554	0.248109	-0.029608
C386	C	0.588942	0.306539	-0.028808
H387	H	0.458435	0.328174	-0.028521
H388	H	0.509967	0.226490	-0.029913
H389	H	0.611652	0.175642	-0.030603
H390	H	0.661810	0.226480	-0.029902
H391	H	0.610278	0.328164	-0.028509
C392	C	0.367795	0.268846	-0.265708
C393	C	0.347758	0.245527	-0.290692
C394	C	0.320214	0.275309	-0.320534
C395	C	0.312709	0.328410	-0.325391
C396	C	0.332747	0.351731	-0.300406
C397	C	0.360290	0.321950	-0.270564
H398	H	0.353313	0.206216	-0.287098
H399	H	0.305381	0.258044	-0.339030
H400	H	0.292320	0.350456	-0.347481
H401	H	0.327191	0.391042	-0.304000
H402	H	0.375123	0.339214	-0.252068
H403	H	0.086565	0.494620	0.408048
C404	C	1.045639	0.244572	-0.319249
C405	C	0.978458	0.288640	-0.298738
C406	C	0.948841	0.347073	-0.269929
C407	C	0.986405	0.361437	-0.261632
C408	C	1.053590	0.317367	-0.282145
C409	C	1.083207	0.258935	-0.310953
H410	H	0.950647	0.278008	-0.304879
H411	H	0.899105	0.379696	-0.254745
H412	H	0.964480	0.404692	-0.240307
H413	H	1.081401	0.327999	-0.276003
H414	H	1.132943	0.226312	-0.326138
H415	H	0.143613	-0.081526	0.019277
H416	H	0.374955	0.732389	-0.257642
C417	C	0.530533	0.502088	-0.028440
C418	C	0.501727	0.560116	-0.028850
C419	C	0.531367	0.588917	-0.029682
C420	C	0.589814	0.559689	-0.030104
C421	C	0.618623	0.501657	-0.029695
C422	C	0.588983	0.472856	-0.028862
H423	H	0.458458	0.581755	-0.028537
H424	H	0.510041	0.631876	-0.029985
H425	H	0.611756	0.581009	-0.030721
H426	H	0.661892	0.480018	-0.030007
H427	H	0.610310	0.429897	-0.028559
H428	H	1.197031	0.085716	-0.470409
C429	C	0.530484	0.502089	0.256867
C430	C	0.588917	0.472882	0.198835
C431	C	0.618529	0.501703	0.170027
C432	C	0.589709	0.559732	0.199253
C433	C	0.531272	0.588943	0.257289
C434	C	0.501660	0.560121	0.286096
H435	H	0.610255	0.429922	0.177197
H436	H	0.661788	0.480079	0.127065
H437	H	0.611629	0.581068	0.177928
H438	H	0.509934	0.631902	0.278926
H439	H	0.458401	0.581745	0.329058
H440	H	1.053343	0.085707	-0.326742
C441	C	0.364131	0.502080	0.423197
C442	C	0.335317	0.560110	0.452412
C443	C	0.277676	0.588929	0.510840
C444	C	0.248850	0.559717	0.540053
C445	C	0.277665	0.501683	0.510838
C446	C	0.335305	0.472865	0.452410
H447	H	0.356655	0.581738	0.430787
H448	H	0.256346	0.631889	0.532467
H449	H	0.206182	0.581050	0.583305
H450	H	0.256326	0.480056	0.532463
H451	H	0.356635	0.429904	0.430784
C452	C	0.302826	0.154441	0.018733
C453	C	0.360682	0.101295	-0.026848
C454	C	0.420296	0.071334	-0.029073
C455	C	0.422053	0.094519	0.014284
C456	C	0.364195	0.147667	0.059869
C457	C	0.304582	0.177628	0.062093
H458	H	0.359383	0.084130	-0.058947
H459	H	0.463126	0.031990	-0.062817
H460	H	0.466183	0.072340	0.012638
H461	H	0.365494	0.164832	0.091967
H462	H	0.261751	0.216972	0.095838
H463	H	0.899223	0.306285	-0.159511
C464	C	0.892401	0.154442	-0.152146
C465	C	0.933268	0.101291	-0.147439
C466	C	0.905835	0.071328	-0.117796
C467	C	0.837534	0.094515	-0.092860
C468	C	0.796663	0.147669	-0.097566
C469	C	0.824096	0.177632	-0.127209
H470	H	0.983832	0.084124	-0.165899
H471	H	0.936091	0.031981	-0.114312
H472	H	0.817226	0.072335	-0.070916
H473	H	0.746099	0.164836	-0.079106
H474	H	0.793840	0.216979	-0.130693
H475	H	0.053296	0.229374	0.032403
H476	H	0.990307	0.116999	-0.257981
C477	C	1.135780	-0.088896	-0.395496
C478	C	1.128228	-0.093625	-0.342357
C479	C	1.100499	-0.123288	-0.312406
C480	C	1.080323	-0.148222	-0.335594
C481	C	1.087875	-0.143493	-0.388736
C482	C	1.115604	-0.113830	-0.418687
H483	H	1.143163	-0.075166	-0.325189
H484	H	1.094908	-0.126788	-0.273066
H485	H	1.059796	-0.170180	-0.313422
H486	H	1.072939	-0.161952	-0.405903
H487	H	1.121194	-0.110330	-0.458026
H488	H	1.234457	0.016648	-0.502090
C489	C	1.241644	0.102111	-0.509873
C490	C	1.249151	0.089747	-0.562973
C491	C	1.276697	0.032362	-0.592753
C492	C	1.296736	-0.012660	-0.569431
C493	C	1.289229	-0.000297	-0.516327
C494	C	1.261683	0.057088	-0.486548
H495	H	1.234317	0.123076	-0.580240
H496	H	1.282254	0.023211	-0.632063
H497	H	1.317127	-0.055139	-0.591475
H498	H	1.304063	-0.033626	-0.499061
H499	H	1.256126	0.066239	-0.447237
H500	H	0.322043	0.306649	-0.403237
C501	C	0.075212	0.024331	0.027223
C502	C	0.017350	0.029048	0.072807
C503	C	-0.042265	0.058711	0.075032
C504	C	-0.044016	0.083656	0.031673
C505	C	0.013849	0.078940	-0.013915
C506	C	0.073463	0.049277	-0.016140
H507	H	0.018644	0.010582	0.104907
H508	H	-0.085100	0.062202	0.108779
H509	H	-0.088146	0.105614	0.033320
H510	H	0.012554	0.097406	-0.046015
H511	H	0.116299	0.045785	-0.049887
H512	H	0.196970	0.085695	0.032407
H513	H	0.322335	0.739785	-0.403897
C514	C	0.136449	0.321186	0.018702
C515	C	0.116409	0.366206	0.062061
C516	C	0.088868	0.423591	0.059824
C517	C	0.081366	0.435956	0.014227
C518	C	0.101406	0.390934	-0.029135
C519	C	0.128947	0.333549	-0.026898
H520	H	0.121962	0.357054	0.095818
H521	H	0.074034	0.456919	0.091924
H522	H	0.060979	0.478435	0.012571
H523	H	0.095853	0.400086	-0.062891
H524	H	0.143782	0.300221	-0.058998
C525	C	1.302886	0.154472	-0.562581
C526	C	1.302384	0.135246	-0.608783
C527	C	1.362006	0.105291	-0.666170
C528	C	1.422130	0.094561	-0.677354
C529	C	1.422633	0.113788	-0.631150
C530	C	1.363011	0.143743	-0.573763
H531	H	1.257875	0.143188	-0.600505
H532	H	1.361633	0.091058	-0.700373
H533	H	1.466265	0.072387	-0.719834
H534	H	1.467142	0.105845	-0.639427
H535	H	1.363385	0.157975	-0.539560
H536	H	1.143640	0.306309	-0.403913
H537	H	0.710144	0.739793	-0.547308
C538	C	0.397412	0.726430	-0.319240
C539	C	0.400010	0.679758	-0.298733
C540	C	0.342383	0.678951	-0.269926
C541	C	0.282157	0.724816	-0.261625
C542	C	0.279556	0.771492	-0.282132
C543	C	0.337183	0.772298	-0.310939
H544	H	0.444595	0.645802	-0.304877
H545	H	0.344308	0.644398	-0.254745
H546	H	0.239497	0.724219	-0.240300
H547	H	0.234971	0.805447	-0.275988
H548	H	0.335258	0.806851	-0.326120
H549	H	-0.009726	0.116986	0.026660
C550	C	0.563803	0.078210	-0.485573
C551	C	0.587364	0.101324	-0.529641
C552	C	0.617007	0.072503	-0.588079
C553	C	0.623088	0.020569	-0.602448
C554	C	0.599526	-0.002547	-0.558379
C555	C	0.569883	0.026273	-0.499942
H556	H	0.582863	0.139771	-0.519005
H557	H	0.634449	0.089616	-0.620701
H558	H	0.645031	-0.000765	-0.645707
H559	H	0.604027	-0.040995	-0.569015
H560	H	0.552441	0.009160	-0.467319
H561	H	1.090725	0.261073	-0.358375
C562	C	0.472930	0.155152	-0.151743
C563	C	0.480433	0.102054	-0.146879
C564	C	0.507970	0.072278	-0.117032
C565	C	0.528005	0.095601	-0.092048
C566	C	0.520503	0.148702	-0.096911
C567	C	0.492966	0.178478	-0.126758
H568	H	0.465601	0.084786	-0.165375
H569	H	0.513524	0.032969	-0.113433
H570	H	0.548390	0.073559	-0.069953
H571	H	0.535335	0.165970	-0.078416
H572	H	0.487413	0.217787	-0.130358
C573	C	0.473680	0.740263	-0.152141
C574	C	0.481252	0.785838	-0.147428
C575	C	0.509002	0.788046	-0.117783
C576	C	0.529179	0.744678	-0.092851
C577	C	0.521608	0.699099	-0.097563
C578	C	0.493858	0.696891	-0.127208
H579	H	0.466315	0.817945	-0.165885
H580	H	0.514606	0.821787	-0.114296
H581	H	0.549721	0.746312	-0.070906
H582	H	0.536545	0.666992	-0.079106
H583	H	0.488253	0.663151	-0.130696
H584	H	0.709857	0.739747	-0.403256
C585	C	0.473598	0.740379	-0.562559
C586	C	0.481140	0.785974	-0.574820
C587	C	0.508861	0.788217	-0.632204
C588	C	0.529039	0.744865	-0.677327
C589	C	0.521497	0.699266	-0.665067
C590	C	0.493777	0.697023	-0.607683
H591	H	0.466203	0.818069	-0.541416
H592	H	0.514443	0.821972	-0.641279
H593	H	0.549559	0.746525	-0.719806
H594	H	0.536435	0.667172	-0.698470
H595	H	0.488194	0.663268	-0.598607
C596	C	0.306558	0.321558	-0.152115
C597	C	0.248700	0.333836	-0.147405
C598	C	0.189089	0.391226	-0.117754
C599	C	0.187335	0.436339	-0.092812
C600	C	0.245194	0.424061	-0.097521
C601	C	0.304805	0.366671	-0.127172
H602	H	0.249997	0.300440	-0.165869
H603	H	0.146258	0.400315	-0.114268
H604	H	0.143207	0.478822	-0.070862
H605	H	0.243897	0.457457	-0.079057
H606	H	0.347637	0.357583	-0.130658
C607	C	0.306888	0.740310	-0.151756
C608	C	0.305232	0.696944	-0.126778
C609	C	0.245610	0.699178	-0.096930
C610	C	0.187645	0.744777	-0.092060
C611	C	0.189299	0.788146	-0.117038
C612	C	0.248920	0.785912	-0.146886
H613	H	0.348144	0.663186	-0.130383
H614	H	0.244387	0.667074	-0.078440
H615	H	0.143509	0.746431	-0.069964
H616	H	0.146387	0.821904	-0.113433
H617	H	0.250144	0.818016	-0.165376
H618	H	0.090694	0.261050	0.026652
H619	H	0.556085	0.085699	-0.326708
H620	H	0.412404	0.229372	-0.326711
H621	H	0.990008	0.261060	-0.257652
H622	H	0.619116	0.016939	-0.502121
H623	H	0.709885	-0.081193	-0.547661
H624	H	0.710193	-0.081519	-0.403905
H625	H	0.619416	0.016627	-0.358360
H626	H	0.556051	0.726661	-0.470398
H627	H	0.519056	0.732345	-0.257975
H628	H	0.619096	0.732368	-0.358026
H629	H	0.519007	0.732414	-0.502122
H630	H	0.374944	0.732406	-0.358359
