data_functionalizedCrystal
_audit_creation_method	'MofGen! by Chris Wilmer'
_symmetry_space_group_name_H-M	'P1'
_symmetry_Int_Tables_number	1
_symmetry_cell_setting	triclinic
loop_
_symmetry_equiv_pos_as_xyz
  x,y,z
_cell_length_a	10.654562
_cell_length_b	15.944493
_cell_length_c	9.730223
_cell_angle_alpha	90.004543
_cell_angle_beta	89.996961
_cell_angle_gamma	83.982574
loop_
_atom_site_label
_atom_site_type_symbol
_atom_site_fract_x
_atom_site_fract_y
_atom_site_fract_z
O1	O	1.666261	0.118027	-0.114360
O2	O	1.300636	0.129256	-0.114342
O3	O	1.493471	0.001421	-0.114363
O4	O	1.473426	0.245861	-0.114339
O5	O	1.493468	0.001425	0.114217
O6	O	1.300633	0.129259	0.114238
O7	O	1.666259	0.118030	0.114219
Zn8	Zn	1.483446	0.123645	0.150521
Zn9	Zn	1.483449	0.123641	-0.150643
O10	O	1.473424	0.245864	0.114241
C11	C	1.253848	0.128431	-0.000049
C12	C	1.114438	0.125957	-0.000043
C13	C	1.048921	0.124805	0.124545
C14	C	0.917930	0.122488	0.124522
C15	C	0.917983	0.122478	-0.124689
C16	C	1.048973	0.124789	-0.124664
C17	C	1.114387	0.125973	0.249166
C18	C	1.048870	0.124822	0.373764
C19	C	0.917878	0.122505	0.373741
C20	C	0.852404	0.121338	0.249119
C21	C	1.492650	-0.029877	-0.000079
C22	C	1.490194	-0.123140	-0.000096
C23	C	1.603701	-0.358239	-0.000076
C24	C	1.542492	-0.409165	-0.112774
C25	C	1.485643	-0.293887	-0.000079
C26	C	1.542462	-0.409138	0.112588
C27	C	1.481256	-0.458822	-0.000057
C28	C	1.424466	-0.343584	-0.112870
C29	C	1.424453	-0.343554	0.112593
C30	C	1.363158	-0.394447	-0.000132
C31	C	1.488174	-0.198872	-0.000093
C32	C	1.478715	-0.553834	-0.000052
C33	C	1.713047	0.118855	-0.000076
C34	C	1.852456	0.121328	-0.000091
C35	C	1.474244	0.277162	-0.000046
C36	C	1.476700	0.370425	-0.000038
N37	N	1.483453	0.123647	0.356057
N38	N	1.483451	0.123632	-0.356179
C39	C	1.568862	0.067062	0.427974
C40	C	1.568859	0.067051	0.571857
C41	C	1.398033	0.180220	0.571894
C42	C	1.398032	0.180226	0.428014
C43	C	1.654283	0.010483	0.356018
C44	C	1.739700	-0.046106	0.427934
C45	C	1.739697	-0.046117	0.571817
C46	C	1.654277	0.010463	0.643783
H47	H	0.745742	0.119449	0.249111
O48	O	0.854072	0.121488	0.494678
C49	C	0.691966	0.191541	0.639322
C50	C	0.764106	0.192783	0.502295
H51	H	0.619232	0.249186	0.645537
H52	H	0.642047	0.131814	0.645554
H53	H	0.761290	0.192730	0.728369
H54	H	0.694867	0.191626	0.413170
H55	H	0.814046	0.252506	0.496182
H56	H	0.864662	0.121530	-0.226149
H57	H	1.809240	-0.092176	0.369332
H58	H	1.374638	-0.314882	0.207881
H59	H	1.328489	0.226286	0.630498
O60	O	1.822782	-0.101118	0.641466
C61	C	1.992170	-0.213397	0.626235
C62	C	1.898156	-0.151141	0.547192
H63	H	2.053116	-0.253869	0.550049
H64	H	2.054974	-0.176783	0.693568
H65	H	1.937947	-0.255669	0.693623
H66	H	1.952276	-0.108854	0.479729
H67	H	1.835353	-0.187807	0.479946
H68	H	1.592344	-0.437777	0.207859
O69	O	1.241772	-0.413655	0.000050
C70	C	1.082459	-0.482315	0.118898
C71	C	1.219943	-0.460600	0.118888
H72	H	1.064774	-0.520288	0.214953
H73	H	1.015559	-0.421632	0.118034
H74	H	1.065285	-0.521150	0.023643
H75	H	1.237238	-0.421788	0.214127
H76	H	1.286771	-0.521315	0.119680
H77	H	1.654273	0.010444	0.760943
H78	H	1.654296	0.010488	0.238861
H79	H	1.705393	-0.342019	-0.000195
H80	H	1.328482	0.226302	0.369459
H81	H	1.592351	-0.437822	-0.208058
H82	H	1.374638	-0.315056	-0.208249
O83	O	1.112704	0.125765	-0.245654
C84	C	1.274906	0.055756	-0.390225
C85	C	1.202811	0.054542	-0.253167
H86	H	1.347791	-0.001812	-0.396332
H87	H	1.205679	0.054479	-0.479350
H88	H	1.324680	0.115545	-0.396420
H89	H	1.153033	-0.005237	-0.246838
H90	H	1.272097	0.055864	-0.164108
H91	H	1.221046	0.127863	0.249199
H92	H	1.102189	0.125765	0.475226
