data_functionalizedCrystal
_audit_creation_method	'MofGen! by Chris Wilmer'
_symmetry_space_group_name_H-M	'P1'
_symmetry_Int_Tables_number	1
_symmetry_cell_setting	triclinic
loop_
_symmetry_equiv_pos_as_xyz
  x,y,z
_cell_length_a	27.440279
_cell_length_b	14.560432
_cell_length_c	14.560432
_cell_angle_alpha	90.001726
_cell_angle_beta	60.004849
_cell_angle_gamma	60.013113
loop_
_atom_site_label
_atom_site_type_symbol
_atom_site_fract_x
_atom_site_fract_y
_atom_site_fract_z
Zr1	Zr	0.533273	0.885103	-0.120284
O2	O	0.634917	0.738515	-0.266895
O3	O	0.431631	0.929996	-0.075369
O4	O	0.533275	0.930055	-0.266932
O5	O	0.533272	0.738460	0.075810
O6	O	0.533273	1.081196	-0.266928
O7	O	0.533274	0.738456	-0.075332
O8	O	0.351452	1.081089	0.075744
O9	O	0.715093	0.738566	-0.266862
O10	O	0.473436	1.061990	-0.056175
O11	O	0.473436	0.949199	0.056617
O12	O	0.593107	0.949269	-0.168924
O13	O	0.593107	0.836477	-0.056131
Zr14	Zr	0.533268	1.126162	0.120776
Zr15	Zr	0.533271	1.126155	-0.120278
Zr16	Zr	0.533270	0.885109	0.120769
Zr17	Zr	0.661144	0.885184	-0.120231
Zr18	Zr	0.405396	1.126080	0.120723
O19	O	0.634909	1.081269	0.075861
O20	O	0.634914	1.081260	-0.266886
O21	O	0.634912	0.738524	0.075852
O22	O	0.431624	1.272750	0.267387
O23	O	0.431628	1.272741	-0.075360
O24	O	0.431627	0.930004	0.267378
O25	O	0.533269	1.272805	-0.075318
O26	O	0.533266	1.081210	0.267424
O27	O	0.533267	0.930069	0.267420
O28	O	0.533267	1.272809	0.075824
O29	O	0.715091	0.930171	-0.266857
O30	O	0.351450	1.081094	0.267349
O31	O	0.351448	1.272699	0.267354
O32	O	0.351450	1.272694	0.075749
O33	O	0.715090	0.738571	-0.075257
O34	O	0.715088	0.930175	-0.075252
O35	O	0.473433	1.061996	0.169416
O36	O	0.473434	1.174788	0.056623
O37	O	0.593105	1.062066	-0.056126
O38	O	0.593104	0.949274	0.056667
C39	C	0.373323	1.005531	0.000180
C40	C	0.319038	1.005496	0.000158
C41	C	0.084279	0.946742	0.059129
C42	C	0.135310	0.946720	0.059114
O43	O	0.161685	0.896670	0.109209
N44	N	0.160835	1.005580	0.000224
C45	C	0.135322	1.064476	-0.058647
O46	O	0.161719	1.114540	-0.108738
C47	C	0.084290	1.064504	-0.058625
C48	C	0.058772	1.005630	0.000261
C49	C	0.058761	0.887874	0.118011
C50	C	0.007735	0.887895	0.118024
C51	C	-0.017772	0.946783	0.059155
C52	C	0.007746	1.005651	0.000274
C53	C	0.058775	1.123406	-0.117488
C54	C	0.007738	1.123429	-0.117460
C55	C	-0.017780	1.064555	-0.058575
C56	C	-0.068787	1.064560	-0.058582
N57	N	-0.094312	1.005699	0.000309
C58	C	-0.068805	0.946811	0.059177
C59	C	0.242494	1.064414	-0.058687
C60	C	0.293529	1.064381	-0.058716
C61	C	0.293512	0.946626	0.059047
C62	C	0.242479	0.946654	0.059069
C63	C	0.216968	1.005554	0.000204
C64	C	-0.175962	0.946858	0.059199
C65	C	-0.226990	0.946880	0.059203
C66	C	-0.226971	1.064639	-0.058555
C67	C	-0.175945	1.064613	-0.058564
C68	C	-0.150443	1.005720	0.000321
O69	O	-0.095197	1.114588	-0.108647
O70	O	-0.095214	0.896767	0.109273
C71	C	0.533273	0.704113	0.000238
C72	C	0.533274	0.601780	0.000235
C73	C	0.533284	0.601751	-0.166309
C74	C	0.533292	0.553660	-0.249581
C75	C	0.533292	0.457510	-0.249578
C76	C	0.533282	0.409452	-0.166291
C77	C	0.533274	0.457543	-0.083019
C78	C	0.533277	0.553693	-0.083034
C79	C	0.533259	0.457576	0.083528
C80	C	0.533264	0.553721	0.083522
C81	C	0.533249	0.409518	0.166815
C82	C	0.533246	0.457605	0.250084
C83	C	0.533247	0.553760	0.250076
C84	C	0.533256	0.601813	0.166794
C85	C	0.693218	1.005734	0.000312
C86	C	0.747502	1.005768	0.000334
C87	C	0.533274	1.005625	-0.301275
C88	C	0.533276	1.005622	-0.403609
C89	C	0.533268	1.307152	0.000254
C90	C	0.533267	1.409485	0.000256
C91	C	0.658214	0.887928	-0.521337
C92	C	0.720681	0.829080	-0.628274
C93	C	0.720678	0.829084	-0.724421
C94	C	0.658201	0.887944	-0.713627
C95	C	0.595734	0.946792	-0.606690
C96	C	0.595744	0.946779	-0.510547
C97	C	0.470798	1.064491	-0.488963
C98	C	0.470799	1.064482	-0.392814
C99	C	0.408321	1.123351	-0.478169
C100	C	0.345853	1.182194	-0.371230
C101	C	0.345859	1.182187	-0.275080
C102	C	0.408333	1.123330	-0.285877
C103	C	0.533266	1.005640	0.301767
C104	C	0.533265	1.005643	0.404100
C105	C	0.373320	1.307050	0.000188
C106	C	0.319035	1.409349	0.000168
C107	C	0.373319	1.005539	0.301701
C108	C	0.319033	1.005507	0.404012
C109	C	0.373316	1.307058	0.301709
C110	C	0.319029	1.409359	0.404022
C111	C	0.693224	0.704207	-0.301217
C112	C	0.747511	0.601905	-0.403531
C113	C	0.693220	0.704214	0.000304
C114	C	0.747506	0.601916	0.000324
C115	C	0.693222	1.005726	-0.301209
C116	C	0.747508	1.005758	-0.403520
C117	C	0.293543	1.398510	-0.058731
C118	C	0.242543	1.494621	-0.058772
C119	C	0.217032	1.601570	0.000093
C120	C	0.242529	1.612407	0.058994
C121	C	0.293531	1.516297	0.059028
C122	C	0.293538	1.064371	0.510948
C123	C	0.242538	1.064337	0.607089
C124	C	0.217029	1.005444	0.596292
C125	C	0.242529	0.946573	0.489345
C126	C	0.293532	0.946601	0.393206
C127	C	0.293536	1.516287	0.393194
C128	C	0.242534	1.612419	0.489319
C129	C	0.217024	1.601621	0.596272
C130	C	0.242522	1.494682	0.607099
C131	C	0.293526	1.398552	0.510974
C132	C	0.773011	0.494977	-0.392702
C133	C	0.824028	0.398845	-0.488827
C134	C	0.849541	0.409644	-0.595780
C135	C	0.824039	0.516583	-0.606607
C136	C	0.773027	0.612713	-0.510483
C137	C	0.773003	0.612754	0.059213
C138	C	0.824017	0.516643	0.059227
C139	C	0.849530	0.409695	0.000359
C140	C	0.824030	0.398858	-0.058537
C141	C	0.773021	0.494968	-0.058558
C142	C	0.773000	1.064662	-0.392687
C143	C	0.824001	1.064714	-0.488810
C144	C	0.849512	1.005855	-0.595765
C145	C	0.824015	0.946949	-0.606596
C146	C	0.773011	0.946904	-0.510474
H147	H	-0.155203	0.898899	0.107147
H148	H	0.891065	0.331445	0.000385
H149	H	0.221753	0.898624	0.480570
H150	H	0.844783	0.311780	-0.479990
Cl151	Cl	0.210489	1.138357	0.741523
Cl152	Cl	0.325593	1.138419	0.524551
Cl153	Cl	0.325572	0.872600	0.258776
H154	H	-0.247745	1.112582	-0.106489
Cl155	Cl	0.658200	0.887961	-0.834500
H156	H	0.891079	0.331360	-0.674042
H157	H	0.891042	1.005900	-0.674024
Cl158	Cl	-0.259066	0.872860	0.133234
H159	H	0.175502	1.679820	0.000057
Cl160	Cl	0.152903	1.722482	0.717105
H161	H	0.221744	1.485906	0.694193
H162	H	0.844819	0.525362	-0.693700
Cl163	Cl	0.152909	1.005422	0.717166
H164	H	0.314299	1.525101	0.306116
H165	H	0.221751	1.699497	0.106919
Cl166	Cl	-0.024342	0.813888	0.192065
Cl167	Cl	0.210487	1.746843	0.475682
H168	H	0.752265	0.699776	-0.519313
H169	H	0.314280	1.525137	0.106997
Cl170	Cl	0.325565	1.264132	0.524608
Cl171	Cl	0.090842	1.197423	-0.191520
H172	H	0.533245	0.331232	0.166818
H173	H	0.752241	0.486164	-0.305624
H174	H	0.752234	0.699829	0.107158
Cl175	Cl	0.533297	0.397056	-0.354259
H176	H	0.533293	0.680033	-0.166329
H177	H	0.844770	0.525489	0.107192
Cl178	Cl	0.856108	0.264399	-0.132533
Cl179	Cl	-0.024333	1.197487	-0.191460
Cl180	Cl	0.740969	0.481322	-0.132589
H181	H	0.752237	1.112592	-0.305608
Cl182	Cl	0.408318	1.123359	-0.599040
H183	H	0.844755	1.112680	-0.479969
H184	H	0.752261	0.898933	-0.519310
Cl185	Cl	0.090817	0.813834	0.192030
Cl186	Cl	0.210403	0.872641	0.133102
H187	H	0.844794	0.899027	-0.693691
H188	H	0.221790	1.485776	-0.106736
Cl189	Cl	0.325612	1.138377	-0.132766
Cl190	Cl	0.325587	0.872595	0.133056
H191	H	0.221729	1.112373	-0.106632
H192	H	-0.155161	1.112540	-0.106527
Cl193	Cl	0.533301	0.614081	-0.354277
H194	H	0.533274	0.331170	-0.166285
Cl195	Cl	0.533228	0.397192	0.354781
H196	H	0.533261	0.680099	0.166777
Cl197	Cl	0.658222	0.887900	-0.400470
Cl198	Cl	0.533232	0.614214	0.354773
H199	H	0.771544	0.781168	-0.811494
Cl200	Cl	0.799218	0.755093	-0.641836
Cl201	Cl	0.267320	1.256186	-0.357673
H202	H	0.294990	1.230112	-0.188010
H203	H	0.314313	1.311436	-0.106680
Cl204	Cl	0.408345	1.123311	-0.165014
