data_functionalizedCrystal
_audit_creation_method	'MofGen! by Chris Wilmer'
_symmetry_space_group_name_H-M	'P1'
_symmetry_Int_Tables_number	1
_symmetry_cell_setting	triclinic
loop_
_symmetry_equiv_pos_as_xyz
  x,y,z
_cell_length_a	21.295418
_cell_length_b	18.050589
_cell_length_c	18.050583
_cell_angle_alpha	89.971909
_cell_angle_beta	90.037417
_cell_angle_gamma	89.955964
loop_
_atom_site_label
_atom_site_type_symbol
_atom_site_fract_x
_atom_site_fract_y
_atom_site_fract_z
Zn1	Zn	0.962327	0.295321	0.420315
Zn2	Zn	0.962245	0.419525	0.296135
Zn3	Zn	0.857061	0.295388	0.296098
Zn4	Zn	0.857023	0.419508	0.420242
O5	O	0.909664	0.357435	0.358197
O6	O	1.050405	0.311776	0.403889
O7	O	0.948274	0.403094	0.192205
O8	O	0.871075	0.191454	0.312591
O9	O	1.050345	0.403029	0.312654
O10	O	0.948413	0.191405	0.403853
O11	O	0.870996	0.311891	0.192178
O12	O	0.768967	0.311873	0.312520
O13	O	0.871010	0.402998	0.524176
O14	O	0.768939	0.403064	0.403727
O15	O	0.948376	0.311759	0.524230
O16	O	0.948237	0.523448	0.312582
O17	O	0.870931	0.523435	0.403763
C18	C	0.909588	0.550388	0.358185
C19	C	0.909613	0.632933	0.358205
C20	C	0.746112	0.357474	0.358112
C21	C	0.676144	0.357509	0.358093
C22	C	0.909698	0.357369	0.551903
C23	C	0.909713	0.357341	0.634449
C24	C	0.643280	0.405055	0.405514
C25	C	0.577537	0.405036	0.405547
C26	C	0.544662	0.357480	0.358146
C27	C	0.577534	0.309925	0.310722
C28	C	0.643276	0.309940	0.310695
N29	N	0.441392	0.351684	0.293191
N30	N	0.378940	0.351675	0.293218
C31	C	0.346587	0.357433	0.358225
N32	N	0.379045	0.363215	0.423205
N33	N	0.441502	0.363228	0.423177
C34	C	0.473376	0.357459	0.358170
C35	C	0.242437	0.404961	0.405686
C36	C	0.176693	0.404938	0.405721
C37	C	0.176692	0.309831	0.310889
C38	C	0.242434	0.309850	0.310861
C39	C	0.275303	0.357419	0.358259
C40	C	1.073854	0.357397	0.358284
C41	C	1.143822	0.357380	0.358320
C42	C	0.909757	0.163730	0.358226
C43	C	0.909797	0.081184	0.358238
C44	C	0.867616	0.832404	0.407771
C45	C	0.852272	0.881854	0.339998
C46	C	0.909675	0.784064	0.358214
C47	C	0.925049	0.881695	0.425996
C48	C	0.909733	0.930049	0.358230
C49	C	0.894301	0.832427	0.290405
C50	C	0.967105	0.832263	0.376448
C51	C	0.951784	0.881691	0.308628
C52	C	0.909640	0.699965	0.358206
C53	C	0.909769	1.014145	0.358230
C54	C	0.909666	0.357448	0.165245
C55	C	0.909774	0.357267	0.082700
C56	C	0.951824	0.307674	0.883304
C57	C	0.967184	0.375433	0.833901
C58	C	0.909753	0.357293	0.931570
C59	C	0.894402	0.289563	0.833891
C60	C	0.909735	0.357313	0.785584
C61	C	0.925144	0.425087	0.883254
C62	C	0.852335	0.339171	0.883248
C63	C	0.867674	0.406977	0.833867
C64	C	0.909766	0.357281	1.015668
C65	C	0.909723	0.357333	0.701488
H66	H	0.550773	0.443753	0.444166
O67	O	0.877036	0.803888	0.214459
H68	H	0.829542	0.824243	0.199279
H69	H	0.938030	0.903336	0.483311
H70	H	0.803732	0.903653	0.324590
H71	H	0.881427	0.232275	0.812205
O72	O	0.820437	0.803728	0.463207
H73	H	0.821146	0.742243	0.463080
O74	O	0.788042	0.318828	0.911979
H75	H	0.769236	0.365159	0.945763
H76	H	0.269193	0.271137	0.272242
H77	H	0.149925	0.271106	0.272298
O78	O	0.998931	0.910184	0.253063
H79	H	1.046412	0.889433	0.267755
H80	H	1.015634	0.810466	0.391889
H81	H	0.987436	0.265757	0.905009
H82	H	0.550763	0.271204	0.272129
H83	H	0.269200	0.443691	0.444284
H84	H	0.670037	0.443788	0.444110
H85	H	0.670034	0.271220	0.272079
H86	H	0.149936	0.443654	0.444341
O87	O	1.031489	0.395762	0.805182
H88	H	1.049899	0.349867	0.770512
O89	O	0.942413	0.500994	0.911845
H90	H	0.942310	0.500382	0.973333
O91	O	0.820544	0.462629	0.805273
H92	H	0.833430	0.518781	0.825145
