data_functionalizedCrystal
_audit_creation_method	'MofGen! by Chris Wilmer'
_symmetry_space_group_name_H-M	'P1'
_symmetry_Int_Tables_number	1
_symmetry_cell_setting	triclinic
loop_
_symmetry_equiv_pos_as_xyz
  x,y,z
_cell_length_a	16.109318
_cell_length_b	14.586319
_cell_length_c	16.109304
_cell_angle_alpha	89.997377
_cell_angle_beta	83.465600
_cell_angle_gamma	90.002271
loop_
_atom_site_label
_atom_site_type_symbol
_atom_site_fract_x
_atom_site_fract_y
_atom_site_fract_z
O1	O	1.103126	0.076158	0.106930
O2	O	0.861066	0.076176	0.120214
O3	O	0.988745	0.076167	-0.007458
O4	O	0.975448	0.076167	0.234602
O5	O	0.988729	-0.076314	-0.007451
O6	O	0.861051	-0.076305	0.120222
O7	O	1.103111	-0.076323	0.106937
Cu8	Cu	0.982079	-0.090236	0.113580
Cu9	Cu	0.982098	0.090090	0.113571
O10	O	0.975432	-0.076314	0.234610
C11	C	0.830084	-0.000062	0.119677
C12	C	0.737789	-0.000055	0.118056
N13	N	0.982072	-0.217068	0.113586
C14	C	0.438724	0.083046	0.112817
C15	C	0.525445	0.083052	0.114335
C16	C	0.525447	-0.083191	0.114332
C17	C	0.438728	-0.083196	0.112808
C18	C	0.395368	-0.000074	0.112055
C19	C	0.568809	-0.000064	0.115096
C20	C	0.662836	-0.000059	0.116741
C21	C	0.301336	-0.000079	0.110408
C22	C	1.032495	-0.452078	0.164018
C23	C	1.032504	-0.548060	0.164012
C24	C	0.931686	-0.548061	0.063122
C25	C	0.931683	-0.452082	0.063123
C26	C	0.982086	-0.404093	0.113576
C27	C	0.982098	-0.596054	0.113569
C28	C	0.982107	-0.700121	0.113562
C29	C	0.982078	-0.300019	0.113582
C30	C	1.134093	-0.000082	0.107474
C31	C	1.226388	-0.000084	0.109095
C32	C	0.988198	-0.000071	-0.038430
C33	C	0.986582	-0.000065	-0.130725
N34	N	0.982111	0.216922	0.113559
C35	C	0.982857	0.083049	-0.343067
C36	C	0.981331	0.083049	-0.429787
C37	C	0.981318	-0.083194	-0.429776
C38	C	0.982838	-0.083193	-0.343056
C39	C	0.983612	-0.000068	-0.299704
C40	C	0.980565	-0.000070	-0.473144
C41	C	0.978911	-0.000072	-0.567170
C42	C	0.985265	-0.000066	-0.205672
C43	C	0.975979	-0.000073	0.265581
C44	C	0.977595	-0.000074	0.357876
H45	H	0.403423	0.150729	0.112203
H46	H	0.980714	0.150731	-0.465088
H47	H	0.560761	-0.150866	0.114946
H48	H	0.983484	0.150735	-0.307772
Br49	Br	0.863265	-0.386952	-0.005338
Br50	Br	0.980265	-0.196001	-0.488615
H51	H	1.073537	-0.413009	0.205100
Br52	Br	0.584283	0.195863	0.115362
Br53	Br	0.379883	-0.196011	0.111769
Br54	Br	0.983849	-0.196003	-0.284200
H55	H	1.073554	-0.587125	0.205085
H56	H	0.890649	-0.587146	0.022046
