data_functionalizedCrystal
_audit_creation_method	'MofGen! by Chris Wilmer'
_symmetry_space_group_name_H-M	'P1'
_symmetry_Int_Tables_number	1
_symmetry_cell_setting	triclinic
loop_
_symmetry_equiv_pos_as_xyz
  x,y,z
_cell_length_a	16.625548
_cell_length_b	21.295417
_cell_length_c	16.625539
_cell_angle_alpha	90.033373
_cell_angle_beta	90.020568
_cell_angle_gamma	90.031575
loop_
_atom_site_label
_atom_site_type_symbol
_atom_site_fract_x
_atom_site_fract_y
_atom_site_fract_z
Zn1	Zn	1.232635	-0.250590	0.455881
Zn2	Zn	1.482635	-0.000590	0.705881
Zn3	Zn	1.732635	0.249410	0.955881
Zn4	Zn	1.982635	0.499410	1.205881
Zn5	Zn	1.232520	-0.355864	0.321036
Zn6	Zn	1.482520	-0.105864	0.571036
Zn7	Zn	1.732520	0.144136	0.821036
Zn8	Zn	1.982520	0.394136	1.071036
Zn9	Zn	1.097797	-0.250614	0.321061
Zn10	Zn	1.347797	-0.000614	0.571061
Zn11	Zn	1.597797	0.249386	0.821061
Zn12	Zn	1.847797	0.499386	1.071061
Zn13	Zn	1.097749	-0.355827	0.455826
Zn14	Zn	1.347749	-0.105827	0.705826
Zn15	Zn	1.597749	0.144173	0.955826
Zn16	Zn	1.847749	0.394173	1.205826
O17	O	1.165175	-0.303224	0.388451
O18	O	1.415175	-0.053224	0.638451
O19	O	1.665175	0.196776	0.888451
O20	O	1.915175	0.446776	1.138451
O21	O	1.345452	-0.264560	0.438006
O22	O	1.595452	-0.014560	0.688006
O23	O	1.845452	0.235440	0.938006
O24	O	2.095452	0.485440	1.188006
O25	O	1.214620	-0.341927	0.208207
O26	O	1.464620	-0.091927	0.458207
O27	O	1.714620	0.158073	0.708207
O28	O	1.964620	0.408073	0.958207
O29	O	1.115753	-0.162522	0.338979
O30	O	1.365753	0.087478	0.588979
O31	O	1.615753	0.337478	0.838979
O32	O	1.865753	0.587478	1.088979
O33	O	1.345367	-0.341904	0.338936
O34	O	1.595367	-0.091904	0.588936
O35	O	1.845367	0.158096	0.838936
O36	O	2.095367	0.408096	1.088936
O37	O	1.214818	-0.162504	0.438030
O38	O	1.464818	0.087496	0.688030
O39	O	1.714818	0.337496	0.938030
O40	O	1.964818	0.587496	1.188030
O41	O	1.115640	-0.264601	0.208226
O42	O	1.365640	-0.014601	0.458226
O43	O	1.615640	0.235399	0.708226
O44	O	1.865640	0.485399	0.958226
O45	O	0.984958	-0.264566	0.338926
O46	O	1.234958	-0.014566	0.588926
O47	O	1.484958	0.235434	0.838926
O48	O	1.734958	0.485434	1.088926
O49	O	1.115670	-0.341842	0.568666
O50	O	1.365670	-0.091842	0.818666
O51	O	1.615670	0.158158	1.068666
O52	O	1.865670	0.408158	1.318666
O53	O	0.984923	-0.341866	0.437937
O54	O	1.234923	-0.091866	0.687937
O55	O	1.484923	0.158134	0.937937
O56	O	1.734923	0.408134	1.187937
O57	O	1.214771	-0.264525	0.568706
O58	O	1.464771	-0.014525	0.818706
O59	O	1.714771	0.235475	1.068706
O60	O	1.964771	0.485475	1.318706
O61	O	1.214573	-0.443948	0.338883
O62	O	1.464573	-0.193948	0.588883
O63	O	1.714573	0.056052	0.838883
O64	O	1.964573	0.306052	1.088883
O65	O	1.115558	-0.443922	0.437912
O66	O	1.365558	-0.193922	0.687912
O67	O	1.615558	0.056078	0.937912
O68	O	1.865558	0.306078	1.187912
C69	C	0.955684	-0.303215	0.388429
C70	C	1.205684	-0.053215	0.638429
C71	C	1.455684	0.196785	0.888429
C72	C	1.705684	0.446785	1.138429
C73	C	0.866063	-0.303226	0.388438
C74	C	1.116063	-0.053226	0.638438
C75	C	1.366063	0.196774	0.888438
C76	C	1.616063	0.446774	1.138438
C77	C	0.537888	-0.303230	0.388473
C78	C	0.787888	-0.053230	0.638473
C79	C	1.037888	0.196770	0.888473
C80	C	1.287888	0.446770	1.138473
C81	C	0.629196	-0.303227	0.388460
C82	C	0.879196	-0.053227	0.638460
C83	C	1.129196	0.196773	0.888460
C84	C	1.379196	0.446773	1.138460
C85	C	0.701973	-0.303229	0.388455
C86	C	0.951973	-0.053229	0.638455
C87	C	1.201973	0.196771	0.888455
C88	C	1.451973	0.446771	1.138455
C89	C	0.793287	-0.303225	0.388444
C90	C	1.043287	-0.053225	0.638444
C91	C	1.293287	0.196775	0.888444
C92	C	1.543287	0.446775	1.138444
C93	C	1.165070	-0.466775	0.388407
C94	C	1.415070	-0.216775	0.638407
C95	C	1.665070	0.033225	0.888407
C96	C	1.915070	0.283225	1.138407
C97	C	1.165098	-0.536744	0.388414
C98	C	1.415098	-0.286744	0.638414
C99	C	1.665098	-0.036744	0.888414
C100	C	1.915098	0.213256	1.138414
C101	C	1.216701	-0.569603	0.336903
C102	C	1.466701	-0.319603	0.586903
C103	C	1.716701	-0.069603	0.836903
C104	C	1.966701	0.180397	1.086903
C105	C	1.216739	-0.635346	0.336921
C106	C	1.466739	-0.385346	0.586921
C107	C	1.716739	-0.135346	0.836921
C108	C	1.966739	0.114654	1.086921
C109	C	1.165159	-0.668226	0.388442
C110	C	1.415159	-0.418226	0.638442
C111	C	1.665159	-0.168226	0.888442
C112	C	1.915159	0.081774	1.138442
C113	C	1.113552	-0.635359	0.439964
C114	C	1.363552	-0.385359	0.689964
C115	C	1.613552	-0.135359	0.939964
C116	C	1.863552	0.114641	1.189964
C117	C	1.113522	-0.569617	0.439950
C118	C	1.363522	-0.319617	0.689950
C119	C	1.613522	-0.069617	0.939950
C120	C	1.863522	0.180383	1.189950
N121	N	1.094624	-0.771493	0.394581
N122	N	1.344624	-0.521493	0.644581
N123	N	1.594624	-0.271493	0.894581
N124	N	1.844624	-0.021493	1.144581
N125	N	1.094656	-0.833944	0.394590
N126	N	1.344656	-0.583944	0.644590
N127	N	1.594656	-0.333944	0.894590
N128	N	1.844656	-0.083944	1.144590
C129	C	1.165250	-0.866301	0.388488
C130	C	1.415250	-0.616301	0.638488
C131	C	1.665250	-0.366301	0.888488
C132	C	1.915250	-0.116301	1.138488
N133	N	1.235813	-0.833847	0.382362
N134	N	1.485813	-0.583847	0.632362
N135	N	1.735813	-0.333847	0.882362
N136	N	1.985813	-0.083847	1.132362
N137	N	1.235780	-0.771389	0.382350
N138	N	1.485780	-0.521389	0.632350
N139	N	1.735780	-0.271389	0.882350
N140	N	1.985780	-0.021389	1.132350
C141	C	1.165187	-0.739511	0.388463
C142	C	1.415187	-0.489511	0.638463
C143	C	1.665187	-0.239511	0.888463
C144	C	1.915187	0.010489	1.138463
C145	C	1.216898	-0.970446	0.336994
C146	C	1.466898	-0.720446	0.586994
C147	C	1.716898	-0.470446	0.836994
C148	C	1.966898	-0.220446	1.086994
C149	C	1.216937	-1.036189	0.337017
C150	C	1.466937	-0.786189	0.587017
C151	C	1.716937	-0.536189	0.837017
C152	C	1.966937	-0.286189	1.087017
C153	C	1.113743	-1.036201	0.440056
C154	C	1.363743	-0.786201	0.690056
C155	C	1.613743	-0.536201	0.940056
C156	C	1.863743	-0.286201	1.190056
C157	C	1.113711	-0.970459	0.440037
C158	C	1.363711	-0.720459	0.690037
C159	C	1.613711	-0.470459	0.940037
C160	C	1.863711	-0.220459	1.190037
C161	C	1.165288	-0.937585	0.388501
C162	C	1.415288	-0.687585	0.638501
C163	C	1.665288	-0.437585	0.888501
C164	C	1.915288	-0.187585	1.138501
C165	C	1.375484	-0.303233	0.388474
C166	C	1.625484	-0.053233	0.638474
C167	C	1.875484	0.196767	0.888474
C168	C	2.125484	0.446767	1.138474
C169	C	1.465105	-0.303237	0.388484
C170	C	1.715105	-0.053237	0.638484
C171	C	1.965105	0.196763	0.888484
C172	C	2.215105	0.446763	1.138484
C173	C	1.165228	-0.303177	0.598760
C174	C	1.415228	-0.053177	0.848760
C175	C	1.665228	0.196823	1.098760
C176	C	1.915228	0.446823	1.348760
C177	C	1.165250	-0.303157	0.688381
C178	C	1.415250	-0.053157	0.938381
C179	C	1.665250	0.196843	1.188381
C180	C	1.915250	0.446843	1.438381
C181	C	1.165303	-0.139033	0.388514
C182	C	1.415303	0.110967	0.638514
C183	C	1.665303	0.360967	0.888514
C184	C	1.915303	0.610967	1.138514
C185	C	1.165358	-0.069065	0.388540
C186	C	1.415358	0.180935	0.638540
C187	C	1.665358	0.430935	0.888540
C188	C	1.915358	0.680935	1.138540
C189	C	1.165169	-0.303225	0.178960
C190	C	1.415169	-0.053225	0.428960
C191	C	1.665169	0.196775	0.678960
C192	C	1.915169	0.446775	0.928960
C193	C	1.165303	-0.303068	0.089340
C194	C	1.415303	-0.053068	0.339340
C195	C	1.665303	0.196932	0.589340
C196	C	1.915303	0.446932	0.839340
C197	C	1.165287	-0.303086	1.016557
C198	C	1.415287	-0.053086	1.266557
C199	C	1.665287	0.196914	1.516557
C200	C	1.915287	0.446914	1.766557
C201	C	1.165275	-0.303108	0.925249
C202	C	1.415275	-0.053108	1.175249
C203	C	1.665275	0.196892	1.425249
C204	C	1.915275	0.446892	1.675249
C205	C	1.165269	-0.303122	0.852472
C206	C	1.415269	-0.053122	1.102472
C207	C	1.665269	0.196878	1.352472
C208	C	1.915269	0.446878	1.602472
C209	C	1.165256	-0.303143	0.761158
C210	C	1.415256	-0.053143	1.011158
C211	C	1.665256	0.196857	1.261158
C212	C	1.915256	0.446857	1.511158
H213	H	1.258700	-0.542839	0.294941
H214	H	1.508700	-0.292839	0.544941
H215	H	1.758700	-0.042839	0.794941
H216	H	2.008700	0.207161	1.044941
C217	C	1.273693	-1.072338	0.280343
C218	C	1.523693	-0.822338	0.530343
C219	C	1.773693	-0.572338	0.780343
C220	C	2.023693	-0.322338	1.030343
H221	H	1.266329	-1.116200	0.287735
H222	H	1.516329	-0.866200	0.537735
H223	H	1.766329	-0.616200	0.787735
H224	H	2.016329	-0.366200	1.037735
H225	H	1.261904	-1.061602	0.226159
H226	H	1.511904	-0.811602	0.476159
H227	H	1.761904	-0.561602	0.726159
H228	H	2.011904	-0.311602	0.976159
H229	H	1.327863	-1.061521	0.292181
H230	H	1.577863	-0.811521	0.542181
H231	H	1.827863	-0.561521	0.792181
H232	H	2.077863	-0.311521	1.042181
C233	C	1.056937	-0.934311	0.496690
C234	C	1.306937	-0.684311	0.746690
C235	C	1.556937	-0.434311	0.996690
C236	C	1.806937	-0.184311	1.246690
H237	H	1.026217	-0.963308	0.527373
H238	H	1.276217	-0.713308	0.777373
H239	H	1.526217	-0.463308	1.027373
H240	H	1.776217	-0.213308	1.277373
H241	H	1.087745	-0.908621	0.531846
H242	H	1.337745	-0.658621	0.781846
H243	H	1.587745	-0.408621	1.031846
H244	H	1.837745	-0.158621	1.281846
H245	H	1.021809	-0.908712	0.465800
H246	H	1.271809	-0.658712	0.715800
H247	H	1.521809	-0.408712	0.965800
H248	H	1.771809	-0.158712	1.215800
H249	H	1.071557	-0.662134	0.481915
H250	H	1.321557	-0.412134	0.731915
H251	H	1.571557	-0.162134	0.981915
H252	H	1.821557	0.087866	1.231915
C253	C	1.057010	-1.072362	0.496733
C254	C	1.307010	-0.822362	0.746733
C255	C	1.557010	-0.572362	0.996733
C256	C	1.807010	-0.322362	1.246733
H257	H	1.064416	-1.116222	0.489363
H258	H	1.314416	-0.866222	0.739363
H259	H	1.564416	-0.616222	0.989363
H260	H	1.814416	-0.366222	1.239363
H261	H	1.068776	-1.061545	0.550915
H262	H	1.318776	-0.811545	0.800915
H263	H	1.568776	-0.561545	1.050915
H264	H	1.818776	-0.311545	1.300915
H265	H	1.002832	-1.061635	0.484877
H266	H	1.252832	-0.811635	0.734877
H267	H	1.502832	-0.561635	0.984877
H268	H	1.752832	-0.311635	1.234877
H269	H	1.258764	-0.662105	0.294974
H270	H	1.508764	-0.412105	0.544974
H271	H	1.758764	-0.162105	0.794974
H272	H	2.008764	0.087895	1.044974
C273	C	1.273637	-0.934282	0.280317
C274	C	1.523637	-0.684282	0.530317
C275	C	1.773637	-0.434282	0.780317
C276	C	2.023637	-0.184282	1.030317
H277	H	1.304386	-0.963270	0.249648
H278	H	1.554386	-0.713270	0.499648
H279	H	1.804386	-0.463270	0.749648
H280	H	2.054386	-0.213270	0.999648
H281	H	1.242803	-0.908680	0.245149
H282	H	1.492803	-0.658680	0.495149
H283	H	1.742803	-0.408680	0.745149
H284	H	1.992803	-0.158680	0.995149
H285	H	1.308740	-0.908593	0.311194
H286	H	1.558740	-0.658593	0.561194
H287	H	1.808740	-0.408593	0.811194
H288	H	2.058740	-0.158593	1.061194
C289	C	1.056751	-0.533470	0.496611
C290	C	1.306751	-0.283470	0.746611
C291	C	1.556751	-0.033470	0.996611
C292	C	1.806751	0.216530	1.246611
H293	H	1.026034	-0.562466	0.527297
H294	H	1.276034	-0.312466	0.777297
H295	H	1.526034	-0.062466	1.027297
H296	H	1.776034	0.187534	1.277297
H297	H	1.087562	-0.507779	0.531763
H298	H	1.337562	-0.257779	0.781763
H299	H	1.587562	-0.007779	1.031763
H300	H	1.837562	0.242221	1.281763
H301	H	1.021621	-0.507871	0.465722
H302	H	1.271621	-0.257871	0.715722
H303	H	1.521621	-0.007871	0.965722
H304	H	1.771621	0.242129	1.215722
