data_functionalizedCrystal
_audit_creation_method	'MofGen! by Chris Wilmer'
_symmetry_space_group_name_H-M	'P1'
_symmetry_Int_Tables_number	1
_symmetry_cell_setting	triclinic
loop_
_symmetry_equiv_pos_as_xyz
  x,y,z
_cell_length_a	16.625548
_cell_length_b	29.839131
_cell_length_c	16.625539
_cell_angle_alpha	89.967906
_cell_angle_beta	89.979432
_cell_angle_gamma	90.042488
loop_
_atom_site_label
_atom_site_type_symbol
_atom_site_fract_x
_atom_site_fract_y
_atom_site_fract_z
Zn1	Zn	1.232574	-0.178840	-0.455888
Zn2	Zn	1.232433	-0.253971	-0.321046
Zn3	Zn	1.097736	-0.178857	-0.321069
Zn4	Zn	1.097662	-0.253945	-0.455836
O5	O	1.165101	-0.216403	-0.388460
O6	O	1.345388	-0.188810	-0.438013
O7	O	1.214537	-0.244025	-0.208217
O8	O	1.115713	-0.115987	-0.338984
O9	O	1.345284	-0.244008	-0.338946
O10	O	1.214778	-0.115975	-0.438035
O11	O	1.115576	-0.188839	-0.208233
O12	O	0.984894	-0.188814	-0.338933
O13	O	1.115586	-0.243964	-0.568676
O14	O	0.984839	-0.243981	-0.437947
O15	O	1.214706	-0.188785	-0.568714
O16	O	1.214465	-0.316834	-0.338896
O17	O	1.115449	-0.316815	-0.437925
C18	C	0.955610	-0.216397	-0.388437
C19	C	0.865989	-0.216405	-0.388447
C20	C	0.537814	-0.216408	-0.388481
C21	C	0.629122	-0.216406	-0.388469
C22	C	0.701899	-0.216406	-0.388463
C23	C	0.793213	-0.216404	-0.388452
C24	C	1.164956	-0.333126	-0.388420
C25	C	1.164967	-0.383060	-0.388430
C26	C	1.216752	-0.692701	-0.336971
C27	C	1.216852	-0.880374	-0.337002
O28	O	1.260766	-0.904636	-0.293219
N29	N	1.165268	-0.903845	-0.388521
C30	C	1.113660	-0.880395	-0.440039
O31	O	1.069793	-0.904665	-0.483866
C32	C	1.113565	-0.692723	-0.440011
C33	C	1.165146	-0.669254	-0.388483
C34	C	1.268330	-0.669232	-0.285447
C35	C	1.268302	-0.622316	-0.285437
C36	C	1.216695	-0.598870	-0.336950
C37	C	1.165118	-0.622339	-0.388473
C38	C	1.061962	-0.669274	-0.491533
C39	C	1.061944	-0.622353	-0.491523
C40	C	1.113525	-0.598884	-0.439995
C41	C	1.113483	-0.551977	-0.439975
N42	N	1.165067	-0.528505	-0.388456
C43	C	1.216673	-0.551952	-0.336944
C44	C	1.113712	-0.978926	-0.440049
C45	C	1.113735	-1.025844	-0.440055
C46	C	1.216928	-1.025819	-0.337019
C47	C	1.216901	-0.978900	-0.337009
C48	C	1.165296	-0.955455	-0.388530
C49	C	1.216609	-0.453426	-0.336925
C50	C	1.216573	-0.406506	-0.336917
C51	C	1.113383	-0.406535	-0.439956
C52	C	1.113416	-0.453451	-0.439962
C53	C	1.165035	-0.476895	-0.388443
O54	O	1.069599	-0.527685	-0.483742
O55	O	1.260546	-0.527674	-0.293136
C56	C	1.216781	-0.739616	-0.336981
C57	C	1.165203	-0.763085	-0.388504
C58	C	1.113597	-0.739639	-0.440017
C59	C	1.165226	-0.810003	-0.388510
C60	C	1.216832	-0.833449	-0.336997
C61	C	1.268416	-0.809978	-0.285479
C62	C	1.268387	-0.763062	-0.285468
C63	C	1.062014	-0.763110	-0.491536
C64	C	1.062046	-0.810026	-0.491541
C65	C	1.113652	-0.833472	-0.440028
C66	C	1.375410	-0.216410	-0.388483
C67	C	1.465031	-0.216413	-0.388493
C68	C	1.165154	-0.216370	-0.598769
C69	C	1.165176	-0.216355	-0.688390
C70	C	1.165269	-0.099225	-0.388518
C71	C	1.165341	-0.049290	-0.388542
C72	C	1.165213	-0.216305	-1.016566
C73	C	1.165201	-0.216320	-0.925257
C74	C	1.165195	-0.216330	-0.852481
C75	C	1.165182	-0.216345	-0.761167
C76	C	1.165095	-0.216404	-0.178969
C77	C	1.165229	-0.216292	-0.089348
H78	H	1.258577	-0.387399	-0.294954
H79	H	1.258903	-0.959794	-0.295051
H80	H	1.258644	-0.472509	-0.294976
C81	C	1.057412	-0.381129	-0.496019
C82	C	1.074930	-0.392509	-0.575811
C83	C	1.023387	-0.369116	-0.627485
H84	H	1.064743	-0.349819	-0.488740
H85	H	1.003228	-0.388858	-0.484232
H86	H	1.129101	-0.384777	-0.587595
H87	H	1.067594	-0.423815	-0.583116
H88	H	0.969203	-0.376845	-0.615697
H89	H	1.030722	-0.337807	-0.620198
H90	H	1.035261	-0.376837	-0.681629
H91	H	1.310306	-0.603210	-0.243481
C92	C	1.006170	-0.835560	-0.547539
C93	C	1.051815	-0.862454	-0.599255
C94	C	1.000378	-0.885984	-0.650849
H95	H	0.975418	-0.814923	-0.578293
H96	H	0.971074	-0.853923	-0.516699
H97	H	1.086898	-0.844092	-0.630093
H98	H	1.082566	-0.883098	-0.568524
H99	H	0.965282	-0.904347	-0.620008
H100	H	0.969629	-0.865345	-0.681596
H101	H	1.031340	-0.904237	-0.685939
C102	C	1.057695	-1.051240	-0.496082
C103	C	1.012516	-1.020659	-0.541206
C104	C	0.960893	-1.044036	-0.592839
H105	H	1.022515	-1.069576	-0.465303
H106	H	1.088509	-1.069502	-0.531291
H107	H	0.981704	-1.002404	-0.506002
H108	H	1.047675	-1.002322	-0.572001
H109	H	0.991708	-1.062298	-0.628048
H110	H	0.925718	-1.062371	-0.562053
H111	H	0.930238	-1.023290	-0.623467
H112	H	1.071417	-0.472560	-0.481922
H113	H	1.310433	-0.829076	-0.243533
C114	C	1.057628	-0.953416	-0.495854
C115	C	1.005972	-0.926518	-0.450150
C116	C	0.954301	-0.903010	-0.501527
H117	H	1.026835	-0.974066	-0.526551
H118	H	1.088415	-0.935058	-0.531004
H119	H	0.975188	-0.944875	-0.415014
H120	H	1.036743	-0.905860	-0.419455
H121	H	0.985088	-0.884651	-0.536677
H122	H	0.923514	-0.923663	-0.532221
H123	H	0.919251	-0.884754	-0.470525
C124	C	1.272986	-1.051361	-0.281236
C125	C	1.261999	-1.097472	-0.292316
C126	C	1.313659	-1.121017	-0.240983
H127	H	1.261327	-1.043772	-0.226993
H128	H	1.327149	-1.043648	-0.293153
H129	H	1.207849	-1.105182	-0.280393
H130	H	1.273664	-1.105074	-0.346548
H131	H	1.367822	-1.113304	-0.252901
H132	H	1.301996	-1.113424	-0.186744
H133	H	1.306216	-1.152306	-0.248500
C134	C	1.005886	-0.737739	-0.547493
C135	C	0.960709	-0.768342	-0.592592
C136	C	0.908980	-0.744989	-0.644139
H137	H	1.036599	-0.719402	-0.582726
H138	H	0.970716	-0.719481	-0.516627
H139	H	0.995874	-0.786592	-0.623455
H140	H	0.929979	-0.786680	-0.557379
H141	H	0.873810	-0.726731	-0.613273
H142	H	0.939699	-0.726652	-0.679367
H143	H	0.878316	-0.765749	-0.674739
C144	C	1.006047	-0.596874	-0.547561
C145	C	1.051660	-0.569901	-0.599290
C146	C	1.000196	-0.546428	-0.650927
H147	H	0.970903	-0.578567	-0.516778
H148	H	0.975348	-0.617558	-0.578294
H149	H	1.082345	-0.549219	-0.568559
H150	H	1.086801	-0.588197	-0.630090
H151	H	0.969497	-0.567112	-0.681661
H152	H	0.965055	-0.528123	-0.620137
H153	H	1.031137	-0.528127	-0.686036
C154	C	1.324518	-0.694689	-0.229676
C155	C	1.376208	-0.721551	-0.275410
C156	C	1.428010	-0.744992	-0.224067
H157	H	1.293854	-0.713068	-0.194470
H158	H	1.355273	-0.673985	-0.199038
H159	H	1.345456	-0.742252	-0.306034
H160	H	1.406890	-0.703183	-0.310614
H161	H	1.458765	-0.724289	-0.193429
H162	H	1.397339	-0.763369	-0.188863
H163	H	1.463092	-0.763218	-0.255090
H164	H	1.019955	-0.688375	-0.533489
H165	H	1.310389	-0.743957	-0.243509
