data_functionalizedCrystal
_audit_creation_method	'MofGen! by Chris Wilmer'
_symmetry_space_group_name_H-M	'P1'
_symmetry_Int_Tables_number	1
_symmetry_cell_setting	triclinic
loop_
_symmetry_equiv_pos_as_xyz
  x,y,z
_cell_length_a	12.759401
_cell_length_b	16.625546
_cell_length_c	12.759393
_cell_angle_alpha	89.965132
_cell_angle_beta	89.981266
_cell_angle_gamma	90.022629
loop_
_atom_site_label
_atom_site_type_symbol
_atom_site_fract_x
_atom_site_fract_y
_atom_site_fract_z
Zn1	Zn	1.606201	-0.320961	-0.593948
Zn2	Zn	1.606071	-0.455815	-0.418253
Zn3	Zn	1.430502	-0.321000	-0.418287
Zn4	Zn	1.430468	-0.455756	-0.593895
O5	O	1.518311	-0.388383	-0.506096
O6	O	1.753205	-0.338858	-0.570649
O7	O	1.582741	-0.437972	-0.271237
O8	O	1.453878	-0.208163	-0.441625
O9	O	1.753109	-0.437935	-0.441568
O10	O	1.582963	-0.208134	-0.570682
O11	O	1.453752	-0.338925	-0.271261
O12	O	1.283477	-0.338868	-0.441574
O13	O	1.453819	-0.437834	-0.740923
O14	O	1.283451	-0.437872	-0.570592
O15	O	1.582930	-0.338801	-0.740962
O16	O	1.582708	-0.568639	-0.441517
O17	O	1.453693	-0.568596	-0.570560
C18	C	1.245343	-0.388368	-0.506081
C19	C	1.128567	-0.388381	-0.506100
C20	C	1.073719	-0.440015	-0.573169
C21	C	0.963995	-0.440026	-0.573180
C22	C	0.963976	-0.336765	-0.439045
C23	C	1.073698	-0.336752	-0.439040
C24	C	1.128588	-0.491645	-0.640229
C25	C	1.073740	-0.543284	-0.707303
C26	C	0.964016	-0.543294	-0.707314
C27	C	0.909139	-0.491665	-0.640252
C28	C	1.518211	-0.597874	-0.506052
C29	C	1.518265	-0.687495	-0.506068
C30	C	1.518448	-1.015671	-0.506177
C31	C	1.518394	-0.924362	-0.506150
C32	C	1.518356	-0.851586	-0.506122
C33	C	1.518303	-0.760271	-0.506096
C34	C	1.792344	-0.388399	-0.506111
C35	C	1.909120	-0.388405	-0.506117
C36	C	1.518385	-0.388307	-0.780129
C37	C	1.518417	-0.388274	-0.896906
C38	C	1.518439	-0.178074	-0.506163
C39	C	1.518494	-0.088453	-0.506191
C40	C	1.585673	-0.336661	-1.061515
C41	C	1.585651	-0.336696	-0.951791
C42	C	1.451209	-0.439825	-0.951751
C43	C	1.451238	-0.439793	-1.061473
C44	C	1.652904	-0.285074	-1.116394
C45	C	1.720114	-0.233524	-1.061556
C46	C	1.720091	-0.233560	-0.951832
C47	C	1.652859	-0.285145	-0.896945
C48	C	1.518297	-0.388401	-0.233128
C49	C	1.518468	-0.388206	-0.116352
H50	H	1.118356	-0.294701	-0.384435
O51	O	0.910688	-0.593335	-0.772581
C52	C	0.786818	-0.604336	-0.914371
C53	C	0.847161	-0.547568	-0.840541
H54	H	0.735425	-0.567357	-0.969320
H55	H	0.844839	-0.641218	-0.962373
H56	H	0.735462	-0.646472	-0.866015
H57	H	0.898519	-0.505384	-0.888815
H58	H	0.789084	-0.510743	-0.792534
O59	O	1.386020	-0.490047	-0.898479
C60	C	1.334910	-0.627208	-0.864895
C61	C	1.408816	-0.570424	-0.925274
H62	H	1.353299	-0.692205	-0.886553
H63	H	1.346445	-0.618443	-0.777043
H64	H	1.250210	-0.613004	-0.886445
H65	H	1.493544	-0.584593	-0.903811
H66	H	1.397189	-0.579200	-1.013111
H67	H	1.118427	-0.585313	-0.761909
H68	H	1.774857	-0.191529	-1.106252
O69	O	1.386102	-0.489944	-1.114798
C70	C	1.371934	-0.598728	-1.238705
C71	C	1.445818	-0.541993	-1.178360
H72	H	1.420184	-0.640812	-1.290125
H73	H	1.323887	-0.635658	-1.180686
H74	H	1.317019	-0.561670	-1.290034
H75	H	1.500797	-0.578988	-1.127029
H76	H	1.493792	-0.505059	-1.236435
H77	H	0.819795	-0.491671	-0.640276
O78	O	0.910510	-0.286701	-0.373928
C79	C	0.741466	-0.240939	-0.314520
C80	C	0.801883	-0.297687	-0.388308
H81	H	0.653631	-0.249790	-0.326136
H82	H	0.762929	-0.255025	-0.229749
H83	H	0.763123	-0.175944	-0.333102
H84	H	0.780260	-0.362702	-0.369821
H85	H	0.780415	-0.283532	-0.473057
O86	O	1.785411	-0.183414	-0.898724
C87	C	1.918802	-0.081152	-0.910349
C88	C	1.844866	-0.137893	-0.970621
H89	H	1.966906	-0.044346	-0.968452
H90	H	1.870630	-0.038952	-0.859015
H91	H	1.973662	-0.118200	-0.858948
H92	H	1.789992	-0.100910	-1.022080
H93	H	1.893104	-0.180095	-1.021889
H94	H	1.652854	-0.285176	-0.807601
H95	H	1.217930	-0.491644	-0.640226
H96	H	1.652927	-0.285038	-1.205737
