data_functionalizedCrystal
_audit_creation_method	'MofGen! by Chris Wilmer'
_symmetry_space_group_name_H-M	'P1'
_symmetry_Int_Tables_number	1
_symmetry_cell_setting	triclinic
loop_
_symmetry_equiv_pos_as_xyz
  x,y,z
_cell_length_a	14.519709
_cell_length_b	17.699083
_cell_length_c	16.776229
_cell_angle_alpha	90.007545
_cell_angle_beta	90.001522
_cell_angle_gamma	83.481580
loop_
_atom_site_label
_atom_site_type_symbol
_atom_site_fract_x
_atom_site_fract_y
_atom_site_fract_z
O1	O	-1.223449	-0.099215	-0.066186
O2	O	-0.723449	0.400785	0.433814
O3	O	-0.954923	-0.110899	-0.066211
O4	O	-0.454923	0.389101	0.433789
O5	O	-1.096772	0.005110	-0.066191
O6	O	-0.596772	0.505110	0.433809
O7	O	-1.081599	-0.215225	-0.066206
O8	O	-0.581599	0.284775	0.433794
O9	O	-1.096754	0.005117	0.066386
O10	O	-0.596754	0.505117	0.566386
O11	O	-0.954904	-0.110892	0.066366
O12	O	-0.454904	0.389108	0.566366
O13	O	-1.223430	-0.099208	0.066390
O14	O	-0.723430	0.400792	0.566390
Zn15	Zn	-1.089164	-0.105049	0.087428
Zn16	Zn	-0.589164	0.394951	0.587428
Zn17	Zn	-1.089189	-0.105058	-0.087248
Zn18	Zn	-0.589189	0.394942	0.412752
O19	O	-1.081580	-0.215218	0.066370
O20	O	-0.581580	0.284782	0.566370
C21	C	-1.096219	0.033312	0.000098
C22	C	-0.596219	0.533312	0.500098
C23	C	-1.094588	0.117335	0.000098
C24	C	-0.594588	0.617335	0.500098
C25	C	-0.920556	-0.110351	0.000075
C26	C	-0.420556	0.389649	0.500075
C27	C	-0.818181	-0.108719	0.000065
C28	C	-0.318181	0.391281	0.500065
C29	C	-1.257797	-0.099756	0.000104
C30	C	-0.757797	0.400244	0.500104
C31	C	-1.360171	-0.101388	0.000107
C32	C	-0.860171	0.398612	0.500107
C33	C	-0.443311	-0.102712	0.000102
C34	C	0.056689	0.397288	0.500102
C35	C	-0.547612	-0.104380	0.000092
C36	C	-0.047612	0.395620	0.500092
C37	C	-0.630743	-0.105716	0.000083
C38	C	-0.130743	0.394284	0.500083
C39	C	-0.735050	-0.107384	0.000074
C40	C	-0.235050	0.392616	0.500074
C41	C	-1.082134	-0.243420	0.000080
C42	C	-0.582134	0.256580	0.500080
C43	C	-1.083765	-0.327442	0.000075
C44	C	-0.583765	0.172558	0.500075
N45	N	-1.089154	-0.105042	0.206639
N46	N	-0.589154	0.394958	0.706639
C47	C	-1.177851	0.165718	0.000107
C48	C	-0.677851	0.665718	0.500107
C49	C	-1.176313	0.244665	0.000099
C50	C	-0.676313	0.744665	0.500099
C51	C	-1.091511	0.275229	0.000089
C52	C	-0.591511	0.775229	0.500089
C53	C	-1.008242	0.226840	0.000078
C54	C	-0.508242	0.726840	0.500078
C55	C	-1.009781	0.147894	0.000080
C56	C	-0.509781	0.647894	0.500080
C57	C	-1.002033	0.545221	0.000071
C58	C	-0.502033	1.045221	0.500071
C59	C	-1.000501	0.624173	0.000072
C60	C	-0.500501	1.124173	0.500072
C61	C	-1.168566	0.641992	0.000091
C62	C	-0.668566	1.141992	0.500091
C63	C	-1.170105	0.563046	0.000092
C64	C	-0.670105	1.063046	0.500092
C65	C	-1.086836	0.514664	0.000077
C66	C	-0.586836	1.014664	0.500077
C67	C	-1.088505	0.429060	0.000083
C68	C	-0.588505	0.929060	0.500083
C69	C	-1.089841	0.360831	0.000089
C70	C	-0.589841	0.860831	0.500089
N71	N	-1.089206	-0.105059	-0.206459
N72	N	-0.589206	0.394941	0.293541
C73	C	-1.151984	-0.053694	0.248365
C74	C	-0.651984	0.446306	0.748365
C75	C	-1.151989	-0.053694	0.331817
C76	C	-0.651989	0.446306	0.831817
C77	C	-1.089168	-0.105045	0.373542
C78	C	-0.589168	0.394955	0.873542
C79	C	-1.026331	-0.156395	0.331810
C80	C	-0.526331	0.343605	0.831810
C81	C	-1.026322	-0.156392	0.248359
C82	C	-0.526322	0.343608	0.748359
C83	C	-1.026364	-0.156410	0.668357
C84	C	-0.526364	0.343590	1.168357
C85	C	-1.026380	-0.156411	0.751814
C86	C	-0.526380	0.343589	1.251814
C87	C	-1.152031	-0.053712	0.751815
C88	C	-0.652031	0.446288	1.251815
C89	C	-1.152022	-0.053709	0.668364
C90	C	-0.652022	0.446291	1.168364
C91	C	-1.089183	-0.105056	0.626640
C92	C	-0.589183	0.394944	1.126640
C93	C	-1.089177	-0.105055	0.536151
C94	C	-0.589177	0.394945	1.036151
C95	C	-1.089177	-0.105050	0.464028
C96	C	-0.589177	0.394950	0.964028
H97	H	-1.246907	0.140840	0.000120
H98	H	-0.746907	0.640840	0.500120
H99	H	-0.975176	-0.198204	0.365787
H100	H	-0.475176	0.301796	0.865787
H101	H	-0.934231	0.505837	0.000059
H102	H	-0.434231	1.005837	0.500059
H103	H	-1.203144	-0.011881	0.214398
H104	H	-0.703144	0.488119	0.714398
H105	H	-1.203150	-0.011882	0.365790
H106	H	-0.703150	0.488118	0.865790
C107	C	-0.914021	0.048768	-0.068086
C108	C	-0.414021	0.548768	0.431914
C109	C	-0.918256	0.094709	0.000070
C110	C	-0.418256	0.594709	0.500070
H111	H	-0.857513	0.015938	-0.068095
H112	H	-0.357513	0.515938	0.431905
H113	H	-0.964740	0.019272	-0.068073
H114	H	-0.464740	0.519272	0.431927
H115	H	-0.916924	0.079941	-0.114311
H116	H	-0.416924	0.579941	0.385689
H117	H	-0.915360	0.063536	0.046295
H118	H	-0.415360	0.563536	0.546295
H119	H	-0.867523	0.124208	0.000065
H120	H	-0.367523	0.624208	0.500065
H121	H	-0.975158	-0.198203	0.214387
H122	H	-0.475158	0.301797	0.714387
H123	H	-1.244114	0.284056	0.000108
H124	H	-0.744114	0.784056	0.500108
C125	C	-0.931255	0.339945	0.000076
C126	C	-0.431255	0.839945	0.500076
C127	C	-0.915025	0.260434	0.000070
C128	C	-0.415025	0.760434	0.500070
H129	H	-0.873704	0.360681	0.000078
H130	H	-0.373704	0.860681	0.500078
H131	H	-0.965529	0.356536	-0.046150
H132	H	-0.465529	0.856536	0.453850
H133	H	-0.965526	0.356541	0.046315
H134	H	-0.465526	0.856541	0.546315
H135	H	-0.880759	0.243837	-0.046172
H136	H	-0.380759	0.743837	0.453828
H137	H	-0.880736	0.243836	0.046301
H138	H	-0.380736	0.743836	0.546301
H139	H	-1.203196	-0.011900	0.785796
H140	H	-0.703196	0.488100	1.285796
C141	C	-1.336081	0.588592	0.000101
C142	C	-0.836081	1.088592	0.500101
C143	C	-1.263321	0.529452	0.000100
C144	C	-0.763321	1.029452	0.500100
H145	H	-1.393629	0.567851	0.000098
H146	H	-0.893629	1.067851	0.500098
H147	H	-1.331984	0.619016	0.046331
H148	H	-0.831984	1.119016	0.546331
H149	H	-1.331983	0.619009	-0.046134
H150	H	-0.831983	1.119009	0.453866
H151	H	-1.267415	0.499038	0.046338
H152	H	-0.767415	0.999038	0.546338
H153	H	-1.267421	0.499015	-0.046135
H154	H	-0.767421	0.999015	0.453865
H155	H	-1.203180	-0.011896	0.634394
H156	H	-0.703180	0.488104	1.134394
H157	H	-1.236367	0.681395	0.000099
H158	H	-0.736367	1.181395	0.500099
H159	H	-0.975220	-0.198229	0.785785
H160	H	-0.475220	0.301771	1.285785
C161	C	-0.834516	0.598633	0.000031
C162	C	-0.334516	1.098633	0.500031
C163	C	-0.907279	0.657770	0.000050
C164	C	-0.407279	1.157770	0.500050
H165	H	-0.776969	0.619377	0.000013
H166	H	-0.276969	1.119377	0.500013
H167	H	-0.838593	0.568218	0.046261
H168	H	-0.338593	1.068218	0.546261
H169	H	-0.838630	0.568206	-0.046204
H170	H	-0.338630	1.068206	0.453796
H171	H	-0.903169	0.688194	0.046288
H172	H	-0.403169	1.188194	0.546288
H173	H	-0.903200	0.688198	-0.046185
H174	H	-0.403200	1.188198	0.453815
H175	H	-0.975200	-0.198220	0.634392
H176	H	-0.475200	0.301780	1.134392
