data_functionalizedCrystal
_audit_creation_method	'MofGen! by Chris Wilmer'
_symmetry_space_group_name_H-M	'P1'
_symmetry_Int_Tables_number	1
_symmetry_cell_setting	triclinic
loop_
_symmetry_equiv_pos_as_xyz
  x,y,z
_cell_length_a	15.944551
_cell_length_b	15.944551
_cell_length_c	15.021413
_cell_angle_alpha	90.003065
_cell_angle_beta	89.997174
_cell_angle_gamma	83.498738
loop_
_atom_site_label
_atom_site_type_symbol
_atom_site_fract_x
_atom_site_fract_y
_atom_site_fract_z
O1	O	1.114529	0.108321	-0.073941
O2	O	0.869979	0.121677	-0.073964
O3	O	0.998932	-0.007276	-0.073944
O4	O	0.985576	0.237274	-0.073961
O5	O	0.998912	-0.007257	0.074121
O6	O	0.869959	0.121695	0.074101
O7	O	1.114508	0.108339	0.074123
Zn8	Zn	0.992230	0.115020	0.097620
Zn9	Zn	0.992257	0.114996	-0.097461
O10	O	0.985555	0.237292	0.074103
C11	C	0.838675	0.121132	0.000066
C12	C	0.745429	0.119470	0.000057
C13	C	0.530572	0.035565	0.000081
C14	C	0.469562	0.074518	-0.072926
C15	C	0.574703	0.116462	0.000068
C16	C	0.469564	0.074556	0.073054
C17	C	0.409790	0.113551	0.000083
C18	C	0.514921	0.155438	-0.072998
C19	C	0.514930	0.155464	0.073047
C20	C	0.453937	0.194476	0.000023
C21	C	0.669705	0.118137	0.000059
C22	C	0.314789	0.111883	0.000085
C23	C	0.998367	-0.038561	0.000089
C24	C	0.996705	-0.131807	0.000089
C25	C	0.912801	-0.346663	0.000069
C26	C	0.951753	-0.407672	0.073077
C27	C	0.993698	-0.302533	0.000082
C28	C	0.951792	-0.407673	-0.072903
C29	C	0.990787	-0.467445	0.000071
C30	C	1.032672	-0.362313	0.073150
C31	C	1.032700	-0.362308	-0.072895
C32	C	1.071711	-0.423298	0.000131
C33	C	0.995372	-0.207530	0.000089
C34	C	0.989119	-0.562446	0.000070
C35	C	1.145813	0.108885	0.000092
C36	C	1.239059	0.110547	0.000094
C37	C	0.986120	0.268577	0.000069
C38	C	0.987782	0.361823	0.000063
N39	N	0.992218	0.115036	0.230758
N40	N	0.992276	0.114973	-0.230598
C41	C	0.932581	0.174636	0.470432
C42	C	1.008481	0.190943	0.529772
C43	C	0.992239	0.115015	0.412365
C44	C	0.916360	0.098727	0.529766
C45	C	0.992253	0.114997	0.587789
C46	C	1.068178	0.131360	0.470398
C47	C	0.976006	0.039111	0.470387
C48	C	1.051962	0.055386	0.529701
C49	C	0.992230	0.115028	0.311307
C50	C	0.992271	0.114984	0.688844
H51	H	0.535052	0.189659	0.134767
O52	O	0.445703	0.033619	0.146660
C53	C	0.485096	-0.050134	0.146372
H54	H	0.544502	-0.054166	0.103637
H55	H	0.439848	-0.093699	0.117877
C56	C	0.436037	-0.072377	0.294765
C57	C	0.509005	-0.077326	0.242283
H58	H	0.450783	-0.089153	0.353928
H59	H	0.409495	-0.015951	0.294959
H60	H	0.398338	-0.108681	0.271009
H61	H	0.546698	-0.041015	0.266033
H62	H	0.535554	-0.133747	0.242096
O63	O	0.538680	0.196132	-0.146809
C64	C	0.515052	0.153641	-0.223561
H65	H	0.461005	0.115362	-0.206549
H66	H	0.571302	0.109498	-0.248730
C67	C	0.552650	0.265579	-0.317278
C68	C	0.486263	0.218570	-0.296385
H69	H	0.534895	0.305629	-0.362201
H70	H	0.568572	0.294205	-0.265569
H71	H	0.599520	0.228785	-0.338247
H72	H	0.439400	0.255363	-0.275407
H73	H	0.470333	0.189952	-0.348092
H74	H	0.882181	0.225096	0.444409
H75	H	0.845652	-0.313356	0.000136
O76	O	1.151900	-0.462827	0.000341
C77	C	1.194220	-0.439686	0.077405
H78	H	1.145990	-0.417774	0.130955
H79	H	1.233333	-0.386201	0.060687
C80	C	1.312001	-0.543171	0.046058
C81	C	1.252764	-0.516265	0.111833
H82	H	1.348117	-0.590406	0.067294
H83	H	1.283491	-0.558760	-0.005863
H84	H	1.344587	-0.498593	0.032133
H85	H	1.220173	-0.560839	0.125748
H86	H	1.281270	-0.500686	0.163757
O87	O	1.112281	-0.004789	0.560410
C88	C	1.154823	-0.046375	0.487784
H89	H	1.147968	-0.003693	0.426725
H90	H	1.126344	-0.107348	0.473140
C91	C	1.257443	-0.119514	0.585707
C92	C	1.249029	-0.067088	0.510714
H93	H	1.315553	-0.132295	0.599851
H94	H	1.228780	-0.091500	0.634637
H95	H	1.233705	-0.170319	0.573494
H96	H	1.272757	-0.016280	0.522932
H97	H	1.277698	-0.095094	0.461786
H98	H	0.917528	-0.427772	0.134794
H99	H	0.962240	-0.025051	0.444283
H100	H	1.066896	-0.342185	-0.134615
H101	H	1.022224	0.255126	0.555856
H102	H	1.132368	0.145206	0.444430
O103	O	0.911088	-0.431762	-0.146564
C104	C	0.966758	-0.487644	-0.197496
H105	H	1.019229	-0.518609	-0.152873
H106	H	0.995411	-0.451153	-0.252884
C107	C	0.853536	-0.518121	-0.293397
C108	C	0.917979	-0.556158	-0.238589
H109	H	0.823448	-0.560382	-0.318748
H110	H	0.816030	-0.480470	-0.259085
H111	H	0.877424	-0.487713	-0.339546
H112	H	0.894090	-0.586556	-0.192434
H113	H	0.955480	-0.593816	-0.272894
O114	O	0.570282	-0.044551	-0.000157
C115	C	0.547295	-0.086906	-0.077263
H116	H	0.525302	-0.038693	-0.130794
H117	H	0.493910	-0.126167	-0.060603
C118	C	0.651020	-0.204481	-0.045934
C119	C	0.624015	-0.145265	-0.111685
H120	H	0.698342	-0.240483	-0.067166
H121	H	0.666505	-0.175948	0.006015
H122	H	0.606526	-0.237190	-0.032057
H123	H	0.668505	-0.112551	-0.125552
H124	H	0.608539	-0.173794	-0.163637
O125	O	0.445725	0.033635	-0.146579
C126	C	0.517617	0.005892	-0.197854
H127	H	0.575981	0.000063	-0.153473
H128	H	0.525211	0.053397	-0.253172
C129	C	0.435364	-0.073551	-0.293600
C130	C	0.507047	-0.080717	-0.239088
H131	H	0.428844	-0.126973	-0.319039
H132	H	0.386928	-0.054858	-0.259057
H133	H	0.441701	-0.033960	-0.339691
H134	H	0.500704	-0.120299	-0.192993
H135	H	0.555482	-0.099419	-0.273624
H136	H	1.066851	-0.342314	0.134941
O137	O	0.839730	0.082394	0.560769
C138	C	0.777025	0.145431	0.530587
H139	H	0.800214	0.176207	0.468103
H140	H	0.763167	0.195251	0.584658
C141	C	0.667441	0.067617	0.585726
C142	C	0.695920	0.105412	0.508978
H143	H	0.617411	0.042934	0.572401
H144	H	0.709687	0.025149	0.606063
H145	H	0.655900	0.109141	0.630778
H146	H	0.707472	0.063887	0.463932
H147	H	0.653675	0.147872	0.488633
H148	H	0.420779	0.261683	-0.000023
