data_functionalizedCrystal
_audit_creation_method	'MofGen! by Chris Wilmer'
_symmetry_space_group_name_H-M	'P1'
_symmetry_Int_Tables_number	1
_symmetry_cell_setting	triclinic
loop_
_symmetry_equiv_pos_as_xyz
  x,y,z
_cell_length_a	16.109318
_cell_length_b	16.109304
_cell_length_c	14.048226
_cell_angle_alpha	89.996377
_cell_angle_beta	89.997121
_cell_angle_gamma	83.465600
loop_
_atom_site_label
_atom_site_type_symbol
_atom_site_fract_x
_atom_site_fract_y
_atom_site_fract_z
O1	O	1.103126	0.106937	-0.079075
O2	O	0.861066	0.120222	-0.079094
O3	O	0.988745	-0.007451	-0.079085
O4	O	0.975448	0.234610	-0.079085
O5	O	0.988729	-0.007458	0.079237
O6	O	0.861051	0.120214	0.079227
O7	O	1.103111	0.106930	0.079246
Zn8	Zn	0.982078	0.113571	0.104374
Zn9	Zn	0.982099	0.113581	-0.104222
O10	O	0.975432	0.234602	0.079237
C11	C	0.830084	0.119677	0.000064
C12	C	0.737789	0.118056	0.000057
C13	C	0.988198	-0.038430	0.000074
C14	C	0.986582	-0.130725	0.000067
C15	C	0.438724	0.112826	-0.086227
C16	C	0.525445	0.114343	-0.086233
C17	C	0.525447	0.114323	0.086378
C18	C	0.438728	0.112800	0.086382
C19	C	0.395368	0.112055	0.000077
C20	C	0.568809	0.115096	0.000066
C21	C	0.662836	0.116741	0.000061
C22	C	0.301336	0.110408	0.000082
C23	C	0.982857	-0.343058	-0.086231
C24	C	0.981331	-0.429779	-0.086230
C25	C	0.981318	-0.429784	0.086381
C26	C	0.982838	-0.343064	0.086379
C27	C	0.983612	-0.299704	0.000071
C28	C	0.980565	-0.473144	0.000073
C29	C	0.978911	-0.567170	0.000075
C30	C	0.985265	-0.205672	0.000069
C31	C	1.134093	0.107474	0.000086
C32	C	1.226388	0.109095	0.000087
C33	C	0.975979	0.265581	0.000076
C34	C	0.977595	0.357876	0.000076
N35	N	0.982071	0.113564	0.246734
N36	N	0.982113	0.113581	-0.246582
C37	C	1.038624	0.057053	0.296556
C38	C	1.038630	0.057053	0.396214
C39	C	0.982085	0.113567	0.446048
C40	C	0.925526	0.170080	0.396219
C41	C	0.925517	0.170076	0.296563
C42	C	0.925550	0.170086	0.603933
C43	C	0.925559	0.170091	0.703596
C44	C	1.038663	0.057063	0.703584
C45	C	1.038654	0.057059	0.603928
C46	C	0.982095	0.113573	0.554106
H47	H	0.403423	0.112218	-0.156503
H48	H	1.084673	0.011037	0.255988
H49	H	0.879514	0.216110	0.744165
C50	C	0.980470	-0.477488	0.181315
N51	N	0.979834	-0.513419	0.252822
C52	C	0.983668	-0.295372	0.181322
N53	N	0.984290	-0.259450	0.252830
H54	H	0.560742	0.114969	-0.156511
H55	H	0.403427	0.112172	0.156666
H56	H	0.980714	-0.465073	-0.156505
C57	C	0.573146	0.115187	0.181308
N58	N	0.609069	0.115854	0.252812
H59	H	0.879490	0.216103	0.563371
H60	H	1.084680	0.011038	0.436779
C61	C	0.983698	-0.295364	-0.181172
N62	N	0.984328	-0.259443	-0.252685
C63	C	1.100856	-0.005109	0.549113
N64	N	1.147705	-0.051938	0.507827
C65	C	1.100875	-0.005106	0.758390
N66	N	1.147733	-0.051929	0.799675
C67	C	0.863318	0.232239	0.451039
N68	N	0.816461	0.279058	0.492329
H69	H	0.879464	0.216091	0.255998
