data_functionalizedCrystal
_audit_creation_method	'MofGen! by Chris Wilmer'
_symmetry_space_group_name_H-M	'P1'
_symmetry_Int_Tables_number	1
_symmetry_cell_setting	triclinic
loop_
_symmetry_equiv_pos_as_xyz
  x,y,z
_cell_length_a	15.297327
_cell_length_b	17.077404
_cell_length_c	17.077396
_cell_angle_alpha	90.019501
_cell_angle_beta	99.647268
_cell_angle_gamma	80.292864
loop_
_atom_site_label
_atom_site_type_symbol
_atom_site_fract_x
_atom_site_fract_y
_atom_site_fract_z
Zn1	Zn	-0.359161	-1.145953	-0.497895
Zn2	Zn	0.140839	-0.645953	0.002105
Zn3	Zn	-0.510035	-1.123133	-0.389335
Zn4	Zn	-0.010035	-0.623133	0.110665
Zn5	Zn	-0.359192	-1.014680	-0.366647
Zn6	Zn	0.140808	-0.514680	0.133353
Zn7	Zn	-0.509981	-0.991934	-0.520550
Zn8	Zn	-0.009981	-0.491934	-0.020550
O9	O	-0.434592	-1.068925	-0.443607
O10	O	0.065408	-0.568925	0.056393
O11	O	-0.379184	-1.252771	-0.483507
O12	O	0.120816	-0.752771	0.016493
O13	O	-0.490061	-1.108715	-0.276484
O14	O	0.009939	-0.608715	0.223516
O15	O	-0.232941	-1.051163	-0.365082
O16	O	0.267059	-0.551163	0.134918
O17	O	-0.490030	-1.236005	-0.403749
O18	O	0.009970	-0.736005	0.096251
O19	O	-0.232918	-1.147608	-0.461508
O20	O	0.267082	-0.647608	0.038492
O21	O	-0.379238	-1.029035	-0.259815
O22	O	0.120762	-0.529035	0.240185
O23	O	-0.379186	-0.901817	-0.387050
O24	O	0.120814	-0.401817	0.112950
O25	O	-0.489939	-1.012395	-0.627386
O26	O	0.010061	-0.512395	-0.127386
O27	O	-0.489970	-0.885105	-0.500121
O28	O	0.010030	-0.385105	-0.000121
O29	O	-0.379132	-1.125553	-0.610742
O30	O	0.120868	-0.625553	-0.110742
O31	O	-0.636275	-1.086659	-0.425717
O32	O	-0.136275	-0.586659	0.074283
O33	O	-0.636236	-0.990268	-0.522120
O34	O	-0.136236	-0.490268	-0.022120
C35	C	-0.434576	-0.864979	-0.443583
C36	C	0.065424	-0.364979	0.056417
C37	C	-0.434591	-0.777727	-0.443594
C38	C	0.065409	-0.277727	0.056406
C39	C	-0.668990	-1.033541	-0.478856
C40	C	-0.168990	-0.533541	0.021144
C41	C	-0.769266	-1.018475	-0.493962
C42	C	-0.269266	-0.518475	0.006038
C43	C	-0.434526	-1.068982	-0.648341
C44	C	0.065474	-0.568982	-0.148341
C45	C	-0.434498	-1.069007	-0.735587
C46	C	0.065502	-0.569007	-0.235587
C47	C	-1.051885	-1.176925	-0.335910
C48	C	-0.551885	-0.676925	0.164090
C49	C	-0.957670	-1.191079	-0.321713
C50	C	-0.457670	-0.691079	0.178287
C51	C	-0.910565	-1.147930	-0.364774
C52	C	-0.410565	-0.647930	0.135226
C53	C	-0.957683	-1.090623	-0.422034
C54	C	-0.457683	-0.590623	0.077966
C55	C	-1.051907	-1.076462	-0.436228
C56	C	-0.551907	-0.576462	0.063772
C57	C	-0.910586	-1.047467	-0.465092
C58	C	-0.410586	-0.547467	0.034908
C59	C	-0.957705	-0.990160	-0.522352
C60	C	-0.457705	-0.490160	-0.022352
C61	C	-1.051919	-0.976003	-0.536544
C62	C	-0.551919	-0.476003	-0.036544
C63	C	-1.099025	-1.019152	-0.493483
C64	C	-0.599025	-0.519152	0.006517
C65	C	-0.816363	-1.061628	-0.450898
C66	C	-0.316363	-0.561628	0.049102
C67	C	-0.816384	-0.961165	-0.551217
C68	C	-0.316384	-0.461165	-0.051217
C69	C	-0.910599	-0.947010	-0.565413
C70	C	-0.410599	-0.447010	-0.065413
C71	C	-0.199279	-1.104468	-0.408237
C72	C	0.300721	-0.604468	0.091763
C73	C	-0.099003	-1.119615	-0.393165
C74	C	0.400997	-0.619615	0.106835
C75	C	-0.434609	-1.273666	-0.443632
C76	C	0.065391	-0.773666	0.056368
C77	C	-0.434617	-1.360915	-0.443642
C78	C	0.065383	-0.860915	0.056358
C79	C	-0.492363	-0.728043	-0.502403
C80	C	0.007637	-0.228043	-0.002403
C81	C	-0.492365	-0.646062	-0.502416
C82	C	0.007635	-0.146062	-0.002416
C83	C	-0.434599	-0.613767	-0.443616
C84	C	0.065401	-0.113767	0.056384
C85	C	-0.376820	-0.663458	-0.384804
C86	C	0.123180	-0.163458	0.115196
C87	C	-0.376814	-0.745438	-0.384795
C88	C	0.123186	-0.245438	0.115205
C89	C	-0.376838	-0.492585	-0.384825
C90	C	0.123162	0.007415	0.115175
C91	C	-0.376844	-0.410599	-0.384833
C92	C	0.123156	0.089401	0.115167
C93	C	-0.492389	-0.393210	-0.502446
C94	C	0.007611	0.106790	-0.002446
C95	C	-0.492383	-0.475189	-0.502438
C96	C	0.007617	0.024811	-0.002438
C97	C	-0.434605	-0.524875	-0.443624
C98	C	0.065395	-0.024875	0.056376
C99	C	-0.376795	-1.127930	-0.767910
C100	C	0.123205	-0.627930	-0.267910
C101	C	-0.376765	-1.127944	-0.849886
C102	C	0.123235	-0.627944	-0.349886
C103	C	-0.434443	-1.069037	-0.899538
C104	C	0.065557	-0.569037	-0.399538
C105	C	-0.492147	-1.010108	-0.867209
C106	C	0.007853	-0.510108	-0.367209
C107	C	-0.492172	-1.010091	-0.785234
C108	C	0.007828	-0.510091	-0.285234
C109	C	-0.492093	-1.010148	-1.038071
C110	C	0.007907	-0.510148	-0.538071
C111	C	-0.492070	-1.010165	-1.120052
C112	C	0.007930	-0.510165	-0.620052
C113	C	-0.376686	-1.128000	-1.102724
C114	C	0.123314	-0.628000	-0.602724
C115	C	-0.376711	-1.127984	-1.020748
C116	C	0.123289	-0.627984	-0.520748
C117	C	-0.434417	-1.069055	-0.988425
C118	C	0.065583	-0.569055	-0.488425
C119	C	-0.434593	-1.068922	-0.239659
C120	C	0.065407	-0.568922	0.260341
C121	C	-0.434368	-1.069088	-0.152376
C122	C	0.065632	-0.569088	0.347624
H123	H	-0.833851	-1.159457	-0.353211
H124	H	-0.333851	-0.659457	0.146789
O125	O	-0.765578	-0.914621	-0.597657
O126	O	-0.265578	-0.414621	-0.097657
H127	H	-0.783722	-0.850295	-0.586860
H128	H	-0.283722	-0.350295	-0.086860
H129	H	-0.539106	-0.962142	-0.907641
H130	H	-0.039106	-0.462142	-0.407641
H131	H	-0.539426	-0.501481	-0.550314
H132	H	-0.039426	-0.001481	-0.050314
H133	H	-1.175742	-1.007633	-0.505041
H134	H	-0.675742	-0.507633	-0.005041
O135	O	-0.554702	-0.339629	-0.565889
O136	O	-0.054702	0.160371	-0.065889
H137	H	-0.544995	-0.277198	-0.556026
H138	H	-0.044995	0.222802	-0.056026
H139	H	-0.919310	-1.237738	-0.275092
H140	H	-0.419310	-0.737738	0.224908
O141	O	-0.314500	-0.799026	-0.321363
O142	O	0.185500	-0.299026	0.178637
H143	H	-0.324193	-0.861458	-0.331240
H144	H	0.175807	-0.361458	0.168760
H145	H	-1.090247	-1.212046	-0.300851
H146	H	-0.590247	-0.712046	0.199149
H147	H	-0.329750	-1.175955	-0.980324
H148	H	0.170250	-0.675955	-0.480324
H149	H	-0.948976	-0.900350	-0.612035
H150	H	-0.448976	-0.400350	-0.112035
H151	H	-0.329830	-1.175901	-0.727489
H152	H	0.170170	-0.675901	-0.227489
H153	H	-0.329698	-1.175981	-1.129045
H154	H	0.170302	-0.675981	-0.629045
O155	O	-0.554682	-0.592395	-0.565780
O156	O	-0.054682	-0.092395	-0.065780
H157	H	-0.600461	-0.548131	-0.537388
H158	H	-0.100461	-0.048131	-0.037388
H159	H	-0.539034	-0.962196	-1.160477
H160	H	-0.039034	-0.462196	-0.660477
O161	O	-0.314532	-0.375762	-0.321422
O162	O	0.185468	0.124238	0.178578
H163	H	-0.274343	-0.424084	-0.280532
H164	H	0.225657	0.075916	0.219468
H165	H	-0.539070	-0.962151	-1.011755
H166	H	-0.039070	-0.462151	-0.511755
O167	O	-0.765553	-1.123449	-0.389157
O168	O	-0.265553	-0.623449	0.110843
H169	H	-0.692123	-1.126049	-0.386517
H170	H	-0.192123	-0.626049	0.113483
H171	H	-0.329781	-1.175927	-0.876200
H172	H	0.170219	-0.675927	-0.376200
H173	H	-1.090280	-0.929330	-0.583160
H174	H	-0.590280	-0.429330	-0.083160
H175	H	-0.329781	-0.533038	-0.336939
H176	H	0.170219	-0.033038	0.163061
H177	H	-0.539150	-0.962103	-0.758916
H178	H	-0.039150	-0.462103	-0.258916
H179	H	-0.539406	-0.754331	-0.550283
H180	H	-0.039406	-0.254331	-0.050283
H181	H	-0.329781	-0.637157	-0.336930
H182	H	0.170219	-0.137157	0.163070
