data_functionalizedCrystal
_audit_creation_method	'MofGen! by Chris Wilmer'
_symmetry_space_group_name_H-M	'P1'
_symmetry_Int_Tables_number	1
_symmetry_cell_setting	triclinic
loop_
_symmetry_equiv_pos_as_xyz
  x,y,z
_cell_length_a	16.625546
_cell_length_b	16.625548
_cell_length_c	16.625539
_cell_angle_alpha	90.018832
_cell_angle_beta	89.971468
_cell_angle_gamma	89.977673
loop_
_atom_site_label
_atom_site_type_symbol
_atom_site_fract_x
_atom_site_fract_y
_atom_site_fract_z
Zn1	Zn	-0.321018	-1.232653	-0.455936
Zn2	Zn	-0.455857	-1.232564	-0.321098
Zn3	Zn	-0.321042	-1.097823	-0.321112
Zn4	Zn	-0.455812	-1.097785	-0.455884
O5	O	-0.388432	-1.165206	-0.388507
O6	O	-0.338914	-1.345473	-0.438065
O7	O	-0.438002	-1.214669	-0.208268
O8	O	-0.208206	-1.115761	-0.339024
O9	O	-0.437979	-1.345408	-0.339001
O10	O	-0.208189	-1.214820	-0.438079
O11	O	-0.338954	-1.115675	-0.208278
O12	O	-0.338910	-0.984985	-0.338974
O13	O	-0.437903	-1.115696	-0.568723
O14	O	-0.437926	-0.984957	-0.437990
O15	O	-0.338870	-1.214783	-0.568761
O16	O	-0.568683	-1.214632	-0.338950
O17	O	-0.568650	-1.115611	-0.437977
C18	C	-0.388416	-0.955715	-0.388478
C19	C	-0.388429	-0.866094	-0.388485
C20	C	-0.388427	-0.537918	-0.388509
C21	C	-0.388425	-0.629227	-0.388500
C22	C	-0.388428	-0.702003	-0.388497
C23	C	-0.388426	-0.793318	-0.388489
C24	C	-0.597923	-1.165130	-0.388474
C25	C	-0.687544	-1.165171	-0.388486
C26	C	-1.015720	-1.165311	-0.388570
C27	C	-0.924411	-1.165270	-0.388549
C28	C	-0.851635	-1.165240	-0.388528
C29	C	-0.760321	-1.165200	-0.388508
C30	C	-0.178123	-1.165305	-0.388559
C31	C	-0.088502	-1.165347	-0.388581
C32	C	-0.388379	-1.165245	-0.598816
C33	C	-0.388356	-1.165262	-0.688438
C34	C	-0.388443	-0.375515	-0.388529
C35	C	-0.388435	-0.465136	-0.388519
C36	C	-0.388338	-1.165275	-0.761220
C37	C	-0.388308	-1.165294	-0.852529
C38	C	-0.388280	-1.165313	-0.925305
C39	C	-0.388251	-1.165333	-1.016620
C40	C	-0.388427	-1.165213	-0.179017
C41	C	-0.388222	-1.165352	-0.089396
