data_functionalizedCrystal
_audit_creation_method	'MofGen! by Chris Wilmer'
_symmetry_space_group_name_H-M	'P1'
_symmetry_Int_Tables_number	1
_symmetry_cell_setting	triclinic
loop_
_symmetry_equiv_pos_as_xyz
  x,y,z
_cell_length_a	16.109301
_cell_length_b	17.038272
_cell_length_c	15.186229
_cell_angle_alpha	89.995962
_cell_angle_beta	89.999362
_cell_angle_gamma	87.286518
loop_
_atom_site_label
_atom_site_type_symbol
_atom_site_fract_x
_atom_site_fract_y
_atom_site_fract_z
O1	O	1.110268	0.100495	-0.073174
O2	O	1.610268	0.600495	0.426826
O3	O	0.869094	0.113001	-0.073188
O4	O	1.369094	0.613001	0.426812
O5	O	0.988247	-0.007067	-0.073174
O6	O	1.488247	0.492933	0.426826
O7	O	0.991114	0.220563	-0.073187
O8	O	1.491114	0.720563	0.426813
O9	O	0.988239	-0.007069	0.073284
O10	O	1.488239	0.492931	0.573284
O11	O	0.869085	0.113000	0.073270
O12	O	1.369085	0.613000	0.573270
O13	O	1.110259	0.100493	0.073284
O14	O	1.610259	0.600493	0.573284
Zn15	Zn	0.989671	0.106746	0.096530
Zn16	Zn	1.489671	0.606746	0.596530
Zn17	Zn	0.989682	0.106748	-0.096434
Zn18	Zn	1.489682	0.606748	0.403566
O19	O	0.991105	0.220562	0.073270
O20	O	1.491105	0.720562	0.573270
C21	C	0.838079	0.112494	0.000039
C22	C	1.338079	0.612494	0.500039
C23	C	0.745676	0.110975	0.000034
C24	C	1.245676	0.610975	0.500034
C25	C	0.528212	0.178690	0.000040
C26	C	1.028212	0.678690	0.500040
C27	C	0.441390	0.177257	0.000046
C28	C	0.941390	0.677257	0.500046
C29	C	0.451147	0.034799	0.000051
C30	C	0.951147	0.534799	0.500051
C31	C	0.537968	0.036233	0.000051
C32	C	1.037968	0.536233	0.500051
C33	C	0.576498	0.108181	0.000042
C34	C	1.076498	0.608181	0.500042
C35	C	0.402855	0.105314	0.000047
C36	C	0.902855	0.605314	0.500047
C37	C	0.308719	0.103759	0.000053
C38	C	0.808719	0.603759	0.500053
C39	C	0.670640	0.109736	0.000037
C40	C	1.170640	0.609736	0.500037
C41	C	0.985636	-0.036196	0.000055
C42	C	1.485636	0.463804	0.500055
C43	C	0.977857	-0.122989	0.000054
C44	C	1.477857	0.377011	0.500054
C45	C	1.049277	-0.173104	0.000059
C46	C	1.549277	0.326896	0.500059
C47	C	1.041963	-0.254654	0.000050
C48	C	1.541963	0.245346	0.500050
C49	C	0.963228	-0.286089	0.000043
C50	C	1.463228	0.213911	0.500043
C51	C	0.891802	-0.235967	0.000035
C52	C	1.391802	0.264033	0.500035
C53	C	0.899116	-0.154418	0.000038
C54	C	1.399116	0.345582	0.500038
C55	C	0.937385	-0.531846	0.000029
C56	C	1.437385	-0.031846	0.500029
C57	C	0.930076	-0.613402	0.000029
C58	C	1.430076	-0.113402	0.500029
C59	C	1.080238	-0.632083	0.000043
C60	C	1.580238	-0.132083	0.500043
C61	C	1.087546	-0.550532	0.000051
C62	C	1.587546	-0.050532	0.500051
C63	C	1.016120	-0.500418	0.000038
C64	C	1.516120	-0.000418	0.500038
C65	C	0.955749	-0.369446	0.000037
C66	C	1.455749	0.130554	0.500037
C67	C	1.023599	-0.417062	0.000038
C68	C	1.523599	0.082938	0.500038
C69	C	1.141274	0.101001	0.000055
C70	C	1.641274	0.601001	0.500055
C71	C	1.233677	0.102519	0.000054
C72	C	1.733677	0.602519	0.500054
C73	C	0.993717	0.249691	0.000039
C74	C	1.493717	0.749691	0.500039
C75	C	1.001496	0.336484	0.000034
C76	C	1.501496	0.836484	0.500034
N77	N	0.989669	0.106744	0.228223
N78	N	1.489669	0.606744	0.728223
N79	N	0.989690	0.106744	-0.228126
N80	N	1.489690	0.606744	0.271874
C81	C	1.042451	0.053596	0.453952
C82	C	1.542451	0.553596	0.953952
C83	C	1.042453	0.053594	0.546141
C84	C	1.542453	0.553594	1.046141
C85	C	0.936902	0.159895	0.546138
C86	C	1.436902	0.659895	1.046138
C87	C	0.936896	0.159893	0.453950
C88	C	1.436896	0.659893	0.953950
C89	C	0.989675	0.106744	0.407859
C90	C	1.489675	0.606744	0.907859
C91	C	0.989684	0.106745	0.592237
C92	C	1.489684	0.606745	1.092237
C93	C	0.989686	0.106743	0.692193
C94	C	1.489686	0.606743	1.192193
C95	C	0.989672	0.106744	0.307897
C96	C	1.489672	0.606744	0.807897
H97	H	1.113392	-0.147517	0.000071
H98	H	1.613392	0.352483	0.500071
O99	O	0.885657	0.211452	0.409034
O100	O	1.385657	0.711452	0.909034
C101	C	0.838915	0.258590	0.267007
C102	C	1.338915	0.758590	0.767007
C103	C	0.896968	0.200150	0.317765
C104	C	1.396968	0.700150	0.817765
H105	H	0.848052	0.249484	0.193208
H106	H	1.348052	0.749484	0.693208
H107	H	0.771586	0.248389	0.285071
H108	H	1.271586	0.748389	0.785071
H109	H	0.854171	0.321207	0.285176
H110	H	1.354171	0.821207	0.785176
H111	H	0.881787	0.137511	0.299624
H112	H	1.381787	0.637511	0.799624
H113	H	0.964280	0.210420	0.299698
H114	H	1.464280	0.710420	0.799698
H115	H	0.419765	-0.023778	0.000064
H116	H	0.919765	0.476222	0.500064
O117	O	0.565508	0.248645	0.000077
O118	O	1.065508	0.748645	0.500077
C119	C	0.546662	0.389791	0.000026
C120	C	1.046662	0.889791	0.500026
C121	C	0.504322	0.310621	0.000002
C122	C	1.004322	0.810621	0.500002
H123	H	0.497213	0.439919	-0.000053
H124	H	0.997213	0.939919	0.499947
H125	H	0.587039	0.394074	0.061333
H126	H	1.087039	0.894074	0.561333
H127	H	0.587091	0.393986	-0.061251
H128	H	1.087091	0.893986	0.438749
H129	H	0.463851	0.306372	0.061238
H130	H	0.963851	0.806372	0.561238
H131	H	0.463995	0.306372	-0.061345
H132	H	0.963995	0.806372	0.438655
O133	O	0.584755	-0.032336	0.000013
O134	O	1.084755	0.467664	0.500013
C135	C	0.585278	-0.173786	0.000072
C136	C	1.085278	0.326214	0.500072
C137	C	0.532193	-0.096195	0.000090
C138	C	1.032193	0.403805	0.500090
H139	H	0.542804	-0.225436	0.000153
H140	H	1.042804	0.274564	0.500153
H141	H	0.626152	-0.176726	-0.061233
H142	H	1.126152	0.323274	0.438767
H143	H	0.626186	-0.176631	0.061351
H144	H	1.126186	0.323369	0.561351
H145	H	0.491236	-0.093298	-0.061147
H146	H	0.991236	0.406702	0.438853
H147	H	0.491373	-0.093287	0.061436
H148	H	0.991373	0.406713	0.561436
O149	O	0.885560	0.211552	0.590776
O150	O	1.385560	0.711552	1.090776
C151	C	0.780899	0.317016	0.581042
C152	C	1.280899	0.817016	1.081042
C153	C	0.838989	0.258543	0.530383
C154	C	1.338989	0.758543	1.030383
H155	H	0.743244	0.355034	0.532236
H156	H	1.243244	0.855034	1.032236
H157	H	0.736929	0.283289	0.624185
H158	H	1.236929	0.783289	1.124185
H159	H	0.819568	0.356052	0.624219
H160	H	1.319568	0.856052	1.124219
H161	H	0.800386	0.219493	0.487158
H162	H	1.300386	0.719493	0.987158
H163	H	0.882962	0.292319	0.487295
H164	H	1.382962	0.792319	0.987295
H165	H	1.138389	-0.672894	0.000051
H166	H	1.638389	-0.172894	0.500051
H167	H	1.100122	-0.295455	0.000056
H168	H	1.600122	0.204545	0.500056
H169	H	0.840958	-0.113615	0.000033
H170	H	1.340958	0.386385	0.500033
H171	H	0.402079	0.234672	0.000047
H172	H	0.902079	0.734672	0.500047
H173	H	1.151661	-0.524945	0.000057
H174	H	1.651661	-0.024945	0.500057
O175	O	0.853524	-0.643808	-0.000027
O176	O	1.353524	-0.143808	0.499973
C177	C	0.705354	-0.616677	-0.000008
C178	C	1.205354	-0.116677	0.499992
C179	C	0.791991	-0.582137	0.000036
C180	C	1.291991	-0.082137	0.500036
H181	H	0.655582	-0.566834	0.000061
H182	H	1.155582	-0.066834	0.500061
H183	H	0.698137	-0.654358	-0.061316
H184	H	1.198137	-0.154358	0.438684
H185	H	0.698210	-0.654420	0.061268
H186	H	1.198210	-0.154420	0.561268
H187	H	0.799195	-0.544359	-0.061199
H188	H	1.299195	-0.044359	0.438801
H189	H	0.799169	-0.544501	0.061384
H190	H	1.299169	-0.044501	0.561384
H191	H	0.879224	-0.491053	0.000019
H192	H	1.379224	0.008947	0.500019
H193	H	1.085425	0.010318	0.416427
H194	H	1.585425	0.510318	0.916427
O195	O	1.093643	0.001997	0.591052
O196	O	1.593643	0.501997	1.091052
C197	C	1.140468	-0.045085	0.733071
C198	C	1.640468	0.454915	1.233071
C199	C	1.082438	0.013382	0.682321
C200	C	1.582438	0.513382	1.182321
H201	H	1.131441	-0.035889	0.806872
H202	H	1.631441	0.464111	1.306872
H203	H	1.125207	-0.107728	0.715016
H204	H	1.625207	0.392272	1.215016
H205	H	1.207767	-0.034884	0.714887
H206	H	1.707767	0.465116	1.214887
H207	H	1.015120	0.003254	0.700478
H208	H	1.515120	0.503254	1.200478
H209	H	1.097771	0.076005	0.700381
H210	H	1.597771	0.576005	1.200381
H211	H	0.827693	-0.261567	0.000023
H212	H	1.327693	0.238433	0.500023
H213	H	1.087705	-0.391465	0.000025
H214	H	1.587705	0.108535	0.500025
O215	O	0.879250	-0.399947	-0.000122
O216	O	1.379250	0.100053	0.499878
C217	C	0.748657	-0.408900	-0.075976
C218	C	1.248657	0.091100	0.424024
C219	C	0.835271	-0.374316	-0.075913
C220	C	1.335271	0.125684	0.424087
H221	H	0.713069	-0.388177	-0.137237
H222	H	1.213069	0.111823	0.362763
H223	H	0.755657	-0.475797	-0.076037
H224	H	1.255657	0.024203	0.423963
H225	H	0.713099	-0.388285	-0.014656
H226	H	1.213099	0.111715	0.485344
H227	H	0.870877	-0.394871	-0.137223
H228	H	1.370877	0.105129	0.362777
H229	H	0.828211	-0.307423	-0.075806
H230	H	1.328211	0.192577	0.424194
