data_functionalizedCrystal
_audit_creation_method	'MofGen! by Chris Wilmer'
_symmetry_space_group_name_H-M	'P1'
_symmetry_Int_Tables_number	1
_symmetry_cell_setting	triclinic
loop_
_symmetry_equiv_pos_as_xyz
  x,y,z
_cell_length_a	19.805407
_cell_length_b	12.594516
_cell_length_c	19.805407
_cell_angle_alpha	90.008207
_cell_angle_beta	90.013848
_cell_angle_gamma	90.011063
loop_
_atom_site_label
_atom_site_type_symbol
_atom_site_fract_x
_atom_site_fract_y
_atom_site_fract_z
Zn1	Zn	1.034735	-0.423938	0.382827
Zn2	Zn	1.034699	-0.601887	0.269649
Zn3	Zn	0.921570	-0.423921	0.269643
Zn4	Zn	0.921542	-0.601873	0.382787
O5	O	0.978137	-0.512905	0.326226
O6	O	1.129447	-0.447557	0.367833
O7	O	1.019689	-0.578278	0.174932
O8	O	0.936609	-0.274977	0.284671
O9	O	1.129421	-0.578295	0.284682
O10	O	1.019750	-0.274990	0.367827
O11	O	0.936574	-0.447527	0.174927
O12	O	0.826850	-0.447513	0.284632
O13	O	0.936561	-0.578270	0.477508
O14	O	0.826829	-0.578253	0.367758
O15	O	1.019723	-0.447543	0.477538
O16	O	1.019662	-0.750831	0.284643
O17	O	0.936526	-0.750820	0.367764
C18	C	0.802281	-0.512881	0.326190
C19	C	0.727049	-0.512896	0.326191
C20	C	0.265265	-0.581109	0.369486
C21	C	0.335953	-0.581107	0.369471
C22	C	0.371287	-0.512930	0.326253
C23	C	0.335929	-0.444758	0.283041
C24	C	0.265242	-0.444766	0.283052
C25	C	0.621002	-0.444726	0.282993
C26	C	0.691694	-0.444721	0.282987
C27	C	0.691714	-0.581067	0.369412
C28	C	0.621026	-0.581075	0.369424
C29	C	0.585674	-0.512907	0.326210
C30	C	0.509026	-0.512911	0.326225
C31	C	0.447934	-0.512920	0.326241
C32	C	0.978105	-0.789446	0.326215
C33	C	0.978154	-0.907751	0.326232
C34	C	1.023424	-0.976971	0.281070
C35	C	1.039951	-1.047701	0.342851
C36	C	0.961712	-1.047820	0.264491
C37	C	0.994712	-0.976923	0.388045
C38	C	0.916444	-0.977035	0.309644
C39	C	0.932948	-1.047733	0.371466
C40	C	1.154679	-0.512929	0.326263
C41	C	1.229911	-0.512940	0.326278
C42	C	0.978143	-0.512907	0.502769
C43	C	0.978145	-0.512908	0.578001
C44	C	0.978187	-0.235284	0.326253
C45	C	0.978208	-0.116978	0.326264
C46	C	1.021443	-0.444848	0.613362
C47	C	1.021437	-0.444845	0.684050
C48	C	0.978137	-0.512907	0.719377
C49	C	0.934835	-0.580970	0.684011
C50	C	0.934837	-0.580967	0.613324
C51	C	0.934821	-0.580982	0.969084
C52	C	0.934823	-0.580982	1.039776
C53	C	1.021421	-0.444860	1.039811
C54	C	1.021423	-0.444857	0.969123
C55	C	0.978119	-0.512915	0.933764
C56	C	0.978125	-0.512917	0.857115
C57	C	0.978134	-0.512912	0.796024
C58	C	0.978124	-0.512924	1.150370
C59	C	0.978117	-0.512917	1.075138
H60	H	0.720461	-0.389198	0.247792
H61	H	0.236501	-0.636621	0.404683
H62	H	0.864250	-0.945969	0.295577
C63	C	0.374794	-0.369753	0.235505
C64	C	0.335904	-0.294763	0.187980
C65	C	0.374767	-0.219749	0.140447
C66	C	0.452520	-0.219725	0.140439
C67	C	0.491414	-0.294717	0.187965
C68	C	0.452551	-0.369732	0.235498
H69	H	0.278342	-0.294779	0.187985
H70	H	0.345975	-0.164234	0.105265
H71	H	0.481289	-0.164195	0.105252
H72	H	0.548976	-0.294702	0.187961
H73	H	0.481344	-0.425246	0.270681
C74	C	1.069075	-0.369977	0.574506
C75	C	1.039763	-0.286409	0.525909
C76	C	1.087395	-0.211533	0.487055
C77	C	1.164338	-0.220227	0.496797
C78	C	1.193653	-0.303799	0.545396
C79	C	1.146022	-0.378674	0.584250
H80	H	0.982801	-0.279970	0.518696
H81	H	1.065693	-0.149668	0.451079
H82	H	1.199598	-0.164800	0.468035
H83	H	1.250615	-0.310237	0.552609
H84	H	1.167723	-0.440540	0.620226
C85	C	1.075146	-0.934985	0.229522
C86	C	1.150451	-0.962878	0.237259
C87	C	1.202173	-0.920889	0.185716
C88	C	1.178591	-0.851009	0.126435
C89	C	1.103283	-0.823113	0.118695
C90	C	1.051560	-0.865101	0.170239
H91	H	1.167911	-1.014611	0.281145
H92	H	1.257922	-0.941540	0.191445
H93	H	1.216880	-0.819927	0.088279
H94	H	1.085823	-0.771380	0.074810
H95	H	0.995812	-0.844450	0.164509
H96	H	0.364735	-0.636620	0.404653
C97	C	0.582160	-0.656071	0.416964
C98	C	0.621047	-0.731063	0.464490
C99	C	0.582182	-0.806063	0.512029
C100	C	0.504429	-0.806073	0.512043
C101	C	0.465537	-0.731079	0.464516
C102	C	0.504402	-0.656078	0.416976
H103	H	0.678609	-0.731058	0.464481
H104	H	0.610973	-0.861579	0.547212
H105	H	0.475658	-0.861593	0.547235
H106	H	0.407975	-0.731083	0.464524
H107	H	0.475612	-0.600562	0.381793
C108	C	0.730603	-0.656063	0.416944
C109	C	0.779176	-0.739558	0.387521
C110	C	0.818063	-0.814549	0.435053
C111	C	0.808377	-0.806044	0.512009
C112	C	0.759801	-0.722545	0.541436
C113	C	0.720914	-0.647555	0.493904
H114	H	0.786349	-0.745857	0.330550
H115	H	0.854022	-0.876360	0.413268
H116	H	0.837163	-0.861557	0.547195
H117	H	0.752628	-0.716246	0.598407
H118	H	0.684955	-0.585743	0.515689
H119	H	1.008590	-0.945913	0.440316
C120	C	0.226349	-0.369775	0.235528
C121	C	0.236076	-0.248787	0.241182
C122	C	0.197183	-0.173797	0.193654
C123	C	0.148563	-0.219794	0.140473
C124	C	0.138834	-0.340788	0.134816
C125	C	0.177726	-0.415778	0.182344
H126	H	0.272070	-0.214732	0.280552
H127	H	0.204386	-0.084229	0.197842
H128	H	0.119772	-0.164281	0.105290
H129	H	0.102840	-0.374843	0.095446
H130	H	0.170524	-0.505346	0.178156
C131	C	1.110480	-1.089646	0.361830
C132	C	1.123265	-1.210075	0.365924
C133	C	1.193796	-1.252014	0.384897
C134	C	1.251542	-1.173524	0.399776
C135	C	1.238759	-1.053088	0.395683
C136	C	1.168228	-1.011149	0.376710
H137	H	1.080517	-1.268185	0.354908
H138	H	1.203259	-1.341170	0.387927
H139	H	1.303753	-1.204570	0.413821
H140	H	1.281507	-0.994978	0.406698
H141	H	1.158765	-0.921993	0.373680
C142	C	0.942887	-1.089885	0.193938
C143	C	0.987169	-1.061953	0.132556
C144	C	0.968350	-1.104013	0.062002
C145	C	0.905249	-1.174005	0.052829
C146	C	0.860962	-1.201942	0.114213
C147	C	0.879781	-1.159881	0.184768
H148	H	1.033885	-1.010137	0.139344
H149	H	1.001134	-1.083332	0.016561
H150	H	0.891318	-1.205141	0.000601
H151	H	0.814247	-1.253758	0.107425
H152	H	0.846997	-1.180562	0.230208
C153	C	0.881260	-1.089454	0.423135
C154	C	0.888820	-1.061193	0.498408
C155	C	0.837136	-1.102917	0.550078
C156	C	0.777893	-1.172901	0.526474
C157	C	0.770331	-1.201166	0.451196
C158	C	0.822015	-1.159442	0.399527
H159	H	0.932678	-1.009383	0.515885
H160	H	0.842735	-1.081993	0.605803
H161	H	0.739634	-1.203788	0.564723
H162	H	0.726473	-1.252976	0.433720
H163	H	0.816416	-1.180366	0.343801
C164	C	1.069063	-0.369975	0.722947
C165	C	1.116694	-0.295111	0.684091
C166	C	1.164320	-0.220234	0.722987
C167	C	1.164315	-0.220221	0.800740
C168	C	1.116682	-0.295088	0.839601
C169	C	1.069056	-0.369965	0.800704
H170	H	1.116700	-0.295118	0.626529
H171	H	1.199581	-0.164813	0.694219
H172	H	1.199570	-0.164793	0.829534
H173	H	1.116676	-0.295081	0.897162
H174	H	1.033795	-0.425387	0.829472
C175	C	0.887186	-0.655849	1.078637
C176	C	0.887188	-0.655854	1.156390
C177	C	0.839554	-0.730717	1.195251
C178	C	0.791918	-0.805575	1.156360
C179	C	0.791914	-0.805573	1.078602
C180	C	0.839548	-0.730710	1.039741
H181	H	0.922452	-0.600436	1.185184
H182	H	0.839557	-0.730717	1.252813
H183	H	0.756657	-0.860993	1.185127
H184	H	0.756650	-0.860991	1.049808
H185	H	0.839545	-0.730710	0.982179
C186	C	0.887181	-0.655852	0.930209
C187	C	0.810241	-0.647141	0.939935
C188	C	0.762593	-0.722015	0.901064
C189	C	0.791885	-0.805601	0.852467
C190	C	0.868829	-0.814316	0.842739
C191	C	0.916477	-0.739441	0.881610
H192	H	0.788554	-0.585262	0.975912
H193	H	0.705634	-0.715564	0.908266
H194	H	0.756613	-0.861028	0.823692
H195	H	0.890516	-0.876195	0.806762
H196	H	0.973436	-0.745893	0.874408
H197	H	0.592227	-0.389224	0.247803
H198	H	1.056685	-0.389437	0.940364
H199	H	1.056679	-0.389440	1.068609
H200	H	0.899576	-0.636384	0.712779
H201	H	0.899574	-0.636377	0.584534
