data_functionalizedCrystal
_audit_creation_method	'MofGen! by Chris Wilmer'
_symmetry_space_group_name_H-M	'P1'
_symmetry_Int_Tables_number	1
_symmetry_cell_setting	triclinic
loop_
_symmetry_equiv_pos_as_xyz
  x,y,z
_cell_length_a	16.959455
_cell_length_b	19.120786
_cell_length_c	16.959447
_cell_angle_alpha	87.526589
_cell_angle_beta	89.983277
_cell_angle_gamma	92.464014
loop_
_atom_site_label
_atom_site_type_symbol
_atom_site_fract_x
_atom_site_fract_y
_atom_site_fract_z
Zn1	Zn	1.194930	-0.279637	-0.433516
Zn2	Zn	1.189201	-0.397105	-0.295690
Zn3	Zn	1.062757	-0.279663	-0.301347
Zn4	Zn	1.057074	-0.397056	-0.427826
O5	O	1.125991	-0.338365	-0.364595
O6	O	1.304781	-0.295228	-0.415247
O7	O	1.172409	-0.381557	-0.185828
O8	O	1.085066	-0.181369	-0.323628
O9	O	1.300571	-0.381532	-0.313987
O10	O	1.182173	-0.181350	-0.420732
O11	O	1.079511	-0.295273	-0.189984
O12	O	0.951393	-0.295226	-0.318110
O13	O	1.075380	-0.381449	-0.539193
O14	O	0.947218	-0.381474	-0.411034
O15	O	1.176662	-0.295181	-0.543374
O16	O	1.166898	-0.495389	-0.308470
O17	O	1.069825	-0.495353	-0.405549
C18	C	0.920625	-0.338348	-0.364569
C19	C	0.832768	-0.338358	-0.364576
C20	C	1.117145	-0.520857	-0.355795
C21	C	1.113432	-0.598927	-0.352057
C22	C	0.793648	-0.293388	-0.316279
C23	C	0.789335	-0.383333	-0.412884
C24	C	0.706788	-0.383341	-0.412895
C25	C	0.667668	-0.338371	-0.364598
C26	C	0.711094	-0.293393	-0.316290
C27	C	0.663357	-0.428313	-0.461208
C28	C	0.580805	-0.428322	-0.461222
C29	C	0.541683	-0.383356	-0.412920
C30	C	0.585114	-0.338376	-0.364610
C31	C	0.545994	-0.293407	-0.316313
C32	C	0.589423	-0.248431	-0.267997
C33	C	0.671972	-0.248427	-0.267988
C34	C	0.459135	-0.383360	-0.412929
C35	C	0.463440	-0.293412	-0.316324
C36	C	1.162209	-0.635535	-0.400899
C37	C	1.158718	-0.708890	-0.397388
C38	C	1.106454	-0.745637	-0.345031
C39	C	1.057672	-0.709025	-0.296187
C40	C	1.061159	-0.635670	-0.299703
C41	C	1.093392	-0.967123	-0.331889
C42	C	1.089910	-1.040483	-0.328376
C43	C	1.190955	-1.040343	-0.429578
C44	C	1.194442	-0.966988	-0.433086
C45	C	1.145657	-0.930381	-0.384245
C46	C	1.102886	-0.820618	-0.341439
C47	C	1.149222	-0.855402	-0.387841
C48	C	1.332158	-0.338382	-0.364621
C49	C	1.420014	-0.338390	-0.364632
C50	C	1.126026	-0.338307	-0.570766
C51	C	1.126042	-0.338282	-0.658624
C52	C	1.134893	-0.155161	-0.373446
C53	C	1.138686	-0.077090	-0.377218
C54	C	1.073406	-0.383124	-1.027929
C55	C	1.178873	-0.293292	-1.032277
C56	C	1.178851	-0.293307	-0.949731
C57	C	1.126107	-0.338232	-0.906279
C58	C	1.073385	-0.383141	-0.945374
C59	C	1.231578	-0.248404	-0.910629
C60	C	1.231558	-0.248417	-0.828077
C61	C	1.178810	-0.293339	-0.784625
C62	C	1.126085	-0.338250	-0.823725
C63	C	1.073341	-0.383174	-0.780273
C64	C	1.020612	-0.428082	-0.819372
C65	C	1.020636	-0.428063	-0.901922
C66	C	1.178786	-0.293358	-0.702075
C67	C	1.073319	-0.383192	-0.697719
C68	C	1.126003	-0.338372	-0.159228
C69	C	1.126150	-0.338199	-0.071380
H70	H	0.431594	-0.256793	-0.276993
H71	H	1.237000	-0.937070	-0.475719
F72	F	0.534592	-0.476191	-0.512641
H73	H	0.707339	-0.211809	-0.228653
F74	F	1.017177	-0.431004	-0.651481
F75	F	0.547779	-0.200567	-0.216604
F76	F	1.287675	-0.200621	-0.786473
F77	F	0.412918	-0.431218	-0.464351
F78	F	1.287712	-0.200600	-0.956876
F79	F	1.242870	-1.079307	-0.481557
H80	H	1.047346	-1.070400	-0.285739
F81	F	0.704995	-0.476179	-0.512595
H82	H	1.204772	-0.605620	-0.443531
H83	H	1.053671	-0.937324	-0.292119
H84	H	1.198443	-0.738693	-0.437155
H85	H	0.829011	-0.256772	-0.276939
F86	F	0.964483	-0.475896	-0.773118
H87	H	1.015114	-0.738950	-0.253560
F88	F	0.830971	-0.431194	-0.464278
H89	H	1.021439	-0.605865	-0.259931
F90	F	1.204839	-0.816291	-0.443566
F91	F	1.234904	-0.245571	-0.660467
F92	F	1.047260	-0.859734	-0.285722
H93	H	1.030473	-0.419685	-1.059767
H94	H	0.977709	-0.464627	-0.933763
F95	F	1.235008	-0.245488	-1.078523
