data_functionalizedCrystal
_audit_creation_method	'MofGen! by Chris Wilmer'
_symmetry_space_group_name_H-M	'P1'
_symmetry_Int_Tables_number	1
_symmetry_cell_setting	triclinic
loop_
_symmetry_equiv_pos_as_xyz
  x,y,z
_cell_length_a	10.654550
_cell_length_b	8.559649
_cell_length_c	9.730223
_cell_angle_alpha	89.997407
_cell_angle_beta	89.999957
_cell_angle_gamma	77.131797
loop_
_atom_site_label
_atom_site_type_symbol
_atom_site_fract_x
_atom_site_fract_y
_atom_site_fract_z
O1	O	1.644681	0.224185	-0.114181
O2	O	1.276996	0.245543	-0.114206
O3	O	1.493232	0.002621	-0.114190
O4	O	1.428445	0.467107	-0.114197
O5	O	1.493220	0.002614	0.114390
O6	O	1.276985	0.245537	0.114374
O7	O	1.644669	0.224178	0.114398
Zn8	Zn	1.460825	0.234856	0.150678
Zn9	Zn	1.460841	0.234865	-0.150486
O10	O	1.428434	0.467100	0.114383
C11	C	1.230355	0.243972	0.000081
C12	C	1.091396	0.239280	0.000071
C13	C	0.997136	0.382309	0.000073
C14	C	0.866571	0.377890	0.000097
C15	C	0.924541	0.087402	0.000112
C16	C	1.055103	0.091822	0.000097
C17	C	1.498136	-0.056858	0.000097
C18	C	1.512750	-0.234076	0.000091
C19	C	1.691311	0.225750	0.000109
C20	C	1.830270	0.230442	0.000109
C21	C	1.423530	0.526579	0.000092
C22	C	1.408915	0.703797	0.000089
N23	N	1.460824	0.234849	0.356214
N24	N	1.460853	0.234860	-0.356022
C25	C	1.556598	0.127329	0.428147
C26	C	1.556610	0.127330	0.572030
C27	C	1.365070	0.342385	0.572035
C28	C	1.365053	0.342375	0.428154
H29	H	0.789827	0.494359	0.000101
H30	H	1.287097	0.429932	0.630623
O31	O	1.272181	0.446902	0.358120
C32	C	1.329844	0.546189	0.274900
H33	H	1.434128	0.483776	0.253340
H34	H	1.275044	0.570811	0.173727
H35	H	1.326988	0.664263	0.330336
O36	O	1.146726	-0.047081	0.000334
C37	C	1.224011	-0.053192	0.118693
H38	H	1.168221	0.027892	0.201438
H39	H	1.251139	-0.181600	0.158434
H40	H	1.315168	-0.010812	0.091917
O41	O	1.032171	0.525680	0.000120
C42	C	0.920970	0.650971	0.000094
H43	H	0.836404	0.605237	0.043381
H44	H	0.938427	0.753828	0.066451
H45	H	0.898161	0.695163	-0.109566
H46	H	1.612835	-0.316473	0.000109
O47	O	0.889061	-0.055695	0.000065
C48	C	0.753611	-0.028930	0.000109
H49	H	0.710866	0.095290	-0.043169
H50	H	0.722497	-0.123368	-0.066247
H51	H	0.717941	-0.037069	0.109773
H52	H	1.308837	-0.213815	0.000087
H53	H	1.634578	0.039773	0.369577
H54	H	1.634596	0.039775	0.630594
