data_functionalizedCrystal
_audit_creation_method	'MofGen! by Chris Wilmer'
_symmetry_space_group_name_H-M	'P1'
_symmetry_Int_Tables_number	1
_symmetry_cell_setting	triclinic
loop_
_symmetry_equiv_pos_as_xyz
  x,y,z
_cell_length_a	21.295418
_cell_length_b	21.295417
_cell_length_c	16.120297
_cell_angle_alpha	92.868089
_cell_angle_beta	92.858291
_cell_angle_gamma	90.045515
loop_
_atom_site_label
_atom_site_type_symbol
_atom_site_fract_x
_atom_site_fract_y
_atom_site_fract_z
Zn1	Zn	0.944264	-0.268427	-0.471781
Zn2	Zn	1.444264	0.231573	0.028219
Zn3	Zn	0.949516	-0.368356	-0.332364
Zn4	Zn	1.449516	0.131644	0.167636
Zn5	Zn	0.844336	-0.263133	-0.332341
Zn6	Zn	1.344336	0.236867	0.167659
Zn7	Zn	0.838962	-0.373688	-0.471680
Zn8	Zn	1.338962	0.126312	0.028320
O9	O	0.894270	-0.318401	-0.402042
O10	O	1.394270	0.181599	0.097958
O11	O	1.033048	-0.281667	-0.453339
O12	O	1.533048	0.218333	0.046661
O13	O	0.940010	-0.349951	-0.215700
O14	O	1.440010	0.150049	0.284300
O15	O	0.857643	-0.175747	-0.350870
O16	O	1.357643	0.324253	0.149130
O17	O	1.036906	-0.355085	-0.350910
O18	O	1.536906	0.144915	0.149090
O19	O	0.931060	-0.179637	-0.453317
O20	O	1.431060	0.320363	0.046683
O21	O	0.862734	-0.272644	-0.215683
O22	O	1.362734	0.227356	0.284317
O23	O	0.755536	-0.277814	-0.350773
O24	O	1.255536	0.222186	0.149227
O25	O	0.848484	-0.364172	-0.588354
O26	O	1.348484	0.135828	-0.088354
O27	O	0.751588	-0.359038	-0.453145
O28	O	1.251588	0.140962	0.046855
O29	O	0.925849	-0.286837	-0.588428
O30	O	1.425849	0.213163	-0.088428
O31	O	0.934799	-0.457152	-0.350812
O32	O	1.434799	0.042848	0.149188
O33	O	0.853576	-0.461069	-0.453167
O34	O	1.353576	0.038931	0.046833
C35	C	0.730722	-0.318431	-0.401946
C36	C	1.230722	0.181569	0.098054
C37	C	0.660754	-0.318459	-0.401924
C38	C	1.160754	0.181541	0.098076
C39	C	0.894191	-0.481951	-0.401999
C40	C	1.394191	0.018049	0.098001
C41	C	0.894214	-0.551920	-0.402009
C42	C	1.394214	-0.051920	0.097991
C43	C	0.625851	-0.360803	-0.455150
C44	C	1.125851	0.139197	0.044850
C45	C	0.560108	-0.360789	-0.455187
C46	C	1.060108	0.139211	0.044813
C47	C	0.529269	-0.318437	-0.401984
C48	C	1.029269	0.181563	0.098016
C49	C	0.564180	-0.276085	-0.348755
C50	C	1.064180	0.223915	0.151245
C51	C	0.629923	-0.276096	-0.348725
C52	C	1.129923	0.223904	0.151275
N53	N	0.428790	-0.310726	-0.329069
N54	N	0.928790	0.189274	0.170931
N55	N	0.366337	-0.310719	-0.329100
N56	N	0.866337	0.189281	0.170900
C57	C	0.331191	-0.318400	-0.402073
C58	C	0.831191	0.181600	0.097927
N59	N	0.360857	-0.326100	-0.475015
N60	N	0.860857	0.173900	0.024985
N61	N	0.423316	-0.326110	-0.474983
N62	N	0.923316	0.173890	0.025017
C63	C	0.457983	-0.318420	-0.402011
C64	C	0.957983	0.181580	0.097989
C65	C	0.225001	-0.360731	-0.455343
C66	C	0.725001	0.139269	0.044657
C67	C	0.159256	-0.360712	-0.455382
C68	C	0.659256	0.139288	0.044618
C69	C	0.163331	-0.276012	-0.348943
C70	C	0.663331	0.223988	0.151057
C71	C	0.229074	-0.276028	-0.348911
C72	C	0.729074	0.223972	0.151089
C73	C	0.259906	-0.318390	-0.402110
C74	C	0.759906	0.181610	0.097890
C75	C	0.932418	-0.586756	-0.455391
C76	C	1.432418	-0.086756	0.044609
C77	C	0.932439	-0.652499	-0.455411
C78	C	1.432439	-0.152499	0.044589
C79	C	0.894264	-0.683403	-0.402035
C80	C	1.394264	-0.183403	0.097965
C81	C	0.856052	-0.648559	-0.348650
C82	C	1.356052	-0.148559	0.151350
C83	C	0.856027	-0.582817	-0.348637
C84	C	1.356027	-0.082817	0.151363
N85	N	0.892303	-0.783871	-0.329074
N86	N	1.392303	-0.283871	0.170926
N87	N	0.892330	-0.846323	-0.329089
N88	N	1.392330	-0.346323	0.170911
C89	C	0.894336	-0.881479	-0.402073
C90	C	1.394336	-0.381479	0.097927
N91	N	0.896326	-0.851824	-0.475044
N92	N	1.396326	-0.351824	0.024956
N93	N	0.896301	-0.789366	-0.475028
N94	N	1.396301	-0.289366	0.024972
C95	C	0.894286	-0.754689	-0.402044
C96	C	1.394286	-0.254689	0.097956
C97	C	0.932565	-0.987602	-0.455482
C98	C	1.432565	-0.487602	0.044518
C99	C	0.932582	-1.053347	-0.455504
C100	C	1.432582	-0.553347	0.044496
C101	C	0.856199	-1.049405	-0.348735
C102	C	1.356199	-0.549405	0.151265
C103	C	0.856178	-0.983662	-0.348720
C104	C	1.356178	-0.483662	0.151280
C105	C	0.894365	-0.952764	-0.402092
C106	C	1.394365	-0.452764	0.097908
C107	C	1.058456	-0.318372	-0.402138
C108	C	1.558456	0.181628	0.097862
C109	C	1.128423	-0.318360	-0.402180
C110	C	1.628423	0.181640	0.097820
C111	C	0.885982	-0.326690	-0.619486
C112	C	1.385982	0.173310	-0.119486
C113	C	0.882450	-0.330222	-0.712147
C114	C	1.382450	0.169778	-0.212147
C115	C	0.894365	-0.154213	-0.402102
C116	C	1.394365	0.345787	0.097898
C117	C	0.894406	-0.084246	-0.402128
C118	C	1.394406	0.415754	0.097872
C119	C	0.875979	-0.336656	-0.881801
C120	C	1.375979	0.163344	-0.381801
C121	C	0.912684	-0.299957	-0.923134
C122	C	1.412684	0.200043	-0.423134
C123	C	0.909084	-0.303538	-1.017535
C124	C	1.409084	0.196462	-0.517535
C125	C	0.879579	-0.333077	-0.787392
C126	C	1.379579	0.166923	-0.287392
C127	C	0.902561	-0.310099	-0.185443
C128	C	1.402561	0.189901	0.314557
C129	C	0.906215	-0.306390	-0.092782
C130	C	1.406215	0.193610	0.407218
H131	H	0.650950	-0.395297	-0.498470
H132	H	1.150950	0.104703	0.001530
Cl133	Cl	0.115377	-0.413946	-0.522305
Cl134	Cl	0.615377	0.086054	-0.022305
Cl135	Cl	0.673803	-0.222860	-0.281807
Cl136	Cl	1.173803	0.277140	0.218193
H137	H	0.250106	-0.395222	-0.498665
H138	H	0.750106	0.104778	0.001335
H139	H	0.531684	-0.395270	-0.498533
H140	H	1.031684	0.104730	0.001467
H141	H	0.946812	-0.265849	-0.887621
H142	H	1.446812	0.234151	-0.387621
Cl143	Cl	0.124569	-0.222766	-0.282063
Cl144	Cl	0.624569	0.277234	0.217937
H145	H	0.841854	-0.370762	-0.917311
H146	H	1.341854	0.129238	-0.417311
Cl147	Cl	0.808204	-1.088249	-0.281635
Cl148	Cl	1.308204	-0.588249	0.218365
Cl149	Cl	0.808148	-0.939865	-0.281607
Cl150	Cl	1.308148	-0.439865	0.218393
H151	H	0.539068	-0.241601	-0.305439
H152	H	1.039068	0.258399	0.194561
Cl153	Cl	0.807995	-0.539021	-0.281523
Cl154	Cl	1.307995	-0.039021	0.218477
H155	H	0.824968	-0.673725	-0.305193
H156	H	1.324968	-0.173725	0.194807
Cl157	Cl	0.272954	-0.222794	-0.281993
Cl158	Cl	0.772954	0.277206	0.218007
H159	H	0.963544	-0.680869	-0.498891
H160	H	1.463544	-0.180869	0.001109
Cl161	Cl	0.980419	-0.547917	-0.522493
Cl162	Cl	1.480419	-0.047917	-0.022493
Cl163	Cl	0.980567	-0.948757	-0.522581
Cl164	Cl	1.480567	-0.448757	-0.022581
Cl165	Cl	0.980606	-1.097142	-0.522629
Cl166	Cl	1.480606	-0.597142	-0.022629
