data_functionalizedCrystal
_audit_creation_method	'MofGen! by Chris Wilmer'
_symmetry_space_group_name_H-M	'P1'
_symmetry_Int_Tables_number	1
_symmetry_cell_setting	triclinic
loop_
_symmetry_equiv_pos_as_xyz
  x,y,z
_cell_length_a	14.971486
_cell_length_b	13.339070
_cell_length_c	14.048226
_cell_angle_alpha	89.996915
_cell_angle_beta	89.998499
_cell_angle_gamma	99.621712
loop_
_atom_site_label
_atom_site_type_symbol
_atom_site_fract_x
_atom_site_fract_y
_atom_site_fract_z
O1	O	1.219550	0.131873	-0.079045
O2	O	1.719550	0.631873	0.420955
O3	O	0.963054	0.147665	-0.079070
O4	O	1.463054	0.647665	0.420930
O5	O	1.061865	-0.007530	-0.079057
O6	O	1.561865	0.492470	0.420943
O7	O	1.120740	0.287068	-0.079057
O8	O	1.620740	0.787068	0.420943
O9	O	1.061846	-0.007539	0.079264
O10	O	1.561846	0.492461	0.579264
O11	O	0.963035	0.147656	0.079251
O12	O	1.463035	0.647656	0.579251
O13	O	1.219531	0.131864	0.079276
O14	O	1.719531	0.631864	0.579276
Zn15	Zn	1.091280	0.139758	0.104401
Zn16	Zn	1.591280	0.639758	0.604401
Zn17	Zn	1.091305	0.139770	-0.104194
Zn18	Zn	1.591305	0.639770	0.395806
O19	O	1.120721	0.287059	0.079264
O20	O	1.620721	0.787059	0.579264
C21	C	0.929545	0.146954	0.000087
C22	C	1.429545	0.646954	0.500087
C23	C	0.829725	0.144838	0.000077
C24	C	1.329725	0.644838	0.500077
C25	C	1.051910	-0.045236	0.000101
C26	C	1.551910	0.454764	0.500101
C27	C	1.022266	-0.157574	0.000094
C28	C	1.522266	0.342426	0.500094
C29	C	0.795041	0.236011	0.000079
C30	C	1.295041	0.736011	0.500079
C31	C	0.701248	0.234016	0.000093
C32	C	1.201248	0.734016	0.500093
C33	C	0.642141	0.140847	0.000099
C34	C	1.142141	0.640847	0.500099
C35	C	0.676832	0.049667	0.000101
C36	C	1.176832	0.549667	0.500101
C37	C	0.770623	0.051663	0.000093
C38	C	1.270623	0.551663	0.500093
C39	C	0.481342	0.045514	0.000114
C40	C	0.981342	0.545514	0.500114
C41	C	0.387545	0.043518	0.000119
C42	C	0.887545	0.543518	0.500119
C43	C	0.411968	0.227867	0.000114
C44	C	0.911968	0.727867	0.500114
C45	C	0.505759	0.229863	0.000106
C46	C	1.005759	0.729863	0.500106
C47	C	0.540442	0.138682	0.000106
C48	C	1.040442	0.638682	0.500106
C49	C	1.252762	-0.522088	0.000117
C50	C	1.752762	-0.022088	0.500117
C51	C	1.280617	-0.416541	0.000129
C52	C	1.780617	0.083459	0.500129
C53	C	1.216032	-0.351794	0.000120
C54	C	1.716032	0.148206	0.500120
C55	C	1.123587	-0.392604	0.000100
C56	C	1.623587	0.107396	0.500100
C57	C	1.095729	-0.498161	0.000096
C58	C	1.595729	0.001839	0.500096
C59	C	1.058999	-0.327867	0.000098
C60	C	1.558999	0.172133	0.500098
C61	C	0.966554	-0.368677	0.000078
C62	C	1.466554	0.131323	0.500078
C63	C	0.938701	-0.474224	0.000073
C64	C	1.438701	0.025776	0.500073
C65	C	1.003286	-0.538970	0.000082
C66	C	1.503286	-0.038970	0.500082
C67	C	1.086856	-0.222311	0.000102
C68	C	1.586856	0.277689	0.500102
C69	C	0.929823	-0.198383	0.000081
C70	C	1.429823	0.301617	0.500081
C71	C	0.901968	-0.303930	0.000069
C72	C	1.401968	0.196070	0.500069
C73	C	1.253040	0.132575	0.000117
C74	C	1.753040	0.632575	0.500117
C75	C	1.352860	0.134691	0.000121
C76	C	1.852860	0.634691	0.500121
C77	C	1.130675	0.324765	0.000103
C78	C	1.630675	0.824765	0.500103
C79	C	1.160319	0.437102	0.000104
C80	C	1.660319	0.937102	0.500104
N81	N	1.091270	0.139749	0.246761
N82	N	1.591270	0.639749	0.746761
N83	N	1.091321	0.139771	-0.246555
N84	N	1.591321	0.639771	0.253445
C85	C	1.135049	0.071057	0.296585
C86	C	1.635049	0.571057	0.796585
C87	C	1.135055	0.071057	0.396243
C88	C	1.635055	0.571057	0.896243
C89	C	1.091287	0.139754	0.446075
C90	C	1.591287	0.639754	0.946075
C91	C	1.047502	0.208449	0.396244
C92	C	1.547502	0.708449	0.896244
C93	C	1.047491	0.208444	0.296589
C94	C	1.547491	0.708444	0.796589
C95	C	1.047529	0.208457	0.603959
C96	C	1.547529	0.708457	1.103959
C97	C	1.047541	0.208463	0.703621
C98	C	1.547541	0.708463	1.203621
C99	C	1.135094	0.071069	0.703613
C100	C	1.635094	0.571069	1.203613
C101	C	1.135083	0.071064	0.603957
C102	C	1.635083	0.571064	1.103957
C103	C	1.091299	0.139761	0.554133
C104	C	1.591299	0.639761	1.054133
H105	H	0.843160	0.311879	0.000073
H106	H	1.343160	0.811879	0.500073
H107	H	1.170728	0.015131	0.563384
H108	H	1.670728	0.515131	1.063384
H109	H	0.673013	0.308258	0.000093
H110	H	1.173013	0.808258	0.500093
C111	C	0.999373	0.284026	0.549154
C112	C	1.499373	0.784026	1.049154
H113	H	0.973316	0.324949	0.593104
H114	H	1.473316	0.824949	1.093104
H115	H	0.953087	0.247558	0.510285
H116	H	1.453087	0.747558	1.010285
H117	H	1.042021	0.326210	0.510273
H118	H	1.542021	0.826210	1.010273
C119	C	1.183246	-0.004504	0.758414
C120	C	1.683246	0.495496	1.258414
H121	H	1.176975	0.005326	0.824903
H122	H	1.676975	0.505326	1.324903
H123	H	1.245692	0.006597	0.742076
H124	H	1.745692	0.506597	1.242076
H125	H	1.156762	-0.072061	0.742086
H126	H	1.656762	0.427939	1.242086
H127	H	0.553882	0.305729	0.000092
H128	H	1.053882	0.805729	0.500092
H129	H	0.628700	-0.026192	0.000119
H130	H	1.128700	0.473808	0.500119
C131	C	1.183203	-0.004501	0.241774
C132	C	1.683203	0.495499	0.741774
H133	H	1.176937	0.005340	0.175286
H134	H	1.676937	0.505340	0.675286
H135	H	1.156735	-0.072058	0.258112
H136	H	1.656735	0.427942	0.758112
H137	H	1.245655	0.006616	0.258101
H138	H	1.745655	0.506616	0.758101
H139	H	1.162125	-0.189094	0.000119
H140	H	1.662125	0.310906	0.500119
C141	C	0.808776	-0.048627	0.000082
C142	C	1.308776	0.451373	0.500082
H143	H	0.760143	-0.104401	0.000076
H144	H	1.260143	0.395599	0.500076
H145	H	0.844860	-0.051687	0.055288
H146	H	1.344860	0.448313	0.555288
H147	H	0.844852	-0.051673	-0.055140
H148	H	1.344852	0.448327	0.444860
H149	H	1.011840	0.264379	0.256023
H150	H	1.511840	0.764379	0.756023
H151	H	1.170703	0.015122	0.436809
H152	H	1.670703	0.515122	0.936809
C153	C	0.800284	-0.348828	0.000056
C154	C	1.300284	0.151172	0.500056
H155	H	0.792949	-0.420962	0.000062
H156	H	1.292949	0.079038	0.500062
H157	H	0.772593	-0.326611	-0.055155
H158	H	1.272593	0.173389	0.444845
H159	H	0.772582	-0.326623	0.055272
H160	H	1.272582	0.173377	0.555272
H161	H	1.011859	0.264380	0.436824
H162	H	1.511859	0.764380	0.936824
C163	C	1.323794	-0.593307	0.000131
C164	C	1.823794	-0.093307	0.500131
H165	H	1.293961	-0.662013	0.000121
H166	H	1.793961	-0.162013	0.500121
H167	H	1.360611	-0.580931	0.055346
H168	H	1.860611	-0.080931	0.555346
H169	H	1.360628	-0.580926	-0.055082
H170	H	1.860628	-0.080926	0.444918
H171	H	0.980611	-0.624916	0.000069
H172	H	1.480611	-0.124916	0.500069
H173	H	0.339422	-0.032348	0.000125
H174	H	0.839422	0.467652	0.500125
C175	C	0.837016	-0.519117	0.000057
C176	C	1.337016	-0.019117	0.500057
H177	H	0.829676	-0.591252	0.000063
H178	H	1.329676	-0.091252	0.500063
H179	H	0.809329	-0.496898	-0.055157
H180	H	1.309329	0.003102	0.444843
H181	H	0.809312	-0.496909	0.055270
H182	H	1.309312	0.003091	0.555270
H183	H	1.011899	0.264403	0.744190
H184	H	1.511899	0.764403	1.244190
C185	C	0.373824	0.328167	0.000119
C186	C	0.873824	0.828167	0.500119
H187	H	0.422459	0.383939	0.000103
H188	H	0.922459	0.883939	0.500103
H189	H	0.337748	0.331223	0.055333
H190	H	0.837748	0.831223	0.555333
H191	H	0.337741	0.331219	-0.055094
H192	H	0.837741	0.831219	0.444906
H193	H	1.238717	-0.265854	0.000130
H194	H	1.738717	0.234146	0.500130
H195	H	1.355886	-0.383322	0.000147
H196	H	1.855886	0.116678	0.500147
C197	C	0.858774	-0.127173	0.000063
C198	C	1.358774	0.372827	0.500063
H199	H	0.888605	-0.058466	0.000057
H200	H	1.388605	0.441534	0.500057
H201	H	0.821937	-0.139554	0.055266
H202	H	1.321937	0.360446	0.555266
H203	H	0.821961	-0.139552	-0.055161
H204	H	1.321961	0.360448	0.444839
C205	C	0.519493	-0.054782	0.000102
C206	C	1.019493	0.445218	0.500102
H207	H	0.470860	-0.110557	0.000094
H208	H	0.970860	0.389443	0.500094
H209	H	0.555579	-0.057848	0.055305
H210	H	1.055579	0.442152	0.555305
H211	H	0.555567	-0.057822	-0.055122
H212	H	1.055567	0.442178	0.444878
