data_functionalizedCrystal
_audit_creation_method	'MofGen! by Chris Wilmer'
_symmetry_space_group_name_H-M	'P1'
_symmetry_Int_Tables_number	1
_symmetry_cell_setting	triclinic
loop_
_symmetry_equiv_pos_as_xyz
  x,y,z
_cell_length_a	12.837943
_cell_length_b	10.540510
_cell_length_c	11.892095
_cell_angle_alpha	93.930478
_cell_angle_beta	85.689438
_cell_angle_gamma	89.671125
loop_
_atom_site_label
_atom_site_type_symbol
_atom_site_fract_x
_atom_site_fract_y
_atom_site_fract_z
O1	O	1.384442	0.322968	-0.093971
O2	O	1.082518	0.306652	-0.093978
O3	O	1.240384	0.130860	-0.093974
O4	O	1.226576	0.498760	-0.093975
O5	O	1.227222	0.145492	0.094033
O6	O	1.069355	0.321284	0.094029
O7	O	1.371280	0.337600	0.094036
Zn8	Zn	1.218227	0.331766	0.123883
Zn9	Zn	1.235570	0.312487	-0.123825
O10	O	1.213413	0.513393	0.094032
C11	C	1.037276	0.308456	0.000024
C12	C	0.922079	0.292018	0.000021
C13	C	1.232774	0.090759	0.000027
C14	C	1.229696	-0.050530	0.000020
C15	C	0.682565	0.489638	0.000037
C16	C	0.574326	0.474199	0.000035
C17	C	0.597360	0.245701	0.000023
C18	C	0.705599	0.261140	0.000025
C19	C	0.748197	0.383113	0.000030
C20	C	0.856438	0.398551	0.000024
C21	C	0.879469	0.170055	0.000021
C22	C	0.771231	0.154615	0.000019
C23	C	1.339335	-0.255902	0.000453
C24	C	1.342649	-0.108979	0.000024
C25	C	1.179391	-0.109997	-0.107340
C26	C	1.176913	-0.257037	-0.107424
C27	C	1.159592	-0.240464	0.106375
C28	C	1.164851	-0.093425	0.107788
C29	C	1.416522	0.335796	0.000031
C30	C	1.531720	0.352234	0.000026
C31	C	1.221024	0.553493	0.000028
C32	C	1.224102	0.694781	0.000028
N33	N	1.206399	0.344923	0.292936
N34	N	1.247406	0.299321	-0.292879
C35	C	1.329712	0.207694	0.529587
C36	C	1.321452	0.216901	0.647929
C37	C	1.181614	0.372536	0.647963
C38	C	1.189874	0.363329	0.529622
C39	C	1.263927	0.280907	0.470438
C40	C	1.272192	0.271707	0.352094
C41	C	1.132349	0.427335	0.352131
C42	C	1.124089	0.436542	0.470472
H43	H	0.891119	0.497867	0.000030
Cl44	Cl	0.736122	0.642969	0.000027
H45	H	1.375020	0.157282	0.696085
Cl46	Cl	1.415165	-0.324844	-0.117743
H47	H	1.393551	-0.081574	-0.077067
H48	H	0.932920	0.083313	0.000008
Cl49	Cl	1.036826	-0.030886	0.117796
Cl50	Cl	1.398960	-0.303959	0.119327
Cl51	Cl	1.049651	0.519386	0.277760
Cl52	Cl	1.088514	0.476132	0.722377
H53	H	0.520891	0.560944	0.000043
Cl54	Cl	1.030996	0.540151	0.544883
H55	H	1.332491	0.204599	0.303908
H56	H	1.222047	-0.299157	-0.187676
Cl57	Cl	0.717668	0.001287	0.000016
H58	H	0.562650	0.146404	0.000113
H59	H	1.092771	-0.289693	-0.112290
H60	H	1.382502	-0.068675	0.076982
H61	H	1.201363	-0.054009	0.187212
Cl62	Cl	1.028582	-0.288963	0.107492
H63	H	1.096517	-0.072054	-0.111334
H64	H	1.225140	-0.080946	-0.187236
H65	H	1.189790	-0.272369	0.187754
H66	H	1.390016	0.140591	0.481399
