data_functionalizedCrystal
_audit_creation_method	'MofGen! by Chris Wilmer'
_symmetry_space_group_name_H-M	'P1'
_symmetry_Int_Tables_number	1
_symmetry_cell_setting	triclinic
loop_
_symmetry_equiv_pos_as_xyz
  x,y,z
_cell_length_a	16.109301
_cell_length_b	17.019294
_cell_length_c	14.586319
_cell_angle_alpha	86.117240
_cell_angle_beta	89.998857
_cell_angle_gamma	83.427995
loop_
_atom_site_label
_atom_site_type_symbol
_atom_site_fract_x
_atom_site_fract_y
_atom_site_fract_z
O1	O	1.103039	0.101396	-0.084193
O2	O	1.603039	0.601396	0.415807
O3	O	0.860966	0.114014	-0.085202
O4	O	1.360966	0.614014	0.414798
O5	O	0.988756	-0.007130	-0.075627
O6	O	1.488756	0.492870	0.424373
O7	O	0.975250	0.222539	-0.093768
O8	O	1.475250	0.722539	0.406232
O9	O	0.988747	-0.007131	0.076854
O10	O	1.488747	0.492869	0.576854
O11	O	0.860957	0.114012	0.067279
O12	O	1.360957	0.614012	0.567279
O13	O	1.103030	0.101394	0.068288
O14	O	1.603030	0.601394	0.568288
Cu15	Cu	0.981993	0.107703	0.081706
Cu16	Cu	1.481993	0.607703	0.581706
Cu17	Cu	0.982003	0.107705	-0.098621
Cu18	Cu	1.482003	0.607705	0.401379
O19	O	0.975241	0.222537	0.058713
O20	O	1.475241	0.722537	0.558713
C21	C	0.829987	0.113502	-0.008923
C22	C	1.329987	0.613502	0.491077
C23	C	0.737693	0.111969	-0.008807
C24	C	1.237693	0.611969	0.491193
C25	C	0.988239	-0.036520	0.002933
C26	C	1.488239	0.463480	0.502933
C27	C	0.986703	-0.124090	0.009843
C28	C	1.486703	0.375910	0.509843
C29	C	0.428635	0.178844	-0.014073
C30	C	0.928635	0.678844	0.485927
C31	C	0.515354	0.180291	-0.014193
C32	C	1.015354	0.680291	0.485807
C33	C	0.535356	0.036558	-0.002852
C34	C	1.035356	0.536558	0.497148
C35	C	0.448639	0.035112	-0.002739
C36	C	0.948639	0.535112	0.497261
C37	C	0.395280	0.106257	-0.008345
C38	C	0.895280	0.606257	0.491655
C39	C	0.568716	0.109151	-0.008578
C40	C	1.068716	0.609151	0.491422
C41	C	0.662741	0.110719	-0.008707
C42	C	1.162741	0.610719	0.491293
C43	C	0.301249	0.104689	-0.008217
C44	C	0.801249	0.604689	0.491783
C45	C	0.985988	-0.165225	-0.070027
C46	C	1.485988	0.334775	0.429973
C47	C	0.984539	-0.247505	-0.063530
C48	C	1.484539	0.252495	0.436470
C49	C	0.983811	-0.288650	0.022837
C50	C	1.483811	0.211350	0.522837
C51	C	0.984524	-0.247509	0.102713
C52	C	1.484524	0.252491	0.602713
C53	C	0.985967	-0.165229	0.096216
C54	C	1.485967	0.334771	0.596216
C55	C	0.979449	-0.537082	0.046613
C56	C	1.479449	-0.037082	0.546613
C57	C	0.978009	-0.619368	0.053104
C58	C	1.478009	-0.119368	0.553104
C59	C	0.978022	-0.619358	-0.113140
C60	C	1.478022	-0.119358	0.386860
C61	C	0.979470	-0.537077	-0.119630
C62	C	1.479470	-0.037077	0.380370
C63	C	0.980178	-0.495943	-0.039754
C64	C	1.480178	0.004057	0.460246
C65	C	0.982333	-0.372754	0.029479
C66	C	1.482333	0.127246	0.529479
C67	C	0.981651	-0.411839	-0.046397
C68	C	1.481651	0.088161	0.453603
C69	C	1.134009	0.101906	-0.007994
C70	C	1.634009	0.601906	0.492006
C71	C	1.226303	0.103438	-0.008116
C72	C	1.726303	0.603438	0.491884
C73	C	0.975757	0.251927	-0.019849
C74	C	1.475757	0.751927	0.480151
C75	C	0.977294	0.339497	-0.026766
C76	C	1.477294	0.839497	0.473234
N77	N	0.981992	0.107701	0.208538
N78	N	1.481992	0.607701	0.708538
N79	N	0.982011	0.107701	-0.225452
N80	N	1.482011	0.607701	0.274548
C81	C	1.038596	0.054076	0.447783
C82	C	1.538596	0.554076	0.947783
C83	C	1.038598	0.054075	0.543764
C84	C	1.538598	0.554075	1.043764
C85	C	0.925401	0.161328	0.535296
C86	C	1.425401	0.661328	1.035296
C87	C	0.925396	0.161325	0.439317
C88	C	1.425396	0.661325	0.939317
C89	C	0.981997	0.107700	0.395563
C90	C	1.481997	0.607700	0.895563
C91	C	0.982006	0.107701	0.587523
C92	C	1.482006	0.607701	1.087523
C93	C	0.982008	0.107699	0.691590
C94	C	1.482008	0.607699	1.191590
C95	C	0.981994	0.107701	0.291489
C96	C	1.481994	0.607701	0.791489
H97	H	0.385192	0.236775	-0.018639
H98	H	0.885192	0.736775	0.481361
H99	H	0.542506	0.239398	-0.018858
H100	H	1.042506	0.739398	0.481142
C101	C	1.087550	-0.082480	0.429073
C102	C	1.587550	0.417520	0.929073
C103	C	1.100803	-0.004892	0.399711
C104	C	1.600803	0.495108	0.899711
H105	H	1.125951	-0.118891	0.399400
H106	H	1.625951	0.381109	0.899400
H107	H	1.095641	-0.090128	0.493704
H108	H	1.595641	0.409872	0.993704
H109	H	1.032071	-0.091044	0.414013
H110	H	1.532071	0.408956	0.914013
H111	H	1.156280	0.003674	0.414778
H112	H	1.656280	0.503674	0.914778
H113	H	1.092718	0.002759	0.335066
H114	H	1.592718	0.502759	0.835066
H115	H	0.879303	0.204993	0.396796
H116	H	1.379303	0.704993	0.896796
H117	H	0.578811	-0.021365	0.001715
H118	H	1.078811	0.478635	0.501715
C119	C	0.988167	-0.039100	0.160070
C120	C	1.488167	0.460900	0.660070
C121	C	0.986753	-0.120009	0.184010
C122	C	1.486753	0.379991	0.684010
H123	H	0.988644	-0.011185	0.214274
H124	H	1.488644	0.488815	0.714274
H125	H	1.036863	-0.031645	0.125341
H126	H	1.536863	0.468355	0.625341
H127	H	0.939943	-0.019598	0.124372
H128	H	1.439943	0.480402	0.624372
H129	H	1.034980	-0.139513	0.219704
H130	H	1.534980	0.360487	0.719704
H131	H	0.938051	-0.127469	0.218755
H132	H	1.438051	0.372531	0.718755
C133	C	0.477115	-0.106823	0.008470
C134	C	0.977115	0.393177	0.508470
C135	C	0.411970	-0.044682	0.003561
C136	C	0.911970	0.455318	0.503561
H137	H	0.454475	-0.156081	0.012362
H138	H	0.954475	0.343919	0.512362
H139	H	0.510522	-0.103268	-0.044980
H140	H	1.010522	0.396732	0.455020
H141	H	0.510522	-0.103269	0.061368
H142	H	1.010522	0.396731	0.561368
H143	H	0.378566	-0.048233	-0.049340
H144	H	0.878566	0.451767	0.450660
H145	H	0.378549	-0.048239	0.057017
H146	H	0.878549	0.451761	0.557017
H147	H	1.084684	0.010408	0.586279
H148	H	1.584684	0.510408	1.086279
H149	H	0.981743	-0.406264	0.099800
H150	H	1.481743	0.093736	0.599800
H151	H	0.977412	-0.652865	0.123438
H152	H	1.477412	-0.152865	0.623438
H153	H	0.980042	-0.503602	0.111654
H154	H	1.480042	-0.003602	0.611654
C155	C	0.875155	0.208961	0.678666
C156	C	1.375155	0.708961	1.178666
C157	C	0.863195	0.220277	0.583394
C158	C	1.363195	0.720277	1.083394
H159	H	0.836754	0.245361	0.708356
H160	H	1.336754	0.745361	1.208356
H161	H	0.866186	0.156319	0.698556
H162	H	1.366186	0.656319	1.198556
H163	H	0.930634	0.217543	0.693700
H164	H	1.430634	0.717543	1.193700
H165	H	0.807717	0.211690	0.568360
H166	H	1.307717	0.711690	1.068360
H167	H	0.872157	0.272932	0.563498
H168	H	1.372157	0.772932	1.063498
H169	H	0.986585	-0.131731	-0.140356
H170	H	1.486585	0.368269	0.359644
H171	H	0.980064	-0.503583	-0.189959
H172	H	1.480064	-0.003583	0.310041
C173	C	0.984771	-0.239240	-0.228504
C174	C	1.484771	0.260760	0.271496
C175	C	0.983800	-0.292727	-0.151326
C176	C	1.483800	0.207273	0.348674
H177	H	0.984331	-0.267162	-0.282707
H178	H	1.484331	0.232838	0.217293
H179	H	0.936865	-0.201135	-0.228091
H180	H	1.436865	0.298865	0.271909
H181	H	1.033785	-0.213160	-0.227062
H182	H	1.533785	0.286840	0.272938
H183	H	0.934782	-0.318803	-0.152765
H184	H	1.434782	0.181197	0.347235
H185	H	1.031710	-0.330846	-0.151740
H186	H	1.531710	0.169154	0.348260
H187	H	0.983926	-0.281015	0.173035
H188	H	1.483926	0.218985	0.673035
C189	C	0.975809	-0.745482	-0.177000
C190	C	1.475809	-0.245482	0.323000
C191	C	0.977233	-0.664574	-0.200936
C192	C	1.477233	-0.164574	0.299064
H193	H	0.975313	-0.773393	-0.231206
H194	H	1.475313	-0.273393	0.268794
H195	H	1.024029	-0.764992	-0.141315
H196	H	1.524029	-0.264992	0.358685
H197	H	0.927109	-0.752931	-0.142259
H198	H	1.427109	-0.252931	0.357741
H199	H	1.025936	-0.657124	-0.235672
H200	H	1.525936	-0.157124	0.264328
H201	H	0.929008	-0.645058	-0.236636
H202	H	1.429008	-0.145058	0.263364
H203	H	0.982238	-0.378335	-0.116717
H204	H	1.482238	0.121665	0.383283
