data_functionalizedCrystal
_audit_creation_method	'MofGen! by Chris Wilmer'
_symmetry_space_group_name_H-M	'P1'
_symmetry_Int_Tables_number	1
_symmetry_cell_setting	triclinic
loop_
_symmetry_equiv_pos_as_xyz
  x,y,z
_cell_length_a	9.065215
_cell_length_b	10.489741
_cell_length_c	8.140239
_cell_angle_alpha	90.002883
_cell_angle_beta	90.000939
_cell_angle_gamma	84.776936
loop_
_atom_site_label
_atom_site_type_symbol
_atom_site_fract_x
_atom_site_fract_y
_atom_site_fract_z
O1	O	1.959494	0.187025	0.136594
O2	O	1.530135	0.202371	0.136601
O3	O	1.754584	0.009135	0.136587
O4	O	1.735044	0.380260	0.136607
O5	O	1.754577	0.009134	-0.136640
O6	O	1.530127	0.202369	-0.136626
O7	O	1.959487	0.187023	-0.136634
Zn8	Zn	1.744806	0.194696	-0.180011
Zn9	Zn	1.744815	0.194698	0.179978
O10	O	1.735037	0.380259	-0.136620
C11	C	1.475151	0.200896	-0.000012
C12	C	1.311330	0.196489	-0.000009
C13	C	1.753105	-0.038403	-0.000025
C14	C	1.748689	-0.180048	-0.000022
C15	C	1.605879	-0.248703	-0.000008
C16	C	1.673338	-0.340583	-0.134724
C17	C	1.673379	-0.340556	0.134656
C18	C	1.816207	-0.270063	-0.134850
C19	C	1.816228	-0.270026	0.134652
C20	C	1.883791	-0.361879	-0.000097
C21	C	2.014470	0.188498	-0.000017
C22	C	2.178292	0.192905	-0.000009
C23	C	1.736517	0.427797	-0.000004
C24	C	1.740932	0.569442	0.000004
N25	N	1.744810	0.194694	-0.425693
N26	N	1.744823	0.194690	0.425660
H27	H	1.488461	-0.199474	-0.000141
H28	H	1.612908	-0.371813	-0.248615
H29	H	1.876578	-0.239014	-0.248870
H30	H	2.001315	-0.410879	-0.000174
C31	C	1.897795	-0.227786	0.288523
N32	N	1.959221	-0.195967	0.404432
H33	H	1.612937	-0.371737	0.248559
