data_functionalizedCrystal
_audit_creation_method	'MofGen! by Chris Wilmer'
_symmetry_space_group_name_H-M	'P1'
_symmetry_Int_Tables_number	1
_symmetry_cell_setting	triclinic
loop_
_symmetry_equiv_pos_as_xyz
  x,y,z
_cell_length_a	14.044191
_cell_length_b	11.792254
_cell_length_c	10.268362
_cell_angle_alpha	90.004525
_cell_angle_beta	89.998454
_cell_angle_gamma	91.304813
loop_
_atom_site_label
_atom_site_type_symbol
_atom_site_fract_x
_atom_site_fract_y
_atom_site_fract_z
O1	O	-0.130045	1.519112	0.108289
O2	O	0.369955	2.019112	0.608289
O3	O	-0.143429	1.190030	0.108290
O4	O	0.356571	1.690030	0.608290
O5	O	0.001273	1.349627	0.108292
O6	O	0.501273	1.849627	0.608292
O7	O	-0.274747	1.359515	0.108287
O8	O	0.225253	1.859515	0.608287
O9	O	0.001279	1.349612	-0.108309
O10	O	0.501279	1.849612	0.391691
O11	O	-0.143423	1.190014	-0.108310
O12	O	0.356577	1.690014	0.391690
O13	O	-0.130039	1.519097	-0.108312
O14	O	0.369961	2.019097	0.391688
Cu15	Cu	-0.136730	1.354554	-0.128088
Cu16	Cu	0.363270	1.854554	0.371912
Cu17	Cu	-0.136738	1.354573	0.128067
Cu18	Cu	0.363262	1.854573	0.628067
O19	O	-0.274741	1.359499	-0.108314
O20	O	0.225259	1.859499	0.391686
C21	C	-0.142583	1.147652	-0.000009
C22	C	0.357417	1.647652	0.499991
C23	C	-0.140059	1.021402	-0.000008
C24	C	0.359941	1.521402	0.499992
C25	C	-0.138009	0.918873	-0.000003
C26	C	0.361991	1.418873	0.499997
C27	C	-0.135445	0.790246	-0.000002
C28	C	0.364555	1.290246	0.499998
C29	C	-0.310081	1.363832	-0.000014
C30	C	0.189919	1.863832	0.499986
C31	C	-0.415374	1.376735	-0.000015
C32	C	0.084626	1.876735	0.499985
C33	C	-0.665309	1.308817	-0.000004
C34	C	-0.165309	1.808817	0.499996
C35	C	-0.608153	1.400304	-0.000006
C36	C	-0.108153	1.900304	0.499994
C37	C	-0.500881	1.387187	-0.000011
C38	C	-0.000881	1.887187	0.499989
C39	C	-0.772591	1.321933	0.000001
C40	C	-0.272591	1.821933	0.500001
C41	C	0.036613	1.345294	-0.000005
C42	C	0.536613	1.845294	0.499995
C43	C	0.141906	1.332392	0.000005
C44	C	0.641906	1.832392	0.500005
C45	C	-0.130885	1.561474	-0.000009
C46	C	0.369115	2.061474	0.499991
C47	C	-0.133409	1.687724	-0.000002
C48	C	0.366591	2.187724	0.499998
N49	N	-0.136725	1.354549	-0.308254
N50	N	0.363275	1.854549	0.191746
C51	C	-0.136736	1.354567	-0.573925
C52	C	0.363264	1.854567	-0.073925
C53	C	-0.136732	1.354554	-0.426087
C54	C	0.363268	1.854554	0.073913
N55	N	-0.136736	1.354586	0.308233
N56	N	0.363264	1.854586	0.808233
H57	H	-0.639785	1.488480	0.000087
H58	H	-0.139785	1.988480	0.500087
O59	O	-0.623421	1.192021	-0.000032
O60	O	-0.123421	1.692021	0.499968
H61	H	-0.544516	1.199919	-0.000053
H62	H	-0.044516	1.699919	0.499947
