data_functionalizedCrystal
_audit_creation_method	'MofGen! by Chris Wilmer'
_symmetry_space_group_name_H-M	'P1'
_symmetry_Int_Tables_number	1
_symmetry_cell_setting	triclinic
loop_
_symmetry_equiv_pos_as_xyz
  x,y,z
_cell_length_a	16.992694
_cell_length_b	16.992695
_cell_length_c	15.455313
_cell_angle_alpha	92.847427
_cell_angle_beta	87.142206
_cell_angle_gamma	90.668223
loop_
_atom_site_label
_atom_site_type_symbol
_atom_site_fract_x
_atom_site_fract_y
_atom_site_fract_z
O1	O	1.054080	0.163694	-0.072023
O2	O	0.825681	0.161862	-0.072048
O3	O	0.938965	0.048579	-0.072029
O4	O	0.940797	0.276978	-0.072042
O5	O	0.932485	0.055028	0.072232
O6	O	0.819202	0.168312	0.072213
O7	O	1.047601	0.170144	0.072238
Cu8	Cu	0.932809	0.169817	0.085398
Cu9	Cu	0.940473	0.162189	-0.085207
O10	O	0.934317	0.283428	0.072219
C11	C	0.793081	0.162731	0.000079
C12	C	0.705597	0.155702	0.000070
C13	C	0.659607	0.223520	0.000066
C14	C	0.577405	0.216911	0.000079
C15	C	0.541197	0.142484	0.000088
C16	C	0.587193	0.074661	0.000094
C17	C	0.669393	0.081271	0.000088
C18	C	0.295881	0.115091	0.000113
C19	C	0.213676	0.108486	0.000116
C20	C	0.203893	0.250737	0.000103
C21	C	0.286095	0.257340	0.000091
C22	C	0.332084	0.189517	0.000102
N23	N	0.457174	0.135727	0.000098
N24	N	0.416105	0.196275	0.000098
C25	C	0.933369	0.022443	0.000102
C26	C	0.926341	-0.065041	0.000101
C27	C	0.994158	-0.111032	0.000109
C28	C	0.987550	-0.193233	0.000100
C29	C	0.913123	-0.229442	0.000089
C30	C	0.845300	-0.183445	0.000078
C31	C	0.851910	-0.101246	0.000081
C32	C	0.885729	-0.474757	0.000074
C33	C	0.879124	-0.556962	0.000074
C34	C	1.021375	-0.566744	0.000094
C35	C	1.027977	-0.484543	0.000102
C36	C	0.960155	-0.438554	0.000087
N37	N	0.906366	-0.313464	0.000082
N38	N	0.966913	-0.354533	0.000087
C39	C	1.080201	0.169275	0.000109
C40	C	1.167685	0.176304	0.000113
C41	C	0.939913	0.309563	0.000087
C42	C	0.946942	0.397047	0.000082
N43	N	0.927425	0.175181	0.205392
N44	N	0.945863	0.156819	-0.205202
C45	C	0.975571	0.127074	0.250795
C46	C	0.971507	0.131139	0.341602
C47	C	0.919301	0.183315	0.387005
C48	C	0.871149	0.231424	0.341596
C49	C	0.875210	0.227355	0.250791
C50	C	0.901772	0.200858	0.658584
C51	C	0.897717	0.204926	0.749395
C52	C	0.998074	0.104639	0.749395
C53	C	1.002133	0.100578	0.658588
C54	C	0.953979	0.148684	0.613187
N55	N	0.915147	0.187473	0.479825
N56	N	0.958129	0.144522	0.520369
H57	H	0.166440	0.305954	0.000096
H58	H	0.539963	0.272136	0.000075
N59	N	0.765027	-0.222502	0.000069
H60	H	0.732681	-0.203667	0.053543
H61	H	0.737549	-0.208436	-0.053448
H62	H	0.836004	0.266527	0.213825
N63	N	0.812581	-0.425160	0.000061
H64	H	0.764431	-0.460574	0.000058
H65	H	0.809821	-0.388454	0.053540
H66	H	0.184198	0.047876	0.000123
H67	H	0.796685	-0.063801	0.000073
H68	H	0.862564	0.240030	0.621625
H69	H	1.010711	0.091966	0.378568
N70	N	0.325148	0.337614	0.000065
H71	H	0.283539	0.379575	0.000060
H72	H	0.356652	0.345855	0.053536
N73	N	0.345478	0.041943	0.000130
H74	H	0.310064	-0.006207	0.000135
H75	H	0.382195	0.039188	-0.053348
N76	N	0.718995	0.008120	0.000089
H77	H	0.755714	0.005298	-0.053389
H78	H	0.750870	0.010129	0.053602
N79	N	0.698661	0.303794	0.000060
H80	H	0.734940	0.307316	-0.053421
H81	H	0.657004	0.345707	0.000095
H82	H	0.557705	0.014061	0.000114
H83	H	1.054764	-0.081557	0.000124
H84	H	1.042774	-0.230675	0.000109
H85	H	1.088584	-0.455068	0.000112
N86	N	1.031885	0.070803	0.201827
H87	H	1.061767	0.040944	0.244372
H88	H	1.001255	0.032408	0.164162
N89	N	1.094522	-0.616346	0.000113
H90	H	1.079045	-0.673913	0.000110
H91	H	1.129139	-0.606502	-0.053362
H92	H	0.828638	0.273904	0.378569
N93	N	1.058442	0.044304	0.609619
H94	H	1.088326	0.014443	0.652161
H95	H	1.027812	0.005909	0.571953
H96	H	0.855202	0.247417	0.786359
N97	N	0.798846	-0.596019	0.000060
H98	H	0.756883	-0.554413	0.000048
H99	H	0.795415	-0.632301	-0.053419
N100	N	1.050008	0.052756	0.798362
H101	H	1.039516	0.063248	0.862776
H102	H	1.038127	-0.004374	0.782500
