data_functionalizedCrystal
_audit_creation_method	'MofGen! by Chris Wilmer'
_symmetry_space_group_name_H-M	'P1'
_symmetry_Int_Tables_number	1
_symmetry_cell_setting	triclinic
loop_
_symmetry_equiv_pos_as_xyz
  x,y,z
_cell_length_a	14.971486
_cell_length_b	6.394989
_cell_length_c	13.448316
_cell_angle_alpha	90.003556
_cell_angle_beta	89.998199
_cell_angle_gamma	94.944080
loop_
_atom_site_label
_atom_site_type_symbol
_atom_site_fract_x
_atom_site_fract_y
_atom_site_fract_z
O1	O	1.189891	-0.272213	-0.082571
O2	O	0.929844	-0.304810	-0.082597
O3	O	1.063559	0.015543	-0.082584
O4	O	1.056176	-0.592567	-0.082583
O5	O	1.063541	0.015563	0.082800
O6	O	0.929826	-0.304791	0.082787
O7	O	1.189874	-0.272193	0.082813
Cu8	Cu	1.059848	-0.288490	0.097901
Cu9	Cu	1.059869	-0.288513	-0.097685
O10	O	1.056159	-0.592547	0.082800
C11	C	0.896494	-0.303343	0.000091
C12	C	0.797150	-0.298974	0.000081
C13	C	0.741960	-0.487173	0.000083
C14	C	0.648616	-0.483056	0.000098
C15	C	0.610464	-0.290737	0.000104
C16	C	0.665661	-0.102524	0.000105
C17	C	0.759003	-0.106643	0.000097
C18	C	0.471106	-0.093951	0.000119
C19	C	0.377757	-0.089830	0.000125
C20	C	0.360719	-0.470364	0.000119
C21	C	0.454061	-0.474483	0.000111
C22	C	0.509252	-0.286268	0.000111
C23	C	1.223223	-0.273661	0.000122
C24	C	1.322567	-0.278029	0.000126
C25	C	1.062090	0.093378	0.000104
C26	C	1.057629	0.329624	0.000102
N27	N	1.059840	-0.288472	0.235465
N28	N	1.059884	-0.288515	-0.235249
C29	C	1.119069	-0.146678	0.287511
C30	C	1.119074	-0.146676	0.391614
C31	C	1.059855	-0.288480	0.443670
C32	C	1.000620	-0.430282	0.391616
C33	C	1.000611	-0.430272	0.287515
C34	C	1.000645	-0.430296	0.608596
C35	C	1.000655	-0.430309	0.712705
C36	C	1.119109	-0.146700	0.712696
C37	C	1.119099	-0.146690	0.608594
C38	C	1.059865	-0.288495	0.556548
H39	H	0.634590	0.054066	0.000124
H40	H	0.952380	-0.545732	0.245140
C41	C	0.300016	-0.677410	0.000125
C42	C	0.233495	-0.726914	-0.085746
C43	C	0.172789	-0.933953	-0.085747
C44	C	0.178606	-1.091488	0.000125
C45	C	0.245130	-1.041987	0.086002
C46	C	0.305835	-0.834948	0.086002
H47	H	0.229187	-0.610294	-0.149319
H48	H	0.123544	-0.970595	-0.149319
H49	H	0.133668	-1.244750	0.000124
H50	H	0.249438	-1.158608	0.149575
H51	H	0.355080	-0.798306	0.149575
C52	C	1.184240	0.009289	0.551328
C53	C	1.180067	0.247164	0.565645
C54	C	1.245205	0.403147	0.508377
C55	C	1.314517	0.321256	0.436793
C56	C	1.318693	0.083369	0.422473
C57	C	1.253554	-0.072615	0.479741
H58	H	1.128755	0.307795	0.618638
H59	H	1.242114	0.579247	0.518977
H60	H	1.362737	0.436724	0.394400
H61	H	1.370004	0.022737	0.369479
H62	H	1.256646	-0.248715	0.469140
H63	H	0.803939	0.046608	0.000096
H64	H	1.167296	-0.031213	0.245135
H65	H	0.346697	0.066773	0.000131
H66	H	1.167339	-0.031239	0.755078
H67	H	0.952398	-0.545735	0.434006
H68	H	0.516040	0.059314	0.000120
C69	C	0.935507	-0.586284	0.769963
C70	C	0.870346	-0.742236	0.712711
C71	C	0.805195	-0.898213	0.769967
C72	C	0.805205	-0.898238	0.884474
C73	C	0.870368	-0.742280	0.941733
C74	C	0.935519	-0.586303	0.884477
H75	H	0.870337	-0.742222	0.627940
H76	H	0.756957	-1.013663	0.727580
H77	H	0.756977	-1.013702	0.926858
H78	H	0.870378	-0.742293	1.026504
H79	H	0.983757	-0.470853	0.926864
H80	H	0.952408	-0.545761	0.566224
H81	H	0.773016	-0.643782	0.000077
H82	H	1.167302	-0.031215	0.433990
H83	H	0.603684	-0.636307	0.000098
H84	H	0.485121	-0.631086	0.000097
