data_functionalizedCrystal
_audit_creation_method	'MofGen! by Chris Wilmer'
_symmetry_space_group_name_H-M	'P1'
_symmetry_Int_Tables_number	1
_symmetry_cell_setting	triclinic
loop_
_symmetry_equiv_pos_as_xyz
  x,y,z
_cell_length_a	17.000371
_cell_length_b	17.038272
_cell_length_c	14.185569
_cell_angle_alpha	75.875097
_cell_angle_beta	102.092178
_cell_angle_gamma	83.355402
loop_
_atom_site_label
_atom_site_type_symbol
_atom_site_fract_x
_atom_site_fract_y
_atom_site_fract_z
O1	O	1.041224	0.046924	-0.083423
O2	O	0.811403	0.075169	-0.083424
O3	O	0.924949	-0.052677	-0.083416
O4	O	0.927678	0.174770	-0.083432
O5	O	0.958492	-0.090441	0.083421
O6	O	0.844946	0.037406	0.083413
O7	O	1.074767	0.009160	0.083414
Cu8	Cu	0.962919	0.019835	0.098647
Cu9	Cu	0.923251	0.064494	-0.098657
O10	O	0.961221	0.137007	0.083405
C11	C	0.798624	0.057804	-0.000006
C12	C	0.710570	0.062316	-0.000006
C13	C	0.939236	-0.100517	0.000003
C14	C	0.931823	-0.186802	0.000002
C15	C	0.673846	-0.007108	0.000000
C16	C	0.591108	-0.002863	-0.000007
C17	C	0.545099	0.070805	-0.000014
C18	C	0.581829	0.140234	-0.000024
C19	C	0.664563	0.135990	-0.000023
C20	C	0.295062	0.087201	-0.000022
C21	C	0.212323	0.091439	-0.000019
C22	C	0.221607	-0.051658	-0.000005
C23	C	0.304344	-0.055897	0.000002
C24	C	0.341066	0.013533	-0.000013
C25	C	0.460529	0.075145	-0.000019
C26	C	0.425633	0.009194	-0.000016
C27	C	0.999882	-0.241578	0.000004
C28	C	0.992910	-0.322649	-0.000006
C29	C	0.917880	-0.348944	-0.000010
C30	C	0.849816	-0.294161	-0.000014
C31	C	0.856787	-0.213090	-0.000012
C32	C	0.893252	-0.593012	-0.000024
C33	C	0.886286	-0.674091	-0.000023
C34	C	1.029381	-0.702573	-0.000016
C35	C	1.036347	-0.621500	-0.000008
C36	C	0.968281	-0.566723	-0.000018
C37	C	0.910753	-0.431812	-0.000016
C38	C	0.975408	-0.483855	-0.000018
C39	C	1.087546	0.026525	-0.000007
C40	C	1.175598	0.022016	-0.000013
C41	C	0.946933	0.184847	-0.000015
C42	C	0.954345	0.271133	-0.000021
N43	N	0.990825	-0.011577	0.237420
N44	N	0.895351	0.095899	-0.237430
C45	C	0.813360	0.188153	0.605057
C46	C	0.834504	0.164364	0.710080
C47	C	0.935074	0.051194	0.710048
C48	C	0.913935	0.074971	0.605023
C49	C	0.853078	0.143452	0.552535
C50	C	0.953653	0.030270	0.552502
C51	C	0.932519	0.054049	0.447486
C52	C	0.871666	0.122528	0.394991
C53	C	0.831944	0.167230	0.447519
C54	C	1.014514	-0.038207	0.604992
C55	C	1.054232	-0.082908	0.552470
C56	C	1.033094	-0.059133	0.447452
C57	C	0.972241	0.009346	0.394957
C58	C	1.072816	-0.103836	0.394924
C59	C	1.051682	-0.080057	0.289908
C60	C	0.951107	0.033124	0.289941
H61	H	0.561211	-0.059394	-0.000003
O62	O	0.994287	-0.015252	0.760989
C63	C	1.068397	-0.002154	0.735284
H64	H	1.067204	0.066663	0.706423
H65	H	1.121446	-0.029464	0.804333
H66	H	1.076467	-0.033070	0.674314
O67	O	1.059056	-0.375751	-0.000133
C68	C	1.086906	-0.345048	-0.086545
H69	H	1.065829	-0.275613	-0.115351
H70	H	1.156503	-0.359699	-0.067104
H71	H	1.060909	-0.375003	-0.147055
O72	O	1.034917	-0.061363	0.707005
C73	C	0.965708	-0.079991	0.742114
H74	H	0.920389	-0.096457	0.681604
H75	H	0.985176	-0.134293	0.812365
H76	H	0.935594	-0.024288	0.760765
O77	O	1.109246	-0.595956	0.000166
C78	C	1.134918	-0.569455	0.086561
H79	H	1.104363	-0.599483	0.146954
H80	H	1.204106	-0.587691	0.115563
H81	H	1.117044	-0.499764	0.067027
H82	H	1.122372	-0.159589	0.437673
O83	O	0.837889	-0.457426	-0.000145
C84	C	0.812196	-0.483886	-0.086566
H85	H	0.867479	-0.501864	-0.115379
H86	H	0.780932	-0.539275	-0.067133
H87	H	0.767404	-0.431919	-0.147066
O88	O	1.095404	-0.755877	-0.000060
C89	C	1.073172	-0.833078	-0.000038
H90	H	1.004382	-0.824761	-0.031623
H91	H	1.106476	-0.862016	-0.048479
H92	H	1.090680	-0.874882	0.080001
O93	O	0.348908	-0.127513	-0.000035
C94	C	0.298757	-0.187886	-0.000002
H95	H	0.232071	-0.156739	-0.031596
H96	H	0.316173	-0.228192	-0.048428
H97	H	0.307474	-0.227545	0.080042
O98	O	0.827066	-0.539928	0.000025
C99	C	0.759348	-0.580521	0.000004
H100	H	0.781709	-0.649638	0.031585
H101	H	0.721064	-0.558108	0.048447
H102	H	0.720512	-0.566643	-0.080035
O103	O	0.813414	-0.699702	-0.000165
C104	C	0.787731	-0.726170	-0.086581
H105	H	0.843018	-0.744154	-0.115382
H106	H	0.756463	-0.781556	-0.067148
H107	H	0.742943	-0.674205	-0.147092
H108	H	0.788724	-0.315575	-0.000024
H109	H	0.801366	-0.168491	-0.000013
H110	H	1.036492	-0.462437	-0.000037
O111	O	0.892082	0.099737	0.238988
C112	C	0.915319	0.170090	0.264659
H113	H	0.984579	0.159618	0.293516
H114	H	0.894953	0.225402	0.195594
H115	H	0.885217	0.182140	0.325623
H116	H	1.103785	-0.138664	0.595218
O117	O	0.851058	0.145762	0.292978
C118	C	0.788814	0.215775	0.257916
H119	H	0.790316	0.249372	0.318441
H120	H	0.798907	0.258519	0.187652
H121	H	0.726888	0.196051	0.239304
H122	H	0.782382	0.222989	0.404782
H123	H	0.763798	0.243912	0.562319
O124	O	0.185798	-0.119009	-0.000044
C125	C	0.102914	-0.099477	-0.000020
H126	H	0.081275	-0.030260	-0.031608
H127	H	0.064696	-0.132593	-0.048457
H128	H	0.095747	-0.119784	0.080019
O129	O	0.795805	0.207854	0.760944
C130	C	0.737574	0.273404	0.692093
H131	H	0.719461	0.258510	0.617232
H132	H	0.681216	0.282710	0.722451
H133	H	0.764957	0.331997	0.680922
H134	H	1.084026	-0.116458	0.247145
H135	H	0.711302	-0.067097	0.000010
H136	H	0.423059	0.135125	-0.000023
O137	O	0.167622	0.163063	-0.000211
C138	C	0.167651	0.225112	-0.086615
H139	H	0.180972	0.195750	-0.147001
H140	H	0.105301	0.266912	-0.115622
H141	H	0.216702	0.262849	-0.067091
O142	O	0.330851	0.154554	0.000081
C143	C	0.395801	0.136846	0.086485
H144	H	0.418014	0.067572	0.115318
H145	H	0.448106	0.168534	0.067022
H146	H	0.373804	0.160114	0.146982
H147	H	0.544360	0.200217	-0.000036
H148	H	0.694464	0.192521	-0.000024
O149	O	0.470253	-0.062342	-0.000188
C150	C	0.435480	-0.085293	-0.086574
H151	H	0.397873	-0.028599	-0.146973
H152	H	0.486166	-0.113967	-0.115573
H153	H	0.394284	-0.131869	-0.067030
H154	H	1.060980	-0.220177	0.000013
