data_functionalizedCrystal
_audit_creation_method	'MofGen! by Chris Wilmer'
_symmetry_space_group_name_H-M	'P1'
_symmetry_Int_Tables_number	1
_symmetry_cell_setting	triclinic
loop_
_symmetry_equiv_pos_as_xyz
  x,y,z
_cell_length_a	15.995350
_cell_length_b	15.995350
_cell_length_c	14.472310
_cell_angle_alpha	89.998838
_cell_angle_beta	89.990621
_cell_angle_gamma	96.507625
loop_
_atom_site_label
_atom_site_type_symbol
_atom_site_fract_x
_atom_site_fract_y
_atom_site_fract_z
O1	O	1.110997	-0.107921	-0.076758
O2	O	0.867221	-0.121248	-0.076776
O3	O	0.995773	0.007303	-0.076766
O4	O	0.982445	-0.236472	-0.076769
O5	O	0.995740	0.007296	0.076916
O6	O	0.867188	-0.121256	0.076906
O7	O	1.110963	-0.107928	0.076924
Cu8	Cu	0.989073	-0.114593	0.090947
Cu9	Cu	0.989112	-0.114584	-0.090800
O10	O	0.982412	-0.236480	0.076913
C11	C	0.995205	0.038494	0.000073
C12	C	0.993553	0.131444	0.000068
C13	C	0.836010	-0.120701	0.000062
C14	C	0.743060	-0.119049	0.000055
N15	N	0.989051	-0.114598	0.218778
C16	C	0.405312	-0.113117	0.000074
C17	C	0.452746	-0.021565	0.000418
C18	C	0.549436	-0.023217	0.000065
C19	C	0.572873	-0.116060	0.000065
C20	C	0.531804	-0.161212	-0.087692
C21	C	0.435169	-0.158912	-0.087759
C22	C	0.434792	-0.160812	0.087007
C23	C	0.531737	-0.160790	0.088160
C24	C	0.667570	-0.117727	0.000057
C25	C	0.310614	-0.111452	0.000076
C26	C	1.142175	-0.108476	0.000083
C27	C	1.235125	-0.110127	0.000084
C28	C	0.982980	-0.267671	0.000072
C29	C	0.984631	-0.360621	0.000071
C30	C	0.987621	0.469192	0.000071
C31	C	0.896069	0.421758	-0.000281
C32	C	0.897721	0.325068	0.000066
C33	C	0.990564	0.301631	0.000069
C34	C	1.035701	0.342705	0.087831
C35	C	1.033401	0.439340	0.087904
C36	C	1.035330	0.439707	-0.086861
C37	C	1.035309	0.342762	-0.088021
C38	C	0.992231	0.206934	0.000071
C39	C	0.985956	0.563890	0.000075
N40	N	0.989140	-0.114572	-0.218631
C41	C	0.989111	-0.114581	0.592869
C42	C	0.920095	-0.183135	0.553698
C43	C	0.920254	-0.183385	0.446610
C44	C	0.989081	-0.114590	0.407278
C45	C	1.076445	-0.133671	0.446122
C46	C	1.076057	-0.134159	0.553243
C47	C	0.971542	-0.026741	0.553398
C48	C	0.969538	-0.027327	0.446270
C49	C	0.989069	-0.114593	0.302390
C50	C	0.989128	-0.114579	0.697757
H51	H	0.434210	0.015027	0.063352
H52	H	0.545930	-0.229421	-0.090955
H53	H	0.416874	-0.125979	-0.153359
H54	H	0.433166	0.014865	-0.062168
H55	H	1.000459	0.457639	0.153505
C56	C	0.990793	0.305885	-0.175737
C57	C	0.914174	0.238742	-0.167456
C58	C	0.869657	0.201859	-0.255170
C59	C	0.901760	0.232119	-0.351164
C60	C	0.978384	0.299266	-0.359448
C61	C	1.022901	0.336149	-0.271734
H62	H	0.890405	0.216338	-0.096392
H63	H	0.812935	0.152152	-0.249037
H64	H	0.868807	0.204816	-0.416094
H65	H	1.002153	0.321670	-0.430512
H66	H	1.079623	0.385856	-0.277867
C67	C	0.587837	0.024737	0.085040
C68	C	0.653181	0.102262	0.072090
C69	C	0.691579	0.150223	0.157064
C70	C	0.664634	0.120660	0.254989
C71	C	0.599286	0.043131	0.267943
C72	C	0.560888	-0.004830	0.182969
H73	H	0.673130	0.124150	-0.000403
H74	H	0.739954	0.207615	0.147474
H75	H	0.693059	0.156164	0.317892
H76	H	0.579337	0.021243	0.340437
H77	H	0.512513	-0.062222	0.192559
C78	C	1.097865	-0.219228	0.409877
C79	C	1.177897	-0.224052	0.351874
C80	C	1.199311	-0.309611	0.315631
C81	C	1.140693	-0.390346	0.337390
C82	C	1.060656	-0.385525	0.395395
C83	C	1.039242	-0.299966	0.431638
H84	H	1.221294	-0.164285	0.335765
H85	H	1.258560	-0.313180	0.272692
H86	H	1.156545	-0.453682	0.310561
H87	H	1.017258	-0.445293	0.411505
H88	H	0.979993	-0.296397	0.474578
C89	C	0.846835	0.448214	0.084264
C90	C	0.811730	0.381792	0.155497
C91	C	0.762501	0.408250	0.240044
C92	C	0.748376	0.501129	0.253359
C93	C	0.783482	0.567557	0.182124
C94	C	0.832712	0.541100	0.097577
H95	H	0.822185	0.313031	0.145642
H96	H	0.736513	0.359075	0.292777
H97	H	0.711934	0.520715	0.315946
H98	H	0.773027	0.636318	0.191979
H99	H	0.858699	0.590275	0.044844
H100	H	0.577308	0.012521	-0.062951
H101	H	0.854945	-0.171953	0.579481
C102	C	0.552486	-0.252257	0.095320
C103	C	0.600197	-0.280542	0.180108
C104	C	0.620945	-0.372013	0.187258
C105	C	0.593981	-0.435199	0.109619
C106	C	0.546267	-0.406916	0.024825
C107	C	0.525519	-0.315445	0.017675
H108	H	0.620160	-0.233767	0.237586
H109	H	0.656266	-0.392950	0.250029
H110	H	0.609340	-0.502911	0.114912
H111	H	0.526304	-0.453691	-0.032653
H112	H	0.490198	-0.294507	-0.045096
H113	H	0.905272	-0.012845	0.420883
H114	H	0.402921	-0.226128	-0.091741
C115	C	1.147913	-0.069723	0.588253
C116	C	1.162428	-0.057266	0.692774
C117	C	1.234474	0.006949	0.727778
C118	C	1.292006	0.058706	0.658261
C119	C	1.277494	0.046251	0.553734
C120	C	1.205447	-0.017964	0.518730
H121	H	1.119838	-0.095581	0.744241
H122	H	1.245218	0.016169	0.805157
H123	H	1.345340	0.106242	0.684173
H124	H	1.320084	0.084566	0.502267
H125	H	1.194704	-0.027184	0.441351
C126	C	0.570136	-0.118830	-0.175927
C127	C	0.638647	-0.043314	-0.168533
C128	C	0.676973	-0.000923	-0.256765
C129	C	0.646788	-0.034048	-0.352391
C130	C	0.578273	-0.109568	-0.359789
C131	C	0.539947	-0.151959	-0.271557
H132	H	0.660995	-0.018789	-0.097741
H133	H	0.727692	0.054982	-0.251288
H134	H	0.675159	-0.002668	-0.417706
H135	H	0.555925	-0.134093	-0.430581
H136	H	0.489228	-0.207864	-0.277034
C137	C	1.039524	0.042185	0.587622
C138	C	1.051475	0.058381	0.691931
C139	C	1.119458	0.127300	0.726161
C140	C	1.175490	0.180022	0.656083
C141	C	1.163541	0.163828	0.551768
C142	C	1.095558	0.094909	0.517538
H143	H	1.009995	0.019351	0.743813
H144	H	1.128303	0.139288	0.803383
H145	H	1.225816	0.231040	0.681423
H146	H	1.205021	0.202858	0.499886
H147	H	1.086713	0.082921	0.440316
C148	C	0.849780	0.286662	-0.084914
C149	C	0.772254	0.221319	-0.071970
C150	C	0.724306	0.182914	-0.156949
C151	C	0.753884	0.209853	-0.254871
C152	C	0.831414	0.275200	-0.267818
C153	C	0.879362	0.313604	-0.182840
H154	H	0.750354	0.201374	0.000521
H155	H	0.666912	0.134540	-0.147363
H156	H	0.718390	0.181424	-0.317777
H157	H	0.853314	0.295145	-0.340310
H158	H	0.936756	0.361978	-0.192425
H159	H	0.414242	-0.130885	0.153524
C160	C	0.993313	0.304369	0.176061
C161	C	1.026428	0.334554	0.271691
C162	C	0.984034	0.296220	0.359919
C163	C	0.908525	0.227702	0.352516
C164	C	0.875406	0.197514	0.256882
C165	C	0.917800	0.235848	0.168655
H166	H	1.082328	0.385278	0.277174
H167	H	1.008551	0.318567	0.430713
H168	H	0.877142	0.199325	0.417828
H169	H	0.819506	0.146790	0.251399
H170	H	0.893283	0.213500	0.097860
C171	C	0.568608	-0.116260	0.175871
C172	C	0.635752	-0.039642	0.167582
C173	C	0.672630	0.004889	0.255291
C174	C	0.642364	-0.027198	0.351288
C175	C	0.575216	-0.103820	0.359581
C176	C	0.538339	-0.148352	0.271872
H177	H	0.658160	-0.015885	0.096516
H178	H	0.722337	0.061611	0.249152
H179	H	0.669663	0.005767	0.416216
H180	H	0.552808	-0.127577	0.430647
H181	H	0.488632	-0.205073	0.278011
C182	C	1.126775	0.322010	-0.095186
C183	C	1.162599	0.267110	-0.020839
C184	C	1.254068	0.246357	-0.027997
C185	C	1.309715	0.280504	-0.109503
C186	C	1.273892	0.335406	-0.183856
C187	C	1.182423	0.356159	-0.176697
H188	H	1.121405	0.241830	0.039501
H189	H	1.280586	0.205715	0.027044
H190	H	1.377426	0.265141	-0.114802
H191	H	1.315086	0.360686	-0.244196
H192	H	1.155905	0.396802	-0.231738
C193	C	0.391882	-0.251999	0.087818
C194	C	0.410453	-0.312110	0.166416
C195	C	0.367538	-0.403292	0.167220
C196	C	0.306052	-0.434364	0.089426
C197	C	0.287479	-0.374252	0.010822
C198	C	0.330394	-0.283070	0.010018
H199	H	0.455971	-0.289110	0.224009
H200	H	0.381288	-0.447791	0.225408
H201	H	0.274284	-0.501862	0.090021
H202	H	0.241961	-0.397252	-0.046771
H203	H	0.316644	-0.238571	-0.048169
C204	C	0.846650	0.446783	-0.085309
C205	C	0.888816	0.510599	-0.155465
C206	C	0.839398	0.535624	-0.240501
C207	C	0.747815	0.496833	-0.255381
C208	C	0.705644	0.433014	-0.185223
C209	C	0.755062	0.407989	-0.100187
H210	H	0.956616	0.539317	-0.144452
H211	H	0.870616	0.582868	-0.292437
H212	H	0.711233	0.515358	-0.318330
H213	H	0.637844	0.404295	-0.196236
H214	H	0.723843	0.360745	-0.048251
C215	C	1.127839	0.323599	0.092255
C216	C	1.158707	0.275511	0.175451
C217	C	1.250840	0.256393	0.179874
C218	C	1.312105	0.285363	0.101102
C219	C	1.281238	0.333455	0.017900
C220	C	1.189105	0.352572	0.013476
H221	H	1.113353	0.254062	0.233769
H222	H	1.273689	0.220792	0.241467
H223	H	1.380308	0.271211	0.104376
H224	H	1.326592	0.354903	-0.040418
H225	H	1.166256	0.388173	-0.048116
H226	H	0.931473	-0.248569	0.420976
H227	H	0.861973	0.297200	0.063079
C228	C	0.994914	0.467451	-0.176727
C229	C	1.047250	0.525654	-0.245160
C230	C	1.006824	0.553397	-0.335020
C231	C	0.914062	0.522937	-0.356447
C232	C	0.861721	0.464730	-0.288013
C233	C	0.902147	0.436987	-0.198153
H234	H	1.115923	0.548206	-0.229299
H235	H	1.045571	0.596485	-0.385679
H236	H	0.884136	0.543473	-0.422967
H237	H	0.793048	0.442179	-0.303873
H238	H	0.863400	0.393899	-0.147494
C239	C	1.096965	-0.220701	0.586993
C240	C	1.113899	-0.288887	0.516474
C241	C	1.134805	-0.375432	0.550218
C242	C	1.138777	-0.393791	0.654481
C243	C	1.121843	-0.325603	0.725007
C244	C	1.100937	-0.239058	0.691263
H245	H	1.110958	-0.275298	0.439286
H246	H	1.147340	-0.425909	0.498009
H247	H	1.154253	-0.457857	0.679460
H248	H	1.124783	-0.339192	0.802194
H249	H	1.088402	-0.188581	0.743471
C250	C	1.147490	-0.068019	0.411700
C251	C	1.126952	0.003856	0.347768
C252	C	1.197996	0.069508	0.313345
C253	C	1.289577	0.063286	0.342853
C254	C	1.310119	-0.008592	0.406789
C255	C	1.239075	-0.074244	0.441212
H256	H	1.059154	0.008464	0.325921
H257	H	1.182789	0.122717	0.266015
H258	H	1.342167	0.111886	0.317371
H259	H	1.377916	-0.013201	0.428636
H260	H	1.254282	-0.127453	0.488542
H261	H	1.100617	0.471588	0.091888
H262	H	1.102831	0.471468	-0.087449
H263	H	0.855314	-0.172016	0.420349
C264	C	0.887330	-0.001965	0.589922
C265	C	0.833438	-0.061186	0.656069
C266	C	0.749223	-0.036421	0.692594
C267	C	0.718900	0.047563	0.662973
C268	C	0.772793	0.106789	0.596823
C269	C	0.857008	0.082025	0.560297
H270	H	0.855884	-0.123361	0.677999
H271	H	0.709328	-0.080265	0.741563
H272	H	0.656559	0.065896	0.690011
H273	H	0.750347	0.168965	0.574892
H274	H	0.896903	0.125868	0.511328
H275	H	0.931159	-0.247952	0.580608
H276	H	1.016541	0.026079	0.419500
