data_functionalizedCrystal
_audit_creation_method	'MofGen! by Chris Wilmer'
_symmetry_space_group_name_H-M	'P1'
_symmetry_Int_Tables_number	1
_symmetry_cell_setting	triclinic
loop_
_symmetry_equiv_pos_as_xyz
  x,y,z
_cell_length_a	14.628931
_cell_length_b	23.196402
_cell_length_c	23.196401
_cell_angle_alpha	60.008822
_cell_angle_beta	90.013263
_cell_angle_gamma	60.000556
loop_
_atom_site_label
_atom_site_type_symbol
_atom_site_fract_x
_atom_site_fract_y
_atom_site_fract_z
Zr1	Zr	0.880618	0.630997	-0.075627
O2	O	0.734627	0.751264	-0.167673
O3	O	0.925368	0.510732	-0.047413
O4	O	0.925328	0.630999	-0.167678
O5	O	0.734703	0.630996	0.047463
O6	O	1.075760	0.630998	-0.167678
O7	O	0.734667	0.630997	-0.047408
O8	O	1.075832	0.415863	0.047455
O9	O	0.734631	0.846132	-0.167669
O10	O	1.056724	0.560198	-0.035376
O11	O	0.944485	0.560197	0.035426
O12	O	0.944437	0.701796	-0.106171
O13	O	0.832198	0.701795	-0.035370
Zr14	Zr	1.120597	0.630995	0.075683
Zr15	Zr	1.120540	0.630997	-0.075626
Zr16	Zr	0.880675	0.630995	0.075682
Zr17	Zr	0.880624	0.782300	-0.075620
Zr18	Zr	1.120590	0.479692	0.075676
O19	O	1.075847	0.751260	0.047469
O20	O	1.075765	0.751264	-0.167673
O21	O	0.734709	0.751261	0.047469
O22	O	1.266588	0.510728	0.167729
O23	O	1.266506	0.510731	-0.047413
O24	O	0.925450	0.510728	0.167729
O25	O	1.266511	0.630996	-0.047407
O26	O	1.075887	0.630993	0.167734
O27	O	0.925455	0.630993	0.167734
O28	O	1.266547	0.630995	0.047464
O29	O	0.925337	0.846131	-0.167669
O30	O	1.075878	0.415861	0.167725
O31	O	1.266584	0.415860	0.167725
O32	O	1.266538	0.415862	0.047455
O33	O	0.734677	0.846130	-0.047399
O34	O	0.925383	0.846129	-0.047399
O35	O	1.056778	0.560196	0.106227
O36	O	1.169016	0.560197	0.035426
O37	O	1.056730	0.701795	-0.035370
O38	O	0.944491	0.701794	0.035432
C39	C	1.000599	0.441740	0.000020
C40	C	1.000596	0.377508	0.000017
C41	C	0.700502	0.630997	0.000028
C42	C	0.598649	0.630997	0.000028
C43	C	1.059176	0.347338	-0.036943
C44	C	1.059187	0.286977	-0.036937
C45	C	1.000596	0.256800	0.000019
C46	C	0.942014	0.286974	0.036987
C47	C	0.942014	0.347328	0.036986
C48	C	0.902435	0.194771	-0.005256
C49	C	0.902432	0.134421	-0.005260
C50	C	1.000598	0.070645	0.000026
C51	C	1.098766	0.067233	0.005302
C52	C	1.098766	0.127587	0.005301
C53	C	1.000590	0.191355	0.000025
C54	C	1.059194	-0.024976	-0.036930
C55	C	1.059208	-0.085342	-0.036919
C56	C	0.942024	-0.085338	0.037001
C57	C	0.942021	-0.024979	0.036995
C58	C	1.000604	0.005201	0.000026
C59	C	0.608941	0.560755	0.035147
C60	C	0.503672	0.560753	0.035148
C61	C	1.300713	0.630995	0.000028
C62	C	1.402566	0.630995	0.000028
C63	C	1.000536	0.630999	-0.189236
C64	C	1.000511	0.631000	-0.253471
C65	C	1.000616	0.820252	0.000036
C66	C	1.000618	0.884484	0.000039
C67	C	0.941904	0.704910	-0.320598
C68	C	0.941933	0.704911	-0.380954
C69	C	1.000553	0.630998	-0.374177
C70	C	1.059173	0.557078	-0.307038
C71	C	1.059152	0.557079	-0.246684
C72	C	0.992226	0.574370	-0.441497
C73	C	0.992239	0.574372	-0.501850
C74	C	1.000624	0.630992	-0.560325
C75	C	1.008973	0.687623	-0.558445
C76	C	1.008952	0.687624	-0.498092
C77	C	1.000583	0.630988	-0.439616
C78	C	0.942045	0.704908	-0.692899
C79	C	0.942081	0.704906	-0.753254
C80	C	1.059314	0.557070	-0.679336
C81	C	1.059285	0.557074	-0.618983
C82	C	1.000644	0.630996	-0.625769
C83	C	1.000679	0.630993	0.189292
C84	C	1.000704	0.630992	0.253527
C85	C	1.300705	0.441739	0.000020
C86	C	1.402555	0.377507	0.000017
C87	C	1.000671	0.441737	0.189284
C88	C	1.000693	0.377504	0.253516
C89	C	1.300777	0.441736	0.189285
C90	C	1.402651	0.377503	0.253516
C91	C	0.700438	0.820256	-0.189229
C92	C	0.598564	0.884489	-0.253460
C93	C	0.700510	0.820253	0.000036
C94	C	0.598660	0.884485	0.000039
C95	C	1.000544	0.820255	-0.189228
C96	C	1.000522	0.884488	-0.253460
C97	C	1.391770	0.347344	-0.036948
C98	C	1.487460	0.286999	-0.036964
C99	C	1.593934	0.256815	-0.000011
C100	C	1.604718	0.286985	0.036955
C101	C	1.509029	0.347332	0.036967
C102	C	1.059318	0.347339	0.320644
C103	C	1.059334	0.286994	0.381003
C104	C	1.000730	0.256811	0.374231
C105	C	0.942097	0.286982	0.307096
C106	C	0.942076	0.347330	0.246739
C107	C	1.509090	0.347339	0.246723
C108	C	1.604822	0.286994	0.307070
C109	C	1.594111	0.256809	0.374210
C110	C	1.487661	0.286979	0.381002
C111	C	1.391932	0.347328	0.320656
C112	C	0.492124	0.914660	-0.246667
C113	C	0.396393	0.975024	-0.307014
C114	C	0.407103	1.005212	-0.374154
C115	C	0.513554	0.975038	-0.380946
C116	C	0.609283	0.914679	-0.320600
C117	C	0.609445	0.914654	0.036997
C118	C	0.513755	0.975016	0.036997
C119	C	0.407281	1.005202	0.000042
C120	C	0.396497	0.975030	-0.036921
C121	C	0.492186	0.914674	-0.036925
C122	C	1.059138	0.914652	-0.246666
C123	C	1.059139	0.974997	-0.307013
C124	C	1.000518	1.005182	-0.374153
C125	C	0.941901	0.975012	-0.380946
C126	C	0.941907	0.914664	-0.320599
H127	H	1.106881	0.371907	-0.067044
H128	H	0.309793	0.999617	-0.067009
H129	H	1.000757	0.207671	0.423384
H130	H	0.894174	0.999598	-0.435619
H131	H	1.305081	0.371919	-0.067048
F132	F	0.879657	0.783581	-0.700120
F133	F	1.121535	0.882538	-0.175217
F134	F	1.718045	0.254850	0.076283
H135	H	1.305268	0.371880	0.326197
F136	F	0.514967	0.482147	0.074445
F137	F	1.475960	0.254899	-0.076308
H138	H	1.691489	0.262436	0.301527
F139	F	0.283112	1.007124	-0.299770
F140	F	0.480700	0.882542	-0.175217
H141	H	1.672069	0.207670	0.423342
H142	H	0.522261	0.999624	-0.435618
F143	F	0.305209	1.069451	-0.438374
F144	F	1.121549	0.007141	-0.076270
F145	F	0.797952	0.138060	-0.010878
F146	F	1.121745	0.254892	0.452446
F147	F	0.879732	0.254850	0.299901
F148	F	0.525255	1.007114	0.076343
H149	H	0.695686	0.500619	0.065216
H150	H	1.106870	0.999555	-0.301469
H151	H	1.517826	0.371883	0.067073
F152	F	1.121548	0.254855	-0.076271
F153	F	0.879680	0.379424	0.175298
F154	F	1.121714	0.478405	-0.672119
F155	F	0.391262	0.709605	-0.039279
F156	F	1.476280	0.254847	0.452463
F157	F	1.121564	0.478413	-0.299826
H158	H	0.695947	0.890114	-0.326139
F159	F	0.722755	0.882541	0.076331
H160	H	1.671841	0.207676	-0.000026
H161	H	0.329374	1.054347	0.000051
F162	F	1.000520	1.069413	-0.438373
F163	F	1.520515	0.379456	0.175273
H164	H	0.894170	0.890111	-0.326141
F165	F	1.017839	0.747893	-0.496093
F166	F	0.480690	0.882567	-0.076260
F167	F	1.203241	0.123953	0.010918
F168	F	1.203248	-0.000639	0.010925
F169	F	1.121701	0.379449	0.327866
H170	H	0.894361	0.765096	-0.807914
H171	H	1.106918	-0.109910	-0.067013
H172	H	0.894319	-0.109908	0.067092
F173	F	0.983374	0.514069	-0.379249
F174	F	0.485268	0.709602	-0.039269
H175	H	0.894314	-0.000412	0.067089
F176	F	0.983342	0.514106	-0.503848
F177	F	0.879665	0.254851	0.076324
F178	F	0.797946	0.262645	-0.010882
H179	H	0.894160	0.765103	-0.326131
F180	F	0.879554	0.783580	-0.452406
F181	F	1.017897	0.747887	-0.620676
F182	F	0.879663	0.379437	0.076327
H183	H	1.106878	0.496890	-0.192024
F184	F	1.121644	0.478408	-0.547537
