data_functionalizedCrystal
_audit_creation_method	'MofGen! by Chris Wilmer'
_symmetry_space_group_name_H-M	'P1'
_symmetry_Int_Tables_number	1
_symmetry_cell_setting	triclinic
loop_
_symmetry_equiv_pos_as_xyz
  x,y,z
_cell_length_a	19.288840
_cell_length_b	19.288865
_cell_length_c	18.366186
_cell_angle_alpha	90.011479
_cell_angle_beta	90.016271
_cell_angle_gamma	83.131131
loop_
_atom_site_label
_atom_site_type_symbol
_atom_site_fract_x
_atom_site_fract_y
_atom_site_fract_z
O1	O	-0.921364	-0.086566	-0.060680
O2	O	-0.421364	0.413434	0.439320
O3	O	-0.719101	-0.098273	-0.060655
O4	O	-0.219101	0.401727	0.439345
O5	O	-0.826077	0.008712	-0.060654
O6	O	-0.326077	0.508712	0.439346
O7	O	-0.814388	-0.193550	-0.060681
O8	O	-0.314388	0.306450	0.439319
O9	O	-0.826059	0.008717	0.060446
O10	O	-0.326059	0.508717	0.560446
O11	O	-0.719083	-0.098268	0.060444
O12	O	-0.219083	0.401732	0.560444
O13	O	-0.921346	-0.086561	0.060420
O14	O	-0.421346	0.413439	0.560420
Zn15	Zn	-0.820211	-0.092413	0.079659
Zn16	Zn	-0.320211	0.407587	0.579659
Zn17	Zn	-0.820235	-0.092420	-0.079895
Zn18	Zn	-0.320235	0.407580	0.420105
O19	O	-0.814370	-0.193545	0.060418
O20	O	-0.314370	0.306455	0.560418
C21	C	-0.693215	-0.097896	-0.000102
C22	C	-0.193215	0.402104	0.499898
C23	C	-0.616110	-0.096774	-0.000093
C24	C	-0.116110	0.403226	0.499907
C25	C	-0.947232	-0.086937	-0.000135
C26	C	-0.447232	0.413063	0.499865
C27	C	-1.024336	-0.088059	-0.000149
C28	C	-0.524336	0.411941	0.499851
C29	C	-0.825692	0.034591	-0.000102
C30	C	-0.325692	0.534591	0.499898
C31	C	-0.824563	0.111694	-0.000095
C32	C	-0.324563	0.611694	0.499905
C33	C	-0.579917	-0.096238	-0.066106
C34	C	-0.079917	0.403762	0.433894
C35	C	-0.507470	-0.095176	-0.066114
C36	C	-0.007470	0.404824	0.433886
C37	C	-0.471221	-0.094636	-0.000106
C38	C	0.028779	0.405364	0.499894
C39	C	-0.507423	-0.095176	0.065915
C40	C	-0.007423	0.404824	0.565915
C41	C	-0.579868	-0.096245	0.065922
C42	C	-0.079868	0.403755	0.565922
C43	C	-0.361886	-0.052256	0.050461
C44	C	0.138114	0.447744	0.550461
C45	C	-0.289443	-0.051183	0.050451
C46	C	0.210557	0.448817	0.550451
C47	C	-0.247778	-0.091342	-0.000125
C48	C	0.252222	0.408658	0.499875
C49	C	-0.278565	-0.132566	-0.050703
C50	C	0.221435	0.367434	0.449297
C51	C	-0.351009	-0.133635	-0.050697
C52	C	0.148991	0.366365	0.449303
C53	C	-0.392667	-0.093477	-0.000107
C54	C	0.107333	0.406523	0.499893
C55	C	-0.133029	-0.089655	-0.066152
C56	C	0.366971	0.410345	0.433848
C57	C	-0.060580	-0.088598	-0.066158
C58	C	0.439420	0.411402	0.433842
C59	C	-0.060535	-0.088591	0.065874
C60	C	0.439465	0.411409	0.565874
C61	C	-0.132982	-0.089656	0.065878
C62	C	0.367018	0.410344	0.565878
C63	C	-0.169225	-0.090185	-0.000137
C64	C	0.330775	0.409815	0.499863
N65	N	-0.820200	-0.092408	0.188550
N66	N	-0.320200	0.407592	0.688550
C67	C	-0.814755	-0.219424	-0.000135
C68	C	-0.314755	0.280576	0.499865
C69	C	-0.815884	-0.296527	-0.000147
C70	C	-0.315884	0.203473	0.499853
C71	C	-0.887331	0.156396	-0.000099
C72	C	-0.387331	0.656396	0.499901
C73	C	-0.886270	0.228843	-0.000111
C74	C	-0.386270	0.728843	0.499889
C75	C	-0.822438	0.256585	-0.000103
C76	C	-0.322438	0.756585	0.499897
C77	C	-0.759661	0.211873	-0.000104
C78	C	-0.259661	0.711873	0.499896
C79	C	-0.760723	0.139428	-0.000100
C80	C	-0.260723	0.639428	0.499900
C81	C	-0.772251	0.364870	0.042321
C82	C	-0.272251	0.864870	0.542321
C83	C	-0.771191	0.437314	0.042321
C84	C	-0.271191	0.937314	0.542321
C85	C	-0.819158	0.480030	-0.000119
C86	C	-0.319158	0.980030	0.499881
C87	C	-0.868196	0.450295	-0.042551
C88	C	-0.368196	0.950295	0.457449
C89	C	-0.869259	0.377849	-0.042547
C90	C	-0.369259	0.877849	0.457453
C91	C	-0.821278	0.335139	-0.000108
C92	C	-0.321278	0.835139	0.499892
C93	C	-0.880781	0.603288	-0.000137
C94	C	-0.380781	1.103288	0.499863
C95	C	-0.879717	0.675736	-0.000153
C96	C	-0.379717	1.175736	0.499847
C97	C	-0.753106	0.658764	-0.000138
C98	C	-0.253106	1.158764	0.499862
C99	C	-0.754171	0.586318	-0.000130
C100	C	-0.254171	1.086318	0.499870
C101	C	-0.818010	0.558584	-0.000125
C102	C	-0.318010	1.058584	0.499875
N103	N	-0.820252	-0.092420	-0.188786
N104	N	-0.320252	0.407580	0.311214
C105	C	-0.867584	-0.045059	0.226651
C106	C	-0.367584	0.454941	0.726651
C107	C	-0.867589	-0.045055	0.302879
C108	C	-0.367589	0.454945	0.802879
C109	C	-0.820215	-0.092414	0.341003
C110	C	-0.320215	0.407586	0.841003
C111	C	-0.772822	-0.139767	0.302893
C112	C	-0.272822	0.360233	0.802893
C113	C	-0.772814	-0.139764	0.226666
C114	C	-0.272814	0.360236	0.726666
C115	C	-0.810917	-0.155702	0.461755
C116	C	-0.310917	0.344298	0.961755
C117	C	-0.810930	-0.155706	0.537980
C118	C	-0.310930	0.344294	1.037980
C119	C	-0.820235	-0.092422	0.576110
C120	C	-0.320235	0.407578	1.076110
C121	C	-0.829543	-0.029132	0.538006
C122	C	-0.329543	0.470868	1.038006
C123	C	-0.829535	-0.029129	0.461780
C124	C	-0.329535	0.470871	0.961780
C125	C	-0.820218	-0.092422	0.423658
C126	C	-0.320218	0.407578	0.923658
C127	C	-0.867627	-0.045066	0.696866
C128	C	-0.367627	0.454934	1.196866
C129	C	-0.867627	-0.045062	0.773096
C130	C	-0.367627	0.454938	1.273096
C131	C	-0.772863	-0.139779	0.773108
C132	C	-0.272863	0.360221	1.273108
C133	C	-0.772860	-0.139777	0.696880
C134	C	-0.272860	0.360223	1.196880
C135	C	-0.820246	-0.092421	0.658764
C136	C	-0.320246	0.407579	1.158764
H137	H	-0.609421	-0.096669	-0.119860
H138	H	-0.109421	0.403331	0.380140
H139	H	-0.734278	-0.178336	0.665856
H140	H	-0.234278	0.321664	1.165856
Br141	Br	-0.931933	0.019205	0.645136
Br142	Br	-0.431933	0.519205	1.145136
Br143	Br	-0.967417	0.565645	-0.000124
Br144	Br	-0.467417	1.065645	0.499876
Br145	Br	-0.708524	-0.204035	0.354629
Br146	Br	-0.208524	0.295965	0.854629
Br147	Br	-0.011457	-0.087879	-0.155756
Br148	Br	0.488543	0.412121	0.344244
H149	H	-0.837112	0.022404	0.430759
H150	H	-0.337112	0.522404	0.930759
H151	H	-0.395805	-0.019552	0.091649
H152	H	0.104195	0.480448	0.591649
H153	H	-0.930833	0.712132	-0.000160
H154	H	-0.430833	1.212132	0.499840
Br155	Br	-0.392790	-0.189580	-0.119333
Br156	Br	0.107210	0.310420	0.380667
H157	H	-0.031022	-0.088156	0.119619
H158	H	0.468978	0.411844	0.619619
H159	H	-0.906167	-0.006497	0.195619
H160	H	-0.406167	0.493503	0.695619
Br161	Br	-0.973970	0.118760	-0.000114
Br162	Br	-0.473970	0.618760	0.499886
H163	H	-0.609336	-0.096683	0.119680
H164	H	-0.109336	0.403317	0.619680
Br165	Br	-0.971462	0.289522	-0.000119
Br166	Br	-0.471462	0.789522	0.499881
H167	H	-0.909186	0.353642	-0.077098
H168	H	-0.409186	0.853642	0.422902
Br169	Br	-0.458230	-0.094452	0.155499
Br170	Br	0.041770	0.405548	0.655499
Br171	Br	-0.933300	0.508258	-0.100153
Br172	Br	-0.433300	1.008258	0.399847
H173	H	-0.837120	0.022400	0.569050
H174	H	-0.337120	0.522400	1.069050
Br175	Br	-0.708563	-0.204044	0.824841
Br176	Br	-0.208563	0.295956	1.324841
H177	H	-0.162538	-0.090093	-0.119905
H178	H	0.337462	0.409907	0.380095
H179	H	-0.244641	-0.165270	-0.091885
H180	H	0.255359	0.334730	0.408115
Br181	Br	-0.798306	-0.241599	0.589685
Br182	Br	-0.298306	0.258401	1.089685
H183	H	-0.701132	0.681351	-0.000136
H184	H	-0.201132	1.181351	0.499864
H185	H	-0.709608	0.103030	-0.000096
H186	H	-0.209608	0.603030	0.499904
Br187	Br	-0.707148	0.306904	0.099925
Br188	Br	-0.207148	0.806904	0.599925
H189	H	-0.731258	0.461518	0.076868
H190	H	-0.231258	0.961518	0.576868
H191	H	-0.703058	0.549920	-0.000122
H192	H	-0.203058	1.049920	0.499878
H193	H	-0.707687	0.234465	-0.000099
H194	H	-0.207687	0.734465	0.499901
Br195	Br	-0.182106	-0.090382	0.155472
Br196	Br	0.317894	0.409618	0.655472
H197	H	-0.906176	-0.006496	0.333907
H198	H	-0.406176	0.493504	0.833907
Br199	Br	-0.931933	0.019209	0.824809
Br200	Br	-0.431933	0.519209	1.324809
H201	H	-0.803327	-0.207239	0.430716
H202	H	-0.303327	0.292761	0.930716
H203	H	-0.734228	-0.178322	0.195644
H204	H	-0.234228	0.321678	0.695644
H205	H	-0.477995	-0.094741	-0.119872
H206	H	0.022005	0.405259	0.380128
Br207	Br	-0.247666	0.004745	0.119106
Br208	Br	0.252334	0.504745	0.619106
