data_functionalizedCrystal
_audit_creation_method	'MofGen! by Chris Wilmer'
_symmetry_space_group_name_H-M	'P1'
_symmetry_Int_Tables_number	1
_symmetry_cell_setting	triclinic
loop_
_symmetry_equiv_pos_as_xyz
  x,y,z
_cell_length_a	13.635800
_cell_length_b	23.752963
_cell_length_c	17.284741
_cell_angle_alpha	92.925060
_cell_angle_beta	76.957145
_cell_angle_gamma	79.933268
loop_
_atom_site_label
_atom_site_type_symbol
_atom_site_fract_x
_atom_site_fract_y
_atom_site_fract_z
V1	V	1.998317	-0.068141	-0.246162
O2	O	2.000998	0.014594	-0.241000
O3	O	1.965871	-0.145999	-0.244936
O4	O	1.971336	-0.062126	-0.353313
O5	O	1.995494	-0.069860	-0.131873
V6	V	2.241559	-0.058832	-0.232436
O7	O	2.125697	-0.088562	-0.276270
O8	O	2.339278	-0.038411	-0.202328
O9	O	2.162402	0.019026	-0.233662
O10	O	2.297577	-0.141567	-0.237598
O11	O	2.303080	-0.057113	-0.346725
O12	O	2.156936	-0.064847	-0.125285
V13	V	2.498317	-0.068141	-0.246162
O14	O	2.500998	0.014594	-0.241000
O15	O	2.465871	-0.145999	-0.244936
O16	O	2.471336	-0.062126	-0.353313
O17	O	2.495494	-0.069860	-0.131873
V18	V	2.741559	-0.058832	-0.232436
O19	O	2.625697	-0.088562	-0.276270
O20	O	2.839278	-0.038411	-0.202328
O21	O	2.662402	0.019026	-0.233662
O22	O	2.797577	-0.141567	-0.237598
O23	O	2.803080	-0.057113	-0.346725
O24	O	2.656936	-0.064847	-0.125285
C25	C	1.886455	-0.165135	-0.241171
C26	C	1.900552	-0.228753	-0.240883
C27	C	1.970751	-0.618311	-0.166798
C28	C	1.984008	-0.678087	-0.166516
O29	O	1.976188	-0.704805	-0.104960
N30	N	2.007931	-0.712920	-0.238590
C31	C	2.018607	-0.687975	-0.310950
O32	O	2.040174	-0.723092	-0.372228
C33	C	2.005357	-0.628201	-0.311231
C34	C	1.981424	-0.593370	-0.239152
C35	C	1.946820	-0.583481	-0.094726
C36	C	1.933561	-0.523709	-0.095008
C37	C	1.944234	-0.498768	-0.167362
C38	C	1.968165	-0.533599	-0.239434
C39	C	2.016041	-0.603257	-0.383590
C40	C	2.002789	-0.543479	-0.383865
C41	C	1.978855	-0.508648	-0.311787
C42	C	1.965580	-0.448886	-0.312070
N43	N	1.941657	-0.414053	-0.239997
C44	C	1.930984	-0.438994	-0.167643
C45	C	2.046434	-0.813505	-0.310354
C46	C	2.059677	-0.873278	-0.310073
C47	C	2.025079	-0.863385	-0.165640
C48	C	2.011828	-0.803611	-0.165921
C49	C	2.022511	-0.778671	-0.238281
C50	C	1.903141	-0.313470	-0.168240
C51	C	1.889879	-0.253694	-0.168528
C52	C	1.924484	-0.263591	-0.312961
C53	C	1.937740	-0.323363	-0.312674
C54	C	1.927070	-0.348300	-0.240307
O55	O	1.973388	-0.422128	-0.373595
O56	O	1.909431	-0.403870	-0.106376
C57	C	1.893427	-0.058145	-0.379415
C58	C	1.911955	-0.053743	-0.467014
C59	C	2.073488	0.038158	-0.237425
C60	C	2.049010	0.101776	-0.237719
C61	C	2.014673	-0.023417	-0.958870
C62	C	1.997278	-0.027551	-0.876561
C63	C	2.002811	-0.081498	-0.846962
C64	C	2.025752	-0.131314	-0.899678
C65	C	2.043154	-0.127180	-0.981985
C66	C	1.952298	-0.099425	-0.602038
C67	C	1.934890	-0.103555	-0.519723
C68	C	1.906419	0.000208	-0.496612
C69	C	1.923817	0.004338	-0.578922
C70	C	1.946761	-0.045479	-0.631631
N71	N	1.985027	-0.085724	-0.762829
N72	N	1.964552	-0.041252	-0.715763
C73	C	2.386455	-0.165135	-0.241171
C74	C	2.400552	-0.228753	-0.240883
C75	C	2.066517	-0.068830	-0.099179
C76	C	2.037609	-0.073230	-0.011579
C77	C	2.497822	-0.261369	-0.244702
C78	C	2.511084	-0.321146	-0.244443
C79	C	2.427074	-0.348305	-0.240360
C80	C	2.329797	-0.315685	-0.236543
C81	C	2.316537	-0.255909	-0.236807
C82	C	2.393427	-0.058145	-0.379415
C83	C	2.411955	-0.053743	-0.467014
C84	C	2.573488	0.038158	-0.237425
C85	C	2.549010	0.101776	-0.237719
C86	C	2.566517	-0.068830	-0.099179
C87	C	2.537609	-0.073230	-0.011579
C88	C	2.511308	-0.054347	-0.512185
C89	C	2.528729	-0.050203	-0.594493
C90	C	2.446796	-0.045458	-0.631629
C91	C	2.347434	-0.044852	-0.586452
C92	C	2.330013	-0.048992	-0.504145
C93	C	2.624234	0.134392	-0.233902
C94	C	2.601244	0.194169	-0.234164
C95	C	2.503031	0.221328	-0.238249
C96	C	2.427801	0.188708	-0.242064
C97	C	2.450790	0.128933	-0.241796
C98	C	2.437311	-0.077967	0.025537
C99	C	2.410132	-0.082094	0.107848
C100	C	2.483254	-0.081488	0.153040
C101	C	2.583559	-0.076749	0.115919
C102	C	2.610735	-0.072618	0.033611
H103	H	1.894451	-0.333766	-0.109312
H104	H	2.662512	0.220720	-0.231059
H105	H	2.328454	-0.085953	0.138060
H106	H	2.566238	-0.239263	-0.248022
H107	H	2.389531	0.102381	-0.244911
H108	H	2.590298	-0.347697	-0.247549
C109	C	2.663984	-0.076085	0.165640
C110	C	2.716435	-0.023894	0.168678
C111	C	2.796859	-0.023234	0.218401
C112	C	2.824832	-0.074765	0.265087
C113	C	2.772380	-0.126960	0.262051
C114	C	2.691956	-0.127620	0.212327
H115	H	2.695729	0.014255	0.134117
H116	H	2.835687	0.015404	0.220649
H117	H	2.884367	-0.074277	0.301896
H118	H	2.793087	-0.165110	0.296612
H119	H	2.653128	-0.166259	0.210080
C120	C	2.453353	-0.086038	0.243579
C121	C	2.343024	-0.091254	0.284397
C122	C	2.313117	-0.095806	0.374934
C123	C	2.393539	-0.095144	0.424654
C124	C	2.503875	-0.089928	0.383836
C125	C	2.533782	-0.085375	0.293299
H126	H	2.283485	-0.091745	0.247591
H127	H	2.231439	-0.099667	0.405150
H128	H	2.371401	-0.098514	0.491675
H129	H	2.563414	-0.089437	0.420642
H130	H	2.615460	-0.081514	0.263083
C131	C	2.441667	-0.414059	-0.240062
C132	C	2.382638	-0.440732	-0.168948
C133	C	2.397237	-0.506486	-0.168647
C134	C	2.470865	-0.545566	-0.239461
C135	C	2.529899	-0.518893	-0.310580
C136	C	2.515300	-0.453140	-0.310881
H137	H	2.328130	-0.411803	-0.116523
H138	H	2.353536	-0.526231	-0.116000
H139	H	2.481672	-0.594241	-0.239238
H140	H	2.584407	-0.547823	-0.363005
H141	H	2.559001	-0.433395	-0.363529
H142	H	1.970979	-0.139989	-0.644944
H143	H	1.870387	-0.225336	-0.109831
H144	H	2.704210	0.112287	-0.230576
H145	H	1.914080	-0.495355	-0.036314
H146	H	2.280730	-0.040989	-0.616701
H147	H	2.578034	-0.058212	-0.481961
H148	H	2.249108	-0.048501	-0.467373
C149	C	1.972098	0.027253	-0.818602
C150	C	1.876421	0.073193	-0.816535
C151	C	1.851268	0.128004	-0.758586
C152	C	1.921791	0.136873	-0.702705
C153	C	2.017474	0.090931	-0.704770
C154	C	2.042627	0.036121	-0.762719
H155	H	1.824210	0.066629	-0.857903
H156	H	1.780437	0.162013	-0.757057
H157	H	1.903171	0.177447	-0.659808
H158	H	2.069685	0.097496	-0.663402
H159	H	2.113458	0.002112	-0.764247
C160	C	1.881179	0.055002	-0.438628
C161	C	1.785472	0.100918	-0.436567
C162	C	1.760231	0.155714	-0.378581
C163	C	1.830697	0.164593	-0.322656
C164	C	1.926411	0.118675	-0.324716
C165	C	1.951652	0.063879	-0.382702
H166	H	1.733303	0.094347	-0.477967
H167	H	1.689377	0.189705	-0.377057
H168	H	1.812012	0.205155	-0.279732
H169	H	1.978579	0.125246	-0.283315
H170	H	2.022506	0.029888	-0.384226
H171	H	2.692409	-0.068764	0.003397
H172	H	2.484325	0.270001	-0.238467
C173	C	2.031841	-0.190656	-0.867120
C174	C	2.132330	-0.235439	-0.891811
C175	C	2.138416	-0.294783	-0.859255
C176	C	2.044014	-0.309343	-0.802008
C177	C	1.943518	-0.264559	-0.777314
C178	C	1.937431	-0.205216	-0.809870
H179	H	2.202218	-0.224662	-0.934192
H180	H	2.212811	-0.327935	-0.877536
H181	H	2.048520	-0.353273	-0.777908
H182	H	1.873629	-0.275337	-0.734934
H183	H	1.863037	-0.172064	-0.791590
C184	C	1.935068	-0.610907	-0.015126
C185	C	2.005306	-0.601204	0.040656
C186	C	1.993542	-0.628625	0.120262
C187	C	1.911539	-0.665749	0.144085
C188	C	1.841294	-0.675454	0.088301
C189	C	1.853059	-0.648033	0.008695
H190	H	2.066015	-0.573721	0.023022
H191	H	2.045541	-0.621441	0.161557
H192	H	1.902830	-0.686047	0.203014
H193	H	1.780586	-0.702937	0.105935
H194	H	1.801059	-0.655217	-0.032600
H195	H	2.347835	0.210831	-0.245389
H196	H	2.261400	-0.337807	-0.233218
H197	H	1.992339	-0.775255	-0.107228
H198	H	2.609641	-0.050700	-0.631266
C199	C	2.068382	-0.181975	-1.039968
C200	C	2.074467	-0.241316	-1.007415
C201	C	2.099700	-0.296112	-1.065398
C202	C	2.118848	-0.291568	-1.155934
C203	C	2.112763	-0.232224	-1.188492
C204	C	2.087530	-0.177428	-1.130509
H205	H	2.060292	-0.244682	-0.940391
H206	H	2.104204	-0.340042	-1.041296
H207	H	2.137527	-0.332131	-1.198856
H208	H	2.126938	-0.228858	-1.255516
H209	H	2.083026	-0.133498	-1.154611
C210	C	2.086003	-0.911588	-0.389361
C211	C	2.097748	-0.884145	-0.468945
C212	C	2.124087	-0.922453	-0.548236
C213	C	2.138680	-0.988204	-0.547942
C214	C	2.126936	-1.015650	-0.468355
C215	C	2.100597	-0.977342	-0.389064
H216	H	2.086945	-0.835469	-0.469165
H217	H	2.132781	-0.902135	-0.607152
H218	H	2.158178	-1.016562	-0.606638
H219	H	2.137739	-1.064326	-0.468135
H220	H	2.091903	-0.997660	-0.330148
H221	H	2.377758	-0.078461	-0.011248
H222	H	1.919292	0.048268	-0.603014
H223	H	2.016389	-0.883703	-0.106725
H224	H	2.035529	-0.631607	-0.442284
C225	C	2.058170	-0.786074	-0.389955
C226	C	1.987912	-0.795775	-0.445724
C227	C	1.999650	-0.768349	-0.525325
C228	C	2.081645	-0.731221	-0.549157
C229	C	2.151907	-0.721518	-0.493387
C230	C	2.140170	-0.748945	-0.413787
H231	H	1.927210	-0.823261	-0.428083
H232	H	1.947636	-0.775532	-0.566609
H233	H	2.090333	-0.710918	-0.608082
H234	H	2.212610	-0.694032	-0.511029
H235	H	2.192184	-0.741762	-0.372503
C236	C	2.014536	-0.516046	-0.463464
C237	C	1.944289	-0.525746	-0.519241
C238	C	1.956033	-0.498314	-0.598838
C239	C	2.038024	-0.461182	-0.622658
C240	C	2.108276	-0.451480	-0.566879
C241	C	2.096532	-0.478912	-0.487282
H242	H	1.883590	-0.553235	-0.501609
H243	H	1.904027	-0.505496	-0.640129
H244	H	2.046718	-0.440876	-0.681580
H245	H	2.168976	-0.423991	-0.584511
H246	H	2.148538	-0.471730	-0.445991
H247	H	1.957211	-0.351723	-0.371365
H248	H	1.933166	-0.243273	-0.371870
H249	H	2.010167	0.020512	-0.982962
H250	H	2.460995	-0.042088	-0.698650
H251	H	2.237327	-0.229357	-0.233693
H252	H	1.939393	-0.147487	-0.495628
