data_functionalizedCrystal
_audit_creation_method	'MofGen! by Chris Wilmer'
_symmetry_space_group_name_H-M	'P1'
_symmetry_Int_Tables_number	1
_symmetry_cell_setting	triclinic
loop_
_symmetry_equiv_pos_as_xyz
  x,y,z
_cell_length_a	18.215407
_cell_length_b	18.215405
_cell_length_c	18.215399
_cell_angle_alpha	89.969449
_cell_angle_beta	89.982187
_cell_angle_gamma	90.019398
loop_
_atom_site_label
_atom_site_type_symbol
_atom_site_fract_x
_atom_site_fract_y
_atom_site_fract_z
Zn1	Zn	1.125072	-0.293100	-0.416063
Zn2	Zn	1.625072	0.206900	0.083937
Zn3	Zn	1.124980	-0.416171	-0.292991
Zn4	Zn	1.624980	0.083829	0.207009
Zn5	Zn	1.002004	-0.293111	-0.293015
Zn6	Zn	1.502004	0.206889	0.206985
Zn7	Zn	1.001970	-0.416117	-0.416020
Zn8	Zn	1.501970	0.083883	0.083980
O9	O	1.063507	-0.354625	-0.354522
O10	O	1.563507	0.145375	0.145478
O11	O	1.228044	-0.309443	-0.399745
O12	O	1.728044	0.190557	0.100255
O13	O	1.108643	-0.399874	-0.190010
O14	O	1.608643	0.100126	0.309990
O15	O	1.018382	-0.190125	-0.309365
O16	O	1.518382	0.309875	0.190635
O17	O	1.227977	-0.399863	-0.309325
O18	O	1.727977	0.100137	0.190675
O19	O	1.108799	-0.190117	-0.399768
O20	O	1.608799	0.309883	0.100232
O21	O	1.018293	-0.309462	-0.190027
O22	O	1.518293	0.190538	0.309973
O23	O	0.899016	-0.309410	-0.309324
O24	O	1.399016	0.190590	0.190676
O25	O	1.018324	-0.399771	-0.519010
O26	O	1.518324	0.100229	-0.019010
O27	O	0.898991	-0.399782	-0.399695
O28	O	1.398991	0.100218	0.100305
O29	O	1.108766	-0.309391	-0.519042
O30	O	1.608766	0.190609	-0.019042
O31	O	1.108610	-0.519148	-0.309283
O32	O	1.608610	-0.019148	0.190717
O33	O	1.018235	-0.519109	-0.399672
O34	O	1.518235	-0.019109	0.100328
C35	C	0.872300	-0.354592	-0.354508
C36	C	1.372300	0.145408	0.145492
C37	C	0.790502	-0.354596	-0.354519
C38	C	1.290502	0.145404	0.145481
C39	C	0.525473	-0.307634	-0.401679
C40	C	1.025473	0.192366	0.098321
C41	C	0.602332	-0.307622	-0.401677
C42	C	1.102332	0.192378	0.098323
C43	C	0.602281	-0.401639	-0.307381
C44	C	1.102281	0.098361	0.192619
C45	C	0.525424	-0.401654	-0.307388
C46	C	1.025424	0.098346	0.192612
C47	C	0.487022	-0.354647	-0.354536
C48	C	0.987022	0.145353	0.145464
C49	C	0.640738	-0.354620	-0.354527
C50	C	1.140738	0.145380	0.145473
C51	C	0.724072	-0.354608	-0.354524
C52	C	1.224072	0.145392	0.145476
C53	C	0.403683	-0.354661	-0.354540
C54	C	0.903683	0.145339	0.145460
C55	C	1.063429	-0.545831	-0.354487
C56	C	1.563429	-0.045831	0.145513
C57	C	1.063463	-0.627630	-0.354496
C58	C	1.563463	-0.127630	0.145504
C59	C	1.110632	-0.815820	-0.307517
C60	C	1.610632	-0.315820	0.192483
C61	C	1.110665	-0.892679	-0.307535
C62	C	1.610665	-0.392679	0.192465
C63	C	1.016476	-0.892677	-0.401580
C64	C	1.516476	-0.392677	0.098420
C65	C	1.016447	-0.815820	-0.401565
C66	C	1.516447	-0.315820	0.098435
C67	C	1.063524	-0.777393	-0.354530
C68	C	1.563524	-0.277393	0.145470
C69	C	1.063586	-0.931109	-0.354562
C70	C	1.563586	-0.431109	0.145438
C71	C	1.063621	-1.014443	-0.354582
C72	C	1.563621	-0.514443	0.145418
C73	C	1.063490	-0.694054	-0.354511
C74	C	1.563490	-0.194054	0.145489
C75	C	1.255460	-0.354658	-0.354537
C76	C	1.755460	0.145342	0.145463
C77	C	1.337259	-0.354672	-0.354543
C78	C	1.837259	0.145328	0.145457
C79	C	1.063552	-0.354574	-0.546475
C80	C	1.563552	0.145426	-0.046475
C81	C	1.063571	-0.354552	-0.628274
C82	C	1.563571	0.145448	-0.128274
C83	C	1.063605	-0.162672	-0.354574
C84	C	1.563605	0.337328	0.145426
C85	C	1.063647	-0.080873	-0.354596
C86	C	1.563647	0.419127	0.145404
C87	C	1.110681	-0.307447	-0.816486
C88	C	1.610681	0.192553	-0.316486
C89	C	1.110690	-0.307426	-0.893344
C90	C	1.610690	0.192574	-0.393344
C91	C	1.016513	-0.401544	-0.893301
C92	C	1.516513	0.098456	-0.393301
C93	C	1.016501	-0.401561	-0.816443
C94	C	1.516501	0.098439	-0.316443
C95	C	1.063589	-0.354514	-0.778038
C96	C	1.563589	0.145486	-0.278038
C97	C	1.063610	-0.354475	-0.931754
C98	C	1.563610	0.145525	-0.431754
C99	C	1.063619	-0.354452	-1.015088
C100	C	1.563619	0.145548	-0.515088
C101	C	1.063579	-0.354535	-0.694699
C102	C	1.563579	0.145465	-0.194699
C103	C	1.063504	-0.354622	-0.163316
C104	C	1.563504	0.145378	0.336684
C105	C	1.063628	-0.354436	-0.081517
C106	C	1.563628	0.145564	0.418483
H107	H	0.494116	-0.439943	-0.268998
H108	H	0.994116	0.060057	0.231002
H109	H	0.633558	-0.439909	-0.268994
H110	H	1.133558	0.060091	0.231006
H111	H	0.633636	-0.269339	-0.440066
H112	H	1.133636	0.230661	0.059934
H113	H	0.978177	-0.439849	-0.924580
H114	H	1.478177	0.060151	-0.424580
O115	O	0.970731	-0.447355	-0.779204
O116	O	1.470731	0.052645	-0.279204
C117	C	0.877291	-0.540675	-0.787264
C118	C	1.377291	-0.040675	-0.287264
C119	C	0.929098	-0.488869	-0.829529
C120	C	1.429098	0.011131	-0.329529
H121	H	0.843606	-0.574242	-0.827934
H122	H	1.343606	-0.074242	-0.327934
H123	H	0.911020	-0.579216	-0.751294
H124	H	1.411020	-0.079216	-0.251294
H125	H	0.838853	-0.506877	-0.751266
H126	H	1.338853	-0.006877	-0.251266
H127	H	0.967546	-0.522609	-0.865567
H128	H	1.467546	-0.022609	-0.365567
H129	H	0.895323	-0.450326	-0.865453
H130	H	1.395323	0.049674	-0.365453
H131	H	1.149035	-0.269098	-0.924645
H132	H	1.649035	0.230902	-0.424645
H133	H	0.494209	-0.269357	-0.440070
H134	H	0.994209	0.230643	0.059930
H135	H	1.149026	-0.923962	-0.269254
H136	H	1.649026	-0.423962	0.230746
O137	O	1.156433	-0.778605	-0.261809
O138	O	1.656433	-0.278605	0.238191
C139	C	1.249828	-0.786722	-0.168501
C140	C	1.749828	-0.286722	0.331499
C141	C	1.198006	-0.828956	-0.220240
C142	C	1.698006	-0.328956	0.279760
H143	H	1.283442	-0.827412	-0.134868
H144	H	1.783442	-0.327412	0.365132
H145	H	1.288324	-0.750706	-0.202280
H146	H	1.788324	-0.250706	0.297720
H147	H	1.216039	-0.750773	-0.130012
H148	H	1.716039	-0.250773	0.369988
H149	H	1.231736	-0.864945	-0.258739
H150	H	1.731736	-0.364945	0.241261
H151	H	1.159508	-0.864925	-0.186415
H152	H	1.659508	-0.364925	0.313585
H153	H	0.978146	-0.923974	-0.439873
H154	H	1.478146	-0.423974	0.060127
H155	H	0.978086	-0.784531	-0.439852
H156	H	1.478086	-0.284531	0.060148
H157	H	1.149021	-0.269136	-0.785218
H158	H	1.649021	0.230864	-0.285218
