data_functionalizedCrystal
_audit_creation_method	'MofGen! by Chris Wilmer'
_symmetry_space_group_name_H-M	'P1'
_symmetry_Int_Tables_number	1
_symmetry_cell_setting	triclinic
loop_
_symmetry_equiv_pos_as_xyz
  x,y,z
_cell_length_a	8.497374
_cell_length_b	13.032831
_cell_length_c	13.032268
_cell_angle_alpha	90.886977
_cell_angle_beta	82.839691
_cell_angle_gamma	97.198504
loop_
_atom_site_label
_atom_site_type_symbol
_atom_site_fract_x
_atom_site_fract_y
_atom_site_fract_z
Zn1	Zn	-1.065478	-1.498738	0.780968
Zn2	Zn	-1.300541	-1.520538	0.609018
Zn3	Zn	-0.999571	-1.348581	0.587201
Zn4	Zn	-1.292011	-1.326784	0.759142
O5	O	-1.164400	-1.423660	0.684082
O6	O	-1.127812	-1.645558	0.776424
O7	O	-1.236604	-1.515972	0.462204
O8	O	-0.787552	-1.368498	0.612909
O9	O	-1.300512	-1.661574	0.650092
O10	O	-0.835974	-1.478818	0.755269
O11	O	-1.015483	-1.389636	0.446175
O12	O	-1.007211	-1.201761	0.591745
O13	O	-1.285973	-1.331349	0.905957
O14	O	-1.222066	-1.185747	0.718069
O15	O	-1.119541	-1.457683	0.921993
O16	O	-1.520171	-1.494837	0.628928
O17	O	-1.513904	-1.352487	0.739224
C18	C	-1.106562	-1.156435	0.650171
C19	C	-1.081861	-1.042112	0.635689
C20	C	-1.209157	-1.389653	0.952335
C21	C	-1.228230	-1.375161	1.066648
C22	C	-1.222465	-1.691929	0.718126
C23	C	-1.247209	-1.806249	0.732634
C24	C	-0.752919	-1.423651	0.684086
C25	C	-0.574275	-1.423651	0.684089
C26	C	-1.119716	-1.457594	0.416881
C27	C	-1.100242	-1.472285	0.302593
C28	C	-1.177292	-0.983259	0.691641
C29	C	-1.151765	-0.865100	0.676674
C30	C	-1.154386	-1.431207	1.125547
C31	C	-1.174097	-1.416231	1.243696
H32	H	-1.277888	-1.020349	0.750628
H33	H	-1.051151	-0.828013	0.617690
H34	H	-1.347810	-0.843332	0.791628
H35	H	-1.022413	-1.531355	1.265554
F36	F	-0.950358	-0.993637	0.558596
H37	H	-1.076566	-1.490275	1.088503
H38	H	-1.251904	-1.357149	1.280734
H39	H	-1.306032	-1.316083	1.103691
