data_functionalizedCrystal
_audit_creation_method	'MofGen! by Chris Wilmer'
_symmetry_space_group_name_H-M	'P1'
_symmetry_Int_Tables_number	1
_symmetry_cell_setting	triclinic
loop_
_symmetry_equiv_pos_as_xyz
  x,y,z
_cell_length_a	11.792241
_cell_length_b	14.971491
_cell_length_c	14.048226
_cell_angle_alpha	89.991693
_cell_angle_beta	90.001436
_cell_angle_gamma	96.095174
loop_
_atom_site_label
_atom_site_type_symbol
_atom_site_fract_x
_atom_site_fract_y
_atom_site_fract_z
O1	O	-0.147937	1.187537	-0.079191
O2	O	0.352063	1.687537	0.420809
O3	O	-0.165643	0.927208	-0.079182
O4	O	0.334357	1.427208	0.420818
O5	O	0.008421	1.063690	-0.079192
O6	O	0.508421	1.563690	0.420808
O7	O	-0.322001	1.051055	-0.079181
O8	O	0.177999	1.551055	0.420819
O9	O	0.008431	1.063673	0.079129
O10	O	0.508431	1.563673	0.579129
O11	O	-0.165633	0.927192	0.079139
O12	O	0.334367	1.427192	0.579139
O13	O	-0.147927	1.187520	0.079131
O14	O	0.352073	1.687520	0.579131
Zn15	Zn	-0.156778	1.057353	0.104272
Zn16	Zn	0.343222	1.557353	0.604272
Zn17	Zn	-0.156792	1.057375	-0.104323
Zn18	Zn	0.343208	1.557375	0.395677
O19	O	-0.321991	1.051039	0.079141
O20	O	0.178009	1.551039	0.579141
C21	C	-0.164845	0.893872	-0.000021
C22	C	0.335155	1.393872	0.499979
C23	C	-0.162469	0.794566	-0.000018
C24	C	0.337531	1.294566	0.499982
C25	C	-0.152222	0.366828	-0.086341
C26	C	0.347778	0.866828	0.413659
C27	C	-0.154451	0.460137	-0.086338
C28	C	0.345549	0.960137	0.413662
C29	C	-0.155567	0.506779	-0.000034
C30	C	0.344433	1.006779	0.499966
C31	C	-0.154443	0.460107	0.086273
C32	C	0.345557	0.960107	0.586273
C33	C	-0.152206	0.366800	0.086268
C34	C	0.347794	0.866800	0.586268
C35	C	-0.159109	0.654587	0.086276
C36	C	0.340891	1.154587	0.586276
C37	C	-0.161348	0.747900	0.086281
C38	C	0.338652	1.247900	0.586281
C39	C	-0.161354	0.747925	-0.086329
C40	C	0.338646	1.247925	0.413671
C41	C	-0.159117	0.654618	-0.086334
C42	C	0.340883	1.154618	0.413666
C43	C	-0.157995	0.607952	-0.000028
C44	C	0.342005	1.107952	0.499972
C45	C	-0.364282	1.051841	-0.000019
C46	C	0.135718	1.551841	0.499981
C47	C	-0.490280	1.054216	-0.000014
C48	C	0.009720	1.554216	0.499986
C49	C	-0.720965	1.058584	-0.000039
C50	C	-0.220965	1.558584	0.499961
C51	C	-0.592595	1.056157	-0.000025
C52	C	-0.092595	1.556157	0.499975
C53	C	0.050712	1.062888	-0.000035
C54	C	0.550712	1.562888	0.499965
C55	C	0.176710	1.060513	-0.000046
C56	C	0.676710	1.560513	0.499954
C57	C	-0.148725	1.220856	-0.000033
C58	C	0.351275	1.720856	0.499967
C59	C	-0.151101	1.320163	-0.000042
C60	C	0.348899	1.820163	0.499958
N61	N	-0.156768	1.057345	0.246632
N62	N	0.343232	1.557345	0.746632
N63	N	-0.156793	1.057391	-0.246684
N64	N	0.343207	1.557391	0.253316
C65	C	-0.079725	1.117798	0.296446
C66	C	0.420275	1.617798	0.796446
C67	C	-0.079724	1.117804	0.396104
C68	C	0.420276	1.617804	0.896104
C69	C	-0.156773	1.057361	0.445946
C70	C	0.343227	1.557361	0.945946
C71	C	-0.233821	0.996901	0.396125
C72	C	0.266179	1.496901	0.896125
C73	C	-0.233815	0.996891	0.296470
C74	C	0.266185	1.496891	0.796470
C75	C	-0.233829	0.996927	0.603840
C76	C	0.266171	1.496927	1.103840
C77	C	-0.233837	0.996937	0.703502
C78	C	0.266163	1.496937	1.203502
C79	C	-0.079738	1.117840	0.703474
C80	C	0.420262	1.617840	1.203474
C81	C	-0.079732	1.117830	0.603818
C82	C	0.420268	1.617830	1.103818
C83	C	-0.156781	1.057371	0.554004
C84	C	0.343219	1.557371	1.054004
H85	H	-0.155345	0.498090	0.156543
H86	H	0.344655	0.998090	0.656543
Cl87	Cl	-0.150786	0.308136	0.194764
Cl88	Cl	0.349214	0.808136	0.694764
Cl89	Cl	-0.330691	0.920917	0.541221
Cl90	Cl	0.169309	1.420917	1.041221
H91	H	-0.296577	0.947717	0.744079
H92	H	0.203423	1.447717	1.244079
H93	H	-0.151321	0.328859	-0.156621
H94	H	0.348679	0.828859	0.343379
H95	H	-0.296551	0.947663	0.255912
H96	H	0.203449	1.447663	0.755912
Cl97	Cl	-0.155854	0.518799	-0.194834
Cl98	Cl	0.344146	1.018799	0.305166
Cl99	Cl	0.017139	1.193794	0.233798
Cl100	Cl	0.517139	1.693794	0.733798
Cl101	Cl	-0.157685	0.595925	0.194778
Cl102	Cl	0.342315	1.095925	0.694778
Cl103	Cl	0.017120	1.193845	0.766100
Cl104	Cl	0.517120	1.693845	1.266100
H105	H	-0.158216	0.616644	-0.156611
H106	H	0.341784	1.116644	0.343389
H107	H	-0.296552	0.947682	0.436713
H108	H	0.203448	1.447682	0.936713
H109	H	-0.016988	1.167029	0.436661
H110	H	0.483012	1.667029	0.936661
Cl111	Cl	0.017123	1.193822	0.541157
Cl112	Cl	0.517123	1.693822	1.041157
H113	H	-0.162269	0.785924	-0.156604
H114	H	0.337731	1.285924	0.343396
Cl115	Cl	-0.162743	0.806535	0.194780
Cl116	Cl	0.337257	1.306535	0.694780
