data_functionalizedCrystal
_audit_creation_method	'MofGen! by Chris Wilmer'
_symmetry_space_group_name_H-M	'P1'
_symmetry_Int_Tables_number	1
_symmetry_cell_setting	triclinic
loop_
_symmetry_equiv_pos_as_xyz
  x,y,z
_cell_length_a	13.897449
_cell_length_b	12.594516
_cell_length_c	13.897441
_cell_angle_alpha	90.028053
_cell_angle_beta	90.023394
_cell_angle_gamma	90.012642
loop_
_atom_site_label
_atom_site_type_symbol
_atom_site_fract_x
_atom_site_fract_y
_atom_site_fract_z
Zn1	Zn	1.474742	-0.423685	0.545467
Zn2	Zn	1.974742	0.076315	1.045467
Zn3	Zn	1.474653	-0.601695	0.384175
Zn4	Zn	1.974653	-0.101695	0.884175
Zn5	Zn	1.313431	-0.423734	0.384178
Zn6	Zn	1.813431	0.076266	0.884178
Zn7	Zn	1.313429	-0.601624	0.545420
Zn8	Zn	1.813429	-0.101624	1.045420
O9	O	1.394064	-0.512685	0.464810
O10	O	1.894064	-0.012685	0.964810
O11	O	1.609712	-0.447307	0.524090
O12	O	2.109712	0.052693	1.024090
O13	O	1.453230	-0.578139	0.249194
O14	O	1.953230	-0.078139	0.749194
O15	O	1.334868	-0.274782	0.405593
O16	O	1.834868	0.225218	0.905593
O17	O	1.609646	-0.578091	0.405589
O18	O	2.109646	-0.078091	0.905589
O19	O	1.453382	-0.274745	0.524092
O20	O	1.953382	0.225255	1.024092
O21	O	1.334781	-0.447391	0.249196
O22	O	1.834781	0.052609	0.749196
O23	O	1.178449	-0.447322	0.405548
O24	O	1.678449	0.052678	0.905548
O25	O	1.334865	-0.577970	0.680408
O26	O	1.834865	-0.077970	1.180408
O27	O	1.178448	-0.578017	0.524013
O28	O	1.678448	-0.078017	1.024013
O29	O	1.453380	-0.447238	0.680442
O30	O	1.953380	0.052762	1.180442
O31	O	1.453228	-0.750632	0.405544
O32	O	1.953228	-0.250632	0.905544
O33	O	1.334778	-0.750579	0.524011
O34	O	1.834778	-0.250579	1.024011
C35	C	1.143449	-0.512668	0.464776
C36	C	1.643449	-0.012668	0.964776
C37	C	1.036236	-0.512687	0.464785
C38	C	1.536236	-0.012687	0.964785
C39	C	0.949166	-0.512690	0.464801
C40	C	1.449166	-0.012690	0.964801
C41	C	0.839933	-0.512698	0.464830
C42	C	1.339933	-0.012698	0.964830
C43	C	1.394019	-0.789225	0.464793
C44	C	1.894019	-0.289225	0.964793
C45	C	1.394088	-0.907531	0.464818
C46	C	1.894088	-0.407531	0.964818
C47	C	1.458588	-0.976774	0.400453
C48	C	1.958588	-0.476774	0.900453
C49	C	1.482161	-1.047470	0.488495
C50	C	1.982161	-0.547470	0.988495
C51	C	1.370636	-1.047634	0.376833
C52	C	1.870636	-0.547634	0.876833
C53	C	1.417707	-0.976668	0.552906
C54	C	1.917707	-0.476668	1.052906
C55	C	1.306140	-0.976827	0.441184
C56	C	1.806140	-0.476827	0.941184
C57	C	1.329680	-1.047490	0.529287
C58	C	1.829680	-0.547490	1.029287
C59	C	1.645657	-0.512702	0.464844
C60	C	2.145657	-0.012702	0.964844
C61	C	1.752871	-0.512709	0.464859
C62	C	2.252871	-0.012709	0.964859
C63	C	1.394132	-0.512590	0.716403
C64	C	1.894132	-0.012590	1.216403
C65	C	1.394161	-0.512550	0.823617
C66	C	1.894161	-0.012550	1.323617
C67	C	1.394135	-0.235064	0.464848
C68	C	1.894135	0.264936	0.964848
C69	C	1.394165	-0.116758	0.464864
C70	C	1.894165	0.383242	0.964864
C71	C	1.394051	-0.512701	0.214196
C72	C	1.894051	-0.012701	0.714196
C73	C	1.394209	-0.512442	0.106982
C74	C	1.894209	-0.012442	0.606982
C75	C	1.394188	-0.512478	1.019912
C76	C	1.894188	-0.012478	1.519912
C77	C	1.394170	-0.512521	0.910680
C78	C	1.894170	-0.012521	1.410680
H79	H	1.513142	-0.945722	0.346071
H80	H	2.013142	-0.445722	0.846071
H81	H	1.350767	-1.078805	0.302405
H82	H	1.850767	-0.578805	0.802405
H83	H	1.556570	-1.078503	0.508511
H84	H	2.056570	-0.578503	1.008511
H85	H	1.437501	-0.945630	0.627398
H86	H	1.937501	-0.445630	1.127398
H87	H	1.275168	-1.078345	0.583801
H88	H	1.775168	-0.578345	1.083801
H89	H	1.231752	-0.945770	0.421142
H90	H	1.731752	-0.445770	0.921142
