data_functionalizedCrystal
_audit_creation_method	'MofGen! by Chris Wilmer'
_symmetry_space_group_name_H-M	'P1'
_symmetry_Int_Tables_number	1
_symmetry_cell_setting	triclinic
loop_
_symmetry_equiv_pos_as_xyz
  x,y,z
_cell_length_a	13.032831
_cell_length_b	12.594516
_cell_length_c	13.032268
_cell_angle_alpha	97.150744
_cell_angle_beta	89.113023
_cell_angle_gamma	97.168147
loop_
_atom_site_label
_atom_site_type_symbol
_atom_site_fract_x
_atom_site_fract_y
_atom_site_fract_z
Zn1	Zn	1.498367	0.718803	0.780851
Zn2	Zn	1.520085	0.877383	0.608875
Zn3	Zn	1.348233	0.674340	0.587091
Zn4	Zn	1.326334	0.871628	0.759000
O5	O	1.423255	0.785538	0.683954
O6	O	1.645165	0.760855	0.776300
O7	O	1.515542	0.834249	0.462068
O8	O	1.368224	0.531306	0.612822
O9	O	1.661121	0.877363	0.649949
O10	O	1.478527	0.563972	0.755177
O11	O	1.389283	0.685074	0.446064
O12	O	1.201410	0.679494	0.591634
O13	O	1.330901	0.867555	0.905816
O14	O	1.185321	0.824441	0.717935
O15	O	1.457293	0.755275	0.921870
O16	O	1.494307	1.025552	0.628761
O17	O	1.351959	1.021324	0.739057
C18	C	1.156050	0.746519	0.650050
C19	C	1.041735	0.729855	0.635570
C20	C	0.982849	0.794236	0.691512
C21	C	0.864699	0.777014	0.676547
C22	C	1.423139	1.062061	0.683928
C23	C	1.423179	1.180376	0.683963
C24	C	1.345743	1.247360	0.743902
C25	C	1.332599	1.303974	0.646882
C26	C	1.436377	1.334571	0.781004
C27	C	1.409992	1.235419	0.586887
C28	C	1.513806	1.266023	0.721078
C29	C	1.500705	1.322603	0.623998
C30	C	1.691503	0.824711	0.717992
C31	C	1.805814	0.841404	0.732497
C32	C	1.389232	0.815733	0.952202
C33	C	1.374733	0.828600	1.066514
C34	C	1.423351	1.507936	0.684000
C35	C	1.423277	1.389621	0.684001
C36	C	1.457204	0.755393	0.416758
C37	C	1.471902	0.742256	0.302472
C38	C	1.430806	0.778782	1.125420
C39	C	1.415822	0.792080	1.243567
H40	H	1.019904	0.862101	0.750488
O41	O	1.258901	1.203654	0.810912
H42	H	1.269131	1.244866	0.891127
H43	H	1.315628	0.881087	1.103548
H44	H	1.489900	0.726283	1.088385
H45	H	1.256004	1.321215	0.615518
O46	O	1.550195	0.672718	1.253429
H47	H	1.588986	0.638245	1.314553
H48	H	1.398778	1.192454	0.504802
H49	H	1.356713	0.844571	1.280597
O50	O	1.587519	1.366016	0.556801
H51	H	1.576349	1.325724	0.476343
H52	H	0.827647	0.709137	0.617575
H53	H	1.590377	1.248788	0.752485
H54	H	0.842863	0.909272	0.791480
O55	O	0.992669	0.639967	0.557431
H56	H	0.907571	0.640559	0.557926
O57	O	1.451124	1.391631	0.889690
H58	H	1.386700	1.361388	0.939257
