data_functionalizedCrystal
_audit_creation_method	'MofGen! by Chris Wilmer'
_symmetry_space_group_name_H-M	'P1'
_symmetry_Int_Tables_number	1
_symmetry_cell_setting	triclinic
loop_
_symmetry_equiv_pos_as_xyz
  x,y,z
_cell_length_a	9.065218
_cell_length_b	10.654550
_cell_length_c	9.130313
_cell_angle_alpha	89.995631
_cell_angle_beta	89.994312
_cell_angle_gamma	84.750441
loop_
_atom_site_label
_atom_site_type_symbol
_atom_site_fract_x
_atom_site_fract_y
_atom_site_fract_z
O1	O	-1.959393	-0.184160	0.121874
O2	O	-1.530025	-0.199265	0.121860
O3	O	-1.754581	-0.009013	0.121858
O4	O	-1.734837	-0.374413	0.121876
O5	O	-1.754565	-0.009007	-0.121740
O6	O	-1.530010	-0.199260	-0.121738
O7	O	-1.959377	-0.184154	-0.121725
Cu8	Cu	-1.744692	-0.191707	-0.143974
Cu9	Cu	-1.744710	-0.191713	0.144110
O10	O	-1.734822	-0.374407	-0.121723
C11	C	-1.475039	-0.197811	0.000059
C12	C	-1.311220	-0.193470	0.000054
N13	N	-1.744690	-0.191701	-0.346597
C14	C	-1.753123	0.037794	0.000060
C15	C	-1.748786	0.177254	0.000062
C16	C	-1.014364	-0.185609	0.000071
C17	C	-1.178183	-0.189949	0.000058
C18	C	-1.736279	-0.421214	0.000079
C19	C	-1.740616	-0.560674	0.000087
C20	C	-1.881001	0.256216	0.000067
C21	C	-1.876917	0.387253	0.000084
C22	C	-1.608391	0.360354	0.000086
C23	C	-1.612477	0.229319	0.000079
C24	C	-1.844157	-0.107493	-0.423249
C25	C	-1.844171	-0.107494	-0.576586
C26	C	-1.645246	-0.275921	-0.576604
C27	C	-1.645226	-0.275913	-0.423270
N28	N	-1.744724	-0.191709	0.346732
H29	H	-1.984580	0.451540	0.000091
H30	H	-1.925164	-0.038923	-0.638993
H31	H	-1.991992	0.213830	0.000056
H32	H	-1.497413	0.402761	0.000098
H33	H	-1.504805	0.165025	0.000080
H34	H	-1.564267	-0.344486	-0.639047
H35	H	-1.925144	-0.038921	-0.360826
H36	H	-1.564221	-0.344486	-0.360855
