data_functionalizedCrystal
_audit_creation_method	'MofGen! by Chris Wilmer'
_symmetry_space_group_name_H-M	'P1'
_symmetry_Int_Tables_number	1
_symmetry_cell_setting	triclinic
loop_
_symmetry_equiv_pos_as_xyz
  x,y,z
_cell_length_a	10.686220
_cell_length_b	16.959453
_cell_length_c	10.686551
_cell_angle_alpha	94.408900
_cell_angle_beta	89.691918
_cell_angle_gamma	94.401879
loop_
_atom_site_label
_atom_site_type_symbol
_atom_site_fract_x
_atom_site_fract_y
_atom_site_fract_z
Zn1	Zn	1.972259	-0.192707	0.562369
Zn2	Zn	1.956009	-0.335775	0.352597
Zn3	Zn	1.746375	-0.212927	0.368684
Zn4	Zn	1.762439	-0.334173	0.578375
O5	O	1.859271	-0.268896	0.465506
O6	O	2.145647	-0.203893	0.521111
O7	O	1.914677	-0.328612	0.179185
O8	O	1.776417	-0.099629	0.394411
O9	O	2.133708	-0.309005	0.366993
O10	O	1.942373	-0.084773	0.536710
O11	O	1.760659	-0.238356	0.191004
O12	O	1.572963	-0.236803	0.409932
O13	O	1.803796	-0.306275	0.751798
O14	O	1.584765	-0.325882	0.563990
O15	O	1.957950	-0.202340	0.740038
O16	O	1.930254	-0.446179	0.382514
O17	O	1.788039	-0.445002	0.548392
C18	C	1.533348	-0.283363	0.490444
C19	C	1.393919	-0.289570	0.501143
C20	C	1.859162	-0.474269	0.465469
C21	C	1.859234	-0.562121	0.465485
C22	C	1.945798	-0.925788	0.539745
C23	C	1.773107	-0.941375	0.391427
C24	C	1.773059	-0.858833	0.391402
C25	C	1.859380	-0.809764	0.465551
C26	C	1.945750	-0.843238	0.539725
C27	C	1.686682	-0.825353	0.317239
C28	C	1.686629	-0.742806	0.317212
C29	C	1.772957	-0.693736	0.391355
C30	C	1.859331	-0.727214	0.465531
C31	C	1.945653	-0.678145	0.539680
C32	C	2.032034	-0.711622	0.613850
C33	C	2.032078	-0.794167	0.613868
C34	C	1.772913	-0.611190	0.391337
C35	C	1.945604	-0.595595	0.539660
C36	C	2.186466	-0.254372	0.440472
C37	C	2.325897	-0.248183	0.429804
C38	C	1.884478	-0.251873	0.792708
C39	C	1.895220	-0.244619	0.932142
C40	C	1.859415	-0.062717	0.465569
C41	C	1.859477	0.025143	0.465596
C42	C	1.834234	-0.285792	0.139572
C43	C	1.823735	-0.292812	0.000120
H44	H	1.374329	-0.208003	0.360542
O45	O	1.329776	-0.342801	0.592898
H46	H	1.226656	-0.339486	0.587193
O47	O	1.731756	-0.354813	0.935940
H48	H	1.783307	-0.395613	0.871921
O49	O	2.038722	-0.542670	0.619620
H50	H	2.098790	-0.579819	0.671193
H51	H	2.102404	-0.821432	0.674254
H52	H	2.102312	-0.671660	0.674229
O53	O	1.593473	-0.706709	0.237200
H54	H	1.533892	-0.669037	0.298161
O55	O	1.987172	-0.182609	0.996361
H56	H	2.083712	-0.193084	0.963761
H57	H	2.016131	-0.953048	0.600129
O58	O	1.680021	-0.994293	0.311436
H59	H	1.694575	-1.057316	0.323901
H60	H	1.616401	-0.865310	0.256875
H61	H	1.702577	-0.583937	0.330955
