data_functionalizedCrystal
_audit_creation_method	'MofGen! by Chris Wilmer'
_symmetry_space_group_name_H-M	'P1'
_symmetry_Int_Tables_number	1
_symmetry_cell_setting	triclinic
loop_
_symmetry_equiv_pos_as_xyz
  x,y,z
_cell_length_a	12.759401
_cell_length_b	12.759400
_cell_length_c	19.076919
_cell_angle_alpha	87.725144
_cell_angle_beta	87.716999
_cell_angle_gamma	90.013799
loop_
_atom_site_label
_atom_site_type_symbol
_atom_site_fract_x
_atom_site_fract_y
_atom_site_fract_z
Zn1	Zn	1.582345	-0.442178	0.397930
Zn2	Zn	1.589311	-0.610814	0.280242
Zn3	Zn	1.413718	-0.435147	0.280253
Zn4	Zn	1.406638	-0.617811	0.397902
O5	O	1.498003	-0.526488	0.339082
O6	O	1.730290	-0.464562	0.382326
O7	O	1.571897	-0.581641	0.181754
O8	O	1.436135	-0.289060	0.295879
O9	O	1.735408	-0.588458	0.295861
O10	O	1.560025	-0.294225	0.382336
O11	O	1.442889	-0.452579	0.181762
O12	O	1.265758	-0.459364	0.295852
O13	O	1.424067	-0.600383	0.496395
O14	O	1.260556	-0.593566	0.382288
O15	O	1.553159	-0.471347	0.496416
O16	O	1.565031	-0.758762	0.295834
O17	O	1.430822	-0.763903	0.382278
C18	C	1.225037	-0.526462	0.339068
C19	C	1.108259	-0.526478	0.339079
C20	C	1.497942	-0.799454	0.339067
C21	C	1.498010	-0.916232	0.339084
C22	C	1.056070	-0.456516	0.294155
C23	C	0.946345	-0.456541	0.294164
C24	C	0.941009	-0.596495	0.384028
C25	C	1.050731	-0.596473	0.384015
C26	C	1.113598	-0.386520	0.249219
C27	C	1.061409	-0.316551	0.204291
C28	C	0.951684	-0.316577	0.204300
C29	C	0.894149	-0.386571	0.249237
C30	C	1.567964	-0.968385	0.294123
C31	C	1.568028	-1.078110	0.294144
C32	C	1.428173	-1.083519	0.384091
C33	C	1.428116	-0.973796	0.384073
C34	C	1.637859	-0.910820	0.249134
C35	C	1.707818	-0.962974	0.204168
C36	C	1.707881	-1.072699	0.204190
C37	C	1.637985	-1.130271	0.249178
C38	C	1.772036	-0.526514	0.339096
C39	C	1.888812	-0.526525	0.339101
C40	C	1.487046	-0.537430	0.522657
C41	C	1.482377	-0.542093	0.600885
C42	C	1.498093	-0.252456	0.339112
C43	C	1.498131	-0.135680	0.339125
C44	C	1.508978	-0.515512	0.156221
C45	C	1.513850	-0.510553	0.077993
C46	C	1.547391	-0.477104	0.637649
C47	C	1.542991	-0.481481	0.711153
C48	C	1.473582	-0.550853	0.747892
C49	C	1.408561	-0.615845	0.711123
C50	C	1.412956	-0.611461	0.637620
C51	C	1.453224	-0.571162	0.967721
C52	C	1.448836	-0.575542	1.041229
C53	C	1.583266	-0.441177	1.041254
C54	C	1.587660	-0.436804	0.967750
C55	C	1.522635	-0.501791	0.930987
N56	N	1.469085	-0.555332	0.823025
N57	N	1.527127	-0.497307	0.855855
H58	H	1.202941	-0.386489	0.249208
F59	F	1.661535	-0.362969	0.928655
F60	F	0.879772	-0.670983	0.431849
F61	F	1.353788	-1.144795	0.431966
H62	H	1.371153	-0.931333	0.420685
H63	H	1.093225	-0.653442	0.420597
H64	H	0.909195	-0.259611	0.167714
H65	H	1.764853	-1.115159	0.167582
H66	H	1.764731	-0.916093	0.167545
H67	H	1.637812	-0.821476	0.249110
F68	F	1.122643	-0.242070	0.156464
H69	H	1.638050	-1.219617	0.249197
F70	F	1.621272	-0.403273	0.598555
H71	H	0.804804	-0.386591	0.249238
F72	F	1.612225	-0.412347	0.750277
H73	H	1.636204	-0.388266	1.071194
F74	F	1.374953	-0.649377	1.080328
F75	F	1.384018	-0.640328	0.928605
H76	H	1.352042	-0.672325	0.741042
F77	F	1.343756	-0.680629	0.598494
