data_functionalizedCrystal
_audit_creation_method	'MofGen! by Chris Wilmer'
_symmetry_space_group_name_H-M	'P1'
_symmetry_Int_Tables_number	1
_symmetry_cell_setting	triclinic
loop_
_symmetry_equiv_pos_as_xyz
  x,y,z
_cell_length_a	10.686220
_cell_length_b	14.908520
_cell_length_c	10.686551
_cell_angle_alpha	90.862058
_cell_angle_beta	89.692081
_cell_angle_gamma	97.432636
loop_
_atom_site_label
_atom_site_type_symbol
_atom_site_fract_x
_atom_site_fract_y
_atom_site_fract_z
Zn1	Zn	1.955965	-0.219792	0.581359
Zn2	Zn	1.927617	-0.382972	0.385681
Zn3	Zn	1.728371	-0.242855	0.389666
Zn4	Zn	1.734183	-0.381145	0.611301
O5	O	1.836534	-0.306691	0.492002
O6	O	2.128406	-0.232550	0.541203
O7	O	1.886890	-0.374801	0.211563
O8	O	1.767993	-0.113630	0.404231
O9	O	2.107579	-0.352438	0.397440
O10	O	1.935205	-0.096685	0.545067
O11	O	1.740505	-0.271858	0.214490
O12	O	1.552940	-0.270087	0.433264
O13	O	1.777899	-0.349325	0.781975
O14	O	1.557210	-0.371688	0.596099
O15	O	1.940841	-0.230779	0.759977
O16	O	1.892526	-0.508895	0.426474
O17	O	1.750411	-0.507553	0.592235
C18	C	1.509387	-0.323193	0.518364
C19	C	1.369434	-0.330272	0.529673
C20	C	1.819059	-0.540934	0.512196
C21	C	1.811702	-0.641136	0.520867
C22	C	1.946039	-0.830747	0.364670
C23	C	1.939130	-0.924896	0.372813
C24	C	1.790984	-0.923584	0.545302
C25	C	1.797893	-0.829435	0.537158
C26	C	1.875421	-0.783020	0.446838
C27	C	1.882322	-0.688870	0.438690
C28	C	1.734184	-0.687559	0.611184
C29	C	1.727275	-0.781708	0.619327
C30	C	2.164958	-0.290125	0.465537
C31	C	2.304912	-0.283066	0.454260
C32	C	1.863180	-0.287276	0.817526
C33	C	1.874536	-0.279002	0.956246
C34	C	1.854113	-0.071529	0.471753
C35	C	1.861604	0.028682	0.463125
C36	C	1.810068	-0.325962	0.167732
C37	C	1.798976	-0.333969	0.028971
H38	H	1.945446	-0.651080	0.365144
H39	H	1.317604	-0.376105	0.602888
Br40	Br	1.996859	-0.190016	1.029348
Br41	Br	1.622072	-0.844707	0.741905
H42	H	2.009156	-0.792956	0.291119
Br43	Br	1.391295	-0.206681	0.332203
H44	H	1.996637	-0.963751	0.305905
H45	H	1.725602	-0.387361	0.985110
H46	H	1.676678	-0.648690	0.678088
Br47	Br	1.685799	-0.986588	0.667888
