data_functionalizedCrystal
_audit_creation_method	'MofGen! by Chris Wilmer'
_symmetry_space_group_name_H-M	'P1'
_symmetry_Int_Tables_number	1
_symmetry_cell_setting	triclinic
loop_
_symmetry_equiv_pos_as_xyz
  x,y,z
_cell_length_a	29.839134
_cell_length_b	29.839131
_cell_length_c	29.839126
_cell_angle_alpha	90.031806
_cell_angle_beta	90.029638
_cell_angle_gamma	90.030088
loop_
_atom_site_label
_atom_site_type_symbol
_atom_site_fract_x
_atom_site_fract_y
_atom_site_fract_z
Zn1	Zn	0.686773	-0.178949	0.254101
Zn2	Zn	1.020106	0.154384	0.587434
Zn3	Zn	1.353440	0.487717	0.920768
Zn4	Zn	0.686703	-0.254070	0.178961
Zn5	Zn	1.020036	0.079264	0.512294
Zn6	Zn	1.353370	0.412597	0.845628
Zn7	Zn	0.611646	-0.178948	0.178971
Zn8	Zn	0.944979	0.154385	0.512304
Zn9	Zn	1.278312	0.487719	0.845637
Zn10	Zn	0.611612	-0.254046	0.254049
Zn11	Zn	0.944945	0.079287	0.587383
Zn12	Zn	1.278278	0.412620	0.920716
O13	O	0.649183	-0.216503	0.216521
O14	O	0.982517	0.116830	0.549854
O15	O	1.315850	0.450163	0.883187
O16	O	0.749631	-0.188925	0.244151
O17	O	1.082964	0.144409	0.577485
O18	O	1.416297	0.477742	0.910818
O19	O	0.676732	-0.244114	0.116095
O20	O	1.010065	0.089219	0.449429
O21	O	1.343398	0.422553	0.782762
O22	O	0.621655	-0.116081	0.188963
O23	O	0.954988	0.217252	0.522296
O24	O	1.288322	0.550586	0.855629
O25	O	0.749579	-0.244115	0.188946
O26	O	1.082913	0.089218	0.522279
O27	O	1.416246	0.422551	0.855613
O28	O	0.676851	-0.116082	0.244161
O29	O	1.010184	0.217251	0.577494
O30	O	1.343517	0.550585	0.910827
O31	O	0.621587	-0.188922	0.116102
O32	O	0.954921	0.144411	0.449436
O33	O	1.288254	0.477744	0.782769
O34	O	0.548774	-0.188899	0.188912
O35	O	0.882107	0.144434	0.522246
O36	O	1.215441	0.477767	0.855579
O37	O	0.621597	-0.244075	0.316923
O38	O	0.954930	0.089258	0.650257
O39	O	1.288263	0.422591	0.983590
O40	O	0.548749	-0.244074	0.244073
O41	O	0.882082	0.089259	0.577406
O42	O	1.215416	0.422593	0.910739
O43	O	0.676818	-0.188902	0.316961
O44	O	1.010151	0.144432	0.650295
O45	O	1.343484	0.477765	0.983628
O46	O	0.676699	-0.316934	0.188896
O47	O	1.010032	0.016400	0.522229
O48	O	1.343365	0.349733	0.855563
O49	O	0.621529	-0.316917	0.244063
O50	O	0.954862	0.016417	0.577396
O51	O	1.288196	0.349750	0.910730
C52	C	0.532461	-0.216484	0.216488
C53	C	0.865794	0.116849	0.549822
C54	C	1.199127	0.450182	0.883155
C55	C	0.482526	-0.216487	0.216485
C56	C	0.815860	0.116846	0.549818
C57	C	1.149193	0.450180	0.883152
C58	C	0.172879	-0.245275	0.245207
C59	C	0.506213	0.088058	0.578541
C60	C	0.839546	0.421392	0.911874
C61	C	-0.014794	-0.245288	0.245227
C62	C	0.318540	0.088046	0.578561
C63	C	0.651873	0.421379	0.911894
O64	O	-0.039062	-0.269743	0.269629
O65	O	0.294272	0.063590	0.602962
O66	O	0.627605	0.396923	0.936295
N67	N	-0.038259	-0.216520	0.216554
N68	N	0.295075	0.116814	0.549888
N69	N	0.628408	0.450147	0.883221
C70	C	-0.014803	-0.187744	0.187877
C71	C	0.318531	0.145589	0.521210
C72	C	0.651864	0.478922	0.854543
O73	O	-0.039067	-0.163273	0.163492
O74	O	0.294266	0.170061	0.496826
O75	O	0.627599	0.503394	0.830159
C76	C	0.172870	-0.187730	0.187859
C77	C	0.506203	0.145603	0.521193
C78	C	0.839536	0.478937	0.854526
C79	C	0.196332	-0.216503	0.216531
C80	C	0.529665	0.116830	0.549864
C81	C	0.862999	0.450164	0.883197
C82	C	0.196342	-0.274046	0.273877
C83	C	0.529675	0.059288	0.607210
C84	C	0.863009	0.392621	0.940543
C85	C	0.243257	-0.274044	0.273870
C86	C	0.576591	0.059290	0.607203
C87	C	0.909924	0.392623	0.940536
C88	C	0.266710	-0.245272	0.245193
C89	C	0.600044	0.088062	0.578527
C90	C	0.933377	0.421395	0.911860
C91	C	0.243248	-0.216501	0.216524
C92	C	0.576581	0.116832	0.549857
C93	C	0.909914	0.450165	0.883190
C94	C	0.196325	-0.158953	0.159184
C95	C	0.529658	0.174381	0.492518
C96	C	0.862991	0.507714	0.825851
C97	C	0.243246	-0.158951	0.159183
C98	C	0.576579	0.174383	0.492517
C99	C	0.909912	0.507716	0.825850
C100	C	0.266708	-0.187724	0.187855
C101	C	0.600042	0.145609	0.521188
C102	C	0.933375	0.478943	0.854521
C103	C	0.313616	-0.187727	0.187840
C104	C	0.646949	0.145606	0.521174
C105	C	0.980283	0.478939	0.854507
N106	N	0.337081	-0.216495	0.216513
N107	N	0.670414	0.116838	0.549846
N108	N	1.003748	0.450171	0.883180
C109	C	0.313628	-0.245268	0.245189
C110	C	0.646961	0.088066	0.578523
C111	C	0.980295	0.421399	0.911856
C112	C	-0.113333	-0.187755	0.187887
C113	C	0.220000	0.145579	0.521221
C114	C	0.553333	0.478912	0.854554
C115	C	-0.160251	-0.187759	0.187891
C116	C	0.173082	0.145574	0.521224
C117	C	0.506416	0.478908	0.854558
C118	C	-0.160239	-0.245302	0.245242
C119	C	0.173094	0.088032	0.578575
C120	C	0.506428	0.421365	0.911909
C121	C	-0.113320	-0.245300	0.245236
C122	C	0.220013	0.088034	0.578569
C123	C	0.553346	0.421367	0.911902
C124	C	-0.089868	-0.216523	0.216560
C125	C	0.243465	0.116811	0.549893
C126	C	0.576798	0.450144	0.883227
C127	C	0.412154	-0.245262	0.245172
C128	C	0.745487	0.088071	0.578506
C129	C	1.078821	0.421405	0.911839
C130	C	0.459074	-0.245259	0.245161
C131	C	0.792407	0.088074	0.578495
C132	C	1.125740	0.421408	0.911828
C133	C	0.459057	-0.187715	0.187812
C134	C	0.792391	0.145619	0.521145
C135	C	1.125724	0.478952	0.854479
C136	C	0.412142	-0.187719	0.187821
C137	C	0.745475	0.145614	0.521154
C138	C	1.078808	0.478948	0.854488
C139	C	0.388691	-0.216494	0.216505
C140	C	0.722025	0.116839	0.549838
C141	C	1.055358	0.450172	0.883172
O142	O	0.337913	-0.163281	0.163455
O143	O	0.671246	0.170052	0.496788
O144	O	1.004579	0.503386	0.830122
O145	O	0.337901	-0.269729	0.269577
O146	O	0.671234	0.063605	0.602910
O147	O	1.004568	0.396938	0.936244
C148	C	0.125964	-0.245277	0.245214
C149	C	0.459297	0.088056	0.578548
C150	C	0.792631	0.421390	0.911881
C151	C	0.102501	-0.216506	0.216545
C152	C	0.435835	0.116827	0.549878
C153	C	0.769168	0.450160	0.883211
C154	C	0.125954	-0.187734	0.187868
C155	C	0.459287	0.145599	0.521202
C156	C	0.792621	0.478932	0.854535
C157	C	0.055583	-0.216511	0.216548
C158	C	0.388917	0.116823	0.549882
C159	C	0.722250	0.450156	0.883215
C160	C	0.032131	-0.245283	0.245225
C161	C	0.365464	0.088051	0.578558
C162	C	0.698797	0.421384	0.911892
C163	C	0.055596	-0.274051	0.273898
C164	C	0.388929	0.059283	0.607231
C165	C	0.722262	0.392616	0.940564
C166	C	0.102511	-0.274049	0.273891
C167	C	0.435844	0.059284	0.607224
C168	C	0.769178	0.392618	0.940557
C169	C	0.102489	-0.158966	0.159196
C170	C	0.435822	0.174367	0.492529
C171	C	0.769156	0.507700	0.825862
C172	C	0.055573	-0.158971	0.159205
C173	C	0.388907	0.174363	0.492538
C174	C	0.722240	0.507696	0.825871
C175	C	0.032121	-0.187743	0.187881
C176	C	0.365454	0.145590	0.521214
C177	C	0.698787	0.478924	0.854548
C178	C	0.649115	-0.333226	0.216483
C179	C	0.982448	0.000107	0.549816
C180	C	1.315781	0.333441	0.883149
C181	C	0.649127	-0.383160	0.216482
C182	C	0.982460	-0.049827	0.549815
C183	C	1.315793	0.283506	0.883148
C184	C	0.677917	-0.692769	0.245303
C185	C	1.011251	-0.359436	0.578636
C186	C	1.344584	-0.026103	0.911970
C187	C	0.677966	-0.880442	0.245330
C188	C	1.011300	-0.547109	0.578663
C189	C	1.344633	-0.213776	0.911997
O190	O	0.702378	-0.904678	0.269807
O191	O	1.035711	-0.571345	0.603141
O192	O	1.369045	-0.238011	0.936474
N193	N	0.649260	-0.903945	0.216570
N194	N	0.982593	-0.570612	0.549904
N195	N	1.315926	-0.237279	0.883237
C196	C	0.620537	-0.880527	0.187804
C197	C	0.953870	-0.547194	0.521137
C198	C	1.287203	-0.213861	0.854471
O199	O	0.596118	-0.904824	0.163346
O200	O	0.929451	-0.571491	0.496679
O201	O	1.262785	-0.238157	0.830013
C202	C	0.620486	-0.692855	0.187780
C203	C	0.953819	-0.359522	0.521113
C204	C	1.287153	-0.026188	0.854446
C205	C	0.649198	-0.669354	0.216538
C206	C	0.982531	-0.336021	0.549871
C207	C	1.315864	-0.002688	0.883205
C208	C	0.706626	-0.669269	0.274060
C209	C	1.039960	-0.335935	0.607393
C210	C	1.373293	-0.002602	0.940726
C211	C	0.706616	-0.622353	0.274051
C212	C	1.039949	-0.289020	0.607384
C213	C	1.373282	0.044313	0.940717
C214	C	0.677896	-0.598938	0.245286
C215	C	1.011229	-0.265605	0.578619
C216	C	1.344563	0.067728	0.911952
C217	C	0.649187	-0.622439	0.216529
C218	C	0.982520	-0.289106	0.549863
C219	C	1.315854	0.044228	0.883196
C220	C	0.591761	-0.669438	0.159016
C221	C	0.925095	-0.336104	0.492349
C222	C	1.258428	-0.002771	0.825682
C223	C	0.591750	-0.622517	0.159013
C224	C	0.925084	-0.289183	0.492346
C225	C	1.258417	0.044150	0.825680
C226	C	0.620462	-0.599016	0.187771
C227	C	0.953795	-0.265683	0.521105
C228	C	1.287129	0.067651	0.854438
C229	C	0.620456	-0.552109	0.187755
C230	C	0.953790	-0.218775	0.521089
C231	C	1.287123	0.114558	0.854422
N232	N	0.649163	-0.528606	0.216515
N233	N	0.982496	-0.195272	0.549848
N234	N	1.315830	0.138061	0.883182
C235	C	0.677883	-0.552021	0.245280
C236	C	1.011216	-0.218687	0.578613
C237	C	1.344549	0.114646	0.911947
C238	C	0.620566	-0.979058	0.187818
C239	C	0.953899	-0.645724	0.521152
C240	C	1.287233	-0.312391	0.854485
C241	C	0.620579	-1.025976	0.187824
C242	C	0.953912	-0.692642	0.521157
C243	C	1.287246	-0.359309	0.854490
C244	C	0.678008	-1.025888	0.245351
C245	C	1.011341	-0.692554	0.578684
C246	C	1.344675	-0.359221	0.912017
C247	C	0.677997	-0.978969	0.245342
C248	C	1.011330	-0.645636	0.578676
C249	C	1.344664	-0.312302	0.912009
C250	C	0.649273	-0.955555	0.216578
C251	C	0.982606	-0.622221	0.549911
C252	C	1.315939	-0.288888	0.883245
C253	C	0.677858	-0.453495	0.245259
C254	C	1.011192	-0.120161	0.578593
C255	C	1.344525	0.213172	0.911926
C256	C	0.677846	-0.406575	0.245247
C257	C	1.011180	-0.073242	0.578580
C258	C	1.344513	0.260091	0.911913
C259	C	0.620416	-0.406667	0.187722
C260	C	0.953749	-0.073334	0.521055
C261	C	1.287083	0.259999	0.854388
C262	C	0.620429	-0.453583	0.187732
C263	C	0.953763	-0.120249	0.521066
C264	C	1.287096	0.213084	0.854399
C265	C	0.649152	-0.476995	0.216505
C266	C	0.982485	-0.143662	0.549838
C267	C	1.315819	0.189671	0.883172
O268	O	0.596054	-0.527844	0.163295
O269	O	0.929387	-0.194511	0.496628
O270	O	1.262720	0.138823	0.829961
O271	O	0.702291	-0.527716	0.269742
O272	O	1.035624	-0.194382	0.603075
O273	O	1.368958	0.138951	0.936408
C274	C	0.677928	-0.739685	0.245312
C275	C	1.011262	-0.406351	0.578645
C276	C	1.344595	-0.073018	0.911979
C277	C	0.649219	-0.763185	0.216556
C278	C	0.982553	-0.429852	0.549889
C279	C	1.315886	-0.096519	0.883222
C280	C	0.620499	-0.739770	0.187790
C281	C	0.953833	-0.406437	0.521124
C282	C	1.287166	-0.073104	0.854457
C283	C	0.649232	-0.810103	0.216561
C284	C	0.982566	-0.476770	0.549894
C285	C	1.315899	-0.143437	0.883228
C286	C	0.677952	-0.833518	0.245326
C287	C	1.011285	-0.500185	0.578659
C288	C	1.344619	-0.166851	0.911993
C289	C	0.706659	-0.810015	0.274086
C290	C	1.039992	-0.476682	0.607419
C291	C	1.373325	-0.143348	0.940752
C292	C	0.706648	-0.763100	0.274077
C293	C	1.039981	-0.429766	0.607410
C294	C	1.373315	-0.096433	0.940744
C295	C	0.591793	-0.763273	0.159031
C296	C	0.925126	-0.429940	0.492364
C297	C	1.258460	-0.096607	0.825697
C298	C	0.591806	-0.810189	0.159041
C299	C	0.925140	-0.476856	0.492375
C300	C	1.258473	-0.143522	0.825708
C301	C	0.620526	-0.833604	0.187807
C302	C	0.953859	-0.500270	0.521140
C303	C	1.287193	-0.166937	0.854473
C304	C	0.766362	-0.216523	0.216553
C305	C	1.099695	0.116811	0.549887
C306	C	1.433028	0.450144	0.883220
C307	C	0.816296	-0.216531	0.216567
C308	C	1.149629	0.116802	0.549901
C309	C	1.482963	0.450136	0.883234
C310	C	0.649211	-0.216486	0.333699
C311	C	0.982544	0.116847	0.667032
C312	C	1.315878	0.450181	1.000366
C313	C	0.649223	-0.216479	0.383633
C314	C	0.982556	0.116855	0.716967
C315	C	1.315890	0.450188	1.050300
C316	C	0.649264	-0.099325	0.216568
C317	C	0.982598	0.234008	0.549902
C318	C	1.315931	0.567342	0.883235
C319	C	0.649299	-0.049390	0.216589
C320	C	0.982632	0.283943	0.549922
C321	C	1.315966	0.617276	0.883256
C322	C	0.649181	-0.216488	0.099798
C323	C	0.982515	0.116845	0.433131
C324	C	1.315848	0.450179	0.766465
C325	C	0.649257	-0.216369	0.049864
C326	C	0.982590	0.116965	0.383197
C327	C	1.315923	0.450298	0.716531
C328	C	0.620518	-0.187695	0.693284
C329	C	0.953852	0.145638	1.026617
C330	C	1.287185	0.478971	1.359950
C331	C	0.620531	-0.187664	0.880957
C332	C	0.953864	0.145669	1.214290
C333	C	1.287198	0.479002	1.547623
O334	O	0.596103	-0.163236	0.905227
O335	O	0.929436	0.170097	1.238560
O336	O	1.262769	0.503430	1.571894
N337	N	0.649244	-0.216394	0.904419
N338	N	0.982578	0.116939	1.237752
N339	N	1.315911	0.450272	1.571085
C340	C	0.677954	-0.245137	0.880960
C341	C	1.011288	0.088197	1.214293
C342	C	1.344621	0.421530	1.547626
O343	O	0.702374	-0.269576	0.905222
O344	O	1.035707	0.063757	1.238555
O345	O	1.369040	0.397091	1.571889
C346	C	0.677939	-0.245170	0.693287
C347	C	1.011272	0.088164	1.026621
C348	C	1.344606	0.421497	1.359954
C349	C	0.649227	-0.216434	0.669828
C350	C	0.982560	0.116899	1.003161
C351	C	1.315894	0.450232	1.336494
C352	C	0.591808	-0.158963	0.669824
C353	C	0.925142	0.174370	1.003157
C354	C	1.258475	0.507704	1.336490
C355	C	0.591807	-0.158969	0.622908
C356	C	0.925140	0.174364	0.956242
C357	C	1.258474	0.507697	1.289575
C358	C	0.620516	-0.187708	0.599453
C359	C	0.953849	0.145625	0.932786
C360	C	1.287183	0.478958	1.266119
C361	C	0.649226	-0.216441	0.622912
C362	C	0.982559	0.116893	0.956246
C363	C	1.315893	0.450226	1.289579
C364	C	0.706647	-0.273914	0.669829
C365	C	1.039980	0.059420	1.003162
C366	C	1.373313	0.392753	1.336496
C367	C	0.706639	-0.273920	0.622908
C368	C	1.039973	0.059413	0.956241
C369	C	1.373306	0.392746	1.289575
C370	C	0.677927	-0.245185	0.599448
C371	C	1.011261	0.088148	0.932782
C372	C	1.344594	0.421482	1.266115
C373	C	0.677934	-0.245186	0.552541
C374	C	1.011267	0.088147	0.885874
C375	C	1.344600	0.421481	1.219208
N376	N	0.649220	-0.216456	0.529079
N377	N	0.982554	0.116877	0.862412
N378	N	1.315887	0.450211	1.195746
C379	C	0.620511	-0.187717	0.552535
C380	C	0.953845	0.145616	0.885868
C381	C	1.287178	0.478950	1.219201
C382	C	0.677961	-0.245117	0.979490
C383	C	1.011294	0.088217	1.312824
C384	C	1.344628	0.421550	1.646157
C385	C	0.677965	-0.245108	1.026408
C386	C	1.011299	0.088226	1.359741
C387	C	1.344632	0.421559	1.693075
C388	C	0.620541	-0.187636	1.026402
C389	C	0.953875	0.145697	1.359735
C390	C	1.287208	0.479031	1.693069
C391	C	0.620540	-0.187643	0.979483
C392	C	0.953873	0.145691	1.312817
C393	C	1.287206	0.479024	1.646150
C394	C	0.649248	-0.216386	0.956028
C395	C	0.982581	0.116947	1.289362
C396	C	1.315914	0.450280	1.622695
C397	C	0.620511	-0.187732	0.454009
C398	C	0.953845	0.145601	0.787342
C399	C	1.287178	0.478934	1.120675
C400	C	0.620514	-0.187740	0.407089
C401	C	0.953848	0.145594	0.740423
C402	C	1.287181	0.478927	1.073756
C403	C	0.677936	-0.245213	0.407100
C404	C	1.011270	0.088120	0.740433
C405	C	1.344603	0.421454	1.073766
C406	C	0.677936	-0.245204	0.454015
C407	C	1.011269	0.088129	0.787348
C408	C	1.344602	0.421463	1.120682
C409	C	0.649219	-0.216462	0.477469
C410	C	0.982553	0.116871	0.810802
C411	C	1.315886	0.450205	1.144135
O412	O	0.702345	-0.269605	0.528242
O413	O	1.035679	0.063729	0.861575
O414	O	1.369012	0.397062	1.194908
O415	O	0.596089	-0.163288	0.528264
O416	O	0.929422	0.170045	0.861598
O417	O	1.262755	0.503378	1.194931
C418	C	0.620519	-0.187689	0.740199
C419	C	0.953853	0.145644	1.073532
C420	C	1.287186	0.478978	1.406866
C421	C	0.649229	-0.216422	0.763659
C422	C	0.982563	0.116912	1.096992
C423	C	1.315896	0.450245	1.430325
C424	C	0.677938	-0.245161	0.740203
C425	C	1.011272	0.088173	1.073536
C426	C	1.344605	0.421506	1.406870
C427	C	0.649234	-0.216413	0.810577
C428	C	0.982567	0.116920	1.143910
C429	C	1.315901	0.450254	1.477243
C430	C	0.620525	-0.187674	0.834032
C431	C	0.953858	0.145659	1.167366
C432	C	1.287192	0.478993	1.500699
C433	C	0.591812	-0.158944	0.810570
C434	C	0.925145	0.174390	1.143904
C435	C	1.258478	0.507723	1.477237
C436	C	0.591811	-0.158950	0.763655
C437	C	0.925144	0.174383	1.096988
C438	C	1.258477	0.507716	1.430321
C439	C	0.706652	-0.273891	0.763665
C440	C	1.039985	0.059443	1.096998
C441	C	1.373318	0.392776	1.430332
C442	C	0.706651	-0.273882	0.810580
C443	C	1.039984	0.059452	1.143914
C444	C	1.373317	0.392785	1.477247
C445	C	0.677942	-0.245143	0.834036
C446	C	1.011275	0.088191	1.167370
C447	C	1.344609	0.421524	1.500703
H448	H	0.262338	-0.135514	0.135834
H449	H	0.595671	0.197819	0.469167
H450	H	0.929005	0.531153	0.802501
H451	H	-0.179342	-0.268729	0.268592
H452	H	0.153991	0.064604	0.601925
H453	H	0.487325	0.397937	0.935258
H454	H	0.568381	-0.688564	0.135597
H455	H	0.901714	-0.355230	0.468931
H456	H	1.235048	-0.021897	0.802264
C457	C	-0.087516	-0.276949	0.276779
C458	C	0.245818	0.056384	0.610112
C459	C	0.579151	0.389717	0.943446
N460	N	-0.068082	-0.300788	0.300540
N461	N	0.265251	0.032545	0.633873
N462	N	0.598585	0.365878	0.967206
C463	C	0.029789	-0.305699	0.305443
C464	C	0.363122	0.027634	0.638776
C465	C	0.696455	0.360967	0.972109
N466	N	0.010348	-0.329534	0.329203
N467	N	0.343682	0.003800	0.662536
N468	N	0.677015	0.337133	0.995870
H469	H	0.121579	-0.135536	0.135843
H470	H	0.454913	0.197797	0.469177
H471	H	0.788246	0.531131	0.802510
H472	H	0.729994	-0.603222	0.297470
H473	H	1.063327	-0.269889	0.630803
H474	H	1.396660	0.063445	0.964136
H475	H	0.568358	-0.603455	0.135590
H476	H	0.901691	-0.270122	0.468923
H477	H	1.235025	0.063211	0.802257
C478	C	0.738238	-0.305495	0.836381
C479	C	1.071572	0.027838	1.169714
C480	C	1.404905	0.361171	1.503047
N481	N	0.762026	-0.329309	0.855812
N482	N	1.095359	0.004024	1.189145
N483	N	1.428693	0.337357	1.522479
H484	H	0.121610	-0.297479	0.297238
H485	H	0.454944	0.035854	0.630571
H486	H	0.788277	0.369188	0.963905
C487	C	0.738234	-0.737255	0.305713
C488	C	1.071567	-0.403922	0.639047
C489	C	1.404900	-0.070589	0.972380
N490	N	0.762026	-0.717792	0.329544
N491	N	1.095359	-0.384459	0.662877
N492	N	1.428693	-0.051125	0.996210
C493	C	0.709560	-0.276723	0.953696
C494	C	1.042893	0.056610	1.287029
C495	C	1.376227	0.389943	1.620362
N496	N	0.733367	-0.300523	0.934269
N497	N	1.066701	0.032810	1.267603
N498	N	1.400034	0.366143	1.600936
H499	H	0.597204	-1.045106	0.164401
H500	H	0.930537	-0.711772	0.497734
H501	H	1.263871	-0.378439	0.831068
C502	C	0.588952	-0.156035	0.953682
C503	C	0.922285	0.177298	1.287015
C504	C	1.255618	0.510632	1.620349
N505	N	0.565157	-0.132228	0.934251
N506	N	0.898490	0.201105	1.267584
N507	N	1.231823	0.534439	1.600917
C508	C	0.709523	-0.276811	0.479821
C509	C	1.042856	0.056522	0.813155
C510	C	1.376189	0.389855	1.146488
N511	N	0.733311	-0.300622	0.499256
N512	N	1.066645	0.032711	0.832589
N513	N	1.399978	0.366045	1.165922
C514	C	0.709434	-0.380727	0.276883
C515	C	1.042767	-0.047394	0.610217
C516	C	1.376101	0.285939	0.943550
N517	N	0.733225	-0.361260	0.300711
N518	N	1.066558	-0.027927	0.634045
N519	N	1.399892	0.305406	0.967378
H520	H	0.597128	-0.164327	0.473099
H521	H	0.930462	0.169006	0.806432
H522	H	1.263795	0.502339	1.139766
C523	C	0.560231	-0.127331	0.836381
C524	C	0.893565	0.206002	1.169714
C525	C	1.226898	0.539335	1.503047
N526	N	0.536445	-0.103524	0.855823
N527	N	0.869778	0.229809	1.189157
N528	N	1.203111	0.563143	1.522490
H529	H	0.568426	-0.829319	0.135619
H530	H	0.901760	-0.495986	0.468952
H531	H	1.235093	-0.162652	0.802285
C532	C	-0.186055	-0.156109	0.156347
C533	C	0.147279	0.177224	0.489681
C534	C	0.480612	0.510558	0.823014
N535	N	-0.205488	-0.132267	0.132590
N536	N	0.127845	0.201067	0.465923
N537	N	0.461178	0.534400	0.799257
H538	H	0.568430	-0.135551	0.744558
H539	H	0.901764	0.197782	1.077891
H540	H	1.235097	0.531116	1.411225
H541	H	0.568425	-0.135572	0.603812
H542	H	0.901758	0.197762	0.937145
H543	H	1.235092	0.531095	1.270478
C544	C	0.386365	-0.276919	0.276723
C545	C	0.719699	0.056414	0.610056
C546	C	1.053032	0.389747	0.943389
N547	N	0.366941	-0.300767	0.300484
N548	N	0.700275	0.032567	0.633817
N549	N	1.033608	0.365900	0.967150
C550	C	0.560227	-0.127342	0.695618
C551	C	0.893560	0.205992	1.028951
C552	C	1.226893	0.539325	1.362284
N553	N	0.536441	-0.103519	0.715043
N554	N	0.869774	0.229814	1.048376
N555	N	1.203107	0.563147	1.381709
H556	H	0.568405	-0.744213	0.135607
H557	H	0.901739	-0.410879	0.468940
H558	H	1.235072	-0.077546	0.802274
H559	H	0.701351	-0.268502	1.045505
H560	H	1.034684	0.064831	1.378838
H561	H	1.368017	0.398165	1.712172
C562	C	0.588926	-0.156129	0.381286
C563	C	0.922260	0.177205	0.714620
C564	C	1.255593	0.510538	1.047953
N565	N	0.565134	-0.132321	0.361853
N566	N	0.898467	0.201012	0.695187
N567	N	1.231800	0.534346	1.028520
H568	H	0.701244	-0.472552	0.268692
H569	H	1.034577	-0.139218	0.602025
H570	H	1.367911	0.194115	0.935358
C571	C	-0.087542	-0.156099	0.156337
C572	C	0.245791	0.177235	0.489670
C573	C	0.579125	0.510568	0.823003
N574	N	-0.068118	-0.132257	0.132570
N575	N	0.265215	0.201076	0.465904
N576	N	0.598549	0.534410	0.799237
C577	C	0.029770	-0.127315	0.127663
C578	C	0.363103	0.206019	0.460996
C579	C	0.696437	0.539352	0.794329
N580	N	0.010336	-0.103468	0.103909
N581	N	0.343670	0.229865	0.437243
N582	N	0.677003	0.563198	0.770576
C583	C	0.588959	-0.156025	1.052212
C584	C	0.922292	0.177308	1.385545
C585	C	1.255626	0.510641	1.718879
N586	N	0.565170	-0.132220	1.071654
N587	N	0.898503	0.201113	1.404988
N588	N	1.231836	0.534446	1.738321
H589	H	0.478175	-0.268691	0.268510
H590	H	0.811508	0.064642	0.601843
H591	H	1.144841	0.397975	0.935176
H592	H	0.730027	-0.297314	0.688922
H593	H	1.063360	0.036020	1.022255
H594	H	1.396693	0.369353	1.355589
C595	C	0.588960	-0.953308	0.156177
C596	C	0.922294	-0.619975	0.489511
C597	C	1.255627	-0.286642	0.822844
N598	N	0.565154	-0.933916	0.132346
N599	N	0.898487	-0.600582	0.465679
N600	N	1.231820	-0.267249	0.799013
H601	H	0.262357	-0.297473	0.297218
H602	H	0.595690	0.035860	0.630551
H603	H	0.929023	0.369194	0.963884
H604	H	0.701312	-0.268610	0.387993
H605	H	1.034645	0.064723	0.721327
H606	H	1.367978	0.398056	1.054660
C607	C	0.170526	-0.127294	0.127648
C608	C	0.503860	0.206039	0.460981
C609	C	0.837193	0.539372	0.794314
N610	N	0.151096	-0.103445	0.103895
N611	N	0.484429	0.229888	0.437228
N612	N	0.817762	0.563221	0.770561
C613	C	0.386332	-0.156071	0.156278
C614	C	0.719665	0.177262	0.489611
C615	C	1.052999	0.510596	0.822945
N616	N	0.366895	-0.132230	0.132522
N617	N	0.700229	0.201103	0.465855
N618	N	1.033562	0.534437	0.799188
C619	C	0.709580	-0.953123	0.276980
C620	C	1.042913	-0.619789	0.610314
C621	C	1.376247	-0.286456	0.943647
N622	N	0.733369	-0.933658	0.300812
N623	N	1.066702	-0.600324	0.634146
N624	N	1.400035	-0.266991	0.967479
C625	C	0.709598	-1.051653	0.276995
C626	C	1.042931	-0.718319	0.610328
C627	C	1.376264	-0.384986	0.943662
N628	N	0.733387	-1.071061	0.300831
N629	N	1.066720	-0.737728	0.634164
N630	N	1.400053	-0.404394	0.967498
C631	C	0.738224	-0.305539	0.597111
C632	C	1.071558	0.027795	0.930444
C633	C	1.404891	0.361128	1.263777
N634	N	0.762016	-0.329352	0.577681
N635	N	1.095349	0.003982	0.911014
N636	N	1.428682	0.337315	1.244347
C637	C	0.484864	-0.156062	0.156275
C638	C	0.818198	0.177272	0.489608
C639	C	1.151531	0.510605	0.822941
N640	N	0.504304	-0.132216	0.132525
N641	N	0.837637	0.201117	0.465858
N642	N	1.170970	0.534450	0.799191
C643	C	0.588848	-0.479434	0.156095
C644	C	0.922181	-0.146101	0.489428
C645	C	1.255514	0.187233	0.822761
N646	N	0.565057	-0.498902	0.132267
N647	N	0.898390	-0.165569	0.465601
N648	N	1.231723	0.167764	0.798934
H649	H	0.730013	-0.688328	0.297486
H650	H	1.063347	-0.354995	0.630820
H651	H	1.396680	-0.021661	0.964153
C652	C	0.588824	-0.380902	0.156083
C653	C	0.922157	-0.047569	0.489417
C654	C	1.255490	0.285765	0.822750
N655	N	0.565026	-0.361494	0.132256
N656	N	0.898359	-0.028161	0.465589
N657	N	1.231692	0.305173	0.798923
H658	H	0.730045	-0.829088	0.297506
H659	H	1.063378	-0.495754	0.630839
H660	H	1.396712	-0.162421	0.964173
H661	H	0.730029	-0.297296	0.744572
H662	H	1.063362	0.036038	1.077905
H663	H	1.396695	0.369371	1.411239
C664	C	0.170551	-0.305705	0.305421
C665	C	0.503885	0.027628	0.638754
C666	C	0.837218	0.360962	0.972088
N667	N	0.151129	-0.329557	0.329178
N668	N	0.484462	0.003776	0.662512
N669	N	0.817796	0.337110	0.995845
