data_functionalizedCrystal
_audit_creation_method	'MofGen! by Chris Wilmer'
_symmetry_space_group_name_H-M	'P1'
_symmetry_Int_Tables_number	1
_symmetry_cell_setting	triclinic
loop_
_symmetry_equiv_pos_as_xyz
  x,y,z
_cell_length_a	13.262390
_cell_length_b	27.732046
_cell_length_c	11.804365
_cell_angle_alpha	78.275496
_cell_angle_beta	62.657606
_cell_angle_gamma	96.429440
loop_
_atom_site_label
_atom_site_type_symbol
_atom_site_fract_x
_atom_site_fract_y
_atom_site_fract_z
O1	O	1.519151	-0.007110	-0.591058
O2	O	1.190484	-0.024633	-0.484614
O3	O	1.365020	0.054795	-0.541113
O4	O	1.344615	-0.086538	-0.534559
O5	O	1.319072	0.033904	-0.328184
O6	O	1.144535	-0.045524	-0.271685
O7	O	1.473203	-0.028001	-0.378128
Cu8	Cu	1.304674	-0.038670	-0.305464
Cu9	Cu	1.359013	-0.013964	-0.557278
O10	O	1.298667	-0.107429	-0.321629
C11	C	1.125474	-0.036017	-0.364535
C12	C	1.000222	-0.038810	-0.323970
C13	C	0.747357	-0.001122	-0.673914
C14	C	0.865038	0.001504	-0.712030
C15	C	0.898840	-0.008574	-0.615018
C16	C	0.814949	-0.021279	-0.479884
C17	C	0.697257	-0.023901	-0.441765
C18	C	0.848740	-0.031354	-0.382869
C19	C	0.764849	-0.044058	-0.247735
C20	C	0.647169	-0.046680	-0.209623
C21	C	0.613367	-0.036602	-0.306634
C22	C	0.966432	-0.028731	-0.420988
C23	C	0.916332	-0.051510	-0.188839
C24	C	0.798651	-0.054136	-0.150723
C25	C	1.341617	0.062345	-0.434505
C26	C	1.340324	0.115964	-0.434074
C27	C	1.435357	0.457321	-0.464893
C28	C	1.430573	0.658854	-0.463348
O29	O	1.517473	0.692435	-0.491542
N30	N	1.327077	0.675213	-0.429827
C31	C	1.224771	0.641187	-0.396699
O32	O	1.136634	0.659727	-0.368165
C33	C	1.229558	0.439656	-0.398253
C34	C	1.333058	0.423299	-0.431763
C35	C	1.538849	0.440963	-0.498402
C36	C	1.540042	0.390582	-0.498780
C37	C	1.437744	0.356560	-0.465650
C38	C	1.334252	0.372918	-0.432142
C39	C	1.127256	0.405632	-0.365133
C40	C	1.128462	0.355247	-0.365528
C41	C	1.231962	0.338890	-0.399038
C42	C	1.233146	0.288514	-0.399390
N43	N	1.336643	0.272155	-0.432911
C44	C	1.438941	0.306177	-0.466041
C45	C	1.222265	0.746994	-0.395883
C46	C	1.221067	0.797376	-0.395492
C47	C	1.426870	0.815040	-0.462144
C48	C	1.428064	0.764656	-0.462525
C49	C	1.325761	0.730634	-0.429403
C50	C	1.441439	0.200373	-0.466833
C51	C	1.442622	0.149987	-0.467204
C52	C	1.236822	0.132328	-0.400558
C53	C	1.235636	0.182710	-0.400181
C54	C	1.337955	0.216732	-0.433326
O55	O	1.146296	0.254907	-0.371226
O56	O	1.527071	0.287630	-0.494599
C57	C	1.434163	0.507702	-0.464514
C58	C	1.330672	0.524061	-0.431005
C59	C	1.228373	0.490038	-0.397875
C60	C	1.329474	0.574443	-0.430614
C61	C	1.431773	0.608465	-0.463744
C62	C	1.535269	0.592106	-0.497265
C63	C	1.536462	0.541725	-0.497644
C64	C	1.124877	0.506397	-0.364354
C65	C	1.123692	0.556779	-0.363977
C66	C	1.225990	0.590802	-0.397107
C67	C	1.538213	-0.016616	-0.498210
C68	C	1.663467	-0.013823	-0.538784
C69	C	1.322071	0.885021	-0.428225
C70	C	1.323366	0.831399	-0.428622
N71	N	1.266463	-0.056046	-0.128354
N72	N	1.397233	0.003416	-0.734391
C73	C	1.488992	0.045152	0.173560
C74	C	1.517897	0.058299	0.039541
C75	C	1.455041	0.029714	-0.002439
C76	C	1.363275	-0.012020	0.089612
C77	C	1.334372	-0.025171	0.223642
C78	C	1.300421	-0.040609	0.047643
C79	C	1.208655	-0.082343	0.139694
C80	C	1.179757	-0.095492	0.273711
C81	C	1.242613	-0.066907	0.315691
C82	C	1.329323	-0.027458	-0.086387
C83	C	1.174704	-0.097781	-0.036305
C84	C	1.145798	-0.110928	0.097714
H85	H	0.933336	0.011851	-0.822056
H86	H	1.592613	0.092278	-0.035403
H87	H	0.994663	-0.006436	-0.646060
H88	H	1.219076	-0.077610	0.424820
H89	H	0.578868	-0.057016	-0.099589
H90	H	1.620742	0.528412	-0.524932
H91	H	1.153532	0.104617	-0.373580
H92	H	0.730330	-0.064480	-0.040695
H93	H	0.719823	0.007087	-0.752887
H94	H	1.138952	0.719297	-0.368909
H95	H	1.540167	0.068420	0.207749
H96	H	1.105044	-0.129477	0.348658
H97	H	1.624324	0.377270	-0.526073
H98	H	0.943852	-0.059716	-0.109844
H99	H	1.618563	0.619816	-0.524235
H100	H	1.042977	0.418941	-0.337854
H101	H	1.622158	0.468661	-0.525386
H102	H	1.045153	0.327549	-0.338558
H103	H	1.512343	0.751341	-0.489813
H104	H	1.071080	-0.144910	0.172678
H105	H	1.524758	0.228070	-0.493828
H106	H	0.517542	-0.038741	-0.275607
H107	H	1.526907	0.136671	-0.494489
H108	H	1.510165	0.842750	-0.489119
H109	H	1.136782	0.810687	-0.368182
H110	H	1.151351	0.196025	-0.372859
H111	H	1.039401	0.570090	-0.336676
H112	H	1.123522	-0.121059	-0.070483
H113	H	1.041572	0.478700	-0.337378
H114	H	1.404040	0.006522	-0.161325
H115	H	1.478580	0.040420	-0.111564
H116	H	1.034726	-0.018388	-0.531015
