data_functionalizedCrystal
_audit_creation_method	'MofGen! by Chris Wilmer'
_symmetry_space_group_name_H-M	'P1'
_symmetry_Int_Tables_number	1
_symmetry_cell_setting	triclinic
loop_
_symmetry_equiv_pos_as_xyz
  x,y,z
_cell_length_a	10.654545
_cell_length_b	17.038272
_cell_length_c	16.098662
_cell_angle_alpha	92.863855
_cell_angle_beta	93.039454
_cell_angle_gamma	87.797317
loop_
_atom_site_label
_atom_site_type_symbol
_atom_site_fract_x
_atom_site_fract_y
_atom_site_fract_z
O1	O	1.683394	0.112996	0.069248
O2	O	1.318887	0.123468	0.069252
O3	O	1.498973	0.004404	0.069243
O4	O	1.503307	0.232060	0.069256
O5	O	1.488259	-0.001870	-0.069268
O6	O	1.308173	0.117194	-0.069259
O7	O	1.672680	0.106722	-0.069263
Zn8	Zn	1.488725	0.110962	-0.091253
Zn9	Zn	1.502841	0.119228	0.091241
O10	O	1.492593	0.225786	-0.069254
C11	C	1.266661	0.119563	-0.000003
C12	C	1.127004	0.117265	-0.000002
C13	C	1.055559	0.112763	-0.075505
C14	C	0.924337	0.110591	-0.075505
C15	C	0.936018	0.117426	0.075507
C16	C	1.067238	0.119592	0.075506
C17	C	1.489676	-0.027883	-0.000012
C18	C	1.477919	-0.114741	-0.000012
C19	C	1.585863	-0.164254	-0.000014
C20	C	1.574809	-0.245866	-0.000006
C21	C	1.455809	-0.277964	-0.000002
C22	C	1.347857	-0.228445	0.000003
C23	C	1.358913	-0.146834	0.000001
C24	C	1.416752	-0.523939	0.000010
C25	C	1.405704	-0.605556	0.000010
C26	C	1.632657	-0.622971	0.000003
C27	C	1.643702	-0.541358	-0.000004
C28	C	1.535750	-0.491846	0.000005
C29	C	1.444507	-0.361384	0.000004
C30	C	1.547054	-0.408427	0.000005
C31	C	1.724906	0.110627	-0.000006
C32	C	1.864563	0.112926	-0.000002
C33	C	1.501891	0.258073	0.000003
C34	C	1.513649	0.344932	0.000008
N35	N	1.479100	0.105320	-0.215800
C36	C	1.434567	0.078965	-0.740611
C37	C	1.441295	0.082943	-0.653424
C38	C	1.525926	0.132824	-0.609837
C39	C	1.603842	0.178724	-0.653443
C40	C	1.597120	0.174742	-0.740629
C41	C	1.550295	0.147239	-0.346592
C42	C	1.557009	0.151219	-0.259400
C43	C	1.394462	0.055436	-0.259386
C44	C	1.387742	0.051461	-0.346574
C45	C	1.465663	0.097359	-0.390172
C46	C	1.532802	0.136892	-0.520718
C47	C	1.458792	0.093286	-0.479290
N48	N	1.512475	0.124864	0.215789
H49	H	1.125411	0.123256	0.136994
H50	H	1.682764	-0.138127	-0.000022
Cl51	Cl	1.695072	0.232443	-0.795441
Cl52	Cl	1.793310	-0.501012	0.000018
Cl53	Cl	1.281338	-0.011244	-0.401362
Cl54	Cl	1.343311	0.025262	-0.598616
H55	H	1.720545	-0.663292	-0.000003
Cl56	Cl	1.710517	-0.308107	-0.000010
H57	H	1.308795	-0.631687	-0.000000
Cl58	Cl	1.663443	0.213909	-0.204607
Cl59	Cl	1.130689	0.109832	-0.170430
Cl60	Cl	0.860877	0.120333	0.170427
H61	H	1.328849	-0.483635	0.000017
H62	H	1.250965	-0.254585	0.000011
Cl63	Cl	0.834525	0.104932	-0.170428
H64	H	1.271013	-0.106521	0.000003
H65	H	1.672756	0.219335	-0.617948
H66	H	1.643944	-0.382289	0.000020
Cl67	Cl	1.294912	-0.401743	0.000013
H68	H	1.365646	0.038351	-0.776093
Cl69	Cl	1.296515	-0.002264	-0.204572
H70	H	1.613743	0.184612	-0.382079
Cl71	Cl	1.352406	0.030579	-0.534086
Cl72	Cl	1.639188	0.199600	-0.465916
