data_functionalizedCrystal
_audit_creation_method	'MofGen! by Chris Wilmer'
_symmetry_space_group_name_H-M	'P1'
_symmetry_Int_Tables_number	1
_symmetry_cell_setting	triclinic
loop_
_symmetry_equiv_pos_as_xyz
  x,y,z
_cell_length_a	11.169416
_cell_length_b	11.169417
_cell_length_c	11.169409
_cell_angle_alpha	89.978317
_cell_angle_beta	90.031365
_cell_angle_gamma	89.990913
loop_
_atom_site_label
_atom_site_type_symbol
_atom_site_fract_x
_atom_site_fract_y
_atom_site_fract_z
Zn1	Zn	-0.477744	-1.834964	0.678610
Zn2	Zn	-0.678484	-1.834854	0.477931
Zn3	Zn	-0.477810	-1.634250	0.477938
Zn4	Zn	-0.678380	-1.634258	0.678569
O5	O	-0.578105	-1.734581	0.578262
O6	O	-0.504389	-2.002899	0.652004
O7	O	-0.651936	-1.808194	0.309982
O8	O	-0.309852	-1.660918	0.504578
O9	O	-0.651872	-2.002818	0.504565
O10	O	-0.309803	-1.808381	0.652011
O11	O	-0.504502	-1.660811	0.309987
O12	O	-0.504400	-1.466301	0.504538
O13	O	-0.651694	-1.660931	0.846524
O14	O	-0.651758	-1.466307	0.651941
O15	O	-0.504287	-1.808389	0.846555
O16	O	-0.846420	-1.808202	0.504525
O17	O	-0.846344	-1.660825	0.651933
C18	C	-0.578076	-1.422757	0.578237
C19	C	-0.578093	-1.289357	0.578254
C20	C	-0.889929	-1.734535	0.578250
C21	C	-1.023329	-1.734625	0.578285
C22	C	-0.265062	-1.734661	0.578300
C23	C	-0.131662	-1.734695	0.578316
C24	C	-0.577971	-1.734674	0.891305
C25	C	-0.577915	-1.734713	1.024705
C26	C	-0.578124	-1.047624	0.578279
C27	C	-0.578107	-1.181024	0.578262
C28	C	-0.578151	-1.734559	0.266437
C29	C	-0.577870	-1.734752	0.133038
