data_functionalizedCrystal
_audit_creation_method	'MofGen! by Chris Wilmer'
_symmetry_space_group_name_H-M	'P1'
_symmetry_Int_Tables_number	1
_symmetry_cell_setting	triclinic
loop_
_symmetry_equiv_pos_as_xyz
  x,y,z
_cell_length_a	17.699083
_cell_length_b	17.699104
_cell_length_c	16.176319
_cell_angle_alpha	90.001899
_cell_angle_beta	90.002310
_cell_angle_gamma	83.287267
loop_
_atom_site_label
_atom_site_type_symbol
_atom_site_fract_x
_atom_site_fract_y
_atom_site_fract_z
O1	O	-1.004084	-0.095698	0.068639
O2	O	-0.504084	0.404302	0.568639
O3	O	-0.783706	-0.108150	0.068667
O4	O	-0.283706	0.391850	0.568667
O5	O	-0.900113	0.008264	0.068637
O6	O	-0.400113	0.508264	0.568637
O7	O	-0.887677	-0.212112	0.068669
O8	O	-0.387677	0.287888	0.568669
O9	O	-0.900102	0.008243	-0.068856
O10	O	-0.400102	0.508243	0.431144
O11	O	-0.783695	-0.108171	-0.068826
O12	O	-0.283695	0.391829	0.431174
O13	O	-1.004072	-0.095719	-0.068854
O14	O	-0.504072	0.404281	0.431146
Cu15	Cu	-0.893883	-0.101947	-0.081394
Cu16	Cu	-0.393883	0.398053	0.418606
Cu17	Cu	-0.893896	-0.101922	0.081207
Cu18	Cu	-0.393896	0.398078	0.581207
O19	O	-0.887666	-0.212133	-0.068824
O20	O	-0.387666	0.287867	0.431176
C21	C	-0.755503	-0.107715	-0.000076
C22	C	-0.255503	0.392285	0.499924
C23	C	-0.671485	-0.106376	-0.000066
C24	C	-0.171485	0.393624	0.499934
C25	C	-0.899659	0.036450	-0.000111
C26	C	-0.399659	0.536450	0.499889
C27	C	-0.898314	0.120467	-0.000117
C28	C	-0.398314	0.620467	0.499883
C29	C	-0.959058	0.645338	-0.000137
C30	C	-0.459058	1.145338	0.499863
C31	C	-0.960317	0.566395	-0.000139
C32	C	-0.460317	1.066395	0.499861
C33	C	-0.891982	0.517777	-0.000129
C34	C	-0.391982	1.017777	0.499871
C35	C	-0.822383	0.548107	-0.000126
C36	C	-0.322383	1.048107	0.499874
C37	C	-0.821125	0.627049	-0.000130
C38	C	-0.321125	1.127049	0.499870
C39	C	-0.827456	0.229741	-0.000112
C40	C	-0.327456	0.729741	0.499888
C41	C	-0.828720	0.150794	-0.000105
C42	C	-0.328720	0.650794	0.499895
C43	C	-0.966648	0.169086	-0.000121
C44	C	-0.466648	0.669086	0.499879
C45	C	-0.965390	0.248029	-0.000125
C46	C	-0.465390	0.748029	0.499875
C47	C	-0.895792	0.278352	-0.000126
C48	C	-0.395792	0.778352	0.499874
C49	C	-0.894427	0.363951	-0.000125
C50	C	-0.394427	0.863951	0.499875
C51	C	-0.893345	0.432179	-0.000124
C52	C	-0.393345	0.932179	0.499876
C53	C	-1.032275	-0.096155	-0.000109
C54	C	-0.532275	0.403845	0.499891
C55	C	-1.116293	-0.097493	-0.000114
C56	C	-0.616293	0.402507	0.499886
C57	C	-0.622869	-0.174709	-0.000057
C58	C	-0.122869	0.325291	0.499943
C59	C	-0.543926	-0.173447	-0.000067
C60	C	-0.043926	0.326553	0.499933
C61	C	-0.513600	-0.103851	-0.000082
C62	C	-0.013600	0.396149	0.499918
C63	C	-0.562222	-0.035513	-0.000094
C64	C	-0.062222	0.464487	0.499906
C65	C	-0.641164	-0.036776	-0.000089
C66	C	-0.141164	0.463224	0.499911
C67	C	-0.243859	-0.030418	-0.000115
C68	C	0.256141	0.469582	0.499885
C69	C	-0.164911	-0.029160	-0.000117
C70	C	0.335089	0.470840	0.499883
C71	C	-0.146621	-0.167088	-0.000094
C72	C	0.353379	0.332912	0.499906
C73	C	-0.225563	-0.168351	-0.000089
C74	C	0.274437	0.331649	0.499911
C75	C	-0.274178	-0.100014	-0.000105
C76	C	0.225822	0.399986	0.499895
C77	C	-0.359777	-0.101383	-0.000095
C78	C	0.140223	0.398617	0.499905
C79	C	-0.428002	-0.102480	-0.000086
C80	C	0.071998	0.397520	0.499914
C81	C	-0.888120	0.759681	-0.000091
C82	C	-0.388120	1.259681	0.499909
C83	C	-0.889464	0.675663	-0.000131
C84	C	-0.389464	1.175663	0.499869
N85	N	-0.893879	-0.101964	-0.195760
N86	N	-0.393879	0.398036	0.304240
C87	C	-0.848085	-0.056059	-0.761150
C88	C	-0.348085	0.443941	-0.261150
C89	C	-0.848083	-0.056065	-0.674603
C90	C	-0.348083	0.443935	-0.174603
C91	C	-0.893899	-0.101916	-0.631335
C92	C	-0.393899	0.398084	-0.131335
C93	C	-0.939725	-0.147758	-0.674618
C94	C	-0.439725	0.352242	-0.174618
C95	C	-0.939730	-0.147747	-0.761164
C96	C	-0.439730	0.352253	-0.261164
C97	C	-0.939707	-0.147801	-0.325590
C98	C	-0.439707	0.352199	0.174410
C99	C	-0.939696	-0.147809	-0.239039
C100	C	-0.439696	0.352191	0.260961
C101	C	-0.848059	-0.056118	-0.239029
C102	C	-0.348059	0.443882	0.260971
C103	C	-0.848064	-0.056107	-0.325575
C104	C	-0.348064	0.443893	0.174425
C105	C	-0.893893	-0.101946	-0.368851
C106	C	-0.393893	0.398054	0.131149
C107	C	-0.893896	-0.101938	-0.462695
C108	C	-0.393896	0.398062	0.037305
C109	C	-0.893893	-0.101928	-0.537492
C110	C	-0.393893	0.398072	-0.037492
N111	N	-0.893906	-0.101899	0.195572
N112	N	-0.393906	0.398101	0.695572
H113	H	-1.014705	0.684918	-0.000138
H114	H	-0.514705	1.184918	0.499862
C115	C	-0.797651	-0.005688	-0.191428
C116	C	-0.297651	0.494312	0.308572
H117	H	-0.770360	0.021613	-0.229593
H118	H	-0.270360	0.521613	0.270407
H119	H	-0.828722	0.029183	-0.157660
H120	H	-0.328722	0.529183	0.342340
H121	H	-0.762760	-0.036757	-0.157673
H122	H	-0.262760	0.463243	0.342327
C123	C	-0.093142	-0.242259	-0.000087
C124	C	0.406858	0.257741	0.499913
H125	H	-0.041783	-0.231544	-0.000101
H126	H	0.458217	0.268456	0.499899
H127	H	-0.102317	-0.270795	0.047866
H128	H	0.397683	0.229205	0.547866
H129	H	-0.102328	-0.270810	-0.048034
H130	H	0.397672	0.229190	0.451966
H131	H	-1.016987	0.541708	-0.000145
H132	H	-0.516987	1.041708	0.499855
H133	H	-0.977023	-0.185126	-0.360815
H134	H	-0.477023	0.314874	0.139185
H135	H	-0.140223	0.027517	-0.000130
H136	H	0.359777	0.527517	0.499870
H137	H	-0.977043	-0.185075	-0.796399
H138	H	-0.477043	0.314925	-0.296399
H139	H	-0.283432	0.025227	-0.000129
H140	H	0.216568	0.525227	0.499871
H141	H	-0.680747	0.018868	-0.000096
H142	H	-0.180747	0.518868	0.499904
C143	C	-1.040558	0.301504	-0.000140
C144	C	-0.540558	0.801504	0.499860
H145	H	-1.082187	0.272136	-0.000152
H146	H	-0.582187	0.772136	0.499848
H147	H	-1.042941	0.332686	0.047803
H148	H	-0.542941	0.832686	0.547803
H149	H	-1.042926	0.332672	-0.048097
H150	H	-0.542926	0.832672	0.451903
H151	H	-1.023319	0.144388	-0.000110
H152	H	-0.523319	0.644388	0.499890
H153	H	-0.810772	-0.018725	-0.796373
H154	H	-0.310772	0.481275	-0.296373
H155	H	-0.977033	-0.185087	-0.639382
H156	H	-0.477033	0.314913	-0.139382
H157	H	-0.766743	0.508516	-0.000123
H158	H	-0.266743	1.008516	0.499877
C159	C	-0.528865	0.041041	-0.000108
C160	C	-0.028865	0.541041	0.499892
H161	H	-0.474887	0.032008	-0.000101
H162	H	0.025113	0.532008	0.499899
H163	H	-0.545563	0.069165	-0.048058
H164	H	-0.045563	0.569165	0.451942
H165	H	-0.545560	0.069176	0.047842
H166	H	-0.045560	0.569176	0.547842
H167	H	-0.770785	0.254420	-0.000102
H168	H	-0.270785	0.754420	0.499898
C169	C	-0.753548	0.097315	-0.000102
C170	C	-0.253548	0.597315	0.499898
H171	H	-0.711917	0.126680	-0.000112
H172	H	-0.211917	0.626680	0.499888
H173	H	-0.751172	0.066143	0.047846
H174	H	-0.251172	0.566143	0.547846
H175	H	-0.751177	0.066137	-0.048054
H176	H	-0.251177	0.566137	0.451946
C177	C	-0.797676	-0.005644	-0.627002
C178	C	-0.297676	0.494356	-0.127002
H179	H	-0.770382	0.021656	-0.665166
H180	H	-0.270382	0.521656	-0.165166
H181	H	-0.828746	0.029227	-0.593234
H182	H	-0.328746	0.529227	-0.093234
H183	H	-0.762786	-0.036715	-0.593247
H184	H	-0.262786	0.463285	-0.093247
C185	C	-0.744572	0.660407	-0.000115
C186	C	-0.244572	1.160407	0.499885
H187	H	-0.704054	0.620147	-0.000100
H188	H	-0.204054	1.120147	0.499900
H189	H	-0.741208	0.690819	-0.048062
H190	H	-0.241208	1.190819	0.451938
H191	H	-0.741221	0.690824	0.047838
H192	H	-0.241221	1.190824	0.547838
H193	H	-0.647554	-0.231382	-0.000044
H194	H	-0.147554	0.268618	0.499956
H195	H	-0.977008	-0.185149	-0.203812
H196	H	-0.477008	0.314851	0.296188
C197	C	-0.490452	-0.248613	-0.000054
C198	C	0.009548	0.251387	0.499946
H199	H	-0.519819	-0.290242	-0.000035
H200	H	-0.019819	0.209758	0.499965
H201	H	-0.459280	-0.250999	-0.048003
H202	H	0.040720	0.249001	0.451997
H203	H	-0.459273	-0.250977	0.047896
H204	H	0.040727	0.249023	0.547896
C205	C	-0.258917	-0.244906	-0.000076
C206	C	0.241083	0.255094	0.499924
H207	H	-0.218656	-0.285423	-0.000080
H208	H	0.281344	0.214577	0.499920
H209	H	-0.289331	-0.248261	0.047871
H210	H	0.210669	0.251739	0.547871
H211	H	-0.289333	-0.248269	-0.048029
H212	H	0.210667	0.251731	0.451971
C213	C	-0.797669	-0.005669	-0.373166
C214	C	-0.297669	0.494331	0.126834
H215	H	-0.770384	0.021637	-0.334995
H216	H	-0.270384	0.521637	0.165005
H217	H	-0.762784	-0.036722	-0.406935
H218	H	-0.262784	0.463278	0.093065
H219	H	-0.828756	0.029209	-0.406918
H220	H	-0.328756	0.529209	0.093082
