data_functionalizedCrystal
_audit_creation_method	'MofGen! by Chris Wilmer'
_symmetry_space_group_name_H-M	'P1'
_symmetry_Int_Tables_number	1
_symmetry_cell_setting	triclinic
loop_
_symmetry_equiv_pos_as_xyz
  x,y,z
_cell_length_a	6.817900
_cell_length_b	11.102188
_cell_length_c	19.453114
_cell_angle_alpha	94.506017
_cell_angle_beta	101.709288
_cell_angle_gamma	108.603875
loop_
_atom_site_label
_atom_site_type_symbol
_atom_site_fract_x
_atom_site_fract_y
_atom_site_fract_z
V1	V	-4.033145	-0.177162	-0.218999
O2	O	-3.993679	0.007152	-0.214830
O3	O	-4.010448	-0.349973	-0.217501
O4	O	-3.975743	-0.175034	-0.314512
O5	O	-4.028624	-0.168998	-0.117148
V6	V	-4.514608	-0.155045	-0.206817
O7	O	-4.298920	-0.225677	-0.245722
O8	O	-4.699030	-0.106531	-0.180094
O9	O	-4.314098	0.017766	-0.208315
O10	O	-4.671471	-0.339359	-0.210986
O11	O	-4.636525	-0.163210	-0.308668
O12	O	-4.348803	-0.157173	-0.111304
C13	C	-3.861993	-0.392082	-0.214047
C14	C	-3.924663	-0.533361	-0.213459
C15	C	-3.916957	-0.581196	-0.148860
C16	C	-3.975865	-0.713944	-0.148311
C17	C	-4.050175	-0.751012	-0.276963
C18	C	-3.991282	-0.618266	-0.277512
C19	C	-4.129179	-0.877264	-0.072533
C20	C	-4.121438	-0.925101	-0.007930
C21	C	-3.952039	-0.861484	0.050937
C22	C	-3.790330	-0.750029	0.045205
C23	C	-3.798057	-0.702198	-0.019398
C24	C	-3.967501	-0.765814	-0.078263
C25	C	-3.837948	-0.454942	-0.353286
C26	C	-3.845659	-0.407109	-0.417889
C27	C	-4.015049	-0.470725	-0.476762
C28	C	-4.176733	-0.582185	-0.471037
C29	C	-4.169021	-0.630019	-0.406433
C30	C	-3.999631	-0.566394	-0.347560
C31	C	-3.817722	-0.168929	-0.337792
C32	C	-3.852244	-0.168333	-0.415875
C33	C	-4.051193	-0.174432	-0.456132
C34	C	-4.083630	-0.173872	-0.529499
C35	C	-3.917119	-0.167238	-0.562608
C36	C	-3.718139	-0.161131	-0.522341
C37	C	-3.685701	-0.161678	-0.448974
N38	N	-3.867359	-0.234355	-0.681397
N39	N	-3.898187	-0.233838	-0.751092
C40	C	-4.014840	-0.165586	-0.783656
N41	N	-4.099538	-0.097887	-0.743893
N42	N	-4.068716	-0.098410	-0.674192
C43	C	-3.952272	-0.166643	-0.642161
C44	C	-4.248973	-0.171077	-0.903466
C45	C	-4.281399	-0.170508	-0.976833
C46	C	-3.915908	-0.157780	-0.969674
C47	C	-3.883481	-0.158336	-0.896308
C48	C	-4.050024	-0.164990	-0.863208
C49	C	-4.125896	0.059868	-0.211767
C50	C	-4.042464	0.201146	-0.212360
C51	C	-4.170167	-0.163283	-0.088020
C52	C	-4.114883	-0.163873	-0.009937
H53	H	-3.862714	-0.512069	-0.096703
H54	H	-4.104419	-0.820157	-0.329114
H55	H	-3.945741	-0.900443	0.103538
H56	H	-3.780325	-0.152368	-0.996630
H57	H	-3.652383	-0.698247	0.093141
H58	H	-4.245647	-0.178845	-0.562283
H59	H	-3.582564	-0.155726	-0.549302
H60	H	-4.267144	-0.929063	-0.120460
H61	H	-4.186807	-0.179845	-0.429187
C62	C	-4.346890	-0.752617	-0.400130
C63	C	-4.533233	-0.822599	-0.464885
C64	C	-4.711100	-0.945192	-0.458580
C65	C	-4.702625	-0.997804	-0.387520
C66	C	-4.516274	-0.927822	-0.322759
C67	C	-4.338407	-0.805229	-0.329064
H68	H	-4.539514	-0.783653	-0.517493
H69	H	-4.849049	-0.996997	-0.506521
H70	H	-4.834293	-1.088555	-0.382852
H71	H	-4.509994	-0.966768	-0.270151
H72	H	-4.200458	-0.753424	-0.281124
H73	H	-3.666392	-0.611457	-0.024065
C74	C	-4.363074	-0.652152	-0.535800
C75	C	-4.403655	-0.792841	-0.565740
C76	C	-4.589987	-0.862798	-0.630509
C77	C	-4.735738	-0.792066	-0.665337
C78	C	-4.695161	-0.651369	-0.635397
C79	C	-4.508828	-0.581412	-0.570628
H80	H	-4.295758	-0.845208	-0.539958
H81	H	-4.620024	-0.966951	-0.652672
H82	H	-4.873672	-0.843852	-0.713283
H83	H	-4.803058	-0.599002	-0.661179
H84	H	-4.478791	-0.477259	-0.548465
H85	H	-3.523685	-0.156702	-0.416196
H86	H	-4.253117	-1.015851	-0.003268
H87	H	-4.021301	-0.431773	-0.529367
H88	H	-3.713982	-0.316359	-0.422550
H89	H	-3.700008	-0.403132	-0.305348
H90	H	-4.384580	-0.176490	-0.876515
H91	H	-4.443406	-0.175466	-1.009609
H92	H	-3.721483	-0.153383	-0.863531
