data_functionalizedCrystal
_audit_creation_method	'MofGen! by Chris Wilmer'
_symmetry_space_group_name_H-M	'P1'
_symmetry_Int_Tables_number	1
_symmetry_cell_setting	triclinic
loop_
_symmetry_equiv_pos_as_xyz
  x,y,z
_cell_length_a	26.809956
_cell_length_b	10.654541
_cell_length_c	10.654545
_cell_angle_alpha	84.484678
_cell_angle_beta	90.006742
_cell_angle_gamma	89.992438
loop_
_atom_site_label
_atom_site_type_symbol
_atom_site_fract_x
_atom_site_fract_y
_atom_site_fract_z
O1	O	0.041461	-1.667854	-0.176367
O2	O	0.041466	-1.302375	-0.193176
O3	O	0.041463	-1.493517	-0.002032
O4	O	0.041464	-1.476713	-0.367511
O5	O	-0.041496	-1.493481	-0.002061
O6	O	-0.041494	-1.302339	-0.193205
O7	O	-0.041498	-1.667818	-0.176396
Zn8	Zn	-0.054667	-1.485073	-0.184805
Zn9	Zn	0.054635	-1.485121	-0.184767
O10	O	-0.041495	-1.476677	-0.367540
C11	C	-0.000013	-1.255559	-0.191957
C12	C	-0.000012	-1.116116	-0.188266
N13	N	-0.129263	-1.485050	-0.184831
C14	C	-0.000016	-1.492265	0.044751
C15	C	-0.000013	-1.488572	0.184195
C16	C	-0.473890	-1.569747	-0.100149
C17	C	-0.682768	-1.569777	-0.100130
O18	O	-0.709773	-1.641739	-0.028138
N19	N	-0.708890	-1.485127	-0.184739
C20	C	-0.682790	-1.400458	-0.269353
O21	O	-0.709801	-1.328450	-0.341309
C22	C	-0.473913	-1.400424	-0.269365
C23	C	-0.447794	-1.485088	-0.184759
C24	C	-0.447771	-1.654404	-0.015550
C25	C	-0.395555	-1.654400	-0.015560
C26	C	-0.369458	-1.569740	-0.100170
C27	C	-0.395577	-1.485084	-0.184769
C28	C	-0.447814	-1.315750	-0.353972
C29	C	-0.395591	-1.315747	-0.353965
C30	C	-0.369472	-1.400411	-0.269359
C31	C	-0.317264	-1.400421	-0.269390
N32	N	-0.291142	-1.485071	-0.184781
C33	C	-0.317239	-1.569730	-0.100171
C34	C	-0.792453	-1.400484	-0.269343
C35	C	-0.844672	-1.400494	-0.269342
C36	C	-0.844647	-1.569812	-0.100117
C37	C	-0.792427	-1.569807	-0.100125
C38	C	-0.766331	-1.485134	-0.184734
C39	C	-0.207581	-1.569717	-0.100199
C40	C	-0.155360	-1.569709	-0.100221
C41	C	-0.155390	-1.400388	-0.269440
C42	C	-0.207606	-1.400400	-0.269424
C43	C	-0.233701	-1.485069	-0.184793
O44	O	-0.290227	-1.328487	-0.341334
O45	O	-0.290218	-1.641709	-0.028207
C46	C	-0.526107	-1.569751	-0.100139
C47	C	-0.552226	-1.485095	-0.184739
C48	C	-0.526130	-1.400435	-0.269349
C49	C	-0.604445	-1.485105	-0.184738
C50	C	-0.630542	-1.569765	-0.100128
C51	C	-0.604420	-1.654414	-0.015519
C52	C	-0.552203	-1.654411	-0.015529
C53	C	-0.552252	-1.315785	-0.353958
C54	C	-0.604468	-1.315797	-0.353941
C55	C	-0.630565	-1.400457	-0.269332
N56	N	0.129231	-1.485154	-0.184732
C57	C	-0.000018	-1.714634	-0.177615
C58	C	-0.000016	-1.854078	-0.181306
C59	C	-0.000005	-1.088146	-0.416831
C60	C	0.000000	-1.008652	-0.529374
C61	C	0.000001	-0.877634	-0.525898
C62	C	-0.000006	-0.826108	-0.409867
C63	C	-0.000011	-0.905602	-0.297324
C64	C	-0.000010	-1.036622	-0.300812
C65	C	-0.000021	-0.933572	-0.068763
C66	C	-0.000018	-1.064590	-0.072235
C67	C	-0.000028	-0.882046	0.047269
C68	C	-0.000030	-0.961540	0.159814
C69	C	-0.000030	-1.092565	0.156334
C70	C	-0.000024	-1.144084	0.040308
C71	C	-0.000016	-1.477929	-0.414323
C72	C	-0.000015	-1.481621	-0.553766
C73	C	0.090432	-1.488627	0.184235
C74	C	0.135654	-1.486924	0.249765
C75	C	0.135655	-1.483455	0.380783
C76	C	0.090428	-1.481685	0.446275
C77	C	0.045206	-1.483388	0.380745
C78	C	0.045211	-1.486861	0.249723
C79	C	-0.045237	-1.483324	0.380704
C80	C	-0.045239	-1.486802	0.249686
C81	C	-0.090464	-1.481554	0.446195
C82	C	-0.135687	-1.483266	0.380666
C83	C	-0.135686	-1.486736	0.249639
C84	C	-0.090461	-1.488505	0.184156
H85	H	-0.228821	-1.638661	-0.031284
C86	C	-0.366830	-1.747516	0.077522
H87	H	-0.389857	-1.797920	0.127916
H88	H	-0.346455	-1.800193	0.031873
H89	H	-0.346463	-1.701873	0.130229
H90	H	-0.771210	-1.331532	-0.338245
C91	C	0.185397	-1.481611	0.452873
H92	H	0.212333	-1.483177	0.395112
H93	H	0.187287	-1.407161	0.495060
H94	H	0.187263	-1.553389	0.512912
C95	C	-0.000001	-1.232261	-0.420659
H96	H	0.000001	-1.251563	-0.505877
H97	H	0.028926	-1.267074	-0.379216
H98	H	-0.028937	-1.267055	-0.379262
H99	H	-0.172507	-1.481816	0.433998
H100	H	0.090433	-1.478845	0.552955
H101	H	-0.000018	-1.250764	0.037463
C102	C	0.185399	-1.488876	0.177724
H103	H	0.178925	-1.491199	0.090310
H104	H	0.203986	-1.415214	0.190263
H105	H	0.203974	-1.561441	0.208148
H106	H	-0.000036	-1.157283	0.247981
H107	H	0.090436	-1.491466	0.077554
H108	H	0.000004	-1.050619	-0.623844
H109	H	-0.469014	-1.723344	0.053356
H110	H	-0.469073	-1.246808	-0.422865
C111	C	-0.126677	-1.307261	-0.362495
H112	H	-0.091837	-1.319380	-0.350364
H113	H	-0.135234	-1.321606	-0.446450
H114	H	-0.135239	-1.223327	-0.348053
H115	H	0.000002	-0.812909	-0.617541
H116	H	-0.090460	-1.478722	0.552876
C117	C	-0.126631	-1.662838	-0.007145
H118	H	-0.149655	-1.713247	0.043254
H119	H	-0.106260	-1.715509	-0.052807
H120	H	-0.106261	-1.617198	0.045558
C121	C	-0.000009	-0.681992	-0.406046
H122	H	-0.000004	-0.642029	-0.489689
H123	H	-0.028940	-0.657509	-0.363064
H124	H	0.028923	-0.657527	-0.363039
H125	H	-0.771163	-1.638747	-0.031231
H126	H	-0.625731	-1.246856	-0.422849
C127	C	-0.185431	-1.488609	0.177566
H128	H	-0.212363	-1.487066	0.235340
H129	H	-0.187308	-1.416856	0.117510
H130	H	-0.187316	-1.563083	0.135402
H131	H	-0.374347	-1.246792	-0.422863
C132	C	-0.090460	-1.492323	0.040039
H133	H	-0.123869	-1.493091	0.010388
H134	H	-0.073752	-1.420014	0.001469
H135	H	-0.073763	-1.566241	0.019353
C136	C	-0.000026	-0.737930	0.051093
H137	H	-0.000017	-0.697964	-0.032549
H138	H	-0.028957	-0.713439	0.094070
H139	H	0.028906	-0.713476	0.094107
C140	C	-0.873359	-1.662925	-0.007038
H141	H	-0.908199	-1.650789	-0.019154
H142	H	-0.864800	-1.746866	-0.021435
H143	H	-0.864799	-1.648536	0.076911
H144	H	-0.000034	-0.919576	0.254278
H145	H	-0.228873	-1.331471	-0.338330
C146	C	-0.873398	-1.307365	-0.362408
H147	H	-0.850372	-1.256937	-0.412784
H148	H	-0.893771	-1.352980	-0.415117
H149	H	-0.893767	-1.254695	-0.316727
H150	H	-0.530941	-1.723352	0.053365
H151	H	-0.625676	-1.723353	0.053370
H152	H	-0.531008	-1.246844	-0.422856
