data_functionalizedCrystal
_audit_creation_method	'MofGen! by Chris Wilmer'
_symmetry_space_group_name_H-M	'P1'
_symmetry_Int_Tables_number	1
_symmetry_cell_setting	triclinic
loop_
_symmetry_equiv_pos_as_xyz
  x,y,z
_cell_length_a	14.971491
_cell_length_b	14.421503
_cell_length_c	14.971486
_cell_angle_alpha	90.004087
_cell_angle_beta	96.384818
_cell_angle_gamma	90.009490
loop_
_atom_site_label
_atom_site_type_symbol
_atom_site_fract_x
_atom_site_fract_y
_atom_site_fract_z
O1	O	1.186947	0.077152	-0.116572
O2	O	1.520281	0.410485	0.216761
O3	O	1.853614	0.743818	0.550094
O4	O	0.926548	0.077145	-0.130526
O5	O	1.259881	0.410478	0.202807
O6	O	1.593214	0.743812	0.536140
O7	O	1.063727	0.077142	0.006651
O8	O	1.397060	0.410475	0.339984
O9	O	1.730394	0.743809	0.673317
O10	O	1.049768	0.077155	-0.253749
O11	O	1.383101	0.410488	0.079584
O12	O	1.716435	0.743822	0.412917
O13	O	1.063704	-0.077081	0.006630
O14	O	1.397037	0.256252	0.339964
O15	O	1.730371	0.589585	0.673297
O16	O	0.926525	-0.077078	-0.130547
O17	O	1.259858	0.256255	0.202787
O18	O	1.593192	0.589588	0.536120
O19	O	1.186925	-0.077072	-0.116593
O20	O	1.520258	0.256262	0.216741
O21	O	1.853591	0.589595	0.550074
Cu22	Cu	1.056723	-0.091157	-0.123572
Cu23	Cu	1.390056	0.242177	0.209762
Cu24	Cu	1.723389	0.575510	0.543095
Cu25	Cu	1.056750	0.091230	-0.123547
Cu26	Cu	1.390083	0.424564	0.209786
Cu27	Cu	1.723416	0.757897	0.543119
O28	O	1.049745	-0.077069	-0.253770
O29	O	1.383079	0.256265	0.079564
O30	O	1.716412	0.589598	0.412897
C31	C	0.893212	0.000032	-0.129912
C32	C	1.226545	0.333366	0.203422
C33	C	1.559878	0.666699	0.536755
C34	C	0.793915	0.000030	-0.128039
C35	C	1.127248	0.333363	0.205294
C36	C	1.460582	0.666696	0.538628
N37	N	1.056710	-0.219438	-0.123588
N38	N	1.390044	0.113895	0.209745
N39	N	1.723377	0.447229	0.543079
C40	C	0.366222	0.084118	-0.119948
C41	C	0.699555	0.417451	0.213386
C42	C	1.032888	0.750785	0.546719
C43	C	0.459522	0.084115	-0.121704
C44	C	0.792855	0.417448	0.211629
C45	C	1.126189	0.750781	0.544962
C46	C	0.506155	0.000044	-0.122600
C47	C	0.839489	0.333377	0.210734
C48	C	1.172822	0.666711	0.544067
C49	C	0.459485	-0.084028	-0.121729
C50	C	0.792818	0.249305	0.211604
C51	C	1.126152	0.582638	0.544937
C52	C	0.366187	-0.084024	-0.119966
C53	C	0.699520	0.249309	0.213367
C54	C	1.032854	0.582643	0.546701
C55	C	0.653947	-0.084032	-0.125406
C56	C	0.987280	0.249302	0.207927
C57	C	1.320613	0.582635	0.541260
C58	C	0.747251	-0.084036	-0.127171
C59	C	1.080584	0.249297	0.206162
C60	C	1.413917	0.582630	0.539495
C61	C	0.747282	0.084107	-0.127145
C62	C	1.080615	0.417440	0.206189
C63	C	1.413948	0.750774	0.539522
C64	C	0.653984	0.084111	-0.125382
C65	C	0.987317	0.417445	0.207952
C66	C	1.320650	0.750778	0.541285
C67	C	0.607319	0.000038	-0.124513
C68	C	0.940653	0.333372	0.208821
C69	C	1.273986	0.666705	0.542154
C70	C	0.993267	-0.469090	-0.186990
C71	C	1.326601	-0.135757	0.146343
C72	C	1.659934	0.197576	0.479677
C73	C	1.074109	-0.530890	-0.204439
C74	C	1.407442	-0.197557	0.128895
C75	C	1.740775	0.135777	0.462228
C76	C	1.056732	-0.408599	-0.123567
C77	C	1.390065	-0.075266	0.209767
C78	C	1.723399	0.258067	0.543100
C79	C	0.975912	-0.530894	-0.106139
C80	C	1.309245	-0.197561	0.227194
C81	C	1.642578	0.135773	0.560528
C82	C	1.056746	-0.591321	-0.123548
C83	C	1.390079	-0.257988	0.209785
C84	C	1.723412	0.075346	0.543119
C85	C	1.137614	-0.469038	-0.141056
C86	C	1.470948	-0.135705	0.192278
C87	C	1.804281	0.197628	0.525611
C88	C	1.039364	-0.469037	-0.042721
C89	C	1.372697	-0.135703	0.290613
C90	C	1.706030	0.197630	0.623946
C91	C	1.120264	-0.530808	-0.060135
C92	C	1.453597	-0.197475	0.273198
C93	C	1.786930	0.135858	0.606532
C94	C	1.056723	-0.303338	-0.123580
C95	C	1.390056	0.029995	0.209754
C96	C	1.723390	0.363328	0.543087
C97	C	1.056764	-0.696580	-0.123534
C98	C	1.390098	-0.363246	0.209799
C99	C	1.723431	-0.029913	0.543132
C100	C	1.220261	0.000043	-0.117207
C101	C	1.553594	0.333376	0.216126
C102	C	1.886927	0.666710	0.549459
C103	C	1.319557	0.000052	-0.119080
C104	C	1.652891	0.333385	0.214253
C105	C	1.986224	0.666719	0.547587
C106	C	1.063091	0.000031	0.039965
C107	C	1.396425	0.333364	0.373299
C108	C	1.729758	0.666697	0.706632
C109	C	1.061221	0.000031	0.139262
C110	C	1.394554	0.333365	0.472596
C111	C	1.727887	0.666698	0.805929
N112	N	1.056769	0.219511	-0.123524
N113	N	1.390102	0.552845	0.209809
N114	N	1.723436	0.886178	0.543143
C115	C	1.050381	0.000045	-0.287084
C116	C	1.383714	0.333378	0.046249
C117	C	1.717048	0.666712	0.379583
C118	C	1.052252	0.000050	-0.386381
C119	C	1.385585	0.333384	-0.053048
C120	C	1.718918	0.666717	0.280285
C121	C	1.141810	0.000033	0.196486
C122	C	1.475143	0.333366	0.529819
C123	C	1.808476	0.666699	0.863153
C124	C	1.140046	0.000042	0.289786
C125	C	1.473380	0.333375	0.623119
C126	C	1.806713	0.666709	0.956452
C127	C	1.057693	0.000043	0.325859
C128	C	1.391027	0.333377	0.659193
C129	C	1.724360	0.666710	0.992526
C130	C	0.977098	0.000045	0.268628
C131	C	1.310432	0.333378	0.601962
C132	C	1.643765	0.666711	0.935295
C133	C	0.978862	0.000042	0.175331
C134	C	1.312196	0.333375	0.508664
C135	C	1.645529	0.666709	0.841997
C136	C	0.973427	0.000048	0.463091
C137	C	1.306761	0.333381	0.796424
C138	C	1.640094	0.666715	1.129758
C139	C	0.971663	0.000049	0.556395
C140	C	1.304996	0.333382	0.889728
C141	C	1.638329	0.666715	1.223062
C142	C	1.134611	0.000048	0.577546
C143	C	1.467945	0.333381	0.910879
C144	C	1.801278	0.666715	1.244212
C145	C	1.136375	0.000045	0.484248
C146	C	1.469709	0.333379	0.817581
C147	C	1.803042	0.666712	1.150915
C148	C	1.055780	0.000045	0.427023
C149	C	1.389113	0.333378	0.760357
C150	C	1.722446	0.666712	1.093690
H151	H	0.328259	0.152578	-0.119225
H152	H	0.661592	0.485911	0.214108
H153	H	0.994925	0.819245	0.547442
H154	H	0.785216	-0.152494	-0.127905
H155	H	1.118550	0.180839	0.205428
H156	H	1.451883	0.514173	0.538762
H157	H	0.328193	-0.152479	-0.119269
H158	H	0.661526	0.180854	0.214065
H159	H	0.994860	0.514187	0.547398
F160	F	0.509182	0.173589	-0.122624
F161	F	0.842516	0.506923	0.210709
F162	F	1.175849	0.840256	0.544043
F163	F	0.886569	-0.566410	-0.086881
F164	F	1.219902	-0.233076	0.246452
F165	F	1.553235	0.100257	0.579786
F166	F	0.604286	-0.173512	-0.124472
F167	F	0.937620	0.159821	0.208861
F168	F	1.270953	0.493155	0.542195
H169	H	1.205984	-0.441982	-0.155870
H170	H	1.539317	-0.108649	0.177464
H171	H	1.872650	0.224685	0.510797
F172	F	1.093328	-0.566402	-0.293791
F173	F	1.426662	-0.233069	0.039543
F174	F	1.759995	0.100265	0.372876
F175	F	1.229462	0.000023	0.158103
F176	F	1.562796	0.333356	0.491436
F177	F	1.896129	0.666689	0.824769
H178	H	1.205670	0.000041	0.336374
H179	H	1.539004	0.333375	0.669708
H180	H	1.872337	0.666708	1.003041
H181	H	0.785280	0.152562	-0.127853
H182	H	1.118613	0.485895	0.205480
H183	H	1.451947	0.819229	0.538813
H184	H	0.904604	0.000035	0.585763
H185	H	1.237937	0.333368	0.919096
H186	H	1.571270	0.666702	1.252429
H187	H	0.616017	0.152569	-0.124659
H188	H	0.949350	0.485902	0.208675
H189	H	1.282683	0.819235	0.542008
H190	H	0.907797	0.000050	0.416500
H191	H	1.241131	0.333383	0.749833
H192	H	1.574464	0.666717	1.083167
F193	F	0.509118	-0.173503	-0.122679
F194	F	0.842452	0.159831	0.210654
F195	F	1.175785	0.493164	0.543987
H196	H	0.939652	-0.441991	-0.240668
H197	H	1.272986	-0.108658	0.092665
H198	H	1.606319	0.224675	0.425998
H199	H	1.173998	-0.557737	-0.006489
H200	H	1.507331	-0.224404	0.326845
H201	H	1.840665	0.108929	0.660178
F202	F	0.889451	0.000056	0.307023
F203	F	1.222785	0.333390	0.640357
F204	F	1.556118	0.666723	0.973690
F205	F	1.020113	-0.433495	0.046605
F206	F	1.353447	-0.100162	0.379938
F207	F	1.686780	0.233172	0.713272
H208	H	1.203434	0.000038	0.454880
H209	H	1.536768	0.333371	0.788214
H210	H	1.870101	0.666704	1.121547
F211	F	1.220388	0.000052	0.638449
F212	F	1.553721	0.333386	0.971783
F213	F	1.887055	0.666719	1.305116
H214	H	0.913238	0.000041	0.128739
H215	H	1.246572	0.333374	0.462072
H216	H	1.579905	0.666708	0.795406
