data_functionalizedCrystal
_audit_creation_method	'MofGen! by Chris Wilmer'
_symmetry_space_group_name_H-M	'P1'
_symmetry_Int_Tables_number	1
_symmetry_cell_setting	triclinic
loop_
_symmetry_equiv_pos_as_xyz
  x,y,z
_cell_length_a	31.640172
_cell_length_b	31.640172
_cell_length_c	15.698487
_cell_angle_alpha	90.004227
_cell_angle_beta	60.007309
_cell_angle_gamma	60.005009
loop_
_atom_site_label
_atom_site_type_symbol
_atom_site_fract_x
_atom_site_fract_y
_atom_site_fract_z
Zr1	Zr	0.462589	-0.055462	0.820737
O2	O	0.550746	-0.122941	0.684745
O3	O	0.374425	-0.034777	0.862409
O4	O	0.462581	-0.122943	0.862431
O5	O	0.462599	0.034774	0.684725
O6	O	0.462583	-0.122944	1.002612
O7	O	0.462590	-0.034774	0.684723
O8	O	0.304888	0.034770	1.002573
O9	O	0.620293	-0.122940	0.684764
O10	O	0.410692	-0.025954	0.984817
O11	O	0.410697	0.025949	0.880203
O12	O	0.514489	-0.077856	0.880229
O13	O	0.514495	-0.025952	0.775615
Zr14	Zr	0.462606	0.055458	1.044313
Zr15	Zr	0.462592	-0.055463	1.044309
Zr16	Zr	0.462603	0.055460	0.820740
Zr17	Zr	0.573509	-0.055461	0.820767
Zr18	Zr	0.351685	0.055457	1.044282
O19	O	0.550769	0.034773	1.002641
O20	O	0.550749	-0.122943	1.002636
O21	O	0.550765	0.034775	0.684749
O22	O	0.374449	0.122937	1.180305
O23	O	0.374429	-0.034779	1.180300
O24	O	0.374445	0.122940	0.862413
O25	O	0.462596	-0.034778	1.180325
O26	O	0.462614	0.122939	1.002619
O27	O	0.462612	0.122941	0.862438
O28	O	0.462605	0.034770	1.180327
O29	O	0.620295	-0.122942	0.862474
O30	O	0.304899	0.122938	1.002575
O31	O	0.304901	0.122936	1.180286
O32	O	0.304890	0.034769	1.180283
O33	O	0.620304	-0.034772	0.684766
O34	O	0.620306	-0.034774	0.862477
O35	O	0.410705	0.077852	0.984820
O36	O	0.410700	0.025948	1.089434
O37	O	0.514497	-0.025953	0.984846
O38	O	0.514502	0.025951	0.880232
C39	C	0.323853	-0.000003	0.932486
C40	C	0.276764	-0.000004	0.932473
C41	C	0.462580	-0.138748	0.932521
C42	C	0.462574	-0.185837	0.932519
C43	C	0.462594	0.000000	0.652869
C44	C	0.462593	0.000001	0.557957
C45	C	-0.015280	-0.027090	0.987153
C46	C	-0.192276	-0.027090	0.987175
O47	O	-0.215183	-0.050113	1.033654
N48	N	-0.214402	0.000002	0.932566
C49	C	-0.192280	0.027099	0.877953
O50	O	-0.215165	0.050147	0.831515
C51	C	-0.015288	0.027101	0.877939
C52	C	0.006840	0.000003	0.932542
C53	C	0.006848	-0.054186	1.041753
C54	C	0.051096	-0.054188	1.041743
C55	C	0.073217	-0.027095	0.987132
C56	C	0.051089	0.000001	0.932532
C57	C	0.006831	0.054201	0.823333
C58	C	0.051081	0.054200	0.823336
C59	C	0.073209	0.027102	0.877940
C60	C	0.117458	0.027092	0.877911
N61	N	0.139585	0.000000	0.932519
C62	C	0.117464	-0.027093	0.987130
C63	C	-0.285202	0.027095	0.877963
C64	C	-0.329449	0.027094	0.877965
C65	C	-0.329443	-0.027095	0.987188
C66	C	-0.285192	-0.027096	0.987180
C67	C	-0.263076	0.000003	0.932572
C68	C	0.210390	-0.027096	0.987103
C69	C	0.254644	-0.027098	0.987084
C70	C	0.254632	0.027093	0.877866
C71	C	0.210383	0.027092	0.877880
C72	C	0.188262	-0.000003	0.932506
O73	O	0.140388	0.050108	0.831465
O74	O	0.140348	-0.050129	1.033581
C75	C	-0.059529	-0.027088	0.987164
C76	C	-0.081657	0.000007	0.932564
C77	C	-0.059536	0.027101	0.877953
C78	C	-0.125904	0.000006	0.932566
C79	C	-0.148024	-0.027088	0.987176
C80	C	-0.125898	-0.054180	1.041785
C81	C	-0.081650	-0.054182	1.041775
C82	C	-0.081662	0.054193	0.823344
C83	C	-0.125910	0.054193	0.823358
C84	C	-0.148031	0.027099	0.877969
C85	C	0.601342	-0.000000	0.932563
C86	C	0.648430	0.000000	0.932576
C87	C	0.516784	-0.504964	0.877940
C88	C	0.516794	-0.681959	0.877941
O89	O	0.562874	-0.727886	0.831549
N90	N	0.462614	-0.676997	0.932533
C91	C	0.408427	-0.627782	0.987135
O92	O	0.362343	-0.627623	1.033577
C93	C	0.408417	-0.450788	0.987139
C94	C	0.462601	-0.455754	0.932535
C95	C	0.570964	-0.509927	0.823341
C96	C	0.570961	-0.465681	0.823337
C97	C	0.516778	-0.416471	0.877931
C98	C	0.462598	-0.411507	0.932530
C99	C	0.354230	-0.401574	1.041746
C100	C	0.354233	-0.357325	1.041744
C101	C	0.408417	-0.362291	0.987140
C102	C	0.408412	-0.318051	0.987120
N103	N	0.462593	-0.323012	0.932528
C104	C	0.516775	-0.372222	0.877934
C105	C	0.408435	-0.720709	0.987127
C106	C	0.408438	-0.764957	0.987124
C107	C	0.516806	-0.819131	0.877933
C108	C	0.516803	-0.774882	0.877930
C109	C	0.462616	-0.725670	0.932535
C110	C	0.516765	-0.279300	0.877928
C111	C	0.516757	-0.235047	0.877925
C112	C	0.408389	-0.180877	0.987121
C113	C	0.408397	-0.225126	0.987120
C114	C	0.462589	-0.274338	0.932521
O115	O	0.362357	-0.272109	1.033498
O116	O	0.562852	-0.372370	0.831517
C117	C	0.516787	-0.549210	0.877945
C118	C	0.462607	-0.544247	0.932543
C119	C	0.408424	-0.495037	0.987138
C120	C	0.462610	-0.588495	0.932541
C121	C	0.516793	-0.637705	0.877947
C122	C	0.570973	-0.642667	0.823355
C123	C	0.570970	-0.598420	0.823350
C124	C	0.354244	-0.490075	1.041730
C125	C	0.354251	-0.534324	1.041729
C126	C	0.408434	-0.583534	0.987134
C127	C	0.462615	0.138744	0.932529
C128	C	0.462621	0.185833	0.932530
C129	C	0.462603	-0.000004	0.384172
C130	C	0.462600	-0.000002	0.480876
C131	C	0.462601	-0.000004	1.212180
C132	C	0.462602	-0.000005	1.307093
C133	C	0.323856	-0.000006	1.212142
C134	C	0.276769	-0.000007	1.307041
C135	C	0.323871	0.138742	0.932490
C136	C	0.276788	0.185831	0.932479
C137	C	0.323874	0.138740	1.212146
C138	C	0.276792	0.185828	1.307046
C139	C	0.601321	-0.138744	0.652904
C140	C	0.648402	-0.185832	0.558003
C141	C	0.601338	0.000002	0.652908
C142	C	0.648426	0.000003	0.558008
C143	C	0.601324	-0.138746	0.932559
C144	C	0.648407	-0.185835	0.932571
C145	C	0.254652	-0.027105	1.296998
C146	C	0.210415	-0.027116	1.386157
C147	C	0.188292	-0.000027	1.485359
C148	C	0.210413	0.027072	1.495400
C149	C	0.254653	0.027080	1.406242
C150	C	0.254682	0.235041	0.987082
C151	C	0.210449	0.279290	0.987067
C152	C	0.188320	0.274328	0.932454
C153	C	0.210431	0.225112	0.877844
C154	C	0.254666	0.180864	0.877853
C155	C	0.254680	0.180848	1.406230
C156	C	0.210448	0.225087	1.495408
C157	C	0.188326	0.274307	1.485400
C158	C	0.210443	0.279286	1.386206
C159	C	0.254678	0.235047	1.297031
C160	C	0.670520	-0.180852	0.458820
C161	C	0.714766	-0.225091	0.369642
C162	C	0.736890	-0.274311	0.379649
C163	C	0.714770	-0.279290	0.478843
C164	C	0.670528	-0.235051	0.568019
C165	C	0.670547	0.027096	0.568052
C166	C	0.714797	0.027095	0.478892
C167	C	0.736921	0.000004	0.379690
C168	C	0.714798	-0.027092	0.369649
C169	C	0.670552	-0.027094	0.458808
C170	C	0.670521	-0.180856	0.987194
C171	C	0.714755	-0.225096	0.987226
C172	C	0.736875	-0.274315	0.932627
C173	C	0.714756	-0.279293	0.878002
C174	C	0.670521	-0.235053	0.877977
H175	H	0.272660	-0.049166	1.031548
H176	H	0.652517	-0.140783	1.031655
H177	H	0.772949	0.000010	0.307100
Br178	Br	0.640503	-0.114059	0.445209
H179	H	0.272664	-0.049170	1.216231
Br180	Br	0.284701	0.241791	1.061214
Br181	Br	0.744800	-0.346093	0.492407
Br182	Br	0.640513	-0.241820	0.702622
Br183	Br	0.128294	0.334342	1.606436
Br184	Br	0.644500	-0.472429	0.749205
Br185	Br	0.640533	0.063865	0.702671
Br186	Br	0.180381	0.063836	1.630040
H187	H	0.192409	-0.049183	1.377961
H188	H	-0.011161	-0.076248	1.086229
Br189	Br	0.796911	-0.334351	0.932670
H190	H	-0.267178	-0.049162	1.031643
H191	H	-0.347460	-0.049156	1.031653
H192	H	0.560924	-0.859206	0.833475
H193	H	0.272654	0.049149	1.414434
H194	H	0.732802	0.049163	0.487088
Br195	Br	0.640533	-0.063864	0.445158
Br196	Br	0.081091	0.090981	0.749225
Br197	Br	0.744829	-0.063855	0.235009
H198	H	0.272676	0.239109	1.216274
Br199	Br	0.796933	-0.334346	0.258613
Br200	Br	0.590312	-0.346082	0.803831
Br201	Br	0.128251	-0.000043	1.606351
Br202	Br	0.180415	0.346089	1.372642
H203	H	0.364276	-0.221081	1.031569
Br204	Br	0.180450	0.346076	1.061188
Br205	Br	0.284660	0.114080	0.803745
H206	H	0.732768	-0.221027	0.288883
Br207	Br	0.640518	-0.241820	0.803828
H208	H	0.732759	-0.221033	1.031707
H209	H	0.192383	-0.049159	1.031586
Br210	Br	0.081119	-0.090965	1.115855
H211	H	-0.347456	0.049153	0.833488
Br212	Br	-0.255195	0.063877	0.803848
Br213	Br	0.128286	0.334384	0.932452
Br214	Br	0.180392	0.218386	0.803731
Br215	Br	0.284695	0.114055	1.419841
H216	H	0.615093	-0.602470	0.778886
H217	H	-0.011179	0.076268	0.778870
H218	H	0.192445	0.221024	1.576167
H219	H	0.192373	0.049151	0.833403
Br220	Br	0.284662	0.063861	0.803754
Br221	Br	0.644508	-0.576709	0.749239
Br222	Br	-0.051624	-0.090961	1.115882
Br223	Br	0.744789	-0.346095	0.803897
H224	H	-0.143920	0.076258	0.778883
Br225	Br	-0.155925	-0.090952	1.115893
H226	H	-0.063657	0.076258	0.778875
H227	H	0.560882	-0.239096	0.833455
H228	H	0.560925	-0.778930	0.833465
H229	H	0.364316	-0.760907	1.031575
H230	H	0.364308	-0.680640	1.031596
H231	H	0.310108	-0.397520	1.086212
H232	H	0.310106	-0.317256	1.086212
H233	H	0.615091	-0.682742	0.778896
Br234	Br	0.280708	-0.527575	1.115833
Br235	Br	0.280702	-0.423293	1.115812
Br236	Br	0.334859	-0.114085	1.061206
