data_functionalizedCrystal
_audit_creation_method	'MofGen! by Chris Wilmer'
_symmetry_space_group_name_H-M	'P1'
_symmetry_Int_Tables_number	1
_symmetry_cell_setting	triclinic
loop_
_symmetry_equiv_pos_as_xyz
  x,y,z
_cell_length_a	16.956995
_cell_length_b	19.288865
_cell_length_c	17.766277
_cell_angle_alpha	90.011603
_cell_angle_beta	89.993085
_cell_angle_gamma	100.404640
loop_
_atom_site_label
_atom_site_type_symbol
_atom_site_fract_x
_atom_site_fract_y
_atom_site_fract_z
O1	O	1.057939	-0.028794	-0.062548
O2	O	1.391272	0.304539	0.270785
O3	O	1.724606	0.637873	0.604119
O4	O	0.825694	-0.053183	-0.062563
O5	O	1.159028	0.280150	0.270771
O6	O	1.492361	0.613483	0.604104
O7	O	0.948527	0.060509	-0.062540
O8	O	1.281861	0.393842	0.270793
O9	O	1.615194	0.727175	0.604127
O10	O	0.935106	-0.142486	-0.062571
O11	O	1.268439	0.190847	0.270763
O12	O	1.601773	0.524181	0.604096
O13	O	0.948506	0.060513	0.062648
O14	O	1.281839	0.393846	0.395982
O15	O	1.615173	0.727180	0.729315
O16	O	0.825673	-0.053179	0.062626
O17	O	1.159006	0.280154	0.395959
O18	O	1.492339	0.613488	0.729292
O19	O	1.057917	-0.028790	0.062640
O20	O	1.391251	0.304544	0.395974
O21	O	1.724584	0.637877	0.729307
Cu22	Cu	0.941793	-0.040984	0.074064
Cu23	Cu	1.275126	0.292349	0.407397
Cu24	Cu	1.608460	0.625683	0.740730
Cu25	Cu	0.941819	-0.040989	-0.073986
Cu26	Cu	1.275152	0.292344	0.259347
Cu27	Cu	1.608485	0.625678	0.592681
O28	O	0.935084	-0.142482	0.062618
O29	O	1.268418	0.190852	0.395951
O30	O	1.601751	0.524185	0.729284
C31	C	0.795971	-0.054430	0.000030
C32	C	1.129304	0.278903	0.333363
C33	C	1.462638	0.612237	0.666696
C34	C	0.707437	-0.058143	0.000025
C35	C	1.040771	0.275191	0.333358
C36	C	1.374104	0.608524	0.666692
C37	C	0.948085	0.086364	0.000056
C38	C	1.281418	0.419697	0.333390
C39	C	1.614751	0.753030	0.666723
C40	C	0.946788	0.163396	0.000063
C41	C	1.280122	0.496730	0.333396
C42	C	1.613455	0.830063	0.666730
C43	C	1.087641	-0.027543	0.000046
C44	C	1.420974	0.305790	0.333379
C45	C	1.754307	0.639124	0.666713
C46	C	1.176175	-0.023830	0.000046
C47	C	1.509508	0.309503	0.333379
C48	C	1.842841	0.642836	0.666713
C49	C	1.675575	0.003944	0.000034
C50	C	2.008908	0.337277	0.333367
C51	C	2.342241	0.670611	0.666700
C52	C	1.592387	0.000450	0.000032
C53	C	1.925720	0.333783	0.333365
C54	C	2.259054	0.667117	0.666698
C55	C	1.541063	-0.065131	0.000027
C56	C	1.874396	0.268203	0.333360
C57	C	2.207730	0.601536	0.666693
C58	C	1.572931	-0.127222	0.000016
C59	C	1.906264	0.206111	0.333349
C60	C	2.239597	0.539445	0.666682
C61	C	1.656117	-0.123727	0.000012
C62	C	1.989450	0.209606	0.333345
C63	C	2.322784	0.542939	0.666679
C64	C	1.291228	-0.082427	0.000032
C65	C	1.624562	0.250906	0.333365
C66	C	1.957895	0.584240	0.666698
C67	C	1.208037	-0.085917	0.000037
C68	C	1.541370	0.247417	0.333371
C69	C	1.874704	0.580750	0.666704
C70	C	1.227499	0.041756	0.000052
C71	C	1.560832	0.375089	0.333385
C72	C	1.894166	0.708422	0.666719
C73	C	1.310686	0.045244	0.000053
C74	C	1.644019	0.378578	0.333386
C75	C	1.977353	0.711911	0.666720
C76	C	1.342547	-0.016847	0.000038
C77	C	1.675880	0.316487	0.333372
C78	C	2.009213	0.649820	0.666705
N79	N	1.456032	-0.068704	0.000027
N80	N	1.789365	0.264630	0.333360
N81	N	2.122698	0.597963	0.666694
N82	N	1.427577	-0.013273	0.000032
N83	N	1.760910	0.320060	0.333366
N84	N	2.094243	0.653394	0.666699
C85	C	0.935527	-0.168337	0.000020
C86	C	1.268860	0.164997	0.333353
C87	C	1.602194	0.498330	0.666686
C88	C	0.936823	-0.245369	0.000008
C89	C	1.270157	0.087964	0.333341
C90	C	1.603490	0.421297	0.666675
N91	N	0.941781	-0.040980	0.178194
N92	N	1.275114	0.292354	0.511527
N93	N	1.608448	0.625687	0.844861
C94	C	1.018861	0.212034	0.000071
C95	C	1.352195	0.545367	0.333404
C96	C	1.685528	0.878701	0.666738
C97	C	1.017643	0.284415	0.000059
C98	C	1.350977	0.617748	0.333392
C99	C	1.684310	0.951081	0.666726
C100	C	0.944348	0.308154	0.000054
C101	C	1.277682	0.641487	0.333387
C102	C	1.611015	0.974821	0.666721
C103	C	0.872266	0.259506	0.000042
C104	C	1.205599	0.592839	0.333375
C105	C	1.538933	0.926172	0.666708
C106	C	0.873486	0.187127	0.000046
C107	C	1.206819	0.520460	0.333379
C108	C	1.540153	0.853794	0.666713
C109	C	0.886723	0.413292	0.043901
C110	C	1.220056	0.746625	0.377235
C111	C	1.553389	1.079958	0.710568
C112	C	0.885506	0.485670	0.043901
C113	C	1.218839	0.819003	0.377235
C114	C	1.552172	1.152336	0.710568
C115	C	0.940583	0.531393	0.000037
C116	C	1.273916	0.864727	0.333370
C117	C	1.607249	1.198060	0.666704
C118	C	0.996890	0.504733	-0.043818
C119	C	1.330224	0.838066	0.289515
C120	C	1.663557	1.171399	0.622849
C121	C	0.998110	0.432354	-0.043814
C122	C	1.331444	0.765687	0.289520
C123	C	1.664777	1.099021	0.622853
C124	C	0.943017	0.386635	0.000049
C125	C	1.276351	0.719968	0.333382
C126	C	1.609684	1.053302	0.666715
C127	C	1.011340	0.658515	0.000031
C128	C	1.344673	0.991849	0.333364
C129	C	1.678007	1.325182	0.666698
C130	C	1.010119	0.730897	0.000014
C131	C	1.343452	1.064230	0.333348
C132	C	1.676786	1.397563	0.666681
C133	C	0.864740	0.705986	0.000004
C134	C	1.198073	1.039319	0.333338
C135	C	1.531406	1.372653	0.666671
C136	C	0.865963	0.633606	0.000014
C137	C	1.199296	0.966940	0.333347
C138	C	1.532629	1.300273	0.666680
C139	C	0.939265	0.609876	0.000030
C140	C	1.272598	0.943209	0.333364
C141	C	1.605932	1.276542	0.666697
N142	N	0.941837	-0.040987	-0.178116
N143	N	1.275170	0.292346	0.155217
N144	N	1.608504	0.625679	0.488550
C145	C	0.996189	0.009341	0.217591
C146	C	1.329522	0.342674	0.550924
C147	C	1.662856	0.676008	0.884258
C148	C	0.996194	0.009344	0.296393
C149	C	1.329527	0.342678	0.629726
C150	C	1.662860	0.676011	0.963060
C151	C	0.941798	-0.040984	0.335795
C152	C	1.275131	0.292349	0.669128
C153	C	1.608465	0.625682	1.002461
C154	C	0.887380	-0.091309	0.296388
C155	C	1.220713	0.242024	0.629722
C156	C	1.554046	0.575358	0.963055
C157	C	0.887371	-0.091307	0.217588
C158	C	1.220705	0.242027	0.550921
C159	C	1.554038	0.575360	0.884255
C160	C	0.931121	-0.104856	0.460623
C161	C	1.264454	0.228477	0.793956
C162	C	1.597787	0.561811	1.127289
C163	C	0.931135	-0.104859	0.539422
C164	C	1.264468	0.228475	0.872755
C165	C	1.597801	0.561808	1.206088
C166	C	0.941819	-0.040991	0.578841
C167	C	1.275153	0.292342	0.912174
C168	C	1.608486	0.625675	1.245508
C169	C	0.952507	0.022882	0.539452
C170	C	1.285840	0.356216	0.872785
C171	C	1.619173	0.689549	1.206119
C172	C	0.952498	0.022885	0.460652
C173	C	1.285832	0.356218	0.793985
C174	C	1.619165	0.689551	1.127318
C175	C	0.941801	-0.040992	0.421240
C176	C	1.275134	0.292341	0.754574
C177	C	1.608467	0.625675	1.087907
C178	C	0.996235	0.009337	0.703684
C179	C	1.329569	0.342670	1.037017
C180	C	1.662902	0.676004	1.370351
C181	C	0.996234	0.009341	0.782487
C182	C	1.329568	0.342674	1.115820
C183	C	1.662901	0.676008	1.449154
C184	C	0.887424	-0.091318	0.782481
C185	C	1.220757	0.242015	1.115814
C186	C	1.554091	0.575348	1.449148
C187	C	0.887421	-0.091316	0.703679
C188	C	1.220754	0.242017	1.037013
C189	C	1.554088	0.575350	1.370346
C190	C	0.941831	-0.040989	0.664285
C191	C	1.275164	0.292344	0.997619
C192	C	1.608498	0.625677	1.330952
H193	H	1.717358	0.057347	0.000041
H194	H	2.050691	0.390680	0.333374
H195	H	2.384024	0.724014	0.666708
H196	H	1.682057	-0.174285	0.000008
H197	H	2.015391	0.159049	0.333342
H198	H	2.348724	0.492382	0.666675
N199	N	1.056303	0.554040	-0.091129
N200	N	1.389637	0.887374	0.242204
N201	N	1.722970	1.220707	0.575538
H202	H	1.049104	0.540158	-0.145856
H203	H	1.382437	0.873491	0.187477
H204	H	1.715771	1.206824	0.520810
H205	H	1.112598	0.551040	-0.074680
H206	H	1.445931	0.884373	0.258653
H207	H	1.779265	1.217706	0.591987
N208	N	0.828749	-0.145599	0.824968
N209	N	1.162082	0.187735	1.158302
N210	N	1.495416	0.521068	1.491635
H211	H	0.772177	-0.140811	0.811266
H212	H	1.105510	0.192522	1.144599
H213	H	1.438844	0.525855	1.477932
H214	H	0.837078	-0.137932	0.880853
H215	H	1.170411	0.195402	1.214186
H216	H	1.503745	0.528735	1.547520
H217	H	0.961198	0.074893	0.428584
H218	H	1.294532	0.408226	0.761918
H219	H	1.627865	0.741559	1.095251
H220	H	0.961207	0.074889	0.571546
H221	H	1.294540	0.408223	0.904879
H222	H	1.627874	0.741556	1.238212
N223	N	0.795746	0.134664	0.000055
N224	N	1.129079	0.467998	0.333388
N225	N	1.462412	0.801331	0.666721
H226	H	0.807641	0.085211	0.000064
H227	H	1.140974	0.418545	0.333397
H228	H	1.474308	0.751878	0.666730
H229	H	0.763794	0.141861	-0.046356
H230	H	1.097127	0.475194	0.286977
H231	H	1.430461	0.808527	0.620311
H232	H	1.071027	0.639193	0.000041
H233	H	1.404360	0.972526	0.333375
H234	H	1.737694	1.305860	0.666708
N235	N	1.087858	0.783360	0.000020
N236	N	1.421192	1.116694	0.333354
N237	N	1.754525	1.450027	0.666687
H238	H	1.134477	0.757341	0.000034
H239	H	1.467810	1.090674	0.333367
H240	H	1.801143	1.424007	0.666701
H241	H	1.090504	0.813943	0.046427
H242	H	1.423837	1.147277	0.379760
H243	H	1.757170	1.480610	0.713093
H244	H	0.843120	-0.132295	0.671600
H245	H	1.176453	0.201038	1.004933
H246	H	1.509787	0.534372	1.338267
N247	N	1.558020	0.067414	0.000043
N248	N	1.891353	0.400748	0.333376
N249	N	2.224687	0.734081	0.666709
H250	H	1.603156	0.109489	0.000051
H251	H	1.936489	0.442822	0.333384
H252	H	2.269823	0.776156	0.666718
H253	H	1.523925	0.068745	0.046453
H254	H	1.857258	0.402079	0.379786
H255	H	2.190592	0.735412	0.713120
N256	N	1.366041	0.115978	0.000069
N257	N	1.699375	0.449311	0.333402
N258	N	2.032708	0.782644	0.666735
H259	H	1.333233	0.154780	0.000076
H260	H	1.666566	0.488114	0.333409
H261	H	1.999900	0.821447	0.666743
H262	H	1.400987	0.120209	-0.046338
H263	H	1.734321	0.453543	0.286995
H264	H	2.067654	0.786876	0.620328
H265	H	1.040537	0.050322	0.814565
H266	H	1.373871	0.383655	1.147898
H267	H	1.707204	0.716988	1.481231
H268	H	1.078550	0.192718	0.000082
H269	H	1.411883	0.526051	0.333416
H270	H	1.745216	0.859385	0.666749
N271	N	1.054914	0.063616	0.661188
N272	N	1.388247	0.396950	0.994521
N273	N	1.721580	0.730283	1.327854
H274	H	1.089379	0.095500	0.698106
H275	H	1.422712	0.428833	1.031440
H276	H	1.756045	0.762166	1.364773
H277	H	1.024492	0.092592	0.628504
H278	H	1.357825	0.425925	0.961837
H279	H	1.691158	0.759259	1.295171
N280	N	0.793209	0.285101	0.000045
N281	N	1.126542	0.618435	0.333378
N282	N	1.459876	0.951768	0.666711
H283	H	0.761651	0.267053	-0.046365
H284	H	1.094985	0.600387	0.286968
H285	H	1.428318	0.933720	0.620302
H286	H	0.803435	0.338333	0.000075
H287	H	1.136769	0.671666	0.333409
H288	H	1.470102	1.004999	0.666742
N289	N	0.828710	-0.145596	0.338878
N290	N	1.162044	0.187738	0.672212
N291	N	1.495377	0.521071	1.005545
H292	H	0.772136	-0.140811	0.325180
H293	H	1.105470	0.192522	0.658513
H294	H	1.438803	0.525855	0.991847
H295	H	0.837042	-0.137935	0.394763
H296	H	1.170375	0.195399	0.728097
H297	H	1.503708	0.528732	1.061430
H298	H	1.040501	0.050323	0.328476
H299	H	1.373834	0.383656	0.661809
H300	H	1.707167	0.716990	0.995142
H301	H	0.805061	0.725314	-0.000003
H302	H	1.138395	1.058647	0.333330
H303	H	1.471728	1.391980	0.666663
N304	N	0.919603	-0.173747	0.581902
N305	N	1.252936	0.159587	0.915236
N306	N	1.586270	0.492920	1.248569
H307	H	0.912820	-0.214207	0.544975
H308	H	1.246153	0.119127	0.878308
H309	H	1.579486	0.452460	1.211642
H310	H	0.870241	-0.178000	0.614604
H311	H	1.203574	0.155334	0.947938
H312	H	1.536907	0.488667	1.281271
N313	N	0.828683	-0.145581	0.175090
N314	N	1.162017	0.187752	0.508423
N315	N	1.495350	0.521086	0.841756
H316	H	0.794220	-0.177463	0.212005
H317	H	1.127553	0.155870	0.545338
H318	H	1.460887	0.489204	0.878671
H319	H	0.859098	-0.174559	0.142381
H320	H	1.192431	0.158775	0.475715
H321	H	1.525765	0.492108	0.809048
N322	N	1.058831	0.403595	-0.091115
N323	N	1.392164	0.736929	0.242218
N324	N	1.725497	1.070262	0.575551
H325	H	1.093584	0.379442	-0.057514
H326	H	1.426917	0.712775	0.275820
H327	H	1.760251	1.046109	0.609153
H328	H	1.093485	0.443574	-0.118899
H329	H	1.426818	0.776907	0.214435
H330	H	1.760151	1.110240	0.547768
H331	H	1.201549	0.092307	0.000056
H332	H	1.534882	0.425640	0.333389
H333	H	1.868216	0.758973	0.666723
N334	N	0.919603	-0.173747	0.418112
N335	N	1.252936	0.159587	0.751445
N336	N	1.586270	0.492920	1.084779
H337	H	0.921218	-0.164055	0.362216
H338	H	1.254551	0.169279	0.695549
H339	H	1.587884	0.502612	1.028883
H340	H	0.866040	-0.203122	0.431889
H341	H	1.199374	0.130212	0.765222
H342	H	1.532707	0.463545	1.098555
H343	H	1.166250	-0.139323	0.000037
H344	H	1.499583	0.194010	0.333370
H345	H	1.832917	0.527343	0.666703
N346	N	1.325587	-0.149393	0.000007
N347	N	1.658920	0.183940	0.333340
N348	N	1.992253	0.517273	0.666673
H349	H	1.280449	-0.191466	0.000004
H350	H	1.613782	0.141867	0.333337
H351	H	1.947115	0.475200	0.666671
H352	H	1.359680	-0.150728	0.046409
H353	H	1.693013	0.182605	0.379743
H354	H	2.026346	0.515938	0.713076
H355	H	1.076336	0.324023	0.000063
H356	H	1.409669	0.657356	0.333396
H357	H	1.743002	0.990690	0.666730
N358	N	1.517579	-0.197957	0.000004
N359	N	1.850912	0.135376	0.333337
N360	N	2.184245	0.468710	0.666670
H361	H	1.460045	-0.190751	0.000009
H362	H	1.793378	0.142582	0.333343
H363	H	2.126712	0.475916	0.666676
H364	H	1.527870	-0.225218	0.046408
H365	H	1.861203	0.108115	0.379742
H366	H	2.194536	0.441448	0.713075
N367	N	0.788226	0.581142	0.000009
N368	N	1.121560	0.914475	0.333342
N369	N	1.454893	1.247808	0.666676
H370	H	0.741608	0.607161	0.000004
H371	H	1.074941	0.940494	0.333338
H372	H	1.408275	1.273827	0.666671
H373	H	0.785558	0.550579	0.046420
H374	H	1.118892	0.883912	0.379753
H375	H	1.452225	1.217245	0.713087
H376	H	0.839653	0.507370	0.079606
H377	H	1.172986	0.840703	0.412940
H378	H	1.506320	1.174037	0.746273
N379	N	0.827310	0.363977	0.091210
N380	N	1.160644	0.697310	0.424544
N381	N	1.493977	1.030644	0.757877
H382	H	0.791460	0.391848	0.118995
H383	H	1.124794	0.725182	0.452328
H384	H	1.458127	1.058515	0.785662
H385	H	0.857158	0.338982	0.128677
H386	H	1.190491	0.672316	0.462010
H387	H	1.523824	1.005649	0.795343
H388	H	1.040491	0.050322	0.185519
H389	H	1.373824	0.383655	0.518852
H390	H	1.707157	0.716988	0.852186
