data_functionalizedCrystal
_audit_creation_method	'MofGen! by Chris Wilmer'
_symmetry_space_group_name_H-M	'P1'
_symmetry_Int_Tables_number	1
_symmetry_cell_setting	triclinic
loop_
_symmetry_equiv_pos_as_xyz
  x,y,z
_cell_length_a	17.077404
_cell_length_b	16.959453
_cell_length_c	17.077396
_cell_angle_alpha	89.970905
_cell_angle_beta	89.981638
_cell_angle_gamma	90.022791
loop_
_atom_site_label
_atom_site_type_symbol
_atom_site_fract_x
_atom_site_fract_y
_atom_site_fract_z
Zn1	Zn	1.200044	-0.314724	-0.443815
Zn2	Zn	1.700044	0.185276	0.056185
Zn3	Zn	1.199947	-0.446912	-0.312548
Zn4	Zn	1.699947	0.053088	0.187452
Zn5	Zn	1.068776	-0.314747	-0.312566
Zn6	Zn	1.568776	0.185253	0.187434
Zn7	Zn	1.068739	-0.446860	-0.443774
Zn8	Zn	1.568739	0.053140	0.056226
O9	O	1.134377	-0.380811	-0.378176
O10	O	1.634377	0.119189	0.121824
O11	O	1.309878	-0.332272	-0.426412
O12	O	1.809878	0.167728	0.073588
O13	O	1.182521	-0.429411	-0.202703
O14	O	1.682521	0.070589	0.297297
O15	O	1.086245	-0.204133	-0.330001
O16	O	1.586245	0.295867	0.169999
O17	O	1.309807	-0.429390	-0.329971
O18	O	1.809807	0.070610	0.170029
O19	O	1.182687	-0.204116	-0.426430
O20	O	1.682687	0.295884	0.073570
O21	O	1.086150	-0.332310	-0.202717
O22	O	1.586150	0.167690	0.297283
O23	O	0.958924	-0.332260	-0.329961
O24	O	1.458924	0.167740	0.170039
O25	O	1.086183	-0.429301	-0.553627
O26	O	1.586183	0.070699	-0.053627
O27	O	0.958897	-0.429323	-0.426359
O28	O	1.458897	0.070677	0.073641
O29	O	1.182652	-0.332221	-0.553657
O30	O	1.682652	0.167779	-0.053657
O31	O	1.182486	-0.557516	-0.329931
O32	O	1.682486	-0.057516	0.170069
O33	O	1.086088	-0.557478	-0.426342
O34	O	1.586088	-0.057478	0.073658
C35	C	0.930429	-0.380789	-0.378158
C36	C	1.430429	0.119211	0.121842
C37	C	0.843179	-0.380798	-0.378169
C38	C	1.343179	0.119202	0.121831
C39	C	0.802227	-0.330319	-0.428463
C40	C	1.302227	0.169681	0.071537
C41	C	0.720246	-0.330324	-0.428467
C42	C	1.220246	0.169676	0.071533
C43	C	0.679219	-0.380813	-0.378180
C44	C	1.179219	0.119187	0.121820
C45	C	0.720177	-0.431294	-0.327881
C46	C	1.220177	0.068706	0.172119
C47	C	0.802156	-0.431285	-0.327874
C48	C	1.302156	0.068715	0.172126
C49	C	0.549307	-0.431312	-0.327900
C50	C	1.049307	0.068688	0.172100
C51	C	0.467323	-0.431323	-0.327908
C52	C	0.967323	0.068677	0.172092
C53	C	0.467397	-0.330351	-0.428493
C54	C	0.967397	0.169649	0.071507
C55	C	0.549376	-0.330342	-0.428486
C56	C	1.049376	0.169658	0.071514
C57	C	0.590328	-0.380824	-0.378188
C58	C	1.090328	0.119176	0.121812
C59	C	1.134294	-0.586177	-0.378147
C60	C	1.634294	-0.086177	0.121853
C61	C	1.134330	-0.674034	-0.378161
C62	C	1.634330	-0.174034	0.121839
C63	C	1.084116	-0.715317	-0.428322
C64	C	1.584116	-0.215317	0.071678
C65	C	1.184584	-0.715304	-0.328017
C66	C	1.684584	-0.215304	0.171983
C67	C	1.184623	-0.797850	-0.328031
C68	C	1.684623	-0.297850	0.171969
C69	C	1.134408	-0.839133	-0.378193
C70	C	1.634408	-0.339133	0.121807
C71	C	1.084155	-0.797870	-0.428340
C72	C	1.584155	-0.297870	0.071660
C73	C	1.234881	-0.839119	-0.277891
C74	C	1.734881	-0.339119	0.222109
C75	C	1.234922	-0.921670	-0.277903
C76	C	1.734922	-0.421670	0.222097
C77	C	1.184703	-0.962955	-0.328062
C78	C	1.684703	-0.462955	0.171938
C79	C	1.134447	-0.921687	-0.378210
C80	C	1.634447	-0.421687	0.121790
C81	C	1.084233	-0.962970	-0.428372
C82	C	1.584233	-0.462970	0.071628
C83	C	1.033972	-0.921703	-0.478517
C84	C	1.533972	-0.421703	0.021483
C85	C	1.033936	-0.839155	-0.478498
C86	C	1.533936	-0.339155	0.021502
C87	C	1.184740	-1.045503	-0.328080
C88	C	1.684740	-0.545503	0.171920
C89	C	1.084272	-1.045523	-0.428389
C90	C	1.584272	-0.545523	0.071611
C91	C	1.339121	-0.380834	-0.378194
C92	C	1.839121	0.119166	0.121806
C93	C	1.426371	-0.380844	-0.378202
C94	C	1.926371	0.119156	0.121798
C95	C	1.134424	-0.380753	-0.582920
C96	C	1.634424	0.119247	-0.082920
C97	C	1.134444	-0.380728	-0.670170
C98	C	1.634444	0.119272	-0.170170
C99	C	1.134481	-0.174643	-0.378222
C100	C	1.634481	0.325357	0.121778
C101	C	1.134525	-0.086786	-0.378242
C102	C	1.634525	0.413214	0.121758
C103	C	1.184677	-0.330174	-0.711177
C104	C	1.684677	0.169826	-0.211177
C105	C	1.184687	-0.330148	-0.793158
C106	C	1.684687	0.169852	-0.293158
C107	C	1.134467	-0.380680	-0.834130
C108	C	1.634467	0.119320	-0.334130
C109	C	1.084228	-0.431236	-0.793117
C110	C	1.584228	0.068764	-0.293117
C111	C	1.084215	-0.431257	-0.711138
C112	C	1.584215	0.068743	-0.211138
C113	C	1.084259	-0.431188	-0.963987
C114	C	1.584259	0.068812	-0.463987
C115	C	1.084273	-0.431168	-1.045972
C116	C	1.584273	0.068832	-0.545972
C117	C	1.184731	-0.330079	-1.046007
C118	C	1.684731	0.169921	-0.546007
C119	C	1.184719	-0.330100	-0.964028
C120	C	1.684719	0.169900	-0.464028
C121	C	1.134481	-0.380658	-0.923021
C122	C	1.634481	0.119342	-0.423021
C123	C	1.134374	-0.380812	-0.174228
C124	C	1.634374	0.119188	0.325772
C125	C	1.134506	-0.380614	-0.086979
C126	C	1.634506	0.119386	0.413021
H127	H	0.582778	-0.289234	-0.469439
H128	H	1.082778	0.210766	0.030561
N129	N	0.676075	-0.275863	-0.482697
N130	N	1.176075	0.224137	0.017303
H131	H	0.714505	-0.243876	-0.514551
H132	H	1.214505	0.256124	-0.014551
H133	H	0.642057	-0.308075	-0.518972
H134	H	1.142057	0.191925	-0.018972
H135	H	0.434050	-0.289245	-0.469447
H136	H	0.934050	0.210755	0.030553
H137	H	1.043381	-1.079130	-0.469237
H138	H	1.543381	-0.579130	0.030763
H139	H	0.835625	-0.289207	-0.469415
H140	H	1.335625	0.210793	0.030585
H141	H	1.225666	-1.079098	-0.287258
H142	H	1.725666	-0.579098	0.212742
H143	H	1.043335	-0.472377	-0.826483
H144	H	1.543335	0.027623	-0.326483
N145	N	1.289034	-0.794603	-0.223782
N146	N	1.789034	-0.294603	0.276218
H147	H	1.345121	-0.808905	-0.236030
H148	H	1.845121	-0.308905	0.263970
H149	H	1.281315	-0.736060	-0.231397
H150	H	1.781315	-0.236060	0.268603
N151	N	1.238749	-0.670782	-0.273924
N152	N	1.738749	-0.170782	0.226076
H153	H	1.231101	-0.612226	-0.281525
H154	H	1.731101	-0.112226	0.218475
H155	H	1.226575	-0.685258	-0.217852
H156	H	1.726575	-0.185258	0.282148
H157	H	1.225594	-0.288984	-0.826542
H158	H	1.725594	0.211016	-0.326542
N159	N	0.423069	-0.485779	-0.273674
N160	N	0.923069	0.014221	0.226326
H161	H	0.461450	-0.517755	-0.241805
H162	H	0.961450	-0.017755	0.258195
H163	H	0.389047	-0.453558	-0.237413
H164	H	0.889047	0.046442	0.262587
H165	H	1.043302	-0.472415	-0.677751
H166	H	1.543302	0.027585	-0.177751
N167	N	1.030106	-0.485651	-1.090183
N168	N	1.530106	0.014349	-0.590183
H169	H	1.042249	-0.542140	-1.075917
H170	H	1.542249	-0.042140	-0.575917
H171	H	0.974045	-0.473296	-1.075903
H172	H	1.474045	0.026704	-0.575903
H173	H	0.993016	-0.805551	-0.519325
H174	H	1.493016	-0.305551	-0.019325
N175	N	1.238854	-0.275681	-0.666989
N176	N	1.738854	0.224319	-0.166989
H177	H	1.206974	-0.239056	-0.632973
H178	H	1.706974	0.260944	-0.132973
H179	H	1.275194	-0.307884	-0.633026
H180	H	1.775194	0.192116	-0.133026
H181	H	1.275847	-0.955262	-0.237071
H182	H	1.775847	-0.455262	0.262929
H183	H	0.582648	-0.472419	-0.286940
H184	H	1.082648	0.027581	0.213060
H185	H	1.225617	-0.288957	-0.930671
H186	H	1.725617	0.211043	-0.430671
H187	H	0.686767	-0.472400	-0.286933
H188	H	1.186767	0.027600	0.213067
H189	H	0.993091	-0.955327	-0.519362
H190	H	1.493091	-0.455327	-0.019362
N191	N	0.846330	-0.485726	-0.273625
N192	N	1.346330	0.014274	0.226375
H193	H	0.807902	-0.517713	-0.241769
H194	H	1.307902	-0.017713	0.258231
H195	H	0.880349	-0.522343	-0.305506
H196	H	1.380349	-0.022343	0.194494
N197	N	1.029902	-0.670816	-0.482400
N198	N	1.529902	-0.170816	0.017600
H199	H	1.037491	-0.612256	-0.474778
H200	H	1.537491	-0.112256	0.025222
H201	H	1.042087	-0.685191	-0.538478
H202	H	1.542087	-0.185191	-0.038478
N203	N	1.238920	-0.275550	-1.090230
N204	N	1.738920	0.224450	-0.590230
H205	H	1.231307	-0.283200	-1.148381
H206	H	1.731307	0.216800	-0.648381
H207	H	1.226734	-0.219100	-1.075910
H208	H	1.726734	0.280900	-0.575910
H209	H	1.043338	-0.472345	-0.930601
H210	H	1.543338	0.027655	-0.430601
