data_functionalizedCrystal
_audit_creation_method	'MofGen! by Chris Wilmer'
_symmetry_space_group_name_H-M	'P1'
_symmetry_Int_Tables_number	1
_symmetry_cell_setting	triclinic
loop_
_symmetry_equiv_pos_as_xyz
  x,y,z
_cell_length_a	8.634740
_cell_length_b	14.044190
_cell_length_c	13.101039
_cell_angle_alpha	86.336293
_cell_angle_beta	93.880810
_cell_angle_gamma	96.881042
loop_
_atom_site_label
_atom_site_type_symbol
_atom_site_fract_x
_atom_site_fract_y
_atom_site_fract_z
O1	O	2.096989	0.308462	0.085250
O2	O	1.644426	0.282218	0.085249
O3	O	1.863907	0.156735	0.085229
O4	O	1.877508	0.433944	0.085270
O5	O	1.848162	0.165756	-0.085199
O6	O	1.628681	0.291238	-0.085180
O7	O	2.081244	0.317483	-0.085178
Zn8	Zn	1.852463	0.305793	-0.112238
Zn9	Zn	1.873208	0.293907	0.112309
O10	O	1.861763	0.442965	-0.085159
C11	C	1.578286	0.280783	0.000034
C12	C	1.404663	0.263056	0.000032
C13	C	1.850086	0.125388	0.000012
C14	C	1.832342	0.018542	0.000003
C15	C	1.925747	-0.223216	0.000043
C16	C	1.799931	-0.177078	0.000036
C17	C	1.817969	-0.068225	0.000018
C18	C	1.907712	-0.332079	0.000062
C19	C	2.147385	0.318917	0.000039
C20	C	2.321009	0.336644	0.000047
C21	C	1.875585	0.474312	0.000061
C22	C	1.893330	0.581158	0.000076
N23	N	1.838316	0.313904	-0.265486
C24	C	1.819071	0.324950	-0.474526
C25	C	1.906607	0.274747	-0.525410
C26	C	1.895898	0.280892	-0.641727
C27	C	1.829777	0.318805	-0.358198
N28	N	1.887366	0.285789	0.265556
H29	H	1.343452	0.186486	0.000050
H30	H	1.678670	-0.219328	0.000041
H31	H	2.046998	-0.180969	0.000033
O32	O	1.393846	0.428023	0.000195
C33	C	1.358280	0.471478	0.088485
H34	H	1.244373	0.433527	0.117913
H35	H	1.345000	0.550425	0.068648
H36	H	1.456705	0.465622	0.150286
H37	H	1.989592	0.227152	-0.481615
O38	O	1.720216	0.381720	-0.526922
C39	C	1.731390	0.375284	-0.633076
H40	H	1.849200	0.351402	-0.647589
H41	H	1.720533	0.448536	-0.673934
H42	H	1.633474	0.320712	-0.663543
