data_functionalizedCrystal
_audit_creation_method	'MofGen! by Chris Wilmer'
_symmetry_space_group_name_H-M	'P1'
_symmetry_Int_Tables_number	1
_symmetry_cell_setting	triclinic
loop_
_symmetry_equiv_pos_as_xyz
  x,y,z
_cell_length_a	19.121102
_cell_length_b	19.120785
_cell_length_c	16.959447
_cell_angle_alpha	92.474972
_cell_angle_beta	92.454289
_cell_angle_gamma	89.914030
loop_
_atom_site_label
_atom_site_type_symbol
_atom_site_fract_x
_atom_site_fract_y
_atom_site_fract_z
Zn1	Zn	1.059841	-0.324903	0.482124
Zn2	Zn	1.054763	-0.442155	0.344062
Zn3	Zn	0.942611	-0.319922	0.344578
Zn4	Zn	0.937574	-0.437101	0.470822
O5	O	0.998697	-0.381020	0.410397
O6	O	1.157272	-0.344656	0.468325
O7	O	1.039869	-0.425971	0.233517
O8	O	0.962396	-0.222474	0.367769
O9	O	1.153541	-0.430800	0.366891
O10	O	1.048524	-0.226133	0.468824
O11	O	0.957472	-0.336167	0.233896
O12	O	0.843838	-0.331267	0.356810
O13	O	0.953810	-0.422187	0.582934
O14	O	0.840137	-0.417358	0.449561
O15	O	1.043639	-0.339756	0.591238
O16	O	1.034984	-0.539594	0.355931
O17	O	0.948885	-0.535881	0.449061
C18	C	0.816550	-0.373224	0.402015
C19	C	0.738626	-0.369905	0.398447
C20	C	0.990856	-0.563177	0.401232
C21	C	0.987565	-0.641107	0.397340
C22	C	0.700105	-0.413237	0.444979
C23	C	0.626888	-0.410109	0.441631
C24	C	0.592192	-0.363654	0.391747
C25	C	0.630718	-0.320318	0.345214
C26	C	0.703934	-0.323442	0.348566
C27	C	0.371221	-0.351972	0.379216
C28	C	0.298000	-0.348852	0.375865
C29	C	0.294175	-0.438643	0.472284
C30	C	0.367393	-0.441766	0.475629
C31	C	0.405912	-0.398428	0.429099
C32	C	0.517352	-0.360458	0.388322
C33	C	0.480751	-0.401621	0.432529
C34	C	0.966690	-1.081771	0.372716
C35	C	0.969783	-1.008548	0.376372
C36	C	1.016141	-0.973781	0.430853
C37	C	1.059404	-1.012241	0.481686
C38	C	1.056307	-1.085463	0.478033
C39	C	1.027731	-0.752789	0.444520
C40	C	1.030827	-0.679562	0.448168
C41	C	0.941204	-0.675874	0.342855
C42	C	0.938114	-0.749098	0.339204
C43	C	0.981374	-0.787551	0.390039
C44	C	1.019306	-0.898934	0.434590
C45	C	0.978206	-0.862396	0.386306
C46	C	1.181556	-0.388848	0.418811
C47	C	1.259479	-0.392183	0.422397
C48	C	0.998729	-0.380964	0.616569
C49	C	0.998742	-0.380939	0.704428
C50	C	1.006588	-0.198153	0.419615
C51	C	1.009951	-0.120226	0.423544
C52	C	0.998708	-0.381028	0.205030
C53	C	0.998839	-0.380861	0.117189
C54	C	0.952059	-0.423787	1.071590
C55	C	1.045599	-0.337951	1.080232
C56	C	1.045580	-0.337965	0.997684
C57	C	0.998800	-0.380892	0.952086
C58	C	0.952040	-0.423804	0.989035
C59	C	1.092344	-0.295059	0.960729
C60	C	1.092328	-0.295071	0.878177
C61	C	1.045544	-0.337995	0.832577
C62	C	0.998781	-0.380908	0.869530
C63	C	0.952001	-0.423835	0.823932
C64	C	0.905235	-0.466745	0.860884
C65	C	0.905256	-0.466727	0.943434
C66	C	1.045522	-0.338013	0.750026
C67	C	0.951982	-0.423852	0.741376
H68	H	0.595527	-0.445395	0.479521
H69	H	1.068580	-0.651258	0.492535
H70	H	0.867150	-0.501699	0.823747
N71	N	0.518166	-0.451728	0.486330
H72	H	0.549781	-0.424576	0.525835
H73	H	0.547096	-0.485463	0.453840
N74	N	0.260565	-0.298755	0.322054
H75	H	0.275447	-0.249212	0.337518
H76	H	0.208350	-0.303431	0.327020
N77	N	0.854819	-0.513015	0.983276
H78	H	0.805196	-0.499982	0.967159
H79	H	0.861986	-0.506479	1.042482
H80	H	1.062965	-0.784090	0.485906
N81	N	0.888101	-0.786584	0.280447
H82	H	0.854311	-0.815577	0.309533
H83	H	0.915370	-0.818147	0.243647
N84	N	0.894538	-0.634403	0.288035
H85	H	0.904915	-0.647642	0.231433
H86	H	0.903551	-0.582754	0.298679
H87	H	1.083689	-0.303006	1.117363
N88	N	0.252624	-0.485377	0.522471
H89	H	0.265851	-0.475094	0.580096
H90	H	0.263223	-0.535982	0.508101
H91	H	1.083601	-0.303078	0.719943
H92	H	1.091530	-1.116772	0.519428
N93	N	1.109399	-0.974746	0.540456
H94	H	1.104798	-0.922524	0.535058
H95	H	1.158936	-0.989653	0.529868
H96	H	0.395637	-0.479597	0.516248
H97	H	0.940458	-0.890706	0.341951
H98	H	0.402575	-0.316687	0.341322
H99	H	0.913981	-0.458722	1.101680
N100	N	1.142801	-0.248766	1.009907
H101	H	1.135713	-0.255265	1.067809
H102	H	1.134049	-0.198230	0.997504
H103	H	1.057053	-0.870621	0.478948
H104	H	0.913882	-0.458802	0.704255
N105	N	0.593299	-0.270224	0.291393
H106	H	0.541071	-0.274826	0.296321
H107	H	0.605622	-0.281637	0.234968
N108	N	1.142766	-0.248789	0.838331
H109	H	1.134041	-0.198228	0.854731
H110	H	1.135633	-0.255366	0.779126
N111	N	0.737525	-0.463348	0.498778
H112	H	0.702009	-0.490322	0.527747
H113	H	0.769142	-0.436147	0.538235
H114	H	0.735297	-0.288153	0.310679
H115	H	0.934556	-0.977238	0.334985
H116	H	0.489094	-0.322635	0.347704
H117	H	0.928942	-1.110073	0.328350
