data_functionalizedCrystal
_audit_creation_method	'MofGen! by Chris Wilmer'
_symmetry_space_group_name_H-M	'P1'
_symmetry_Int_Tables_number	1
_symmetry_cell_setting	triclinic
loop_
_symmetry_equiv_pos_as_xyz
  x,y,z
_cell_length_a	18.101398
_cell_length_b	21.295417
_cell_length_c	18.101389
_cell_angle_alpha	90.022566
_cell_angle_beta	90.024327
_cell_angle_gamma	90.025773
loop_
_atom_site_label
_atom_site_type_symbol
_atom_site_fract_x
_atom_site_fract_y
_atom_site_fract_z
Zn1	Zn	1.132124	-0.250755	0.418817
Zn2	Zn	1.132021	-0.356008	0.294967
Zn3	Zn	1.008283	-0.250748	0.294979
Zn4	Zn	1.008235	-0.355981	0.418755
O5	O	1.070166	-0.303373	0.356880
O6	O	1.235743	-0.264731	0.402409
O7	O	1.115584	-0.342054	0.191335
O8	O	1.024774	-0.162660	0.311437
O9	O	1.235668	-0.342060	0.311417
O10	O	1.115759	-0.162664	0.402421
O11	O	1.024674	-0.264720	0.191344
O12	O	0.904644	-0.264694	0.311377
O13	O	1.024692	-0.342014	0.522397
O14	O	0.904609	-0.342008	0.402315
O15	O	1.115713	-0.264705	0.522442
O16	O	1.115538	-0.444094	0.311357
O17	O	1.024592	-0.444074	0.402304
C18	C	0.877755	-0.303348	0.356841
C19	C	0.795441	-0.303352	0.356842
C20	C	0.496350	-0.303391	0.356904
C21	C	0.527673	-0.254504	0.299967
C22	C	0.613291	-0.254635	0.299724
C23	C	0.644733	-0.303371	0.356873
C24	C	0.613615	-0.369679	0.335543
C25	C	0.527970	-0.369407	0.335147
C26	C	0.527965	-0.286547	0.435305
C27	C	0.613615	-0.285070	0.434877
C28	C	0.728592	-0.303364	0.356857
C29	C	0.412491	-0.303403	0.356919
C30	C	1.070069	-0.466925	0.356839
C31	C	1.070095	-0.536893	0.356846
C32	C	1.117492	-0.569749	0.309538
C33	C	1.117527	-0.635491	0.309555
C34	C	1.070151	-0.668375	0.356871
C35	C	1.022751	-0.635511	0.404188
C36	C	1.022722	-0.569770	0.404175
N37	N	1.005367	-0.771637	0.362504
N38	N	1.005396	-0.834089	0.362512
C39	C	1.070234	-0.866450	0.356914
N40	N	1.135044	-0.834001	0.351293
N41	N	1.135014	-0.771543	0.351282
C42	C	1.070177	-0.739661	0.356891
C43	C	1.117673	-0.970592	0.309622
C44	C	1.117709	-1.036335	0.309644
C45	C	1.022926	-1.036354	0.404273
C46	C	1.022897	-0.970612	0.404255
C47	C	1.070269	-0.937734	0.356925
C48	C	1.263328	-0.303399	0.356919
C49	C	1.345642	-0.303410	0.356935
C50	C	1.070209	-0.303357	0.550042
C51	C	1.070227	-0.303350	0.632356
C52	C	1.070283	-0.139183	0.356937
C53	C	1.070334	-0.069215	0.356961
C54	C	1.070166	-0.303344	0.164469
C55	C	1.070291	-0.303173	0.082155
C56	C	1.070270	-0.303232	0.931447
C57	C	1.012805	-0.351719	0.900093
C58	C	1.012960	-0.351944	0.814475
C59	C	1.070248	-0.303291	0.783064
C60	C	1.148274	-0.321303	0.814168
C61	C	1.147953	-0.321621	0.899813
C62	C	1.050388	-0.236626	0.899877
C63	C	1.048652	-0.237011	0.814226
C64	C	1.070240	-0.303323	0.699205
C65	C	1.070283	-0.303202	1.015306
H66	H	0.506124	-0.265512	0.242211
O67	O	0.971823	-1.071814	0.455304
H68	H	1.004957	-1.101729	0.493018
H69	H	1.156249	-0.943822	0.271085
H70	H	1.156310	-1.063086	0.271122
H71	H	1.165420	-0.369476	0.792722
O72	O	0.971760	-0.935177	0.455274
H73	H	1.004864	-0.905188	0.492989
O74	O	0.640406	-0.269380	0.222777
H75	H	0.674445	-0.229717	0.202183
O76	O	1.030285	-0.417367	0.787382
H77	H	1.085417	-0.431804	0.808159
O78	O	0.936328	-0.336993	0.786606
H79	H	0.898821	-0.329542	0.834301
O80	O	1.105826	-0.188774	0.926741
H81	H	1.133930	-0.167087	0.878599
H82	H	1.087452	-0.198968	0.792845
H83	H	0.954772	-0.340562	0.920680
H84	H	0.984178	-0.662290	0.442715
O85	O	1.206575	-0.276879	0.927332
H86	H	1.261440	-0.292182	0.906737
H87	H	0.984125	-0.543018	0.442700
O88	O	1.030020	-0.416711	0.928618
H89	H	1.041284	-0.448473	0.881318
H90	H	0.633980	-0.407079	0.375715
O91	O	1.168595	-0.534293	0.258497
H92	H	1.135461	-0.504385	0.220774
O93	O	0.641171	-0.189501	0.317410
H94	H	0.593481	-0.157624	0.326213
H95	H	0.507102	-0.205183	0.313191
H96	H	1.164808	-0.370312	0.919793
H97	H	1.156126	-0.662248	0.271032
O98	O	1.206519	-0.276001	0.787225
H99	H	1.248963	-0.302038	0.755308
H100	H	0.991232	-0.223428	0.793895
O101	O	0.976325	-0.214890	0.928452
H102	H	0.952858	-0.251323	0.965480
H103	H	0.507959	-0.383693	0.277832
H104	H	0.506392	-0.239037	0.454697
O105	O	0.500512	-0.419282	0.387685
H106	H	0.548408	-0.443493	0.413256
O107	O	0.640561	-0.220437	0.456193
H108	H	0.675972	-0.201423	0.411425
H109	H	0.635021	-0.318083	0.479573
O110	O	0.641968	-0.388935	0.260439
H111	H	0.678213	-0.351390	0.238184
H112	H	0.507709	-0.322155	0.477728
