data_functionalizedCrystal
_audit_creation_method	'MofGen! by Chris Wilmer'
_symmetry_space_group_name_H-M	'P1'
_symmetry_Int_Tables_number	1
_symmetry_cell_setting	triclinic
loop_
_symmetry_equiv_pos_as_xyz
  x,y,z
_cell_length_a	6.817900
_cell_length_b	16.418049
_cell_length_c	15.185107
_cell_angle_alpha	95.157010
_cell_angle_beta	104.257894
_cell_angle_gamma	103.389670
loop_
_atom_site_label
_atom_site_type_symbol
_atom_site_fract_x
_atom_site_fract_y
_atom_site_fract_z
V1	V	-4.034877	-0.116469	-0.283718
O2	O	-4.022697	0.004998	-0.277988
O3	O	-3.985895	-0.230362	-0.282094
O4	O	-3.990217	-0.114940	-0.407313
O5	O	-4.018344	-0.111223	-0.151903
V6	V	-4.518095	-0.101909	-0.267913
O7	O	-4.296803	-0.148407	-0.318387
O8	O	-4.706366	-0.069971	-0.233244
O9	O	-4.343871	0.011984	-0.269537
O10	O	-4.647672	-0.223376	-0.273643
O11	O	-4.652025	-0.107155	-0.399729
O12	O	-4.339548	-0.103438	-0.144319
C13	C	-3.830633	-0.258118	-0.277700
C14	C	-3.871896	-0.351229	-0.277196
C15	C	-4.149032	-0.569726	-0.280601
C16	C	-4.187791	-0.657214	-0.280136
C17	C	-3.823299	-0.648651	-0.271036
C18	C	-3.784545	-0.561166	-0.271508
C19	C	-3.947416	-0.521705	-0.276286
C20	C	-4.024930	-0.696679	-0.275349
C21	C	-4.066953	-0.791537	-0.274844
C22	C	-3.905391	-0.426840	-0.276792
C23	C	-3.836146	-0.110885	-0.437427
C24	C	-3.880912	-0.110389	-0.538469
C25	C	-4.110689	-0.184961	-0.978897
C26	C	-4.030076	-0.031495	-0.952475
C27	C	-3.987970	-0.031973	-0.857542
C28	C	-4.007224	-0.108947	-0.823283
C29	C	-4.068586	-0.185443	-0.883957
C30	C	-3.926626	0.044520	-0.796863
C31	C	-3.884518	0.044044	-0.701924
C32	C	-3.903758	-0.032931	-0.667663
C33	C	-3.965121	-0.109429	-0.728342
C34	C	-3.984376	-0.186403	-0.694083
C35	C	-4.045725	-0.262902	-0.754761
C36	C	-4.087826	-0.262417	-0.849695
C37	C	-3.861657	-0.033415	-0.572728
C38	C	-3.942273	-0.186884	-0.599142
C39	C	-4.162474	0.039736	-0.273928
C40	C	-4.100450	0.132846	-0.274438
C41	C	-4.156961	-0.107495	-0.114199
C42	C	-4.091434	-0.107987	-0.013157
H43	H	-3.690699	-0.680791	-0.267143
Br44	Br	-3.510908	-0.495989	-0.265660
Br45	Br	-3.801187	0.147863	-0.619582
H46	H	-3.957946	-0.249567	-0.571256
H47	H	-4.137781	-0.324698	-0.899107
H48	H	-3.811721	0.028869	-0.523329
Br49	Br	-4.071880	-0.367363	-0.708255
H50	H	-4.014417	0.031174	-0.980376
H51	H	-4.160631	-0.247244	-1.028305
Br52	Br	-3.900505	0.148978	-0.843362
H53	H	-4.351964	-0.696310	-0.283652
Br54	Br	-4.370073	-0.516175	-0.287093
