data_functionalizedCrystal
_audit_creation_method	'MofGen! by Chris Wilmer'
_symmetry_space_group_name_H-M	'P1'
_symmetry_Int_Tables_number	1
_symmetry_cell_setting	triclinic
loop_
_symmetry_equiv_pos_as_xyz
  x,y,z
_cell_length_a	18.101398
_cell_length_b	18.050590
_cell_length_c	18.101390
_cell_angle_alpha	89.966356
_cell_angle_beta	89.974845
_cell_angle_gamma	90.016283
loop_
_atom_site_label
_atom_site_type_symbol
_atom_site_fract_x
_atom_site_fract_y
_atom_site_fract_z
Zn1	Zn	1.132188	-0.295676	-0.418844
Zn2	Zn	1.632188	0.204324	0.081156
Zn3	Zn	1.132110	-0.419882	-0.295001
Zn4	Zn	1.632110	0.080118	0.204999
Zn5	Zn	1.008346	-0.295705	-0.295005
Zn6	Zn	1.508346	0.204295	0.204995
Zn7	Zn	1.008325	-0.419824	-0.418789
Zn8	Zn	1.508325	0.080176	0.081211
O9	O	1.070243	-0.357772	-0.356910
O10	O	1.570243	0.142228	0.143090
O11	O	1.235811	-0.312164	-0.402438
O12	O	1.735811	0.187836	0.097562
O13	O	1.115669	-0.403446	-0.191369
O14	O	1.615669	0.096554	0.308631
O15	O	1.024816	-0.191777	-0.311457
O16	O	1.524816	0.308223	0.188543
O17	O	1.235754	-0.403418	-0.311451
O18	O	1.735754	0.096582	0.188549
O19	O	1.115802	-0.191755	-0.402441
O20	O	1.615802	0.308245	0.097559
O21	O	1.024740	-0.312214	-0.191371
O22	O	1.524740	0.187786	0.308629
O23	O	0.904711	-0.312158	-0.311403
O24	O	1.404711	0.187842	0.188597
O25	O	1.024779	-0.403319	-0.522429
O26	O	1.524779	0.096681	-0.022429
O27	O	0.904695	-0.403347	-0.402347
O28	O	1.404695	0.096653	0.097653
O29	O	1.115781	-0.312108	-0.522470
O30	O	1.615781	0.187892	-0.022470
O31	O	1.115649	-0.523799	-0.311397
O32	O	1.615649	-0.023799	0.188603
O33	O	1.024704	-0.523756	-0.402344
O34	O	1.524704	-0.023756	0.097656
C35	C	0.877832	-0.357750	-0.356870
C36	C	1.377832	0.142250	0.143130
C37	C	0.795518	-0.357758	-0.356870
C38	C	1.295518	0.142242	0.143130
C39	C	1.070186	-0.550724	-0.356880
C40	C	1.570186	-0.050724	0.143120
C41	C	1.070229	-0.633269	-0.356892
C42	C	1.570229	-0.133269	0.143108
C43	C	0.644809	-0.357774	-0.356903
C44	C	1.144809	0.142226	0.143097
C45	C	0.613441	-0.300317	-0.299779
C46	C	1.113441	0.199683	0.200221
C47	C	0.527823	-0.300101	-0.299967
C48	C	1.027823	0.199899	0.200033
C49	C	0.496427	-0.357788	-0.356935
C50	C	0.996427	0.142212	0.143065
C51	C	0.527563	-0.336891	-0.435070
C52	C	1.027563	0.163109	0.064930
C53	C	0.613208	-0.336465	-0.434722
C54	C	1.113208	0.163535	0.065278
C55	C	0.613223	-0.436276	-0.336581
C56	C	1.113223	0.063724	0.163419
C57	C	0.527571	-0.435862	-0.334878
C58	C	1.027571	0.064138	0.165122
C59	C	0.412567	-0.357798	-0.356957
C60	C	0.912567	0.142202	0.143043
C61	C	0.728669	-0.357762	-0.356886
C62	C	1.228669	0.142238	0.143114
C63	C	1.119788	-0.832716	-0.307505
C64	C	1.619788	-0.332716	0.192495
C65	C	1.137877	-0.882043	-0.375097
C66	C	1.637877	-0.382043	0.124903
C67	C	1.070271	-0.784400	-0.356922
C68	C	1.570271	-0.284400	0.143078
C69	C	1.052257	-0.882154	-0.289361
C70	C	1.552257	-0.382154	0.210639
C71	C	1.070313	-0.930385	-0.356945
C72	C	1.570313	-0.430385	0.143055
C73	C	1.088396	-0.832640	-0.424549
C74	C	1.588396	-0.332640	0.075451
C75	C	1.002743	-0.832746	-0.338768
C76	C	1.502743	-0.332746	0.161232
C77	C	1.020807	-0.882051	-0.406406
C78	C	1.520807	-0.382051	0.093594
C79	C	1.070249	-0.700302	-0.356908
C80	C	1.570249	-0.200302	0.143092
C81	C	1.070335	-1.014481	-0.356966
C82	C	1.570335	-0.514481	0.143034
C83	C	1.263404	-0.357794	-0.356951
C84	C	1.763404	0.142206	0.143049
C85	C	1.345719	-0.357804	-0.356968
C86	C	1.845719	0.142196	0.143032
C87	C	1.070287	-0.357704	-0.550072
C88	C	1.570287	0.142296	-0.050072
C89	C	1.070305	-0.357675	-0.632386
C90	C	1.570305	0.142325	-0.132386
C91	C	1.070320	-0.164066	-0.356956
C92	C	1.570320	0.335934	0.143044
C93	C	1.070353	-0.081520	-0.356975
C94	C	1.570353	0.418480	0.143025
C95	C	1.070345	-0.357629	-0.931477
C96	C	1.570345	0.142371	-0.431477
C97	C	1.127790	-0.300443	-0.900178
C98	C	1.627790	0.199557	-0.400178
C99	C	1.127610	-0.300231	-0.814559
C100	C	1.627610	0.199769	-0.314559
C101	C	1.070326	-0.357652	-0.783094
C102	C	1.570326	0.142348	-0.283094
C103	C	0.992305	-0.336386	-0.814161
C104	C	1.492305	0.163614	-0.314161
C105	C	0.992649	-0.335957	-0.899806
C106	C	1.492649	0.164043	-0.399806
C107	C	1.090235	-0.436227	-0.899890
C108	C	1.590235	0.063773	-0.399890
C109	C	1.091947	-0.435826	-0.814240
C110	C	1.591947	0.064174	-0.314240
C111	C	1.070310	-0.357666	-0.699235
C112	C	1.570310	0.142334	-0.199235
C113	C	1.070356	-0.357613	-1.015337
C114	C	1.570356	0.142387	-0.515337
C115	C	1.070241	-0.357786	-0.164499
C116	C	1.570241	0.142214	0.335501
C117	C	1.070366	-0.357605	-0.082186
C118	C	1.570366	0.142395	0.417814
H119	H	0.506768	-0.313140	-0.242040
H120	H	1.006768	0.186860	0.257960
H121	H	0.634788	-0.455358	-0.280556
H122	H	1.134788	0.044642	0.219444
H123	H	0.945635	-0.811074	-0.323378
H124	H	1.445635	-0.311074	0.176622
H125	H	1.048399	-0.478836	-0.920136
H126	H	1.548399	0.021164	-0.420136
H127	H	1.103593	-0.810983	-0.481743
H128	H	1.603593	-0.310983	0.018257
H129	H	1.195002	-0.903699	-0.390466
H130	H	1.695002	-0.403699	0.109534
H131	H	0.507348	-0.241936	-0.313459
H132	H	1.007348	0.258064	0.186541
H133	H	1.037003	-0.903903	-0.232215
H134	H	1.537003	-0.403903	0.267785
H135	H	0.633984	-0.313207	-0.241660
H136	H	1.133984	0.186793	0.258340
H137	H	1.185465	-0.313549	-0.793557
H138	H	1.685465	0.186451	-0.293557
H139	H	0.633506	-0.479080	-0.378187
H140	H	1.133506	0.020920	0.121813
H141	H	0.978951	-0.903577	-0.448254
H142	H	1.478951	-0.403577	0.051746
H143	H	1.185833	-0.313596	-0.920785
H144	H	1.685833	0.186404	-0.420785
H145	H	1.114789	-0.242541	-0.921715
H146	H	1.614789	0.257459	-0.421715
H147	H	0.633200	-0.279092	-0.451899
H148	H	1.133200	0.220908	0.048101
H149	H	1.114444	-0.242004	-0.794086
H150	H	1.614444	0.257996	-0.294086
H151	H	0.975789	-0.278502	-0.919796
H152	H	1.475789	0.221498	-0.419796
H153	H	0.948391	-0.375796	-0.920509
H154	H	1.448391	0.124204	-0.420509
H155	H	0.507231	-0.377464	-0.478811
H156	H	1.007231	0.122536	0.021189
H157	H	1.146131	-0.455591	-0.921540
H158	H	1.646131	0.044409	-0.421540
H159	H	0.948342	-0.376754	-0.793777
H160	H	1.448342	0.123246	-0.293777
H161	H	0.975139	-0.279569	-0.792721
H162	H	1.475139	0.220431	-0.292721
H163	H	1.149364	-0.451862	-0.793936
H164	H	1.649364	0.048138	-0.293936
H165	H	1.053151	-0.480723	-0.792819
H166	H	1.553151	0.019277	-0.292819
H167	H	0.634976	-0.242478	-0.313098
H168	H	1.134976	0.257522	0.186902
H169	H	0.633963	-0.376511	-0.478757
H170	H	1.133963	0.123489	0.021243
H171	H	0.506130	-0.280152	-0.452550
H172	H	1.006130	0.219848	0.047450
H173	H	1.161676	-0.811053	-0.265758
H174	H	1.661676	-0.311053	0.234242
H175	H	0.507218	-0.451626	-0.277374
H176	H	1.007218	0.048374	0.222626
H177	H	0.506193	-0.480941	-0.373423
H178	H	1.006193	0.019059	0.126577
