data_functionalizedCrystal
_audit_creation_method	'MofGen! by Chris Wilmer'
_symmetry_space_group_name_H-M	'P1'
_symmetry_Int_Tables_number	1
_symmetry_cell_setting	triclinic
loop_
_symmetry_equiv_pos_as_xyz
  x,y,z
_cell_length_a	14.853567
_cell_length_b	14.853567
_cell_length_c	9.730217
_cell_angle_alpha	90.000542
_cell_angle_beta	90.001561
_cell_angle_gamma	83.634930
loop_
_atom_site_label
_atom_site_type_symbol
_atom_site_fract_x
_atom_site_fract_y
_atom_site_fract_z
O1	O	1.196361	0.117703	-0.114183
O2	O	0.933901	0.131724	-0.114205
O3	O	1.072142	-0.006516	-0.114198
O4	O	1.058120	0.255943	-0.114191
O5	O	1.072138	-0.006518	0.114382
O6	O	0.933897	0.131723	0.114375
O7	O	1.196357	0.117701	0.114397
Zn8	Zn	1.065126	0.124712	0.150678
Zn9	Zn	1.065132	0.124714	-0.150486
O10	O	1.058116	0.255942	0.114389
C11	C	0.900311	0.131088	0.000082
C12	C	0.800227	0.129184	0.000073
C13	C	0.387693	0.039019	0.000101
C14	C	0.366412	0.203251	0.000104
C15	C	0.460446	0.205042	0.000100
C16	C	0.518108	0.123819	0.000094
C17	C	0.481736	0.040806	0.000092
C18	C	0.496825	0.288053	0.000087
C19	C	0.590864	0.289846	0.000081
C20	C	0.648528	0.208623	0.000085
C21	C	0.612150	0.125607	0.000085
C22	C	0.669812	0.044384	0.000080
C23	C	0.633437	-0.038633	0.000090
C24	C	0.539399	-0.040417	0.000096
C25	C	0.742565	0.210407	0.000078
C26	C	0.763855	0.046172	0.000071
C27	C	1.071504	-0.040106	0.000088
C28	C	1.069601	-0.140189	0.000076
C29	C	0.979435	-0.552723	0.000095
C30	C	1.143668	-0.574004	0.000108
C31	C	1.145458	-0.479971	0.000100
C32	C	1.064235	-0.422309	0.000092
C33	C	0.981223	-0.458680	0.000091
C34	C	1.228469	-0.443591	0.000115
C35	C	1.230262	-0.349552	0.000109
C36	C	1.149039	-0.291889	0.000090
C37	C	1.066023	-0.328266	0.000088
C38	C	0.984800	-0.270604	0.000079
C39	C	0.901783	-0.306979	0.000067
C40	C	0.899999	-0.401017	0.000072
C41	C	1.150823	-0.197851	0.000085
C42	C	0.986588	-0.176561	0.000075
C43	C	1.229947	0.118337	0.000107
C44	C	1.330031	0.120241	0.000107
C45	C	1.058754	0.289531	0.000100
C46	C	1.060657	0.389615	0.000103
N47	N	1.065129	0.124710	0.356214
N48	N	1.065136	0.124708	-0.356023
C49	C	1.187591	0.002334	0.356212
C50	C	1.248828	-0.058852	0.428150
C51	C	1.248837	-0.058853	0.572030
C52	C	1.187601	0.002337	0.643974
C53	C	1.126364	0.063523	0.572036
C54	C	1.126363	0.063519	0.428153
C55	C	1.003899	0.185894	0.572039
C56	C	1.003893	0.185900	0.428159
C57	C	0.942663	0.247084	0.643983
C58	C	0.881429	0.308275	0.572045
C59	C	0.881423	0.308274	0.428156
C60	C	0.942656	0.247086	0.356220
H61	H	0.319459	0.269379	0.000097
H62	H	0.509774	-0.108005	0.000137
H63	H	0.772178	0.277998	0.000073
C64	C	0.696866	-0.127975	0.000071
H65	H	0.661740	-0.177673	0.000067
H66	H	0.734006	-0.130690	0.079770
H67	H	0.733979	-0.130682	-0.079662
H68	H	0.942669	0.247077	0.761138
H69	H	0.942660	0.247083	0.239066
H70	H	1.187605	0.002326	0.761129
C71	C	0.888123	-0.592731	0.000087
H72	H	0.898687	-0.656995	0.000097
H73	H	0.854676	-0.572945	-0.079624
H74	H	0.854679	-0.572946	0.079808
H75	H	0.831553	0.358095	0.369591
H76	H	1.218414	-0.168238	0.000104
C77	C	0.827276	-0.043175	0.000058
H78	H	0.792142	-0.092868	0.000053
H79	H	0.864414	-0.045895	0.079758
H80	H	0.864391	-0.045890	-0.079673
C81	C	0.812442	-0.243550	0.000059
H82	H	0.762743	-0.278676	0.000060
H83	H	0.809732	-0.206420	-0.079648
H84	H	0.809728	-0.206428	0.079784
H85	H	1.209795	-0.620958	0.000126
C86	C	0.347685	-0.052293	0.000106
H87	H	0.283422	-0.041730	0.000105
H88	H	0.367478	-0.085742	0.079811
H89	H	0.367464	-0.085736	-0.079620
C90	C	1.316192	-0.126154	0.651172
H91	H	1.307418	-0.117391	0.747164
H92	H	1.376367	-0.116251	0.627592
H93	H	1.306327	-0.186347	0.627599
C94	C	0.897244	-0.113136	0.000059
H95	H	0.910195	-0.051920	0.000051
H96	H	0.863203	-0.124174	0.079762
H97	H	0.863219	-0.124177	-0.079670
C98	C	1.317805	-0.507017	0.000134
H99	H	1.304848	-0.568232	0.000121
H100	H	1.351834	-0.495980	0.079851
H101	H	1.351843	-0.495982	-0.079580
H102	H	1.297860	-0.319944	0.000117
C103	C	0.433399	0.377388	0.000099
H104	H	0.372185	0.364432	0.000125
H105	H	0.444425	0.411426	-0.079612
H106	H	0.444445	0.411418	0.079820
C107	C	0.630869	0.381159	0.000089
H108	H	0.583059	0.429274	0.000104
H109	H	0.667112	0.385276	-0.079618
H110	H	0.667109	0.385265	0.079814
H111	H	0.831571	0.358088	0.630631
H112	H	0.832411	-0.430643	0.000064
C113	C	1.187587	0.002342	0.197948
H114	H	1.142351	0.047550	0.165409
H115	H	1.175191	-0.055303	0.165390
H116	H	1.245220	0.014804	0.165407
H117	H	1.298684	-0.108674	0.369560
