data_functionalizedCrystal
_audit_creation_method	'MofGen! by Chris Wilmer'
_symmetry_space_group_name_H-M	'P1'
_symmetry_Int_Tables_number	1
_symmetry_cell_setting	triclinic
loop_
_symmetry_equiv_pos_as_xyz
  x,y,z
_cell_length_a	11.169417
_cell_length_b	19.121063
_cell_length_c	11.169409
_cell_angle_alpha	87.599247
_cell_angle_beta	90.019824
_cell_angle_gamma	92.469728
loop_
_atom_site_label
_atom_site_type_symbol
_atom_site_fract_x
_atom_site_fract_y
_atom_site_fract_z
Zn1	Zn	1.814442	-0.279539	0.698851
Zn2	Zn	1.805707	-0.397012	0.506702
Zn3	Zn	1.613724	-0.279582	0.498188
Zn4	Zn	1.605116	-0.396955	0.707343
O5	O	1.709747	-0.338272	0.602771
O6	O	1.981232	-0.295128	0.673371
O7	O	1.780188	-0.381477	0.337626
O8	O	1.647608	-0.181292	0.517690
O9	O	1.974815	-0.381435	0.532200
O10	O	1.795074	-0.181261	0.665116
O11	O	1.639139	-0.295201	0.331371
O12	O	1.444633	-0.295146	0.525924
O13	O	1.632936	-0.381338	0.874163
O14	O	1.438308	-0.381379	0.679589
O15	O	1.786727	-0.295073	0.867924
O16	O	1.771840	-0.495289	0.540435
O17	O	1.624466	-0.495247	0.687844
C18	C	1.397923	-0.338261	0.602755
C19	C	1.264522	-0.338274	0.602778
C20	C	1.696304	-0.520752	0.616011
C21	C	1.690663	-0.598817	0.621715
C22	C	1.764802	-0.635491	0.547710
C23	C	1.759503	-0.708842	0.553082
C24	C	1.680059	-0.745518	0.632454
C25	C	1.605917	-0.708838	0.706467
C26	C	1.611222	-0.635489	0.701100
C27	C	1.660204	-0.966986	0.652499
C28	C	1.654902	-1.040340	0.657858
C29	C	1.808490	-1.040339	0.504474
C30	C	1.813784	-0.966988	0.499110
C31	C	1.739646	-0.930315	0.573127
C32	C	1.674638	-0.820494	0.637944
C33	C	1.745073	-0.855340	0.567642
C34	C	2.022789	-0.338283	0.602788
C35	C	2.156188	-0.338288	0.602795
C36	C	1.709845	-0.338194	0.915808
C37	C	1.709887	-0.338161	1.049206
C38	C	1.723276	-0.155080	0.589506
C39	C	1.729041	-0.077014	0.583853
C40	C	1.709722	-0.338299	0.290948
C41	C	1.709928	-0.338134	0.157537
H42	H	1.829489	-0.605635	0.483072
H43	H	1.599836	-0.937133	0.712765
F44	F	1.829626	-0.816306	0.483177
H45	H	1.590223	-1.070200	0.722513
H46	H	1.541236	-0.738706	0.771098
H47	H	1.609952	-0.850363	0.702566
F48	F	1.887393	-1.079374	0.425711
H49	H	1.550852	-0.605630	0.761364
H50	H	1.819874	-0.738699	0.492818
H51	H	1.878474	-0.937128	0.434479
