data_functionalizedCrystal
_audit_creation_method	'MofGen! by Chris Wilmer'
_symmetry_space_group_name_H-M	'P1'
_symmetry_Int_Tables_number	1
_symmetry_cell_setting	triclinic
loop_
_symmetry_equiv_pos_as_xyz
  x,y,z
_cell_length_a	11.792254
_cell_length_b	13.596369
_cell_length_c	11.792241
_cell_angle_alpha	89.999002
_cell_angle_beta	95.803993
_cell_angle_gamma	90.005263
loop_
_atom_site_label
_atom_site_type_symbol
_atom_site_fract_x
_atom_site_fract_y
_atom_site_fract_z
O1	O	1.506901	0.081779	-0.155638
O2	O	1.840235	0.415112	0.177695
O3	O	2.173568	0.748446	0.511028
O4	O	1.176562	0.081780	-0.171656
O5	O	1.509895	0.415113	0.161677
O6	O	1.843229	0.748447	0.495011
O7	O	1.349748	0.081785	0.001523
O8	O	1.683081	0.415119	0.334856
O9	O	2.016415	0.748452	0.668190
O10	O	1.333715	0.081774	-0.328817
O11	O	1.667049	0.415107	0.004516
O12	O	2.000382	0.748440	0.337849
O13	O	1.349731	-0.081798	0.001532
O14	O	1.683064	0.251536	0.334866
O15	O	2.016397	0.584869	0.668199
O16	O	1.176545	-0.081803	-0.171647
O17	O	1.509878	0.251530	0.161687
O18	O	1.843211	0.584864	0.495020
O19	O	1.506884	-0.081804	-0.155629
O20	O	1.840217	0.251529	0.177704
O21	O	2.173551	0.584863	0.511038
Zn22	Zn	1.341712	-0.107776	-0.163636
Zn23	Zn	1.675045	0.225557	0.169697
Zn24	Zn	2.008378	0.558891	0.503030
Zn25	Zn	1.341735	0.107752	-0.163649
Zn26	Zn	1.675068	0.441085	0.169685
Zn27	Zn	2.008401	0.774418	0.503018
O28	O	1.333698	-0.081809	-0.328808
O29	O	1.667031	0.251524	0.004525
O30	O	2.000365	0.584857	0.337859
C31	C	1.134263	-0.000011	-0.170642
C32	C	1.467596	0.333322	0.162691
C33	C	1.800929	0.666655	0.496024
C34	C	1.008250	-0.000010	-0.167622
C35	C	1.341583	0.333323	0.165711
C36	C	1.674916	0.666656	0.499044
C37	C	0.905913	-0.000006	-0.165168
C38	C	1.239247	0.333327	0.168165
C39	C	1.572580	0.666661	0.501498
C40	C	0.777527	-0.000005	-0.162100
C41	C	1.110860	0.333328	0.171233
C42	C	1.444193	0.666661	0.504567
N43	N	1.341704	-0.254868	-0.163627
N44	N	1.675038	0.078466	0.169706
N45	N	2.008371	0.411799	0.503039
C46	C	1.341733	-0.656159	-0.163650
C47	C	1.675066	-0.322825	0.169683
C48	C	2.008400	0.010508	0.503017
C49	C	1.341722	-0.544507	-0.163647
C50	C	1.675055	-0.211174	0.169686
C51	C	2.008388	0.122159	0.503019
C52	C	1.341719	-0.455517	-0.163639
C53	C	1.675053	-0.122183	0.169694
C54	C	2.008386	0.211150	0.503027
C55	C	1.341707	-0.343858	-0.163635
C56	C	1.675040	-0.010525	0.169698
C57	C	2.008373	0.322808	0.503031
C58	C	1.549183	-0.000011	-0.156643
C59	C	1.882517	0.333323	0.176691
C60	C	2.215850	0.666656	0.510024
C61	C	1.675196	-0.000005	-0.159663
C62	C	2.008530	0.333328	0.173671
C63	C	2.341863	0.666662	0.507004
C64	C	1.334714	-0.000019	-0.371104
C65	C	1.668047	0.333314	-0.037770
C66	C	2.001380	0.666647	0.295563
C67	C	1.337728	-0.000024	-0.497118
C68	C	1.671061	0.333310	-0.163784
C69	C	2.004395	0.666643	0.169549
N70	N	1.341751	0.254844	-0.163649
N71	N	1.675084	0.588177	0.169685
N72	N	2.008417	0.921510	0.503018
C73	C	1.343271	0.000001	-0.727830
C74	C	1.676604	0.333334	-0.394497
C75	C	2.009938	0.666668	-0.061163
C76	C	1.340191	-0.000013	-0.599445
C77	C	1.673525	0.333321	-0.266111
C78	C	2.006858	0.666654	0.067222
C79	C	1.348732	-0.000003	0.043819
C80	C	1.682066	0.333331	0.377152
C81	C	2.015399	0.666664	0.710485
C82	C	1.345718	0.000008	0.169832
C83	C	1.679051	0.333342	0.503166
C84	C	2.012385	0.666675	0.836499
