data_functionalizedCrystal
_audit_creation_method	'MofGen! by Chris Wilmer'
_symmetry_space_group_name_H-M	'P1'
_symmetry_Int_Tables_number	1
_symmetry_cell_setting	triclinic
loop_
_symmetry_equiv_pos_as_xyz
  x,y,z
_cell_length_a	6.817900
_cell_length_b	19.551823
_cell_length_c	11.102193
_cell_angle_alpha	94.524979
_cell_angle_beta	108.604059
_cell_angle_gamma	101.663376
loop_
_atom_site_label
_atom_site_type_symbol
_atom_site_fract_x
_atom_site_fract_y
_atom_site_fract_z
V1	V	-4.076511	-0.096680	-0.396852
O2	O	-4.072228	0.004641	-0.388686
O3	O	-4.018888	-0.191695	-0.394726
O4	O	-4.053823	-0.095195	-0.569664
O5	O	-4.037050	-0.092527	-0.212536
V6	V	-4.558003	-0.084561	-0.374735
O7	O	-4.342226	-0.123265	-0.445367
O8	O	-4.742485	-0.057976	-0.326219
O9	O	-4.392420	0.010455	-0.376861
O10	O	-4.679683	-0.185881	-0.382901
O11	O	-4.714860	-0.088713	-0.559050
O12	O	-4.357484	-0.086045	-0.201922
C13	C	-3.860813	-0.214858	-0.388617
C14	C	-3.895157	-0.292534	-0.388030
C15	C	-4.094003	-0.332580	-0.394110
C16	C	-4.126280	-0.405566	-0.393572
C17	C	-3.959686	-0.438501	-0.386928
C18	C	-3.760816	-0.398446	-0.380855
C19	C	-3.728551	-0.325463	-0.381406
C20	C	-3.834467	-0.544988	-0.306338
C21	C	-3.866735	-0.617969	-0.305779
C22	C	-4.059196	-0.663607	-0.385234
C23	C	-4.219412	-0.636253	-0.465232
C24	C	-4.187147	-0.563269	-0.465783
C25	C	-3.994652	-0.517639	-0.386331
C26	C	-4.293054	-0.782793	-0.390733
C27	C	-4.325327	-0.855781	-0.390203
C28	C	-3.959851	-0.848659	-0.377472
C29	C	-3.927590	-0.775674	-0.378016
C30	C	-4.094196	-0.742744	-0.384640
C31	C	-3.905375	-0.091761	-0.611767
C32	C	-3.968047	-0.091176	-0.753046
C33	C	-4.042041	-0.219156	-0.790159
C34	C	-4.108473	-0.282867	-0.875087
C35	C	-4.167360	-0.282314	-1.007829
C36	C	-4.159817	-0.218041	-1.055646
C37	C	-4.093385	-0.154329	-0.970718
C38	C	-4.034495	-0.154890	-0.837974
C39	C	-4.019407	-0.026351	-0.933605
C40	C	-3.960505	-0.026903	-0.800862
C41	C	-4.011865	0.037921	-0.981421
C42	C	-3.945417	0.101635	-0.896493
C43	C	-3.886526	0.101079	-0.763743
C44	C	-3.894073	0.036809	-0.715934
C45	C	-4.213836	0.033613	-0.382966
C46	C	-4.158731	0.111289	-0.383561
C47	C	-4.169273	-0.089481	-0.159813
C48	C	-4.085839	-0.090063	-0.018533
H49	H	-4.428713	-0.755980	-0.396125
O50	O	-4.539804	-0.898978	-0.396751
H51	H	-4.650216	-0.863815	-0.401435
H52	H	-3.939297	0.153960	-0.935437
O53	O	-4.116610	-0.352189	-0.823516
H54	H	-4.009013	-0.380154	-0.853050
O55	O	-3.978505	-0.219750	-0.646986
H56	H	-3.994915	-0.275144	-0.628004
O57	O	-4.273718	-0.297066	-0.401316
H58	H	-4.417428	-0.337182	-0.405481
H59	H	-4.221457	-0.334193	-1.076979
O60	O	-3.780154	-0.884170	-0.370308
H61	H	-3.835989	-0.941648	-0.370941
H62	H	-3.765665	-0.743067	-0.373056
O63	O	-4.359924	-0.533763	-0.552067
H64	H	-4.298204	-0.504950	-0.619760
H65	H	-4.207796	-0.217596	-1.163734
O66	O	-4.340753	-0.448771	-0.400113
H67	H	-4.451176	-0.413610	-0.404802
O68	O	-3.814842	0.169799	-0.672144
H69	H	-3.922881	0.170003	-0.615628
H70	H	-4.059832	0.038368	-1.089509
O71	O	-3.830551	0.036211	-0.572762
H72	H	-3.846970	-0.019184	-0.553786
O73	O	-4.427014	-0.685462	-0.550944
H74	H	-4.394727	-0.723148	-0.618164
O75	O	-3.693937	-0.647473	-0.219510
H76	H	-3.554668	-0.603480	-0.164375
O77	O	-3.514070	-0.282266	-0.374852
H78	H	-3.448344	-0.241380	-0.287732
O79	O	-3.626876	-0.495762	-0.220638
H80	H	-3.603955	-0.501375	-0.118658
O81	O	-3.581125	-0.433963	-0.373695
H82	H	-3.636961	-0.491441	-0.374322
