data_functionalizedCrystal
_audit_creation_method	'MofGen! by Chris Wilmer'
_symmetry_space_group_name_H-M	'P1'
_symmetry_Int_Tables_number	1
_symmetry_cell_setting	triclinic
loop_
_symmetry_equiv_pos_as_xyz
  x,y,z
_cell_length_a	16.109295
_cell_length_b	10.065875
_cell_length_c	16.109301
_cell_angle_alpha	81.214708
_cell_angle_beta	96.539666
_cell_angle_gamma	81.258551
loop_
_atom_site_label
_atom_site_type_symbol
_atom_site_fract_x
_atom_site_fract_y
_atom_site_fract_z
O1	O	-1.115293	0.113403	0.094630
O2	O	-0.873233	0.113427	0.107932
O3	O	-1.000911	0.113400	-0.019749
O4	O	-0.987615	0.113430	0.222311
O5	O	-0.976565	-0.113583	0.004696
O6	O	-0.848886	-0.113557	0.132376
O7	O	-1.090947	-0.113581	0.119075
Zn8	Zn	-0.966051	-0.149607	0.129607
Zn9	Zn	-0.998129	0.149454	0.097400
O10	O	-0.963268	-0.113554	0.246755
C11	C	-0.830085	-0.000062	0.119616
C12	C	-0.737790	-0.000054	0.118002
C13	C	-0.515517	-0.000059	0.190014
C14	C	-0.428795	-0.000068	0.188493
C15	C	-0.448668	-0.000080	0.037005
C16	C	-0.535387	-0.000082	0.038528
C17	C	-0.568810	-0.000064	0.115035
C18	C	-0.395369	-0.000071	0.111990
C19	C	-0.301342	-0.000080	0.110340
C20	C	-0.662842	-0.000058	0.116686
N21	N	-0.944165	-0.353708	0.151586
C22	C	-0.990508	-0.421497	0.105042
C23	C	-0.973671	-0.578660	0.121965
C24	C	-0.134094	-0.000087	0.107395
C25	C	-0.226388	-0.000082	0.109023
C26	C	-0.988199	-0.000092	-0.038501
C27	C	-0.986584	-0.000094	-0.130796
N28	N	-1.020021	0.353555	0.075414
C29	C	-1.058593	-0.000079	-0.353072
C30	C	-1.057070	-0.000068	-0.439793
C31	C	-0.905582	-0.000058	-0.419917
C32	C	-0.907107	-0.000060	-0.333198
C33	C	-0.983614	-0.000077	-0.299777
C34	C	-0.980567	-0.000064	-0.473218
C35	C	-0.978915	-0.000052	-0.567245
C36	C	-0.985267	-0.000087	-0.205744
C37	C	-0.975981	-0.000059	0.265507
C38	C	-0.977597	-0.000048	0.357801
H39	H	-0.578780	-0.000090	-0.022532
H40	H	-1.120891	-0.000090	-0.325864
C41	C	-1.206958	-0.000098	-0.450721
C42	C	-1.139489	-0.000079	-0.498374
H43	H	-1.257841	-0.000112	-0.486887
H44	H	-1.212893	0.079050	-0.425005
H45	H	-1.195903	-0.079260	-0.407962
H46	H	-1.150542	0.079088	-0.541129
H47	H	-1.133555	-0.079235	-0.524103
C48	C	-0.825101	-0.622953	0.175875
C49	C	-0.903273	-0.657369	0.192674
H50	H	-0.781642	-0.671554	0.219525
H51	H	-0.827186	-0.527675	0.173786
H52	H	-0.813455	-0.646315	0.122925
H53	H	-0.914922	-0.633998	0.245622
H54	H	-0.901189	-0.752669	0.194772
C55	C	-0.835978	-0.000069	-0.544024
C56	C	-0.821486	-0.000059	-0.456654
H57	H	-0.784057	-0.000082	-0.566699
H58	H	-0.875329	0.079081	-0.570836
H59	H	-0.858364	-0.079229	-0.553788
H60	H	-0.799106	0.079106	-0.446891
H61	H	-0.782121	-0.079217	-0.429834
H62	H	-0.846047	-0.000054	-0.289803
C63	C	-1.043731	-0.377154	-0.043707
C64	C	-1.060903	-0.342748	0.034347
H65	H	-1.087190	-0.328522	-0.087347
H66	H	-1.041671	-0.472426	-0.041627
H67	H	-0.990689	-0.353824	-0.055088
H68	H	-1.113943	-0.366087	0.045731
H69	H	-1.062972	-0.247455	0.032269
H70	H	-0.385407	-0.000067	0.249549
C71	C	-1.073078	-0.602560	-0.073330
C72	C	-1.090396	-0.567910	0.004627
H73	H	-1.116516	-0.554118	-0.117051
H74	H	-1.070933	-0.697872	-0.071131
H75	H	-1.020043	-0.579166	-0.084685
H76	H	-1.143428	-0.591313	0.015985
H77	H	-1.092550	-0.472576	0.002429
C78	C	-0.795599	-0.398006	0.205493
C79	C	-0.873771	-0.432422	0.222293
H80	H	-0.752139	-0.446607	0.249143
H81	H	-0.797683	-0.302728	0.203404
H82	H	-0.783952	-0.421368	0.152543
H83	H	-0.885420	-0.409051	0.275240
H84	H	-0.871687	-0.527722	0.224391
H85	H	-0.542725	-0.000055	0.252312
H86	H	-0.421444	-0.000103	-0.025283
