data_functionalizedCrystal
_audit_creation_method	'MofGen! by Chris Wilmer'
_symmetry_space_group_name_H-M	'P1'
_symmetry_Int_Tables_number	1
_symmetry_cell_setting	triclinic
loop_
_symmetry_equiv_pos_as_xyz
  x,y,z
_cell_length_a	6.817900
_cell_length_b	7.190339
_cell_length_c	12.908943
_cell_angle_alpha	88.323418
_cell_angle_beta	79.139369
_cell_angle_gamma	119.388276
loop_
_atom_site_label
_atom_site_type_symbol
_atom_site_fract_x
_atom_site_fract_y
_atom_site_fract_z
V1	V	4.082639	0.292438	-0.327943
O2	O	3.979347	-0.016792	-0.322468
O3	O	4.120084	0.582491	-0.324963
O4	O	4.019231	0.286738	-0.471307
O5	O	4.080898	0.281008	-0.175110
V6	V	4.557088	0.255593	-0.309753
O7	O	4.363802	0.373262	-0.367846
O8	O	4.726123	0.174769	-0.269851
O9	O	4.296436	-0.034460	-0.312733
O10	O	4.777777	0.564824	-0.315229
O11	O	4.676226	0.267023	-0.462586
O12	O	4.397289	0.261293	-0.166389
C13	C	3.857805	0.275972	-0.506275
C14	C	3.887813	0.273231	-0.623471
C15	C	3.986471	0.653240	-0.319604
C16	C	4.100375	0.894811	-0.318098
C17	C	4.313718	0.289245	-0.854377
C18	C	4.341924	0.286670	-0.964493
C19	C	3.972426	0.265491	-0.953821
C20	C	3.944220	0.268066	-0.843704
C21	C	4.114876	0.279946	-0.793987
C22	C	4.086675	0.282537	-0.683869
C23	C	3.717172	0.261342	-0.673198
C24	C	3.745378	0.258767	-0.783314
C25	C	4.222061	0.272066	-0.131416
C26	C	4.171287	0.274797	-0.014219
H27	H	4.225638	0.292219	-0.643392
O28	O	4.535315	0.296107	-1.023143
C29	C	4.951477	0.498906	-1.079749
C30	C	4.732641	0.488514	-1.013303
H31	H	5.111074	0.654432	-1.071799
H32	H	4.942518	0.495175	-1.167019
H33	H	4.962844	0.354700	-1.049559
H34	H	4.721137	0.632691	-1.043401
H35	H	4.741693	0.492141	-0.926044
O36	O	3.806689	0.253657	-1.002228
C37	C	3.532311	0.052838	-1.106472
C38	C	3.720000	0.066003	-1.051716
H39	H	3.462134	-0.098891	-1.146477
H40	H	3.610314	0.200854	-1.169010
H41	H	3.385411	0.046740	-1.044391
H42	H	3.866959	0.072033	-1.113719
H43	H	3.641822	-0.082010	-0.989158
O44	O	3.524283	0.252741	-0.614487
C45	C	3.369925	0.429291	-0.498007
C46	C	3.588520	0.439177	-0.564403
H47	H	3.421779	0.580026	-0.457514
H48	H	3.273230	0.280262	-0.434901
H49	H	3.252904	0.420321	-0.552520
H50	H	3.705714	0.448228	-0.509974
H51	H	3.685034	0.588182	-0.627518
H52	H	3.606438	0.249087	-0.823809
H53	H	4.452685	0.298942	-0.813898
