data_functionalizedCrystal
_audit_creation_method	'MofGen! by Chris Wilmer'
_symmetry_space_group_name_H-M	'P1'
_symmetry_Int_Tables_number	1
_symmetry_cell_setting	triclinic
loop_
_symmetry_equiv_pos_as_xyz
  x,y,z
_cell_length_a	18.215407
_cell_length_b	12.759394
_cell_length_c	18.215407
_cell_angle_alpha	90.010676
_cell_angle_beta	90.006572
_cell_angle_gamma	90.012280
loop_
_atom_site_label
_atom_site_type_symbol
_atom_site_fract_x
_atom_site_fract_y
_atom_site_fract_z
Zn1	Zn	1.125045	-0.418500	0.416081
Zn2	Zn	1.458378	-0.085167	0.749414
Zn3	Zn	1.791712	0.248166	1.082748
Zn4	Zn	1.124998	-0.594153	0.293020
Zn5	Zn	1.458331	-0.260820	0.626354
Zn6	Zn	1.791665	0.072514	0.959687
Zn7	Zn	1.002001	-0.418481	0.293034
Zn8	Zn	1.335334	-0.085147	0.626367
Zn9	Zn	1.668667	0.248186	0.959700
Zn10	Zn	1.001965	-0.594130	0.416051
Zn11	Zn	1.335298	-0.260797	0.749384
Zn12	Zn	1.668632	0.072537	1.082717
O13	O	1.063502	-0.506316	0.354546
O14	O	1.396835	-0.172983	0.687880
O15	O	1.730169	0.160351	1.021213
O16	O	1.228023	-0.441819	0.399764
O17	O	1.561356	-0.108486	0.733097
O18	O	1.894690	0.224848	1.066430
O19	O	1.108678	-0.570851	0.190038
O20	O	1.442011	-0.237518	0.523371
O21	O	1.775344	0.095816	0.856705
O22	O	1.018357	-0.271462	0.309374
O23	O	1.351691	0.061871	0.642708
O24	O	1.685024	0.395204	0.976041
O25	O	1.227989	-0.570870	0.309352
O26	O	1.561322	-0.237537	0.642685
O27	O	1.894655	0.095797	0.976018
O28	O	1.108757	-0.271477	0.399777
O29	O	1.442091	0.061857	0.733110
O30	O	1.775424	0.395190	1.066443
O31	O	1.018312	-0.441785	0.190048
O32	O	1.351645	-0.108452	0.523381
O33	O	1.684979	0.224881	0.856714
O34	O	0.899012	-0.441763	0.309345
O35	O	1.232345	-0.108430	0.642678
O36	O	1.565678	0.224903	0.976012
O37	O	1.018296	-0.570831	0.519039
O38	O	1.351630	-0.237498	0.852372
O39	O	1.684963	0.095836	1.185705
O40	O	0.898985	-0.570812	0.399725
O41	O	1.232319	-0.237479	0.733058
O42	O	1.565652	0.095855	1.066392
O43	O	1.108723	-0.441797	0.519061
O44	O	1.442056	-0.108463	0.852394
O45	O	1.775389	0.224870	1.185728
O46	O	1.108643	-0.741171	0.309322
O47	O	1.441976	-0.407838	0.642656
O48	O	1.775310	-0.074504	0.975989
O49	O	1.018251	-0.741154	0.399712
O50	O	1.351584	-0.407821	0.733045
O51	O	1.684918	-0.074488	1.066379
C52	C	0.872296	-0.506284	0.354533
C53	C	1.205629	-0.172950	0.687867
C54	C	1.538963	0.160383	1.021200
C55	C	0.790497	-0.506295	0.354545
C56	C	1.123830	-0.172962	0.687879
C57	C	1.457164	0.160371	1.021212
C58	C	0.602320	-0.439237	0.401697
C59	C	0.935653	-0.105903	0.735031
C60	C	1.268987	0.227430	1.068364
C61	C	0.525461	-0.439246	0.401700
C62	C	0.858795	-0.105912	0.735033
C63	C	1.192128	0.227421	1.068366
C64	C	0.525436	-0.573425	0.307408
C65	C	0.858770	-0.240092	0.640742
C66	C	1.192103	0.093242	0.974075
C67	C	0.602294	-0.573410	0.307403
C68	C	0.935627	-0.240077	0.640736
C69	C	1.268960	0.093257	0.974069
C70	C	0.640733	-0.506317	0.354551
C71	C	0.974067	-0.172984	0.687885
C72	C	1.307400	0.160349	1.021218
C73	C	0.487017	-0.506341	0.354559
C74	C	0.820351	-0.173008	0.687893
C75	C	1.153684	0.160325	1.021226
C76	C	0.403684	-0.506352	0.354562
C77	C	0.737017	-0.173018	0.687895
C78	C	1.070350	0.160315	1.021228
C79	C	0.724072	-0.506305	0.354548
C80	C	1.057406	-0.172972	0.687882
C81	C	1.390739	0.160361	1.021215
C82	C	1.063458	-0.779284	0.354529
C83	C	1.396791	-0.445950	0.687862
C84	C	1.730125	-0.112617	1.021195
C85	C	1.063506	-0.896060	0.354546
C86	C	1.396840	-0.562727	0.687879
C87	C	1.730173	-0.229394	1.021212
C88	C	1.157702	-0.896024	0.260493
C89	C	1.491035	-0.562691	0.593827
C90	C	1.824369	-0.229358	0.927160
C91	C	1.204819	-0.950867	0.213476
C92	C	1.538152	-0.617534	0.546809
C93	C	1.871486	-0.284201	0.880142
C94	C	1.204862	-1.060589	0.213496
C95	C	1.538196	-0.727256	0.546829
C96	C	1.871529	-0.393922	0.880162
C97	C	1.157785	-1.115470	0.260540
C98	C	1.491118	-0.782137	0.593873
C99	C	1.824452	-0.448803	0.927207
C100	C	1.110668	-1.060627	0.307557
C101	C	1.444001	-0.727294	0.640891
C102	C	1.777334	-0.393961	0.974224
C103	C	1.110628	-0.950903	0.307531
C104	C	1.443962	-0.617570	0.640864
C105	C	1.777295	-0.284236	0.974197
C106	C	1.016477	-1.060663	0.401612
C107	C	1.349810	-0.727330	0.734946
C108	C	1.683144	-0.393996	1.068279
C109	C	1.016429	-0.950941	0.401590
C110	C	1.349762	-0.617608	0.734923
C111	C	1.683096	-0.284275	1.068256
C112	C	0.969400	-1.115544	0.448656
C113	C	1.302733	-0.782211	0.781990
C114	C	1.636066	-0.448878	1.115323
C115	C	0.922278	-1.060701	0.495671
C116	C	1.255611	-0.727368	0.829005
C117	C	1.588944	-0.394035	1.162338
C118	C	0.922236	-0.950973	0.495649
C119	C	1.255569	-0.617640	0.828982
C120	C	1.588903	-0.284306	1.162315
C121	C	0.969312	-0.896099	0.448607
C122	C	1.302645	-0.562765	0.781941
C123	C	1.635979	-0.229432	1.115274
C124	C	1.255455	-0.506349	0.354560
C125	C	1.588788	-0.173016	0.687893
C126	C	1.922122	0.160317	1.021226
C127	C	1.337254	-0.506363	0.354565
C128	C	1.670587	-0.173030	0.687899
C129	C	2.003921	0.160303	1.021232
C130	C	1.063511	-0.506313	0.546499
C131	C	1.396844	-0.172980	0.879833
C132	C	1.730177	0.160353	1.213166
C133	C	1.063514	-0.506312	0.628298
C134	C	1.396848	-0.172979	0.961631
C135	C	1.730181	0.160354	1.294965
C136	C	1.063567	-0.232283	0.354580
C137	C	1.396900	0.101051	0.687914
C138	C	1.730233	0.434384	1.021247
C139	C	1.063594	-0.115506	0.354595
C140	C	1.396927	0.217827	0.687928
C141	C	1.730261	0.551161	1.021261
C142	C	1.110579	-0.439133	0.893369
C143	C	1.443912	-0.105799	1.226702
C144	C	1.777246	0.227534	1.560035
C145	C	1.110584	-0.439132	0.816510
C146	C	1.443917	-0.105799	1.149843
C147	C	1.777251	0.227534	1.483176
C148	C	1.016428	-0.573509	0.816476
C149	C	1.349762	-0.240176	1.149810
C150	C	1.683095	0.093157	1.483143
C151	C	1.016427	-0.573514	0.893334
C152	C	1.349761	-0.240181	1.226667
C153	C	1.683094	0.093152	1.560000
C154	C	1.063502	-0.506320	0.931778
C155	C	1.396835	-0.172987	1.265111
C156	C	1.730168	0.160347	1.598444
C157	C	1.063508	-0.506315	0.778062
C158	C	1.396841	-0.172981	1.111395
C159	C	1.730174	0.160352	1.444728
C160	C	1.063513	-0.506315	0.694728
C161	C	1.396846	-0.172981	1.028061
C162	C	1.730179	0.160352	1.361395
C163	C	1.063498	-0.506321	1.015117
C164	C	1.396831	-0.172988	1.348450
C165	C	1.730164	0.160346	1.681783
C166	C	1.063491	-0.506337	1.163340
C167	C	1.396824	-0.173004	1.496673
C168	C	1.730157	0.160330	1.830007
C169	C	1.063495	-0.506322	1.081541
C170	C	1.396828	-0.172989	1.414875
C171	C	1.730161	0.160344	1.748208
H172	H	0.494188	-0.384620	0.440090
H173	H	0.827522	-0.051287	0.773423
H174	H	1.160855	0.282046	1.106756
Br175	Br	1.157500	-1.264378	0.260221
Br176	Br	1.490833	-0.931044	0.593555
Br177	Br	1.824167	-0.597711	0.926888
H178	H	0.978091	-0.628232	0.924607
H179	H	1.311424	-0.294898	1.257941
H180	H	1.644757	0.038435	1.591274
Br181	Br	1.157875	-0.747116	0.260691
Br182	Br	1.491208	-0.413783	0.594024
Br183	Br	1.824541	-0.080449	0.927358
Br184	Br	0.952541	-0.664691	0.764298
Br185	Br	1.285874	-0.331358	1.097631
Br186	Br	1.619207	0.001976	1.430964
H187	H	1.243233	-1.105242	0.175214
H188	H	1.576566	-0.771909	0.508547
H189	H	1.909899	-0.438575	0.841880
Br190	Br	1.268712	-0.876383	0.149639
Br191	Br	1.602046	-0.543049	0.482972
Br192	Br	1.935379	-0.209716	0.816305
Br193	Br	0.654486	-0.348180	0.465682
Br194	Br	0.987820	-0.014847	0.799016
Br195	Br	1.321153	0.318486	1.132349
H196	H	0.883955	-1.105394	0.533974
H197	H	1.217288	-0.772061	0.867307
H198	H	1.550621	-0.438728	1.200641
H199	H	0.494129	-0.628050	0.269022
H200	H	0.827463	-0.294717	0.602356
H201	H	1.160796	0.038616	0.935689
Br202	Br	0.654431	-0.664440	0.243404
Br203	Br	0.987765	-0.331107	0.576737
Br204	Br	1.321098	0.002227	0.910071
Br205	Br	1.174462	-0.347937	0.945541
Br206	Br	1.507795	-0.014604	1.278874
Br207	Br	1.841129	0.318730	1.612207
H208	H	0.969441	-1.204885	0.448672
H209	H	1.302774	-0.871552	0.782006
H210	H	1.636108	-0.538219	1.115339
H211	H	0.883870	-0.906326	0.533939
H212	H	1.217204	-0.572992	0.867272
H213	H	1.550537	-0.239659	1.200606
H214	H	0.969278	-0.806757	0.448579
H215	H	1.302611	-0.473424	0.781913
H216	H	1.635944	-0.140091	1.115246
H217	H	1.148920	-0.384423	0.785240
H218	H	1.482253	-0.051090	1.118574
H219	H	1.815587	0.282244	1.451907
