data_functionalizedCrystal
_audit_creation_method	'MofGen! by Chris Wilmer'
_symmetry_space_group_name_H-M	'P1'
_symmetry_Int_Tables_number	1
_symmetry_cell_setting	triclinic
loop_
_symmetry_equiv_pos_as_xyz
  x,y,z
_cell_length_a	19.121102
_cell_length_b	19.120785
_cell_length_c	16.959447
_cell_angle_alpha	92.474972
_cell_angle_beta	92.454289
_cell_angle_gamma	89.914030
loop_
_atom_site_label
_atom_site_type_symbol
_atom_site_fract_x
_atom_site_fract_y
_atom_site_fract_z
Zn1	Zn	1.059841	-0.324903	0.482124
Zn2	Zn	1.559841	0.175097	0.982124
Zn3	Zn	1.054763	-0.442155	0.344062
Zn4	Zn	1.554763	0.057845	0.844062
Zn5	Zn	0.942611	-0.319922	0.344578
Zn6	Zn	1.442611	0.180078	0.844578
Zn7	Zn	0.937574	-0.437101	0.470822
Zn8	Zn	1.437574	0.062899	0.970822
O9	O	0.998697	-0.381020	0.410397
O10	O	1.498697	0.118980	0.910397
O11	O	1.157272	-0.344656	0.468325
O12	O	1.657272	0.155344	0.968325
O13	O	1.039869	-0.425971	0.233517
O14	O	1.539869	0.074029	0.733517
O15	O	0.962396	-0.222474	0.367769
O16	O	1.462396	0.277526	0.867769
O17	O	1.153541	-0.430800	0.366891
O18	O	1.653541	0.069200	0.866891
O19	O	1.048524	-0.226133	0.468824
O20	O	1.548524	0.273867	0.968824
O21	O	0.957472	-0.336167	0.233896
O22	O	1.457472	0.163833	0.733896
O23	O	0.843838	-0.331267	0.356810
O24	O	1.343838	0.168733	0.856810
O25	O	0.953810	-0.422187	0.582934
O26	O	1.453810	0.077813	1.082934
O27	O	0.840137	-0.417358	0.449561
O28	O	1.340137	0.082642	0.949561
O29	O	1.043639	-0.339756	0.591238
O30	O	1.543639	0.160244	1.091238
O31	O	1.034984	-0.539594	0.355931
O32	O	1.534984	-0.039594	0.855931
O33	O	0.948885	-0.535881	0.449061
O34	O	1.448885	-0.035881	0.949061
C35	C	0.816550	-0.373224	0.402015
C36	C	1.316550	0.126776	0.902015
C37	C	0.738626	-0.369905	0.398447
C38	C	1.238626	0.130095	0.898447
C39	C	0.990856	-0.563177	0.401232
C40	C	1.490856	-0.063177	0.901232
C41	C	0.987565	-0.641107	0.397340
C42	C	1.487565	-0.141107	0.897340
C43	C	0.700105	-0.413237	0.444979
C44	C	1.200105	0.086763	0.944979
C45	C	0.626888	-0.410109	0.441631
C46	C	1.126888	0.089891	0.941631
C47	C	0.592192	-0.363654	0.391747
C48	C	1.092192	0.136346	0.891747
C49	C	0.630718	-0.320318	0.345214
C50	C	1.130718	0.179682	0.845214
C51	C	0.703934	-0.323442	0.348566
C52	C	1.203934	0.176558	0.848566
C53	C	0.371221	-0.351972	0.379216
C54	C	0.871221	0.148028	0.879216
C55	C	0.298000	-0.348852	0.375865
C56	C	0.798000	0.151148	0.875865
C57	C	0.294175	-0.438643	0.472284
C58	C	0.794175	0.061357	0.972284
C59	C	0.367393	-0.441766	0.475629
C60	C	0.867393	0.058234	0.975629
C61	C	0.405912	-0.398428	0.429099
C62	C	0.905912	0.101572	0.929099
C63	C	0.517352	-0.360458	0.388322
C64	C	1.017352	0.139542	0.888322
C65	C	0.480751	-0.401621	0.432529
C66	C	0.980751	0.098379	0.932529
C67	C	0.966690	-1.081771	0.372716
C68	C	1.466690	-0.581771	0.872716
C69	C	0.969783	-1.008548	0.376372
C70	C	1.469783	-0.508548	0.876372
C71	C	1.016141	-0.973781	0.430853
C72	C	1.516141	-0.473781	0.930853
C73	C	1.059404	-1.012241	0.481686
C74	C	1.559404	-0.512241	0.981686
C75	C	1.056307	-1.085463	0.478033
C76	C	1.556307	-0.585463	0.978033
C77	C	1.027731	-0.752789	0.444520
C78	C	1.527731	-0.252789	0.944520
C79	C	1.030827	-0.679562	0.448168
C80	C	1.530827	-0.179562	0.948168
C81	C	0.941204	-0.675874	0.342855
C82	C	1.441204	-0.175874	0.842855
C83	C	0.938114	-0.749098	0.339204
C84	C	1.438114	-0.249098	0.839204
C85	C	0.981374	-0.787551	0.390039
C86	C	1.481374	-0.287551	0.890039
C87	C	1.019306	-0.898934	0.434590
C88	C	1.519306	-0.398934	0.934590
C89	C	0.978206	-0.862396	0.386306
C90	C	1.478206	-0.362396	0.886306
C91	C	1.181556	-0.388848	0.418811
C92	C	1.681556	0.111152	0.918811
C93	C	1.259479	-0.392183	0.422397
C94	C	1.759479	0.107817	0.922397
C95	C	0.998729	-0.380964	0.616569
C96	C	1.498729	0.119036	1.116569
C97	C	0.998742	-0.380939	0.704428
C98	C	1.498742	0.119061	1.204428
C99	C	1.006588	-0.198153	0.419615
C100	C	1.506588	0.301847	0.919615
C101	C	1.009951	-0.120226	0.423544
C102	C	1.509951	0.379774	0.923544
C103	C	0.998708	-0.381028	0.205030
C104	C	1.498708	0.118972	0.705030
C105	C	0.998839	-0.380861	0.117189
C106	C	1.498839	0.119139	0.617189
C107	C	0.952059	-0.423787	1.071590
C108	C	1.452059	0.076213	1.571590
C109	C	1.045599	-0.337951	1.080232
C110	C	1.545599	0.162049	1.580232
C111	C	1.045580	-0.337965	0.997684
C112	C	1.545580	0.162035	1.497684
C113	C	0.998800	-0.380892	0.952086
C114	C	1.498800	0.119108	1.452086
C115	C	0.952040	-0.423804	0.989035
C116	C	1.452040	0.076196	1.489035
C117	C	1.092344	-0.295059	0.960729
C118	C	1.592344	0.204941	1.460729
C119	C	1.092328	-0.295071	0.878177
C120	C	1.592328	0.204929	1.378177
C121	C	1.045544	-0.337995	0.832577
C122	C	1.545544	0.162005	1.332577
C123	C	0.998781	-0.380908	0.869530
C124	C	1.498781	0.119092	1.369530
C125	C	0.952001	-0.423835	0.823932
C126	C	1.452001	0.076165	1.323932
C127	C	0.905235	-0.466745	0.860884
C128	C	1.405235	0.033255	1.360884
C129	C	0.905256	-0.466727	0.943434
C130	C	1.405256	0.033273	1.443434
C131	C	1.045522	-0.338013	0.750026
C132	C	1.545522	0.161987	1.250026
C133	C	0.951982	-0.423852	0.741376
C134	C	1.451982	0.076148	1.241376
H135	H	0.595527	-0.445395	0.479521
H136	H	1.095527	0.054605	0.979521
H137	H	1.068580	-0.651258	0.492535
H138	H	1.568580	-0.151258	0.992535
H139	H	0.867150	-0.501699	0.823747
H140	H	1.367150	-0.001699	1.323747
N141	N	0.518166	-0.451728	0.486330
N142	N	1.018166	0.048272	0.986330
H143	H	0.549781	-0.424576	0.525835
H144	H	1.049781	0.075424	1.025835
H145	H	0.547096	-0.485463	0.453840
H146	H	1.047096	0.014537	0.953840
N147	N	0.260565	-0.298755	0.322054
N148	N	0.760565	0.201245	0.822054
H149	H	0.275447	-0.249212	0.337518
H150	H	0.775447	0.250788	0.837518
H151	H	0.208350	-0.303431	0.327020
H152	H	0.708350	0.196569	0.827020
N153	N	0.854819	-0.513015	0.983276
N154	N	1.354819	-0.013015	1.483276
H155	H	0.805196	-0.499982	0.967159
H156	H	1.305196	0.000018	1.467159
H157	H	0.861986	-0.506479	1.042482
H158	H	1.361986	-0.006479	1.542482
H159	H	1.062965	-0.784090	0.485906
H160	H	1.562965	-0.284090	0.985906
N161	N	0.888101	-0.786584	0.280447
N162	N	1.388101	-0.286584	0.780447
H163	H	0.854311	-0.815577	0.309533
H164	H	1.354311	-0.315577	0.809533
H165	H	0.915370	-0.818147	0.243647
H166	H	1.415370	-0.318147	0.743647
N167	N	0.894538	-0.634403	0.288035
N168	N	1.394538	-0.134403	0.788035
H169	H	0.904915	-0.647642	0.231433
H170	H	1.404915	-0.147642	0.731433
H171	H	0.903551	-0.582754	0.298679
H172	H	1.403551	-0.082754	0.798679
H173	H	1.083689	-0.303006	1.117363
H174	H	1.583689	0.196994	1.617363
N175	N	0.252624	-0.485377	0.522471
N176	N	0.752624	0.014623	1.022471
H177	H	0.265851	-0.475094	0.580096
H178	H	0.765851	0.024906	1.080096
H179	H	0.263223	-0.535982	0.508101
H180	H	0.763223	-0.035982	1.008101
H181	H	1.083601	-0.303078	0.719943
H182	H	1.583601	0.196922	1.219943
H183	H	1.091530	-1.116772	0.519428
H184	H	1.591530	-0.616772	1.019428
N185	N	1.109399	-0.974746	0.540456
N186	N	1.609399	-0.474746	1.040456
H187	H	1.104798	-0.922524	0.535058
H188	H	1.604798	-0.422524	1.035058
H189	H	1.158936	-0.989653	0.529868
H190	H	1.658936	-0.489653	1.029868
H191	H	0.395637	-0.479597	0.516248
H192	H	0.895637	0.020403	1.016248
H193	H	0.940458	-0.890706	0.341951
H194	H	1.440458	-0.390706	0.841951
H195	H	0.402575	-0.316687	0.341322
H196	H	0.902575	0.183313	0.841322
H197	H	0.913981	-0.458722	1.101680
H198	H	1.413981	0.041278	1.601680
N199	N	1.142801	-0.248766	1.009907
N200	N	1.642801	0.251234	1.509907
H201	H	1.135713	-0.255265	1.067809
H202	H	1.635713	0.244735	1.567809
H203	H	1.134049	-0.198230	0.997504
H204	H	1.634049	0.301770	1.497504
H205	H	1.057053	-0.870621	0.478948
H206	H	1.557053	-0.370621	0.978948
H207	H	0.913882	-0.458802	0.704255
H208	H	1.413882	0.041198	1.204255
N209	N	0.593299	-0.270224	0.291393
N210	N	1.093299	0.229776	0.791393
H211	H	0.541071	-0.274826	0.296321
H212	H	1.041071	0.225174	0.796321
H213	H	0.605622	-0.281637	0.234968
H214	H	1.105622	0.218363	0.734968
N215	N	1.142766	-0.248789	0.838331
N216	N	1.642766	0.251211	1.338331
H217	H	1.134041	-0.198228	0.854731
H218	H	1.634041	0.301772	1.354731
H219	H	1.135633	-0.255366	0.779126
H220	H	1.635633	0.244634	1.279126
N221	N	0.737525	-0.463348	0.498778
N222	N	1.237525	0.036652	0.998778
H223	H	0.702009	-0.490322	0.527747
H224	H	1.202009	0.009678	1.027747
H225	H	0.769142	-0.436147	0.538235
H226	H	1.269142	0.063853	1.038235
H227	H	0.735297	-0.288153	0.310679
H228	H	1.235297	0.211847	0.810679
H229	H	0.934556	-0.977238	0.334985
H230	H	1.434556	-0.477238	0.834985
H231	H	0.489094	-0.322635	0.347704
H232	H	0.989094	0.177365	0.847704
H233	H	0.928942	-1.110073	0.328350
H234	H	1.428942	-0.610073	0.828350
