data_functionalizedCrystal
_audit_creation_method	'MofGen! by Chris Wilmer'
_symmetry_space_group_name_H-M	'P1'
_symmetry_Int_Tables_number	1
_symmetry_cell_setting	triclinic
loop_
_symmetry_equiv_pos_as_xyz
  x,y,z
_cell_length_a	13.897449
_cell_length_b	16.120531
_cell_length_c	13.897441
_cell_angle_alpha	92.862141
_cell_angle_beta	90.023394
_cell_angle_gamma	87.066788
loop_
_atom_site_label
_atom_site_type_symbol
_atom_site_fract_x
_atom_site_fract_y
_atom_site_fract_z
Zn1	Zn	1.455136	0.331862	0.564868
Zn2	Zn	1.705136	0.581862	0.814868
Zn3	Zn	1.955136	0.831862	1.064868
Zn4	Zn	2.205136	1.081862	1.314868
Zn5	Zn	1.446809	0.471293	0.411728
Zn6	Zn	1.696809	0.721293	0.661728
Zn7	Zn	1.946809	0.971293	0.911728
Zn8	Zn	2.196809	1.221293	1.161728
Zn9	Zn	1.293823	0.331900	0.403581
Zn10	Zn	1.543823	0.581900	0.653581
Zn11	Zn	1.793823	0.831900	0.903581
Zn12	Zn	2.043823	1.081900	1.153581
Zn13	Zn	1.285590	0.471237	0.572970
Zn14	Zn	1.535590	0.721237	0.822970
Zn15	Zn	1.785590	0.971237	1.072970
Zn16	Zn	2.035590	1.221237	1.322970
O17	O	1.370340	0.401573	0.488287
O18	O	1.620340	0.651573	0.738287
O19	O	1.870340	0.901573	0.988287
O20	O	2.120340	1.151573	1.238287
O21	O	1.589013	0.350365	0.544573
O22	O	1.839013	0.600365	0.794573
O23	O	2.089013	0.850365	1.044573
O24	O	2.339013	1.100365	1.294573
O25	O	1.426476	0.452842	0.275668
O26	O	1.676476	0.702842	0.525668
O27	O	1.926476	0.952842	0.775668
O28	O	2.176476	1.202842	1.025668
O29	O	1.322152	0.215230	0.418176
O30	O	1.572152	0.465230	0.668176
O31	O	1.822152	0.715230	0.918176
O32	O	2.072152	0.965230	1.168176
O33	O	1.582895	0.452805	0.432062
O34	O	1.832895	0.702805	0.682062
O35	O	2.082895	0.952805	0.932062
O36	O	2.332895	1.202805	1.182062
O37	O	1.440668	0.215201	0.536673
O38	O	1.690668	0.465201	0.786673
O39	O	1.940668	0.715201	1.036673
O40	O	2.190668	0.965201	1.286673
O41	O	1.314078	0.350431	0.269683
O42	O	1.564078	0.600431	0.519683
O43	O	1.814078	0.850431	0.769683
O44	O	2.064078	1.100431	1.019683
O45	O	1.157750	0.350376	0.426032
O46	O	1.407750	0.600376	0.676032
O47	O	1.657750	0.850376	0.926032
O48	O	1.907750	1.100376	1.176032
O49	O	1.308119	0.452709	0.706875
O50	O	1.558119	0.702709	0.956875
O51	O	1.808119	0.952709	1.206875
O52	O	2.058119	1.202709	1.456875
O53	O	1.151701	0.452747	0.550482
O54	O	1.401701	0.702747	0.800482
O55	O	1.651701	0.952747	1.050482
O56	O	1.901701	1.202747	1.300482
O57	O	1.432685	0.350311	0.700922
O58	O	1.682685	0.600311	0.950922
O59	O	1.932685	0.850311	1.200922
O60	O	2.182685	1.100311	1.450922
O61	O	1.418493	0.587951	0.439918
O62	O	1.668493	0.837951	0.689918
O63	O	1.918493	1.087951	0.939918
O64	O	2.168493	1.337951	1.189918
O65	O	1.300045	0.587910	0.558381
O66	O	1.550045	0.837910	0.808381
O67	O	1.800045	1.087910	1.058381
O68	O	2.050045	1.337910	1.308381
C69	C	1.119726	0.401560	0.488253
C70	C	1.369726	0.651560	0.738253
C71	C	1.619726	0.901560	0.988253
C72	C	1.869726	1.151560	1.238253
C73	C	1.012511	0.401575	0.488262
C74	C	1.262511	0.651575	0.738262
C75	C	1.512511	0.901575	0.988262
C76	C	1.762511	1.151575	1.238262
C77	C	0.925441	0.401578	0.488278
C78	C	1.175441	0.651578	0.738278
C79	C	1.425441	0.901578	0.988278
C80	C	1.675441	1.151578	1.238278
C81	C	0.816208	0.401584	0.488308
C82	C	1.066208	0.651584	0.738308
C83	C	1.316208	0.901584	0.988308
C84	C	1.566208	1.151584	1.238308
C85	C	1.357498	0.618181	0.500934
C86	C	1.607498	0.868181	0.750934
C87	C	1.857498	1.118181	1.000934
C88	C	2.107498	1.368181	1.250934
C89	C	1.352093	0.710847	0.506376
C90	C	1.602093	0.960847	0.756376
C91	C	1.852093	1.210847	1.006376
C92	C	2.102093	1.460847	1.256376
C93	C	1.342229	0.880508	0.516333
C94	C	1.592229	1.130508	0.766333
C95	C	1.842229	1.380508	1.016333
C96	C	2.092229	1.630508	1.266333
C97	C	1.398486	0.921798	0.460187
C98	C	1.648486	1.171798	0.710187
C99	C	1.898486	1.421798	0.960187
C100	C	2.148486	1.671798	1.210187
C101	C	1.392998	1.016203	0.465727
C102	C	1.642998	1.266203	0.715727
C103	C	1.892998	1.516203	0.965727
C104	C	2.142998	1.766203	1.215727
C105	C	1.347716	0.786094	0.510794
C106	C	1.597716	1.036094	0.760794
C107	C	1.847716	1.286094	1.010794
C108	C	2.097716	1.536094	1.260794
C109	C	1.621932	0.401587	0.488322
C110	C	1.871932	0.651587	0.738322
C111	C	2.121932	0.901587	0.988322
C112	C	2.371932	1.151587	1.238322
C113	C	1.729145	0.401592	0.488337
C114	C	1.979145	0.651592	0.738337
C115	C	2.229145	0.901592	0.988337
C116	C	2.479145	1.151592	1.238337
C117	C	1.370412	0.401499	0.739876
C118	C	1.620412	0.651499	0.989876
C119	C	1.870412	0.901499	1.239876
C120	C	2.120412	1.151499	1.489876
C121	C	1.370443	0.401468	0.847088
C122	C	1.620443	0.651468	1.097088
C123	C	1.870443	0.901468	1.347088
C124	C	2.120443	1.151468	1.597088
C125	C	1.383223	1.184120	0.475594
C126	C	1.633223	1.434120	0.725594
C127	C	1.883223	1.684120	0.975594
C128	C	2.133223	1.934120	1.225594
C129	C	1.388626	1.091454	0.470140
C130	C	1.638626	1.341454	0.720140
C131	C	1.888626	1.591454	0.970140
C132	C	2.138626	1.841454	1.220140
C133	C	1.370326	0.401586	0.237674
C134	C	1.620326	0.651586	0.487674
C135	C	1.870326	0.901586	0.737674
C136	C	2.120326	1.151586	0.987674
C137	C	1.370496	0.401383	0.130448
C138	C	1.620496	0.651383	0.380448
C139	C	1.870496	0.901383	0.630448
C140	C	2.120496	1.151383	0.880448
C141	C	1.370473	0.401412	1.043380
C142	C	1.620473	0.651412	1.293380
C143	C	1.870473	0.901412	1.543380
C144	C	2.120473	1.151412	1.793380
C145	C	1.370453	0.401445	0.934149
C146	C	1.620453	0.651445	1.184149
C147	C	1.870453	0.901445	1.434149
C148	C	2.120453	1.151445	1.684149
H149	H	1.450770	0.886246	0.407957
H150	H	1.700770	1.136246	0.657957
H151	H	1.950770	1.386246	0.907957
H152	H	2.200770	1.636246	1.157957
H153	H	1.289948	0.916057	0.568557
H154	H	1.539948	1.166057	0.818557
H155	H	1.789948	1.416057	1.068557
H156	H	2.039948	1.666057	1.318557
