data_functionalizedCrystal
_audit_creation_method	'MofGen! by Chris Wilmer'
_symmetry_space_group_name_H-M	'P1'
_symmetry_Int_Tables_number	1
_symmetry_cell_setting	triclinic
loop_
_symmetry_equiv_pos_as_xyz
  x,y,z
_cell_length_a	14.971491
_cell_length_b	16.098524
_cell_length_c	14.971486
_cell_angle_alpha	93.061856
_cell_angle_beta	83.615182
_cell_angle_gamma	93.063509
loop_
_atom_site_label
_atom_site_type_symbol
_atom_site_fract_x
_atom_site_fract_y
_atom_site_fract_z
O1	O	1.190518	0.069293	0.120160
O2	O	1.690518	0.569293	0.620160
O3	O	0.930118	0.069287	0.134114
O4	O	1.430118	0.569287	0.634114
O5	O	1.067297	0.069284	-0.003063
O6	O	1.567297	0.569284	0.496937
O7	O	1.053339	0.069296	0.257337
O8	O	1.553339	0.569296	0.757337
O9	O	1.060137	-0.069230	-0.010215
O10	O	1.560137	0.430770	0.489785
O11	O	0.922958	-0.069227	0.126962
O12	O	1.422958	0.430773	0.626962
O13	O	1.183358	-0.069221	0.113008
O14	O	1.683358	0.430779	0.613008
Zn15	Zn	1.052021	-0.091216	0.118850
Zn16	Zn	1.552021	0.408784	0.618850
Zn17	Zn	1.061455	0.091282	0.128273
Zn18	Zn	1.561455	0.591282	0.628273
O19	O	1.046179	-0.069218	0.250185
O20	O	1.546179	0.430782	0.750185
C21	C	0.893213	0.000029	0.129913
C22	C	1.393213	0.500029	0.629913
C23	C	0.793916	0.000027	0.128040
C24	C	1.293916	0.500027	0.628040
C25	C	0.370115	0.075549	0.123860
C26	C	0.870115	0.575549	0.623860
C27	C	0.463415	0.075546	0.125616
C28	C	0.963415	0.575546	0.625616
C29	C	0.506157	0.000040	0.122602
C30	C	1.006157	0.500040	0.622602
C31	C	0.455596	-0.075469	0.117821
C32	C	0.955596	0.424531	0.617821
C33	C	0.362298	-0.075465	0.116058
C34	C	0.862298	0.424535	0.616058
C35	C	0.650057	-0.075472	0.121498
C36	C	1.150057	0.424528	0.621498
C37	C	0.743361	-0.075476	0.123263
C38	C	1.243361	0.424524	0.623263
C39	C	0.751174	0.075540	0.131056
C40	C	1.251174	0.575540	0.631056
C41	C	0.657877	0.075544	0.129293
C42	C	1.157877	0.575544	0.629293
C43	C	0.607321	0.000035	0.124515
C44	C	1.107321	0.500035	0.624515
N45	N	1.045589	-0.215766	0.112418
N46	N	1.545589	0.284234	0.612418
C47	C	1.097643	-0.259344	0.164511
C48	C	1.597643	0.240656	0.664511
C49	C	1.093155	-0.346534	0.160006
C50	C	1.593155	0.153466	0.660006
C51	C	1.036609	-0.390144	0.103412
C52	C	1.536609	0.109856	0.603412
C53	C	0.984553	-0.346560	0.051314
C54	C	1.484553	0.153440	0.551314
C55	C	0.989046	-0.259372	0.055815
C56	C	1.489046	0.240628	0.555815
C57	C	1.020331	-0.653396	0.087100
C58	C	1.520331	-0.153396	0.587100
C59	C	1.015840	-0.740590	0.082605
C60	C	1.515840	-0.240590	0.582605
C61	C	1.124444	-0.740558	0.191296
C62	C	1.624444	-0.240558	0.691296
C63	C	1.128928	-0.653368	0.195795
C64	C	1.628928	-0.153368	0.695795
C65	C	1.076876	-0.609792	0.143694
C66	C	1.576876	-0.109792	0.643694
C67	C	1.032018	-0.479265	0.098808
C68	C	1.532018	0.020735	0.598808
C69	C	1.081472	-0.520672	0.148294
C70	C	1.581472	-0.020672	0.648294
C71	C	1.220263	0.000039	0.117209
C72	C	1.720263	0.500039	0.617209
C73	C	1.319560	0.000047	0.119082
C74	C	1.819560	0.500047	0.619082
C75	C	1.063093	0.000027	-0.039964
C76	C	1.563093	0.500027	0.460036
C77	C	1.061222	0.000028	-0.139261
C78	C	1.561222	0.500028	0.360739
N79	N	1.067894	0.215832	0.134697
N80	N	1.567894	0.715832	0.634697
C81	C	1.141811	0.000029	-0.196485
C82	C	1.641811	0.500029	0.303515
C83	C	1.140048	0.000038	-0.289784
C84	C	1.640048	0.500038	0.210216
C85	C	1.057695	0.000039	-0.325857
C86	C	1.557695	0.500039	0.174143
C87	C	0.977100	0.000040	-0.268626
C88	C	1.477100	0.500040	0.231374
C89	C	0.978864	0.000038	-0.175329
C90	C	1.478864	0.500038	0.324671
C91	C	0.973429	0.000043	-0.463089
C92	C	1.473429	0.500043	0.036911
C93	C	0.971665	0.000044	-0.556393
C94	C	1.471665	0.500044	-0.056393
C95	C	1.134614	0.000043	-0.577544
C96	C	1.634614	0.500043	-0.077544
C97	C	1.136378	0.000041	-0.484246
C98	C	1.636378	0.500041	0.015754
C99	C	1.055782	0.000040	-0.427021
C100	C	1.555782	0.500040	0.072979
C101	C	1.050383	0.000040	0.287086
C102	C	1.550383	0.500040	0.787086
C103	C	1.052254	0.000045	0.386384
C104	C	1.552254	0.500045	0.886384
H105	H	1.143683	-0.223843	0.210600
H106	H	1.643683	0.276157	0.710600
C107	C	1.226963	0.000041	-0.444566
C108	C	1.726963	0.500041	0.055434
H109	H	1.274711	0.000050	-0.492007
H110	H	1.774711	0.500050	0.007993
H111	H	1.228541	-0.048261	-0.411105
H112	H	1.728541	0.451739	0.088895
H113	H	1.233530	0.048351	-0.406114
H114	H	1.733530	0.548351	0.093886
H115	H	0.490405	-0.136948	0.115361
H116	H	0.990405	0.363052	0.615361
C117	C	1.223268	0.000058	-0.640486
C118	C	1.723268	0.500058	-0.140486
H119	H	1.210426	0.000073	-0.701216
H120	H	1.710426	0.500073	-0.201216
H121	H	1.254541	-0.048243	-0.632046
H122	H	1.754541	0.451757	-0.132046
H123	H	1.259524	0.048369	-0.627035
H124	H	1.759524	0.548369	-0.127035
H125	H	0.335320	0.137036	0.126321
H126	H	0.835320	0.637036	0.626321
H127	H	0.904605	0.000031	-0.585761
H128	H	1.404605	0.500031	-0.085761
C129	C	1.181702	-0.788489	0.248599
C130	C	1.681702	-0.288489	0.748599
H131	H	1.216017	-0.750029	0.282953
H132	H	1.716017	-0.250029	0.782953
H133	H	1.221076	-0.822499	0.210261
H134	H	1.721076	-0.322499	0.710261
H135	H	1.143333	-0.822502	0.287953
H136	H	1.643333	-0.322502	0.787953
H137	H	0.504574	0.137028	0.129501
H138	H	1.004574	0.637028	0.629501
H139	H	0.938516	-0.382074	0.005230
H140	H	1.438516	0.117926	0.505230
H141	H	0.778159	-0.136960	0.120813
H142	H	1.278159	0.363040	0.620813
C143	C	1.150411	-0.394466	0.217311
C144	C	1.650411	0.105534	0.717311
H145	H	1.184722	-0.356006	0.251669
H146	H	1.684722	0.143994	0.751669
H147	H	1.189788	-0.428473	0.178974
H148	H	1.689788	0.071527	0.678974
H149	H	1.112040	-0.428481	0.256660
H150	H	1.612040	0.071519	0.756660
C151	C	0.953640	-0.788564	0.020349
C152	C	1.453640	-0.288564	0.520349
H153	H	0.958414	-0.846731	0.025141
H154	H	1.458414	-0.346731	0.525141
H155	H	0.970934	-0.774283	-0.040088
H156	H	1.470934	-0.274283	0.459912
H157	H	0.893192	-0.774284	0.037604
H158	H	1.393192	-0.274284	0.537604
C159	C	0.884776	0.000041	-0.400143
C160	C	1.384776	0.500041	0.099857
H161	H	0.835476	0.000034	-0.434989
H162	H	1.335476	0.500034	0.065011
H163	H	0.884572	0.048342	-0.360808
H164	H	1.384572	0.548342	0.139192
H165	H	0.879583	-0.048270	-0.365809
H166	H	1.379583	0.451730	0.134191
H167	H	0.608896	-0.136959	0.117618
H168	H	1.108896	0.363041	0.617618
H169	H	0.792341	0.137022	0.134949
H170	H	1.292341	0.637022	0.634949
H171	H	0.913240	0.000037	-0.128737
H172	H	1.413240	0.500037	0.371263
H173	H	0.623078	0.137028	0.131754
H174	H	1.123078	0.637028	0.631754
H175	H	1.174977	-0.617867	0.241877
H176	H	1.674977	-0.117867	0.741877
H177	H	0.321136	-0.136947	0.112178
H178	H	0.821136	0.363053	0.612178
H179	H	0.946658	-0.223892	0.013396
H180	H	1.446658	0.276108	0.513396
H181	H	0.977947	-0.617927	0.044674
H182	H	1.477947	-0.117927	0.544674
C183	C	0.969794	-0.527236	0.036583
C184	C	1.469794	-0.027236	0.536583
H185	H	0.939428	-0.488798	0.006204
H186	H	1.439428	0.011202	0.506204
H187	H	0.926927	-0.561246	0.071433
H188	H	1.426927	-0.061246	0.571433
H189	H	1.004642	-0.561251	-0.006287
H190	H	1.504642	-0.061251	0.493713
C191	C	1.232401	0.000028	-0.156812
C192	C	1.732401	0.500028	0.343188
H193	H	1.280144	0.000038	-0.204258
H194	H	1.780144	0.500038	0.295742
H195	H	1.233982	-0.048275	-0.123353
H196	H	1.733982	0.451725	0.376647
H197	H	1.238972	0.048337	-0.118359
H198	H	1.738972	0.548337	0.381641
H199	H	1.127515	-0.485161	0.194368
H200	H	1.627515	0.014839	0.694368
H201	H	1.205672	0.000037	-0.336372
H202	H	1.705672	0.500037	0.163628
H203	H	0.910047	0.000046	-0.298004
H204	H	1.410047	0.500046	0.201996
