data_functionalizedCrystal
_audit_creation_method	'MofGen! by Chris Wilmer'
_symmetry_space_group_name_H-M	'P1'
_symmetry_Int_Tables_number	1
_symmetry_cell_setting	triclinic
loop_
_symmetry_equiv_pos_as_xyz
  x,y,z
_cell_length_a	11.026607
_cell_length_b	10.654550
_cell_length_c	10.065875
_cell_angle_alpha	98.875770
_cell_angle_beta	79.302338
_cell_angle_gamma	96.535460
loop_
_atom_site_label
_atom_site_type_symbol
_atom_site_fract_x
_atom_site_fract_y
_atom_site_fract_z
O1	O	1.632231	0.512406	-0.113491
O2	O	1.278420	0.452411	-0.113493
O3	O	1.463459	0.301436	-0.113487
O4	O	1.447191	0.663381	-0.113497
O5	O	1.428176	0.330372	0.113500
O6	O	1.243137	0.481347	0.113494
O7	O	1.596947	0.541343	0.113496
Zn8	Zn	1.414440	0.515940	0.149534
Zn9	Zn	1.460927	0.477814	-0.149531
O10	O	1.411908	0.692318	0.113490
C11	C	1.215474	0.455811	0.000000
C12	C	1.080483	0.422816	-0.000001
C13	C	1.007444	0.513919	-0.000004
C14	C	0.867923	0.479820	-0.000005
C15	C	1.444623	0.268847	0.000005
C16	C	1.441050	0.128627	0.000000
C17	C	1.549998	0.072791	0.000005
C18	C	1.546634	-0.058961	-0.000005
C19	C	1.325363	-0.079031	-0.000018
C20	C	1.328730	0.052718	-0.000018
C21	C	1.662318	0.148700	0.000023
C22	C	1.771275	0.092866	0.000030
C23	C	1.767911	-0.038887	0.000020
C24	C	1.655590	-0.114805	0.000004
C25	C	1.659894	0.537943	-0.000000
C26	C	1.794886	0.570936	-0.000008
C27	C	1.430744	0.724907	-0.000005
C28	C	1.434319	0.865125	-0.000009
N29	N	1.382723	0.541960	0.353639
N30	N	1.492654	0.451786	-0.353636
C31	C	1.449884	0.486858	0.421420
C32	C	1.425483	0.506896	0.578586
H33	H	1.039727	0.319571	-0.000033
H34	H	0.827174	0.376568	-0.000037
C35	C	1.203301	-0.161269	0.000188
C36	C	1.119208	-0.120370	0.116948
C37	C	1.006744	-0.196083	0.117179
H38	H	1.216714	-0.247757	0.000261
H39	H	1.170628	-0.153865	-0.078929
H40	H	1.151874	-0.127786	0.196044
H41	H	1.105758	-0.033893	0.116899
H42	H	0.974072	-0.188679	0.038062
H43	H	1.020170	-0.282567	0.117248
H44	H	0.949670	-0.168336	0.196392
H45	H	1.568219	0.389766	0.588046
H46	H	1.240015	0.098180	-0.000020
C47	C	0.849319	0.708552	-0.000314
C48	C	0.939488	0.717869	-0.117119
C49	C	0.989642	0.844621	-0.117466
H50	H	0.886048	0.735455	0.078743
H51	H	0.785440	0.761312	-0.000397
H52	H	1.003356	0.665128	-0.117023
H53	H	0.902789	0.690992	-0.196195
H54	H	0.925764	0.897380	-0.117549
H55	H	1.026365	0.871513	-0.038404
H56	H	1.050819	0.850962	-0.196722
C57	C	1.893297	0.175185	-0.000245
C58	C	1.977367	0.134333	-0.117044
C59	C	2.089784	0.210144	-0.117356
H60	H	1.926062	0.167858	0.078817
H61	H	1.879761	0.261655	-0.000313
H62	H	1.990905	0.047885	-0.116963
H63	H	1.944642	0.141664	-0.196124
H64	H	2.076247	0.296614	-0.117424
H65	H	2.122537	0.202811	-0.038289
H66	H	2.146835	0.182444	-0.196608
H67	H	1.665069	0.255982	0.000035
C68	C	1.550497	0.403971	0.343702
C69	C	1.524075	0.280251	0.378301
C70	C	1.616728	0.203867	0.306709
H71	H	1.628273	0.438603	0.366962
H72	H	1.553480	0.401431	0.248396
H73	H	1.521107	0.282796	0.473585
H74	H	1.446317	0.245583	0.355037
H75	H	1.619711	0.201326	0.211403
H76	H	1.694498	0.238510	0.329974
H77	H	1.598808	0.119912	0.330164
H78	H	1.856631	-0.084345	0.000011
H79	H	1.048204	0.617161	0.000001
C80	C	1.324530	0.589386	0.656266
C81	C	1.210145	0.537822	0.621658
C82	C	1.117119	0.613765	0.693203
H83	H	1.342098	0.673406	0.632973
H84	H	1.321437	0.591840	0.751578
H85	H	1.213239	0.535383	0.526367
H86	H	1.192537	0.453812	0.644954
H87	H	1.114026	0.616218	0.788516
H88	H	1.134699	0.697780	0.669905
H89	H	1.039496	0.578783	0.669742
C90	C	1.281775	0.624446	0.431323
C91	C	1.167389	0.572883	0.396715
C92	C	1.074363	0.648825	0.468261
H93	H	1.299343	0.708466	0.408031
H94	H	1.278682	0.626900	0.526635
H95	H	1.170484	0.570443	0.301425
H96	H	1.149782	0.488872	0.420012
H97	H	1.071270	0.651278	0.563573
H98	H	1.091943	0.732841	0.444963
H99	H	0.996741	0.613844	0.444800
H100	H	1.652862	-0.222088	-0.000018
