data_functionalizedCrystal
_audit_creation_method	'MofGen! by Chris Wilmer'
_symmetry_space_group_name_H-M	'P1'
_symmetry_Int_Tables_number	1
_symmetry_cell_setting	triclinic
loop_
_symmetry_equiv_pos_as_xyz
  x,y,z
_cell_length_a	11.169416
_cell_length_b	11.169417
_cell_length_c	11.169409
_cell_angle_alpha	89.978351
_cell_angle_beta	90.030874
_cell_angle_gamma	89.991438
loop_
_atom_site_label
_atom_site_type_symbol
_atom_site_fract_x
_atom_site_fract_y
_atom_site_fract_z
Zn1	Zn	-0.477767	-1.834962	0.678613
Zn2	Zn	-0.678507	-1.834852	0.477935
Zn3	Zn	-0.477831	-1.634248	0.477941
Zn4	Zn	-0.678400	-1.634256	0.678574
O5	O	-0.578126	-1.734579	0.578266
O6	O	-0.504414	-2.002897	0.652007
O7	O	-0.651959	-1.808192	0.309986
O8	O	-0.309873	-1.660917	0.504580
O9	O	-0.651897	-2.002816	0.504570
O10	O	-0.309826	-1.808380	0.652013
O11	O	-0.504522	-1.660809	0.309991
O12	O	-0.504419	-1.466300	0.504542
O13	O	-0.651714	-1.660929	0.846529
O14	O	-0.651776	-1.466305	0.651945
O15	O	-0.504310	-1.808388	0.846558
O16	O	-0.846443	-1.808199	0.504531
O17	O	-0.846364	-1.660822	0.651940
C18	C	-0.578094	-1.422755	0.578241
C19	C	-0.578109	-1.289355	0.578258
C20	C	-0.889951	-1.734532	0.578257
C21	C	-1.023351	-1.734621	0.578293
C22	C	-0.265084	-1.734660	0.578301
C23	C	-0.131684	-1.734694	0.578316
C24	C	-0.577993	-1.734672	0.891309
C25	C	-0.577936	-1.734711	1.024709
C26	C	-0.578148	-1.047622	0.578284
C27	C	-0.578128	-1.181022	0.578271
C28	C	-0.578172	-1.734557	0.266441
C29	C	-0.577891	-1.734750	0.133042
