data_functionalizedCrystal
_audit_creation_method	'MofGen! by Chris Wilmer'
_symmetry_space_group_name_H-M	'P1'
_symmetry_Int_Tables_number	1
_symmetry_cell_setting	triclinic
loop_
_symmetry_equiv_pos_as_xyz
  x,y,z
_cell_length_a	15.995343
_cell_length_b	15.995292
_cell_length_c	9.730223
_cell_angle_alpha	90.001861
_cell_angle_beta	90.004116
_cell_angle_gamma	83.478900
loop_
_atom_site_label
_atom_site_type_symbol
_atom_site_fract_x
_atom_site_fract_y
_atom_site_fract_z
O1	O	1.110962	0.107895	-0.114142
O2	O	0.867183	0.121230	-0.114174
O3	O	0.995762	-0.007329	-0.114159
O4	O	0.982384	0.236453	-0.114157
O5	O	0.995761	-0.007326	0.114421
O6	O	0.867182	0.121233	0.114406
O7	O	1.110961	0.107898	0.114438
Zn8	Zn	0.989071	0.114566	0.150714
Zn9	Zn	0.989073	0.114562	-0.150450
O10	O	0.982382	0.236457	0.114423
C11	C	0.835988	0.120681	0.000112
C12	C	0.743037	0.119032	0.000099
C13	C	0.995217	-0.038523	0.000127
C14	C	0.993584	-0.131476	0.000117
C15	C	0.572852	0.116038	0.000118
C16	C	0.549525	0.023238	0.000116
C17	C	0.452848	0.021493	0.000643
C18	C	0.405292	0.113089	0.000134
C19	C	0.434373	0.159752	0.130405
C20	C	0.531166	0.160853	0.130507
C21	C	0.531078	0.162208	-0.129440
C22	C	0.434583	0.158782	-0.131145
C23	C	0.310595	0.111428	0.000148
C24	C	0.667549	0.117702	0.000113
C25	C	0.987583	-0.469214	0.000128
C26	C	1.080388	-0.445904	0.000651
C27	C	1.082152	-0.349229	0.000131
C28	C	0.990561	-0.301658	0.000123
C29	C	0.944164	-0.330760	-0.130409
C30	C	0.943047	-0.427550	-0.130513
C31	C	0.941150	-0.427404	0.129425
C32	C	0.944589	-0.330911	0.131145
C33	C	0.992239	-0.206962	0.000116
C34	C	0.985902	-0.563910	0.000127
C35	C	1.142156	0.108447	0.000149
C36	C	1.235107	0.110096	0.000153
C37	C	0.982927	0.267650	0.000134
C38	C	0.984560	0.360603	0.000135
N39	N	0.989076	0.114568	0.356250
N40	N	0.989075	0.114553	-0.355986
C41	C	1.046025	0.057662	0.428183
C42	C	1.046023	0.057652	0.572066
C43	C	0.932120	0.171462	0.572071
C44	C	0.932119	0.171467	0.428191
C45	C	1.102982	0.000763	0.356243
C46	C	1.159937	-0.056148	0.428175
C47	C	1.159935	-0.056158	0.572058
C48	C	1.102978	0.000742	0.644008
H49	H	0.433837	-0.015035	-0.092722
C50	C	1.128447	-0.485105	-0.125093
N51	N	1.164643	-0.514632	-0.219806
H52	H	0.414288	0.127738	0.227721
C53	C	0.854271	-0.286372	0.141786
N54	N	0.786240	-0.252827	0.149789
H55	H	1.206303	-0.102502	0.630624
H56	H	0.559354	0.132928	-0.228213
H57	H	1.118704	-0.330827	-0.093594
H58	H	0.416034	0.124800	-0.227521
C59	C	0.848869	-0.446315	0.130619
N60	N	0.779367	-0.460568	0.131513
C61	C	0.390065	0.249085	-0.142292
N62	N	0.356535	0.317105	-0.150675
C63	C	0.987697	-0.303672	-0.261637
N64	N	1.020492	-0.283272	-0.360475
H65	H	1.102991	0.000767	0.239086
H66	H	1.118489	-0.330203	0.093700
H67	H	0.970375	-0.455492	0.228367
H68	H	0.885749	0.217789	0.630662
C69	C	0.869453	0.234049	0.349060
N70	N	0.822243	0.281179	0.289459
H71	H	1.206304	-0.102479	0.369586
C72	C	0.427944	-0.027603	0.127556
N73	N	0.409187	-0.064577	0.223159
C74	C	1.102979	0.000728	0.802285
N75	N	1.102985	0.000720	0.921497
H76	H	0.577541	-0.012733	-0.093288
C77	C	0.986471	-0.463785	-0.262314
N78	N	1.019184	-0.491073	-0.361585
C79	C	0.853113	-0.287700	-0.136985
N80	N	0.784534	-0.255264	-0.141937
C81	C	0.567363	0.117704	0.262557
N82	N	0.594623	0.085200	0.362018
C83	C	0.588681	-0.024561	0.126141
N84	N	0.618171	-0.060561	0.221068
H85	H	0.978373	-0.312345	0.227712
C86	C	0.391325	0.250821	0.136470
N87	N	0.358897	0.319414	0.141038
C88	C	0.550837	0.252788	0.138019
N89	N	0.565650	0.322031	0.143687
H90	H	0.545077	0.230514	-0.130696
C91	C	1.128718	-0.483732	0.127111
N92	N	1.165120	-0.512231	0.222363
H93	H	0.875002	-0.442099	-0.136433
