data_functionalizedCrystal
_audit_creation_method	'MofGen! by Chris Wilmer'
_symmetry_space_group_name_H-M	'P1'
_symmetry_Int_Tables_number	1
_symmetry_cell_setting	triclinic
loop_
_symmetry_equiv_pos_as_xyz
  x,y,z
_cell_length_a	17.639617
_cell_length_b	17.637651
_cell_length_c	12.759393
_cell_angle_alpha	101.248903
_cell_angle_beta	101.243216
_cell_angle_gamma	109.613464
loop_
_atom_site_label
_atom_site_type_symbol
_atom_site_fract_x
_atom_site_fract_y
_atom_site_fract_z
Zn1	Zn	1.193675	-0.073679	0.895541
Zn2	Zn	1.165717	-0.211561	0.675238
Zn3	Zn	1.055840	-0.101552	0.675271
Zn4	Zn	1.027982	-0.239316	0.806329
O5	O	1.110803	-0.156527	0.763095
O6	O	1.305293	-0.068689	0.903639
O7	O	1.151100	-0.197017	0.528197
O8	O	1.097484	0.017504	0.741839
O9	O	1.284752	-0.169990	0.741783
O10	O	1.198751	0.037982	0.903671
O11	O	1.070374	-0.116194	0.528221
O12	O	0.936818	-0.143108	0.655334
O13	O	1.050003	-0.217295	0.965209
O14	O	0.916350	-0.244322	0.751622
O15	O	1.171737	-0.095602	1.030752
O16	O	1.124086	-0.330601	0.655278
O17	O	1.022893	-0.350993	0.751590
C18	C	0.896681	-0.199752	0.693802
C19	C	0.805074	-0.218264	0.664176
C20	C	0.557146	-0.015879	0.988421
C21	C	0.471064	-0.033294	0.960556
C22	C	0.449732	-0.138604	0.791879
C23	C	0.535814	-0.121201	0.819733
C24	C	0.589515	-0.059837	0.918005
C25	C	0.568182	-0.165158	0.749317
C26	C	0.654257	-0.147753	0.777166
C27	C	0.707964	-0.086390	0.875432
C28	C	0.675590	-0.042431	0.945854
C29	C	0.514481	-0.226518	0.651041
C30	C	0.546849	-0.270475	0.580625
C31	C	0.632925	-0.253074	0.608478
C32	C	0.686631	-0.191711	0.706743
C33	C	0.665298	-0.297033	0.538055
C34	C	0.751373	-0.279628	0.565904
C35	C	0.772706	-0.174306	0.734593
C36	C	1.067455	-0.370704	0.693780
C37	C	1.048986	-0.462314	0.664187
C38	C	1.251648	-0.710050	0.988417
C39	C	1.234267	-0.796137	0.960583
C40	C	1.128888	-0.817554	0.791961
C41	C	1.146263	-0.731466	0.819779
C42	C	1.207643	-0.677720	0.918009
C43	C	1.102258	-0.699137	0.749370
C44	C	1.119629	-0.613057	0.777188
C45	C	1.181004	-0.559307	0.875416
C46	C	1.225014	-0.591641	0.945827
C47	C	1.040875	-0.752885	0.651144
C48	C	0.996870	-0.720556	0.580736
C49	C	1.014244	-0.634474	0.608550
C50	C	1.075620	-0.580723	0.706777
C51	C	0.970235	-0.602140	0.538138
C52	C	0.987606	-0.516060	0.565957
C53	C	1.092990	-0.494644	0.734595
C54	C	1.325762	-0.113134	0.832659
C55	C	1.417364	-0.094643	0.862303
C56	C	1.110881	-0.156436	1.037174
C57	C	1.110914	-0.156397	1.153970
C58	C	1.154344	0.058490	0.832710
C59	C	1.172898	0.150118	0.862376
C60	C	1.110785	-0.156549	0.490117
C61	C	1.110959	-0.156324	0.373448
C62	C	1.174307	-0.093022	1.242966
C63	C	1.174328	-0.092984	1.352706
C64	C	1.047560	-0.219702	1.284441
C65	C	1.047536	-0.219736	1.174704
C66	C	1.223495	0.010228	1.543689
C67	C	1.286899	0.073598	1.632690
C68	C	1.369869	0.102475	1.627204
C69	C	1.389448	0.067974	1.532719
C70	C	1.326048	0.004598	1.443723
C71	C	1.243069	-0.024265	1.449209
C72	C	0.998378	-0.322948	0.983721
C73	C	0.934980	-0.386327	0.894722
C74	C	0.852007	-0.415213	0.900203
C75	C	0.832427	-0.380725	0.994688
C76	C	0.895825	-0.317346	1.083687
C77	C	0.978798	-0.288459	1.078199
H78	H	0.816432	-0.124340	0.814618
F79	F	0.732746	0.022873	1.050453
H80	H	1.270949	0.101688	1.709618
F81	F	1.281112	-0.830539	1.035526
H82	H	1.155935	-0.013274	1.548160
F83	F	1.437347	0.169917	1.721931
F84	F	1.063560	-0.874763	0.687426
F85	F	0.614303	0.049425	1.093020
H86	H	1.225911	-0.041445	1.226090
H87	H	0.946892	-0.764327	0.500758
H88	H	0.920254	-0.645913	0.458165
F89	F	0.436620	0.013500	1.035507
F90	F	0.940773	-0.481650	0.491018
F91	F	0.608138	-0.362330	0.433463
F92	F	0.980115	-0.287111	1.306519
H93	H	1.341990	-0.023495	1.366797
H94	H	1.026726	-0.822977	0.628505
F95	F	1.086684	-0.292188	0.977866
H96	H	1.457013	0.091486	1.528268
H97	H	0.879877	-0.289265	1.160620
H98	H	0.777728	-0.315422	0.508564
F99	F	0.955822	-0.423038	0.794168
F100	F	0.744118	-0.411469	1.000526
H101	H	0.800389	-0.466828	0.827733
H102	H	0.405998	-0.188564	0.711864
H103	H	1.275002	-0.547877	1.025811
F104	F	1.199287	-0.467734	0.905217
H105	H	0.778052	-0.072217	0.898102
H106	H	0.444397	-0.240669	0.628352
H107	H	0.503115	-0.320435	0.500609
F108	F	1.158327	-0.437437	0.839135
F109	F	1.316985	-0.652842	1.092957
