data_functionalizedCrystal
_audit_creation_method	'MofGen! by Chris Wilmer'
_symmetry_space_group_name_H-M	'P1'
_symmetry_Int_Tables_number	1
_symmetry_cell_setting	triclinic
loop_
_symmetry_equiv_pos_as_xyz
  x,y,z
_cell_length_a	14.971486
_cell_length_b	9.798715
_cell_length_c	14.971486
_cell_angle_alpha	89.996394
_cell_angle_beta	96.385871
_cell_angle_gamma	89.998745
loop_
_atom_site_label
_atom_site_type_symbol
_atom_site_fract_x
_atom_site_fract_y
_atom_site_fract_z
O1	O	1.186944	0.113335	-0.116561
O2	O	0.926544	0.113372	-0.130520
O3	O	1.063723	0.113343	0.006660
O4	O	1.049764	0.113364	-0.253740
O5	O	1.063713	-0.113640	0.006661
O6	O	0.926534	-0.113610	-0.130519
O7	O	1.186934	-0.113647	-0.116560
Zn8	Zn	1.056732	-0.149667	-0.123539
Zn9	Zn	1.056745	0.149392	-0.123541
O10	O	1.049754	-0.113618	-0.253740
C11	C	0.893214	-0.000114	-0.129895
C12	C	0.793917	-0.000100	-0.128024
C13	C	0.736692	-0.000096	-0.208614
C14	C	0.643392	-0.000116	-0.206850
C15	C	0.607320	-0.000132	-0.124497
C16	C	0.664552	-0.000140	-0.043902
C17	C	0.757850	-0.000130	-0.045666
C18	C	0.470090	-0.000160	-0.040231
C19	C	0.376786	-0.000168	-0.038466
C20	C	0.355632	-0.000146	-0.201415
C21	C	0.448930	-0.000135	-0.203179
C22	C	0.506156	-0.000142	-0.122584
N23	N	1.056729	-0.353767	-0.123538
C24	C	1.108499	-0.421548	-0.175016
C25	C	1.108514	-0.578711	-0.175015
C26	C	1.220263	-0.000158	-0.117185
C27	C	1.319561	-0.000163	-0.119056
C28	C	1.063094	-0.000148	0.039985
C29	C	1.061223	-0.000146	0.139282
N30	N	1.056755	0.353491	-0.123535
C31	C	1.050384	-0.000125	-0.287065
C32	C	1.052254	-0.000117	-0.386362
C33	C	1.141812	-0.000159	0.196507
C34	C	1.140049	-0.000145	0.289807
C35	C	1.057696	-0.000128	0.325879
C36	C	0.977101	-0.000112	0.268646
C37	C	0.978865	-0.000116	0.175349
C38	C	0.973430	-0.000106	0.463109
C39	C	0.971665	-0.000105	0.556413
C40	C	1.134614	-0.000135	0.577567
C41	C	1.136378	-0.000140	0.484269
C42	C	1.055782	-0.000125	0.427043
H43	H	0.347419	-0.000182	0.028593
H44	H	1.152815	-0.363226	-0.219086
H45	H	1.200238	-0.000142	0.624165
C46	C	0.996863	-0.432541	-0.063994
C47	C	0.894180	-0.413045	-0.077279
C48	C	0.834311	-0.491815	-0.017733
C49	C	0.877127	-0.590082	0.055099
C50	C	0.979816	-0.609582	0.068389
C51	C	1.039684	-0.530812	0.008842
H52	H	0.862480	-0.340298	-0.131197
H53	H	0.758294	-0.477379	-0.027571
H54	H	0.832808	-0.648392	0.099179
H55	H	1.011515	-0.682329	0.122306
H56	H	1.115701	-0.545248	0.018680
H57	H	0.766054	-0.000082	-0.275675
H58	H	1.152831	-0.637001	-0.219092
H59	H	0.907800	-0.000091	0.416517
C60	C	0.533042	-0.000164	0.048424
C61	C	0.528952	-0.118032	0.115885
C62	C	0.591906	-0.118029	0.204536
C63	C	0.658949	-0.000157	0.225725
C64	C	0.663041	0.117720	0.158262
C65	C	0.600088	0.117717	0.069611
H66	H	0.479321	-0.205296	0.100201
H67	H	0.588876	-0.205290	0.254477
H68	H	0.705550	-0.000155	0.291350
H69	H	0.712673	0.204984	0.173946
H70	H	0.603118	0.204978	0.019670
H71	H	0.596802	-0.000111	-0.272474
H72	H	0.910047	-0.000089	0.298024
H73	H	0.635175	-0.000173	0.023152
C74	C	1.228701	-0.000163	0.352751
C75	C	1.296147	-0.118048	0.348657
C76	C	1.384804	-0.118063	0.411600
C77	C	1.406017	-0.000193	0.478637
C78	C	1.338570	0.117701	0.482734
C79	C	1.249912	0.117716	0.419791
H80	H	1.280446	-0.205310	0.299029
H81	H	1.434733	-0.205336	0.408566
H82	H	1.471646	-0.000204	0.525231
H83	H	1.354271	0.204963	0.532362
H84	H	1.199984	0.204989	0.422825
H85	H	0.478296	-0.000110	-0.270239
H86	H	0.309033	-0.000147	-0.267039
H87	H	0.913240	-0.000105	0.128756
H88	H	1.012426	-0.588227	-0.079464
H89	H	0.804443	-0.000133	0.019958
H90	H	1.208874	-0.000181	0.167145
H91	H	1.203437	-0.000163	0.454903
H92	H	0.904606	-0.000113	0.585780
