data_functionalizedCrystal
_audit_creation_method	'MofGen! by Chris Wilmer'
_symmetry_space_group_name_H-M	'P1'
_symmetry_Int_Tables_number	1
_symmetry_cell_setting	triclinic
loop_
_symmetry_equiv_pos_as_xyz
  x,y,z
_cell_length_a	14.519709
_cell_length_b	10.723023
_cell_length_c	9.198806
_cell_angle_alpha	89.996513
_cell_angle_beta	89.995869
_cell_angle_gamma	84.073846
loop_
_atom_site_label
_atom_site_type_symbol
_atom_site_fract_x
_atom_site_fract_y
_atom_site_fract_z
O1	O	0.129344	1.655979	-0.120881
O2	O	0.629344	2.155979	0.379119
O3	O	0.141726	1.292711	-0.120888
O4	O	0.641726	1.792711	0.379112
O5	O	0.001346	1.483976	-0.120871
O6	O	0.501346	1.983976	0.379129
O7	O	0.269724	1.464713	-0.120898
O8	O	0.769724	1.964713	0.379102
O9	O	0.001345	1.483961	0.120914
O10	O	0.501345	1.983961	0.620914
O11	O	0.141725	1.292695	0.120897
O12	O	0.641725	1.792695	0.620897
O13	O	0.129344	1.655964	0.120904
O14	O	0.629344	2.155964	0.620904
Cu15	Cu	0.135534	1.474328	0.142978
Cu16	Cu	0.635534	1.974328	0.642978
Cu17	Cu	0.135535	1.474346	-0.142961
Cu18	Cu	0.635535	1.974346	0.357039
O19	O	0.269724	1.464698	0.120887
O20	O	0.769724	1.964698	0.620887
C21	C	0.140825	1.246212	0.000004
C22	C	0.640825	1.746212	0.500004
C23	C	0.138129	1.107683	0.000002
C24	C	0.638129	1.607683	0.500002
C25	C	0.136927	1.045914	0.125253
C26	C	0.636927	1.545914	0.625253
C27	C	0.134141	0.902737	0.125254
C28	C	0.634141	1.402737	0.625254
C29	C	-0.033019	1.483071	0.000022
C30	C	0.466981	1.983071	0.500022
C31	C	-0.135414	1.480381	0.000022
C32	C	0.364586	1.980381	0.500022
C33	C	-0.510360	1.470477	-0.000015
C34	C	-0.010360	1.970477	0.499985
C35	C	-0.406038	1.473227	-0.000004
C36	C	0.093962	1.973227	0.499996
C37	C	-0.322890	1.475428	0.000005
C38	C	0.177110	1.975428	0.500005
C39	C	-0.218562	1.478179	0.000013
C40	C	0.281438	1.978179	0.500013
C41	C	0.304088	1.465603	-0.000008
C42	C	0.804088	1.965603	0.499992
C43	C	0.406483	1.468293	-0.000019
C44	C	0.906483	1.968293	0.499981
C45	C	0.130245	1.702462	0.000009
C46	C	0.630245	2.202462	0.500009
C47	C	0.132940	1.840992	0.000001
C48	C	0.632940	2.340992	0.500001
N49	N	0.135534	1.474325	0.344092
N50	N	0.635534	1.974325	0.844092
N51	N	0.135529	1.474359	-0.344075
N52	N	0.635529	1.974359	0.155925
C53	C	0.076332	1.554634	0.416296
C54	C	0.576332	2.054634	0.916296
C55	C	0.076329	1.554653	0.583708
C56	C	0.576329	2.054653	1.083708
H57	H	0.137093	1.054567	-0.107229
H58	H	0.637093	1.554567	0.392771
H59	H	0.025646	1.623372	0.354175
H60	H	0.525646	2.123372	0.854175
H61	H	0.025647	1.623414	0.645800
H62	H	0.525647	2.123414	1.145800
F63	F	0.201787	1.384490	0.574779
F64	F	0.701787	1.884490	1.074779
F65	F	0.132797	0.833309	0.265419
F66	F	0.632797	1.333309	0.765419
H67	H	0.137956	1.099031	0.232484
H68	H	0.637956	1.599031	0.732484
F69	F	0.134298	0.910409	-0.140169
F70	F	0.634298	1.410409	0.359831
F71	F	0.201777	1.384465	0.425284
F72	F	0.701777	1.884465	0.925284
