data_functionalizedCrystal
_audit_creation_method	'MofGen! by Chris Wilmer'
_symmetry_space_group_name_H-M	'P1'
_symmetry_Int_Tables_number	1
_symmetry_cell_setting	triclinic
loop_
_symmetry_equiv_pos_as_xyz
  x,y,z
_cell_length_a	17.639054
_cell_length_b	17.640280
_cell_length_c	19.805399
_cell_angle_alpha	78.776890
_cell_angle_beta	78.754906
_cell_angle_gamma	87.823438
loop_
_atom_site_label
_atom_site_type_symbol
_atom_site_fract_x
_atom_site_fract_y
_atom_site_fract_z
Zn1	Zn	1.222325	-0.067902	-0.583014
Zn2	Zn	1.247938	-0.194904	-0.452312
Zn3	Zn	1.095320	-0.093565	-0.443370
Zn4	Zn	1.120975	-0.220495	-0.539011
O5	O	1.171640	-0.144216	-0.504427
O6	O	1.332010	-0.063299	-0.587834
O7	O	1.227675	-0.181492	-0.356401
O8	O	1.090711	0.016111	-0.476568
O9	O	1.350828	-0.156607	-0.491808
O10	O	1.184022	0.034966	-0.579163
O11	O	1.115547	-0.107038	-0.349832
O12	O	0.992436	-0.131852	-0.433900
O13	O	1.134437	-0.200223	-0.639573
O14	O	1.011285	-0.225108	-0.504166
O15	O	1.208899	-0.088113	-0.671902
O16	O	1.252552	-0.304571	-0.449140
O17	O	1.159273	-0.323372	-0.512837
C18	C	0.974302	-0.184042	-0.463288
C19	C	0.889883	-0.201098	-0.445702
C20	C	1.211496	-0.341523	-0.477203
C21	C	1.228617	-0.425917	-0.465593
C22	C	0.780680	-0.273639	-0.370869
C23	C	0.860002	-0.257607	-0.387399
C24	C	0.840447	-0.160603	-0.487501
C25	C	0.761121	-0.176630	-0.470981
C26	C	0.731244	-0.233148	-0.412664
C27	C	0.711686	-0.136138	-0.512776
C28	C	0.632367	-0.152162	-0.496255
C29	C	0.602483	-0.208676	-0.437939
C30	C	0.651925	-0.249171	-0.396143
C31	C	0.741564	-0.079616	-0.571090
C32	C	0.692128	-0.039125	-0.612885
C33	C	0.612808	-0.055152	-0.596368
C34	C	0.582925	-0.111666	-0.538052
C35	C	0.563366	-0.014656	-0.638164
C36	C	0.484047	-0.030679	-0.621643
C37	C	0.503606	-0.127689	-0.521531
C38	C	1.041889	-0.752604	-0.592934
C39	C	1.057978	-0.831905	-0.582004
C40	C	1.155170	-0.812249	-0.515776
C41	C	1.139092	-0.732944	-0.526704
C42	C	1.082450	-0.703128	-0.565283
C43	C	1.179653	-0.683469	-0.499052
C44	C	1.163573	-0.604171	-0.509976
C45	C	1.106933	-0.574349	-0.548551
C46	C	1.066370	-0.623831	-0.576206
C47	C	1.236291	-0.713287	-0.460469
C48	C	1.276852	-0.663812	-0.432818
C49	C	1.260776	-0.584512	-0.443746
C50	C	1.204136	-0.554690	-0.482321
C51	C	1.301338	-0.535030	-0.416091
C52	C	1.285259	-0.455733	-0.427014
C53	C	1.188056	-0.475393	-0.493245
C54	C	1.369748	-0.104236	-0.545726
C55	C	1.454170	-0.087198	-0.563326
C56	C	1.171672	-0.144160	-0.680985
C57	C	1.171686	-0.144136	-0.756224
C58	C	1.131648	0.053864	-0.531776
C59	C	1.114606	0.138275	-0.543431
C60	C	1.210459	-0.085758	-0.808403
C61	C	1.210463	-0.085734	-0.879096
C62	C	1.171697	-0.144093	-0.897609
C63	C	1.132920	-0.202474	-0.845423
C64	C	1.132912	-0.202494	-0.774731
C65	C	1.132948	-0.202395	-1.130515
C66	C	1.132961	-0.202371	-1.201213
C67	C	1.210499	-0.085635	-1.234880
C68	C	1.210491	-0.085655	-1.164188
C69	C	1.171710	-0.144033	-1.112009
C70	C	1.171706	-0.144058	-1.035355
C71	C	1.171706	-0.144072	-0.974261
C72	C	1.171639	-0.144209	-0.328572
C73	C	1.171729	-0.143989	-0.253394
H74	H	0.479280	-0.173719	-0.474048
H75	H	0.587704	0.031366	-0.685642
H76	H	1.242073	-0.038098	-1.277374
H77	H	0.756354	-0.319669	-0.323386
O78	O	1.018652	-0.879917	-0.608989
C79	C	0.986583	-0.911587	-0.713050
C80	C	1.031170	-0.857166	-0.682587
H81	H	0.996675	-0.893203	-0.772557
H82	H	1.007810	-0.973392	-0.698674
H83	H	0.922203	-0.908421	-0.690457
H84	H	1.095557	-0.860264	-0.705163
H85	H	1.009879	-0.795385	-0.696956
O86	O	1.248197	-0.028989	-0.929697
C87	C	1.325076	0.086820	-0.955629
C88	C	1.282387	0.022590	-0.898254
H89	H	1.352716	0.128547	-0.930229
H90	H	1.371875	0.060022	-0.992190
H91	H	1.282188	0.119471	-0.986949
H92	H	1.325215	-0.010085	-0.866884
H93	H	1.235577	0.049435	-0.861742
H94	H	1.101353	-0.249988	-0.860501
H95	H	1.201286	-0.836537	-0.484363
H96	H	1.318287	-0.415449	-0.404497
O97	O	1.356437	-0.564022	-0.378718
C98	C	1.477088	-0.632836	-0.378709
C99	C	1.414760	-0.600024	-0.421122
H100	H	1.524249	-0.661967	-0.412971
H101	H	1.503381	-0.583879	-0.360836
H102	H	1.449741	-0.677004	-0.330896
H103	H	1.442048	-0.555868	-0.468964
H104	H	1.388472	-0.649023	-0.438942
O105	O	0.436134	0.008696	-0.662335
C106	C	0.425093	0.106633	-0.763355
C107	C	0.479444	0.062083	-0.717341
H108	H	0.460085	0.149818	-0.807829
H109	H	0.395048	0.064253	-0.786198
H110	H	0.379893	0.138846	-0.730067
H111	H	0.524688	0.029868	-0.750582
H112	H	0.509432	0.104501	-0.694494
H113	H	1.249383	-0.777856	-0.451579
H114	H	1.101390	-0.249896	-1.216281
H115	H	0.900251	-0.290584	-0.353360
H116	H	0.806150	-0.066569	-0.584537
H117	H	0.864784	-0.114583	-0.534981
H118	H	1.093836	-0.509781	-0.557439
H119	H	1.242029	-0.038237	-0.793337
H120	H	1.322968	-0.688099	-0.401405
O121	O	0.525447	-0.224314	-0.421988
C122	C	0.415609	-0.266872	-0.460456
C123	C	0.502859	-0.249206	-0.478604
H124	H	0.397317	-0.286986	-0.506225
H125	H	0.402712	-0.314255	-0.411625
H126	H	0.382193	-0.212393	-0.450097
H127	H	0.536334	-0.303640	-0.488998
H128	H	0.515697	-0.201793	-0.527416
H129	H	1.020252	-0.599553	-0.607627
O130	O	0.721213	0.015671	-0.669597
C131	C	0.808817	0.043848	-0.781026
C132	C	0.775932	-0.018285	-0.716845
H133	H	0.853075	0.016421	-0.819236
H134	H	0.759895	0.070029	-0.808118
H135	H	0.837864	0.091112	-0.763209
H136	H	0.746893	-0.065595	-0.734603
H137	H	0.824883	-0.044404	-0.689767
H138	H	0.995771	-0.728326	-0.624355
H139	H	1.242061	-0.038135	-1.149121
O140	O	1.095257	-0.259170	-1.079923
C141	C	1.018276	-0.374911	-1.053992
C142	C	1.060957	-0.310672	-1.111363
H143	H	0.990519	-0.416558	-1.079388
H144	H	1.061115	-0.407662	-1.022672
H145	H	0.971549	-0.348032	-1.017432
H146	H	1.107683	-0.337487	-1.147970
H147	H	1.018070	-0.277928	-1.142630
O148	O	1.095250	-0.259287	-0.724132
C149	C	1.018324	-0.375065	-0.698193
C150	C	1.060958	-0.310800	-0.755566
H151	H	0.990574	-0.416721	-0.723585
H152	H	1.061191	-0.407799	-0.666896
H153	H	0.971595	-0.348213	-0.661613
H154	H	1.107686	-0.337588	-0.792193
H155	H	1.018044	-0.278074	-0.786811
H156	H	1.141938	-0.451115	-0.524666
O157	O	0.623019	-0.304080	-0.339454
C158	C	0.650788	-0.398658	-0.241932
C159	C	0.683624	-0.336485	-0.306096
H160	H	0.699773	-0.424886	-0.214952
H161	H	0.606605	-0.371281	-0.203623
H162	H	0.621675	-0.445876	-0.259751
H163	H	0.712776	-0.289248	-0.288342
H164	H	0.727768	-0.363919	-0.344391
