data_functionalizedCrystal
_audit_creation_method	'MofGen! by Chris Wilmer'
_symmetry_space_group_name_H-M	'P1'
_symmetry_Int_Tables_number	1
_symmetry_cell_setting	triclinic
loop_
_symmetry_equiv_pos_as_xyz
  x,y,z
_cell_length_a	11.792241
_cell_length_b	8.559649
_cell_length_c	10.868271
_cell_angle_alpha	89.996286
_cell_angle_beta	90.001559
_cell_angle_gamma	103.013960
loop_
_atom_site_label
_atom_site_type_symbol
_atom_site_fract_x
_atom_site_fract_y
_atom_site_fract_z
O1	O	-0.038480	-2.119795	0.102301
O2	O	0.020091	-1.655099	0.102309
O3	O	-0.175397	-1.898724	0.102296
O4	O	0.157008	-1.876170	0.102314
O5	O	-0.175390	-1.898702	-0.102349
O6	O	0.020098	-1.655077	-0.102336
O7	O	-0.038472	-2.119773	-0.102343
Zn8	Zn	-0.009186	-1.887421	-0.134831
Zn9	Zn	-0.009196	-1.887450	0.134797
O10	O	0.157016	-1.876148	-0.102331
C11	C	-0.217555	-1.897296	-0.000026
C12	C	-0.343180	-1.893056	-0.000025
C13	C	0.024533	-1.595596	-0.000013
C14	C	0.037745	-1.418331	-0.000010
C15	C	-0.042915	-2.179275	-0.000019
C16	C	-0.056127	-2.356541	-0.000014
C17	C	-0.573179	-1.885258	-0.000004
C18	C	-0.445190	-1.889591	-0.000015
C19	C	0.199173	-1.877576	-0.000006
C20	C	0.324799	-1.881816	0.000001
N21	N	-0.009181	-1.887413	-0.318846
C22	C	-0.009181	-1.887425	-0.430183
C23	C	-0.009194	-1.887446	-0.569861
N24	N	-0.009211	-1.887471	0.318811
H25	H	-0.146602	-1.439254	-0.000012
C26	C	0.159984	-1.306582	-0.000003
N27	N	0.252052	-1.222413	0.000000
