data_functionalizedCrystal
_audit_creation_method	'MofGen! by Chris Wilmer'
_symmetry_space_group_name_H-M	'P1'
_symmetry_Int_Tables_number	1
_symmetry_cell_setting	triclinic
loop_
_symmetry_equiv_pos_as_xyz
  x,y,z
_cell_length_a	14.853567
_cell_length_b	14.853554
_cell_length_c	13.330367
_cell_angle_alpha	90.002350
_cell_angle_beta	89.995418
_cell_angle_gamma	96.367813
loop_
_atom_site_label
_atom_site_type_symbol
_atom_site_fract_x
_atom_site_fract_y
_atom_site_fract_z
O1	O	1.196363	-0.117704	-0.083349
O2	O	0.933903	-0.131726	-0.083366
O3	O	1.072150	0.006516	-0.083356
O4	O	1.058116	-0.255946	-0.083359
O5	O	1.072130	0.006519	0.083491
O6	O	0.933883	-0.131723	0.083481
O7	O	1.196343	-0.117701	0.083498
Cu8	Cu	1.065111	-0.124712	0.098724
Cu9	Cu	1.065135	-0.124715	-0.098592
O10	O	1.058096	-0.255943	0.083489
C11	C	0.900304	-0.131089	0.000056
C12	C	0.800221	-0.129185	0.000049
C13	C	0.387691	-0.039019	0.000072
C14	C	0.366402	-0.203253	0.000070
C15	C	0.460436	-0.205043	0.000067
C16	C	0.518102	-0.123820	0.000065
C17	C	0.481734	-0.040806	0.000066
C18	C	0.496811	-0.288055	0.000055
C19	C	0.590850	-0.289848	0.000051
C20	C	0.648518	-0.208624	0.000056
C21	C	0.612144	-0.125607	0.000059
C22	C	0.669810	-0.044384	0.000057
C23	C	0.633439	0.038633	0.000066
C24	C	0.539401	0.040418	0.000072
C25	C	0.742555	-0.210408	0.000051
C26	C	0.763853	-0.046172	0.000051
C27	C	1.071506	0.040106	0.000065
C28	C	1.069607	0.140190	0.000060
C29	C	1.229942	-0.118338	0.000074
C30	C	1.330025	-0.120242	0.000074
N31	N	1.065101	-0.124709	0.237506
C32	C	1.061562	0.563365	-0.090890
C33	C	1.061540	0.563363	0.091013
C34	C	1.063332	0.469329	0.091014
C35	C	1.064237	0.422309	0.000062
C36	C	1.063351	0.469322	-0.090892
C37	C	1.064209	0.422308	0.181966
C38	C	1.066000	0.328268	0.181971
C39	C	1.066912	0.281247	0.091017
C40	C	1.066026	0.328266	0.000060
C41	C	1.066932	0.281246	-0.090892
C42	C	1.066053	0.328264	-0.181851
C43	C	1.064263	0.422301	-0.181846
C44	C	1.068702	0.187211	0.091012
C45	C	1.068721	0.187203	-0.090894
C46	C	1.058744	0.710468	0.000064
C47	C	1.060656	0.610385	0.000062
N48	N	1.065152	-0.124711	-0.237373
C49	C	1.003916	-0.185904	0.710124
C50	C	1.126378	-0.063519	0.710101
C51	C	1.126367	-0.063516	0.605082
C52	C	1.065132	-0.124709	0.552580
C53	C	1.003906	-0.185905	0.605096
C54	C	1.187598	-0.002328	0.552559
C55	C	1.187591	-0.002323	0.447534
C56	C	1.126350	-0.063513	0.395030
C57	C	1.065121	-0.124710	0.447552
C58	C	1.003886	-0.185904	0.395050
C59	C	0.942652	-0.247098	0.447571
C60	C	0.942665	-0.247095	0.552592
C61	C	1.126337	-0.063515	0.290008
C62	C	1.003875	-0.185904	0.290022
H63	H	0.680402	0.104765	0.000058
C64	C	1.066978	0.276558	0.282018
H65	H	1.066189	0.318032	0.336185
H66	H	1.015149	0.233057	0.285802
H67	H	1.120219	0.246694	0.285797
C68	C	0.499391	0.131726	0.000071
H69	H	0.435127	0.121155	0.000063
H70	H	0.519170	0.165179	0.058253
H71	H	0.519179	0.165168	-0.058121
H72	H	0.449853	-0.354182	0.000046
H73	H	0.620455	-0.357446	0.000043
C74	C	0.875298	-0.314407	0.389811
H75	H	0.884065	-0.305638	0.319743
H76	H	0.885154	-0.374596	0.407018
H77	H	0.815118	-0.304498	0.407026
H78	H	1.069463	0.148927	-0.164960
H79	H	1.066784	0.289967	-0.255904
H80	H	1.069397	0.148930	0.165069
C81	C	1.254952	0.064977	0.610310
H82	H	1.246180	0.056218	0.680379
H83	H	1.315127	0.055074	0.593091
H84	H	1.245088	0.125168	0.593103
H85	H	0.358073	0.028572	0.000084
H86	H	0.772164	-0.278000	0.000045
C87	C	0.936519	-0.253220	0.232272
H88	H	0.945279	-0.244457	0.162203
H89	H	0.946379	-0.313406	0.249485
H90	H	0.876341	-0.243311	0.249493
H91	H	1.237449	0.047505	0.404778
C92	C	1.193731	0.003787	0.767850
H93	H	1.184966	-0.004974	0.837919
H94	H	1.253907	-0.006110	0.750624
H95	H	1.183861	0.063978	0.750647
H96	H	1.063547	0.460591	-0.255899
C97	C	1.193684	0.003789	0.232240
H98	H	1.230154	0.040235	0.278550
H99	H	1.231240	-0.028712	0.191257
H100	H	1.161203	0.041385	0.191284
C101	C	1.060592	0.615078	-0.190937
H102	H	1.059392	0.677818	-0.177915
H103	H	1.113419	0.606474	-0.228306
H104	H	1.008349	0.592854	-0.228306
H105	H	0.319446	-0.269381	0.000063
H106	H	1.060797	0.601652	0.165062
H107	H	0.810799	0.019971	0.000053
C108	C	0.875324	-0.314408	0.610366
H109	H	0.884110	-0.305650	0.680432
H110	H	0.815143	-0.304513	0.593175
H111	H	0.885192	-0.374598	0.593146
C112	C	1.063221	0.474030	0.282003
H113	H	1.062043	0.536771	0.268975
H114	H	1.010979	0.451817	0.319378
H115	H	1.116049	0.465427	0.319370
C116	C	0.936567	-0.253215	0.767890
H117	H	0.945343	-0.244457	0.837958
H118	H	0.876390	-0.243316	0.750688
H119	H	0.946434	-0.313406	0.750674
