data_functionalizedCrystal
_audit_creation_method	'MofGen! by Chris Wilmer'
_symmetry_space_group_name_H-M	'P1'
_symmetry_Int_Tables_number	1
_symmetry_cell_setting	triclinic
loop_
_symmetry_equiv_pos_as_xyz
  x,y,z
_cell_length_a	19.077068
_cell_length_b	12.759401
_cell_length_c	12.759393
_cell_angle_alpha	90.022497
_cell_angle_beta	92.262348
_cell_angle_gamma	87.672141
loop_
_atom_site_label
_atom_site_type_symbol
_atom_site_fract_x
_atom_site_fract_y
_atom_site_fract_z
Zn1	Zn	-0.280151	-1.589373	-0.610815
Zn2	Zn	-0.397864	-1.582166	-0.442173
Zn3	Zn	-0.280187	-1.413670	-0.435147
Zn4	Zn	-0.397814	-1.406568	-0.617802
O5	O	-0.339004	-1.497944	-0.526484
O6	O	-0.295772	-1.735438	-0.588460
O7	O	-0.382291	-1.559770	-0.294222
O8	O	-0.181691	-1.442965	-0.452585
O9	O	-0.382256	-1.730142	-0.464560
O10	O	-0.181665	-1.572054	-0.581647
O11	O	-0.295833	-1.435977	-0.289060
O12	O	-0.295784	-1.265707	-0.459361
O13	O	-0.382169	-1.430862	-0.763894
O14	O	-0.382204	-1.260490	-0.593557
O15	O	-0.295723	-1.565168	-0.758760
O16	O	-0.496349	-1.552884	-0.471335
O17	O	-0.496311	-1.423874	-0.600369
C18	C	-0.338993	-1.224977	-0.526455
C19	C	-0.339006	-1.108200	-0.526469
C20	C	-0.521867	-1.486855	-0.537396
C21	C	-0.600097	-1.482207	-0.542099
C22	C	-0.384072	-1.050645	-0.596242
C23	C	-0.384074	-0.940921	-0.596260
C24	C	-0.293940	-0.946317	-0.456723
C25	C	-0.293935	-1.056039	-0.456711
C26	C	-0.636846	-1.547244	-0.477183
C27	C	-0.710351	-1.542879	-0.481613
C28	C	-0.747106	-1.473470	-0.550954
C29	C	-0.710352	-1.408430	-0.615877
C30	C	-0.636849	-1.412801	-0.611452
C31	C	-0.966939	-1.453193	-0.571392
C32	C	-1.040448	-1.448824	-0.575810
C33	C	-1.040442	-1.583275	-0.441547
C34	C	-0.966936	-1.587636	-0.437124
C35	C	-0.930189	-1.522600	-0.502050
N36	N	-0.822240	-1.469004	-0.555482
N37	N	-0.855056	-1.527072	-0.497528
C38	C	-0.155427	-1.509105	-0.515553
C39	C	-0.077197	-1.513862	-0.510895
C40	C	-0.338936	-1.498027	-0.800514
C41	C	-0.338908	-1.498062	-0.917289
C42	C	-0.339013	-0.771977	-0.526507
C43	C	-0.339012	-0.888754	-0.526499
C44	C	-0.293888	-1.568001	-0.969479
C45	C	-0.293858	-1.568020	-1.079201
C46	C	-0.383873	-1.428160	-1.084534
C47	C	-0.383899	-1.428136	-0.974813
C48	C	-0.339021	-1.497925	-0.253518
C49	C	-0.338851	-1.498106	-0.136732
H50	H	-0.420770	-1.093111	-0.653046
H51	H	-0.257232	-1.102902	-0.399893
C52	C	-0.244370	-0.888929	-0.379988
N53	N	-0.207034	-0.845705	-0.322187
H54	H	-0.937012	-1.644154	-0.380661
H55	H	-0.420771	-0.894064	-0.653077
C56	C	-0.596422	-1.623598	-0.400900
N57	N	-0.565976	-1.681112	-0.343443
H58	H	-1.070372	-1.392316	-0.632295
C59	C	-0.750786	-1.332076	-0.692150
N60	N	-0.781240	-1.274560	-0.749596
C61	C	-0.244334	-1.644960	-1.136605
N62	N	-0.207030	-1.702915	-1.179841
C63	C	-0.596426	-1.341255	-0.682865
N64	N	-0.565980	-1.287367	-0.736659
C65	C	-0.926527	-1.381704	-0.642868
N66	N	-0.896086	-1.327875	-0.696727
H67	H	-0.257251	-1.624936	-0.922645
H68	H	-0.420505	-1.371230	-1.131384
H69	H	-0.420559	-1.371176	-0.932319
H70	H	-0.740268	-1.595839	-0.428751
H71	H	-1.070369	-1.636225	-0.388689
