data_functionalizedCrystal
_audit_creation_method	'MofGen! by Chris Wilmer'
_symmetry_space_group_name_H-M	'P1'
_symmetry_Int_Tables_number	1
_symmetry_cell_setting	triclinic
loop_
_symmetry_equiv_pos_as_xyz
  x,y,z
_cell_length_a	31.640172
_cell_length_b	27.440280
_cell_length_c	27.440280
_cell_angle_alpha	60.004742
_cell_angle_beta	90.008206
_cell_angle_gamma	60.004358
loop_
_atom_site_label
_atom_site_type_symbol
_atom_site_fract_x
_atom_site_fract_y
_atom_site_fract_z
Zr1	Zr	0.407241	0.533323	-0.063881
O2	O	0.339762	0.634985	-0.141700
O3	O	0.427919	0.431661	-0.040026
O4	O	0.427929	0.533311	-0.141687
O5	O	0.339752	0.533345	0.040155
O6	O	0.497486	0.533301	-0.141677
O7	O	0.339751	0.533336	-0.040038
O8	O	0.497468	0.351468	0.040177
O9	O	0.339771	0.715178	-0.141699
O10	O	0.488657	0.473468	-0.029843
O11	O	0.436748	0.473483	0.029996
O12	O	0.436760	0.593162	-0.089697
O13	O	0.384851	0.593177	-0.029858
Zr14	Zr	0.518178	0.533322	0.064035
Zr15	Zr	0.518176	0.533307	-0.063864
Zr16	Zr	0.407242	0.533338	0.064018
Zr17	Zr	0.407255	0.661221	-0.063879
Zr18	Zr	0.518164	0.405424	0.064034
O19	O	0.497500	0.634984	0.040181
O20	O	0.497497	0.634962	-0.141676
O21	O	0.339764	0.635007	0.040156
O22	O	0.585657	0.431660	0.141855
O23	O	0.585655	0.431638	-0.040002
O24	O	0.427921	0.431683	0.141830
O25	O	0.585666	0.533300	-0.040000
O26	O	0.497490	0.533334	0.141842
O27	O	0.427933	0.533344	0.141832
O28	O	0.585667	0.533309	0.040193
O29	O	0.427949	0.715165	-0.141685
O30	O	0.497469	0.351480	0.141840
O31	O	0.585648	0.351467	0.141854
O32	O	0.585647	0.351455	0.040191
O33	O	0.339772	0.715190	-0.040036
O34	O	0.427951	0.715177	-0.040023
O35	O	0.488659	0.473483	0.089852
O36	O	0.540567	0.473468	0.030012
O37	O	0.488670	0.593162	-0.029842
O38	O	0.436762	0.593176	0.029998
C39	C	0.462691	0.373342	0.000075
C40	C	0.462685	0.319046	0.000075
C41	C	0.323946	0.533343	0.000056
C42	C	0.276851	0.533349	0.000049
C43	C	0.489820	-0.017703	-0.031153
C44	C	0.489824	-0.068727	-0.031151
O45	O	0.512884	-0.095140	-0.057698
N46	N	0.462728	-0.094236	0.000083
C47	C	0.435629	-0.068723	0.031323
O48	O	0.412583	-0.095106	0.057891
C49	C	0.435628	-0.017703	0.031324
C50	C	0.462722	0.007807	0.000083
C51	C	0.516912	0.007807	-0.062391
C52	C	0.516906	0.058828	-0.062394
C53	C	0.489808	0.084339	-0.031158
C54	C	0.462716	0.058829	0.000080
C55	C	0.408533	0.007805	0.062567
C56	C	0.408534	0.058828	0.062566
C57	C	0.435628	0.084339	0.031325
C58	C	0.435613	0.135361	0.031314
N59	N	0.462709	0.160869	0.000080
C60	C	0.489807	0.135359	-0.031156
C61	C	0.435635	-0.175868	0.031318
C62	C	0.435633	-0.226883	0.031313
C63	C	0.489829	-0.226885	-0.031160
C64	C	0.489828	-0.175866	-0.031158
C65	C	0.462731	-0.150360	0.000084
C66	C	0.489793	0.242507	-0.031159
C67	C	0.489783	0.293535	-0.031161
C68	C	0.435590	0.293530	0.031315
C69	C	0.435597	0.242509	0.031314
C70	C	0.462702	0.216997	0.000076
O71	O	0.412567	0.161804	0.057849
O72	O	0.512855	0.161741	-0.057713
C73	C	0.011935	0.470837	0.031333
C74	C	-0.165050	0.470825	0.031344
O75	O	-0.164897	0.417689	0.057937
N76	N	-0.214270	0.533304	0.000100
C77	C	-0.219242	0.595790	-0.031146
O78	O	-0.265167	0.648931	-0.057715
C79	C	-0.042258	0.595801	-0.031153
C80	C	0.006961	0.533318	0.000088
C81	C	0.061151	0.408359	0.062572
C82	C	0.105395	0.408363	0.062566
C83	C	0.100421	0.470844	0.031321
C84	C	0.051205	0.533322	0.000082
C85	C	-0.047230	0.658286	-0.062396
C86	C	-0.002979	0.658283	-0.062393
C87	C	0.046240	0.595801	-0.031152
C88	C	0.090475	0.595807	-0.031169
N89	N	0.139694	0.533328	0.000075
C90	C	0.144667	0.470847	0.031320
C91	C	-0.312160	0.595779	-0.031140
C92	C	-0.356406	0.595777	-0.031139
C93	C	-0.302211	0.470812	0.031352
C94	C	-0.257964	0.470815	0.031347
C95	C	-0.262940	0.533301	0.000104
C96	C	0.237580	0.470859	0.031305
C97	C	0.281824	0.470868	0.031294
C98	C	0.227626	0.595833	-0.031194
C99	C	0.183385	0.595824	-0.031186
C100	C	0.188365	0.533332	0.000067
O101	O	0.090361	0.648915	-0.057743
O102	O	0.190597	0.417713	0.057896
C103	C	-0.032309	0.470833	0.031339
C104	C	-0.081525	0.533311	0.000099
C105	C	-0.086499	0.595792	-0.031146
C106	C	-0.125771	0.533308	0.000100
C107	C	-0.120798	0.470827	0.031345
C108	C	-0.071579	0.408349	0.062589
C109	C	-0.027335	0.408352	0.062583
C110	C	-0.135718	0.658271	-0.062389
C111	C	-0.179959	0.658262	-0.062382
C112	C	-0.174986	0.595781	-0.031137
C113	C	0.601473	0.533302	0.000099
C114	C	0.648568	0.533295	0.000106
C115	C	0.462707	0.533304	-0.159905
C116	C	0.462707	0.533297	-0.214202
C117	C	0.462727	0.693303	0.000079
C118	C	0.462733	0.747599	0.000080
C119	C	0.435624	0.595813	-0.582179
C120	C	0.435626	0.595817	-0.633201
O121	O	0.412603	0.648953	-0.686160
N122	N	0.462714	0.533338	-0.627475
C123	C	0.489808	0.470852	-0.570723
O124	O	0.512849	0.417710	-0.570538
C125	C	0.489809	0.470849	-0.519702
C126	C	0.462714	0.533331	-0.525432
C127	C	0.408532	0.658290	-0.587907
C128	C	0.408530	0.658286	-0.536888
C129	C	0.435620	0.595805	-0.480141
C130	C	0.462712	0.533327	-0.474413
C131	C	0.516905	0.408364	-0.462950
C132	C	0.516904	0.408366	-0.411928
C133	C	0.489809	0.470848	-0.417659
C134	C	0.489800	0.470842	-0.366648
N135	N	0.462711	0.533320	-0.372373
C136	C	0.435621	0.595802	-0.429120
C137	C	0.489804	0.470863	-0.677873
C138	C	0.489800	0.470866	-0.728892
C139	C	0.435619	0.595831	-0.791367
C140	C	0.435620	0.595827	-0.740346
C141	C	0.462715	0.533342	-0.683598
C142	C	0.435618	0.595788	-0.321975
C143	C	0.435617	0.595779	-0.270948
C144	C	0.489800	0.470814	-0.208478
C145	C	0.489800	0.470824	-0.259499
C146	C	0.462708	0.533316	-0.316249
O147	O	0.512813	0.417733	-0.313670
O148	O	0.412589	0.648935	-0.429295
C149	C	0.462711	0.533341	0.160060
C150	C	0.462712	0.533348	0.214356
C151	C	0.601455	0.373322	0.000097
C152	C	0.648544	0.319019	0.000103
C153	C	0.462693	0.373361	0.160058
C154	C	0.462688	0.319071	0.214354
C155	C	0.601457	0.373341	0.160079
C156	C	0.648546	0.319044	0.214382
C157	C	0.323962	0.693304	-0.159924
C158	C	0.276872	0.747601	-0.214228
C159	C	0.323964	0.693323	0.000058
C160	C	0.276875	0.747626	0.000051
C161	C	0.462725	0.693284	-0.159903
C162	C	0.462731	0.747574	-0.214199
C163	C	0.643560	0.293518	-0.031143
C164	C	0.687801	0.242502	-0.031149
C165	C	0.737025	0.216984	0.000096
C166	C	0.742007	0.242490	0.031343
C167	C	0.697767	0.293509	0.031345
C168	C	0.489782	0.293576	0.271101
C169	C	0.489775	0.242572	0.322123
C170	C	0.462677	0.217061	0.316396
C171	C	0.435579	0.242562	0.259643
C172	C	0.435584	0.293568	0.208622
C173	C	0.697761	0.293538	0.208648
C174	C	0.742011	0.242528	0.259667
C175	C	0.737045	0.217021	0.316419
C176	C	0.687826	0.242532	0.322152
C177	C	0.643577	0.293545	0.271134
C178	C	0.227658	0.773113	-0.208493
C179	C	0.183408	0.824139	-0.259512
C180	C	0.188374	0.849648	-0.316264
C181	C	0.237593	0.824134	-0.321997
C182	C	0.281842	0.773113	-0.270979
C183	C	0.281858	0.773132	0.031292
C184	C	0.237617	0.824162	0.031284
C185	C	0.188394	0.849682	0.000038
C186	C	0.183412	0.824174	-0.031207
C187	C	0.227652	0.773148	-0.031202
C188	C	0.489834	0.773069	-0.208453
C189	C	0.489850	0.824073	-0.259465
C190	C	0.462758	0.849584	-0.316222
C191	C	0.435653	0.824085	-0.321967
C192	C	0.435641	0.773078	-0.270956
H193	H	0.511846	0.314306	-0.056604
H194	H	0.538969	0.357484	-0.458272
H195	H	0.413522	0.314319	0.162418
F196	F	0.406784	0.662300	-0.382366
H197	H	0.511890	-0.155098	-0.056597
H198	H	0.413568	0.752326	-0.275643
F199	F	0.406818	0.851247	-0.382377
F200	F	0.462677	0.162775	0.370702
H201	H	0.241630	0.844911	-0.368211
H202	H	0.386471	-0.012958	0.088008
H203	H	0.321935	0.752358	0.056740
F204	F	0.518631	0.404323	-0.253401
H205	H	0.773044	0.175441	0.000090
F206	F	0.518628	0.320716	0.277209
F207	F	0.141275	0.903950	-0.370558
F208	F	0.703078	0.320640	0.064607
H209	H	0.413516	0.221783	0.254989
F210	F	0.131030	0.851282	-0.253398
F211	F	0.141313	0.903988	0.000038
F212	F	0.591200	0.320681	0.277246
F213	F	0.334218	0.745962	-0.277091
F214	F	0.545745	0.085970	-0.095643
F215	F	0.545753	-0.019334	-0.095642
H216	H	0.241684	0.844923	0.056729
H217	H	0.143328	0.844960	-0.056647
H218	H	0.701814	0.314299	0.162442
F219	F	0.518619	0.215441	0.382518
F220	F	0.406784	0.662329	-0.746451
F221	F	0.794389	0.215385	0.253553
H222	H	0.511854	0.419944	-0.162266
H223	H	0.413528	0.221745	0.056745
F224	F	0.518670	-0.254046	-0.064403
H225	H	0.223587	0.752382	-0.056640
H226	H	0.511896	0.752305	-0.162243
F227	F	0.518697	0.851205	-0.253338
F228	F	0.462774	0.903872	-0.370508
H229	H	0.511856	0.419986	-0.724219
H230	H	0.511865	0.221741	-0.056595
H231	H	0.413564	-0.247642	0.056746
F232	F	0.222362	0.745971	-0.148098
H233	H	0.683735	0.221741	-0.056594
F234	F	-0.408785	0.662279	-0.064398
F235	F	0.682549	0.215379	0.382557
F236	F	0.406790	-0.148723	0.064568
F237	F	0.379695	0.085969	0.095820
F238	F	0.784144	0.162728	0.370713
F239	F	0.406751	0.320690	0.064556
F240	F	0.334207	0.404363	0.064545
H241	H	0.241642	0.419972	0.056755
H242	H	0.145468	0.357483	0.088003
H243	H	0.511866	0.419977	-0.631666
F244	F	0.591177	0.320669	-0.064401
H245	H	0.012738	0.357472	0.088024
F246	F	0.066455	0.341852	0.095832
F247	F	-0.205584	0.404313	0.064598
H248	H	0.782091	0.221706	0.056781
H249	H	-0.298168	0.419937	0.056789
F250	F	-0.317465	0.662289	-0.064397
F251	F	0.545747	0.341858	-0.351533
F252	F	-0.008280	0.724791	-0.095646
F253	F	-0.099606	0.724790	-0.095643
H254	H	0.143307	0.646702	-0.056633
F255	F	0.379685	0.724789	-0.542995
F256	F	0.222342	0.662326	-0.064439
H257	H	-0.067536	0.357474	0.088027
H258	H	0.413560	0.646706	-0.837582
H259	H	-0.220035	0.709147	-0.087828
F260	F	-0.141020	0.724775	-0.095646
H261	H	0.413551	0.646662	-0.275621
F262	F	0.379697	0.724797	-0.648298
