data_functionalizedCrystal
_audit_creation_method	'MofGen! by Chris Wilmer'
_symmetry_space_group_name_H-M	'P1'
_symmetry_Int_Tables_number	1
_symmetry_cell_setting	triclinic
loop_
_symmetry_equiv_pos_as_xyz
  x,y,z
_cell_length_a	12.996460
_cell_length_b	10.654550
_cell_length_c	10.654549
_cell_angle_alpha	84.484854
_cell_angle_beta	90.005147
_cell_angle_gamma	90.002324
loop_
_atom_site_label
_atom_site_type_symbol
_atom_site_fract_x
_atom_site_fract_y
_atom_site_fract_z
O1	O	-0.085488	-1.667843	-0.176401
O2	O	-0.085506	-1.302364	-0.193207
O3	O	-0.085492	-1.493507	-0.002065
O4	O	-0.085502	-1.476700	-0.367544
O5	O	0.085642	-1.493487	-0.002054
O6	O	0.085627	-1.302344	-0.193197
O7	O	0.085646	-1.667823	-0.176391
Cu8	Cu	0.101263	-1.485081	-0.184793
Cu9	Cu	-0.101123	-1.485105	-0.184805
O10	O	0.085632	-1.476680	-0.367533
C11	C	0.000058	-1.255556	-0.191968
C12	C	0.000051	-1.116113	-0.188276
N13	N	0.243610	-1.485074	-0.184783
N14	N	-0.243470	-1.485123	-0.184805
C15	C	0.663424	-1.485104	-0.184807
C16	C	0.546619	-1.485092	-0.184804
C17	C	0.453521	-1.485089	-0.184796
C18	C	0.336708	-1.485076	-0.184791
C19	C	0.000073	-1.492263	0.044738
C20	C	0.000070	-1.488571	0.184181
C21	C	0.000079	-1.714631	-0.177630
C22	C	0.000080	-1.854074	-0.181322
C23	C	0.000051	-1.036627	-0.300818
C24	C	0.000069	-0.905606	-0.297341
C25	C	0.000083	-0.933570	-0.068772
C26	C	0.000072	-1.064588	-0.072250
C27	C	0.000064	-1.477924	-0.414336
C28	C	0.000061	-1.481616	-0.553780
C29	C	0.000069	-1.597634	0.394696
C30	C	0.000077	-1.601113	0.263676
C31	C	0.000065	-1.372543	0.235714
C32	C	0.000064	-1.369066	0.366732
H33	H	0.000042	-1.078574	-0.395294
H34	H	0.000085	-1.695586	0.221732
F35	F	0.000061	-1.245577	0.421571
H36	H	0.000071	-0.840893	-0.388984
H37	H	0.000066	-1.280910	0.170979
H38	H	0.000106	-0.891602	0.025693
F39	F	0.000068	-1.717419	0.479289
H40	H	0.000075	-1.129309	0.019401
