data_functionalizedCrystal
_audit_creation_method	'MofGen! by Chris Wilmer'
_symmetry_space_group_name_H-M	'P1'
_symmetry_Int_Tables_number	1
_symmetry_cell_setting	triclinic
loop_
_symmetry_equiv_pos_as_xyz
  x,y,z
_cell_length_a	16.109302
_cell_length_b	23.532407
_cell_length_c	14.586319
_cell_angle_alpha	89.991566
_cell_angle_beta	89.994552
_cell_angle_gamma	83.155229
loop_
_atom_site_label
_atom_site_type_symbol
_atom_site_fract_x
_atom_site_fract_y
_atom_site_fract_z
O1	O	1.102555	0.073204	-0.076291
O2	O	0.860421	0.082313	-0.076285
O3	O	0.988790	-0.005146	-0.076271
O4	O	0.974187	0.160663	-0.076305
O5	O	0.988781	-0.005147	0.076209
O6	O	0.860412	0.082312	0.076196
O7	O	1.102546	0.073203	0.076190
Cu8	Cu	0.981478	0.077757	0.090116
Cu9	Cu	0.981489	0.077759	-0.090211
O10	O	0.974178	0.160662	0.076176
C11	C	0.829445	0.081944	-0.000044
C12	C	0.737158	0.080837	-0.000041
C13	C	0.524833	0.078278	0.083068
C14	C	0.438121	0.077232	0.083065
C15	C	0.438141	0.077236	-0.083178
C16	C	0.524852	0.078278	-0.083174
C17	C	0.568195	0.078802	-0.000048
C18	C	0.394772	0.076714	-0.000055
C19	C	0.300755	0.075580	-0.000059
C20	C	0.662218	0.079935	-0.000044
C21	C	0.988413	-0.026364	-0.000029
C22	C	0.987295	-0.089585	-0.000022
C23	C	1.056248	-0.488434	-0.000074
C24	C	1.055210	-0.547838	-0.000080
O25	O	1.119130	-0.584347	-0.000116
N26	N	0.978895	-0.570746	-0.000078
C27	C	0.903614	-0.534246	-0.000078
O28	O	0.838607	-0.559186	-0.000077
C29	C	0.904653	-0.474843	-0.000077
C30	C	0.980973	-0.451939	-0.000071
C31	C	1.132562	-0.465529	-0.000068
C32	C	1.133600	-0.406129	-0.000059
C33	C	1.058325	-0.369634	-0.000056
C34	C	0.982011	-0.392539	-0.000062
C35	C	0.829373	-0.438345	-0.000084
C36	C	0.830419	-0.378938	-0.000084
C37	C	0.906739	-0.356034	-0.000077
C38	C	0.907774	-0.296644	-0.000050
N39	N	0.984089	-0.273736	-0.000053
C40	C	1.059364	-0.310231	-0.000056
C41	C	0.901436	-0.658997	-0.000080
C42	C	0.900396	-0.718398	-0.000074
C43	C	1.051993	-0.731986	-0.000078
C44	C	1.053032	-0.672583	-0.000078
C45	C	0.977751	-0.636089	-0.000083
C46	C	1.061539	-0.185486	-0.000037
C47	C	1.062571	-0.126080	-0.000024
C48	C	0.910975	-0.112498	-0.000025
C49	C	0.909943	-0.171898	-0.000032
C50	C	0.985232	-0.208392	-0.000042
O51	O	0.843887	-0.260100	-0.000019
O52	O	1.124361	-0.285283	-0.000069
C53	C	1.133522	0.073572	-0.000054
C54	C	1.225809	0.074679	-0.000063
C55	C	0.974554	0.181880	-0.000069
C56	C	0.975672	0.245101	-0.000082
N57	N	0.981477	0.077756	0.216947
N58	N	0.981497	0.077756	-0.217042
C59	C	1.038337	0.039042	0.451960
C60	C	1.038340	0.039040	0.547941
C61	C	0.924631	0.116472	0.547938
C62	C	0.924625	0.116470	0.451959
C63	C	0.981483	0.077756	0.403972
C64	C	0.981491	0.077756	0.595933
C65	C	0.981493	0.077755	0.700000
C66	C	0.981480	0.077756	0.299898
H67	H	0.560159	0.078703	-0.150861
H68	H	0.878323	0.147996	0.412885
H69	H	1.195748	-0.387486	-0.000057
H70	H	0.402819	0.076806	0.150747
N71	N	0.393866	0.076695	-0.168084
N72	N	0.353480	0.035994	-0.186625
H73	H	0.322211	0.035611	-0.246592
N74	N	0.569093	0.078820	0.167983
N75	N	0.530361	0.078357	0.242188
H76	H	0.561616	0.078741	0.302163
N77	N	1.128896	-0.769262	-0.000080
N78	N	1.179764	-0.767189	0.064191
H79	H	1.234075	-0.793515	0.064191
N80	N	0.866549	0.156010	0.596960
N81	N	0.815098	0.137929	0.650531
H82	H	0.774076	0.165853	0.685153
H83	H	1.124722	-0.107435	-0.000017
H84	H	1.193864	-0.495238	-0.000074
H85	H	1.115178	-0.653939	-0.000073
N86	N	1.138451	-0.222749	-0.000049
N87	N	1.206577	-0.202281	-0.000043
H88	H	1.260898	-0.228597	-0.000047
N89	N	0.824526	-0.621728	-0.000082
N90	N	0.756398	-0.642195	-0.000081
H91	H	0.702079	-0.615878	-0.000084
H92	H	0.838249	-0.737041	-0.000064
N93	N	0.834096	-0.075203	-0.000035
N94	N	0.817788	-0.040532	-0.064312
H95	H	0.763492	-0.014190	-0.064327
H96	H	1.084633	0.007517	0.412891
N97	N	0.751405	-0.461721	-0.000093
N98	N	0.684209	-0.429119	-0.000100
H99	H	0.629138	-0.445627	-0.000110
N100	N	0.753511	-0.341669	-0.000100
N101	N	0.685381	-0.362132	-0.000111
H102	H	0.631064	-0.335812	-0.000123
H103	H	0.847797	-0.190548	-0.000012
H104	H	1.084634	0.007515	0.587010
