data_functionalizedCrystal
_audit_creation_method	'MofGen! by Chris Wilmer'
_symmetry_space_group_name_H-M	'P1'
_symmetry_Int_Tables_number	1
_symmetry_cell_setting	triclinic
loop_
_symmetry_equiv_pos_as_xyz
  x,y,z
_cell_length_a	13.033293
_cell_length_b	12.594516
_cell_length_c	13.032268
_cell_angle_alpha	97.144352
_cell_angle_beta	90.920818
_cell_angle_gamma	82.813195
loop_
_atom_site_label
_atom_site_type_symbol
_atom_site_fract_x
_atom_site_fract_y
_atom_site_fract_z
Zn1	Zn	1.498465	0.331140	0.781459
Zn2	Zn	1.520209	0.484096	0.609476
Zn3	Zn	1.348325	0.325520	0.587636
Zn4	Zn	1.326461	0.528466	0.759513
O5	O	1.423365	0.417306	0.684521
O6	O	1.645268	0.335213	0.776970
O7	O	1.515659	0.442139	0.462672
O8	O	1.368292	0.177319	0.613391
O9	O	1.661244	0.447590	0.650615
O10	O	1.478599	0.181448	0.755793
O11	O	1.389377	0.325634	0.446626
O12	O	1.201506	0.368658	0.592110
O13	O	1.331027	0.523212	0.906331
O14	O	1.185442	0.517762	0.718388
O15	O	1.457398	0.378237	0.922455
O16	O	1.494458	0.638929	0.629334
O17	O	1.352111	0.671527	0.739566
C18	C	1.156158	0.447415	0.650498
C19	C	1.041842	0.460326	0.635968
C20	C	0.982960	0.410594	0.692104
C21	C	0.864809	0.423937	0.677088
C22	C	1.423297	0.693848	0.684464
C23	C	1.423357	0.812149	0.684486
C24	C	1.500844	0.863634	0.624607
C25	C	1.514043	0.945177	0.721655
C26	C	1.410261	0.941398	0.587489
C27	C	1.436598	0.892135	0.781591
C28	C	1.332781	0.888345	0.647355
C29	C	1.345936	0.969870	0.744464
C30	C	1.691616	0.387079	0.718677
C31	C	1.805928	0.374198	0.733232
C32	C	1.389348	0.456301	0.952750
C33	C	1.374852	0.472918	1.067053
C34	C	1.423438	1.139682	0.684574
C35	C	1.423415	1.021373	0.684521
C36	C	1.457309	0.378378	0.417343
C37	C	1.472005	0.361439	0.303066
C38	C	1.430915	0.408596	1.125991
C39	C	1.415934	0.425770	1.244130
H40	H	1.566382	0.817573	0.574033
H41	H	1.490000	0.340811	1.088988
O42	O	1.345295	0.506538	1.288196
C43	C	1.166184	0.582733	1.298935
C44	C	1.246066	0.491190	1.248967
H45	H	1.085942	0.570368	1.267223
H46	H	1.166573	0.582181	1.386351
H47	H	1.186921	0.663473	1.280171
H48	H	1.225385	0.410404	1.267651
H49	H	1.245662	0.491837	1.161564
O50	O	0.850286	0.311693	0.803827
C51	C	1.008500	0.241320	0.883086
C52	C	0.958398	0.312155	0.803121
H53	H	1.095918	0.241651	0.882526
H54	H	0.977015	0.274554	0.963350
H55	H	0.989654	0.155243	0.862526
H56	H	0.977224	0.398247	0.823583
H57	H	0.989886	0.278832	0.722878
H58	H	0.827754	0.476392	0.617903
O59	O	1.267901	1.024736	0.805047
C60	C	1.220847	1.154657	0.953728
C61	C	1.309310	1.092610	0.885187
H62	H	1.254295	1.209531	1.018550
H63	H	1.165777	1.205437	0.904960
H64	H	1.176974	1.094869	0.988458
H65	H	1.353262	1.152321	0.850443
H66	H	1.364308	1.041814	0.934003
H67	H	1.590665	0.970375	0.753081
H68	H	1.447613	0.870292	0.863693
O69	O	1.542473	0.280631	1.258774
C70	C	1.621554	0.189745	1.100628
C71	C	1.541744	0.281324	1.150657
H72	H	1.620976	0.190261	1.013207
H73	H	1.701868	0.202092	1.132154
H74	H	1.600849	0.109028	1.119490
H75	H	1.562353	0.362082	1.131815
H76	H	1.461453	0.268883	1.119129
O77	O	1.304422	0.553912	1.111078
C78	C	1.250314	0.745370	1.137788
C79	C	1.330135	0.653743	1.087859
H80	H	1.271087	0.826106	1.119052
H81	H	1.170029	0.733072	1.106150
H82	H	1.250773	0.744760	1.225196
H83	H	1.329770	0.654299	1.000449
H84	H	1.410383	0.666075	1.119578
H85	H	1.020020	0.358136	0.751279
H86	H	1.004783	0.512777	0.576787
H87	H	1.399159	0.963391	0.505445
O88	O	1.241457	0.858260	0.609663
C89	C	1.124341	0.848812	0.464772
C90	C	1.227798	0.882916	0.507335
H91	H	1.113254	0.868753	0.382043
H92	H	1.124908	0.758355	0.465766
H93	H	1.058228	0.894151	0.515037
H94	H	1.293967	0.837652	0.457106
H95	H	1.227142	0.973385	0.506363
