data_functionalizedCrystal
_audit_creation_method	'MofGen! by Chris Wilmer'
_symmetry_space_group_name_H-M	'P1'
_symmetry_Int_Tables_number	1
_symmetry_cell_setting	triclinic
loop_
_symmetry_equiv_pos_as_xyz
  x,y,z
_cell_length_a	15.944545
_cell_length_b	15.944551
_cell_length_c	15.186229
_cell_angle_alpha	90.004697
_cell_angle_beta	90.000573
_cell_angle_gamma	83.497455
loop_
_atom_site_label
_atom_site_type_symbol
_atom_site_fract_x
_atom_site_fract_y
_atom_site_fract_z
O1	O	1.114526	0.108306	0.073173
O2	O	1.614526	0.608306	0.573173
O3	O	0.869976	0.121668	0.073188
O4	O	1.369976	0.621668	0.573188
O5	O	0.998929	-0.007288	0.073172
O6	O	1.498929	0.492712	0.573172
O7	O	0.985573	0.237262	0.073189
O8	O	1.485573	0.737262	0.573189
O9	O	0.998921	-0.007290	-0.073285
O10	O	1.498921	0.492710	0.426715
O11	O	0.869967	0.121666	-0.073269
O12	O	1.369967	0.621666	0.426731
O13	O	1.114518	0.108304	-0.073284
O14	O	1.614518	0.608304	0.426716
Zn15	Zn	0.992241	0.114985	-0.096530
Zn16	Zn	1.492241	0.614985	0.403470
Zn17	Zn	0.992252	0.114987	0.096434
Zn18	Zn	1.492252	0.614987	0.596434
O19	O	0.985564	0.237260	-0.073268
O20	O	1.485564	0.737260	0.426732
C21	C	0.838677	0.121113	-0.000039
C22	C	1.338677	0.621113	0.499961
C23	C	0.745431	0.119453	-0.000034
C24	C	1.245431	0.619453	0.499966
C25	C	0.998370	-0.038583	-0.000056
C26	C	1.498370	0.461417	0.499944
C27	C	0.996708	-0.131829	-0.000057
C28	C	1.496708	0.368171	0.499943
C29	C	0.474798	0.034559	-0.000049
C30	C	0.974798	0.534559	0.499951
C31	C	0.525376	0.075487	-0.072259
C32	C	1.025376	0.575487	0.427741
C33	C	0.409787	0.113532	-0.000049
C34	C	0.909787	0.613532	0.499951
C35	C	0.525365	0.075510	0.072136
C36	C	1.025365	0.575510	0.572136
C37	C	0.574701	0.116437	-0.000040
C38	C	1.074701	0.616437	0.499960
C39	C	0.459136	0.154439	-0.072319
C40	C	0.959136	0.654439	0.427681
C41	C	0.459122	0.154450	0.072141
C42	C	0.959122	0.654450	0.572141
C43	C	0.509667	0.195436	-0.000087
C44	C	1.009667	0.695436	0.499913
C45	C	0.314785	0.111856	-0.000055
C46	C	0.814785	0.611856	0.499945
C47	C	0.669700	0.118119	-0.000040
C48	C	1.169700	0.618119	0.499960
C49	C	0.912803	-0.346684	-0.000040
C50	C	1.412803	0.153316	0.499960
C51	C	0.951762	-0.407703	-0.072254
C52	C	1.451762	0.092297	0.427746
C53	C	0.993701	-0.302555	-0.000050
C54	C	1.493701	0.197445	0.499950
C55	C	0.951789	-0.407685	0.072141
C56	C	1.451789	0.092315	0.572141
C57	C	0.990790	-0.467468	-0.000039
C58	C	1.490790	0.032532	0.499961
C59	C	1.032681	-0.362346	-0.072324
C60	C	1.532681	0.137654	0.427676
C61	C	1.032697	-0.362321	0.072136
C62	C	1.532697	0.137679	0.572136
C63	C	1.071715	-0.423322	-0.000096
C64	C	1.571715	0.076678	0.499904
C65	C	0.995375	-0.207553	-0.000057
C66	C	1.495375	0.292447	0.499943
C67	C	0.989122	-0.562469	-0.000039
C68	C	1.489122	-0.062469	0.499961
C69	C	1.145816	0.108859	-0.000055
C70	C	1.645816	0.608859	0.499945
C71	C	1.239062	0.110519	-0.000054
C72	C	1.739062	0.610519	0.499946
C73	C	0.986123	0.268555	-0.000037
C74	C	1.486123	0.768555	0.499963
C75	C	0.987785	0.361801	-0.000031
C76	C	1.487785	0.861801	0.499969
N77	N	0.992239	0.114982	-0.228222
N78	N	1.492239	0.614982	0.271778
C79	C	1.049359	0.057900	-0.453952
C80	C	1.549359	0.557900	0.046048
C81	C	1.049362	0.057898	-0.546142
C82	C	1.549362	0.557898	-0.046142
C83	C	0.935135	0.172068	-0.546137
C84	C	1.435135	0.672068	-0.046137
C85	C	0.935129	0.172065	-0.453949
C86	C	1.435129	0.672065	0.046051
C87	C	0.992246	0.114982	-0.407859
C88	C	1.492246	0.614982	0.092141
C89	C	0.992254	0.114983	-0.592237
C90	C	1.492254	0.614983	-0.092237
C91	C	0.992257	0.114981	-0.692193
C92	C	1.492257	0.614981	-0.192193
C93	C	0.992242	0.114983	-0.307897
C94	C	1.492242	0.614983	0.192103
N95	N	0.992261	0.114983	0.228127
N96	N	1.492261	0.614983	0.728127
H97	H	0.459145	-0.033453	-0.000124
H98	H	0.959145	0.466547	0.499876
H99	H	0.554303	0.042134	-0.133312
H100	H	1.054303	0.542134	0.366688
H101	H	0.917542	-0.427811	-0.133302
H102	H	1.417542	0.072189	0.366698
H103	H	1.066888	-0.342191	0.133187
H104	H	1.566888	0.157809	0.633187
O105	O	0.563687	0.031296	0.152980
O106	O	1.063687	0.531296	0.652980
H107	H	0.633023	0.033447	0.152543
H108	H	1.133023	0.533447	0.652543
O109	O	1.110973	-0.003658	-0.595860
O110	O	1.610973	0.496342	-0.095860
H111	H	1.150693	-0.043342	-0.548320
H112	H	1.650693	0.456658	-0.048320
O113	O	0.420768	0.198581	0.153015
O114	O	0.920768	0.698581	0.653015
H115	H	0.471485	0.221267	0.193660
H116	H	0.971485	0.721267	0.693660
O117	O	1.077968	-0.335874	-0.153280
O118	O	1.577968	0.164126	0.346720
H119	H	1.099263	-0.392440	-0.193478
H120	H	1.599263	0.107560	0.306522
H121	H	0.917566	-0.427760	0.133197
H122	H	1.417566	0.072240	0.633197
H123	H	0.430323	0.187766	-0.133433
H124	H	0.930323	0.687766	0.366567
O125	O	0.823864	-0.302549	-0.000123
O126	O	1.323864	0.197451	0.499877
H127	H	0.790480	-0.320598	-0.060158
H128	H	1.290480	0.179402	0.439842
H129	H	0.525159	0.263501	-0.000125
H130	H	1.025159	0.763501	0.499875
H131	H	1.138922	-0.456483	-0.000141
H132	H	1.638922	0.043517	0.499859
O133	O	1.110951	-0.003674	-0.404236
O134	O	1.610951	0.496326	0.095764
H135	H	1.150659	-0.043373	-0.451780
H136	H	1.650659	0.456627	0.048220
O137	O	0.873540	0.233644	-0.595847
O138	O	1.373540	0.733644	-0.095847
H139	H	0.883146	0.224065	-0.667695
H140	H	1.383146	0.724065	-0.167695
O141	O	0.873528	0.233637	-0.404224
O142	O	1.373528	0.733637	0.095776
H143	H	0.833821	0.273340	-0.451759
H144	H	1.333821	0.773340	0.048241
