data_functionalizedCrystal
_audit_creation_method	'MofGen! by Chris Wilmer'
_symmetry_space_group_name_H-M	'P1'
_symmetry_Int_Tables_number	1
_symmetry_cell_setting	triclinic
loop_
_symmetry_equiv_pos_as_xyz
  x,y,z
_cell_length_a	11.792254
_cell_length_b	12.837943
_cell_length_c	10.268362
_cell_angle_alpha	89.995737
_cell_angle_beta	89.996395
_cell_angle_gamma	90.486231
loop_
_atom_site_label
_atom_site_type_symbol
_atom_site_fract_x
_atom_site_fract_y
_atom_site_fract_z
O1	O	-0.295225	1.377127	-0.108251
O2	O	-0.280641	1.075239	-0.108260
O3	O	-0.123506	1.233502	-0.108262
O4	O	-0.452361	1.218864	-0.108250
O5	O	-0.123512	1.233485	0.108339
O6	O	-0.280647	1.075222	0.108340
O7	O	-0.295231	1.377110	0.108349
Cu8	Cu	-0.287940	1.226164	0.128122
Cu9	Cu	-0.287933	1.226184	-0.128033
O10	O	-0.452367	1.218847	0.108351
C11	C	-0.275718	1.036582	0.000039
C12	C	-0.261024	0.921422	0.000035
C13	C	-0.437669	0.681463	0.000060
C14	C	-0.423869	0.573259	0.000057
C15	C	-0.219623	0.596808	0.000036
C16	C	-0.233423	0.705012	0.000038
C17	C	-0.342450	0.747335	0.000048
C18	C	-0.356250	0.855541	0.000042
C19	C	-0.152005	0.879087	0.000030
C20	C	-0.138204	0.770883	0.000027
C21	C	-0.494748	1.219777	0.000052
C22	C	-0.621041	1.222537	0.000056
C23	C	-0.723605	1.224780	0.000049
C24	C	-0.852276	1.227584	0.000034
C25	C	-0.081125	1.232571	0.000034
C26	C	0.045168	1.229811	0.000021
C27	C	-0.300155	1.415767	0.000047
C28	C	-0.314849	1.530927	0.000043
N29	N	-0.287945	1.226158	0.308288
C30	C	-0.287947	1.226165	0.426130
C31	C	-0.287939	1.226177	0.573968
N32	N	-0.287927	1.226192	0.691801
H33	H	-0.049437	0.736408	0.000034
H34	H	-0.526443	0.715924	0.000066
O35	O	-0.462095	0.896781	0.000224
C36	C	-0.476196	0.958641	0.112420
H37	H	-0.389598	0.985072	0.149809
H38	H	-0.521271	0.911126	0.190979
C39	C	-0.654054	1.022230	0.032427
C40	C	-0.547692	1.054701	0.078343
H41	H	-0.698161	1.081482	0.011411
H42	H	-0.644557	0.980552	-0.043159
H43	H	-0.691602	0.982634	0.097901
H44	H	-0.510142	1.094285	0.012865
H45	H	-0.557185	1.096388	0.153918
H46	H	-0.501406	0.519629	0.000069
H47	H	-0.130858	0.562328	0.000135
H48	H	-0.074470	0.932733	0.000012
