data_functionalizedCrystal
_audit_creation_method	'MofGen! by Chris Wilmer'
_symmetry_space_group_name_H-M	'P1'
_symmetry_Int_Tables_number	1
_symmetry_cell_setting	triclinic
loop_
_symmetry_equiv_pos_as_xyz
  x,y,z
_cell_length_a	19.805407
_cell_length_b	16.959453
_cell_length_c	19.805399
_cell_angle_alpha	90.026715
_cell_angle_beta	90.019573
_cell_angle_gamma	90.019988
loop_
_atom_site_label
_atom_site_type_symbol
_atom_site_fract_x
_atom_site_fract_y
_atom_site_fract_z
Zn1	Zn	1.034766	-0.314700	0.382724
Zn2	Zn	1.034693	-0.446882	0.269537
Zn3	Zn	0.921581	-0.314722	0.269548
Zn4	Zn	0.921557	-0.446840	0.382684
O5	O	0.978149	-0.380786	0.326123
O6	O	1.129473	-0.332243	0.367721
O7	O	1.019668	-0.429378	0.174822
O8	O	0.936635	-0.204108	0.284583
O9	O	1.129420	-0.429356	0.284564
O10	O	1.019792	-0.204092	0.367732
O11	O	0.936565	-0.332280	0.174830
O12	O	0.826861	-0.332239	0.284544
O13	O	0.936595	-0.429285	0.477406
O14	O	0.826843	-0.429306	0.367664
O15	O	1.019769	-0.332202	0.477435
O16	O	1.019645	-0.557488	0.284525
O17	O	0.936524	-0.557457	0.367653
C18	C	0.802293	-0.380771	0.326101
C19	C	0.727061	-0.380783	0.326108
C20	C	0.691726	-0.431402	0.369319
C21	C	0.621037	-0.431404	0.369328
C22	C	0.585686	-0.380790	0.326123
C23	C	0.621026	-0.330165	0.282911
C24	C	0.691713	-0.330160	0.282905
C25	C	0.335953	-0.330183	0.282933
C26	C	0.265261	-0.330193	0.282941
C27	C	0.265277	-0.431426	0.369356
C28	C	0.335964	-0.431421	0.369351
C29	C	0.371298	-0.380794	0.326141
C30	C	0.447947	-0.380792	0.326132
C31	C	0.509038	-0.380795	0.326128
C32	C	0.978093	-0.586152	0.326098
C33	C	0.978130	-0.674009	0.326111
C34	C	1.021504	-1.045418	0.369501
C35	C	0.934983	-1.045551	0.282846
C36	C	0.934958	-0.963005	0.282831
C37	C	0.978206	-0.921662	0.326152
C38	C	1.021479	-0.962864	0.369488
C39	C	0.891681	-0.921797	0.239500
C40	C	0.891653	-0.839246	0.239483
C41	C	0.934905	-0.797901	0.282801
C42	C	0.978181	-0.839108	0.326139
C43	C	1.021429	-0.797765	0.369460
C44	C	1.064708	-0.838971	0.412795
C45	C	1.064731	-0.921519	0.412806
C46	C	0.934882	-0.715352	0.282790
C47	C	1.021404	-0.715211	0.369447
C48	C	1.154692	-0.380802	0.326146
C49	C	1.229924	-0.380808	0.326155
C50	C	0.978187	-0.380736	0.502666
C51	C	0.978203	-0.380715	0.577898
C52	C	0.978224	-0.174618	0.326163
C53	C	0.978256	-0.086761	0.326180
C54	C	0.978150	-0.380779	0.150267
C55	C	0.978265	-0.380577	0.075036
C56	C	1.021513	-0.330161	0.613259
C57	C	1.021520	-0.330138	0.683947
C58	C	0.978220	-0.380674	0.719274
C59	C	0.934905	-0.431230	0.683908
C60	C	0.934896	-0.431248	0.613221
C61	C	0.934944	-0.431156	0.968982
C62	C	0.934958	-0.431135	1.039674
C63	C	1.021568	-0.330046	1.039708
C64	C	1.021558	-0.330065	0.969021
C65	C	0.978241	-0.380617	0.933661
C66	C	0.978234	-0.380641	0.857013
C67	C	0.978231	-0.380655	0.795921
H68	H	0.236479	-0.288972	0.247758
C69	C	1.069147	-0.274567	0.574406
N70	N	1.105023	-0.232688	0.545144
C71	C	1.069189	-0.274469	0.930165
N72	N	1.105062	-0.232589	0.900900
H73	H	1.056624	-0.681554	0.404722
H74	H	1.056789	-0.288975	0.712734
H75	H	1.056836	-0.288881	1.068506
C76	C	0.887318	-0.486725	1.078532
N77	N	0.851437	-0.528593	1.107800
H78	H	1.099918	-0.805299	0.448070
C79	C	0.887292	-0.486763	0.930096
N80	N	0.851397	-0.528647	0.900804
C81	C	0.844191	-0.967279	0.191770
N82	N	0.808451	-1.001541	0.155788
C83	C	0.887268	-0.486811	0.722770
N84	N	0.851387	-0.528676	0.752040
C85	C	0.374847	-0.487102	0.416878
N86	N	0.404132	-0.529039	0.452679
C87	C	0.582137	-0.274487	0.235386
N88	N	0.552846	-0.232551	0.199588
H89	H	0.899621	-0.472406	0.584432
H90	H	1.099966	-0.955076	0.448088
C91	C	1.069109	-1.090744	0.417167
N92	N	1.104965	-1.124885	0.453071
H93	H	0.856414	-0.805701	0.204197
H94	H	0.720504	-0.472621	0.404499
H95	H	0.592270	-0.472623	0.404514
H96	H	0.236499	-0.472646	0.404542
C97	C	0.374811	-0.274496	0.235397
N98	N	0.404082	-0.232552	0.199589
C99	C	0.887465	-1.091032	0.235143
N100	N	0.851694	-1.125291	0.199191
C101	C	0.730582	-0.274477	0.235369
N102	N	0.759857	-0.232534	0.199564
H103	H	0.899642	-0.681806	0.247510
