data_functionalizedCrystal
_audit_creation_method	'MofGen! by Chris Wilmer'
_symmetry_space_group_name_H-M	'P1'
_symmetry_Int_Tables_number	1
_symmetry_cell_setting	triclinic
loop_
_symmetry_equiv_pos_as_xyz
  x,y,z
_cell_length_a	18.215407
_cell_length_b	16.959454
_cell_length_c	18.215398
_cell_angle_alpha	90.021170
_cell_angle_beta	90.019464
_cell_angle_gamma	90.020523
loop_
_atom_site_label
_atom_site_type_symbol
_atom_site_fract_x
_atom_site_fract_y
_atom_site_fract_z
Zn1	Zn	1.125094	-0.314700	0.416138
Zn2	Zn	1.125013	-0.446879	0.293080
Zn3	Zn	1.002027	-0.314720	0.293085
Zn4	Zn	1.002003	-0.446841	0.416105
O5	O	1.063534	-0.380785	0.354602
O6	O	1.228067	-0.332241	0.399825
O7	O	1.108676	-0.429373	0.190097
O8	O	1.018396	-0.204106	0.309424
O9	O	1.228008	-0.429353	0.309416
O10	O	1.108813	-0.204092	0.399830
O11	O	1.018318	-0.332276	0.190100
O12	O	0.899040	-0.332239	0.309392
O13	O	1.018354	-0.429288	0.519094
O14	O	0.899022	-0.429308	0.399775
O15	O	1.108789	-0.332204	0.519118
O16	O	1.108652	-0.557485	0.309385
O17	O	1.018276	-0.557457	0.399770
C18	C	0.872328	-0.380772	0.354581
C19	C	0.790529	-0.380785	0.354589
C20	C	0.602345	-0.431408	0.401593
C21	C	0.525486	-0.431411	0.401602
C22	C	0.525476	-0.330176	0.307628
C23	C	0.602333	-0.330171	0.307623
C24	C	0.640766	-0.380791	0.354604
C25	C	0.487050	-0.380799	0.354618
C26	C	0.403716	-0.380802	0.354628
C27	C	0.724105	-0.380788	0.354596
C28	C	1.063473	-0.586151	0.354590
C29	C	1.063514	-0.674008	0.354609
C30	C	1.016544	-1.045499	0.401661
C31	C	1.110729	-1.045468	0.307618
C32	C	1.110704	-0.962922	0.307611
C33	C	1.063597	-0.921661	0.354629
C34	C	1.016515	-0.962945	0.401654
C35	C	1.157779	-0.921632	0.260582
C36	C	1.157755	-0.839081	0.260573
C37	C	1.110651	-0.797818	0.307595
C38	C	1.063568	-0.839107	0.354622
C39	C	1.016461	-0.797846	0.401640
C40	C	0.969381	-0.839134	0.448672
C41	C	0.969411	-0.921683	0.448676
C42	C	1.110621	-0.715269	0.307591
C43	C	1.016432	-0.715292	0.401634
C44	C	1.255487	-0.380799	0.354624
C45	C	1.337286	-0.380805	0.354633
C46	C	1.063578	-0.380740	0.546555
C47	C	1.063596	-0.380720	0.628354
C48	C	1.063616	-0.174617	0.354631
C49	C	1.063651	-0.086760	0.354643
C50	C	1.063533	-0.380773	0.163396
C51	C	1.063657	-0.380570	0.081597
C52	C	1.110679	-0.431181	0.893414
C53	C	1.110668	-0.431209	0.816556
C54	C	1.016569	-0.330107	0.816542
C55	C	1.016577	-0.330084	0.893400
C56	C	1.063636	-0.380620	0.931834
C57	C	1.063617	-0.380670	0.778118
C58	C	1.063605	-0.380700	0.694784
C59	C	1.063648	-0.380592	1.015173
H60	H	0.633616	-0.288947	0.269359
C61	C	0.644618	-0.487086	0.453279
N62	N	0.676457	-0.529022	0.492213
H63	H	0.978266	-0.288910	0.924682
C64	C	0.483227	-0.487101	0.453286
N65	N	0.451398	-0.529052	0.492215
C66	C	0.483192	-0.274501	0.255947
N67	N	0.451345	-0.232567	0.217018
H68	H	0.978074	-0.681702	0.439924
C69	C	0.917565	-0.793736	0.500390
N70	N	0.878538	-0.759539	0.539343
C71	C	0.917620	-0.967105	0.500398
N72	N	0.878608	-1.001321	0.539350
C73	C	0.964756	-1.090916	0.453390
N74	N	0.925747	-1.125125	0.492351
H75	H	1.149078	-1.079068	0.269334
C76	C	1.162439	-0.486779	0.935689
N77	N	1.201424	-0.528659	0.967528
C78	C	1.162434	-0.486813	0.774298
N79	N	1.201432	-0.528692	0.742470
H80	H	0.978256	-0.288961	0.785240
H81	H	1.196126	-0.955233	0.222297
H82	H	1.196090	-0.805469	0.222279
C83	C	1.162406	-0.669856	0.255861
N84	N	1.201415	-0.635652	0.216896
