data_functionalizedCrystal
_audit_creation_method	'MofGen! by Chris Wilmer'
_symmetry_space_group_name_H-M	'P1'
_symmetry_Int_Tables_number	1
_symmetry_cell_setting	triclinic
loop_
_symmetry_equiv_pos_as_xyz
  x,y,z
_cell_length_a	16.120530
_cell_length_b	17.640280
_cell_length_c	17.640968
_cell_angle_alpha	114.317439
_cell_angle_beta	75.368885
_cell_angle_gamma	104.611321
loop_
_atom_site_label
_atom_site_type_symbol
_atom_site_fract_x
_atom_site_fract_y
_atom_site_fract_z
Zn1	Zn	1.434197	0.291308	-0.456998
Zn2	Zn	1.767531	0.624642	-0.123665
Zn3	Zn	2.100864	0.957975	0.209669
Zn4	Zn	1.434128	0.456974	-0.291356
Zn5	Zn	1.767461	0.790307	0.041977
Zn6	Zn	2.100795	1.123641	0.375310
Zn7	Zn	1.268513	0.312558	-0.312580
Zn8	Zn	1.601846	0.645891	0.020754
Zn9	Zn	1.935180	0.979224	0.354087
Zn10	Zn	1.316194	0.424346	-0.424424
Zn11	Zn	1.649527	0.757680	-0.091091
Zn12	Zn	1.982860	1.091013	0.242243
O13	O	1.363258	0.371297	-0.371339
O14	O	1.696591	0.704630	-0.038006
O15	O	2.029925	1.037963	0.295327
O16	O	1.552883	0.318046	-0.439776
O17	O	1.886217	0.651379	-0.106442
O18	O	2.219550	0.984713	0.226891
O19	O	1.392175	0.460365	-0.178043
O20	O	1.725508	0.793698	0.155290
O21	O	2.058842	1.127031	0.488624
O22	O	1.270566	0.193623	-0.354251
O23	O	1.603899	0.526957	-0.020918
O24	O	1.937233	0.860290	0.312415
O25	O	1.552832	0.439760	-0.318079
O26	O	1.886166	0.773093	0.015254
O27	O	2.219499	1.106427	0.348587
O28	O	1.392293	0.178011	-0.460355
O29	O	1.725627	0.511345	-0.127021
O30	O	2.058960	0.844678	0.206312
O31	O	1.270499	0.354263	-0.193635
O32	O	1.603832	0.687596	0.139698
O33	O	1.937165	1.020929	0.473031
O34	O	1.156143	0.322625	-0.322666
O35	O	1.489476	0.655958	0.010668
O36	O	1.822809	0.989292	0.344001
O37	O	1.351831	0.384151	-0.544874
O38	O	1.685164	0.717484	-0.211540
O39	O	2.018497	1.050817	0.121793
O40	O	1.191173	0.404756	-0.404837
O41	O	1.524507	0.738089	-0.071504
O42	O	1.857840	1.071422	0.261829
O43	O	1.438527	0.286408	-0.568806
O44	O	1.771861	0.619742	-0.235472
O45	O	2.105194	0.953075	0.097861
O46	O	1.438409	0.568762	-0.286494
O47	O	1.771742	0.902095	0.046840
O48	O	2.105076	1.235428	0.380173
O49	O	1.351763	0.544790	-0.384258
O50	O	1.685097	0.878124	-0.050925
O51	O	2.018430	1.211457	0.282409
C52	C	1.142882	0.362456	-0.362520
C53	C	1.476215	0.695790	-0.029187
C54	C	1.809549	1.029123	0.304147
C55	C	1.048611	0.358690	-0.358763
C56	C	1.381944	0.692024	-0.025430
C57	C	1.715277	1.025357	0.307904
C58	C	1.400505	0.329270	-0.587793
C59	C	1.733839	0.662603	-0.254459
C60	C	2.067172	0.995936	0.078874
C61	C	1.416378	0.311360	-0.680032
C62	C	1.749711	0.644694	-0.346699
C63	C	2.083045	0.978027	-0.013365
C64	C	1.400279	0.586881	-0.329557
C65	C	1.733612	0.920214	0.003776
C66	C	2.066945	1.253547	0.337110
C67	C	1.416199	0.679106	-0.311713
C68	C	1.749532	1.012440	0.021620
C69	C	2.082865	1.345773	0.354953
C70	C	0.876016	0.351794	-0.351914
C71	C	1.209350	0.685128	-0.018581
C72	C	1.542683	1.018461	0.314752
C73	C	0.851361	0.390848	-0.390813
C74	C	1.184694	0.724182	-0.057480
C75	C	1.518028	1.057515	0.275853
C76	C	0.755324	0.387011	-0.387003
C77	C	1.088657	0.720345	-0.053669
C78	C	1.421990	1.053678	0.279664
C79	C	0.972062	0.355630	-0.355724
C80	C	1.305395	0.688964	-0.022391
C81	C	1.638729	1.022297	0.310943
C82	C	1.584495	0.380172	-0.380194
C83	C	1.917828	0.713505	-0.046860
C84	C	2.251161	1.046839	0.286473
C85	C	1.678773	0.383954	-0.383967
C86	C	2.012106	0.717288	-0.050633
C87	C	2.345439	1.050621	0.282700
C88	C	1.326119	0.154868	-0.413304
C89	C	1.659452	0.488201	-0.079971
C90	C	1.992785	0.821535	0.253363
C91	C	1.310292	0.062639	-0.431187
C92	C	1.643626	0.395972	-0.097853
C93	C	1.976959	0.729306	0.235480
C94	C	1.242715	0.920210	-0.507212
C95	C	1.576048	1.253543	-0.173879
C96	C	1.909382	1.586876	0.159454
C97	C	1.257671	1.006875	-0.490419
C98	C	1.591005	1.340208	-0.157086
C99	C	1.924338	1.673542	0.176248
C100	C	1.347981	1.031753	-0.388727
C101	C	1.681315	1.365086	-0.055394
C102	C	2.014648	1.698419	0.277939
C103	C	1.333036	0.945088	-0.405515
C104	C	1.666369	1.278421	-0.072182
C105	C	1.999703	1.611754	0.261152
C106	C	1.280401	0.889322	-0.464758
C107	C	1.613735	1.222656	-0.131424
C108	C	1.947068	1.555989	0.201909
C109	C	1.370722	0.914200	-0.363060
C110	C	1.704056	1.247534	-0.029727
C111	C	2.037389	1.580867	0.303606
C112	C	1.355774	0.827543	-0.379844
C113	C	1.689107	1.160876	-0.046510
C114	C	2.022441	1.494210	0.286823
C115	C	1.303140	0.771773	-0.439082
C116	C	1.636473	1.105106	-0.105749
C117	C	1.969806	1.438440	0.227585
C118	C	1.265453	0.802665	-0.481541
C119	C	1.598786	1.135999	-0.148208
C120	C	1.932120	1.469332	0.185126
C121	C	1.423352	0.969967	-0.303814
C122	C	1.756685	1.303301	0.029520
C123	C	2.090018	1.636634	0.362853
C124	C	1.461038	0.939080	-0.261359
C125	C	1.794371	1.272413	0.071974
C126	C	2.127705	1.605747	0.405308
C127	C	1.446095	0.852421	-0.278146
C128	C	1.779428	1.185754	0.055187
C129	C	2.112762	1.519088	0.388520
C130	C	1.393461	0.796651	-0.337385
C131	C	1.726794	1.129984	-0.004051
C132	C	2.060127	1.463318	0.329282
C133	C	1.483782	0.821529	-0.235687
C134	C	1.817115	1.154862	0.097646
C135	C	2.150448	1.488195	0.430979
C136	C	1.468834	0.734871	-0.252471
C137	C	1.802167	1.068205	0.080863
C138	C	2.135500	1.401538	0.414196
C139	C	1.378513	0.709994	-0.354168
C140	C	1.711846	1.043327	-0.020835
C141	C	2.045179	1.376660	0.312499
C142	C	1.242923	0.506914	-0.921095
C143	C	1.576256	0.840247	-0.587762
C144	C	1.909590	1.173581	-0.254429
C145	C	1.257854	0.490075	-1.007771
C146	C	1.591187	0.823409	-0.674438
C147	C	1.924521	1.156742	-0.341104
C148	C	1.348123	0.388305	-1.032679
C149	C	1.681457	0.721638	-0.699345
C150	C	2.014790	1.054971	-0.366012
C151	C	1.333197	0.405132	-0.946004
C152	C	1.666530	0.738465	-0.612671
C153	C	1.999863	1.071798	-0.279337
C154	C	1.280597	0.464438	-0.890218
C155	C	1.613930	0.797771	-0.556885
C156	C	1.947263	1.131104	-0.223552
C157	C	1.370870	0.362655	-0.915127
C158	C	1.704204	0.695989	-0.581794
C159	C	2.037537	1.029322	-0.248460
C160	C	1.355948	0.379484	-0.828459
C161	C	1.689282	0.712818	-0.495126
C162	C	2.022615	1.046151	-0.161792
C163	C	1.303353	0.438790	-0.772668
C164	C	1.636686	0.772123	-0.439335
C165	C	1.970019	1.105456	-0.106001
C166	C	1.265675	0.481267	-0.803550
C167	C	1.599008	0.814600	-0.470217
C168	C	1.932341	1.147933	-0.136884
C169	C	1.423475	0.303354	-0.970913
C170	C	1.756809	0.636687	-0.637580
C171	C	2.090142	0.970021	-0.304247
C172	C	1.461149	0.260878	-0.940036
C173	C	1.794482	0.594211	-0.606703
C174	C	2.127816	0.927544	-0.273370
C175	C	1.446222	0.277702	-0.853368
C176	C	1.779556	0.611036	-0.520034
C177	C	2.112889	0.944369	-0.186701
C178	C	1.393627	0.337007	-0.797577
C179	C	1.726960	0.670341	-0.464243
C180	C	2.060293	1.003674	-0.130910
C181	C	1.483900	0.235225	-0.822485
C182	C	1.817234	0.568558	-0.489152
C183	C	2.150567	0.901892	-0.155819
C184	C	1.468978	0.252054	-0.735818
C185	C	1.802312	0.585387	-0.402484
C186	C	2.135645	0.918721	-0.069151
C187	C	1.378704	0.353836	-0.710909
C188	C	1.712038	0.687170	-0.377576
C189	C	2.045371	1.020503	-0.044242
C190	C	1.326194	0.413102	-0.155742
C191	C	1.659527	0.746435	0.177591
C192	C	1.992861	1.079769	0.510925
C193	C	1.310445	0.430784	-0.063555
C194	C	1.643779	0.764118	0.269778
C195	C	1.977112	1.097451	0.603112
H196	H	0.902379	0.427164	-0.426979
H197	H	1.235712	0.760497	-0.093646
H198	H	1.569046	1.093831	0.239687
Br199	Br	1.194032	0.726974	-0.561954
Br200	Br	1.527365	1.060308	-0.228621
Br201	Br	1.860699	1.393641	0.104713
H202	H	1.222818	0.529539	-0.758129
H203	H	1.556152	0.862872	-0.424796
H204	H	1.889485	1.196206	-0.091462
Br205	Br	0.790987	0.291267	-0.291641
Br206	Br	1.124321	0.624600	0.041692
Br207	Br	1.457654	0.957933	0.375026
H208	H	1.335659	0.664586	-0.402416
H209	H	1.668993	0.997919	-0.069083
H210	H	2.002326	1.331252	0.264251
Br211	Br	1.283102	0.654133	-0.462081
Br212	Br	1.616435	0.987466	-0.128748
Br213	Br	1.949768	1.320799	0.204586
Br214	Br	1.171294	0.844519	-0.587625
Br215	Br	1.504627	1.177852	-0.254292
Br216	Br	1.837960	1.511185	0.079041
Br217	Br	1.206504	1.048792	-0.548030
Br218	Br	1.539838	1.382126	-0.214696
Br219	Br	1.873171	1.715459	0.118637
Br220	Br	1.443733	0.280519	-1.088535
Br221	Br	1.777067	0.613853	-0.755202
Br222	Br	2.110400	0.947186	-0.421868
Br223	Br	1.532537	0.180398	-1.015751
Br224	Br	1.865871	0.513731	-0.682418
Br225	Br	2.199204	0.847065	-0.349084
H226	H	1.390834	1.077168	-0.340489
H227	H	1.724167	1.410502	-0.007156
H228	H	2.057500	1.743835	0.326177
Br229	Br	1.171524	0.587392	-0.845380
Br230	Br	1.504858	0.920725	-0.512046
Br231	Br	1.838191	1.254058	-0.178713
Br232	Br	1.206718	0.547728	-1.049672
Br233	Br	1.540051	0.881061	-0.716339
Br234	Br	1.873385	1.214395	-0.383006
H235	H	1.499521	0.709724	-0.217899
H236	H	1.832854	1.043057	0.115435
H237	H	2.166188	1.376391	0.448768
H238	H	1.435523	1.040528	-0.290153
H239	H	1.768857	1.373862	0.043181
H240	H	2.102190	1.707195	0.376514
H241	H	1.503890	0.984496	-0.213121
H242	H	1.837224	1.317829	0.120212
H243	H	2.170557	1.651162	0.453546
Br244	Br	1.555202	0.897220	-0.155282
Br245	Br	1.888536	1.230553	0.178052
Br246	Br	2.221869	1.563886	0.511385
Br247	Br	1.307306	0.434314	-0.635193
Br248	Br	1.640639	0.767647	-0.301860
Br249	Br	1.973973	1.100981	0.031473
Br250	Br	1.555298	0.154754	-0.898201
Br251	Br	1.888631	0.488087	-0.564868
Br252	Br	2.221964	0.821421	-0.231534
Br253	Br	1.520113	0.194414	-0.693907
Br254	Br	1.853446	0.527747	-0.360574
Br255	Br	2.186780	0.861080	-0.027240
H256	H	1.291208	0.452494	-0.702098
H257	H	1.624541	0.785827	-0.368764
H258	H	1.957875	1.119161	-0.035431
H259	H	1.390953	0.340020	-1.078110
H260	H	1.724287	0.673353	-0.744777
H261	H	2.057620	1.006687	-0.411444
