data_functionalizedCrystal
_audit_creation_method	'MofGen! by Chris Wilmer'
_symmetry_space_group_name_H-M	'P1'
_symmetry_Int_Tables_number	1
_symmetry_cell_setting	triclinic
loop_
_symmetry_equiv_pos_as_xyz
  x,y,z
_cell_length_a	18.101398
_cell_length_b	18.101389
_cell_length_c	13.897448
_cell_angle_alpha	90.016741
_cell_angle_beta	89.987041
_cell_angle_gamma	89.975673
loop_
_atom_site_label
_atom_site_type_symbol
_atom_site_fract_x
_atom_site_fract_y
_atom_site_fract_z
Zn1	Zn	1.132190	-0.418847	0.384238
Zn2	Zn	1.132115	-0.295009	0.545520
Zn3	Zn	1.008349	-0.295009	0.384228
Zn4	Zn	1.008329	-0.418798	0.545479
O5	O	1.070246	-0.356916	0.464866
O6	O	1.235813	-0.402441	0.405654
O7	O	1.115674	-0.191376	0.524138
O8	O	1.024817	-0.311456	0.249248
O9	O	1.235758	-0.311458	0.524147
O10	O	1.115802	-0.402440	0.249255
O11	O	1.024744	-0.191376	0.405637
O12	O	0.904713	-0.311408	0.405597
O13	O	1.024782	-0.522438	0.524077
O14	O	0.904699	-0.402356	0.524067
O15	O	1.115783	-0.522474	0.405614
O16	O	1.115654	-0.311410	0.680497
O17	O	1.024709	-0.402357	0.680466
C18	C	0.877835	-0.356877	0.464827
C19	C	0.795521	-0.356878	0.464834
C20	C	1.070288	-0.550078	0.464842
C21	C	1.070307	-0.632392	0.464832
C22	C	0.496430	-0.356940	0.464894
C23	C	0.527740	-0.299998	0.389983
C24	C	0.613358	-0.299755	0.390184
C25	C	0.644813	-0.356910	0.464863
C26	C	0.613713	-0.335587	0.566468
C27	C	0.528068	-0.335191	0.566052
C28	C	0.528040	-0.435339	0.439083
C29	C	0.613690	-0.434911	0.436820
C30	C	0.728672	-0.356893	0.464852
C31	C	0.412571	-0.356955	0.464912
C32	C	1.070350	-0.931483	0.464651
C33	C	1.012898	-0.900135	0.538948
C34	C	1.013053	-0.814517	0.539292
C35	C	1.070328	-0.783101	0.464741
C36	C	1.148358	-0.814207	0.492341
C37	C	1.148038	-0.899852	0.492829
C38	C	1.050450	-0.899905	0.362588
C39	C	1.048714	-0.814254	0.363178
C40	C	1.070320	-0.699241	0.464790
C41	C	1.070363	-1.015343	0.464604
C42	C	1.263408	-0.356955	0.464906
C43	C	1.345722	-0.356972	0.464923
C44	C	1.070192	-0.356894	0.715481
C45	C	1.070236	-0.356910	0.822695
C46	C	1.070246	-0.164505	0.464821
C47	C	1.070371	-0.082192	0.464560
C48	C	1.070320	-0.356954	0.213273
C49	C	1.070352	-0.356970	0.106059
C50	C	1.070314	-0.356956	1.018990
C51	C	1.070269	-0.356933	0.909757
H52	H	0.634385	-0.313120	0.314839
H53	H	0.507793	-0.477767	0.493646
H54	H	0.954861	-0.920721	0.521852
O55	O	0.500623	-0.387735	0.642477
H56	H	0.548525	-0.413309	0.679576
O57	O	0.640698	-0.388798	0.642392
H58	H	0.676652	-0.431104	0.608432
O59	O	0.642050	-0.494115	0.503844
H60	H	0.673329	-0.535897	0.461876
O61	O	1.030457	-0.787328	0.639476
H62	H	0.983800	-0.753280	0.666361
H63	H	0.634021	-0.450989	0.362050
H64	H	1.192296	-0.920591	0.441064
H65	H	0.506194	-0.242243	0.406852
O66	O	1.206594	-0.787248	0.422933
H67	H	1.180477	-0.751304	0.367898
H68	H	0.635131	-0.278893	0.588739
O69	O	0.640446	-0.222798	0.412773
H70	H	0.674360	-0.224139	0.479279
O71	O	0.936408	-0.786661	0.516399
H72	H	0.915805	-0.752706	0.577275
H73	H	1.164906	-0.919837	0.567438
O74	O	0.500429	-0.317460	0.289881
H75	H	0.464249	-0.366913	0.292445
O76	O	1.100102	-0.785936	0.285959
H77	H	1.157500	-0.803356	0.302554
O78	O	0.501560	-0.259271	0.595031
H79	H	0.467417	-0.263621	0.661136
O80	O	1.171093	-0.785818	0.590123
H81	H	1.126948	-0.749564	0.619220
H82	H	0.994538	-0.921490	0.337443
O83	O	0.499461	-0.461022	0.342646
H84	H	0.438254	-0.464233	0.344972
H85	H	1.025907	-0.921662	0.614138
O86	O	0.972658	-0.787313	0.335585
H87	H	0.950337	-0.751879	0.393954
H88	H	1.092295	-0.920180	0.307233
