data_functionalizedCrystal
_audit_creation_method	'MofGen! by Chris Wilmer'
_symmetry_space_group_name_H-M	'P1'
_symmetry_Int_Tables_number	1
_symmetry_cell_setting	triclinic
loop_
_symmetry_equiv_pos_as_xyz
  x,y,z
_cell_length_a	11.169417
_cell_length_b	13.897448
_cell_length_c	13.897441
_cell_angle_alpha	89.969401
_cell_angle_beta	89.981458
_cell_angle_gamma	90.018571
loop_
_atom_site_label
_atom_site_type_symbol
_atom_site_fract_x
_atom_site_fract_y
_atom_site_fract_z
Zn1	Zn	1.834886	-0.383962	-0.545325
Zn2	Zn	2.334886	0.116038	-0.045325
Zn3	Zn	1.834754	-0.545283	-0.384026
Zn4	Zn	2.334754	-0.045283	0.115974
Zn5	Zn	1.634176	-0.384006	-0.384049
Zn6	Zn	2.134176	0.115994	0.115951
Zn7	Zn	1.634153	-0.545219	-0.545285
Zn8	Zn	2.134153	-0.045219	-0.045285
O9	O	1.734492	-0.464617	-0.464671
O10	O	2.234492	0.035383	0.035329
O11	O	2.002818	-0.405369	-0.523935
O12	O	2.502818	0.094631	-0.023935
O13	O	1.808101	-0.523935	-0.249048
O14	O	2.308101	-0.023935	0.250952
O15	O	1.660865	-0.249019	-0.405469
O16	O	2.160865	0.250981	0.094531
O17	O	2.002721	-0.523892	-0.405430
O18	O	2.502721	-0.023892	0.094570
O19	O	1.808326	-0.248986	-0.523958
O20	O	2.308326	0.251014	-0.023958
O21	O	1.660738	-0.405446	-0.249065
O22	O	2.160738	0.094554	0.250935
O23	O	1.466223	-0.405383	-0.405431
O24	O	1.966223	0.094617	0.094569
O25	O	1.660827	-0.523782	-0.680272
O26	O	2.160827	-0.023782	-0.180272
O27	O	1.466207	-0.523825	-0.523890
O28	O	1.966207	-0.023825	-0.023890
O29	O	1.808304	-0.405307	-0.680301
O30	O	2.308304	0.094693	-0.180301
O31	O	1.808079	-0.680256	-0.405391
O32	O	2.308079	-0.180256	0.094609
O33	O	1.660699	-0.680209	-0.523867
O34	O	2.160699	-0.180209	-0.023867
C35	C	1.422668	-0.464603	-0.464659
C36	C	1.922668	0.035397	0.035341
C37	C	1.289268	-0.464620	-0.464676
C38	C	1.789268	0.035380	0.035324
C39	C	1.734405	-0.715232	-0.464643
C40	C	2.234405	-0.215232	0.035357
C41	C	1.734477	-0.822446	-0.464664
C42	C	2.234477	-0.322446	0.035336
C43	C	1.734603	-1.018741	-0.464724
C44	C	2.234603	-0.518741	0.035276
C45	C	1.734530	-0.909508	-0.464693
C46	C	2.234530	-0.409508	0.035307
C47	C	2.047535	-0.464633	-0.464684
C48	C	2.547535	0.035367	0.035316
C49	C	2.180935	-0.464639	-0.464690
C50	C	2.680935	0.035361	0.035310
C51	C	1.734577	-0.464532	-0.716264
C52	C	2.234577	0.035468	-0.216264
C53	C	1.734614	-0.464496	-0.823478
C54	C	2.234614	0.035504	-0.323478
C55	C	1.734613	-0.213024	-0.464720
C56	C	2.234613	0.286976	0.035280
C57	C	1.734664	-0.105811	-0.464741
C58	C	2.234664	0.394189	0.035259
C59	C	1.734646	-0.464431	-1.019774
C60	C	2.234646	0.035569	-0.519774
C61	C	1.734625	-0.464470	-0.910541
C62	C	2.234625	0.035530	-0.410541
C63	C	1.734477	-0.464633	-0.214057
C64	C	2.234477	0.035367	0.285943
C65	C	1.734673	-0.464397	-0.106844
C66	C	2.234673	0.035603	0.393156
