data_functionalizedCrystal
_audit_creation_method	'MofGen! by Chris Wilmer'
_symmetry_space_group_name_H-M	'P1'
_symmetry_Int_Tables_number	1
_symmetry_cell_setting	triclinic
loop_
_symmetry_equiv_pos_as_xyz
  x,y,z
_cell_length_a	19.288864
_cell_length_b	10.723024
_cell_length_c	18.366186
_cell_angle_alpha	89.994974
_cell_angle_beta	89.977106
_cell_angle_gamma	83.802058
loop_
_atom_site_label
_atom_site_type_symbol
_atom_site_fract_x
_atom_site_fract_y
_atom_site_fract_z
O1	O	0.922366	0.155659	-0.060782
O2	O	0.720242	0.176657	-0.060732
O3	O	0.825966	-0.015516	-0.060755
O4	O	0.816641	0.347832	-0.060758
O5	O	0.825948	-0.015526	0.060344
O6	O	0.720223	0.176647	0.060368
O7	O	0.922347	0.155649	0.060318
Zn8	Zn	0.821282	0.166147	0.079570
Zn9	Zn	0.821306	0.166159	-0.079984
O10	O	0.816623	0.347822	0.060341
C11	C	0.694352	0.175976	-0.000176
C12	C	0.617235	0.173948	-0.000156
C13	C	0.825278	-0.062006	-0.000206
C14	C	0.823248	-0.200518	-0.000208
C15	C	0.573272	0.286707	-0.000169
C16	C	0.500813	0.284801	-0.000177
C17	C	0.472319	0.170131	-0.000187
C18	C	0.516291	0.057358	-0.000171
C19	C	0.588749	0.059266	-0.000155
C20	C	0.363477	0.079991	-0.042637
C21	C	0.291020	0.078087	-0.042657
C22	C	0.248835	0.164239	-0.000231
C23	C	0.279115	0.252317	0.042205
C24	C	0.351573	0.254226	0.042221
C25	C	0.393752	0.168049	-0.000203
C26	C	0.126303	0.274939	-0.000251
C27	C	0.053843	0.273029	-0.000255
C28	C	0.069323	0.045582	-0.000256
C29	C	0.141782	0.047496	-0.000245
C30	C	0.170267	0.162178	-0.000246
C31	C	0.882406	-0.276743	-0.000224
C32	C	0.880309	-0.419902	-0.000226
C33	C	0.948237	0.156330	-0.000240
C34	C	1.025354	0.158358	-0.000264
C35	C	0.817311	0.394313	-0.000209
C36	C	0.819341	0.532824	-0.000212
N37	N	0.821271	0.166138	0.188461
N38	N	0.821323	0.166159	-0.188875
C39	C	0.868102	0.081085	0.226551
C40	C	0.868106	0.081079	0.302779
C41	C	0.821287	0.166148	0.340914
C42	C	0.774447	0.251207	0.302815
C43	C	0.774440	0.251202	0.226588
C44	C	0.812728	0.279840	0.461675
C45	C	0.812741	0.279847	0.537899
C46	C	0.821307	0.166164	0.576021
C47	C	0.829874	0.052468	0.537909
C48	C	0.829867	0.052463	0.461682
C49	C	0.821290	0.166162	0.423569
C50	C	0.868144	0.081098	0.696766
C51	C	0.868144	0.081091	0.772995
C52	C	0.774489	0.251229	0.773030
C53	C	0.774486	0.251225	0.696802
C54	C	0.821317	0.166161	0.658675
H55	H	0.596460	0.380090	-0.000171
C56	C	0.232724	0.347091	0.088879
H57	H	0.261134	0.399821	0.114149
H58	H	0.207377	0.303205	0.122990
H59	H	0.201046	0.396735	0.058283
H60	H	0.266372	0.006374	-0.077214
H61	H	0.736365	0.320489	0.804079
C62	C	0.452445	0.408840	-0.000202
H63	H	0.479788	0.477412	-0.000206
H64	H	0.423828	0.412834	0.042018
H65	H	0.423888	0.412805	-0.042447
C66	C	0.384882	0.351091	0.088900
H67	H	0.434076	0.339890	0.082827
H68	H	0.373727	0.339810	0.138683
H69	H	0.367400	0.433341	0.073978
H70	H	0.768695	-0.401687	-0.000194
H71	H	0.906242	0.011817	0.333797
H72	H	0.624544	-0.032558	-0.000146
H73	H	0.018048	0.364855	-0.000261
C74	C	0.752727	-0.255516	-0.000196
H75	H	0.715883	-0.189129	-0.000191
H76	H	0.749383	-0.305679	0.042032
H77	H	0.749401	-0.305654	-0.042433
H78	H	0.906233	0.011818	0.195510
H79	H	0.930952	-0.485398	-0.000236
H80	H	0.836849	-0.040104	0.568946
C81	C	0.722979	0.344798	0.654901
H82	H	0.695099	0.395470	0.688528
H83	H	0.693852	0.300046	0.625182
H84	H	0.748213	0.396628	0.625150
C85	C	0.157644	0.401078	-0.000244
H86	H	0.207094	0.386066	-0.000243
H87	H	0.142568	0.447487	0.041985
H88	H	0.142611	0.447493	-0.042480
H89	H	0.836841	-0.040112	0.430654
H90	H	0.906275	0.011829	0.665722
C91	C	0.803301	0.404897	0.419744
H92	H	0.804515	0.388612	0.368889
H93	H	0.839855	0.453632	0.432211
H94	H	0.759704	0.449587	0.432258
H95	H	0.906277	0.011824	0.804009
C96	C	0.803318	0.404901	0.579820
H97	H	0.804558	0.388625	0.630677
H98	H	0.759721	0.449590	0.567349
H99	H	0.839872	0.453634	0.567302
H100	H	0.736325	0.320469	0.333868
H101	H	0.046124	-0.047784	-0.000309
H102	H	0.934605	-0.236017	-0.000232
C103	C	0.190143	-0.076540	-0.000243
H104	H	0.162798	-0.145109	-0.000256
H105	H	0.218709	-0.080530	0.041992
H106	H	0.218751	-0.080515	-0.042474
C107	C	0.722929	0.344772	0.184688
H108	H	0.695047	0.395442	0.218314
H109	H	0.693804	0.300020	0.154966
H110	H	0.748164	0.396605	0.154939
H111	H	0.493087	-0.036008	-0.000189
C112	C	0.409873	-0.014774	-0.089315
H113	H	0.381463	-0.067486	-0.114600
H114	H	0.441555	-0.064420	-0.058730
H115	H	0.435217	0.029132	-0.123426
