data_functionalizedCrystal
_audit_creation_method	'MofGen! by Chris Wilmer'
_symmetry_space_group_name_H-M	'P1'
_symmetry_Int_Tables_number	1
_symmetry_cell_setting	triclinic
loop_
_symmetry_equiv_pos_as_xyz
  x,y,z
_cell_length_a	12.759401
_cell_length_b	12.827892
_cell_length_c	12.759393
_cell_angle_alpha	89.969663
_cell_angle_beta	89.979527
_cell_angle_gamma	90.016917
loop_
_atom_site_label
_atom_site_type_symbol
_atom_site_fract_x
_atom_site_fract_y
_atom_site_fract_z
Zn1	Zn	1.606257	-0.415934	-0.594025
Zn2	Zn	1.606147	-0.590713	-0.418348
Zn3	Zn	1.430557	-0.415992	-0.418361
Zn4	Zn	1.430545	-0.590639	-0.593985
O5	O	1.518376	-0.503319	-0.506180
O6	O	1.753263	-0.439126	-0.570733
O7	O	1.582813	-0.567591	-0.271328
O8	O	1.453914	-0.269748	-0.441685
O9	O	1.753182	-0.567536	-0.441663
O10	O	1.583000	-0.269706	-0.570745
O11	O	1.453808	-0.439224	-0.271338
O12	O	1.283534	-0.439152	-0.441646
O13	O	1.453894	-0.567408	-0.741011
O14	O	1.283526	-0.567464	-0.570676
O15	O	1.582989	-0.439054	-0.741041
O16	O	1.582802	-0.736939	-0.441624
O17	O	1.453788	-0.736885	-0.570664
C18	C	1.245409	-0.503307	-0.506159
C19	C	1.128632	-0.503326	-0.506175
C20	C	1.073793	-0.570240	-0.573255
C21	C	0.964069	-0.570244	-0.573276
C22	C	0.964033	-0.436417	-0.439127
C23	C	1.073755	-0.436409	-0.439112
C24	C	1.518311	-0.774829	-0.506161
C25	C	1.518379	-0.890982	-0.506188
C26	C	1.582295	-0.942760	-0.442406
C27	C	1.582366	-1.062810	-0.442433
C28	C	1.792410	-0.503333	-0.506201
C29	C	1.909186	-0.503339	-0.506210
C30	C	1.518453	-0.503216	-0.780213
C31	C	1.518485	-0.503173	-0.896990
C32	C	1.518471	-0.230749	-0.506221
C33	C	1.518511	-0.114596	-0.506239
C34	C	1.585731	-0.436288	-1.061600
C35	C	1.585711	-0.436329	-0.951876
C36	C	1.451282	-0.569988	-0.951833
C37	C	1.451309	-0.569952	-1.061556
C38	C	1.518361	-0.503347	-0.233212
C39	C	1.518532	-0.503096	-0.116436
H40	H	0.919338	-0.381937	-0.384525
O41	O	1.132915	-0.364250	-0.366742
H42	H	1.076324	-0.317736	-0.320095
H43	H	1.118471	-0.624726	-0.627864
H44	H	1.640433	-0.381928	-0.907233
O45	O	1.445952	-0.949984	-0.578541
H46	H	1.493016	-0.999640	-0.631997
H47	H	1.463783	-1.070077	-0.560844
O48	O	1.654737	-0.883766	-0.370063
H49	H	1.643319	-0.798731	-0.381402
O50	O	1.378821	-0.642014	-1.120704
H51	H	1.390142	-0.630763	-1.206220
O52	O	1.378762	-0.642078	-0.892643
H53	H	1.425744	-0.695263	-0.842636
O54	O	0.904917	-0.642531	-0.645509
H55	H	0.961514	-0.689104	-0.692089
H56	H	1.637084	-1.107337	-0.387824
O57	O	1.658243	-0.364195	-1.120798
H58	H	1.704976	-0.317755	-1.064229
