data_functionalizedCrystal
_audit_creation_method	'MofGen! by Chris Wilmer'
_symmetry_space_group_name_H-M	'P1'
_symmetry_Int_Tables_number	1
_symmetry_cell_setting	triclinic
loop_
_symmetry_equiv_pos_as_xyz
  x,y,z
_cell_length_a	18.050590
_cell_length_b	19.805405
_cell_length_c	19.805399
_cell_angle_alpha	89.970699
_cell_angle_beta	89.997050
_cell_angle_gamma	90.015577
loop_
_atom_site_label
_atom_site_type_symbol
_atom_site_fract_x
_atom_site_fract_y
_atom_site_fract_z
Zn1	Zn	1.135329	-0.269675	-0.382411
Zn2	Zn	1.468662	0.063659	-0.049078
Zn3	Zn	1.801996	0.396992	0.284255
Zn4	Zn	1.135236	-0.382863	-0.269220
Zn5	Zn	1.468569	-0.049530	0.064114
Zn6	Zn	1.801902	0.283804	0.397447
Zn7	Zn	1.011140	-0.269672	-0.269269
Zn8	Zn	1.344473	0.063661	0.064065
Zn9	Zn	1.677807	0.396995	0.397398
Zn10	Zn	1.011100	-0.382806	-0.382399
Zn11	Zn	1.344433	-0.049472	-0.049066
Zn12	Zn	1.677767	0.283861	0.284267
O13	O	1.073201	-0.326254	-0.325825
O14	O	1.406535	0.007080	0.007509
O15	O	1.739868	0.340413	0.340842
O16	O	1.239241	-0.284714	-0.367381
O17	O	1.572575	0.048619	-0.034047
O18	O	1.905908	0.381952	0.299286
O19	O	1.118752	-0.367871	-0.174510
O20	O	1.452085	-0.034538	0.158824
O21	O	1.785418	0.298796	0.492157
O22	O	1.027670	-0.174956	-0.284303
O23	O	1.361003	0.158378	0.049030
O24	O	1.694337	0.491711	0.382364
O25	O	1.239173	-0.367873	-0.284219
O26	O	1.572506	-0.034540	0.049114
O27	O	1.905839	0.298793	0.382447
O28	O	1.118911	-0.174958	-0.367428
O29	O	1.452244	0.158376	-0.034095
O30	O	1.785578	0.491709	0.299238
O31	O	1.027579	-0.284710	-0.174546
O32	O	1.360913	0.048624	0.158788
O33	O	1.694246	0.381957	0.492121
O34	O	0.907210	-0.284654	-0.284291
O35	O	1.240544	0.048679	0.049042
O36	O	1.573877	0.382012	0.382375
O37	O	1.027602	-0.367776	-0.477117
O38	O	1.360935	-0.034442	-0.143784
O39	O	1.694268	0.298891	0.189549
O40	O	0.907181	-0.367773	-0.367408
O41	O	1.240514	-0.034440	-0.034074
O42	O	1.573848	0.298894	0.299259
O43	O	1.118872	-0.284659	-0.477126
O44	O	1.452205	0.048674	-0.143793
O45	O	1.785539	0.382008	0.189540
O46	O	1.118713	-0.477572	-0.284208
O47	O	1.452046	-0.144239	0.049126
O48	O	1.785380	0.189095	0.382459
O49	O	1.027511	-0.477530	-0.367360
O50	O	1.360844	-0.144196	-0.034027
O51	O	1.694178	0.189137	0.299307
C52	C	1.073118	-0.502110	-0.325792
C53	C	1.406451	-0.168777	0.007541
C54	C	1.739784	0.164557	0.340875
C55	C	1.073150	-0.577342	-0.325801
C56	C	1.406483	-0.244008	0.007533
C57	C	1.739817	0.089325	0.340866
C58	C	0.880249	-0.326208	-0.325854
C59	C	1.213582	0.007126	0.007479
C60	C	1.546916	0.340459	0.340813
C61	C	0.797703	-0.326204	-0.325882
C62	C	1.131037	0.007129	0.007451
C63	C	1.464370	0.340463	0.340784
C64	C	1.120685	-0.612685	-0.282548
C65	C	1.454018	-0.279352	0.050785
C66	C	1.787351	0.053981	0.384118
C67	C	1.120716	-0.683374	-0.282563
C68	C	1.454050	-0.350041	0.050770
C69	C	1.787383	-0.016707	0.384103
C70	C	1.073209	-0.718717	-0.325828
C71	C	1.406542	-0.385384	0.007506
C72	C	1.739875	-0.052051	0.340839
C73	C	1.025672	-0.683369	-0.369085
C74	C	1.359005	-0.350035	-0.035751
C75	C	1.692338	-0.016702	0.297582
C76	C	1.025644	-0.612682	-0.369073
C77	C	1.358978	-0.279348	-0.035739
C78	C	1.692311	0.053985	0.297594
C79	C	1.025781	-0.968442	-0.369135
C80	C	1.359115	-0.635109	-0.035801
C81	C	1.692448	-0.301775	0.297532
C82	C	1.025811	-1.039134	-0.369142
C83	C	1.359144	-0.705801	-0.035809
C84	C	1.692477	-0.372467	0.297525
C85	C	1.120853	-1.039134	-0.282625
C86	C	1.454186	-0.705801	0.050708
C87	C	1.787520	-0.372468	0.384041
C88	C	1.120826	-0.968447	-0.282613
C89	C	1.454159	-0.635114	0.050720
C90	C	1.787492	-0.301780	0.384053
C91	C	1.073292	-0.933105	-0.325873
C92	C	1.406625	-0.599771	0.007461
C93	C	1.739959	-0.266438	0.340794
C94	C	1.073259	-0.856456	-0.325857
C95	C	1.406593	-0.523123	0.007477
C96	C	1.739926	-0.189790	0.340810
C97	C	1.073237	-0.795365	-0.325840
C98	C	1.406570	-0.462031	0.007493
C99	C	1.739904	-0.128698	0.340826
C100	C	0.598258	-0.371534	-0.370974
C101	C	0.931592	-0.038200	-0.037640
C102	C	1.264925	0.295133	0.295693
C103	C	0.548864	-0.309817	-0.387633
C104	C	0.882197	0.023516	-0.054299
C105	C	1.215531	0.356850	0.279034
C106	C	0.646573	-0.326242	-0.325849
C107	C	0.979906	0.007091	0.007484
C108	C	1.313240	0.340425	0.340817
C109	C	0.548885	-0.387994	-0.309190
C110	C	0.882219	-0.054660	0.024143
C111	C	1.215552	0.278673	0.357477
C112	C	0.500588	-0.326284	-0.325819
C113	C	0.833921	0.007049	0.007515
C114	C	1.167255	0.340383	0.340848
C115	C	0.598266	-0.264493	-0.342540
C116	C	0.931599	0.068841	-0.009207
C117	C	1.264933	0.402174	0.324126
C118	C	0.598292	-0.342711	-0.264069
C119	C	0.931625	-0.009377	0.069264
C120	C	1.264958	0.323956	0.402598
C121	C	0.548920	-0.280952	-0.280704
C122	C	0.882253	0.052382	0.052629
C123	C	1.215587	0.385715	0.385962
C124	C	0.730671	-0.326219	-0.325869
C125	C	1.064005	0.007115	0.007465
C126	C	1.397338	0.340448	0.340798
C127	C	0.416491	-0.326300	-0.325799
C128	C	0.749825	0.007033	0.007534
C129	C	1.083158	0.340366	0.340868
C130	C	1.266907	-0.326301	-0.325796
C131	C	1.600240	0.007033	0.007538
C132	C	1.933573	0.340366	0.340871
C133	C	1.349453	-0.326321	-0.325784
C134	C	1.682786	0.007013	0.007550
C135	C	2.016119	0.340346	0.340883
C136	C	1.073243	-0.326211	-0.502367
C137	C	1.406576	0.007122	-0.169034
C138	C	1.739910	0.340455	0.164299
C139	C	1.073261	-0.326193	-0.577599
C140	C	1.406594	0.007140	-0.244266
C141	C	1.739927	0.340474	0.089067
C142	C	1.073305	-0.149711	-0.325872
C143	C	1.406639	0.183622	0.007461
C144	C	1.739972	0.516956	0.340794
C145	C	1.073350	-0.074479	-0.325893
C146	C	1.406683	0.258854	0.007441
C147	C	1.740016	0.592188	0.340774
C148	C	1.120786	-0.282912	-0.612949
C149	C	1.454120	0.050421	-0.279616
C150	C	1.787453	0.383755	0.053717
C151	C	1.120794	-0.282892	-0.683638
C152	C	1.454127	0.050441	-0.350304
C153	C	1.787460	0.383774	-0.016971
C154	C	1.073279	-0.326158	-0.718975
C155	C	1.406612	0.007176	-0.385642
C156	C	1.739946	0.340509	-0.052308
C157	C	1.025748	-0.369441	-0.683620
C158	C	1.359082	-0.036107	-0.350287
C159	C	1.692415	0.297226	-0.016954
C160	C	1.025737	-0.369456	-0.612933
C161	C	1.359071	-0.036123	-0.279600
C162	C	1.692404	0.297210	0.053733
C163	C	1.025790	-0.369378	-0.968694
C164	C	1.359124	-0.036044	-0.635360
C165	C	1.692457	0.297289	-0.302027
C166	C	1.025806	-0.369360	-1.039386
C167	C	1.359140	-0.036027	-0.706053
C168	C	1.692473	0.297307	-0.372719
C169	C	1.120847	-0.282813	-1.039398
C170	C	1.454180	0.050520	-0.706065
C171	C	1.787513	0.383853	-0.372732
C172	C	1.120836	-0.282829	-0.968711
C173	C	1.454169	0.050504	-0.635378
C174	C	1.787502	0.383837	-0.302045
C175	C	1.073303	-0.326109	-0.933363
C176	C	1.406636	0.007224	-0.600029
C177	C	1.739969	0.340557	-0.266696
C178	C	1.073294	-0.326129	-0.856714
C179	C	1.406627	0.007204	-0.523381
C180	C	1.739960	0.340537	-0.190048
C181	C	1.073291	-0.326142	-0.795622
C182	C	1.406624	0.007192	-0.462289
C183	C	1.739958	0.340525	-0.128956
C184	C	1.073202	-0.326247	-0.149969
C185	C	1.406536	0.007086	0.183365
C186	C	1.739869	0.340419	0.516698
C187	C	1.073329	-0.326075	-0.074737
C188	C	1.406662	0.007258	0.258596
C189	C	1.739995	0.340592	0.591930
H190	H	1.159368	-0.583913	-0.247315
H191	H	1.492701	-0.250580	0.086019
H192	H	1.826034	0.082753	0.419352
F193	F	0.626671	-0.360914	-0.195805
F194	F	0.960004	-0.027581	0.137528
F195	F	1.293338	0.305753	0.470861
H196	H	1.159508	-0.939673	-0.247381
H197	H	1.492842	-0.606339	0.085952
H198	H	1.826175	-0.273006	0.419285
F199	F	0.520532	-0.456229	-0.290788
F200	F	0.853866	-0.122895	0.042545
F201	F	1.187199	0.210438	0.375879
F202	F	0.975053	-0.575067	-0.415109
F203	F	1.308387	-0.241733	-0.081776
F204	F	1.641720	0.091600	0.251557
F205	F	0.975201	-0.415440	-0.931082
F206	F	1.308534	-0.082107	-0.597749
F207	F	1.641868	0.251226	-0.264415
H208	H	0.619924	-0.409768	-0.409177
H209	H	0.953257	-0.076435	-0.075843
H210	H	1.286591	0.256899	0.257490
H211	H	0.986993	-0.712151	-0.404314
H212	H	1.320327	-0.378818	-0.070981
H213	H	1.653660	-0.045484	0.262353
F214	F	0.626496	-0.196236	-0.361019
F215	F	0.959829	0.137097	-0.027686
F216	F	1.293163	0.470430	0.305648
F217	F	0.520486	-0.291627	-0.455904
F218	F	0.853819	0.041707	-0.122571
F219	F	1.187152	0.375040	0.210762
F220	F	0.520780	-0.230856	-0.230809
F221	F	0.854113	0.102477	0.102525
F222	F	1.187447	0.435810	0.435858
H223	H	1.159481	-0.247682	-0.584183
H224	H	1.492814	0.085651	-0.250849
H225	H	1.826147	0.418984	0.082484
H226	H	1.159496	-0.247650	-0.712417
H227	H	1.492829	0.085683	-0.379083
H228	H	1.826162	0.419017	-0.045750
H229	H	0.987076	-0.939672	-0.404357
H230	H	1.320409	-0.606338	-0.071023
H231	H	1.653743	-0.273005	0.262310
F232	F	1.171410	-0.236783	-0.931106
F233	F	1.504743	0.096551	-0.597773
F234	F	1.838077	0.429884	-0.264440
F235	F	1.171434	-0.236748	-1.077025
F236	F	1.504767	0.096585	-0.743691
F237	F	1.838101	0.429919	-0.410358
H238	H	1.159560	-1.067919	-0.247404
H239	H	1.492894	-0.734585	0.085929
H240	H	1.826227	-0.401252	0.419262
H241	H	0.987111	-0.404593	-1.068156
H242	H	1.320444	-0.071260	-0.734822
H243	H	1.653777	0.262074	-0.401489
F244	F	0.975152	-0.415520	-0.575312
F245	F	1.308486	-0.082187	-0.241978
F246	F	1.641819	0.251146	0.091355
F247	F	1.171312	-0.720986	-0.236530
F248	F	1.504645	-0.387653	0.096803
F249	F	1.837978	-0.054319	0.430136
F250	F	0.975245	-1.076748	-0.415193
F251	F	1.308578	-0.743415	-0.081860
F252	F	1.641912	-0.410081	0.251474
H253	H	0.987058	-0.404666	-0.712398
H254	H	1.320392	-0.071332	-0.379064
H255	H	1.653725	0.262001	-0.045731
