data_functionalizedCrystal
_audit_creation_method	'MofGen! by Chris Wilmer'
_symmetry_space_group_name_H-M	'P1'
_symmetry_Int_Tables_number	1
_symmetry_cell_setting	triclinic
loop_
_symmetry_equiv_pos_as_xyz
  x,y,z
_cell_length_a	14.044220
_cell_length_b	10.540539
_cell_length_c	12.503572
_cell_angle_alpha	93.560877
_cell_angle_beta	86.164750
_cell_angle_gamma	88.857185
loop_
_atom_site_label
_atom_site_type_symbol
_atom_site_fract_x
_atom_site_fract_y
_atom_site_fract_z
O1	O	1.265193	0.299541	-0.089197
O2	O	1.765193	0.799541	0.410803
O3	O	0.989150	0.288487	-0.089224
O4	O	1.489150	0.788487	0.410776
O5	O	1.133469	0.109945	-0.089208
O6	O	1.633469	0.609945	0.410792
O7	O	1.120874	0.478084	-0.089212
O8	O	1.620874	0.978084	0.410788
O9	O	1.122616	0.123396	0.089432
O10	O	1.622616	0.623396	0.589432
O11	O	0.978297	0.301939	0.089417
O12	O	1.478297	0.801939	0.589417
O13	O	1.254339	0.312993	0.089444
O14	O	1.754339	0.812993	0.589444
Cu15	Cu	1.115327	0.308694	0.105742
Cu16	Cu	1.615327	0.808694	0.605742
Cu17	Cu	1.128163	0.292786	-0.105522
Cu18	Cu	1.628163	0.792786	0.394478
O19	O	1.110020	0.491536	0.089428
O20	O	1.610020	0.991536	0.589428
C21	C	0.948377	0.290375	0.000093
C22	C	1.448377	0.790375	0.500093
C23	C	0.843054	0.275945	0.000082
C24	C	1.343054	0.775945	0.500082
C25	C	0.650213	0.249566	0.000104
C26	C	1.150213	0.749566	0.500104
C27	C	0.593272	0.351908	0.000107
C28	C	1.093272	0.851908	0.500107
C29	C	0.485969	0.337231	0.000119
C30	C	0.985969	0.837231	0.500119
C31	C	0.757526	0.264241	0.000092
C32	C	1.257526	0.764241	0.500092
C33	C	1.127098	0.069272	0.000110
C34	C	1.627098	0.569272	0.500110
C35	C	1.124272	-0.071962	0.000104
C36	C	1.624272	0.428038	0.500104
C37	C	1.016008	-0.266368	-0.000308
C38	C	1.516008	0.233632	0.499692
C39	C	1.018848	-0.119430	0.000095
C40	C	1.518848	0.380570	0.500095
C41	C	1.168809	-0.120809	0.102122
C42	C	1.668809	0.379191	0.602122
C43	C	1.165206	-0.267711	0.102207
C44	C	1.665206	0.232289	0.602207
C45	C	1.179693	-0.283309	-0.100941
C46	C	1.679693	0.216691	0.399059
C47	C	1.180746	-0.136331	-0.102289
C48	C	1.680746	0.363669	0.397711
C49	C	1.295113	0.311105	0.000125
C50	C	1.795113	0.811105	0.500125
C51	C	1.400436	0.325535	0.000129
C52	C	1.900436	0.825535	0.500129
C53	C	1.116392	0.532208	0.000108
C54	C	1.616392	1.032208	0.500108
C55	C	1.119218	0.673442	0.000107
C56	C	1.619218	1.173442	0.500107
N57	N	1.106306	0.319883	0.254333
N58	N	1.606306	0.819883	0.754333
N59	N	1.137191	0.281588	-0.254113
N60	N	1.637191	0.781588	0.245887
C61	C	1.093036	0.336354	0.473447
C62	C	1.593036	0.836354	0.973447
C63	C	1.150458	0.265121	0.526780
C64	C	1.650458	0.765121	1.026780
C65	C	1.143074	0.274286	0.648703
C66	C	1.643074	0.774286	1.148703
C67	C	1.100419	0.327191	0.351513
C68	C	1.600419	0.827191	0.851513
H69	H	0.978808	-0.304687	-0.073467
H70	H	1.478808	0.195313	0.426533
H71	H	0.970113	-0.295291	0.072433
H72	H	1.470113	0.204709	0.572433
O73	O	0.612357	0.131815	-0.000043
O74	O	1.112357	0.631815	0.499957
C75	C	0.648450	0.058495	-0.092585
C76	C	1.148450	0.558495	0.407415
H77	H	0.719236	0.098408	-0.123430
H78	H	1.219236	0.598408	0.376570
H79	H	0.660072	-0.044202	-0.071788
H80	H	1.160072	0.455798	0.428212
H81	H	0.595231	0.061989	-0.157366
H82	H	1.095231	0.561989	0.342634
H83	H	1.128954	-0.076056	0.178033
H84	H	1.628954	0.423944	0.678033
O85	O	1.027733	0.417150	0.528323
O86	O	1.527733	0.917150	1.028323
C87	C	0.964764	0.347399	0.593361
C88	C	1.464764	0.847399	1.093361
H89	H	1.000751	0.253449	0.610064
H90	H	1.500751	0.753449	1.110064
H91	H	0.945474	0.404598	0.672502
H92	H	1.445474	0.904598	1.172502
H93	H	0.897150	0.327750	0.550111
H94	H	1.397150	0.827750	1.050111
O95	O	1.144459	-0.331851	-0.193163
O96	O	1.644459	0.168149	0.306837
C97	C	1.049202	-0.288776	-0.197632
C98	C	1.549202	0.211224	0.302368
H99	H	1.036691	-0.197111	-0.144776
H100	H	1.536691	0.302889	0.355224
H101	H	1.035125	-0.270100	-0.284078
H102	H	1.535125	0.229900	0.215922
H103	H	0.998763	-0.364282	-0.167658
H104	H	1.498763	0.135718	0.332342
H105	H	0.625111	0.450550	0.000101
H106	H	1.125111	0.950550	0.500101
H107	H	0.983371	-0.086369	-0.073036
H108	H	1.483371	0.413631	0.426964
H109	H	0.974198	-0.076223	0.073339
H110	H	1.474198	0.423777	0.573339
H111	H	1.123078	-0.293959	0.178460
H112	H	1.623078	0.206041	0.678460
H113	H	1.240744	-0.307665	0.106843
H114	H	1.740744	0.192335	0.606843
O115	O	1.260871	-0.084310	0.106529
O116	O	1.760871	0.415690	0.606529
C117	C	1.286463	-0.013940	0.017158
C118	C	1.786463	0.486060	0.517158
H119	H	1.219374	0.028149	-0.014765
H120	H	1.719374	0.528149	0.485235
H121	H	1.335255	0.066086	0.042401
H122	H	1.835255	0.566086	0.542401
H123	H	1.325456	-0.079150	-0.048426
H124	H	1.825456	0.420850	0.451574
H125	H	1.148208	-0.104908	-0.177759
H126	H	1.648208	0.395092	0.322241
H127	H	1.257982	-0.104802	-0.108442
H128	H	1.757982	0.395198	0.391558
O129	O	1.270533	-0.330675	-0.101624
O130	O	1.770533	0.169325	0.398376
C131	C	1.279476	-0.402503	-0.011230
C132	C	1.779476	0.097497	0.488770
H133	H	1.206184	-0.436041	0.018158
H134	H	1.706184	0.063959	0.518158
H135	H	1.328792	-0.488486	-0.034203
H136	H	1.828792	0.011514	0.465797
H137	H	1.310685	-0.341065	0.055449
H138	H	1.810685	0.158935	0.555449
H139	H	1.205164	0.197256	0.480873
H140	H	1.705164	0.697256	0.980873
