data_functionalizedCrystal
_audit_creation_method	'MofGen! by Chris Wilmer'
_symmetry_space_group_name_H-M	'P1'
_symmetry_Int_Tables_number	1
_symmetry_cell_setting	triclinic
loop_
_symmetry_equiv_pos_as_xyz
  x,y,z
_cell_length_a	6.817900
_cell_length_b	16.417825
_cell_length_c	16.015572
_cell_angle_alpha	77.934294
_cell_angle_beta	104.485554
_cell_angle_gamma	103.385495
loop_
_atom_site_label
_atom_site_type_symbol
_atom_site_fract_x
_atom_site_fract_y
_atom_site_fract_z
V1	V	-3.991458	-0.033756	-0.269481
V2	V	-3.491458	0.466244	0.230519
O3	O	-3.980177	0.086039	-0.264040
O4	O	-3.480177	0.586039	0.235960
O5	O	-3.942703	-0.148123	-0.267938
O6	O	-3.442703	0.351877	0.232062
O7	O	-3.927894	0.003804	-0.386875
O8	O	-3.427894	0.503804	0.113125
O9	O	-3.995088	-0.066939	-0.144280
O10	O	-3.495088	0.433061	0.355720
V11	V	-4.477097	-0.023804	-0.254470
V12	V	-3.977097	0.476196	0.245530
O13	O	-4.248075	-0.055588	-0.302410
O14	O	-3.748075	0.444412	0.197590
O15	O	-4.670677	-0.001973	-0.221541
O16	O	-4.170677	0.498027	0.278459
O17	O	-4.302645	0.090562	-0.256013
O18	O	-3.802645	0.590562	0.243987
O19	O	-4.605774	-0.143600	-0.259911
O20	O	-4.105774	0.356400	0.240089
O21	O	-4.590863	0.009378	-0.379671
O22	O	-4.090863	0.509378	0.120329
O23	O	-4.317454	-0.061364	-0.137076
O24	O	-3.817454	0.438636	0.362924
C25	C	-3.788108	-0.177160	-0.263764
C26	C	-3.288108	0.322840	0.236236
C27	C	-3.829431	-0.270418	-0.263284
C28	C	-3.329431	0.229582	0.236716
C29	C	-3.894573	-0.497117	-0.183106
C30	C	-3.394573	0.002883	0.316894
C31	C	-3.933421	-0.584742	-0.182662
C32	C	-3.433421	-0.084742	0.317338
C33	C	-3.993361	-0.560440	-0.340855
C34	C	-3.493361	-0.060440	0.159145
C35	C	-3.954526	-0.472818	-0.341298
C36	C	-3.454526	0.027182	0.158702
C37	C	-3.905122	-0.441159	-0.262421
C38	C	-3.405122	0.058841	0.237579
C39	C	-3.982805	-0.616406	-0.261533
C40	C	-3.482805	-0.116406	0.238467
C41	C	-4.024927	-0.711412	-0.261053
C42	C	-3.524927	-0.211412	0.238947
C43	C	-3.863001	-0.346146	-0.262901
C44	C	-3.363001	0.153854	0.237099
C45	C	-3.769217	0.016638	-0.415479
C46	C	-3.269217	0.516638	0.084521
C47	C	-3.798528	0.046591	-0.511450
C48	C	-3.298528	0.546591	-0.011450
C49	C	-4.086337	-0.219270	-0.889778
C50	C	-3.586337	0.280730	-0.389778
C51	C	-4.113884	-0.191098	-0.979954
C52	C	-3.613884	0.308902	-0.479954
C53	C	-4.037348	-0.045343	-0.954866
C54	C	-3.537348	0.454657	-0.454866
C55	C	-4.009784	-0.073503	-0.864686
C56	C	-3.509784	0.426497	-0.364686
C57	C	-4.034285	-0.160468	-0.832150
C58	C	-3.534285	0.339532	-0.332150
C59	C	-3.957732	-0.014701	-0.807058
C60	C	-3.457732	0.485299	-0.307058
C61	C	-3.930182	-0.042859	-0.716886
C62	C	-3.430182	0.457141	-0.216886
C63	C	-3.954683	-0.129820	-0.684342
C64	C	-3.454683	0.370180	-0.184342
C65	C	-4.006735	-0.188626	-0.741978
C66	C	-3.506735	0.311374	-0.241978
C67	C	-3.933247	0.072263	-0.839596
C68	C	-3.433247	0.572263	-0.339596
C69	C	-3.881195	0.131066	-0.781968
C70	C	-3.381195	0.631066	-0.281968
C71	C	-3.853629	0.102908	-0.691794
C72	C	-3.353629	0.602908	-0.191794
C73	C	-3.878131	0.015947	-0.659250
C74	C	-3.378131	0.515947	-0.159250
C75	C	-3.801578	0.161714	-0.634158
C76	C	-3.301578	0.661714	-0.134158
C77	C	-3.774027	0.133555	-0.543987
C78	C	-3.274027	0.633555	-0.043987
C79	C	-3.850580	-0.012212	-0.569079
C80	C	-3.350580	0.487788	-0.069079
C81	C	-4.120582	0.119595	-0.260185
C82	C	-3.620582	0.619595	0.239815
C83	C	-4.058497	0.212853	-0.260670
C84	C	-3.558497	0.712853	0.239330
C85	C	-4.139473	-0.074203	-0.108468
C86	C	-3.639473	0.425797	0.391532
C87	C	-4.089401	-0.104151	-0.012495
C88	C	-3.589401	0.395849	0.487505
H89	H	-4.033586	-0.586228	-0.405074
H90	H	-3.533586	-0.086228	0.094926
H91	H	-4.017413	0.025464	-0.981370
H92	H	-3.517413	0.525464	-0.481370
H93	H	-3.854346	-0.471344	-0.118878
H94	H	-3.354346	0.028656	0.381122
Br95	Br	-3.970663	0.110479	-0.961974
Br96	Br	-3.470663	0.610479	-0.461974
Br97	Br	-3.968865	-0.396867	-0.448948
Br98	Br	-3.468865	0.103133	0.051052
Br99	Br	-3.703488	0.213357	-0.465773
Br100	Br	-3.203488	0.713357	0.034227
H101	H	-3.870504	-0.083026	-0.542585
H102	H	-3.370504	0.416974	-0.042585
H103	H	-3.861259	0.201872	-0.808472
H104	H	-3.361259	0.701872	-0.308472
H105	H	-3.932254	-0.152745	-0.610918
H106	H	-3.432254	0.347255	-0.110918
H107	H	-4.026658	-0.259441	-0.715485
H108	H	-3.526658	0.240559	-0.215485
Br109	Br	-3.768367	0.279732	-0.678327
Br110	Br	-3.268367	0.779732	-0.178327
H111	H	-3.924830	-0.630301	-0.118076
H112	H	-3.424830	-0.130301	0.381924
Br113	Br	-4.119529	-0.337294	-0.845611
Br114	Br	-3.619529	0.162706	-0.345611
Br115	Br	-4.184545	-0.270911	-1.058164
Br116	Br	-3.684545	0.229089	-0.558164
