data_functionalizedCrystal
_audit_creation_method	'MofGen! by Chris Wilmer'
_symmetry_space_group_name_H-M	'P1'
_symmetry_Int_Tables_number	1
_symmetry_cell_setting	triclinic
loop_
_symmetry_equiv_pos_as_xyz
  x,y,z
_cell_length_a	12.837942
_cell_length_b	16.109301
_cell_length_c	14.586319
_cell_angle_alpha	90.000787
_cell_angle_beta	89.996741
_cell_angle_gamma	90.854789
loop_
_atom_site_label
_atom_site_type_symbol
_atom_site_fract_x
_atom_site_fract_y
_atom_site_fract_z
O1	O	0.133240	-1.113716	-0.076181
O2	O	0.466574	-0.780382	0.257152
O3	O	0.799907	-0.447049	0.590485
O4	O	0.149822	-0.872971	-0.076196
O5	O	0.483155	-0.539638	0.257137
O6	O	0.816488	-0.206304	0.590471
O7	O	-0.009370	-0.988005	-0.076183
O8	O	0.323963	-0.654672	0.257150
O9	O	0.657297	-0.321338	0.590483
O10	O	0.292432	-0.998682	-0.076194
O11	O	0.625765	-0.665348	0.257139
O12	O	0.959099	-0.332015	0.590473
O13	O	-0.009372	-0.987996	0.076298
O14	O	0.323961	-0.654663	0.409631
O15	O	0.657294	-0.321329	0.742964
O16	O	0.149819	-0.872962	0.076285
O17	O	0.483153	-0.539629	0.409618
O18	O	0.816486	-0.206295	0.742952
O19	O	0.133238	-1.113707	0.076299
O20	O	0.466571	-0.780373	0.409633
O21	O	0.799905	-0.447040	0.742966
Cu22	Cu	0.141528	-0.993333	0.090215
Cu23	Cu	0.474862	-0.660000	0.423548
Cu24	Cu	0.808195	-0.326667	0.756882
Cu25	Cu	0.141531	-0.993344	-0.090111
Cu26	Cu	0.474865	-0.660011	0.243222
Cu27	Cu	0.808198	-0.326677	0.576555
O28	O	0.292430	-0.998673	0.076287
O29	O	0.625763	-0.665339	0.409620
O30	O	0.959096	-0.332006	0.742954
C31	C	0.149149	-0.841938	0.000043
C32	C	0.482482	-0.508605	0.333376
C33	C	0.815816	-0.175272	0.666709
C34	C	0.147135	-0.749483	0.000037
C35	C	0.480469	-0.416150	0.333371
C36	C	0.813802	-0.082816	0.666704
C37	C	-0.047991	-0.984394	0.000056
C38	C	0.285343	-0.651061	0.333390
C39	C	0.618676	-0.317727	0.666723
C40	C	-0.163064	-0.973637	0.000054
C41	C	0.170269	-0.640304	0.333388
C42	C	0.503603	-0.306970	0.666721
C43	C	0.133911	-1.144739	0.000059
C44	C	0.467244	-0.811406	0.333392
C45	C	0.800577	-0.478073	0.666725
C46	C	0.135924	-1.237195	0.000058
C47	C	0.469258	-0.903861	0.333392
C48	C	0.802591	-0.570528	0.666725
C49	C	-0.404066	-1.102954	0.000043
C50	C	-0.070733	-0.769621	0.333376
C51	C	0.262601	-0.436287	0.666710
C52	C	-0.512188	-1.092851	0.000041
C53	C	-0.178855	-0.759518	0.333374
C54	C	0.154478	-0.426184	0.666707
C55	C	-0.487433	-0.943328	0.000041
C56	C	-0.154100	-0.609995	0.333375
C57	C	0.179233	-0.276662	0.666708
C58	C	-0.379311	-0.953431	0.000043
C59	C	-0.045978	-0.620098	0.333377
C60	C	0.287356	-0.286765	0.666710
C61	C	-0.337632	-1.033247	0.000046
C62	C	-0.004298	-0.699913	0.333379
C63	C	0.329035	-0.366580	0.666712
C64	C	-0.229507	-1.043349	0.000054
C65	C	0.103826	-0.710016	0.333388
C66	C	0.437160	-0.376683	0.666721
C67	C	-0.204754	-0.893827	0.000048
C68	C	0.128579	-0.560494	0.333382
C69	C	0.461913	-0.227161	0.666715
C70	C	-0.312876	-0.883724	0.000046
C71	C	0.020457	-0.550391	0.333379
C72	C	0.353790	-0.217058	0.666713
C73	C	0.331050	-1.002284	0.000045
C74	C	0.664384	-0.668950	0.333378
C75	C	0.997717	-0.335617	0.666712
C76	C	0.446124	-1.013041	0.000041
C77	C	0.779457	-0.679707	0.333375
C78	C	1.112790	-0.346374	0.666708
N79	N	0.141526	-0.993332	0.217047
N80	N	0.474859	-0.659999	0.550380
N81	N	0.808193	-0.326665	0.883713
C82	C	0.236914	-0.534343	0.000045
C83	C	0.570247	-0.201009	0.333378
C84	C	0.903581	0.132324	0.666711
C85	C	0.235014	-0.447471	0.000051
C86	C	0.568347	-0.114138	0.333384
C87	C	0.901681	0.219195	0.666717
C88	C	0.046138	-0.452341	0.000054
C89	C	0.379472	-0.119008	0.333387
C90	C	0.712805	0.214326	0.666720
C91	C	0.048040	-0.539211	0.000054
C92	C	0.381373	-0.205878	0.333387
C93	C	0.714706	0.127456	0.666721
C94	C	0.143431	-0.580209	0.000045
C95	C	0.476764	-0.246876	0.333378
C96	C	0.810097	0.086457	0.666712
C97	C	0.139629	-0.406468	0.000050
C98	C	0.472962	-0.073135	0.333384
C99	C	0.806296	0.260198	0.666717
C100	C	0.137568	-0.312278	0.000057
C101	C	0.470901	0.021055	0.333390
C102	C	0.804235	0.354388	0.666724
C103	C	0.145492	-0.674405	0.000040
C104	C	0.478825	-0.341072	0.333374
C105	C	0.812159	-0.007738	0.666707
N106	N	0.141526	-0.993352	-0.216943
N107	N	0.474859	-0.660018	0.116390
N108	N	0.808192	-0.326685	0.449724
C109	C	0.071059	-1.044290	0.452059
C110	C	0.404393	-0.710956	0.785392
C111	C	0.737726	-0.377623	1.118725
C112	C	0.071057	-1.044292	0.548040
C113	C	0.404390	-0.710958	0.881373
C114	C	0.737724	-0.377625	1.214707
C115	C	0.211995	-0.942388	0.548038
C116	C	0.545329	-0.609055	0.881372
C117	C	0.878662	-0.275722	1.214705
C118	C	0.211992	-0.942382	0.452059
C119	C	0.545326	-0.609049	0.785392
C120	C	0.878659	-0.275716	1.118725
C121	C	0.141525	-0.993338	0.404071
C122	C	0.474859	-0.660004	0.737405
C123	C	0.808192	-0.326671	1.070738
C124	C	0.141526	-0.993346	0.596032
C125	C	0.474859	-0.660013	0.929365
C126	C	0.808193	-0.326679	1.262699
C127	C	0.141524	-0.993348	0.700099
C128	C	0.474857	-0.660015	1.033433
C129	C	0.808191	-0.326681	1.366766
C130	C	0.141526	-0.993335	0.299998
C131	C	0.474859	-0.660001	0.633331
C132	C	0.808193	-0.326668	0.966664
H133	H	-0.195574	-1.108339	0.000059
H134	H	0.137759	-0.775006	0.333393
H135	H	0.471093	-0.441672	0.666726
H136	H	0.269370	-0.900903	0.587119
H137	H	0.602703	-0.567569	0.920452
H138	H	0.936036	-0.234236	1.253786
Cl139	Cl	-0.539849	-0.842997	0.000011
Cl140	Cl	-0.206516	-0.509664	0.333345
Cl141	Cl	0.126817	-0.176331	0.666678
H142	H	0.311138	-0.410130	0.000052
H143	H	0.644471	-0.076797	0.333386
H144	H	0.977805	0.256536	0.666719
H145	H	0.013676	-1.085780	0.587108
H146	H	0.347009	-0.752447	0.920442
H147	H	0.680343	-0.419114	1.253775
Cl148	Cl	0.300580	-0.878319	0.391726
Cl149	Cl	0.633913	-0.544986	0.725059
Cl150	Cl	0.967247	-0.211652	1.058393
H151	H	0.314588	-0.567721	0.000044
H152	H	0.647921	-0.234388	0.333378
H153	H	0.981254	0.098946	0.666711
H154	H	-0.031526	-0.418949	0.000066
H155	H	0.301808	-0.085616	0.333400
H156	H	0.635141	0.247717	0.666733
H157	H	-0.028091	-0.576557	0.000057
H158	H	0.305243	-0.243223	0.333390
H159	H	0.638576	0.090110	0.666724
Cl160	Cl	-0.121229	-0.806190	0.000063
Cl161	Cl	0.212104	-0.472857	0.333397
Cl162	Cl	0.545437	-0.139524	0.666730
H163	H	-0.370130	-1.167943	0.000054
H164	H	-0.036797	-0.834609	0.333387
H165	H	0.296536	-0.501276	0.666720
H166	H	0.013680	-1.085779	0.412990
H167	H	0.347013	-0.752446	0.746323
H168	H	0.680346	-0.419113	1.079656
H169	H	-0.566277	-1.149614	0.000036
H170	H	-0.232943	-0.816281	0.333369
H171	H	0.100390	-0.482947	0.666702
Cl172	Cl	-0.365284	-0.783391	0.000036
Cl173	Cl	-0.031951	-0.450057	0.333369
Cl174	Cl	0.301383	-0.116724	0.666702
