data_functionalizedCrystal
_audit_creation_method	'MofGen! by Chris Wilmer'
_symmetry_space_group_name_H-M	'P1'
_symmetry_Int_Tables_number	1
_symmetry_cell_setting	triclinic
loop_
_symmetry_equiv_pos_as_xyz
  x,y,z
_cell_length_a	14.971486
_cell_length_b	7.681481
_cell_length_c	14.971486
_cell_angle_alpha	95.749252
_cell_angle_beta	83.614129
_cell_angle_gamma	84.264653
loop_
_atom_site_label
_atom_site_type_symbol
_atom_site_fract_x
_atom_site_fract_y
_atom_site_fract_z
O1	O	1.178508	0.146229	0.125010
O2	O	1.678508	0.646229	0.625010
O3	O	0.918105	0.146278	0.138972
O4	O	1.418105	0.646278	0.638972
O5	O	1.055287	0.146240	0.001790
O6	O	1.555287	0.646240	0.501790
O7	O	1.041326	0.146267	0.262192
O8	O	1.541326	0.646267	0.762192
O9	O	1.072172	-0.146623	-0.015133
O10	O	1.572172	0.353377	0.484867
O11	O	0.934990	-0.146585	0.122049
O12	O	1.434990	0.353415	0.622049
O13	O	1.195393	-0.146633	0.108087
O14	O	1.695393	0.353367	0.608087
Zn15	Zn	1.067872	-0.193107	0.112381
Zn16	Zn	1.567872	0.306893	0.612381
Zn17	Zn	1.045626	0.192752	0.134678
Zn18	Zn	1.545626	0.692752	0.634678
O19	O	1.058211	-0.146595	0.245269
O20	O	1.558211	0.353405	0.745269
C21	C	0.893222	-0.000148	0.129887
C22	C	1.393222	0.499852	0.629887
C23	C	0.793924	-0.000130	0.128017
C24	C	1.293924	0.499870	0.628017
N25	N	1.083061	-0.456446	0.097164
N26	N	1.583061	0.043554	0.597164
C27	C	0.736699	-0.000124	0.208606
C28	C	1.236699	0.499876	0.708606
C29	C	0.643401	-0.000150	0.206842
C30	C	1.143401	0.499850	0.706842
C31	C	0.607330	-0.000170	0.124487
C32	C	1.107330	0.499830	0.624487
C33	C	0.664563	-0.000181	0.043891
C34	C	1.164563	0.499819	0.543891
C35	C	0.757860	-0.000167	0.045656
C36	C	1.257860	0.499833	0.545656
C37	C	0.470102	-0.000206	0.040219
C38	C	0.970102	0.499794	0.540219
C39	C	0.376798	-0.000216	0.038454
C40	C	0.876798	0.499784	0.538454
C41	C	0.355643	-0.000188	0.201405
C42	C	0.855643	0.499812	0.701405
C43	C	0.448940	-0.000175	0.203169
C44	C	0.948940	0.499825	0.703169
C45	C	0.506166	-0.000183	0.122573
C46	C	1.006166	0.499817	0.622573
C47	C	1.220275	-0.000204	0.117173
C48	C	1.720275	0.499796	0.617173
C49	C	1.319573	-0.000210	0.119043
C50	C	1.819573	0.499790	0.619043
C51	C	1.063105	-0.000191	-0.039996
C52	C	1.563105	0.499809	0.460004
C53	C	1.061234	-0.000189	-0.139293
C54	C	1.561234	0.499811	0.360707
N55	N	1.030444	0.456090	0.149889
N56	N	1.530444	0.956090	0.649889
C57	C	1.141824	-0.000205	-0.196519
C58	C	1.641824	0.499795	0.303481
C59	C	1.140060	-0.000187	-0.289818
C60	C	1.640060	0.499813	0.210182
C61	C	1.057706	-0.000166	-0.325889
C62	C	1.557706	0.499834	0.174111
C63	C	0.977109	-0.000144	-0.268655
C64	C	1.477109	0.499856	0.231345
C65	C	0.978873	-0.000150	-0.175357
C66	C	1.478873	0.499850	0.324643
C67	C	0.973437	-0.000137	-0.463117
C68	C	1.473437	0.499863	0.036883
C69	C	0.971673	-0.000135	-0.556421
C70	C	1.471673	0.499865	-0.056421
C71	C	1.134624	-0.000175	-0.577577
C72	C	1.634624	0.499825	-0.077577
C73	C	1.136389	-0.000180	-0.484280
C74	C	1.636389	0.499820	0.015720
C75	C	1.055792	-0.000162	-0.427052
C76	C	1.555792	0.499838	0.072948
C77	C	1.050393	-0.000161	0.287055
C78	C	1.550393	0.499839	0.787055
C79	C	1.052263	-0.000151	0.386353
C80	C	1.552263	0.499849	0.886353
H81	H	0.766060	-0.000106	0.275669
H82	H	1.266060	0.499894	0.775669
Br83	Br	1.172604	-0.581806	0.007472
Br84	Br	1.672604	-0.081806	0.507472
H85	H	1.208887	-0.000234	-0.167159
H86	H	1.708887	0.499766	0.332841
Br87	Br	0.864055	-0.000106	-0.385451
Br88	Br	1.364055	0.499894	0.114549
H89	H	0.904614	-0.000146	-0.585788
H90	H	1.404614	0.499854	-0.085788
Br91	Br	0.865339	-0.000085	-0.317605
Br92	Br	1.365339	0.499915	0.182395
Br93	Br	0.940919	-0.418556	0.239591
Br94	Br	1.440919	0.081444	0.739591
H95	H	1.205685	-0.000204	-0.336408
H96	H	1.705685	0.499796	0.163592
H97	H	1.203449	-0.000210	-0.454915
H98	H	1.703449	0.499790	0.045085
H99	H	1.200249	-0.000184	-0.624176
H100	H	1.700249	0.499816	-0.124176
Br101	Br	0.615611	-0.000226	-0.067878
Br102	Br	1.115611	0.499774	0.432122
H103	H	0.596810	-0.000143	0.272466
H104	H	1.096810	0.499857	0.772466
H105	H	0.913248	-0.000136	-0.128764
H106	H	1.413248	0.499864	0.371236
H107	H	0.478304	-0.000142	0.270230
H108	H	0.978304	0.499858	0.770230
Br109	Br	0.277979	-0.000175	0.310786
Br110	Br	0.777979	0.499825	0.810786
H111	H	0.347433	-0.000235	-0.028606
H112	H	0.847433	0.499765	0.471394
H113	H	0.804453	-0.000171	-0.019968
H114	H	1.304453	0.499829	0.480032
Br115	Br	0.547767	-0.000226	-0.069163
Br116	Br	1.047767	0.499774	0.430837
