data_functionalizedCrystal
_audit_creation_method	'MofGen! by Chris Wilmer'
_symmetry_space_group_name_H-M	'P1'
_symmetry_Int_Tables_number	1
_symmetry_cell_setting	triclinic
loop_
_symmetry_equiv_pos_as_xyz
  x,y,z
_cell_length_a	12.759401
_cell_length_b	18.050589
_cell_length_c	12.759393
_cell_angle_alpha	89.970173
_cell_angle_beta	89.981295
_cell_angle_gamma	90.028382
loop_
_atom_site_label
_atom_site_type_symbol
_atom_site_fract_x
_atom_site_fract_y
_atom_site_fract_z
Zn1	Zn	1.606159	-0.295618	-0.593988
Zn2	Zn	1.606011	-0.419827	-0.418311
Zn3	Zn	1.430460	-0.295655	-0.418328
Zn4	Zn	1.430408	-0.419771	-0.593953
O5	O	1.518260	-0.357718	-0.506145
O6	O	1.753160	-0.312102	-0.570692
O7	O	1.582684	-0.403394	-0.271292
O8	O	1.453851	-0.191726	-0.441651
O9	O	1.753052	-0.403358	-0.441623
O10	O	1.582936	-0.191699	-0.570708
O11	O	1.453707	-0.312166	-0.271304
O12	O	1.283432	-0.312112	-0.441617
O13	O	1.453762	-0.403263	-0.740979
O14	O	1.283394	-0.403299	-0.570648
O15	O	1.582885	-0.312049	-0.741005
O16	O	1.582633	-0.523744	-0.441589
O17	O	1.453618	-0.523703	-0.570632
C18	C	1.245292	-0.357704	-0.506131
C19	C	1.128516	-0.357716	-0.506149
C20	C	1.073661	-0.405274	-0.573225
C21	C	0.963937	-0.405283	-0.573236
C22	C	0.963932	-0.310176	-0.439088
C23	C	1.073654	-0.310163	-0.439083
C24	C	1.128523	-0.452827	-0.640292
C25	C	1.073668	-0.500389	-0.707372
C26	C	0.963944	-0.500398	-0.707383
C27	C	0.909075	-0.452846	-0.640314
C28	C	1.518133	-0.550670	-0.506127
C29	C	1.518175	-0.633216	-0.506155
C30	C	1.448085	-0.832671	-0.576304
C31	C	1.422471	-0.882119	-0.480436
C32	C	1.518278	-0.784346	-0.506169
C33	C	1.543944	-0.881980	-0.602048
C34	C	1.518376	-0.930331	-0.506191
C35	C	1.492613	-0.832707	-0.410250
C36	C	1.614131	-0.832563	-0.531927
C37	C	1.588552	-0.881989	-0.435992
C38	C	1.518219	-0.700248	-0.506158
C39	C	1.518435	-1.014428	-0.506191
C40	C	1.792293	-0.357732	-0.506160
C41	C	1.909069	-0.357738	-0.506166
C42	C	1.518334	-0.357646	-0.780178
C43	C	1.518366	-0.357615	-0.896955
C44	C	1.518415	-0.164012	-0.506185
C45	C	1.518482	-0.081467	-0.506203
C46	C	1.451252	-0.310077	-1.061548
C47	C	1.451228	-0.310103	-0.951824
C48	C	1.585539	-0.405098	-0.951816
C49	C	1.585567	-0.405068	-1.061539
C50	C	1.384103	-0.262567	-1.116411
C51	C	1.316931	-0.215083	-1.061557
C52	C	1.316907	-0.215109	-0.951833
C53	C	1.384056	-0.262620	-0.896962
C54	C	1.518246	-0.357736	-0.233178
C55	C	1.518418	-0.357558	-0.116401
H56	H	0.919248	-0.271462	-0.384483
C57	C	1.573226	-0.911220	-0.711573
C58	C	1.679526	-0.890534	-0.760745
C59	C	1.708797	-0.919770	-0.870272
C60	C	1.631768	-0.969692	-0.930626
C61	C	1.525461	-0.990382	-0.881454
C62	C	1.496190	-0.961145	-0.771928
H63	H	1.736553	-0.853575	-0.716067
H64	H	1.787493	-0.904454	-0.906671
H65	H	1.653437	-0.991335	-1.011704
H66	H	1.468434	-1.027340	-0.926133
H67	H	1.417494	-0.976461	-0.735528
C68	C	1.659445	-0.457305	-1.121875
C69	C	1.741983	-0.425116	-1.197316
C70	C	1.815866	-0.477356	-1.257648
C71	C	1.807212	-0.561784	-1.242538
C72	C	1.724672	-0.593977	-1.167093
C73	C	1.650788	-0.541738	-1.106761
H74	H	1.748392	-0.362614	-1.208504
H75	H	1.876968	-0.453524	-1.313497
H76	H	1.861905	-0.600455	-1.287199
H77	H	1.718263	-0.656480	-1.155905
H78	H	1.589686	-0.565570	-1.050912
C79	C	1.134008	-0.257852	-0.365302
C80	C	1.209483	-0.199582	-0.410979
C81	C	1.269841	-0.147267	-0.337204
C82	C	1.254724	-0.153224	-0.217751
C83	C	1.179246	-0.211497	-0.172068
C84	C	1.118888	-0.263811	-0.245844
H85	H	1.220677	-0.195170	-0.499411
H86	H	1.325715	-0.104129	-0.371022
H87	H	1.299405	-0.114497	-0.163138
H88	H	1.168053	-0.215908	-0.083637
H89	H	1.063014	-0.306949	-0.212025
C90	C	1.463206	-0.803595	-0.300691
C91	C	1.439327	-0.858486	-0.211380
C92	C	1.409917	-0.829373	-0.101825
C93	C	1.404386	-0.745370	-0.081580
C94	C	1.428265	-0.690474	-0.170893
C95	C	1.457675	-0.719587	-0.280449
H96	H	1.443422	-0.920674	-0.226364
H97	H	1.392240	-0.870010	-0.035709
H98	H	1.382614	-0.723818	-0.000481
H99	H	1.424171	-0.628285	-0.155910
H100	H	1.475352	-0.678949	-0.346564
C101	C	1.134020	-0.552691	-0.781147
C102	C	1.209399	-0.610953	-0.735474
C103	C	1.269748	-0.663256	-0.809252
C104	C	1.254718	-0.657297	-0.928704
C105	C	1.179335	-0.599033	-0.974384
C106	C	1.118986	-0.546730	-0.900606
H107	H	1.220529	-0.615366	-0.647042
H108	H	1.325552	-0.706387	-0.775436
H109	H	1.299392	-0.696015	-0.983320
H110	H	1.168205	-0.594619	-1.062816
H111	H	1.063182	-0.503599	-0.934422
H112	H	1.384113	-0.262541	-1.205754
H113	H	1.384038	-0.262633	-0.807617
C114	C	1.367783	-0.803408	-0.656315
C115	C	1.378327	-0.823940	-0.772970
C116	C	1.298023	-0.794675	-0.852974
C117	C	1.207176	-0.744879	-0.816324
C118	C	1.196629	-0.724344	-0.699664
C119	C	1.276932	-0.753608	-0.619660
H120	H	1.445581	-0.860805	-0.800105
H121	H	1.305831	-0.809877	-0.939333
H122	H	1.147731	-0.723215	-0.875547
H123	H	1.129375	-0.687479	-0.672528
H124	H	1.269124	-0.738407	-0.533300
H125	H	1.262220	-0.176439	-0.907174
C126	C	0.903602	-0.552710	-0.781171
C127	C	0.963953	-0.605013	-0.854940
C128	C	0.903613	-0.657330	-0.928727
C129	C	0.782923	-0.657344	-0.928745
C130	C	0.722566	-0.605040	-0.854973
C131	C	0.782905	-0.552723	-0.781186
H132	H	1.053301	-0.605005	-0.854929
H133	H	0.948294	-0.696050	-0.983337
H134	H	0.738256	-0.696073	-0.983366
H135	H	0.633218	-0.605048	-0.854984
H136	H	0.738224	-0.514003	-0.726576
C137	C	1.723549	-0.803131	-0.561391
C138	C	1.819311	-0.823668	-0.493962
C139	C	1.928730	-0.794235	-0.523441
C140	C	1.942386	-0.744264	-0.620349
C141	C	1.846621	-0.723724	-0.687783
C142	C	1.737202	-0.753158	-0.658305
H143	H	1.809204	-0.860662	-0.422220
H144	H	1.999621	-0.809440	-0.473521
H145	H	2.023384	-0.722475	-0.642170
H146	H	1.856727	-0.686731	-0.759526
H147	H	1.666310	-0.737953	-0.708225
H148	H	1.647954	-0.903507	-0.376622
H149	H	1.341457	-0.903903	-0.458669
H150	H	1.217866	-0.452826	-0.640288
H151	H	1.262268	-0.176397	-1.106240
H152	H	1.640207	-0.443780	-0.907132
H153	H	0.819730	-0.452851	-0.640338
