data_functionalizedCrystal
_audit_creation_method	'MofGen! by Chris Wilmer'
_symmetry_space_group_name_H-M	'P1'
_symmetry_Int_Tables_number	1
_symmetry_cell_setting	triclinic
loop_
_symmetry_equiv_pos_as_xyz
  x,y,z
_cell_length_a	14.519709
_cell_length_b	11.792241
_cell_length_c	10.268362
_cell_angle_alpha	89.999626
_cell_angle_beta	89.993769
_cell_angle_gamma	83.936780
loop_
_atom_site_label
_atom_site_type_symbol
_atom_site_fract_x
_atom_site_fract_y
_atom_site_fract_z
O1	O	0.126405	1.506208	-0.108177
O2	O	0.626405	2.006208	0.391823
O3	O	0.139432	1.175795	-0.108207
O4	O	0.639432	1.675795	0.391793
O5	O	-0.001288	1.349762	-0.108180
O6	O	0.498712	1.849762	0.391820
O7	O	0.267125	1.332241	-0.108205
O8	O	0.767125	1.832241	0.391795
O9	O	-0.001294	1.349747	0.108421
O10	O	0.498706	1.849747	0.608421
O11	O	0.139426	1.175780	0.108393
O12	O	0.639426	1.675780	0.608393
O13	O	0.126399	1.506193	0.108424
O14	O	0.626399	2.006193	0.608424
Cu15	Cu	0.132912	1.340985	0.128186
Cu16	Cu	0.632912	1.840985	0.628186
Cu17	Cu	0.132919	1.341003	-0.127969
Cu18	Cu	0.632919	1.841003	0.372031
O19	O	0.267119	1.332226	0.108396
O20	O	0.767119	1.832226	0.608396
C21	C	0.138611	1.133501	0.000089
C22	C	0.638611	1.633501	0.500089
C23	C	0.136161	1.007501	0.000078
C24	C	0.636161	1.507501	0.500078
C25	C	0.131657	0.776813	0.000116
C26	C	0.631657	1.276813	0.500116
C27	C	0.134160	0.905185	0.000095
C28	C	0.634160	1.405185	0.500095
C29	C	-0.035654	1.348938	0.000121
C30	C	0.464346	1.848938	0.500121
C31	C	-0.138044	1.346491	0.000121
C32	C	0.361956	1.846491	0.500121
C33	C	-0.512973	1.337483	0.000087
C34	C	-0.012973	1.837483	0.500087
C35	C	-0.408656	1.339984	0.000097
C36	C	0.091344	1.839984	0.500097
C37	C	-0.325512	1.341987	0.000105
C38	C	0.174488	1.841987	0.500105
C39	C	-0.221188	1.344489	0.000113
C40	C	0.278812	1.844489	0.500113
C41	C	0.301484	1.333050	0.000093
C42	C	0.801484	1.833050	0.500093
C43	C	0.403875	1.335497	0.000084
C44	C	0.903875	1.835497	0.500084
C45	C	0.127220	1.548487	0.000124
C46	C	0.627220	2.048487	0.500124
C47	C	0.129669	1.674487	0.000127
C48	C	0.629669	2.174487	0.500127
N49	N	0.132906	1.340981	0.308352
N50	N	0.632906	1.840981	0.808352
N51	N	0.132917	1.341016	-0.308135
N52	N	0.632917	1.841016	0.191865
C53	C	0.132917	1.340997	0.574022
C54	C	0.632917	1.840997	1.074022
C55	C	0.132914	1.340984	0.426184
C56	C	0.632914	1.840984	0.926184
