data_functionalizedCrystal
_audit_creation_method	'MofGen! by Chris Wilmer'
_symmetry_space_group_name_H-M	'P1'
_symmetry_Int_Tables_number	1
_symmetry_cell_setting	triclinic
loop_
_symmetry_equiv_pos_as_xyz
  x,y,z
_cell_length_a	15.995350
_cell_length_b	10.654550
_cell_length_c	9.130313
_cell_angle_alpha	90.000276
_cell_angle_beta	89.997713
_cell_angle_gamma	96.011347
loop_
_atom_site_label
_atom_site_type_symbol
_atom_site_fract_x
_atom_site_fract_y
_atom_site_fract_z
O1	O	0.117603	-1.666303	-0.121682
O2	O	0.128807	-1.300678	-0.121708
O3	O	0.001375	-1.493485	-0.121693
O4	O	0.245034	-1.473496	-0.121697
O5	O	0.001371	-1.493472	0.121906
O6	O	0.128803	-1.300665	0.121891
O7	O	0.117599	-1.666290	0.121917
Cu8	Cu	0.123201	-1.483476	0.144146
Cu9	Cu	0.123205	-1.483492	-0.143938
O10	O	0.245031	-1.473483	0.121902
C11	C	-0.029826	-1.492652	0.000103
C12	C	-0.122791	-1.490175	0.000095
C13	C	0.127982	-1.253884	0.000088
C14	C	0.125521	-1.114473	0.000078
N15	N	0.123197	-1.483475	0.346769
C16	C	-0.460590	-1.481277	0.000099
C17	C	-0.413954	-1.343964	-0.000457
C18	C	-0.317249	-1.346442	0.000092
C19	C	-0.293004	-1.485691	0.000096
C20	C	-0.333690	-1.553411	0.139205
C21	C	-0.430346	-1.549962	0.139322
C22	C	-0.430684	-1.552813	-0.137696
C23	C	-0.333738	-1.552781	-0.139534
C24	C	-0.198292	-1.488192	0.000100
C25	C	-0.555303	-1.478780	0.000106
C26	C	0.276232	-1.474316	0.000102
C27	C	0.369197	-1.476793	0.000101
C28	C	0.118423	-1.713084	0.000118
C29	C	0.120885	-1.852495	0.000118
C30	C	0.200551	-1.034008	0.000080
C31	C	0.198233	-0.903017	0.000106
C32	C	0.045849	-0.932971	0.000120
C33	C	0.048168	-1.063959	0.000105
N34	N	0.123202	-1.483504	-0.346560
C35	C	0.066794	-1.568878	0.423427
C36	C	0.066794	-1.568890	0.576764
C37	C	0.179608	-1.398091	0.576770
C38	C	0.179603	-1.398074	0.423436
H39	H	-0.289135	-1.293209	-0.099627
O40	O	-0.029267	-0.883836	-0.000127
C41	C	-0.035156	-0.808931	-0.126265
H42	H	0.008779	-0.839903	-0.214450
H43	H	-0.102569	-0.820686	-0.168610
H44	H	-0.016443	-0.705636	-0.097734
H45	H	-0.432803	-1.289086	-0.100215
O46	O	0.271094	-0.824800	0.000359
C47	C	0.274309	-0.748124	0.126512
H48	H	0.231776	-0.796105	0.214696
H49	H	0.341672	-0.733397	0.168845
H50	H	0.252082	-0.652872	0.098006
H51	H	-0.289697	-1.292840	0.099974
O52	O	0.275760	-1.082870	0.000132
C53	C	0.341485	-0.983753	0.000105
H54	H	0.317494	-0.894776	0.046236
H55	H	0.395442	-1.011130	0.070823
H56	H	0.364667	-0.965206	-0.116760
O57	O	-0.468007	-1.673514	-0.138897
C58	C	-0.556034	-1.672568	-0.144165
H59	H	-0.571911	-1.579167	-0.192133
H60	H	-0.584448	-1.753658	-0.215887
H61	H	-0.582925	-1.684115	-0.028738
H62	H	0.225533	-1.328522	0.361017
H63	H	-0.318971	-1.655713	0.144382
H64	H	-0.462009	-1.650775	0.145636
H65	H	-0.305584	-1.506365	0.242723
O66	O	0.234286	-1.315094	0.651413
C67	C	0.188965	-1.237620	0.740106
H68	H	0.123755	-1.287645	0.763077
H69	H	0.223793	-1.217767	0.847928
H70	H	0.182698	-1.144802	0.681033
O71	O	-0.024799	-1.141954	0.000035
C72	C	-0.093571	-1.069283	0.000086
H73	H	-0.072892	-0.971516	-0.046027
H74	H	-0.146187	-1.117605	-0.070635
H75	H	-0.117243	-1.059967	0.116956
H76	H	0.020864	-1.638415	0.361008
H77	H	-0.433866	-1.289319	0.098738
O78	O	-0.452618	-1.490895	0.263214
C79	C	-0.492189	-1.383269	0.225225
H80	H	-0.519009	-1.395106	0.109786
H81	H	-0.545232	-1.371490	0.305840
H82	H	-0.444325	-1.296182	0.229332
O83	O	0.011975	-1.651975	0.651003
C84	C	-0.037822	-1.727319	0.550447
H85	H	-0.003484	-1.728721	0.441142
H86	H	-0.049971	-1.827610	0.594737
H87	H	-0.100278	-1.686554	0.534151
H88	H	-0.451482	-1.507924	-0.243132
H89	H	-0.306776	-1.503268	-0.242443
O90	O	-0.314571	-1.673844	-0.149762
C91	C	-0.270934	-1.689354	-0.281618
H92	H	-0.240141	-1.593789	-0.320383
H93	H	-0.220498	-1.755660	-0.262551
H94	H	-0.316875	-1.731156	-0.368540
