data_functionalizedCrystal
_audit_creation_method	'MofGen! by Chris Wilmer'
_symmetry_space_group_name_H-M	'P1'
_symmetry_Int_Tables_number	1
_symmetry_cell_setting	triclinic
loop_
_symmetry_equiv_pos_as_xyz
  x,y,z
_cell_length_a	13.262390
_cell_length_b	14.971486
_cell_length_c	13.448316
_cell_angle_alpha	90.006811
_cell_angle_beta	74.075956
_cell_angle_gamma	95.960556
loop_
_atom_site_label
_atom_site_type_symbol
_atom_site_fract_x
_atom_site_fract_y
_atom_site_fract_z
O1	O	1.392871	-0.120493	-0.459405
O2	O	1.087294	-0.133590	-0.376762
O3	O	1.248272	0.003136	-0.420292
O4	O	1.231892	-0.257218	-0.415876
O5	O	1.248252	0.003144	-0.254902
O6	O	1.087273	-0.133581	-0.211372
O7	O	1.392850	-0.120484	-0.294016
Cu8	Cu	1.240060	-0.127032	-0.237593
Cu9	Cu	1.240084	-0.127042	-0.433185
O10	O	1.231872	-0.257210	-0.250486
C11	C	1.048177	-0.132851	-0.283491
C12	C	0.931653	-0.130652	-0.251976
C13	C	0.603244	-0.124458	-0.523773
C14	C	0.712725	-0.126520	-0.553384
C15	C	0.767462	-0.127554	-0.478035
C16	C	0.712708	-0.126524	-0.373069
C17	C	0.603218	-0.124455	-0.343456
C18	C	0.767436	-0.127550	-0.297717
C19	C	0.712682	-0.126520	-0.192752
C20	C	0.603202	-0.124452	-0.163143
C21	C	0.548465	-0.123419	-0.238493
C22	C	0.876926	-0.129619	-0.327331
C23	C	0.876900	-0.129616	-0.147013
C24	C	0.767419	-0.127554	-0.117403
C25	C	1.247530	0.036467	-0.337399
C26	C	1.245334	0.135770	-0.336806
C27	C	1.431967	-0.121223	-0.387289
C28	C	1.548491	-0.123422	-0.418810
C29	C	1.232614	-0.290541	-0.333381
C30	C	1.234810	-0.389844	-0.333980
N31	N	1.240051	-0.127024	-0.100026
C32	C	1.339905	0.192729	-0.362382
C33	C	1.337836	0.286034	-0.361833
C34	C	1.241195	0.322379	-0.335700
C35	C	1.146617	0.265413	-0.310125
C36	C	1.148688	0.172109	-0.310682
C37	C	1.142310	0.459888	-0.308963
C38	C	1.140239	0.553197	-0.308404
C39	C	1.331458	0.573812	-0.360114
C40	C	1.333528	0.480509	-0.360671
C41	C	1.238950	0.423549	-0.335094
N42	N	1.240101	-0.127043	-0.570754
C43	C	1.311354	-0.066507	-0.067267
C44	C	1.311361	-0.066507	0.036835
C45	C	1.240068	-0.127028	0.108174
C46	C	1.168757	-0.187548	0.075409
C47	C	1.168746	-0.187543	-0.028689
C48	C	1.168786	-0.187554	0.292381
C49	C	1.168798	-0.187560	0.396487
C50	C	1.311401	-0.066517	0.357905
C51	C	1.311390	-0.066513	0.253807
C52	C	1.240080	-0.127034	0.221049
H53	H	0.722823	-0.126714	-0.031938
H54	H	1.369421	-0.017229	0.063506
H55	H	1.369447	-0.017236	0.195720
H56	H	1.369463	-0.017239	0.384582
C57	C	0.772949	-0.127668	-0.668833
H58	H	0.845993	-0.129042	-0.675678
H59	H	0.747067	-0.179429	-0.698875
H60	H	0.762954	-0.075228	-0.703172
C61	C	0.542976	-0.123314	-0.047686
H62	H	0.591251	-0.124234	-0.007050
H63	H	0.508203	-0.070411	-0.034526
H64	H	0.492327	-0.174612	-0.030248
H65	H	1.110743	-0.236841	0.454568
H66	H	1.408467	0.620193	-0.380943
H67	H	1.061546	0.582786	-0.287109
H68	H	1.067931	0.295012	-0.288853
C69	C	1.446208	0.152753	-0.391125
H70	H	1.433900	0.089027	-0.387785
H71	H	1.485162	0.172273	-0.459332
H72	H	1.485141	0.172289	-0.343973
H73	H	1.110714	-0.236834	0.265716
H74	H	1.110704	-0.236822	0.133501
C75	C	1.044660	0.109455	-0.282546
H76	H	0.986807	0.144462	-0.266893
H77	H	1.041501	0.072622	-0.339364
H78	H	1.041485	0.072636	-0.224006
H79	H	1.414845	0.332407	-0.382657
C80	C	1.038275	0.397234	-0.280828
H81	H	0.980422	0.432241	-0.265173
H82	H	1.035113	0.360399	-0.337643
H83	H	1.035105	0.360417	-0.222287
C84	C	1.090317	-0.254116	-0.064726
H85	H	1.047865	-0.290167	-0.007333
H86	H	1.046584	-0.221753	-0.093493
H87	H	1.128120	-0.291511	-0.115573
H88	H	0.558668	-0.123608	-0.585111
C89	C	1.389776	0.000068	-0.145731
H90	H	1.432235	0.036116	-0.111305
H91	H	1.433503	-0.032288	-0.198184
H92	H	1.351963	0.037468	-0.176096
H93	H	0.921496	-0.130459	-0.412794
H94	H	0.459316	-0.121743	-0.214388
C95	C	0.887887	-0.129831	-0.510605
H96	H	0.912656	-0.130305	-0.583909
H97	H	0.920596	-0.078205	-0.486147
H98	H	0.904703	-0.182406	-0.481868
C99	C	0.937099	-0.130755	-0.064124
H100	H	1.010144	-0.132145	-0.096793
H101	H	0.927095	-0.078319	-0.024369
H102	H	0.911211	-0.182520	-0.020086
H103	H	1.412221	0.450920	-0.381944
