data_functionalizedCrystal
_audit_creation_method	'MofGen! by Chris Wilmer'
_symmetry_space_group_name_H-M	'P1'
_symmetry_Int_Tables_number	1
_symmetry_cell_setting	triclinic
loop_
_symmetry_equiv_pos_as_xyz
  x,y,z
_cell_length_a	18.215407
_cell_length_b	14.908520
_cell_length_c	18.215399
_cell_angle_alpha	86.730636
_cell_angle_beta	90.016899
_cell_angle_gamma	93.318021
loop_
_atom_site_label
_atom_site_type_symbol
_atom_site_fract_x
_atom_site_fract_y
_atom_site_fract_z
Zn1	Zn	1.108174	-0.359229	0.432964
Zn2	Zn	1.358174	-0.109229	0.682964
Zn3	Zn	1.608174	0.140771	0.932964
Zn4	Zn	1.858174	0.390771	1.182964
Zn5	Zn	1.100986	-0.510098	0.316998
Zn6	Zn	1.350986	-0.260098	0.566998
Zn7	Zn	1.600986	-0.010098	0.816998
Zn8	Zn	1.850986	0.239902	1.066998
Zn9	Zn	0.985106	-0.359251	0.309919
Zn10	Zn	1.235106	-0.109251	0.559919
Zn11	Zn	1.485106	0.140749	0.809919
Zn12	Zn	1.735106	0.390749	1.059919
Zn13	Zn	0.977979	-0.510040	0.440026
Zn14	Zn	1.227979	-0.260040	0.690026
Zn15	Zn	1.477979	-0.010040	0.940026
Zn16	Zn	1.727979	0.239960	1.190026
O17	O	1.043061	-0.434654	0.374977
O18	O	1.293061	-0.184654	0.624977
O19	O	1.543061	0.065346	0.874977
O20	O	1.793061	0.315346	1.124977
O21	O	1.210204	-0.379258	0.417588
O22	O	1.460204	-0.129258	0.667588
O23	O	1.710204	0.120742	0.917588
O24	O	1.960204	0.370742	1.167588
O25	O	1.085589	-0.490121	0.213076
O26	O	1.335589	-0.240121	0.463076
O27	O	1.585589	0.009879	0.713076
O28	O	1.835589	0.259879	0.963076
O29	O	1.007422	-0.233003	0.320323
O30	O	1.257422	0.016997	0.570323
O31	O	1.507422	0.266997	0.820323
O32	O	1.757422	0.516997	1.070323
O33	O	1.204923	-0.490100	0.332388
O34	O	1.454923	-0.240100	0.582388
O35	O	1.704923	0.009900	0.832388
O36	O	1.954923	0.259900	1.082388
O37	O	1.097840	-0.232987	0.410723
O38	O	1.347840	0.017013	0.660723
O39	O	1.597840	0.267013	0.910723
O40	O	1.847840	0.517013	1.160723
O41	O	1.000452	-0.379294	0.207875
O42	O	1.250452	-0.129294	0.457875
O43	O	1.500452	0.120706	0.707875
O44	O	1.750452	0.370706	0.957875
O45	O	0.881177	-0.379238	0.327171
O46	O	1.131177	-0.129238	0.577171
O47	O	1.381177	0.120762	0.827171
O48	O	1.631177	0.370762	1.077171
O49	O	0.995275	-0.490001	0.542072
O50	O	1.245275	-0.240001	0.792072
O51	O	1.495275	0.009999	1.042072
O52	O	1.745275	0.259999	1.292072
O53	O	0.875941	-0.490022	0.422760
O54	O	1.125941	-0.240022	0.672760
O55	O	1.375941	0.009978	0.922760
O56	O	1.625941	0.259978	1.172760
O57	O	1.090929	-0.379201	0.536883
O58	O	1.340929	-0.129201	0.786883
O59	O	1.590929	0.120799	1.036883
O60	O	1.840929	0.370799	1.286883
O61	O	1.078678	-0.636335	0.339236
O62	O	1.328678	-0.386335	0.589236
O63	O	1.578678	-0.136335	0.839236
O64	O	1.828678	0.113665	1.089236
O65	O	0.988305	-0.636292	0.429624
O66	O	1.238305	-0.386292	0.679624
O67	O	1.488305	-0.136292	0.929624
O68	O	1.738305	0.113708	1.179624
C69	C	0.851856	-0.434627	0.374964
C70	C	1.101856	-0.184627	0.624964
C71	C	1.351856	0.065373	0.874964
C72	C	1.601856	0.315373	1.124964
C73	C	0.770057	-0.434637	0.374977
C74	C	1.020057	-0.184637	0.624977
C75	C	1.270057	0.065363	0.874977
C76	C	1.520057	0.315363	1.124977
C77	C	0.502287	-0.492434	0.424690
C78	C	0.752287	-0.242434	0.674690
C79	C	1.002287	0.007566	0.924690
C80	C	1.252287	0.257566	1.174690
C81	C	0.579146	-0.492427	0.424686
C82	C	0.829146	-0.242427	0.674686
C83	C	1.079146	0.007573	0.924686
C84	C	1.329146	0.257573	1.174686
C85	C	0.584576	-0.376895	0.325277
C86	C	0.834576	-0.126895	0.575277
C87	C	1.084576	0.123105	0.825277
C88	C	1.334576	0.373105	1.075277
C89	C	0.507718	-0.376908	0.325278
C90	C	0.757718	-0.126908	0.575278
C91	C	1.007718	0.123092	0.825278
C92	C	1.257718	0.373092	1.075278
C93	C	0.466575	-0.434676	0.374989
C94	C	0.716575	-0.184676	0.624989
C95	C	0.966575	0.065324	0.874989
C96	C	1.216575	0.315324	1.124989
C97	C	0.620293	-0.434656	0.374984
C98	C	0.870293	-0.184656	0.624984
C99	C	1.120293	0.065344	0.874984
C100	C	1.370293	0.315344	1.124984
C101	C	0.703627	-0.434647	0.374979
C102	C	0.953627	-0.184647	0.624979
C103	C	1.203627	0.065353	0.874979
C104	C	1.453627	0.315353	1.124979
C105	C	0.383236	-0.434686	0.374992
C106	C	0.633236	-0.184686	0.624992
C107	C	0.883236	0.065314	0.874992
C108	C	1.133236	0.315314	1.124992
C109	C	1.031958	-0.669047	0.385981
C110	C	1.281958	-0.419047	0.635981
C111	C	1.531958	-0.169047	0.885981
C112	C	1.781958	0.080953	1.135981
C113	C	1.027275	-0.769322	0.390713
C114	C	1.277275	-0.519322	0.640713
C115	C	1.527275	-0.269322	0.890713
C116	C	1.777275	-0.019322	1.140713
C117	C	1.112678	-0.957731	0.305559
C118	C	1.362678	-0.707731	0.555559
C119	C	1.612678	-0.457731	0.805559
C120	C	1.862678	-0.207731	1.055559
C121	C	1.108281	-1.051948	0.310003
C122	C	1.358281	-0.801948	0.560003
C123	C	1.608281	-0.551948	0.810003
C124	C	1.858281	-0.301948	1.060003
C125	C	1.014088	-1.051973	0.404048
C126	C	1.264088	-0.801973	0.654048
C127	C	1.514088	-0.551973	0.904048
C128	C	1.764088	-0.301973	1.154048
C129	C	1.018485	-0.957757	0.399604
C130	C	1.268485	-0.707757	0.649604
C131	C	1.518485	-0.457757	0.899604
C132	C	1.768485	-0.207757	1.149604
C133	C	1.067781	-0.910639	0.350357
C134	C	1.317781	-0.660639	0.600357
C135	C	1.567781	-0.410639	0.850357
C136	C	1.817781	-0.160639	1.100357
C137	C	1.072174	-0.816420	0.345910
C138	C	1.322174	-0.566420	0.595910
C139	C	1.572174	-0.316420	0.845910
C140	C	1.822174	-0.066420	1.095910
C141	C	0.977985	-0.816448	0.439958
C142	C	1.227985	-0.566448	0.689958
C143	C	1.477985	-0.316448	0.939958
C144	C	1.727985	-0.066448	1.189958
C145	C	0.973588	-0.910664	0.444402
C146	C	1.223588	-0.660664	0.694402
C147	C	1.473588	-0.410664	0.944402
C148	C	1.723588	-0.160664	1.194402
C149	C	1.235013	-0.434683	0.374990
C150	C	1.485013	-0.184683	0.624990
C151	C	1.735013	0.065317	0.874990
C152	C	1.985013	0.315317	1.124990
C153	C	1.316811	-0.434695	0.374995
C154	C	1.566811	-0.184695	0.624995
C155	C	1.816811	0.065305	0.874995
C156	C	2.066811	0.315305	1.124995
C157	C	1.043109	-0.434592	0.566927
C158	C	1.293109	-0.184592	0.816927
C159	C	1.543109	0.065408	1.066927
C160	C	1.793109	0.315408	1.316927
C161	C	1.043129	-0.434566	0.648724
C162	C	1.293129	-0.184566	0.898724
C163	C	1.543129	0.065434	1.148724
C164	C	1.793129	0.315434	1.398724
C165	C	1.054228	-0.199346	0.363946
C166	C	1.304228	0.050654	0.613946
C167	C	1.554228	0.300654	0.863946
C168	C	1.804228	0.550654	1.113946
C169	C	1.058986	-0.099072	0.359245
C170	C	1.308986	0.150928	0.609245
C171	C	1.558986	0.400928	0.859245
C172	C	1.808986	0.650928	1.109245
C173	C	1.043059	-0.434651	0.183770
C174	C	1.293059	-0.184651	0.433770
C175	C	1.543059	0.065349	0.683770
C176	C	1.793059	0.315349	0.933770
C177	C	1.043193	-0.434424	0.101961
C178	C	1.293193	-0.184424	0.351961
C179	C	1.543193	0.065576	0.601961
C180	C	1.793193	0.315576	0.851961
C181	C	1.092956	-0.376818	0.834215
C182	C	1.342956	-0.126818	1.084215
C183	C	1.592956	0.123182	1.334215
C184	C	1.842956	0.373182	1.584215
C185	C	1.092966	-0.376792	0.911073
C186	C	1.342966	-0.126792	1.161073
C187	C	1.592966	0.123208	1.411073
C188	C	1.842966	0.373208	1.661073
C189	C	0.993361	-0.492174	0.916465
C190	C	1.243361	-0.242174	1.166465
C191	C	1.493361	0.007826	1.416465
C192	C	1.743361	0.257826	1.666465
C193	C	0.993348	-0.492195	0.839608
C194	C	1.243348	-0.242195	1.089608
C195	C	1.493348	0.007805	1.339608
C196	C	1.743348	0.257805	1.589608
C197	C	1.043150	-0.434518	0.798486
C198	C	1.293150	-0.184518	1.048486
C199	C	1.543150	0.065482	1.298486
C200	C	1.793150	0.315482	1.548486
C201	C	1.043173	-0.434471	0.952200
C202	C	1.293173	-0.184471	1.202200
C203	C	1.543173	0.065529	1.452200
C204	C	1.793173	0.315529	1.702200
C205	C	1.043183	-0.434443	1.035532
C206	C	1.293183	-0.184443	1.285532
C207	C	1.543183	0.065557	1.535532
C208	C	1.793183	0.315557	1.785532
C209	C	1.043139	-0.434545	0.715148
C210	C	1.293139	-0.184545	0.965148
C211	C	1.543139	0.065455	1.215148
C212	C	1.793139	0.315455	1.465148
H213	H	0.478641	-0.329873	0.284802
H214	H	0.728641	-0.079873	0.534802
H215	H	0.978641	0.170127	0.784802
H216	H	1.228641	0.420127	1.034802
H217	H	0.952785	-0.539180	0.810517
H218	H	1.202785	-0.289180	1.060517
H219	H	1.452785	-0.039180	1.310517
H220	H	1.702785	0.210820	1.560517
Cl221	Cl	0.636303	-0.304271	0.262792
Cl222	Cl	0.886303	-0.054271	0.512792
Cl223	Cl	1.136303	0.195729	0.762792
Cl224	Cl	1.386303	0.445729	1.012792
H225	H	1.133522	-0.329805	0.940160
H226	H	1.383522	-0.079805	1.190160
H227	H	1.633522	0.170195	1.440160
H228	H	1.883522	0.420195	1.690160
Cl229	Cl	0.930761	-0.564682	0.968167
Cl230	Cl	1.180761	-0.314682	1.218167
Cl231	Cl	1.430761	-0.064682	1.468167
Cl232	Cl	1.680761	0.185318	1.718167
Cl233	Cl	1.134143	-0.757188	0.283998
Cl234	Cl	1.384143	-0.507188	0.533998
Cl235	Cl	1.634143	-0.257188	0.783998
Cl236	Cl	1.884143	-0.007188	1.033998
H237	H	0.608218	-0.539460	0.465157
H238	H	0.858218	-0.289460	0.715157
H239	H	1.108218	-0.039460	0.965157
H240	H	1.358218	0.210540	1.215157
Cl241	Cl	1.164727	-1.111147	0.253685
Cl242	Cl	1.414727	-0.861147	0.503685
Cl243	Cl	1.664727	-0.611147	0.753685
Cl244	Cl	1.914727	-0.361147	1.003685
Cl245	Cl	0.450567	-0.565061	0.487180
Cl246	Cl	0.700567	-0.315061	0.737180
Cl247	Cl	0.950567	-0.065061	0.987180
Cl248	Cl	1.200567	0.184939	1.237180
H249	H	1.152812	-0.919367	0.265456
H250	H	1.402812	-0.669367	0.515456
H251	H	1.652812	-0.419367	0.765456
H252	H	1.902812	-0.169367	1.015456
H253	H	0.973958	-1.090353	0.444147
H254	H	1.223958	-0.840353	0.694147
H255	H	1.473958	-0.590353	0.944147
H256	H	1.723958	-0.340353	1.194147
H257	H	0.933454	-0.949040	0.484499
H258	H	1.183454	-0.699040	0.734499
H259	H	1.433454	-0.449040	0.984499
H260	H	1.683454	-0.199040	1.234499
H261	H	0.941425	-0.778095	0.476433
H262	H	1.191425	-0.528095	0.726433
H263	H	1.441425	-0.278095	0.976433
H264	H	1.691425	-0.028095	1.226433
Cl265	Cl	1.155560	-0.304308	0.782521
Cl266	Cl	1.405560	-0.054308	1.032521
Cl267	Cl	1.655560	0.195692	1.282521
Cl268	Cl	1.905560	0.445692	1.532521
