data_functionalizedCrystal
_audit_creation_method	'MofGen! by Chris Wilmer'
_symmetry_space_group_name_H-M	'P1'
_symmetry_Int_Tables_number	1
_symmetry_cell_setting	triclinic
loop_
_symmetry_equiv_pos_as_xyz
  x,y,z
_cell_length_a	17.077404
_cell_length_b	12.594516
_cell_length_c	17.077396
_cell_angle_alpha	90.024821
_cell_angle_beta	90.018362
_cell_angle_gamma	90.009786
loop_
_atom_site_label
_atom_site_type_symbol
_atom_site_fract_x
_atom_site_fract_y
_atom_site_fract_z
Zn1	Zn	1.200115	-0.423800	0.443839
Zn2	Zn	1.200047	-0.601800	0.312581
Zn3	Zn	1.068847	-0.423830	0.312589
Zn4	Zn	1.068840	-0.601730	0.443807
O5	O	1.134462	-0.512790	0.378204
O6	O	1.309953	-0.447429	0.426437
O7	O	1.182618	-0.578234	0.202735
O8	O	1.086291	-0.274880	0.330016
O9	O	1.309903	-0.578205	0.330003
O10	O	1.182733	-0.274858	0.426445
O11	O	1.086225	-0.447480	0.202741
O12	O	0.958999	-0.447412	0.329986
O13	O	1.086280	-0.578085	0.553659
O14	O	0.958994	-0.578115	0.426391
O15	O	1.182727	-0.447361	0.553682
O16	O	1.182611	-0.750737	0.329972
O17	O	1.086214	-0.750685	0.426383
C18	C	0.930514	-0.512760	0.378187
C19	C	0.843265	-0.512773	0.378198
C20	C	0.802301	-0.444799	0.428488
C21	C	0.720321	-0.444805	0.428491
C22	C	0.679305	-0.512793	0.378208
C23	C	0.720275	-0.580770	0.327913
C24	C	0.802254	-0.580757	0.327906
C25	C	0.549405	-0.580794	0.327932
C26	C	0.467420	-0.580809	0.327940
C27	C	0.467472	-0.444843	0.428518
C28	C	0.549451	-0.444830	0.428511
C29	C	0.590414	-0.512808	0.378216
C30	C	1.134426	-0.789331	0.378191
C31	C	1.134482	-0.907637	0.378211
C32	C	1.186974	-0.976879	0.325829
C33	C	1.206155	-1.047582	0.397476
C34	C	1.115399	-1.047733	0.306610
C35	C	1.153700	-0.976781	0.449895
C36	C	1.062911	-0.976926	0.358981
C37	C	1.082065	-1.047597	0.430677
C38	C	1.339207	-0.512821	0.378222
C39	C	1.426456	-0.512834	0.378230
C40	C	1.134510	-0.512712	0.582949
C41	C	1.134530	-0.512678	0.670198
C42	C	1.134520	-0.235169	0.378235
C43	C	1.134545	-0.116864	0.378248
C44	C	1.134460	-0.512791	0.174256
C45	C	1.134592	-0.512525	0.087007
C46	C	1.184752	-0.444604	0.711202
C47	C	1.184761	-0.444569	0.793182
C48	C	1.134552	-0.512614	0.834158
C49	C	1.084325	-0.580691	0.793149
C50	C	1.084312	-0.580720	0.711170
C51	C	1.084357	-0.580627	0.964019
C52	C	1.084370	-0.580599	1.046004
C53	C	1.184806	-0.444476	1.046032
C54	C	1.184793	-0.444505	0.964053
C55	C	1.134566	-0.512584	0.923049
H56	H	0.434115	-0.389490	0.469468
H57	H	1.225701	-0.389042	1.079420
H58	H	1.037702	-1.078452	0.475043
N59	N	1.236029	-0.375094	0.669338
N60	N	1.236011	-0.375124	0.596143
H61	H	1.272224	-0.326028	0.566577
H62	H	1.043445	-0.636047	0.930636
H63	H	1.002376	-0.945864	0.342674
H64	H	0.582843	-0.389475	0.469460
H65	H	0.686873	-0.636121	0.286968
N66	N	1.033018	-0.650176	0.834997
N67	N	0.960586	-0.643084	0.825829
H68	H	0.924346	-0.692154	0.855386
N69	N	0.425534	-0.650259	0.276571
N70	N	0.462115	-0.710940	0.231664
H71	H	0.432534	-0.759990	0.195383
H72	H	1.231371	-0.945827	0.281571
H73	H	1.169806	-0.945748	0.510515
N74	N	1.236078	-0.375015	0.922181
N75	N	1.286078	-0.412494	0.876436
H76	H	1.322298	-0.363415	0.846862
H77	H	1.266707	-1.078620	0.413761
N78	N	0.591237	-0.650229	0.276546
N79	N	0.554609	-0.710927	0.231653
H80	H	0.584153	-0.759966	0.195362
H81	H	1.043484	-0.636005	1.079364
N82	N	0.678490	-0.375335	0.479845
N83	N	0.715120	-0.314624	0.524726
H84	H	0.685578	-0.265546	0.560990
H85	H	0.835690	-0.389438	0.469436
H86	H	1.225659	-0.389139	0.826564
H87	H	1.099233	-1.078898	0.246042
N88	N	0.844101	-0.650175	0.276525
N89	N	0.834915	-0.642983	0.204102
H90	H	0.864470	-0.692007	0.167809
N91	N	1.033002	-0.650256	0.669295
N92	N	0.988173	-0.711003	0.705887
H93	H	0.951930	-0.760112	0.676315
