data_functionalizedCrystal
_audit_creation_method	'MofGen! by Chris Wilmer'
_symmetry_space_group_name_H-M	'P1'
_symmetry_Int_Tables_number	1
_symmetry_cell_setting	triclinic
loop_
_symmetry_equiv_pos_as_xyz
  x,y,z
_cell_length_a	27.732048
_cell_length_b	15.995350
_cell_length_c	14.472310
_cell_angle_alpha	90.001162
_cell_angle_beta	89.992508
_cell_angle_gamma	83.067515
loop_
_atom_site_label
_atom_site_type_symbol
_atom_site_fract_x
_atom_site_fract_y
_atom_site_fract_z
O1	O	0.641363	0.099622	-0.076718
O2	O	0.500635	0.114770	-0.076745
O3	O	0.574846	-0.014741	-0.076730
O4	O	0.567152	0.229134	-0.076733
O5	O	0.574827	-0.014733	0.076952
O6	O	0.500616	0.114778	0.076937
O7	O	0.641344	0.099630	0.076964
Cu8	Cu	0.570978	0.107205	0.090983
Cu9	Cu	0.571001	0.107196	-0.090764
O10	O	0.567133	0.229141	0.076949
C11	C	0.482617	0.114456	0.000092
C12	C	0.428958	0.113499	0.000082
C13	C	0.574518	-0.045928	0.000109
C14	C	0.573565	-0.138866	0.000104
C15	C	0.570140	-0.476569	0.000106
C16	C	0.517289	-0.428451	-0.000249
C17	C	0.518242	-0.331773	0.000098
C18	C	0.571839	-0.309031	0.000105
C19	C	0.597896	-0.350441	0.087868
C20	C	0.596569	-0.447060	0.087941
C21	C	0.597682	-0.447441	-0.086824
C22	C	0.597670	-0.350495	-0.087984
C23	C	0.572802	-0.214346	0.000107
C24	C	0.569179	-0.571255	0.000110
C25	C	0.090447	0.184004	0.000121
C26	C	-0.111228	0.180451	0.000129
O27	O	-0.142205	0.244923	0.000168
N28	N	-0.130683	0.103656	0.000128
C29	C	-0.099715	0.027744	0.000132
O30	O	-0.120891	-0.037657	0.000141
C31	C	0.101958	0.031297	0.000130
C32	C	0.121410	0.108097	0.000121
C33	C	0.109900	0.260797	0.000113
C34	C	0.160315	0.261685	0.000106
C35	C	0.191279	0.185778	0.000107
C36	C	0.171826	0.108985	0.000114
C37	C	0.132925	-0.044614	0.000140
C38	C	0.183346	-0.043719	0.000142
C39	C	0.202798	0.033081	0.000133
C40	C	0.253205	0.033965	0.000108
N41	N	0.272660	0.110761	0.000108
C42	C	0.241697	0.186667	0.000108
C43	C	-0.205598	0.025883	0.000131
C44	C	-0.256016	0.024995	0.000130
C45	C	-0.267525	0.177703	0.000129
C46	C	-0.217106	0.178590	0.000123
C47	C	-0.186143	0.102679	0.000132
C48	C	0.347574	0.188525	0.000092
C49	C	0.397995	0.189405	0.000081
C50	C	0.409499	0.036698	0.000087
C51	C	0.359083	0.035817	0.000093
C52	C	0.328121	0.111737	0.000099
O53	O	0.284211	-0.030472	0.000079
O54	O	0.262881	0.252058	0.000119
C55	C	0.040031	0.183116	0.000128
C56	C	0.020579	0.106323	0.000136
C57	C	0.051542	0.030416	0.000136
C58	C	-0.029839	0.105434	0.000134
C59	C	-0.060803	0.181340	0.000134
C60	C	-0.041348	0.258135	0.000134
C61	C	0.009068	0.259023	0.000127
C62	C	0.032087	-0.046379	0.000136
C63	C	-0.018329	-0.047260	0.000142
C64	C	-0.049292	0.028646	0.000141
C65	C	0.659362	0.099944	0.000125
C66	C	0.713021	0.100901	0.000129
C67	C	0.567461	0.260328	0.000108
C68	C	0.568414	0.353266	0.000107
N69	N	0.570966	0.107210	0.218814
N70	N	0.571017	0.107183	-0.218595
C71	C	0.571000	0.107192	0.592905
C72	C	0.531158	0.176262	0.553731
C73	C	0.531250	0.176511	0.446643
C74	C	0.570983	0.107201	0.407314
C75	C	0.621417	0.125630	0.446161
C76	C	0.621193	0.126121	0.553282
C77	C	0.560858	0.019484	0.553433
C78	C	0.559701	0.020084	0.446305
C79	C	0.570976	0.107205	0.302426
C80	C	0.571010	0.107190	0.697793
H81	H	0.497759	-0.303089	-0.062815
H82	H	0.524880	0.001601	0.580494
H83	H	0.084694	0.322613	0.000116
H84	H	0.496172	-0.446713	-0.063186
H85	H	0.537727	0.241612	0.421009
Cl86	Cl	0.569930	-0.306261	0.188698
H87	H	0.522601	0.006083	0.420916
Cl88	Cl	0.571011	-0.478799	-0.189525
H89	H	0.577551	-0.465112	0.153541
Cl90	Cl	0.601599	-0.062914	0.404992
H91	H	0.578618	-0.323003	-0.152909
Cl92	Cl	0.668298	0.051272	0.593294
H93	H	-0.201272	0.241128	0.000121
H94	H	0.537545	0.240997	0.580641
H95	H	0.635371	-0.479810	0.091928
Cl96	Cl	0.634991	0.224847	0.591849
Cl97	Cl	-0.042776	-0.143819	0.000141
Cl98	Cl	0.484716	-0.458634	0.096082
Cl99	Cl	0.668287	0.049985	0.406832
H100	H	0.589913	-0.031908	0.578765
H101	H	0.497605	-0.303639	0.063110
H102	H	0.637272	-0.336825	0.091136
H103	H	-0.292744	0.239509	0.000128
H104	H	0.636755	-0.335639	-0.093278
H105	H	0.057293	-0.108193	0.000138
Cl106	Cl	-0.280463	-0.071558	0.000118
H107	H	0.636649	-0.479706	-0.087409
H108	H	0.630568	0.188843	0.419325
Cl109	Cl	0.308658	0.283969	0.000098
Cl110	Cl	0.422445	0.285961	0.000067
H111	H	0.176148	0.324223	0.000099
H112	H	-0.180391	-0.035937	0.000138
Cl113	Cl	0.108484	-0.141169	0.000136
Cl114	Cl	0.334628	-0.060733	0.000108
Cl115	Cl	0.222268	-0.139157	0.000154
Cl116	Cl	-0.080283	0.353560	0.000130
H117	H	0.434719	-0.025103	0.000084
Cl118	Cl	0.473361	0.159763	0.406090
Cl119	Cl	0.473087	0.159739	0.593512
Cl120	Cl	0.033514	0.355577	0.000118
