data_functionalizedCrystal
_audit_creation_method	'MofGen! by Chris Wilmer'
_symmetry_space_group_name_H-M	'P1'
_symmetry_Int_Tables_number	1
_symmetry_cell_setting	triclinic
loop_
_symmetry_equiv_pos_as_xyz
  x,y,z
_cell_length_a	19.188933
_cell_length_b	19.188928
_cell_length_c	13.448316
_cell_angle_alpha	90.009631
_cell_angle_beta	89.992918
_cell_angle_gamma	96.855309
loop_
_atom_site_label
_atom_site_type_symbol
_atom_site_fract_x
_atom_site_fract_y
_atom_site_fract_z
O1	O	0.926148	-0.087171	-0.082675
O2	O	0.722836	-0.098904	-0.082686
O3	O	0.830360	0.008618	-0.082655
O4	O	0.818624	-0.194693	-0.082706
O5	O	0.830342	0.008615	0.082729
O6	O	0.722818	-0.098907	0.082698
O7	O	0.926130	-0.087174	0.082709
Cu8	Cu	0.824472	-0.093041	0.097804
Cu9	Cu	0.824494	-0.093037	-0.097781
O10	O	0.818606	-0.194696	0.082678
C11	C	0.696816	-0.098525	0.000005
C12	C	0.619312	-0.097384	0.000001
C13	C	0.829971	0.034628	0.000041
C14	C	0.828831	0.112132	0.000054
C15	C	0.066066	-0.089237	-0.090137
C16	C	0.138891	-0.090305	-0.090141
C17	C	0.175298	-0.090844	0.000010
C18	C	0.138877	-0.090297	0.090171
C19	C	0.066055	-0.089222	0.090172
N20	N	0.284310	-0.132264	0.067102
N21	N	0.353488	-0.133287	0.067095
C22	C	0.394706	-0.094082	0.000010
N23	N	0.364133	-0.053825	-0.067081
N24	N	0.294949	-0.052805	-0.067076
C25	C	0.254261	-0.092010	0.000018
C26	C	0.510083	-0.095782	-0.090149
C27	C	0.582910	-0.096846	-0.090150
C28	C	0.582894	-0.096845	0.090164
C29	C	0.510070	-0.095774	0.090162
C30	C	0.473669	-0.095246	0.000002
C31	C	0.891922	0.157056	0.000065
C32	C	0.890851	0.229880	0.000053
C33	C	0.826685	0.257777	0.000050
C34	C	0.763586	0.212844	0.000034
C35	C	0.764659	0.140021	0.000036
N36	N	0.777633	0.365781	0.056337
N37	N	0.776618	0.434960	0.056337
C38	C	0.823449	0.477186	0.000043
N39	N	0.871344	0.447621	-0.056240
N40	N	0.872361	0.378436	-0.056236
C41	C	0.825515	0.336740	0.000048
C42	C	0.885383	0.601074	0.000039
C43	C	0.884310	0.673899	0.000021
C44	C	0.757043	0.656861	0.000012
C45	C	0.758118	0.584038	0.000020
C46	C	0.822290	0.556149	0.000038
C47	C	0.952150	-0.087553	0.000016
C48	C	1.029654	-0.088694	0.000013
C49	C	0.818997	0.779295	-0.000006
C50	C	0.820143	0.701791	0.000017
N51	N	0.824462	-0.093043	0.235368
N52	N	0.824509	-0.093030	-0.235346
C53	C	0.872127	-0.045438	0.712601
C54	C	0.872121	-0.045443	0.608497
C55	C	0.824494	-0.093036	0.556450
C56	C	0.776873	-0.140633	0.608511
C57	C	0.776883	-0.140631	0.712612
C58	C	0.776855	-0.140633	0.391531
C59	C	0.776844	-0.140634	0.287422
C60	C	0.872094	-0.045445	0.287416
C61	C	0.872103	-0.045443	0.391517
C62	C	0.824482	-0.093039	0.443571
H63	H	0.036433	-0.088805	-0.163552
H64	H	0.944176	0.134354	0.000076
H65	H	0.612536	-0.097281	0.163566
H66	H	0.480422	-0.095334	0.163571
H67	H	0.168543	-0.090752	-0.163553
Cl68	Cl	0.966055	0.566010	0.000067
H69	H	0.910896	-0.006691	0.566116
Cl70	Cl	0.628687	-0.097522	-0.203491
Cl71	Cl	0.020277	-0.088542	0.203512
Cl72	Cl	0.678799	0.527559	0.000011
H73	H	0.910882	-0.006685	0.433894
Cl74	Cl	0.717019	-0.200466	0.778050
Cl75	Cl	0.931958	0.014390	0.221974
H76	H	0.480444	-0.095350	-0.163563
Cl77	Cl	0.970172	0.286366	0.000065
Cl78	Cl	0.682920	0.247913	0.000023
Cl79	Cl	0.184645	-0.090971	0.203503
Cl80	Cl	0.716988	-0.200471	0.456966
Cl81	Cl	0.685337	0.083543	0.000023
Cl82	Cl	0.716968	-0.200470	0.221999
H83	H	0.935688	0.710476	0.000024
H84	H	0.704798	0.679574	0.000005
H85	H	0.910909	-0.006679	0.754971
Cl86	Cl	0.717000	-0.200469	0.543082
