data_functionalizedCrystal
_audit_creation_method	'MofGen! by Chris Wilmer'
_symmetry_space_group_name_H-M	'P1'
_symmetry_Int_Tables_number	1
_symmetry_cell_setting	triclinic
loop_
_symmetry_equiv_pos_as_xyz
  x,y,z
_cell_length_a	9.065218
_cell_length_b	19.188924
_cell_length_c	7.540329
_cell_angle_alpha	89.994348
_cell_angle_beta	89.996962
_cell_angle_gamma	84.078925
loop_
_atom_site_label
_atom_site_type_symbol
_atom_site_fract_x
_atom_site_fract_y
_atom_site_fract_z
O1	O	1.956842	0.102370	-0.147497
O2	O	1.527265	0.110767	-0.147500
O3	O	1.754455	0.005009	-0.147477
O4	O	1.729651	0.208128	-0.147519
O5	O	1.754442	0.005007	0.147488
O6	O	1.527252	0.110765	0.147465
O7	O	1.956828	0.102368	0.147468
Cu8	Cu	1.742039	0.106567	0.174400
Cu9	Cu	1.742055	0.106568	-0.174431
O10	O	1.729638	0.208126	0.147446
C11	C	1.472300	0.109959	-0.000017
C12	C	1.308541	0.107546	-0.000018
C13	C	1.753647	-0.021009	0.000007
C14	C	1.751241	-0.098533	0.000012
C15	C	1.750125	-0.134940	-0.160774
C16	C	1.747843	-0.207780	-0.160788
C17	C	1.746707	-0.244213	-0.000006
C18	C	1.747815	-0.207796	0.160801
C19	C	1.750081	-0.134957	0.160810
N20	N	1.827093	-0.363252	0.119660
N21	N	1.824942	-0.432447	0.119641
C22	C	1.739874	-0.463675	-0.000023
N23	N	1.657055	-0.423095	-0.119694
N24	N	1.659212	-0.353894	-0.119680
C25	C	1.744248	-0.323195	0.000002
C26	C	1.736282	-0.579064	-0.160835
C27	C	1.733991	-0.651905	-0.160842
C28	C	1.733977	-0.651921	0.160752
C29	C	1.736253	-0.579080	0.160754
C30	C	1.737413	-0.542656	-0.000044
C31	C	2.011793	0.103176	-0.000018
C32	C	2.175552	0.105589	-0.000029
C33	C	1.730446	0.234144	-0.000042
C34	C	1.732852	0.311668	-0.000059
N35	N	1.742038	0.106565	0.419748
N36	N	1.742067	0.106564	-0.419779
H37	H	1.751065	-0.105288	-0.291709
H38	H	1.746926	-0.237428	-0.291723
H39	H	1.737217	-0.549405	-0.291766
H40	H	1.746885	-0.237464	0.291710
O41	O	1.732772	-0.691181	-0.334262
H42	H	1.631198	-0.718766	-0.341947
O43	O	1.751292	-0.095684	0.334237
H44	H	1.852850	-0.068086	0.341922
O45	O	1.732762	-0.691204	0.334175
H46	H	1.731010	-0.747972	0.307160
O47	O	1.737494	-0.539807	0.334173
H48	H	1.736338	-0.577376	0.445976
