data_functionalizedCrystal
_audit_creation_method	'MofGen! by Chris Wilmer'
_symmetry_space_group_name_H-M	'P1'
_symmetry_Int_Tables_number	1
_symmetry_cell_setting	triclinic
loop_
_symmetry_equiv_pos_as_xyz
  x,y,z
_cell_length_a	19.077105
_cell_length_b	13.032721
_cell_length_c	19.076919
_cell_angle_alpha	99.138159
_cell_angle_beta	90.076224
_cell_angle_gamma	95.201395
loop_
_atom_site_label
_atom_site_type_symbol
_atom_site_fract_x
_atom_site_fract_y
_atom_site_fract_z
Zn1	Zn	1.013397	-0.505360	-0.481832
Zn2	Zn	1.003124	-0.673317	-0.378090
Zn3	Zn	0.901858	-0.491366	-0.358479
Zn4	Zn	0.881001	-0.672687	-0.490791
O5	O	0.949845	-0.585683	-0.427298
O6	O	1.109823	-0.533760	-0.472529
O7	O	0.994119	-0.643588	-0.276699
O8	O	0.929682	-0.347048	-0.362886
O9	O	1.102275	-0.657157	-0.396309
O10	O	1.011630	-0.357329	-0.453513
O11	O	0.919720	-0.509909	-0.262291
O12	O	0.801303	-0.509299	-0.371572
O13	O	0.894135	-0.656084	-0.588392
O14	O	0.785980	-0.642515	-0.468781
O15	O	0.991406	-0.533149	-0.581810
O16	O	0.973896	-0.819408	-0.404996
O17	O	0.884173	-0.818945	-0.487797
C18	C	0.768286	-0.574321	-0.419021
C19	C	0.690611	-0.569486	-0.415499
C20	C	0.646154	-0.636670	-0.464393
C21	C	0.573171	-0.632114	-0.461086
C22	C	0.544646	-0.560378	-0.408881
C23	C	0.589109	-0.493187	-0.359985
C24	C	0.662091	-0.497739	-0.363296
C25	C	0.327230	-0.539312	-0.393562
C26	C	0.254242	-0.534767	-0.390254
C27	C	0.238309	-0.673693	-0.491357
C28	C	0.311292	-0.678243	-0.494660
C29	C	0.355749	-0.611048	-0.445766
N30	N	0.470046	-0.555721	-0.405499
N31	N	0.430348	-0.615700	-0.449153
C32	C	0.925675	-0.857080	-0.449513
C33	C	0.915397	-0.973191	-0.459043
C34	C	0.955245	-1.025155	-0.422357
C35	C	0.944623	-1.145161	-0.432206
C36	C	1.132113	-0.597090	-0.435607
C37	C	1.209785	-0.601951	-0.439148
C38	C	0.941590	-0.596107	-0.611432
C39	C	0.938072	-0.600549	-0.689899
C40	C	0.974128	-0.313227	-0.405012
C41	C	0.984476	-0.197123	-0.395516
C42	C	0.987061	-0.538633	-0.723338
C43	C	0.983747	-0.542803	-0.797065
C44	C	0.931448	-0.608894	-0.837354
C45	C	0.882454	-0.670812	-0.803910
C46	C	0.885765	-0.666637	-0.730183
C47	C	0.916112	-0.628240	-1.058220
C48	C	0.912806	-0.632414	-1.131952
C49	C	1.014098	-0.504402	-1.125102
C50	C	1.017407	-0.500237	-1.051375
C51	C	0.968412	-0.562151	-1.017937
N52	N	0.928061	-0.613160	-0.912715
N53	N	0.971796	-0.557879	-0.942576
C54	C	0.958115	-0.575226	-0.243875
C55	C	0.961794	-0.570498	-0.165391
H56	H	0.698288	-0.443025	-0.323484
O57	O	0.370471	-0.474193	-0.346043
C58	C	0.409427	-0.533600	-0.307140
H59	H	0.412209	-0.614903	-0.338932
H60	H	0.382619	-0.540247	-0.254467
C61	C	0.481017	-0.379829	-0.253802
C62	C	0.484440	-0.479684	-0.292852
H63	H	0.527288	-0.346570	-0.244985
H64	H	0.454770	-0.339804	-0.280010
H65	H	0.458674	-0.385382	-0.209913
H66	H	0.506774	-0.474129	-0.336743
H67	H	0.510692	-0.519707	-0.266651
H68	H	0.839869	-0.724621	-0.836718
O69	O	0.338885	-0.747957	-0.545437
C70	C	0.283994	-0.806299	-0.587873
H71	H	0.235668	-0.760416	-0.584507
H72	H	0.270330	-0.883618	-0.568067
C73	C	0.367126	-0.883919	-0.669663
C74	C	0.307773	-0.827560	-0.665534
H75	H	0.381795	-0.897039	-0.717567
H76	H	0.404108	-0.844616	-0.641072
H77	H	0.355732	-0.948345	-0.653154
H78	H	0.319171	-0.763131	-0.682034
H79	H	0.270794	-0.866853	-0.694129
H80	H	0.876225	-0.678671	-1.031006
H81	H	0.565879	-0.434774	-0.317481
H82	H	0.997225	-0.980802	-0.383660
O83	O	0.865391	-1.026060	-0.505314
C84	C	0.879782	-1.004328	-0.574206
H85	H	0.938092	-0.977883	-0.577904
H86	H	0.847030	-0.939818	-0.585768
C87	C	0.789364	-1.135937	-0.624302
C88	C	0.860982	-1.103464	-0.628846
H89	H	0.777764	-1.197086	-0.658008
H90	H	0.779666	-1.150576	-0.577888
H91	H	0.762079	-1.082170	-0.633936
H92	H	0.888266	-1.157226	-0.619204
H93	H	0.870684	-1.088837	-0.675260
H94	H	1.059997	-0.446421	-1.018577
H95	H	0.202105	-0.728397	-0.531164
H96	H	0.902645	-1.189513	-0.470911
O97	O	1.034468	-1.144167	-0.349258
C98	C	1.002307	-1.076045	-0.296691
H99	H	0.944567	-1.105373	-0.292469
H100	H	1.006170	-0.994470	-0.311669
C101	C	1.110870	-1.036188	-0.229926
C102	C	1.039954	-1.072214	-0.224736
H103	H	1.134094	-1.033820	-0.185541
H104	H	1.132538	-1.082080	-0.265342
H105	H	1.114079	-0.968211	-0.242410
H106	H	1.036746	-1.140194	-0.212261
H107	H	1.018286	-1.026333	-0.189315
H108	H	1.029650	-0.484818	-0.690541
O109	O	1.031411	-0.482627	-0.829439
C110	C	1.078274	-0.423385	-0.778069
H111	H	1.079237	-0.463348	-0.729125
H112	H	1.060112	-0.342003	-0.762569
C113	C	1.151513	-0.365539	-0.869122
C114	C	1.152701	-0.414628	-0.809010
H115	H	1.197423	-0.360132	-0.888209
H116	H	1.119940	-0.405448	-0.903732
H117	H	1.136375	-0.297726	-0.856198
H118	H	1.167830	-0.482444	-0.821937
H119	H	1.184279	-0.374730	-0.774404
H120	H	0.870215	-0.686236	-1.164753
O121	O	0.673745	-0.706385	-0.515171
C122	C	0.618851	-0.764721	-0.557606
H123	H	0.570526	-0.718836	-0.554234
H124	H	0.605189	-0.842044	-0.537805
C125	C	0.701979	-0.842332	-0.639406
C126	C	0.642626	-0.785972	-0.635269
H127	H	0.716645	-0.855446	-0.687312
H128	H	0.738962	-0.803034	-0.610815
H129	H	0.690585	-0.906762	-0.622901
H130	H	0.654023	-0.721539	-0.651765
H131	H	0.605645	-0.825260	-0.663864
O132	O	0.226651	-0.464983	-0.339515
C133	C	0.281537	-0.406667	-0.297059
H134	H	0.332587	-0.407993	-0.328047
H135	H	0.288301	-0.442237	-0.246871
C136	C	0.200694	-0.291499	-0.238557
C137	C	0.263394	-0.293120	-0.276619
H138	H	0.189502	-0.221459	-0.225946
H139	H	0.163715	-0.330789	-0.267159
H140	H	0.206339	-0.321145	-0.196739
H141	H	0.257746	-0.263486	-0.318441
H142	H	0.300372	-0.253822	-0.248024
H143	H	1.053987	-0.453994	-1.152335
H144	H	0.536976	-0.686823	-0.500901
H145	H	0.845867	-0.717044	-0.702958
