data_functionalizedCrystal
_audit_creation_method	'MofGen! by Chris Wilmer'
_symmetry_space_group_name_H-M	'P1'
_symmetry_Int_Tables_number	1
_symmetry_cell_setting	triclinic
loop_
_symmetry_equiv_pos_as_xyz
  x,y,z
_cell_length_a	10.654545
_cell_length_b	11.792241
_cell_length_c	9.130313
_cell_angle_alpha	90.003147
_cell_angle_beta	90.003278
_cell_angle_gamma	84.338247
loop_
_atom_site_label
_atom_site_type_symbol
_atom_site_fract_x
_atom_site_fract_y
_atom_site_fract_z
O1	O	1.667393	0.159393	0.121785
O2	O	1.301870	0.174587	0.121792
O3	O	1.493502	0.001840	0.121778
O4	O	1.475761	0.332140	0.121799
O5	O	1.493487	0.001840	-0.121821
O6	O	1.301856	0.174587	-0.121807
O7	O	1.667378	0.159393	-0.121813
Cu8	Cu	1.484616	0.166990	-0.144053
Cu9	Cu	1.484633	0.166990	0.144031
O10	O	1.475747	0.332140	-0.121800
C11	C	1.255068	0.173472	-0.000007
C12	C	1.115634	0.170138	-0.000005
C13	C	1.050126	0.168568	-0.132792
C14	C	0.919116	0.165416	-0.132792
C15	C	0.919132	0.165408	0.132793
C16	C	1.050141	0.168552	0.132792
C17	C	1.492380	-0.040454	-0.000021
C18	C	1.489045	-0.166475	-0.000019
C19	C	1.482911	-0.397202	0.000005
C20	C	1.486319	-0.268809	-0.000008
C21	C	1.714180	0.160507	-0.000011
C22	C	1.853614	0.163842	-0.000004
C23	C	1.476868	0.374433	0.000002
C24	C	1.480204	0.500455	0.000010
N25	N	1.484613	0.166989	-0.346675
C26	C	1.561248	0.236470	-0.423319
C27	C	1.561268	0.236464	-0.576656
C28	C	1.408008	0.097493	-0.576692
C29	C	1.407995	0.097494	-0.423358
N30	N	1.484646	0.166981	0.346654
H31	H	1.103447	0.169859	-0.240923
H32	H	1.103480	0.169827	0.240929
O33	O	1.333462	0.030165	-0.348744
C34	C	1.248211	0.098667	-0.260094
H35	H	1.287868	0.183211	-0.237109
H36	H	1.153937	0.115258	-0.319211
C37	C	1.180161	-0.066957	-0.142681
C38	C	1.228873	0.036877	-0.114440
H39	H	1.168226	-0.105073	-0.052837
H40	H	1.237592	-0.113109	-0.202409
H41	H	1.101605	-0.053117	-0.191949
H42	H	1.307434	0.023035	-0.065191
H43	H	1.171454	0.083026	-0.054700
H44	H	1.623673	0.293040	-0.639052
H45	H	0.865791	0.164119	0.240911
H46	H	0.865785	0.164138	-0.240920
H47	H	1.623635	0.293057	-0.360888
H48	H	1.345627	0.040914	-0.639146
