data_functionalizedCrystal
_audit_creation_method	'MofGen! by Chris Wilmer'
_symmetry_space_group_name_H-M	'P1'
_symmetry_Int_Tables_number	1
_symmetry_cell_setting	triclinic
loop_
_symmetry_equiv_pos_as_xyz
  x,y,z
_cell_length_a	18.215407
_cell_length_b	18.050590
_cell_length_c	18.215399
_cell_angle_alpha	89.968856
_cell_angle_beta	89.985640
_cell_angle_gamma	90.015996
loop_
_atom_site_label
_atom_site_type_symbol
_atom_site_fract_x
_atom_site_fract_y
_atom_site_fract_z
Zn1	Zn	1.125082	-0.295700	-0.416063
Zn2	Zn	1.125011	-0.419900	-0.292995
Zn3	Zn	1.002021	-0.295723	-0.293016
Zn4	Zn	1.001995	-0.419847	-0.416026
O5	O	1.063527	-0.357793	-0.354525
O6	O	1.228057	-0.312188	-0.399745
O7	O	1.108677	-0.403460	-0.190014
O8	O	1.018387	-0.191795	-0.309363
O9	O	1.228005	-0.403437	-0.309328
O10	O	1.108799	-0.191779	-0.399765
O11	O	1.018318	-0.312227	-0.190029
O12	O	0.899034	-0.312176	-0.309326
O13	O	1.018341	-0.403347	-0.519015
O14	O	0.899014	-0.403369	-0.399701
O15	O	1.108773	-0.312137	-0.519043
O16	O	1.108651	-0.523818	-0.309291
O17	O	1.018272	-0.523779	-0.399681
C18	C	0.872321	-0.357770	-0.354512
C19	C	0.790522	-0.357778	-0.354524
C20	C	0.602355	-0.310362	-0.401679
C21	C	0.525496	-0.310369	-0.401681
C22	C	0.525452	-0.405244	-0.307384
C23	C	0.602309	-0.405233	-0.307379
C24	C	0.640759	-0.357794	-0.354530
C25	C	0.487043	-0.357811	-0.354538
C26	C	0.403709	-0.357818	-0.354541
C27	C	0.724098	-0.357785	-0.354527
C28	C	1.063471	-0.550745	-0.354496
C29	C	1.063514	-0.633291	-0.354508
C30	C	1.112765	-0.832735	-0.305423
C31	C	1.130738	-0.882066	-0.372589
C32	C	1.063556	-0.784421	-0.354537
C33	C	1.045657	-0.882172	-0.287401
C34	C	1.063597	-0.930406	-0.354560
C35	C	1.081564	-0.832664	-0.421739
C36	C	0.996451	-0.832766	-0.336506
C37	C	1.014399	-0.882074	-0.403718
C38	C	1.063533	-0.700323	-0.354523
C39	C	1.063619	-1.014503	-0.354581
C40	C	1.255480	-0.357816	-0.354539
C41	C	1.337279	-0.357826	-0.354544
C42	C	1.063562	-0.357733	-0.546478
C43	C	1.063577	-0.357708	-0.628277
C44	C	1.063604	-0.164087	-0.354571
C45	C	1.063637	-0.081541	-0.354590
C46	C	1.016566	-0.310171	-0.816480
C47	C	1.016579	-0.310156	-0.893339
C48	C	1.110675	-0.405156	-0.893312
C49	C	1.110658	-0.405174	-0.816455
C50	C	1.063605	-0.357678	-0.778041
C51	C	1.063635	-0.357645	-0.931757
C52	C	1.063649	-0.357629	-1.015091
C53	C	1.063590	-0.357694	-0.694702
C54	C	1.063535	-0.357798	-0.163319
C55	C	1.063663	-0.357614	-0.081520
H56	H	0.494231	-0.271744	-0.440074
C57	C	1.101945	-0.725869	-0.497702
C58	C	1.102121	-0.803438	-0.498419
H59	H	1.114642	-0.707828	-0.545039
H60	H	1.054415	-0.708585	-0.484813
H61	H	1.136668	-0.708590	-0.462776
H62	H	1.067394	-0.820718	-0.533342
H63	H	1.149658	-0.820730	-0.511317
H64	H	0.494137	-0.443868	-0.268996
C65	C	0.955394	-0.885575	-0.191370
C66	C	1.025189	-0.911530	-0.210746
H67	H	0.942762	-0.903702	-0.144048
H68	H	0.955677	-0.832960	-0.190701
H69	H	0.920406	-0.902472	-0.226217
H70	H	1.060177	-0.894628	-0.175903
H71	H	1.024911	-0.964155	-0.211410
H72	H	1.187505	-0.903723	-0.387854
H73	H	0.972803	-0.903601	-0.445311
C74	C	0.594552	-0.499025	-0.214172
C75	C	0.644529	-0.457376	-0.255551
H76	H	0.620619	-0.531215	-0.182180
H77	H	0.564572	-0.466640	-0.186080
H78	H	0.564580	-0.527475	-0.246196
H79	H	0.674498	-0.428922	-0.223527
H80	H	0.674522	-0.489766	-0.283645
H81	H	0.939701	-0.811093	-0.321221
C82	C	1.239215	-0.828366	-0.268488
C83	C	1.168957	-0.803480	-0.249411
H84	H	1.273905	-0.810300	-0.233913
H85	H	1.239923	-0.880981	-0.268418
H86	H	1.251469	-0.810684	-0.316067
H87	H	1.156700	-0.821167	-0.201833
H88	H	1.168247	-0.750854	-0.249473
C89	C	0.923549	-0.216277	-0.824229
C90	C	0.964837	-0.257973	-0.774254
H91	H	0.891608	-0.184057	-0.798160
H92	H	0.955628	-0.187863	-0.854212
H93	H	0.895400	-0.248635	-0.854198
H94	H	0.992990	-0.225615	-0.744289
H95	H	0.932754	-0.286389	-0.744258
C96	C	0.917599	-0.299814	-0.979756
C97	C	0.964868	-0.257937	-0.935587
H98	H	0.885669	-0.267574	-1.005833
H99	H	0.945623	-0.328084	-1.013635
H100	H	0.889439	-0.332174	-0.949750
H101	H	0.993032	-0.225580	-0.965594
H102	H	0.936841	-0.229654	-0.901704
H103	H	1.148985	-0.443826	-0.924598
C104	C	1.203680	-0.499075	-0.824143
C105	C	1.162369	-0.457396	-0.774197
H106	H	1.235603	-0.531310	-0.798052
H107	H	1.171614	-0.527472	-0.854109
H108	H	1.231848	-0.466707	-0.854132
H109	H	1.134196	-0.489765	-0.744211
H110	H	1.194439	-0.428997	-0.744218
H111	H	0.633658	-0.271731	-0.440070
