data_functionalizedCrystal
_audit_creation_method	'MofGen! by Chris Wilmer'
_symmetry_space_group_name_H-M	'P1'
_symmetry_Int_Tables_number	1
_symmetry_cell_setting	triclinic
loop_
_symmetry_equiv_pos_as_xyz
  x,y,z
_cell_length_a	15.297979
_cell_length_b	17.639999
_cell_length_c	15.299447
_cell_angle_alpha	112.543413
_cell_angle_beta	72.610105
_cell_angle_gamma	93.434415
loop_
_atom_site_label
_atom_site_type_symbol
_atom_site_fract_x
_atom_site_fract_y
_atom_site_fract_z
Zn1	Zn	1.506911	-0.031641	-0.778705
Zn2	Zn	1.511338	0.128222	-0.591758
Zn3	Zn	1.335320	0.023697	-0.585346
Zn4	Zn	1.382770	0.128150	-0.720301
O5	O	1.434085	0.062107	-0.669028
O6	O	1.633116	-0.033564	-0.781032
O7	O	1.469984	0.137547	-0.456191
O8	O	1.336372	-0.094260	-0.632754
O9	O	1.636369	0.083887	-0.643683
O10	O	1.462439	-0.134917	-0.774814
O11	O	1.340665	0.060753	-0.451479
O12	O	1.215997	0.060682	-0.576122
O13	O	1.417242	0.083763	-0.862766
O14	O	1.250858	0.137423	-0.675273
O15	O	1.508449	-0.033634	-0.905675
O16	O	1.515994	0.238830	-0.587052
O17	O	1.421535	0.238776	-0.681491
C18	C	1.200856	0.105050	-0.618664
C19	C	1.101087	0.123436	-0.597138
C20	C	1.055878	0.193161	-0.515431
C21	C	0.962141	0.210437	-0.495211
C22	C	0.913601	0.157986	-0.556689
C23	C	0.958808	0.088256	-0.638393
C24	C	1.052556	0.070982	-0.658621
C25	C	0.910279	0.035806	-0.699878
C26	C	0.955486	-0.033923	-0.781582
C27	C	1.049225	-0.051194	-0.801805
C28	C	1.097765	0.001257	-0.740327
C29	C	0.816531	0.053080	-0.679651
C30	C	0.813209	-0.069099	-0.822840
C31	C	0.906947	-0.086375	-0.843061
C32	C	1.474421	0.267476	-0.628656
C33	C	1.491763	0.355314	-0.611435
C34	C	1.302610	0.644304	-0.800234
C35	C	1.318903	0.726845	-0.784021
C36	C	1.417351	0.726801	-0.685821
C37	C	1.401069	0.644257	-0.702029
C38	C	1.343697	0.603015	-0.759235
C39	C	1.442156	0.602968	-0.661031
C40	C	1.425872	0.520432	-0.677234
C41	C	1.368500	0.479185	-0.734435
C42	C	1.327413	0.520479	-0.775438
C43	C	1.499523	0.644213	-0.603819
C44	C	1.540611	0.602924	-0.562821
C45	C	1.524332	0.520385	-0.579029
C46	C	1.466960	0.479138	-0.636230
C47	C	1.565420	0.479091	-0.538026
C48	C	1.549135	0.396555	-0.554229
C49	C	1.450676	0.396603	-0.652433
C50	C	1.668224	0.018997	-0.719588
C51	C	1.768001	0.000626	-0.741134
C52	C	1.393590	0.855934	-0.709573
C53	C	1.376260	0.768090	-0.726824
C54	C	1.467645	0.018884	-0.920128
C55	C	1.481946	0.000464	-1.027131
C56	C	1.332316	0.193036	-1.239396
C57	C	1.318869	0.210339	-1.138859
C58	C	1.359637	0.157872	-1.110922
C59	C	1.413854	0.088098	-1.183532
C60	C	1.427295	0.070790	-1.284078
C61	C	1.454617	0.035626	-1.155604
C62	C	1.508834	-0.034147	-1.228214
C63	C	1.522273	-0.051452	-1.328750
C64	C	1.481505	0.001014	-1.356687
C65	C	1.441176	0.052935	-1.055058
C66	C	1.536155	-0.069311	-1.099741
C67	C	1.549602	-0.086614	-1.200277
C68	C	1.400696	0.105096	-0.418927
C69	C	1.386525	0.123260	-0.312005
H70	H	0.925340	0.267211	-0.428687
Br71	Br	1.121759	0.264344	-0.432015
Br72	Br	1.521663	0.756215	-0.581873
Br73	Br	1.372825	0.340619	-0.730085
H74	H	1.397025	0.109741	-0.995948
Br75	Br	1.263119	0.782884	-0.839651
Br76	Br	0.968309	-0.181005	-0.953941
Br77	Br	1.110581	-0.145816	-0.912704
Br78	Br	1.224987	-0.022184	-0.767770
H79	H	0.837276	0.172056	-0.540220
Br80	Br	1.499761	-0.022461	-1.493135
Br81	Br	1.341387	0.181355	-0.974477
H82	H	1.593745	-0.143425	-1.259410
Br83	Br	1.595869	-0.146135	-1.427291
Br84	Br	1.591490	-0.140519	-1.061836
H85	H	1.587320	0.636515	-0.516241
Br86	Br	1.224759	0.588321	-0.877886
Br87	Br	1.643269	0.535075	-0.460381
Br88	Br	0.747344	-0.140284	-0.906286
H89	H	1.582592	0.362938	-0.520842
H90	H	1.274735	0.267154	-1.079747
H91	H	1.299124	0.235744	-1.262153
Br92	Br	0.755191	0.147712	-0.568773
Br93	Br	1.249562	0.464496	-0.853091
H94	H	1.464060	0.760392	-0.639241
H95	H	1.355236	0.411982	-0.747618
