data_functionalizedCrystal
_audit_creation_method	'MofGen! by Chris Wilmer'
_symmetry_space_group_name_H-M	'P1'
_symmetry_Int_Tables_number	1
_symmetry_cell_setting	triclinic
loop_
_symmetry_equiv_pos_as_xyz
  x,y,z
_cell_length_a	14.628931
_cell_length_b	23.096457
_cell_length_c	14.628931
_cell_angle_alpha	59.997897
_cell_angle_beta	60.000028
_cell_angle_gamma	60.001153
loop_
_atom_site_label
_atom_site_type_symbol
_atom_site_fract_x
_atom_site_fract_y
_atom_site_fract_z
Zr1	Zr	0.880619	0.075984	0.880612
O2	O	0.925370	0.168434	0.734643
O3	O	0.734657	0.047643	0.925359
O4	O	0.734665	0.168434	0.925348
O5	O	1.075788	-0.047639	0.734663
O6	O	0.734664	0.168434	1.075780
O7	O	0.925363	0.047643	0.734654
O8	O	0.734651	-0.047639	1.075800
O9	O	1.075802	0.168434	0.734643
O10	O	0.832179	0.035556	1.056709
O11	O	0.944440	-0.035552	0.944450
O12	O	0.944449	0.106664	0.944437
O13	O	1.056710	0.035556	0.832178
Zr14	Zr	1.120530	-0.075979	1.120548
Zr15	Zr	0.880619	0.075984	1.120534
Zr16	Zr	1.120531	-0.075980	0.880626
Zr17	Zr	1.120541	0.075984	0.880612
Zr18	Zr	0.880609	-0.075980	1.120547
O19	O	1.266493	-0.047638	1.075801
O20	O	0.925370	0.168434	1.075781
O21	O	1.266494	-0.047639	0.734663
O22	O	1.075780	-0.168429	1.266517
O23	O	0.734656	0.047643	1.266497
O24	O	1.075780	-0.168430	0.925379
O25	O	0.925362	0.047643	1.266497
O26	O	1.266485	-0.168429	1.075811
O27	O	1.266486	-0.168430	0.925380
O28	O	1.075787	-0.047638	1.266506
O29	O	1.075802	0.168434	0.925349
O30	O	0.925348	-0.168430	1.075811
O31	O	0.925348	-0.168429	1.266517
O32	O	0.734650	-0.047639	1.266505
O33	O	1.266500	0.047643	0.734654
O34	O	1.266499	0.047643	0.925360
O35	O	1.056701	-0.106659	1.056722
O36	O	0.944440	-0.035552	1.168982
O37	O	1.056710	0.035556	1.056710
O38	O	1.168971	-0.035552	0.944451
C39	C	0.700470	0.000002	1.000579
C40	C	0.598617	0.000002	1.000579
C41	C	1.000563	-0.190081	1.000597
C42	C	1.000559	-0.254594	1.000603
C43	C	0.497519	0.035276	1.056267
C44	C	0.392248	0.035277	1.056269
C45	C	1.059151	-0.322015	1.059211
C46	C	1.059163	-0.382631	1.059201
C47	C	1.000562	-0.375823	1.000597
C48	C	0.941967	-0.308389	0.941976
C49	C	0.941966	-0.247775	0.941979
N50	N	0.905196	-0.443366	1.008720
N51	N	0.905200	-0.500950	1.008723
C52	C	1.000565	-0.558448	1.000582
N53	N	1.095925	-0.556193	0.992459
N54	N	1.095919	-0.498606	0.992462
C55	C	1.000558	-0.441545	1.000586
C56	C	1.059176	-0.691599	1.059182
C57	C	1.059192	-0.752215	1.059163
C58	C	0.941985	-0.677971	0.941945
C59	C	0.941980	-0.617357	0.941957
C60	C	1.000573	-0.624176	1.000581
C61	C	1.300680	0.000003	1.000580
C62	C	1.402533	0.000003	1.000581
C63	C	1.000576	0.000002	0.700475
C64	C	1.000576	0.000002	0.598622
C65	C	1.000587	0.190086	1.000563
C66	C	1.000591	0.254598	1.000557
C67	C	0.921820	0.049887	0.553208
C68	C	0.921818	0.049888	0.447938
C69	C	1.000574	0.000003	1.300685
C70	C	1.000574	0.000003	1.402538
C71	C	0.700482	0.190085	1.000562
C72	C	0.598634	0.254598	1.000556
C73	C	0.700470	0.000002	1.300685
C74	C	0.598617	0.000002	1.402538
C75	C	1.000562	-0.190081	1.300702
C76	C	1.000558	-0.254593	1.402561
C77	C	1.000588	0.190085	0.700458
C78	C	1.000592	0.254598	0.598599
C79	C	1.300680	0.000002	0.700475
C80	C	1.402533	0.000002	0.598622
C81	C	1.300668	-0.190081	1.000598
C82	C	1.402516	-0.254594	1.000604
C83	C	0.609408	0.322018	0.941949
C84	C	0.513720	0.382640	0.941948
C85	C	0.407258	0.375841	1.000548
C86	C	0.396485	0.308414	1.059163
C87	C	0.492173	0.247793	1.059170
C88	C	0.941957	-0.247772	1.509003
C89	C	0.941957	-0.308382	1.604720
C90	C	1.000552	-0.375814	1.593991
C91	C	1.059161	-0.382634	1.487538
C92	C	1.059166	-0.322024	1.391824
C93	C	1.059205	0.247776	0.492157
C94	C	1.059234	0.308386	0.396440
C95	C	1.000644	0.375818	0.407169
C96	C	0.942029	0.382639	0.513622
C97	C	0.942007	0.322029	0.609336
C98	C	1.508960	-0.247772	0.941991
C99	C	1.604666	-0.308382	0.941974
C100	C	1.593928	-0.375814	1.000577
C101	C	1.487473	-0.382634	1.059190
C102	C	1.391769	-0.322024	1.059200
C103	C	0.497518	0.035277	1.392252
C104	C	0.392247	0.035277	1.497521
H105	H	0.488898	0.065473	1.103949
Br106	Br	1.000534	-0.458064	1.723902
Br107	Br	0.809437	0.121081	0.382842
H108	H	1.106879	-0.437536	1.106927
Br109	Br	0.277406	0.458120	1.000527
H110	H	0.483384	0.192899	1.106891
Br111	Br	1.000686	0.458069	0.277258
Br112	Br	0.862408	-0.299109	1.749177
H113	H	0.488900	0.065479	1.305513
Br114	Br	1.138730	-0.843721	1.138697
H115	H	0.607236	-0.030199	0.952906
Br116	Br	0.862466	-0.668722	0.862396
H117	H	0.305520	0.065480	1.103940
Br118	Br	0.247695	0.085608	1.483123
Br119	Br	0.862446	0.331300	0.753790
Br120	Br	1.138687	-0.331271	1.138754
Br121	Br	1.138786	0.299113	0.251983
H122	H	1.478746	-0.437545	1.106903
H123	H	0.607235	-0.030194	1.489277
H124	H	1.691337	-0.302815	0.894244
Br125	Br	0.547081	-0.050330	0.921098
Br126	Br	1.138679	-0.474154	1.472997
H127	H	1.106883	-0.327589	1.305158
Br128	Br	1.247313	-0.331296	1.138758
Br129	Br	0.809424	0.121070	0.618296
Br130	Br	0.528366	0.474138	0.862391
Br131	Br	1.112974	-0.071183	0.467612
H132	H	0.489256	-0.030203	1.607259
H133	H	0.894256	-0.302849	0.894258
H134	H	1.106911	0.192875	0.483400
Br135	Br	0.862443	-0.156268	0.862431
Br136	Br	0.862432	-0.156265	1.523594
H137	H	0.894326	0.437549	0.522344
H138	H	1.517725	-0.192871	0.894269
H139	H	0.696086	0.327567	0.894223
Br140	Br	1.138689	-0.700848	1.138745
H141	H	1.671865	-0.425161	1.000559
H142	H	0.894263	-0.562458	0.894236
H143	H	1.067998	-0.042709	0.559572
H144	H	0.309791	0.302889	1.106875
