data_functionalizedCrystal
_audit_creation_method	'MofGen! by Chris Wilmer'
_symmetry_space_group_name_H-M	'P1'
_symmetry_Int_Tables_number	1
_symmetry_cell_setting	triclinic
loop_
_symmetry_equiv_pos_as_xyz
  x,y,z
_cell_length_a	10.723022
_cell_length_b	14.519731
_cell_length_c	9.198806
_cell_angle_alpha	89.995832
_cell_angle_beta	89.996352
_cell_angle_gamma	84.078040
loop_
_atom_site_label
_atom_site_type_symbol
_atom_site_fract_x
_atom_site_fract_y
_atom_site_fract_z
O1	O	1.655993	0.129339	-0.120887
O2	O	2.155993	0.629339	0.379113
O3	O	1.292726	0.141722	-0.120892
O4	O	1.792726	0.641722	0.379108
O5	O	1.483977	0.001342	-0.120876
O6	O	1.983977	0.501342	0.379124
O7	O	1.464742	0.269719	-0.120903
O8	O	1.964742	0.769719	0.379097
O9	O	1.483962	0.001342	0.120909
O10	O	1.983962	0.501342	0.620909
O11	O	1.292710	0.141721	0.120893
O12	O	1.792710	0.641721	0.620893
O13	O	1.655978	0.129339	0.120898
O14	O	2.155978	0.629339	0.620898
Cu15	Cu	1.474343	0.135530	0.142973
Cu16	Cu	1.974343	0.635530	0.642973
Cu17	Cu	1.474361	0.135531	-0.142966
Cu18	Cu	1.974361	0.635531	0.357034
O19	O	1.464726	0.269718	0.120882
O20	O	1.964726	0.769718	0.620882
C21	C	1.246227	0.140821	0.000000
C22	C	1.746227	0.640821	0.500000
C23	C	1.107697	0.138126	-0.000002
C24	C	1.607697	0.638126	0.499998
C25	C	1.059885	0.057174	0.000006
C26	C	1.559885	0.557174	0.500006
C27	C	0.916708	0.054386	0.000004
C28	C	1.416708	0.554386	0.500004
C29	C	1.483068	-0.033022	0.000017
C30	C	1.983068	0.466978	0.500017
C31	C	1.480367	-0.135416	0.000018
C32	C	1.980367	0.364584	0.500018
C33	C	1.478173	-0.218571	0.000014
C34	C	1.978173	0.281429	0.500014
C35	C	1.475431	-0.322894	0.000003
C36	C	1.975431	0.177106	0.500003
C37	C	1.473254	-0.406044	-0.000006
C38	C	1.973254	0.093956	0.499994
C39	C	1.470512	-0.510373	-0.000015
C40	C	1.970512	-0.010373	0.499985
C41	C	1.702477	0.130240	0.000003
C42	C	2.202477	0.630240	0.500003
C43	C	1.841006	0.132935	-0.000005
C44	C	2.341006	0.632935	0.499995
C45	C	1.465635	0.304082	-0.000014
C46	C	1.965635	0.804082	0.499986
C47	C	1.468336	0.406476	-0.000024
C48	C	1.968336	0.906476	0.499976
N49	N	1.474339	0.135529	0.344087
N50	N	1.974339	0.635529	0.844087
N51	N	1.474374	0.135524	-0.344080
N52	N	1.974374	0.635524	0.155920
C53	C	1.554642	0.076328	0.416290
C54	C	2.054642	0.576328	0.916290
C55	C	1.554662	0.076325	0.583703
C56	C	2.054662	0.576325	1.083703
H57	H	1.124949	-0.010068	0.000006
H58	H	1.624949	0.489932	0.500006
H59	H	1.405598	0.186208	0.406209
H60	H	1.905598	0.686208	0.906209
O61	O	1.392471	0.196125	0.581931
O62	O	1.892471	0.696125	1.081931
C63	C	1.413267	0.287508	0.619037
C64	C	1.913267	0.787508	1.119037
H65	H	1.513171	0.288451	0.660951
H66	H	2.013171	0.788451	1.160951
H67	H	1.399261	0.333655	0.518874
H68	H	1.899261	0.833655	1.018874
H69	H	1.344186	0.314314	0.707287
H70	H	1.844186	0.814314	1.207287
O71	O	1.636856	0.015944	0.657700
O72	O	2.136856	0.515944	1.157700
C73	C	1.760532	0.031468	0.620555
C74	C	2.260532	0.531468	1.120555
H75	H	1.761625	0.105263	0.578615
H76	H	2.261625	0.605263	1.078615
H77	H	1.823039	0.021210	0.720704
H78	H	2.323039	0.521210	1.220704
H79	H	1.796940	-0.019514	0.532313
H80	H	2.296940	0.480486	1.032313
H81	H	0.875537	-0.014924	-0.000026
H82	H	1.375537	0.485076	0.499974
H83	H	0.882168	0.202249	-0.000003
H84	H	1.382168	0.702249	0.499997
O85	O	1.030214	0.218412	0.000181
O86	O	1.530214	0.718412	0.500181
C87	C	1.052962	0.270103	0.125418
C88	C	1.552962	0.770103	0.625418
H89	H	1.151663	0.248173	0.167173
H90	H	1.651663	0.748173	0.667173
H91	H	1.043855	0.346964	0.097246
H92	H	1.543855	0.846964	0.597246
H93	H	0.981765	0.256974	0.213101
H94	H	1.481765	0.756974	0.713101
O95	O	1.636503	0.015858	0.342000
O96	O	2.136503	0.515858	0.842000
C97	C	1.569276	-0.041300	0.253960
C98	C	2.069276	0.458700	0.753960
H99	H	1.471782	-0.005057	0.231357
H100	H	1.971782	0.494943	0.731357
H101	H	1.621186	-0.055517	0.146843
H102	H	2.121186	0.444483	0.646843
H103	H	1.560498	-0.109544	0.312485
H104	H	2.060498	0.390456	0.812485
