data_functionalizedCrystal
_audit_creation_method	'MofGen! by Chris Wilmer'
_symmetry_space_group_name_H-M	'P1'
_symmetry_Int_Tables_number	1
_symmetry_cell_setting	triclinic
loop_
_symmetry_equiv_pos_as_xyz
  x,y,z
_cell_length_a	14.908941
_cell_length_b	14.908977
_cell_length_c	14.909241
_cell_angle_alpha	96.802072
_cell_angle_beta	89.833618
_cell_angle_gamma	90.214478
loop_
_atom_site_label
_atom_site_type_symbol
_atom_site_fract_x
_atom_site_fract_y
_atom_site_fract_z
Zn1	Zn	-1.417675	0.253425	-0.413827
Zn2	Zn	-1.084342	0.586758	-0.080493
Zn3	Zn	-0.751008	0.920091	0.252840
Zn4	Zn	-1.417564	0.413544	-0.253738
Zn5	Zn	-1.084230	0.746878	0.079596
Zn6	Zn	-0.750897	1.080211	0.412929
Zn7	Zn	-1.259578	0.270824	-0.271084
Zn8	Zn	-0.926245	0.604158	0.062250
Zn9	Zn	-0.592912	0.937491	0.395583
Zn10	Zn	-1.275892	0.412484	-0.412774
Zn11	Zn	-0.942559	0.745817	-0.079440
Zn12	Zn	-0.609225	1.079150	0.253893
O13	O	-1.342677	0.337569	-0.337855
O14	O	-1.009344	0.670903	-0.004522
O15	O	-0.676011	1.004236	0.328811
O16	O	-1.543114	0.267827	-0.385772
O17	O	-1.209781	0.601160	-0.052438
O18	O	-0.876448	0.934494	0.280895
O19	O	-1.389733	0.402338	-0.129743
O20	O	-1.056399	0.735671	0.203590
O21	O	-0.723066	1.069005	0.536924
O22	O	-1.273770	0.142221	-0.297719
O23	O	-0.940436	0.475554	0.035614
O24	O	-0.607103	0.808887	0.368948
O25	O	-1.543032	0.385466	-0.268155
O26	O	-1.209699	0.718800	0.065178
O27	O	-0.876366	1.052133	0.398512
O28	O	-1.389922	0.129437	-0.402592
O29	O	-1.056589	0.462771	-0.069258
O30	O	-0.723256	0.796104	0.264075
O31	O	-1.273662	0.297482	-0.142487
O32	O	-0.940328	0.630816	0.190846
O33	O	-0.606995	0.964149	0.524179
O34	O	-1.136288	0.296454	-0.296698
O35	O	-0.802955	0.629787	0.036635
O36	O	-0.469622	0.963120	0.369969
O37	O	-1.301574	0.383658	-0.539209
O38	O	-0.968240	0.716992	-0.205875
O39	O	-0.634907	1.050325	0.127458
O40	O	-1.148274	0.400530	-0.400797
O41	O	-0.814940	0.733863	-0.067463
O42	O	-0.481607	1.067197	0.265870
O43	O	-1.405741	0.266799	-0.539982
O44	O	-1.072408	0.600132	-0.206649
O45	O	-0.739074	0.933465	0.126684
O46	O	-1.405551	0.539699	-0.267134
O47	O	-1.072218	0.873032	0.066199
O48	O	-0.738884	1.206366	0.399533
O49	O	-1.301466	0.538920	-0.383977
O50	O	-0.968132	0.872253	-0.050644
O51	O	-0.634799	1.205586	0.282690
C52	C	-1.109752	0.350266	-0.350516
C53	C	-0.776419	0.683599	-0.017183
C54	C	-0.443086	1.016932	0.316151
C55	C	-1.010108	0.355717	-0.355952
C56	C	-0.676775	0.689051	-0.022619
C57	C	-0.343442	1.022384	0.310715
C58	C	-0.810334	0.257404	-0.257941
C59	C	-0.477000	0.590737	0.075392
C60	C	-0.143667	0.924071	0.408726
C61	C	-0.716709	0.262524	-0.263046
C62	C	-0.383376	0.595857	0.070287
C63	C	-0.050042	0.929190	0.403620
C64	C	-0.729232	0.371081	-0.371262
C65	C	-0.395899	0.704414	-0.037929
C66	C	-0.062566	1.037748	0.295405
C67	C	-0.822857	0.365961	-0.366157
C68	C	-0.489524	0.699295	-0.032824
C69	C	-0.156190	1.032628	0.300510
C70	C	-0.863404	0.309120	-0.309496
C71	C	-0.530071	0.642453	0.023838
C72	C	-0.196738	0.975786	0.357171
C73	C	-0.957031	0.303996	-0.304396
C74	C	-0.623697	0.637329	0.028937
C75	C	-0.290364	0.970662	0.362271
C76	C	-0.969552	0.412557	-0.412606
C77	C	-0.636219	0.745891	-0.079273
C78	C	-0.302886	1.079224	0.254060
C79	C	-0.875927	0.417677	-0.417711
C80	C	-0.542594	0.751010	-0.084378
C81	C	-0.209261	1.084344	0.248955
C82	C	-0.576511	0.324816	-0.325140
C83	C	-0.243178	0.658149	0.008193
C84	C	0.090156	0.991482	0.341527
C85	C	-0.676155	0.319359	-0.319706
C86	C	-0.342821	0.652693	0.013628
C87	C	-0.009488	0.986026	0.346961
C88	C	-1.355292	0.572054	-0.323577
C89	C	-1.021959	0.905387	0.009756
C90	C	-0.688625	1.238721	0.343089
C91	C	-1.360772	0.672361	-0.317495
C92	C	-1.027439	1.005694	0.015839
C93	C	-0.694105	1.339028	0.349172
C94	C	-1.355489	0.323169	-0.573258
C95	C	-1.022156	0.656503	-0.239925
C96	C	-0.688823	0.989836	0.093408
C97	C	-1.360949	0.317033	-0.673573
C98	C	-1.027616	0.650366	-0.340240
C99	C	-0.694283	0.983699	-0.006906
C100	C	-1.262570	0.860114	-0.427639
C101	C	-0.929237	1.193448	-0.094306
C102	C	-0.595903	1.526781	0.239027
C103	C	-1.267717	0.954362	-0.421928
C104	C	-0.934383	1.287695	-0.088594
C105	C	-0.601050	1.621028	0.244739
C106	C	-1.376206	0.955106	-0.300355
C107	C	-1.042873	1.288439	0.032978
C108	C	-0.709540	1.621773	0.366311
C109	C	-1.371060	0.860858	-0.306067
C110	C	-1.037727	1.194192	0.027266
C111	C	-0.704393	1.527525	0.360599
C112	C	-1.314241	0.813366	-0.369712
C113	C	-0.980907	1.146699	-0.036379
C114	C	-0.647574	1.480032	0.296954
C115	C	-1.309100	0.719116	-0.375428
C116	C	-0.975766	1.052449	-0.042095
C117	C	-0.642433	1.385783	0.291239
C118	C	-1.417584	0.719862	-0.253852
C119	C	-1.084251	1.053196	0.079481
C120	C	-0.750917	1.386529	0.412815
C121	C	-1.422731	0.814110	-0.248140
C122	C	-1.089397	1.147443	0.085193
C123	C	-0.756064	1.480777	0.418527
C124	C	-1.330009	1.102169	-0.352199
C125	C	-0.996675	1.435502	-0.018866
C126	C	-0.663342	1.768835	0.314468
C127	C	-1.324534	1.001861	-0.358289
C128	C	-0.991201	1.335194	-0.024955
C129	C	-0.657867	1.668527	0.308378
C130	C	-1.262743	0.427209	-0.861269
C131	C	-0.929409	0.760542	-0.527936
C132	C	-0.596076	1.093875	-0.194603
C133	C	-1.267870	0.421446	-0.955524
C134	C	-0.934536	0.754779	-0.622191
C135	C	-0.601203	1.088113	-0.288857
C136	C	-1.376335	0.299750	-0.956338
C137	C	-1.043002	0.633083	-0.623004
C138	C	-0.709668	0.966417	-0.289671
C139	C	-1.371208	0.305513	-0.862083
C140	C	-1.037874	0.638846	-0.528750
C141	C	-0.704541	0.972179	-0.195416
C142	C	-1.314409	0.369243	-0.814552
C143	C	-0.981075	0.702576	-0.481219
C144	C	-0.647742	1.035910	-0.147886
C145	C	-1.309277	0.375001	-0.720297
C146	C	-0.975944	0.708334	-0.386963
C147	C	-0.642611	1.041667	-0.053630
C148	C	-1.417747	0.253310	-0.721112
C149	C	-1.084413	0.586643	-0.387778
C150	C	-0.751080	0.919976	-0.054445
C151	C	-1.422874	0.247547	-0.815366
C152	C	-1.089541	0.580880	-0.482033
C153	C	-0.756207	0.914214	-0.148699
C154	C	-1.329963	0.351845	-0.103370
C155	C	-0.996630	0.685179	0.229964
C156	C	-0.663296	1.018512	0.563297
C157	C	-1.324663	0.357718	-0.003061
C158	C	-0.991330	0.691051	0.330272
C159	C	-0.657996	1.024385	0.663605
H160	H	-0.843348	0.211110	-0.211817
H161	H	-0.510014	0.544443	0.121516
H162	H	-0.176681	0.877776	0.454850
H163	H	-1.225799	0.468648	-0.993557
H164	H	-0.892466	0.801982	-0.660224
H165	H	-0.559132	1.135315	-0.326891
H166	H	-1.422585	0.247871	-0.995053
H167	H	-1.089252	0.581204	-0.661719
H168	H	-0.755919	0.914537	-0.328386
H169	H	-1.422457	0.993792	-0.248531
H170	H	-1.089124	1.327125	0.084803
H171	H	-0.755790	1.660458	0.418136
H172	H	-1.468988	0.852792	-0.196320
H173	H	-1.135655	1.186125	0.137014
H174	H	-0.802322	1.519458	0.470347
H175	H	-1.459661	0.681789	-0.206686
H176	H	-1.126327	1.015122	0.126647
H177	H	-0.792994	1.348456	0.459981
H178	H	-1.469121	0.195662	-0.854078
H179	H	-1.135787	0.528995	-0.520745
H180	H	-0.802454	0.862329	-0.187412
H181	H	-1.216312	0.821444	-0.479468
H182	H	-0.882979	1.154778	-0.146134
H183	H	-0.549646	1.488111	0.187199
H184	H	-1.459812	0.206106	-0.683065
H185	H	-1.126479	0.539439	-0.349732
H186	H	-0.793146	0.872772	-0.016398
H187	H	-0.673502	0.220410	-0.221066
H188	H	-0.340169	0.553744	0.112267
H189	H	-0.006835	0.887077	0.445600
H190	H	-1.262837	0.680448	-0.427253
H191	H	-0.929504	1.013781	-0.093920
H192	H	-0.596171	1.347115	0.239414
H193	H	-1.263019	0.426885	-0.681600
H194	H	-0.929686	0.760218	-0.348266
H195	H	-0.596352	1.093551	-0.014933
H196	H	-0.990043	0.257707	-0.258265
H197	H	-0.656709	0.591040	0.075068
H198	H	-0.323376	0.924373	0.408402
H199	H	-1.225643	0.992420	-0.469100
H200	H	-0.892310	1.325754	-0.135767
H201	H	-0.558977	1.659087	0.197567
H202	H	-0.842901	0.463958	-0.463840
H203	H	-0.509568	0.797292	-0.130507
H204	H	-0.176234	1.130625	0.202826
H205	H	-0.696202	0.417367	-0.417384
H206	H	-0.362869	0.750701	-0.084051
H207	H	-0.029535	1.084034	0.249283
H208	H	-1.012773	0.454663	-0.454591
H209	H	-0.679439	0.787996	-0.121258
H210	H	-0.346106	1.121330	0.212076
H211	H	-1.216477	0.479085	-0.822571
H212	H	-0.883144	0.812418	-0.489238
H213	H	-0.549811	1.145751	-0.155904
