data_functionalizedCrystal
_audit_creation_method	'MofGen! by Chris Wilmer'
_symmetry_space_group_name_H-M	'P1'
_symmetry_Int_Tables_number	1
_symmetry_cell_setting	triclinic
loop_
_symmetry_equiv_pos_as_xyz
  x,y,z
_cell_length_a	10.723024
_cell_length_b	10.654541
_cell_length_c	9.198806
_cell_angle_alpha	89.997047
_cell_angle_beta	89.996352
_cell_angle_gamma	84.475899
loop_
_atom_site_label
_atom_site_type_symbol
_atom_site_fract_x
_atom_site_fract_y
_atom_site_fract_z
O1	O	1.657212	0.176147	-0.120882
O2	O	1.294062	0.193008	-0.120887
O3	O	1.483989	0.001837	-0.120876
O4	O	1.467286	0.367318	-0.120894
O5	O	1.483973	0.001836	0.120909
O6	O	1.294047	0.193007	0.120898
O7	O	1.657197	0.176147	0.120903
Cu8	Cu	1.475621	0.184577	0.142977
Cu9	Cu	1.475639	0.184578	-0.142962
O10	O	1.467271	0.367318	0.120891
C11	C	1.247555	0.191781	0.000005
C12	C	1.109000	0.188109	0.000003
C13	C	1.034033	0.295079	-0.000003
C14	C	0.890829	0.291287	-0.000005
C15	C	1.482755	-0.044961	0.000016
C16	C	1.479088	-0.184404	0.000013
C17	C	1.706196	-0.212409	0.000035
C18	C	1.818022	-0.291921	0.000048
C19	C	1.814569	-0.422938	0.000044
C20	C	1.699277	-0.474446	0.000021
C21	C	1.587451	-0.394935	0.000008
C22	C	1.590917	-0.263916	0.000017
C23	C	1.360346	-0.366930	-0.000024
C24	C	1.363796	-0.235912	-0.000009
C25	C	1.245054	-0.418438	-0.000047
C26	C	1.133225	-0.338927	-0.000050
C27	C	1.136683	-0.207902	-0.000044
C28	C	1.251970	-0.156401	-0.000023
C29	C	1.703705	0.177374	0.000008
C30	C	1.842259	0.181045	-0.000000
C31	C	1.468504	0.414116	-0.000004
C32	C	1.472172	0.553559	-0.000011
N33	N	1.475617	0.184576	0.344091
N34	N	1.475652	0.184569	-0.344076
C35	C	1.555362	0.103955	0.416293
C36	C	1.555381	0.103950	0.583705
H37	H	0.906672	0.089466	-0.000004
O38	O	1.059045	0.075531	-0.000251
C39	C	0.927933	-0.060794	-0.125466
C40	C	0.984442	0.066735	-0.125375
H41	H	0.867583	-0.067936	-0.226602
H42	H	1.006600	-0.140796	-0.125557
H43	H	0.867709	-0.068027	-0.024233
H44	H	1.044653	0.074091	-0.226590
H45	H	0.905715	0.146675	-0.125208
O46	O	1.636777	0.021427	0.657610
C47	C	1.707338	-0.196391	0.704530
C48	C	1.615106	-0.103069	0.620713
H49	H	1.689832	-0.297066	0.674754
H50	H	1.807549	-0.179527	0.674641
H51	H	1.692858	-0.181657	0.826343
H52	H	1.629473	-0.117747	0.498882
H53	H	1.514928	-0.119956	0.650724
H54	H	1.709019	-0.105730	0.000058
H55	H	1.911891	-0.249968	0.000080
H56	H	0.826409	0.382861	-0.000016
O57	O	1.636993	0.021663	0.342383
C58	C	1.853179	-0.050400	0.295513
C59	C	1.760852	0.042849	0.379305
H60	H	1.953339	-0.033286	0.325310
H61	H	1.835913	-0.151119	0.325406
H62	H	1.838625	-0.035769	0.173696
H63	H	1.775352	0.028333	0.501140
H64	H	1.778140	0.143535	0.349291
H65	H	1.407380	0.253600	0.593843
H66	H	1.905628	-0.487677	0.000044
O67	O	1.394128	0.266747	0.418353
C68	C	1.224070	0.292234	0.590348
C69	C	1.316307	0.199036	0.506368
H70	H	1.161111	0.237527	0.661504
H71	H	1.278673	0.355222	0.661695
H72	H	1.164082	0.352963	0.509922
H73	H	1.376318	0.138224	0.586688
H74	H	1.261628	0.136135	0.434999
H75	H	1.075868	0.389466	0.000000
H76	H	1.242250	-0.525120	-0.000060
H77	H	1.696475	-0.581129	-0.000000
H78	H	1.039364	-0.380876	-0.000078
H79	H	1.045620	-0.143170	-0.000061
H80	H	1.254797	-0.049722	-0.000009
