data_functionalizedCrystal
_audit_creation_method	'MofGen! by Chris Wilmer'
_symmetry_space_group_name_H-M	'P1'
_symmetry_Int_Tables_number	1
_symmetry_cell_setting	triclinic
loop_
_symmetry_equiv_pos_as_xyz
  x,y,z
_cell_length_a	10.654550
_cell_length_b	10.489741
_cell_length_c	9.730223
_cell_angle_alpha	89.998920
_cell_angle_beta	89.996251
_cell_angle_gamma	84.512038
loop_
_atom_site_label
_atom_site_type_symbol
_atom_site_fract_x
_atom_site_fract_y
_atom_site_fract_z
O1	O	1.667918	0.179156	-0.114402
O2	O	1.302447	0.196226	-0.114380
O3	O	1.493499	0.002089	-0.114383
O4	O	1.476867	0.373293	-0.114399
O5	O	1.493497	0.002094	0.114196
O6	O	1.302445	0.196231	0.114200
O7	O	1.667916	0.179161	0.114178
Zn8	Zn	1.485180	0.187697	0.150481
Zn9	Zn	1.485183	0.187690	-0.150683
O10	O	1.476864	0.373298	0.114181
C11	C	1.255648	0.194975	-0.000087
C12	C	1.116203	0.191225	-0.000079
C13	C	1.492241	-0.045439	-0.000094
C14	C	1.488483	-0.187067	-0.000096
C15	C	1.036771	0.305530	-0.000103
C16	C	0.905748	0.301999	-0.000127
C17	C	0.933603	0.069849	-0.000107
C18	C	1.064623	0.073381	-0.000073
C19	C	1.020688	0.439560	-0.000121
C20	C	0.889665	0.436029	-0.000145
C21	C	1.366923	-0.255148	-0.000099
C22	C	1.424346	-0.347296	0.112599
C23	C	1.424377	-0.347276	-0.112763
C24	C	1.545956	-0.277350	0.112695
C25	C	1.545970	-0.277319	-0.112768
C26	C	1.603481	-0.369440	-0.000043
C27	C	1.714715	0.180412	-0.000118
C28	C	1.854160	0.184162	-0.000136
C29	C	1.478122	0.420826	-0.000111
C30	C	1.481880	0.562454	-0.000118
N31	N	1.485187	0.187700	0.356017
N32	N	1.485186	0.187677	-0.356220
C33	C	1.569807	0.101766	0.427942
C34	C	1.569803	0.101751	0.571825
C35	C	1.400557	0.273615	0.571846
C36	C	1.400555	0.273623	0.427966
C37	C	1.667524	0.002545	0.427931
C38	C	1.667520	0.002530	0.571814
H39	H	0.891590	-0.026096	-0.000124
H40	H	0.847957	0.486527	-0.095814
N41	N	1.234536	-0.189314	0.000041
H42	H	1.188784	-0.214585	0.085259
H43	H	1.238113	-0.093453	-0.000882
H44	H	1.703518	-0.418912	0.000014
N45	N	1.059584	0.508983	0.126597
H46	H	1.154102	0.511561	0.126668
H47	H	1.017080	0.599270	0.126562
N48	N	1.614049	-0.236211	-0.238978
H49	H	1.702901	-0.279479	-0.239887
H50	H	1.567960	-0.261367	-0.324000
N51	N	1.614034	-0.236556	0.239042
H52	H	1.616121	-0.140500	0.238292
H53	H	1.568421	-0.262685	0.323995
H54	H	1.372927	-0.378217	-0.208049
N55	N	1.067962	0.496078	-0.130842
H56	H	0.994436	0.520791	-0.194026
H57	H	1.111947	0.574532	-0.108016
H58	H	1.372910	-0.378281	0.207883
H59	H	1.646035	-0.095499	0.388882
H60	H	0.844012	0.476536	0.098538
N61	N	1.795361	0.031490	0.623551
H62	H	1.833366	-0.042436	0.681216
H63	H	1.852317	0.044457	0.542788
N64	N	1.788320	0.043688	0.368786
H65	H	1.800107	0.133349	0.400814
H66	H	1.861805	-0.016993	0.400819
H67	H	1.331641	0.343587	0.369406
N68	N	1.309276	0.366282	0.649447
H69	H	1.322112	0.353235	0.751510
H70	H	1.324591	0.456916	0.624306
N71	N	1.627087	-0.120206	0.630937
H72	H	1.607549	-0.179498	0.553678
H73	H	1.697342	-0.162892	0.689371
H74	H	1.129293	-0.019697	-0.000034
