data_functionalizedCrystal
_audit_creation_method	'MofGen! by Chris Wilmer'
_symmetry_space_group_name_H-M	'P1'
_symmetry_Int_Tables_number	1
_symmetry_cell_setting	triclinic
loop_
_symmetry_equiv_pos_as_xyz
  x,y,z
_cell_length_a	13.032831
_cell_length_b	13.897447
_cell_length_c	13.032268
_cell_angle_alpha	82.850929
_cell_angle_beta	89.113023
_cell_angle_gamma	82.824382
loop_
_atom_site_label
_atom_site_type_symbol
_atom_site_fract_x
_atom_site_fract_y
_atom_site_fract_z
Zn1	Zn	1.498459	-0.651421	0.780831
Zn2	Zn	1.520196	-0.795136	0.608850
Zn3	Zn	1.348318	-0.611126	0.587072
Zn4	Zn	1.326445	-0.789920	0.758975
O5	O	1.423354	-0.711901	0.683932
O6	O	1.645262	-0.689531	0.776278
O7	O	1.515648	-0.756045	0.462045
O8	O	1.368292	-0.481500	0.612807
O9	O	1.661233	-0.795118	0.649925
O10	O	1.478599	-0.511105	0.755161
O11	O	1.389370	-0.620854	0.446044
O12	O	1.201497	-0.615797	0.591615
O13	O	1.331011	-0.786229	0.905791
O14	O	1.185426	-0.747157	0.717911
O15	O	1.457389	-0.684474	0.921848
O16	O	1.494438	-0.929415	0.628732
O17	O	1.352089	-0.925583	0.739028
C18	C	1.156144	-0.676539	0.650029
C19	C	1.041828	-0.661437	0.635549
C20	C	0.982950	-0.719783	0.691489
C21	C	0.864797	-0.704175	0.676525
C22	C	1.423274	-0.962502	0.683898
C23	C	1.423329	-1.069726	0.683929
C24	C	1.423376	-1.156804	0.683959
C25	C	1.423445	-1.266049	0.683995
C26	C	1.691608	-0.747401	0.717969
C27	C	1.805921	-0.762529	0.732473
C28	C	1.389335	-0.739265	0.952179
C29	C	1.374838	-0.750926	1.066490
C30	C	1.423460	-0.460327	0.683993
C31	C	1.423506	-0.353122	0.684019
C32	C	1.457300	-0.684581	0.416736
C33	C	1.471996	-0.672675	0.302451
C34	C	1.430904	-0.705778	1.125398
C35	C	1.415923	-0.717829	1.243545
H36	H	1.020014	-0.781286	0.750463
H37	H	1.004763	-0.599927	0.576583
O38	O	1.542621	-0.615989	1.258408
C39	C	1.641831	-0.653289	1.297551
H40	H	1.634139	-0.698548	1.375842
H41	H	1.687525	-0.590138	1.306973
H42	H	1.684055	-0.701340	1.241492
H43	H	1.489992	-0.658200	1.088364
H44	H	1.315740	-0.798492	1.103523
O45	O	1.345485	-0.774721	1.287602
C46	C	1.371234	-0.871179	1.264277
H47	H	1.420594	-0.870508	1.191268
H48	H	1.297442	-0.904246	1.251282
H49	H	1.416487	-0.916782	1.331419
O50	O	0.820433	-0.630874	0.606169
C51	C	0.712341	-0.631605	0.606895
H52	H	0.693511	-0.707601	0.638624
H53	H	0.681194	-0.611745	0.524725
H54	H	0.674910	-0.576061	0.657921
H55	H	0.842979	-0.824035	0.791454
