data_functionalizedCrystal
_audit_creation_method	'MofGen! by Chris Wilmer'
_symmetry_space_group_name_H-M	'P1'
_symmetry_Int_Tables_number	1
_symmetry_cell_setting	triclinic
loop_
_symmetry_equiv_pos_as_xyz
  x,y,z
_cell_length_a	10.654550
_cell_length_b	23.532407
_cell_length_c	9.730223
_cell_angle_alpha	89.994043
_cell_angle_beta	89.996251
_cell_angle_gamma	83.666790
loop_
_atom_site_label
_atom_site_type_symbol
_atom_site_fract_x
_atom_site_fract_y
_atom_site_fract_z
O1	O	1.665300	0.079982	-0.114418
O2	O	1.299580	0.087603	-0.114398
O3	O	1.493468	0.000933	-0.114384
O4	O	1.471412	0.166652	-0.114433
O5	O	1.493466	0.000935	0.114196
O6	O	1.299578	0.087605	0.114182
O7	O	1.665298	0.079985	0.114161
Zn8	Zn	1.482437	0.083795	0.150464
Zn9	Zn	1.482440	0.083792	-0.150700
O10	O	1.471409	0.166655	0.114147
C11	C	1.252799	0.087044	-0.000105
C12	C	1.113408	0.085370	-0.000096
C13	C	1.032306	0.136400	-0.000131
C14	C	0.901335	0.134824	-0.000154
C15	C	0.932582	0.031183	-0.000113
C16	C	1.063550	0.032760	-0.000080
C17	C	1.014265	0.196236	-0.000161
C18	C	0.883294	0.194660	-0.000184
C19	C	1.492905	-0.020286	-0.000090
C20	C	1.491217	-0.083514	-0.000079
C21	C	1.595364	-0.481938	-0.000161
C22	C	1.593795	-0.541349	-0.000171
O23	O	1.690341	-0.577464	-0.000227
N24	N	1.478529	-0.564726	-0.000164
C25	C	1.364824	-0.528689	-0.000160
O26	O	1.266636	-0.554029	-0.000156
C27	C	1.366394	-0.469280	-0.000159
C28	C	1.481668	-0.445906	-0.000153
C29	C	1.710629	-0.458564	-0.000156
C30	C	1.712197	-0.399158	-0.000143
C31	C	1.598500	-0.363126	-0.000135
C32	C	1.483236	-0.386500	-0.000140
C33	C	1.252690	-0.433244	-0.000165
C34	C	1.254270	-0.373832	-0.000166
C35	C	1.369544	-0.350458	-0.000159
C36	C	1.371107	-0.291061	-0.000119
N37	N	1.486374	-0.267684	-0.000126
C38	C	1.600070	-0.303716	-0.000134
C39	C	1.361535	-0.653453	-0.000163
C40	C	1.359964	-0.712861	-0.000154
C41	C	1.588936	-0.725517	-0.000168
C42	C	1.590506	-0.666108	-0.000167
C43	C	1.476802	-0.630076	-0.000171
C44	C	1.603355	-0.178958	-0.000106
C45	C	1.604913	-0.119546	-0.000087
C46	C	1.375942	-0.106896	-0.000081
C47	C	1.374383	-0.166303	-0.000092
C48	C	1.488100	-0.202333	-0.000109
O49	O	1.274613	-0.254911	-0.000068
O50	O	1.698241	-0.278369	-0.000157
C51	C	1.712079	0.080543	-0.000135
C52	C	1.851469	0.082217	-0.000152
C53	C	1.471972	0.187873	-0.000149
C54	C	1.473661	0.251101	-0.000169
N55	N	1.482444	0.083797	0.356000
N56	N	1.482443	0.083786	-0.356237
C57	C	1.568320	0.045432	0.427932
C58	C	1.568317	0.045425	0.571815
C59	C	1.396559	0.122152	0.571821
C60	C	1.396557	0.122156	0.427941
C61	C	1.667486	0.001136	0.427930
C62	C	1.667483	0.001129	0.571813
H63	H	0.837048	0.212744	0.098495
N64	N	1.134937	-0.457109	-0.000159
N65	N	1.058446	-0.446235	0.096187
H66	H	0.975275	-0.463088	0.096189
N67	N	1.788172	0.013365	0.620782
N68	N	1.873201	0.021996	0.537290
H69	H	1.958436	0.030637	0.571872
N70	N	1.308810	0.161339	0.354484
N71	N	1.232132	0.195582	0.418737
H72	H	1.170153	0.223256	0.366860
H73	H	1.638281	-0.040234	0.616443
H74	H	1.806065	-0.380133	-0.000143
N75	N	1.058197	0.220184	-0.123932
N76	N	1.114253	0.264084	-0.118943
H77	H	1.145263	0.281009	-0.206351
N78	N	1.050166	0.225586	0.119838
N79	N	1.163660	0.231847	0.140174
H80	H	1.189018	0.252573	0.224923
H81	H	1.803219	-0.487896	-0.000167
H82	H	1.129581	-0.008793	-0.000032
N83	N	0.881651	-0.022554	-0.000075
N84	N	0.812038	-0.034994	0.096274
H85	H	0.776070	-0.072947	0.096303
N86	N	1.256651	-0.190195	-0.000071
N87	N	1.230238	-0.221946	0.096269
H88	H	1.147090	-0.238818	0.096276
N89	N	0.830059	0.222927	-0.120229
N90	N	0.899957	0.244131	-0.204791
H91	H	0.862364	0.264087	-0.289579
N92	N	1.722669	-0.095672	-0.000113
N93	N	1.749093	-0.063928	-0.096464
H94	H	1.832255	-0.047068	-0.096486
N95	N	1.705067	-0.762338	-0.000168
N96	N	1.703635	-0.815379	-0.000170
H97	H	1.785646	-0.841386	-0.000167
N98	N	1.708265	-0.642244	-0.000154
N99	N	1.809765	-0.674429	-0.000151
H100	H	1.892939	-0.657579	-0.000142
H101	H	1.695954	-0.208288	-0.000125
N102	N	1.138108	-0.337035	-0.000186
N103	N	1.035204	-0.357918	-0.000199
H104	H	0.953163	-0.331932	-0.000214
H105	H	1.266096	-0.731887	-0.000135
H106	H	1.268937	-0.624119	-0.000154
H107	H	1.326631	0.153383	0.630410
N108	N	1.259812	-0.070082	-0.000114
N109	N	1.183001	-0.072470	-0.096484
H110	H	1.100984	-0.046468	-0.096522
N111	N	1.642283	-0.053768	0.378965
N112	N	1.624519	-0.092454	0.462458
H113	H	1.606702	-0.131227	0.427878
N114	N	1.781329	0.018541	0.371962
N115	N	1.885209	-0.009272	0.398931
H116	H	1.965609	0.003026	0.359410
