data_functionalizedCrystal
_audit_creation_method	'MofGen! by Chris Wilmer'
_symmetry_space_group_name_H-M	'P1'
_symmetry_Int_Tables_number	1
_symmetry_cell_setting	triclinic
loop_
_symmetry_equiv_pos_as_xyz
  x,y,z
_cell_length_a	23.532407
_cell_length_b	10.723024
_cell_length_c	9.798715
_cell_angle_alpha	90.003391
_cell_angle_beta	89.992208
_cell_angle_gamma	96.341727
loop_
_atom_site_label
_atom_site_type_symbol
_atom_site_fract_x
_atom_site_fract_y
_atom_site_fract_z
O1	O	0.079871	-1.654699	-0.113498
O2	O	0.087516	-1.291309	-0.113504
O3	O	0.000833	-1.483962	-0.113476
O4	O	0.166554	-1.462046	-0.113526
O5	O	0.000833	-1.483948	0.113507
O6	O	0.087516	-1.291294	0.113478
O7	O	0.079871	-1.654685	0.113484
Zn8	Zn	0.083693	-1.472987	0.149520
Zn9	Zn	0.083693	-1.473006	-0.149539
O10	O	0.166554	-1.462032	0.113456
C11	C	-0.020387	-1.483397	0.000019
C12	C	-0.083615	-1.481719	0.000029
C13	C	0.086960	-1.244819	-0.000013
C14	C	0.085295	-1.106317	-0.000014
C15	C	0.080427	-1.701174	-0.000009
C16	C	0.082092	-1.839677	-0.000017
C17	C	-0.482046	-1.585203	-0.000044
C18	C	-0.541457	-1.583644	-0.000054
O19	O	-0.577579	-1.679575	-0.000103
N20	N	-0.564826	-1.469112	-0.000055
C21	C	-0.528782	-1.356131	-0.000059
O22	O	-0.554114	-1.258569	-0.000062
C23	C	-0.469373	-1.357691	-0.000059
C24	C	-0.446007	-1.472230	-0.000044
C25	C	-0.458680	-1.699733	-0.000030
C26	C	-0.399274	-1.701291	-0.000017
C27	C	-0.363234	-1.588319	-0.000018
C28	C	-0.386600	-1.473789	-0.000031
C29	C	-0.433329	-1.244711	-0.000073
C30	C	-0.373917	-1.246281	-0.000073
C31	C	-0.350551	-1.360821	-0.000059
C32	C	-0.291154	-1.362374	-0.000018
N33	N	-0.267785	-1.476907	-0.000018
C34	C	-0.303825	-1.589879	-0.000017
C35	C	-0.653545	-1.352863	-0.000063
C36	C	-0.712953	-1.351302	-0.000054
C37	C	-0.725625	-1.578816	-0.000051
C38	C	-0.666215	-1.580376	-0.000051
C39	C	-0.630176	-1.467395	-0.000062
C40	C	-0.179067	-1.593143	0.000011
C41	C	-0.119655	-1.594691	0.000030
C42	C	-0.106989	-1.367178	0.000020
C43	C	-0.166396	-1.365629	0.000008
C44	C	-0.202434	-1.478622	-0.000001
O45	O	-0.254997	-1.266494	0.000025
O46	O	-0.278484	-1.687425	-0.000032
C47	C	0.187774	-1.462597	-0.000041
C48	C	0.251001	-1.464275	-0.000061
N49	N	0.083693	-1.472984	0.353619
C50	C	0.133798	-1.029823	-0.000030
C51	C	0.132079	-0.886673	-0.000031
N52	N	0.083689	-1.473020	-0.353639
C53	C	0.047136	-1.553878	0.421408
C54	C	0.047134	-1.553899	0.578571
H55	H	-0.100634	-1.687967	0.000045
H56	H	-0.208403	-1.685152	-0.000001
O57	O	0.121056	-1.390560	0.576685
C58	C	0.156350	-1.457242	0.494037
H59	H	0.133950	-1.555067	0.472755
H60	H	0.165169	-1.405167	0.393508
H61	H	0.198472	-1.465413	0.549011
H62	H	-0.185421	-1.272361	0.000034
O63	O	-0.643547	-1.691669	-0.000291
C64	C	-0.661930	-1.760506	-0.117828
H65	H	-0.674548	-1.693517	-0.199991
H66	H	-0.625737	-1.813141	-0.157293
H67	H	-0.700370	-1.830521	-0.091246
O68	O	0.009716	-1.636472	0.647958
C69	C	-0.046713	-1.616541	0.613190
H70	H	-0.046822	-1.568511	0.509418
H71	H	-0.074483	-1.710537	0.608439
H72	H	-0.064465	-1.554461	0.693598
H73	H	-0.380255	-1.794561	-0.000011
O74	O	-0.493602	-1.809599	0.000035
C75	C	-0.460227	-1.911004	0.000010
H76	H	-0.416023	-1.878739	0.042974
H77	H	-0.481818	-1.990111	0.065922
H78	H	-0.455850	-1.946161	-0.108881
O79	O	0.032588	-0.918196	-0.000184
C80	C	0.030429	-0.994379	-0.117758
H81	H	0.075666	-1.000277	-0.156965
H82	H	0.009651	-1.092501	-0.091314
H83	H	0.004225	-0.951965	-0.200066
H84	H	0.042497	-1.065828	-0.000036
O85	O	0.184874	-1.078051	0.000197
C86	C	0.216043	-1.036858	0.117724
H87	H	0.185313	-1.010065	0.199899
H88	H	0.240528	-1.115479	0.157178
H89	H	0.247492	-0.951724	0.091133
O90	O	0.009823	-1.636683	0.352031
C91	C	0.019445	-1.760193	0.386832
H92	H	0.041358	-1.759961	0.490597
H93	H	-0.023167	-1.821952	0.391616
H94	H	0.047925	-1.798540	0.306426
O95	O	-0.735620	-1.240006	-0.000296
C96	C	-0.717222	-1.171182	-0.117834
H97	H	-0.704595	-1.238180	-0.199993
H98	H	-0.753410	-1.118549	-0.157303
H99	H	-0.678784	-1.101167	-0.091250
H100	H	-0.754979	-1.670804	-0.000056
O101	O	0.120952	-1.390322	0.423327
C102	C	0.090204	-1.313579	0.505978
H103	H	0.045790	-1.363593	0.527244
H104	H	0.113867	-1.293784	0.606514
H105	H	0.086093	-1.221304	0.451013
H106	H	-0.344576	-1.154276	-0.000085
H107	H	0.173602	-0.820947	-0.000050
H108	H	-0.624205	-1.260855	-0.000061
H109	H	-0.452343	-1.151441	-0.000093
H110	H	-0.077635	-1.275199	0.000024
