data_functionalizedCrystal
_audit_creation_method	'MofGen! by Chris Wilmer'
_symmetry_space_group_name_H-M	'P1'
_symmetry_Int_Tables_number	1
_symmetry_cell_setting	triclinic
loop_
_symmetry_equiv_pos_as_xyz
  x,y,z
_cell_length_a	10.654541
_cell_length_b	10.654562
_cell_length_c	9.730223
_cell_angle_alpha	89.993581
_cell_angle_beta	90.002067
_cell_angle_gamma	84.487016
loop_
_atom_site_label
_atom_site_type_symbol
_atom_site_fract_x
_atom_site_fract_y
_atom_site_fract_z
O1	O	0.176463	1.667830	-0.114380
O2	O	0.193253	1.302353	-0.114363
O3	O	0.002119	1.493496	-0.114363
O4	O	0.367597	1.476687	-0.114379
O5	O	0.002136	1.493480	0.114217
O6	O	0.193270	1.302338	0.114217
O7	O	0.176481	1.667814	0.114200
Zn8	Zn	0.184878	1.485073	0.150501
Zn9	Zn	0.184855	1.485094	-0.150663
O10	O	0.367615	1.476671	0.114201
C11	C	0.192025	1.255548	-0.000070
C12	C	0.188327	1.116105	-0.000064
C13	C	0.186612	1.050566	0.124525
C14	C	0.183147	0.919544	0.124502
C15	C	0.183118	0.919611	-0.124709
C16	C	0.186574	1.050632	-0.124684
C17	C	0.186634	1.050525	0.268404
C18	C	0.183169	0.919503	0.268382
C19	C	-0.044671	1.492255	-0.000074
C20	C	-0.184114	1.488564	-0.000076
C21	C	-0.212075	1.717127	-0.000069
C22	C	-0.291564	1.829670	-0.000063
C23	C	-0.422582	1.826194	-0.000067
C24	C	-0.474113	1.710164	-0.000082
C25	C	-0.394623	1.597621	-0.000088
C26	C	-0.263604	1.601109	-0.000080
C27	C	-0.366663	1.369061	-0.000105
C28	C	-0.235645	1.372534	-0.000091
C29	C	-0.418194	1.253031	-0.000119
C30	C	-0.338704	1.140485	-0.000115
C31	C	-0.207679	1.143966	-0.000110
C32	C	-0.156156	1.259991	-0.000097
C33	C	0.414404	1.477913	-0.000091
C34	C	0.553848	1.481603	-0.000098
C35	C	0.177708	1.714620	-0.000095
C36	C	0.181406	1.854062	-0.000111
N37	N	0.184894	1.485068	0.356037
C38	C	0.107980	1.408261	0.571866
C39	C	0.107998	1.408250	0.427983
C40	C	0.261768	1.561912	0.427982
C41	C	0.261743	1.561928	0.571862
C42	C	0.019206	1.319541	0.571865
C43	C	0.019223	1.319530	0.427982
N44	N	0.184851	1.485095	0.643800
H45	H	0.278233	1.080096	0.313044
Cl46	Cl	0.358426	1.658496	0.337536
H47	H	0.050114	1.220477	0.388962
H48	H	-0.142965	1.052319	-0.000121
H49	H	0.187951	1.103992	-0.226136
H50	H	0.269970	0.873213	0.323614
H51	H	0.181691	0.866287	-0.226170
Cl52	Cl	-0.133707	1.367295	0.632112
Cl53	Cl	0.358368	1.658541	0.662291
Cl54	Cl	0.052642	1.121952	0.353714
H55	H	0.091578	0.889913	0.313032
Cl56	Cl	0.080131	1.173527	0.640827
Cl57	Cl	-0.226777	1.975529	-0.000053
Cl58	Cl	-0.126766	1.380541	0.359026
H59	H	-0.105394	1.719969	-0.000047
Cl60	Cl	-0.522515	1.967677	-0.000072
Cl61	Cl	-0.638823	1.705798	-0.000180
H62	H	-0.049475	1.262836	-0.000084
H63	H	-0.524877	1.250209	-0.000131
H64	H	-0.380672	1.046022	-0.000136
