data_functionalizedCrystal
_audit_creation_method	'MofGen! by Chris Wilmer'
_symmetry_space_group_name_H-M	'P1'
_symmetry_Int_Tables_number	1
_symmetry_cell_setting	triclinic
loop_
_symmetry_equiv_pos_as_xyz
  x,y,z
_cell_length_a	11.026607
_cell_length_b	15.995350
_cell_length_c	9.482900
_cell_angle_alpha	99.336743
_cell_angle_beta	78.636152
_cell_angle_gamma	96.039196
loop_
_atom_site_label
_atom_site_type_symbol
_atom_site_fract_x
_atom_site_fract_y
_atom_site_fract_z
O1	O	1.629075	0.340363	-0.120882
O2	O	1.275769	0.300437	-0.120885
O3	O	1.462080	0.199968	-0.120882
O4	O	1.442765	0.440832	-0.120885
O5	O	1.424236	0.220481	0.120910
O6	O	1.237926	0.320950	0.120907
O7	O	1.591231	0.360875	0.120910
Cu8	Cu	1.411123	0.342785	0.142986
Cu9	Cu	1.455878	0.318527	-0.142961
O10	O	1.404921	0.461344	0.120907
C11	C	1.211637	0.303328	0.000010
C12	C	1.076923	0.281371	0.000009
C13	C	1.003118	0.341997	0.000007
C14	C	0.863884	0.319305	0.000005
C15	C	1.442360	0.178909	0.000011
C16	C	1.439967	0.085597	0.000003
C17	C	1.431369	-0.253446	0.000008
C18	C	1.298767	-0.226057	-0.000536
C19	C	1.301076	-0.128960	0.000009
C20	C	1.435634	-0.085243	0.000005
C21	C	1.479470	-0.104742	0.138078
C22	C	1.476118	-0.201871	0.138193
C23	C	1.521895	-0.225142	-0.136769
C24	C	1.522149	-0.128356	-0.138594
C25	C	1.438051	0.009819	0.000008
C26	C	1.428954	-0.348507	0.000014
C27	C	1.655364	0.357984	0.000012
C28	C	1.790080	0.379940	0.000004
C29	C	1.424641	0.482403	0.000011
C30	C	1.427036	0.575714	0.000009
N31	N	1.379654	0.359848	0.344106
N32	N	1.487357	0.301459	-0.344081
C33	C	1.446587	0.323554	0.416306
C34	C	1.420413	0.337759	0.583723
H35	H	1.037037	0.212664	-0.000028
N36	N	1.253468	-0.112699	-0.131103
H37	H	1.254886	-0.049451	-0.131001
H38	H	1.308020	-0.138993	-0.222547
N39	N	1.486139	-0.272769	-0.275398
H40	H	1.410889	-0.313181	-0.250936
H41	H	1.466286	-0.231002	-0.335313
N42	N	0.811063	0.228293	0.000024
H43	H	0.719085	0.224984	0.000027
H44	H	0.853471	0.191905	-0.089609
N45	N	0.842913	0.470950	-0.000009
H46	H	0.828649	0.492176	-0.089646
H47	H	0.800573	0.507329	0.089678
N48	N	1.653861	-0.089363	-0.149642
H49	H	1.707214	-0.118318	-0.239633
H50	H	1.655448	-0.026793	-0.155740
N51	N	1.249029	-0.272319	-0.131684
H52	H	1.311965	-0.311482	-0.192021
H53	H	1.169250	-0.306695	-0.098611
H54	H	1.230558	-0.245256	0.097926
N55	N	1.318833	0.392851	0.666002
H56	H	1.277760	0.415120	0.594818
H57	H	1.255220	0.358108	0.729164
H58	H	1.564039	0.259864	0.593796
H59	H	1.233768	-0.100491	0.099153
H60	H	1.490286	-0.116985	-0.240737
H61	H	1.619870	-0.242236	-0.137701
H62	H	1.302967	0.401433	0.406234
H63	H	1.043008	0.410702	0.000014
N64	N	1.548155	0.268464	0.333997
H65	H	1.630245	0.293185	0.360375
H66	H	1.529719	0.209177	0.360438
H67	H	1.572555	-0.218904	0.144455
N68	N	1.391508	-0.224052	0.274908
H69	H	1.356733	-0.170768	0.334530
H70	H	1.321232	-0.265510	0.248037
N71	N	1.609369	-0.065751	0.144859
H72	H	1.641123	-0.034993	0.058291
H73	H	1.608395	-0.024216	0.237387
H74	H	1.417932	-0.074495	0.240830
