data_functionalizedCrystal
_audit_creation_method	'MofGen! by Chris Wilmer'
_symmetry_space_group_name_H-M	'P1'
_symmetry_Int_Tables_number	1
_symmetry_cell_setting	triclinic
loop_
_symmetry_equiv_pos_as_xyz
  x,y,z
_cell_length_a	8.559649
_cell_length_b	10.268362
_cell_length_c	8.597267
_cell_angle_alpha	97.698276
_cell_angle_beta	102.376255
_cell_angle_gamma	90.004416
loop_
_atom_site_label
_atom_site_type_symbol
_atom_site_fract_x
_atom_site_fract_y
_atom_site_fract_z
O1	O	2.119299	0.114242	0.053141
O2	O	1.655357	0.105170	-0.027759
O3	O	1.896466	0.135462	0.242258
O4	O	1.878191	0.083950	-0.216876
O5	O	1.896444	-0.081138	0.242266
O6	O	1.655336	-0.111430	-0.027752
O7	O	2.119278	-0.102357	0.053149
Cu8	Cu	1.887305	-0.126671	0.012699
Cu9	Cu	1.887330	0.129484	0.012691
O10	O	1.878169	-0.132649	-0.216868
C11	C	1.595912	-0.003817	-0.033886
C12	C	1.418816	-0.005862	-0.052135
N13	N	1.887299	-0.306836	0.012708
C14	C	1.887322	-0.572508	0.012693
C15	C	1.887304	-0.424670	0.012696
C16	C	2.178723	0.006632	0.059276
C17	C	2.355819	0.008687	0.077525
C18	C	1.894495	0.033699	0.300497
C19	C	1.888638	0.053175	0.474017
N20	N	1.887349	0.309650	0.012696
C21	C	1.880144	-0.030884	0.724894
C22	C	1.886013	-0.050353	0.551377
H23	H	1.337259	-0.019877	-0.177113
H24	H	1.886407	0.156705	0.540534
C25	C	1.888667	-0.188390	0.462520
C26	C	1.754959	-0.209530	0.334782
C27	C	1.757337	-0.336675	0.252903
H28	H	1.983469	-0.197917	0.421908
H29	H	1.886147	-0.250776	0.534245
H30	H	1.757492	-0.147162	0.263070
H31	H	1.660135	-0.200030	0.375350
H32	H	1.754817	-0.399062	0.324628
H33	H	1.852145	-0.346191	0.212301
H34	H	1.666611	-0.351040	0.166233
H35	H	1.437367	0.022714	0.202494
