data_functionalizedCrystal
_audit_creation_method	'MofGen! by Chris Wilmer'
_symmetry_space_group_name_H-M	'P1'
_symmetry_Int_Tables_number	1
_symmetry_cell_setting	triclinic
loop_
_symmetry_equiv_pos_as_xyz
  x,y,z
_cell_length_a	10.723022
_cell_length_b	14.044220
_cell_length_c	9.798715
_cell_angle_alpha	90.004373
_cell_angle_beta	90.003403
_cell_angle_gamma	88.828052
loop_
_atom_site_label
_atom_site_type_symbol
_atom_site_fract_x
_atom_site_fract_y
_atom_site_fract_z
O1	O	1.670498	0.133033	0.113486
O2	O	2.003831	0.466366	0.446820
O3	O	2.337165	0.799700	0.780153
O4	O	1.308620	0.145769	0.113491
O5	O	1.641953	0.479102	0.446825
O6	O	1.975286	0.812436	0.780158
O7	O	1.484127	0.001381	0.113476
O8	O	1.817460	0.334714	0.446809
O9	O	2.150794	0.668048	0.780142
O10	O	1.494991	0.277421	0.113502
O11	O	1.828324	0.610754	0.446836
O12	O	2.161657	0.944088	0.780169
O13	O	1.484113	0.001380	-0.113507
O14	O	1.817446	0.334713	0.219827
O15	O	2.150779	0.668047	0.553160
O16	O	1.308605	0.145768	-0.113491
O17	O	1.641939	0.479101	0.219843
O18	O	1.975272	0.812435	0.553176
O19	O	1.670484	0.133032	-0.113496
O20	O	2.003817	0.466365	0.219838
O21	O	2.337150	0.799699	0.553171
Zn22	Zn	1.489542	0.139400	-0.149532
Zn23	Zn	1.822876	0.472733	0.183802
Zn24	Zn	2.156209	0.806066	0.517135
Zn25	Zn	1.489561	0.139401	0.149527
Zn26	Zn	1.822894	0.472735	0.482861
Zn27	Zn	2.156228	0.806068	0.816194
O28	O	1.494976	0.277420	-0.113480
O29	O	1.828310	0.610753	0.219853
O30	O	2.161643	0.944087	0.553187
C31	C	1.262020	0.144842	0.000001
C32	C	1.595353	0.478175	0.333334
C33	C	1.928687	0.811509	0.666668
C34	C	1.123188	0.142070	0.000002
C35	C	1.456522	0.475403	0.333336
C36	C	1.789855	0.808737	0.666669
C37	C	0.912806	0.219995	0.000013
C38	C	1.246139	0.553328	0.333346
C39	C	1.579473	0.886661	0.666679
C40	C	1.056296	0.222862	0.000011
C41	C	1.389629	0.556195	0.333344
C42	C	1.722962	0.889528	0.666678
C43	C	1.479364	-0.033965	-0.000016
C44	C	1.812698	0.299369	0.333317
C45	C	2.146031	0.632702	0.666651
C46	C	1.465180	-0.139283	-0.000018
C47	C	1.798513	0.194051	0.333316
C48	C	2.131847	0.527384	0.666649
C49	C	1.439248	-0.332113	0.000002
C50	C	1.772581	0.001221	0.333336
C51	C	2.105915	0.334554	0.666669
C52	C	1.539850	-0.389092	0.000005
C53	C	1.873183	-0.055759	0.333339
C54	C	2.206516	0.277575	0.666672
C55	C	1.525421	-0.496389	0.000016
C56	C	1.858754	-0.163056	0.333350
C57	C	2.192087	0.170277	0.666683
C58	C	1.453675	-0.224805	-0.000009
C59	C	1.787008	0.108528	0.333325
C60	C	2.120342	0.441861	0.666658
C61	C	1.717083	0.133959	-0.000002
C62	C	2.050416	0.467292	0.333331
C63	C	2.383750	0.800626	0.666664
C64	C	1.855915	0.136731	0.000005
C65	C	2.189248	0.470064	0.333339
C66	C	2.522582	0.803398	0.666672
C67	C	1.499739	0.312766	0.000015
C68	C	1.833072	0.646099	0.333348
C69	C	2.166405	0.979432	0.666681
C70	C	1.513923	0.418084	0.000025
C71	C	1.847256	0.751417	0.333359
C72	C	2.180590	1.084750	0.666692
N73	N	1.489538	0.139398	-0.353631
N74	N	1.822872	0.472732	-0.020298
N75	N	2.156205	0.806065	0.313035
C76	C	1.567806	0.194401	-0.421404
C77	C	1.901140	0.527735	-0.088071
C78	C	2.234473	0.861068	0.245262
C79	C	1.567826	0.194400	-0.578567
C80	C	1.901159	0.527733	-0.245234
C81	C	2.234493	0.861067	0.088099
N82	N	1.489574	0.139395	0.353627
N83	N	1.822907	0.472729	0.686960
N84	N	2.156241	0.806062	1.020294
H85	H	1.105240	0.294151	0.000010
H86	H	1.438574	0.627485	0.333343
H87	H	1.771907	0.960818	0.666676
H88	H	1.074252	0.070777	0.000032
H89	H	1.407586	0.404110	0.333365
H90	H	1.740919	0.737443	0.666699
F91	F	1.312516	-0.373676	0.000011
F92	F	1.645850	-0.040343	0.333345
F93	F	1.979183	0.292990	0.666678
H94	H	1.422548	0.092305	-0.411960
H95	H	1.755881	0.425638	-0.078627
H96	H	2.089215	0.758972	0.254706
H97	H	1.634828	0.241495	-0.636851
H98	H	1.968161	0.574829	-0.303517
H99	H	2.301495	0.908162	0.029816
F100	F	0.837626	0.310399	0.000035
F101	F	1.170959	0.643732	0.333369
F102	F	1.504293	0.977065	0.666702
H103	H	1.422557	0.092307	-0.588098
H104	H	1.755890	0.425641	-0.254765
H105	H	2.089224	0.758974	0.078568
F106	F	1.655381	0.255950	-0.345171
F107	F	1.988714	0.589283	-0.011838
F108	F	2.322047	0.922617	0.321495
H109	H	1.636814	-0.357291	0.000095
H110	H	1.970147	-0.023958	0.333429
H111	H	2.303481	0.309376	0.666762
F112	F	0.931095	0.046327	0.000005
F113	F	1.264428	0.379660	0.333339
F114	F	1.597762	0.712994	0.666672
