data_functionalizedCrystal
_audit_creation_method	'MofGen! by Chris Wilmer'
_symmetry_space_group_name_H-M	'P1'
_symmetry_Int_Tables_number	1
_symmetry_cell_setting	triclinic
loop_
_symmetry_equiv_pos_as_xyz
  x,y,z
_cell_length_a	12.759395
_cell_length_b	17.077402
_cell_length_c	17.077396
_cell_angle_alpha	89.970216
_cell_angle_beta	90.017209
_cell_angle_gamma	89.975580
loop_
_atom_site_label
_atom_site_type_symbol
_atom_site_fract_x
_atom_site_fract_y
_atom_site_fract_z
Zn1	Zn	1.606175	0.312476	0.443788
Zn2	Zn	2.106175	0.812476	0.943788
Zn3	Zn	1.606050	0.443751	0.312519
Zn4	Zn	2.106050	0.943751	0.812519
Zn5	Zn	1.430483	0.312507	0.312541
Zn6	Zn	1.930483	0.812507	0.812541
Zn7	Zn	1.430440	0.443707	0.443747
Zn8	Zn	1.930440	0.943707	0.943747
O9	O	1.518287	0.378110	0.378149
O10	O	2.018287	0.878110	0.878149
O11	O	1.753179	0.329895	0.426382
O12	O	2.253179	0.829895	0.926382
O13	O	1.582727	0.426372	0.202675
O14	O	2.082727	0.926372	0.702675
O15	O	1.453859	0.202656	0.329977
O16	O	1.953859	0.702656	0.829977
O17	O	1.753088	0.426342	0.329939
O18	O	2.253088	0.926342	0.829939
O19	O	1.582939	0.202633	0.426404
O20	O	2.082939	0.702633	0.926404
O21	O	1.453738	0.329947	0.202691
O22	O	1.953738	0.829947	0.702691
O23	O	1.283456	0.329905	0.329938
O24	O	1.783456	0.829905	0.829938
O25	O	1.453786	0.426268	0.553600
O26	O	1.953786	0.926268	1.053600
O27	O	1.283425	0.426298	0.426335
O28	O	1.783425	0.926298	0.926335
O29	O	1.582897	0.329853	0.553629
O30	O	2.082897	0.829853	1.053629
O31	O	1.582685	0.553592	0.329900
O32	O	2.082685	1.053592	0.829900
O33	O	1.453665	0.553560	0.426314
O34	O	1.953665	1.053560	0.926314
C35	C	1.245320	0.378101	0.378135
C36	C	1.745320	0.878101	0.878135
C37	C	1.128543	0.378115	0.378148
C38	C	1.628543	0.878115	0.878148
C39	C	1.518186	0.582058	0.378117
C40	C	2.018186	1.082058	0.878117
C41	C	1.518238	0.669308	0.378130
C42	C	2.018238	1.169308	0.878130
C43	C	1.518351	0.378052	0.582893
C44	C	2.018351	0.878052	1.082893
C45	C	1.518378	0.378028	0.670143
C46	C	2.018378	0.878028	1.170143
C47	C	1.128549	0.478651	0.478364
C48	C	1.628549	0.978651	0.978364
C49	C	1.073691	0.528926	0.528474
C50	C	1.573691	1.028926	1.028474
C51	C	0.963969	0.528935	0.528483
C52	C	1.463969	1.028935	1.028483
C53	C	0.909103	0.478663	0.478379
C54	C	1.409103	0.978663	0.978379
C55	C	0.963961	0.428389	0.428269
C56	C	1.463961	0.928389	0.928269
C57	C	1.073685	0.428387	0.428263
C58	C	1.573685	0.928387	0.928263
C59	C	0.963955	0.327851	0.328059
C60	C	1.463955	0.827851	0.828059
C61	C	1.073677	0.327844	0.328044
C62	C	1.573677	0.827844	0.828044
C63	C	0.909089	0.277579	0.277954
C64	C	1.409089	0.777579	0.777954
C65	C	0.963947	0.227307	0.227839
C66	C	1.463947	0.727307	0.727839
C67	C	1.073675	0.227301	0.227831
C68	C	1.573675	0.727301	0.727831
C69	C	1.128535	0.277570	0.277934
C70	C	1.628535	0.777570	0.777934
C71	C	1.792320	0.378120	0.378163
C72	C	2.292320	0.878120	0.878163
C73	C	1.909097	0.378125	0.378169
C74	C	2.409097	0.878125	0.878169
C75	C	1.518417	0.173366	0.378197
C76	C	2.018417	0.673366	0.878197
C77	C	1.518473	0.086116	0.378218
C78	C	2.018473	0.586116	0.878218
C79	C	1.585488	0.710289	0.327982
C80	C	2.085488	1.210289	0.827982
C81	C	1.585539	0.792269	0.328002
C82	C	2.085539	1.292269	0.828002
C83	C	1.518335	0.833267	0.378167
C84	C	2.018335	1.333267	0.878167
C85	C	1.451083	0.792281	0.428321
C86	C	1.951083	1.292281	0.928321
C87	C	1.451037	0.710302	0.428304
C88	C	1.951037	1.210302	0.928304
C89	C	1.451180	0.963151	0.428351
C90	C	1.951180	1.463151	0.928351
C91	C	1.451224	1.045135	0.428366
C92	C	1.951224	1.545135	0.928366
C93	C	1.585682	1.045118	0.328048
C94	C	2.085682	1.545118	0.828048
C95	C	1.585636	0.963139	0.328031
C96	C	2.085636	1.463139	0.828031
C97	C	1.518382	0.922158	0.378185
C98	C	2.018382	1.422158	0.878185
C99	C	1.518284	0.378111	0.174201
C100	C	2.018284	0.878111	0.674201
C101	C	1.518461	0.377915	0.086951
C102	C	2.018461	0.877915	0.586951
C103	C	1.585608	0.327820	0.711150
C104	C	2.085608	0.827820	1.211150
C105	C	1.585621	0.327794	0.793130
C106	C	2.085621	0.827794	1.293130
C107	C	1.518408	0.377980	0.834102
C108	C	2.018408	0.877980	1.334102
C109	C	1.451169	0.428190	0.793090
C110	C	1.951169	0.928190	1.293090
C111	C	1.451152	0.428211	0.711111
C112	C	1.951152	0.928211	1.211111
C113	C	1.451212	0.428142	0.963960
C114	C	1.951212	0.928142	1.463960
C115	C	1.451230	0.428122	1.045945
C116	C	1.951230	0.928122	1.545945
C117	C	1.585681	0.327725	1.045979
C118	C	2.085681	0.827725	1.545979
C119	C	1.585663	0.327747	0.964000
C120	C	2.085663	0.827747	1.464000
C121	C	1.518426	0.377958	0.922993
C122	C	2.018426	0.877958	1.422993
H123	H	1.217890	0.478654	0.478355
H124	H	1.717890	0.978654	0.978355
H125	H	1.118334	0.186356	0.187030
H126	H	1.618334	0.686356	0.687030
F127	F	1.657241	0.274287	1.089622
F128	F	2.157241	0.774287	1.589622
F129	F	1.245310	0.277570	0.277926
F130	F	1.745310	0.777570	0.777926
H131	H	1.640208	0.676913	0.287128
H132	H	2.140208	1.176913	0.787128
H133	H	1.396496	0.468986	1.079302
H134	H	1.896496	0.968986	1.579302
H135	H	1.640401	0.286885	0.930643
H136	H	2.140401	0.786885	1.430643
H137	H	1.640300	0.825632	0.287165
H138	H	2.140300	1.325632	0.787165
F139	F	0.905584	0.582438	0.581820
F140	F	1.405584	1.082438	1.081820
F141	F	1.657161	0.919507	0.274639
F142	F	2.157161	1.419507	0.774639
H143	H	1.118375	0.569854	0.569269
H144	H	1.618375	1.069854	1.069269
H145	H	1.396444	0.469017	0.930575
H146	H	1.896444	0.969017	1.430575
H147	H	1.640446	1.078488	0.287214
H148	H	2.140446	1.578488	0.787214
H149	H	0.819762	0.478669	0.478398
H150	H	1.319762	0.978669	0.978398
H151	H	1.396439	0.469049	0.826456
H152	H	1.896439	0.969049	1.326456
H153	H	1.396395	0.469087	0.677724
H154	H	1.896395	0.969087	1.177724
F155	F	1.657214	0.274383	0.836769
F156	F	2.157214	0.774383	1.336769
F157	F	0.792313	0.277586	0.277970
F158	F	1.292313	0.777586	0.777970
H159	H	0.919266	0.186377	0.187052
H160	H	1.419266	0.686377	0.687052
F161	F	1.379688	1.088767	0.481751
F162	F	1.879688	1.588767	0.981751
F163	F	1.379603	0.919538	0.481732
F164	F	1.879603	1.419538	0.981732
F165	F	1.379464	0.666687	0.481681
F166	F	1.879464	1.166687	0.981681
F167	F	1.657153	0.274408	0.667551
F168	F	2.157153	0.774408	1.167551
F169	F	1.379565	0.835916	0.481715
F170	F	1.879565	1.335916	0.981715
