data_functionalizedCrystal
_audit_creation_method	'MofGen! by Chris Wilmer'
_symmetry_space_group_name_H-M	'P1'
_symmetry_Int_Tables_number	1
_symmetry_cell_setting	triclinic
loop_
_symmetry_equiv_pos_as_xyz
  x,y,z
_cell_length_a	21.395362
_cell_length_b	14.908520
_cell_length_c	21.395355
_cell_angle_alpha	93.280325
_cell_angle_beta	89.956060
_cell_angle_gamma	93.337688
loop_
_atom_site_label
_atom_site_type_symbol
_atom_site_fract_x
_atom_site_fract_y
_atom_site_fract_z
Zn1	Zn	0.943513	-0.358891	-0.368965
Zn2	Zn	0.937386	-0.509736	-0.270231
Zn3	Zn	0.838727	-0.358933	-0.264168
Zn4	Zn	0.832667	-0.509755	-0.374937
O5	O	0.888073	-0.434329	-0.319575
O6	O	1.030380	-0.378876	-0.355906
O7	O	0.924270	-0.489742	-0.181749
O8	O	0.857727	-0.232679	-0.273033
O9	O	1.025878	-0.489701	-0.283367
O10	O	0.934713	-0.232649	-0.350027
O11	O	0.851786	-0.378948	-0.177295
O12	O	0.750244	-0.378966	-0.278823
O13	O	0.847399	-0.489733	-0.461822
O14	O	0.745792	-0.489773	-0.360205
O15	O	0.928838	-0.378894	-0.457435
O16	O	0.918395	-0.635987	-0.289157
O17	O	0.841458	-0.636001	-0.366084
C18	C	0.725284	-0.434377	-0.319504
C19	C	0.655641	-0.434419	-0.319490
C20	C	0.620623	-0.492193	-0.361808
C21	C	0.555188	-0.492171	-0.361835
C22	C	0.524774	-0.434384	-0.319533
C23	C	0.559800	-0.376599	-0.277212
C24	C	0.625234	-0.376616	-0.277190
C25	C	0.421340	-0.427116	-0.262837
C26	C	0.355907	-0.427105	-0.262858
C27	C	0.322956	-0.434325	-0.319600
C28	C	0.355444	-0.441575	-0.376324
C29	C	0.420877	-0.441593	-0.376302
C30	C	0.453823	-0.434358	-0.319552
C31	C	0.216986	-0.492079	-0.361951
C32	C	0.151550	-0.492050	-0.361979
C33	C	0.156163	-0.376483	-0.277350
C34	C	0.221598	-0.376506	-0.277327
C35	C	0.252005	-0.434309	-0.319627
C36	C	0.878621	-0.668729	-0.328940
C37	C	0.874634	-0.769006	-0.332968
C38	C	0.947340	-0.957362	-0.260497
C39	C	0.943596	-1.051582	-0.264279
C40	C	0.863407	-1.051666	-0.344317
C41	C	0.867151	-0.957446	-0.340535
C42	C	0.909118	-0.910298	-0.298623
C43	C	0.912858	-0.816077	-0.294838
C44	C	0.832672	-0.816163	-0.374879
C45	C	0.828929	-0.910382	-0.378661
C46	C	1.051498	-0.434282	-0.319647
C47	C	1.121141	-0.434262	-0.319677
C48	C	0.888126	-0.434311	-0.482998
C49	C	0.888148	-0.434303	-0.552639
C50	C	0.897580	-0.199014	-0.310187
C51	C	0.901631	-0.098737	-0.306187
C52	C	0.930552	-0.376587	-0.583068
C53	C	0.930553	-0.376548	-0.648502
C54	C	0.888156	-0.434242	-0.683505
C55	C	0.845745	-0.491962	-0.653068
C56	C	0.845741	-0.491992	-0.587635
C57	C	0.879933	-0.515477	-0.790423
C58	C	0.879941	-0.515447	-0.855855
C59	C	0.888164	-0.434146	-0.885322
C60	C	0.896392	-0.352872	-0.849348
C61	C	0.896388	-0.352902	-0.783915
C62	C	0.888155	-0.434214	-0.754456
C63	C	0.930570	-0.376383	-0.986702
C64	C	0.930566	-0.376343	-1.052137
C65	C	0.845761	-0.491764	-1.056701
C66	C	0.845762	-0.491797	-0.991267
C67	C	0.888170	-0.434107	-0.956272
C68	C	0.888059	-0.434282	-0.156786
C69	C	0.888169	-0.434036	-0.087135
H70	H	0.329460	-0.421207	-0.216670
C71	C	1.023702	-1.157356	-0.259961
C72	C	0.985635	-1.103296	-0.222381
H73	H	1.049666	-1.189271	-0.234097
H74	H	0.998174	-1.198935	-0.285443
H75	H	1.049091	-1.120520	-0.285823
H76	H	0.960243	-1.140132	-0.196522
H77	H	1.011166	-1.061712	-0.196888
H78	H	0.903086	-0.286726	-0.754629
C79	C	1.014390	-0.262283	-0.988760
C80	C	0.977176	-0.312962	-0.948229
H81	H	1.043159	-0.223126	-0.965008
H82	H	1.036770	-0.301568	-1.015873
H83	H	0.988477	-0.227773	-1.012879
H84	H	1.003088	-0.347478	-0.924113
H85	H	0.954794	-0.273672	-0.921105
C86	C	0.967233	-0.223813	-0.556850
C87	C	0.977159	-0.313154	-0.544610
H88	H	0.996004	-0.184649	-0.533105
H89	H	0.973300	-0.215556	-0.600172
H90	H	0.925666	-0.210642	-0.545562
H91	H	1.018725	-0.326327	-0.555902
H92	H	0.971097	-0.321415	-0.501278
C93	C	0.689280	-0.613588	-0.375207
C94	C	0.654048	-0.555718	-0.408310
H95	H	0.709913	-0.652805	-0.403918
H96	H	0.719500	-0.579182	-0.350005
H97	H	0.662318	-0.648033	-0.349257
H98	H	0.681010	-0.521267	-0.434257
H99	H	0.623825	-0.590127	-0.433523
H100	H	0.123040	-0.539095	-0.396443
C101	C	0.809053	-0.644779	-0.573587
C102	C	0.799135	-0.555446	-0.554180
H103	H	0.780283	-0.683953	-0.552929
H104	H	0.802980	-0.653010	-0.617559
H105	H	0.850620	-0.657961	-0.563423
H106	H	0.757568	-0.542262	-0.564348
H107	H	0.805202	-0.547211	-0.510198
H108	H	0.241745	-0.539140	-0.396397
H109	H	0.131401	-0.329427	-0.242909
H110	H	0.526671	-0.539217	-0.396298
C111	C	0.413855	-0.455880	-0.488463
C112	C	0.456589	-0.449548	-0.438650
H113	H	0.435904	-0.460782	-0.526953
H114	H	0.386229	-0.507564	-0.484975
H115	H	0.390458	-0.403577	-0.487248
H116	H	0.479983	-0.501854	-0.439862
H117	H	0.484226	-0.397858	-0.442139
H118	H	0.829244	-1.090070	-0.378444
H119	H	0.448164	-0.421233	-0.216627
C120	C	1.015342	-0.363979	-0.721651
C121	C	0.977169	-0.313108	-0.681961
H122	H	1.044118	-0.324813	-0.742308
H123	H	1.037714	-0.403284	-0.697714
H124	H	0.990081	-0.398328	-0.751855
H125	H	1.002430	-0.278764	-0.651754
H126	H	0.954796	-0.273787	-0.705900
C127	C	0.545825	-0.223767	-0.240766
C128	C	0.526368	-0.313081	-0.230712
H129	H	0.525182	-0.184552	-0.212061
H130	H	0.589801	-0.215510	-0.234693
H131	H	0.535677	-0.210663	-0.282360
H132	H	0.536521	-0.326187	-0.189119
H133	H	0.482383	-0.321342	-0.236780
H134	H	0.811223	-0.538933	-0.681571
H135	H	0.794762	-0.948783	-0.412786
C136	C	0.219582	-0.262282	-0.193676
C137	C	0.260093	-0.313008	-0.230803
H138	H	0.243349	-0.223081	-0.164952
H139	H	0.195494	-0.227824	-0.219645
H140	H	0.192436	-0.301541	-0.171244
H141	H	0.287237	-0.273748	-0.253238
H142	H	0.284192	-0.347468	-0.204830
C143	C	0.863664	-0.676147	-0.855714
C144	C	0.870895	-0.604781	-0.895394
H145	H	0.858075	-0.731297	-0.880124
H146	H	0.899931	-0.677325	-0.830267
H147	H	0.828074	-0.668223	-0.829848
H148	H	0.906488	-0.612702	-0.921257
H149	H	0.834624	-0.603604	-0.920851
H150	H	0.328616	-0.447453	-0.422529
H151	H	0.801547	-0.777832	-0.405921
C152	C	0.923319	-0.616600	-0.720941
C153	C	0.870874	-0.604871	-0.758065
H154	H	0.917717	-0.671789	-0.700970
H155	H	0.959591	-0.617744	-0.746532
H156	H	0.928211	-0.568225	-0.690135
H157	H	0.865985	-0.653242	-0.788873
H158	H	0.834591	-0.603734	-0.732471
C159	C	0.857441	-0.207591	-0.863616
C160	C	0.905427	-0.263489	-0.881721
H161	H	0.863023	-0.152410	-0.883600
H162	H	0.818140	-0.236445	-0.875471
H163	H	0.858625	-0.195998	-0.819497
H164	H	0.904240	-0.275089	-0.925840
H165	H	0.944738	-0.234629	-0.869870
H166	H	0.811235	-0.538731	-1.085199
C167	C	0.944178	-0.254935	-1.120850
C168	C	0.977176	-0.312885	-1.085584
H169	H	0.972954	-0.215754	-1.141494
H170	H	0.918933	-0.289284	-1.151059
H171	H	0.918274	-0.220455	-1.093911
H172	H	1.003077	-0.347371	-1.112524
H173	H	1.002431	-0.278532	-1.055371
C174	C	0.809072	-0.644583	-0.977219
C175	C	0.799155	-0.555249	-0.957815
H176	H	0.780297	-0.683754	-0.956564
H177	H	0.803004	-0.652815	-1.021192
H178	H	0.850637	-0.657769	-0.967050
H179	H	0.757591	-0.542061	-0.967988
H180	H	0.805217	-0.547013	-0.913833
H181	H	0.947028	-0.777689	-0.260709
C182	C	0.647059	-0.332454	-0.169373
C183	C	0.663731	-0.313115	-0.230666
H184	H	0.670830	-0.293255	-0.140652
H185	H	0.603743	-0.324165	-0.163337
H186	H	0.655307	-0.393058	-0.162561
H187	H	0.655478	-0.252512	-0.237479
H188	H	0.707057	-0.321397	-0.236705
H189	H	0.981507	-0.918973	-0.226366
