data_functionalizedCrystal
_audit_creation_method	'MofGen! by Chris Wilmer'
_symmetry_space_group_name_H-M	'P1'
_symmetry_Int_Tables_number	1
_symmetry_cell_setting	triclinic
loop_
_symmetry_equiv_pos_as_xyz
  x,y,z
_cell_length_a	8.597275
_cell_length_b	8.559649
_cell_length_c	7.088929
_cell_angle_alpha	95.325015
_cell_angle_beta	91.318685
_cell_angle_gamma	77.624622
loop_
_atom_site_label
_atom_site_type_symbol
_atom_site_fract_x
_atom_site_fract_y
_atom_site_fract_z
O1	O	-0.034425	2.102606	-0.164628
O2	O	0.044989	1.639990	-0.151555
O3	O	-0.220064	1.876668	-0.195208
O4	O	0.230629	1.865928	-0.120975
O5	O	-0.255557	1.908296	0.116922
O6	O	0.009496	1.671618	0.160575
O7	O	-0.069918	2.134233	0.147501
Cu8	Cu	-0.033452	1.905813	0.182538
Cu9	Cu	0.008523	1.868410	-0.186591
O10	O	0.195135	1.897555	0.191154
C11	C	0.033261	1.596470	0.005500
C12	C	0.051175	1.419674	0.008448
C13	C	-0.294975	1.889567	-0.048562
C14	C	-0.465303	1.880860	-0.076629
C15	C	0.270046	1.884657	0.044505
C16	C	0.440376	1.893362	0.072559
C17	C	-0.058189	2.177753	-0.009558
C18	C	-0.076102	2.354548	-0.012518
N19	N	-0.062977	1.932132	0.442163
N20	N	0.038034	1.842104	-0.446219
H21	H	0.173855	1.340166	0.028644
C22	C	-0.532245	1.857398	-0.278185
N23	N	-0.582676	1.839723	-0.430001
H24	H	0.142712	1.748800	0.489375
H25	H	-0.167652	2.025455	0.506580
H26	H	-0.510065	1.910738	0.221760
C27	C	-0.241831	1.461945	-0.039806
N28	N	-0.366662	1.542848	-0.060355
