data_functionalizedCrystal
_audit_creation_method	'MofGen! by Chris Wilmer'
_symmetry_space_group_name_H-M	'P1'
_symmetry_Int_Tables_number	1
_symmetry_cell_setting	triclinic
loop_
_symmetry_equiv_pos_as_xyz
  x,y,z
_cell_length_a	14.560438
_cell_length_b	14.560438
_cell_length_c	14.560438
_cell_angle_alpha	59.999258
_cell_angle_beta	89.999635
_cell_angle_gamma	59.997876
loop_
_atom_site_label
_atom_site_type_symbol
_atom_site_fract_x
_atom_site_fract_y
_atom_site_fract_z
Zr1	Zr	0.884691	1.005342	-0.120551
O2	O	0.738033	1.196953	-0.267202
O3	O	0.929658	0.813732	-0.075592
O4	O	0.929646	1.005345	-0.267200
O5	O	0.738045	1.005336	0.075546
O6	O	1.080784	1.005348	-0.267201
O7	O	0.738045	1.005339	-0.075594
O8	O	1.080806	0.662586	0.075550
O9	O	0.738024	1.348098	-0.267205
O10	O	1.061619	0.892546	-0.056422
O11	O	0.948826	0.892542	0.056374
O12	O	0.948812	1.118142	-0.169220
O13	O	0.836019	1.118138	-0.056424
Zr14	Zr	1.125740	1.005342	0.120499
Zr15	Zr	1.125739	1.005346	-0.120553
Zr16	Zr	0.884692	1.005338	0.120501
Zr17	Zr	0.884677	1.246402	-0.120556
Zr18	Zr	1.125754	0.764282	0.120504
O19	O	1.080773	1.196952	0.075540
O20	O	1.080773	1.196958	-0.267205
O21	O	0.738034	1.196946	0.075543
O22	O	1.272398	0.813732	0.267150
O23	O	1.272397	0.813738	-0.075595
O24	O	0.929658	0.813726	0.267153
O25	O	1.272386	1.005348	-0.075598
O26	O	1.080785	1.005339	0.267148
O27	O	0.929647	1.005336	0.267149
O28	O	1.272386	1.005345	0.075542
O29	O	0.929625	1.348101	-0.267207
O30	O	1.080806	0.662583	0.267155
O31	O	1.272407	0.662586	0.267153
O32	O	1.272407	0.662589	0.075549
O33	O	0.738024	1.348095	-0.075601
O34	O	0.929625	1.348098	-0.075602
O35	O	1.061619	0.892542	0.169168
O36	O	1.174412	0.892546	0.056372
O37	O	1.061605	1.118142	-0.056426
O38	O	0.948812	1.118138	0.056370
C39	C	1.005234	0.703813	-0.000020
C40	C	1.005240	0.601477	-0.000019
C41	C	1.088473	0.373985	0.083238
C42	C	1.088501	0.470120	0.083244
C43	C	0.921953	0.636699	-0.083298
C44	C	0.921932	0.540564	-0.083308
C45	C	0.703701	1.005337	-0.000024
C46	C	0.601370	1.005335	-0.000023
C47	C	0.612175	0.887578	0.058852
C48	C	0.516021	0.887584	0.058853
C49	C	0.398258	1.123115	-0.058906
C50	C	0.494412	1.123107	-0.058899
C51	C	1.306730	1.005347	-0.000028
C52	C	1.409061	1.005349	-0.000029
C53	C	1.005215	1.005347	-0.301546
C54	C	1.005215	1.005349	-0.403879
C55	C	1.005197	1.306871	-0.000032
C56	C	1.005191	1.409207	-0.000033
C57	C	1.088478	1.005352	-0.451955
C58	C	1.088481	1.005340	-0.548101
C59	C	0.921949	1.005328	-0.548088
C60	C	0.921951	1.005331	-0.451939
C61	C	1.005216	1.005337	0.301494
C62	C	1.005216	1.005335	0.403827
C63	C	1.306748	0.703818	-0.000023
C64	C	1.409086	0.601484	-0.000021
C65	C	1.005234	0.703808	0.301499
C66	C	1.005241	0.601470	0.403834
C67	C	1.306749	0.703813	0.301497
C68	C	1.409086	0.601477	0.403831
C69	C	0.703682	1.306871	-0.301549
C70	C	0.601345	1.409207	-0.403883
C71	C	0.703683	1.306866	-0.000029
C72	C	0.601345	1.409200	-0.000030
C73	C	1.005197	1.306876	-0.301551
C74	C	1.005190	1.409214	-0.403886
C75	C	1.398290	0.553404	-0.058896
C76	C	1.494451	0.457258	-0.058899
C77	C	1.612199	0.457275	0.058856
C78	C	1.516040	0.553426	0.058852
C79	C	1.064119	0.553389	0.510788
C80	C	1.064113	0.457241	0.606939
C81	C	0.946347	0.457258	0.489167
C82	C	0.946348	0.553412	0.393019
C83	C	1.516041	0.553399	0.393033
C84	C	1.612195	0.457251	0.489190
C85	C	1.494424	0.457265	0.606942
C86	C	1.398273	0.553417	0.510785
H87	H	1.156269	0.267031	0.151044
C88	C	0.527910	0.758052	0.123610
H89	H	0.605382	0.687916	0.158666
H90	H	0.492853	0.753148	0.179328
H91	H	0.492847	0.753167	0.072777
H92	H	0.485605	1.219005	-0.106840
H93	H	1.156318	0.441430	0.151051
H94	H	0.898396	0.592562	0.305926
H95	H	0.854111	0.569255	-0.151124
C96	C	1.128888	0.606264	0.522679
H97	H	1.120466	0.670407	0.450099
H98	H	1.099810	0.643773	0.562629
H99	H	1.206356	0.537224	0.562632
H100	H	0.311163	1.219001	-0.106842
C101	C	1.180061	1.005372	-0.399087
H102	H	1.168133	1.005389	-0.334946
H103	H	1.251949	0.930041	-0.377176
H104	H	1.176588	1.080721	-0.452527
H105	H	1.485634	0.418121	0.694033
H106	H	1.311179	0.592566	0.519586
H107	H	1.311207	0.592541	-0.106846
H108	H	1.112056	0.418100	0.694023
H109	H	1.524851	0.592529	0.305950
H110	H	1.156283	1.005340	-0.587241
H111	H	1.524838	0.592577	0.106794
H112	H	1.485651	0.418118	-0.106842
H113	H	0.854165	0.743659	-0.151096
H114	H	0.854155	1.005316	-0.587230
H115	H	0.898400	0.418116	0.480375
C116	C	0.729824	0.758035	0.123629
H117	H	0.722483	0.687906	0.158703
H118	H	0.769790	0.753128	0.072818
H119	H	0.769772	0.753143	0.179354
C120	C	0.830353	1.005342	-0.399054
H121	H	0.842287	1.005335	-0.334903
H122	H	0.758469	1.080677	-0.452479
H123	H	0.833812	0.929997	-0.377132
C124	C	1.729846	0.404397	0.123623
H125	H	1.785571	0.340236	0.115205
H126	H	1.738277	0.473425	0.094548
H127	H	1.738276	0.366881	0.201089
C128	C	1.729841	0.404363	0.477308
H129	H	1.722504	0.446753	0.399839
H130	H	1.769798	0.420125	0.512364
H131	H	1.769798	0.313577	0.512377
