data_functionalizedCrystal
_audit_creation_method	'MofGen! by Chris Wilmer'
_symmetry_space_group_name_H-M	'P1'
_symmetry_Int_Tables_number	1
_symmetry_cell_setting	triclinic
loop_
_symmetry_equiv_pos_as_xyz
  x,y,z
_cell_length_a	14.044190
_cell_length_b	9.065215
_cell_length_c	8.140239
_cell_angle_alpha	89.997810
_cell_angle_beta	89.991557
_cell_angle_gamma	89.103237
loop_
_atom_site_label
_atom_site_type_symbol
_atom_site_fract_x
_atom_site_fract_y
_atom_site_fract_z
O1	O	0.139128	1.975824	-0.136616
O2	O	0.639128	2.475824	0.363384
O3	O	0.150544	1.547804	-0.136625
O4	O	0.650544	2.047804	0.363375
O5	O	0.006796	1.755384	-0.136588
O6	O	0.506796	2.255384	0.363412
O7	O	0.282876	1.768244	-0.136653
O8	O	0.782876	2.268244	0.363347
O9	O	0.006794	1.755372	0.136639
O10	O	0.506794	2.255372	0.636639
O11	O	0.150542	1.547792	0.136602
O12	O	0.650542	2.047792	0.636602
O13	O	0.139126	1.975812	0.136611
O14	O	0.639126	2.475812	0.636611
Zn15	Zn	0.144834	1.761800	0.179987
Zn16	Zn	0.644834	2.261800	0.679987
Zn17	Zn	0.144836	1.761816	-0.180001
Zn18	Zn	0.644836	2.261816	0.319999
O19	O	0.282874	1.768232	0.136574
O20	O	0.782874	2.268232	0.636574
C21	C	-0.028568	1.749752	0.000030
C22	C	0.471432	2.249752	0.500030
C23	C	-0.133938	1.732971	0.000044
C24	C	0.366062	2.232971	0.500044
C25	C	0.149446	1.492690	-0.000012
C26	C	0.649446	1.992690	0.499988
C27	C	0.146168	1.328483	-0.000014
C28	C	0.646168	1.828483	0.499986
C29	C	-0.383466	1.821307	-0.000019
C30	C	0.116534	2.321307	0.499981
C31	C	-0.326858	1.702315	-0.000010
C32	C	0.173142	2.202315	0.499990
C33	C	-0.219507	1.719376	0.000020
C34	C	0.280493	2.219376	0.500020
C35	C	-0.490827	1.804249	-0.000048
C36	C	0.009173	2.304249	0.499952
C37	C	0.318238	1.773864	-0.000048
C38	C	0.818238	2.273864	0.499952
C39	C	0.423608	1.790645	-0.000072
C40	C	0.923608	2.290645	0.499928
N41	N	0.144832	1.761799	0.425670
N42	N	0.644832	2.261799	0.925670
C43	C	0.140224	2.030926	-0.000005
C44	C	0.640224	2.530926	0.499995
C45	C	0.143502	2.195133	-0.000014
C46	C	0.643502	2.695133	0.499986
N47	N	0.144831	1.761828	-0.425684
N48	N	0.644831	2.261828	0.074316
H49	H	-0.359017	1.587630	-0.000022
H50	H	0.140983	2.087630	0.499978
N51	N	-0.340878	1.973215	0.000031
N52	N	0.159122	2.473215	0.500031
H53	H	-0.269115	1.964021	0.000062
H54	H	0.230885	2.464021	0.500062
H55	H	-0.362583	2.028585	0.101331
H56	H	0.137417	2.528585	0.601331
