data_functionalizedCrystal
_audit_creation_method	'MofGen! by Chris Wilmer'
_symmetry_space_group_name_H-M	'P1'
_symmetry_Int_Tables_number	1
_symmetry_cell_setting	triclinic
loop_
_symmetry_equiv_pos_as_xyz
  x,y,z
_cell_length_a	23.532407
_cell_length_b	23.532407
_cell_length_c	12.996460
_cell_angle_alpha	89.998354
_cell_angle_beta	90.010797
_cell_angle_gamma	82.848712
loop_
_atom_site_label
_atom_site_type_symbol
_atom_site_fract_x
_atom_site_fract_y
_atom_site_fract_z
O1	O	0.069137	0.755256	0.085512
O2	O	0.569137	1.255256	0.585512
O3	O	0.079140	0.589393	0.085530
O4	O	0.579140	1.089393	0.585530
O5	O	-0.008793	0.677326	0.085502
O6	O	0.491207	1.177326	0.585502
O7	O	0.157070	0.667323	0.085541
O8	O	0.657070	1.167323	0.585541
O9	O	-0.008799	0.677325	-0.085632
O10	O	0.491201	1.177325	0.414368
O11	O	0.079134	0.589392	-0.085604
O12	O	0.579134	1.089392	0.414396
O13	O	0.069131	0.755255	-0.085622
O14	O	0.569131	1.255255	0.414378
Cu15	Cu	0.074132	0.672323	-0.101239
Cu16	Cu	0.574132	1.172323	0.398761
Cu17	Cu	0.074139	0.672325	0.101147
Cu18	Cu	0.574139	1.172325	0.601147
O19	O	0.157064	0.667322	-0.085593
O20	O	0.657064	1.167322	0.414407
C21	C	0.078882	0.568176	-0.000035
C22	C	0.578882	1.068176	0.499965
C23	C	0.078116	0.504959	-0.000029
C24	C	0.578116	1.004959	0.499971
C25	C	-0.030012	0.677071	-0.000068
C26	C	0.469988	1.177071	0.499932
C27	C	-0.093229	0.676305	-0.000076
C28	C	0.406771	1.176305	0.499924
C29	C	0.022921	0.238792	-0.000070
C30	C	0.522921	0.738792	0.499930
C31	C	0.023632	0.298192	-0.000069
C32	C	0.523632	0.798192	0.499931
O33	O	-0.020153	0.334937	-0.000115
O34	O	0.479847	0.834937	0.499885
N35	N	0.075909	0.320818	-0.000050
N36	N	0.575909	0.820818	0.499950
C37	C	0.127477	0.284041	-0.000042
C38	C	0.627477	0.784041	0.499958
O39	O	0.172007	0.308740	-0.000026
O40	O	0.672007	0.808740	0.499974
C41	C	0.126765	0.224642	-0.000050
C42	C	0.626765	0.724642	0.499950
C43	C	0.074485	0.202019	-0.000058
C44	C	0.574485	0.702019	0.499942
C45	C	-0.029354	0.216169	-0.000080
C46	C	0.470646	0.716169	0.499920
C47	C	-0.030066	0.156772	-0.000078
C48	C	0.469934	0.656772	0.499922
C49	C	0.021499	0.119999	-0.000067
C50	C	0.521499	0.619999	0.499933
C51	C	0.073774	0.142623	-0.000057
C52	C	0.573774	0.642623	0.499943
C53	C	0.178333	0.187865	-0.000049
C54	C	0.678333	0.687865	0.499951
C55	C	0.177616	0.128463	-0.000057
C56	C	0.677616	0.628463	0.499943
C57	C	0.125336	0.105840	-0.000066
C58	C	0.625336	0.605840	0.499934
C59	C	0.124627	0.046454	-0.000044
C60	C	0.624627	0.546454	0.499956
N61	N	0.072351	0.023828	-0.000063
N62	N	0.572351	0.523828	0.499937
C63	C	0.020787	0.060600	-0.000075
C64	C	0.520787	0.560600	0.499925
C65	C	0.128968	0.408783	-0.000027
C66	C	0.628968	0.908783	0.499973
C67	C	0.129681	0.468181	-0.000012
C68	C	0.629681	0.968181	0.499988
C69	C	0.025836	0.482328	-0.000042
C70	C	0.525836	0.982328	0.499958
C71	C	0.025124	0.422929	-0.000049
C72	C	0.525124	0.922929	0.499951
C73	C	0.076692	0.386157	-0.000047
C74	C	0.576692	0.886157	0.499953
C75	C	0.019297	-0.064136	-0.000071
C76	C	0.519297	0.435864	0.499929
C77	C	0.018590	-0.123538	-0.000065
C78	C	0.518590	0.376462	0.499935
C79	C	0.122435	-0.137680	-0.000041
C80	C	0.622435	0.362320	0.499959
C81	C	0.123142	-0.078284	-0.000041
C82	C	0.623142	0.421716	0.499959
C83	C	0.071568	-0.041512	-0.000060
C84	C	0.571568	0.458488	0.499940
O85	O	0.168390	0.009675	-0.000002
O86	O	0.668390	0.509675	0.499998
O87	O	-0.023737	0.035892	-0.000104
O88	O	0.476263	0.535892	0.499896
C89	C	-0.492332	0.723538	-0.000024
C90	C	0.007668	1.223538	0.499976
C91	C	-0.551733	0.722827	-0.000016
C92	C	-0.051733	1.222827	0.499984
O93	O	-0.588477	0.766613	0.000017
O94	O	-0.088477	1.266613	0.500017
N95	N	-0.574359	0.670551	-0.000012
N96	N	-0.074359	1.170551	0.499988
C97	C	-0.537581	0.618982	-0.000004
C98	C	-0.037581	1.118982	0.499996
O99	O	-0.562281	0.574452	0.000002
O100	O	-0.062281	1.074452	0.500002
C101	C	-0.478182	0.619695	-0.000005
C102	C	0.021818	1.119695	0.499995
C103	C	-0.455559	0.671974	-0.000020
C104	C	0.044441	1.171974	0.499980
C105	C	-0.469709	0.775814	-0.000038
C106	C	0.030291	1.275814	0.499962
C107	C	-0.410313	0.776525	-0.000048
C108	C	0.089687	1.276525	0.499952
C109	C	-0.373540	0.724961	-0.000044
C110	C	0.126460	1.224961	0.499956
C111	C	-0.396163	0.672685	-0.000030
C112	C	0.103837	1.172685	0.499970
C113	C	-0.441406	0.568127	0.000010
C114	C	0.058594	1.068127	0.500010
C115	C	-0.382003	0.568843	0.000010
C116	C	0.117997	1.068843	0.500010
C117	C	-0.359381	0.621123	-0.000005
C118	C	0.140619	1.121123	0.499995
C119	C	-0.299994	0.621832	-0.000035
C120	C	0.200006	1.121832	0.499965
N121	N	-0.277368	0.674109	-0.000040
N122	N	0.222632	1.174109	0.499960
C123	C	-0.314141	0.725673	-0.000044
C124	C	0.185859	1.225673	0.499956
C125	C	-0.662324	0.617491	-0.000001
C126	C	-0.162324	1.117491	0.499999
C127	C	-0.721722	0.616778	-0.000008
C128	C	-0.221722	1.116778	0.499992
C129	C	-0.735869	0.720623	-0.000018
C130	C	-0.235869	1.220623	0.499982
C131	C	-0.676470	0.721335	-0.000019
C132	C	-0.176470	1.221335	0.499981
C133	C	-0.639698	0.669767	-0.000006
C134	C	-0.139698	1.169767	0.499994
C135	C	-0.189404	0.727163	-0.000066
C136	C	0.310596	1.227163	0.499934
C137	C	-0.130002	0.727869	-0.000080
C138	C	0.369998	1.227869	0.499920
C139	C	-0.115860	0.624025	-0.000064
C140	C	0.384140	1.124025	0.499936
C141	C	-0.175257	0.623318	-0.000056
C142	C	0.324743	1.123318	0.499944
C143	C	-0.212028	0.674891	-0.000053
C144	C	0.287972	1.174891	0.499947
O145	O	-0.263215	0.578069	-0.000064
O146	O	0.236785	1.078069	0.499936
O147	O	-0.289433	0.770196	-0.000037
O148	O	0.210567	1.270196	0.499963
C149	C	0.178283	0.667577	-0.000021
C150	C	0.678283	1.167577	0.499979
C151	C	0.241500	0.668343	-0.000007
C152	C	0.741500	1.168343	0.499993
C153	C	0.069389	0.776472	-0.000054
C154	C	0.569389	1.276472	0.499946
C155	C	0.070155	0.839689	-0.000054
C156	C	0.570155	1.339689	0.499946
N157	N	0.074139	0.672326	0.243494
N158	N	0.574139	1.172326	0.743494
N159	N	0.074127	0.672326	-0.243586
N160	N	0.574127	1.172326	0.256414
C161	C	0.074134	0.672324	0.663308
C162	C	0.574134	1.172324	1.163308
C163	C	0.074137	0.672322	0.546503
C164	C	0.574137	1.172322	1.046503
C165	C	0.074136	0.672325	0.453405
C166	C	0.574136	1.172325	0.953405
C167	C	0.074140	0.672324	0.336592
C168	C	0.574140	1.172324	0.836592
H169	H	-0.023984	-0.141954	-0.000069
H170	H	0.476016	0.358046	0.499931
C171	C	-0.775775	0.776627	-0.000224
C172	C	-0.275775	1.276627	0.499776
C173	C	-0.765624	0.808123	-0.088283
C174	C	-0.265624	1.308123	0.411717
C175	C	-0.802381	0.859709	-0.088514
C176	C	-0.302381	1.359709	0.411486
H177	H	-0.768976	0.798145	0.059383
H178	H	-0.268976	1.298145	0.559383
H179	H	-0.814398	0.768734	-0.000273
H180	H	-0.314398	1.268734	0.499727
H181	H	-0.727010	0.816018	-0.088225
H182	H	-0.227010	1.316018	0.411775
H183	H	-0.772427	0.786623	-0.147904
H184	H	-0.272427	1.286623	0.352096
H185	H	-0.841004	0.851816	-0.088563
H186	H	-0.341004	1.351816	0.411437
H187	H	-0.795579	0.881222	-0.028903
H188	H	-0.295579	1.381222	0.471097
H189	H	-0.795502	0.881084	-0.148265
H190	H	-0.295502	1.381084	0.351735
H191	H	-0.740135	0.574207	-0.000013
H192	H	-0.240135	1.074207	0.499987
C193	C	-0.466033	0.511405	0.000200
C194	C	0.033967	1.011405	0.500200
C195	C	-0.499717	0.507970	0.088240
C196	C	0.000283	1.007970	0.588240
C197	C	-0.522417	0.455726	0.088447
C198	C	-0.022417	0.955726	0.588447
H199	H	-0.435676	0.480755	0.000263
H200	H	0.064324	0.980755	0.500263
H201	H	-0.488951	0.508950	-0.059442
H202	H	0.011049	1.008950	0.440558
H203	H	-0.476801	0.510419	0.147866
H204	H	0.023199	1.010419	0.647866
H205	H	-0.530084	0.538608	0.088195
H206	H	-0.030084	1.038608	0.588195
H207	H	-0.545334	0.453271	0.028805
H208	H	-0.045334	0.953271	0.528805
H209	H	-0.492056	0.425080	0.088507
H210	H	0.007944	0.925080	0.588507
H211	H	-0.545278	0.453391	0.148175
H212	H	-0.045278	0.953391	0.648175
H213	H	0.172252	0.486595	0.000009
H214	H	0.672252	0.986595	0.500009
C215	C	0.233589	0.088512	-0.000261
C216	C	0.733589	0.588512	0.499739
C217	C	0.236220	0.054009	-0.088317
C218	C	0.736220	0.554009	0.411683
C219	C	0.287776	0.017206	-0.088543
C220	C	0.787776	0.517206	0.411457
H221	H	0.235530	0.064991	0.059348
H222	H	0.735530	0.564991	0.559348
H223	H	0.264839	0.110477	-0.000310
H224	H	0.764839	0.610477	0.499690
H225	H	0.204978	0.032046	-0.088259
H226	H	0.704978	0.532046	0.411741
H227	H	0.234289	0.077514	-0.147940
H228	H	0.734289	0.577514	0.352060
H229	H	0.319026	0.039171	-0.088592
H230	H	0.819026	0.539171	0.411408
H231	H	0.289712	-0.006311	-0.028930
H232	H	0.789712	0.493689	0.471070
H233	H	0.289570	-0.006205	-0.148292
H234	H	0.789570	0.493795	0.351708
H235	H	-0.352065	0.526850	0.000022
H236	H	0.147935	1.026850	0.500022
C237	C	-0.229349	0.783138	0.000142
C238	C	0.270651	1.283138	0.500142
C239	C	-0.263842	0.785781	0.088203
C240	C	0.236158	1.285781	0.588203
C241	C	-0.300640	0.837340	0.088429
C242	C	0.199360	1.337340	0.588429
H243	H	-0.252877	0.785076	-0.059464
H244	H	0.247123	1.285076	0.440536
H245	H	-0.207381	0.814386	0.000187
H246	H	0.292619	1.314386	0.500187
H247	H	-0.285808	0.754542	0.088149
H248	H	0.214192	1.254542	0.588149
H249	H	-0.240330	0.783854	0.147823
H250	H	0.259670	1.283854	0.647823
H251	H	-0.278673	0.868588	0.088473
H252	H	0.221327	1.368588	0.588473
H253	H	-0.324164	0.839273	0.028819
H254	H	0.175836	1.339273	0.528819
H255	H	-0.324045	0.839142	0.148181
H256	H	0.175955	1.339142	0.648181
C257	C	0.184918	0.368794	0.000156
C258	C	0.684918	0.868794	0.500156
C259	C	0.187540	0.334267	0.088187
C260	C	0.687540	0.834267	0.588187
C261	C	0.239068	0.297422	0.088384
C262	C	0.739068	0.797422	0.588384
H263	H	0.216197	0.390710	0.000224
H264	H	0.716197	0.890710	0.500224
H265	H	0.186808	0.345296	-0.059491
H266	H	0.686808	0.845296	0.440509
H267	H	0.185655	0.357763	0.147819
H268	H	0.685655	0.857763	0.647819
H269	H	0.156273	0.312340	0.088138
H270	H	0.656273	0.812340	0.588138
H271	H	0.240958	0.273924	0.028736
H272	H	0.740958	0.773924	0.528736
H273	H	0.270343	0.319342	0.088449
H274	H	0.770343	0.819342	0.588449
H275	H	0.240852	0.273987	0.148106
H276	H	0.740852	0.773987	0.648106
H277	H	-0.499644	0.817806	-0.000038
H278	H	0.000356	1.317806	0.499962
H279	H	-0.072637	0.138359	-0.000090
H280	H	0.427363	0.638359	0.499910
C281	C	-0.385867	0.833346	-0.000002
C282	C	0.114133	1.333346	0.499998
C283	C	-0.430794	0.878345	0.000024
C284	C	0.069206	1.378345	0.500024
C285	C	-0.408301	0.930699	0.000084
C286	C	0.091699	1.430699	0.500084
H287	H	-0.363006	0.835869	-0.059665
H288	H	0.136994	1.335869	0.440335
H289	H	-0.363000	0.835816	0.059699
H290	H	0.137000	1.335816	0.559699
H291	H	-0.453651	0.875876	-0.059671
H292	H	0.046349	1.375876	0.440329
H293	H	-0.453659	0.875841	0.059682
H294	H	0.046341	1.375841	0.559682
H295	H	-0.385434	0.933169	0.059785
H296	H	0.114566	1.433169	0.559785
H297	H	-0.385440	0.933216	-0.059580
H298	H	0.114560	1.433216	0.440420
H299	H	-0.438780	0.961237	0.000111
H300	H	0.061220	1.461237	0.500111
H301	H	-0.632386	0.575496	0.000000
H302	H	-0.132386	1.075496	0.500000
C303	C	-0.105552	0.784692	-0.000039
C304	C	0.394448	1.284692	0.499961
C305	C	-0.150475	0.829695	-0.000009
C306	C	0.349525	1.329695	0.499991
C307	C	-0.127976	0.882046	0.000045
C308	C	0.372024	1.382046	0.500045
H309	H	-0.082693	0.787212	-0.059704
H310	H	0.417307	1.287212	0.440296
H311	H	-0.082683	0.787160	0.059660
H312	H	0.417317	1.287160	0.559660
H313	H	-0.173334	0.827228	-0.059702
H314	H	0.326666	1.327228	0.440298
H315	H	-0.173338	0.827194	0.059651
H316	H	0.326662	1.327194	0.559651
H317	H	-0.105106	0.884514	0.059744
H318	H	0.394894	1.384514	0.559744
H319	H	-0.105116	0.884560	-0.059621
H320	H	0.394884	1.384560	0.440379
H321	H	-0.158452	0.912587	0.000074
H322	H	0.341548	1.412587	0.500074
H323	H	-0.658055	0.763906	-0.000030
H324	H	-0.158055	1.263906	0.499970
C325	C	-0.199903	0.566601	0.000112
C326	C	0.300097	1.066601	0.500112
C327	C	-0.233585	0.563167	0.088155
C328	C	0.266415	1.063167	0.588155
C329	C	-0.256301	0.510931	0.088348
C330	C	0.243699	1.010931	0.588348
H331	H	-0.169553	0.535943	0.000162
H332	H	0.330447	1.035943	0.500162
H333	H	-0.222825	0.564159	-0.059527
H334	H	0.277175	1.064159	0.440473
H335	H	-0.210665	0.565603	0.147779
H336	H	0.289335	1.065603	0.647779
H337	H	-0.263944	0.593812	0.088123
H338	H	0.236056	1.093812	0.588123
H339	H	-0.279222	0.508489	0.028708
H340	H	0.220778	1.008489	0.528708
H341	H	-0.225947	0.480277	0.088395
H342	H	0.274053	0.980277	0.588395
H343	H	-0.279161	0.508596	0.148078
H344	H	0.220839	1.008596	0.648078
H345	H	0.220904	0.206274	-0.000037
H346	H	0.720904	0.706274	0.499963
C347	C	-0.075994	0.568000	0.000109
C348	C	0.424006	1.068000	0.500109
C349	C	-0.086171	0.536502	0.088152
C350	C	0.413829	1.036502	0.588152
C351	C	-0.049461	0.484886	0.088349
C352	C	0.450539	0.984886	0.588349
H353	H	-0.037360	0.575836	0.000160
H354	H	0.462640	1.075836	0.500160
H355	H	-0.082831	0.546511	-0.059530
H356	H	0.417169	1.046511	0.440470
H357	H	-0.079330	0.557986	0.147776
H358	H	0.420670	1.057986	0.647776
H359	H	-0.124798	0.528651	0.088120
H360	H	0.375202	1.028651	0.588120
H361	H	-0.056298	0.463398	0.028710
H362	H	0.443702	0.963398	0.528710
H363	H	-0.010829	0.492728	0.088398
H364	H	0.489171	0.992728	0.588398
H365	H	-0.056364	0.463506	0.148081
H366	H	0.443636	0.963506	0.648081
H367	H	0.165712	-0.059864	-0.000033
H368	H	0.665712	0.440136	0.499967
H369	H	-0.022699	-0.034204	-0.000085
H370	H	0.477301	0.465796	0.499915
H371	H	-0.017447	0.404515	-0.000057
H372	H	0.482553	0.904515	0.499943
C373	C	-0.085363	0.256060	0.000126
C374	C	0.414637	0.756060	0.500126
C375	C	-0.116843	0.245873	0.088179
C376	C	0.383157	0.745873	0.588179
C377	C	-0.168440	0.282611	0.088420
C378	C	0.331560	0.782611	0.588420
H379	H	-0.106884	0.249266	-0.059485
H380	H	0.393116	0.749266	0.440515
H381	H	-0.077486	0.294688	0.000191
H382	H	0.422514	0.794688	0.500191
H383	H	-0.124721	0.207254	0.088105
H384	H	0.375279	0.707254	0.588105
H385	H	-0.095338	0.252670	0.147805
H386	H	0.404662	0.752670	0.647805
H387	H	-0.160564	0.321239	0.088485
H388	H	0.339436	0.821239	0.588485
H389	H	-0.189957	0.275815	0.028805
H390	H	0.310043	0.775815	0.528805
H391	H	-0.189803	0.275708	0.148167
H392	H	0.310197	0.775708	0.648167
H393	H	-0.016150	0.512280	-0.000051
H394	H	0.483850	1.012280	0.499949
H395	H	0.164417	-0.167631	-0.000026
H396	H	0.664417	0.332369	0.499974
