data_functionalizedCrystal
_audit_creation_method	'MofGen! by Chris Wilmer'
_symmetry_space_group_name_H-M	'P1'
_symmetry_Int_Tables_number	1
_symmetry_cell_setting	triclinic
loop_
_symmetry_equiv_pos_as_xyz
  x,y,z
_cell_length_a	13.032831
_cell_length_b	13.897448
_cell_length_c	13.032268
_cell_angle_alpha	97.148041
_cell_angle_beta	90.886977
_cell_angle_gamma	82.822399
loop_
_atom_site_label
_atom_site_type_symbol
_atom_site_fract_x
_atom_site_fract_y
_atom_site_fract_z
Zn1	Zn	1.498483	-0.651422	-0.780818
Zn2	Zn	1.831816	-0.318089	-0.447485
Zn3	Zn	2.165149	0.015244	-0.114152
Zn4	Zn	1.520226	-0.795137	-0.608835
Zn5	Zn	1.853559	-0.461804	-0.275501
Zn6	Zn	2.186892	-0.128471	0.057832
Zn7	Zn	1.348341	-0.611127	-0.587060
Zn8	Zn	1.681674	-0.277794	-0.253727
Zn9	Zn	2.015008	0.055539	0.079606
Zn10	Zn	1.326474	-0.789922	-0.758960
Zn11	Zn	1.659807	-0.456589	-0.425627
Zn12	Zn	1.993141	-0.123255	-0.092293
O13	O	1.423381	-0.711902	-0.683918
O14	O	1.756714	-0.378569	-0.350585
O15	O	2.090048	-0.045236	-0.017252
O16	O	1.645288	-0.689533	-0.776265
O17	O	1.978621	-0.356199	-0.442931
O18	O	2.311954	-0.022866	-0.109598
O19	O	1.515676	-0.756047	-0.462030
O20	O	1.849009	-0.422714	-0.128697
O21	O	2.182343	-0.089380	0.204637
O22	O	1.368309	-0.481501	-0.612798
O23	O	1.701643	-0.148168	-0.279465
O24	O	2.034976	0.185166	0.053869
O25	O	1.661262	-0.795119	-0.649909
O26	O	1.994596	-0.461786	-0.316576
O27	O	2.327929	-0.128453	0.016758
O28	O	1.478618	-0.511106	-0.755151
O29	O	1.811951	-0.177772	-0.421818
O30	O	2.145285	0.155561	-0.088484
O31	O	1.389393	-0.620856	-0.446032
O32	O	1.722726	-0.287522	-0.112699
O33	O	2.056059	0.045811	0.220634
O34	O	1.201520	-0.615798	-0.591603
O35	O	1.534853	-0.282465	-0.258269
O36	O	1.868186	0.050868	0.075064
O37	O	1.331040	-0.786231	-0.905776
O38	O	1.664374	-0.452897	-0.572443
O39	O	1.997707	-0.119564	-0.239109
O40	O	1.185454	-0.747158	-0.717897
O41	O	1.518787	-0.413825	-0.384563
O42	O	1.852121	-0.080492	-0.051230
O43	O	1.457414	-0.684476	-0.921835
O44	O	1.790748	-0.351142	-0.588502
O45	O	2.124081	-0.017809	-0.255169
O46	O	1.494472	-0.929417	-0.628714
O47	O	1.827806	-0.596084	-0.295381
O48	O	2.161139	-0.262750	0.037953
O49	O	1.352124	-0.925585	-0.739010
O50	O	1.685457	-0.592252	-0.405677
O51	O	2.018790	-0.258919	-0.072344
C52	C	1.156170	-0.676541	-0.650016
C53	C	1.489503	-0.343207	-0.316682
C54	C	1.822836	-0.009874	0.016651
C55	C	1.041852	-0.661439	-0.635536
C56	C	1.375186	-0.328105	-0.302203
C57	C	1.708519	0.005228	0.031130
C58	C	0.982977	-0.719784	-0.691475
C59	C	1.316310	-0.386451	-0.358142
C60	C	1.649643	-0.053118	-0.024809
C61	C	0.864824	-0.704177	-0.676511
C62	C	1.198157	-0.370844	-0.343178
C63	C	1.531490	-0.037510	-0.009845
C64	C	1.423310	-0.962504	-0.683879
C65	C	1.756643	-0.629170	-0.350546
C66	C	2.089976	-0.295837	-0.017212
C67	C	1.423369	-1.069728	-0.683909
C68	C	1.756702	-0.736395	-0.350575
C69	C	2.090035	-0.403061	-0.017242
C70	C	1.423469	-1.266044	-0.683987
C71	C	1.756802	-0.932710	-0.350653
C72	C	2.090135	-0.599377	-0.017320
C73	C	1.423410	-1.156800	-0.683946
C74	C	1.756743	-0.823466	-0.350613
C75	C	2.090076	-0.490133	-0.017279
C76	C	1.691635	-0.747403	-0.717954
C77	C	2.024969	-0.414069	-0.384621
C78	C	2.358302	-0.080736	-0.051287
C79	C	1.805950	-0.762531	-0.732458
C80	C	2.139283	-0.429197	-0.399125
C81	C	2.472616	-0.095864	-0.065791
C82	C	1.389363	-0.739266	-0.952165
C83	C	1.722696	-0.405933	-0.618832
C84	C	2.056029	-0.072600	-0.285498
C85	C	1.374866	-0.750927	-1.066476
C86	C	1.708200	-0.417594	-0.733142
C87	C	2.041533	-0.084260	-0.399809
C88	C	1.423478	-0.460328	-0.683984
C89	C	1.756811	-0.126995	-0.350651
C90	C	2.090144	0.206338	-0.017317
C91	C	1.423519	-0.353122	-0.684012
C92	C	1.756852	-0.019789	-0.350678
C93	C	2.090185	0.313544	-0.017345
C94	C	1.430931	-0.705779	-1.125385
C95	C	1.764264	-0.372446	-0.792051
C96	C	2.097597	-0.039113	-0.458718
C97	C	1.415949	-0.717831	-1.243531
C98	C	1.749283	-0.384497	-0.910197
C99	C	2.082616	-0.051164	-0.576864
C100	C	1.457326	-0.684583	-0.416723
C101	C	1.790659	-0.351250	-0.083390
C102	C	2.123992	-0.017916	0.249944
C103	C	1.472021	-0.672677	-0.302438
C104	C	1.805355	-0.339343	0.030895
C105	C	2.138688	-0.006010	0.364229
H106	H	1.004785	-0.599929	-0.576571
H107	H	1.338119	-0.266595	-0.243238
H108	H	1.671452	0.066738	0.090095
H109	H	1.531110	-0.625093	-1.265411
H110	H	1.864444	-0.291759	-0.932077
H111	H	2.197777	0.041574	-0.598744
O112	O	1.337663	-0.780848	-1.292564
O113	O	1.670996	-0.447515	-0.959231
O114	O	2.004329	-0.114181	-0.625898
H115	H	1.377510	-0.840973	-1.347334
H116	H	1.710843	-0.507640	-1.014001
H117	H	2.044176	-0.174306	-0.680667
H118	H	1.490017	-0.658201	-1.088351
H119	H	1.823350	-0.324868	-0.755018
H120	H	2.156684	0.008465	-0.421685
H121	H	1.020043	-0.781288	-0.750448
H122	H	1.353376	-0.447954	-0.417115
H123	H	1.686709	-0.114621	-0.083781
O124	O	1.296587	-0.813945	-1.115513
O125	O	1.629921	-0.480612	-0.782180
O126	O	1.963254	-0.147279	-0.448846
H127	H	1.297107	-0.813525	-1.200615
H128	H	1.630441	-0.480191	-0.867282
H129	H	1.963774	-0.146858	-0.533948
H130	H	0.827761	-0.642663	-0.617542
H131	H	1.161094	-0.309329	-0.284209
H132	H	1.494428	0.024004	0.049124
H133	H	0.843009	-0.824037	-0.791438
H134	H	1.176343	-0.490703	-0.458105
H135	H	1.509676	-0.157370	-0.124771
