data_functionalizedCrystal
_audit_creation_method	'MofGen! by Chris Wilmer'
_symmetry_space_group_name_H-M	'P1'
_symmetry_Int_Tables_number	1
_symmetry_cell_setting	triclinic
loop_
_symmetry_equiv_pos_as_xyz
  x,y,z
_cell_length_a	34.571875
_cell_length_b	34.571051
_cell_length_c	34.567439
_cell_angle_alpha	60.004367
_cell_angle_beta	60.008842
_cell_angle_gamma	59.994195
loop_
_atom_site_label
_atom_site_type_symbol
_atom_site_fract_x
_atom_site_fract_y
_atom_site_fract_z
O1	O	0.053721	-0.565181	0.472559
O2	O	0.553721	-0.065181	0.972559
O3	O	0.020283	-0.440038	0.380761
O4	O	0.520283	0.059962	0.880761
O5	O	0.099534	-0.519209	0.380676
O6	O	0.599534	-0.019209	0.880676
O7	O	-0.025530	-0.486010	0.472643
O8	O	0.474470	0.013990	0.972643
O9	O	0.125831	-0.492917	0.406885
O10	O	0.625831	0.007083	0.906885
O11	O	0.046580	-0.413746	0.406969
O12	O	0.546580	0.086254	0.906969
O13	O	0.080018	-0.538889	0.498767
O14	O	0.580018	-0.038889	0.998767
Zn15	Zn	0.067475	-0.472143	0.457030
Zn16	Zn	0.567475	0.027857	0.957030
Zn17	Zn	0.032827	-0.506784	0.422498
Zn18	Zn	0.532827	-0.006784	0.922498
O19	O	0.000767	-0.459718	0.498852
O20	O	0.500767	0.040282	0.998852
N21	N	0.091122	-0.448505	0.480598
N22	N	0.591122	0.051495	0.980598
N23	N	0.009184	-0.530426	0.398930
N24	N	0.509184	-0.030426	0.898930
C25	C	0.124402	-0.415465	0.717633
C26	C	0.624402	0.084535	1.217633
C27	C	0.328327	-0.415388	0.513477
C28	C	0.828327	0.084612	1.013477
C29	C	0.124221	-0.415437	0.513630
C30	C	0.624221	0.084563	1.013630
C31	C	0.124201	-0.211364	0.513624
C32	C	0.624201	0.288636	1.013624
C33	C	0.157075	-0.309853	0.546423
C34	C	0.657075	0.190147	1.046423
C35	C	0.157084	-0.382601	0.546423
C36	C	0.657084	0.117399	1.046423
C37	C	0.175289	-0.364414	0.564591
C38	C	0.675289	0.135586	1.064591
C39	C	0.254624	-0.350722	0.522790
C40	C	0.754624	0.149278	1.022790
C41	C	0.304220	-0.367243	0.506229
C42	C	0.804220	0.132757	1.006229
C43	C	0.304249	-0.447494	0.536832
C44	C	0.804249	0.052506	1.036832
C45	C	0.254655	-0.430972	0.553394
C46	C	0.754655	0.069028	1.053394
C47	C	0.169014	-0.285043	0.497667
C48	C	0.669014	0.214957	0.997667
C49	C	0.152454	-0.235444	0.481153
C50	C	0.652454	0.264556	0.981153
C51	C	0.112020	-0.235469	0.562154
C52	C	0.612020	0.264531	1.062154
C53	C	0.128580	-0.285068	0.578668
C54	C	0.628580	0.214932	1.078668
C55	C	0.108321	-0.370634	0.558439
C56	C	0.608321	0.129366	1.058439
C57	C	0.091776	-0.387168	0.541918
C58	C	0.591776	0.112832	1.041918
C59	C	0.172754	-0.427637	0.501375
C60	C	0.672754	0.072363	1.001375
C61	C	0.189301	-0.411103	0.517891
C62	C	0.689301	0.088897	1.017891
C63	C	0.108399	-0.370649	0.643978
C64	C	0.608399	0.129351	1.143978
C65	C	0.091911	-0.387197	0.693575
C66	C	0.591911	0.112803	1.193575
C67	C	0.172928	-0.427676	0.693511
C68	C	0.672928	0.072324	1.193511
C69	C	0.189415	-0.411128	0.643912
C70	C	0.689415	0.088872	1.143912
C71	C	0.157149	-0.382613	0.619147
C72	C	0.657149	0.117387	1.119147
C73	C	0.229844	-0.382585	0.546371
C74	C	0.729844	0.117415	1.046371
C75	C	0.105624	-0.433333	0.772186
C76	C	0.605624	0.066667	1.272186
C77	C	0.382878	-0.432925	0.495007
C78	C	0.882878	0.067075	0.995007
C79	C	0.105380	-0.433313	0.495792
C80	C	0.605380	0.066687	0.995792
C81	C	0.105683	-0.156808	0.496094
C82	C	0.605683	0.343192	0.996094
C83	C	-0.023527	-0.563458	0.161535
C84	C	0.476473	-0.063458	0.661535
C85	C	-0.023851	-0.767445	0.365663
C86	C	0.476149	-0.267445	0.865663
C87	C	-0.023821	-0.563448	0.365756
C88	C	0.476179	-0.063448	0.865756
C89	C	-0.227785	-0.563229	0.365355
C90	C	0.272215	-0.063229	0.865355
C91	C	-0.129302	-0.596153	0.332678
C92	C	0.370698	-0.096153	0.832678
C93	C	-0.056593	-0.596234	0.332823
C94	C	0.443407	-0.096234	0.832823
C95	C	-0.074746	-0.614396	0.314578
C96	C	0.425254	-0.114396	0.814578
C97	C	-0.088477	-0.693710	0.356299
C98	C	0.411523	-0.193710	0.856299
C99	C	-0.071982	-0.743310	0.372851
C100	C	0.428018	-0.243310	0.872851
C101	C	0.008266	-0.743392	0.342376
C102	C	0.508266	-0.243392	0.842376
C103	C	-0.008230	-0.693794	0.325823
C104	C	0.491770	-0.193794	0.825823
C105	C	-0.154162	-0.608103	0.381422
C106	C	0.345838	-0.108103	0.881422
C107	C	-0.203757	-0.591517	0.397874
C108	C	0.296243	-0.091517	0.897874
C109	C	-0.203630	-0.551037	0.316836
C110	C	0.296370	-0.051037	0.816836
C111	C	-0.154034	-0.567623	0.300384
C112	C	0.345966	-0.067623	0.800384
C113	C	-0.068543	-0.547475	0.320829
C114	C	0.431457	-0.047475	0.820829
C115	C	-0.052041	-0.530969	0.337421
C116	C	0.447959	-0.030969	0.837421
C117	C	-0.011639	-0.611977	0.377990
C118	C	0.488361	-0.111977	0.877990
C119	C	-0.028141	-0.628485	0.361404
C120	C	0.471859	-0.128485	0.861404
C121	C	-0.068417	-0.547482	0.235199
C122	C	0.431583	-0.047482	0.735199
C123	C	-0.051814	-0.530977	0.185602
C124	C	0.448186	-0.030977	0.685602
C125	C	-0.011349	-0.611990	0.185649
C126	C	0.488651	-0.111990	0.685649
C127	C	-0.027951	-0.628493	0.235248
C128	C	0.472049	-0.128493	0.735248
C129	C	-0.056486	-0.596238	0.260022
C130	C	0.443514	-0.096238	0.760022
C131	C	-0.056602	-0.668955	0.332787
C132	C	0.443398	-0.168955	0.832787
C133	C	-0.005599	-0.544662	0.106983
C134	C	0.494401	-0.044662	0.606983
C135	C	-0.006342	-0.821999	0.384121
C136	C	0.493658	-0.321999	0.884121
C137	C	-0.005979	-0.544649	0.383673
C138	C	0.494021	-0.044649	0.883673
C139	C	-0.282336	-0.544682	0.382817
C140	C	0.217664	-0.044682	0.882817
N141	N	0.427518	-0.448428	0.480350
N142	N	0.927518	0.051572	0.980350
O143	O	0.589573	-0.456297	0.363634
O144	O	1.089573	0.043703	0.863634
O145	O	0.589761	-0.548399	0.488643
O146	O	1.089761	-0.048399	0.988643
O147	O	0.589681	-0.548188	0.409364
O148	O	1.089681	-0.048188	0.909364
O149	O	0.589654	-0.456508	0.442913
O150	O	1.089654	0.043492	0.942913
O151	O	0.510890	-0.521988	0.435708
O152	O	1.010890	-0.021988	0.935708
O153	O	0.510970	-0.522199	0.514987
O154	O	1.010970	-0.022199	1.014987
O155	O	0.510782	-0.430098	0.389978
O156	O	1.010782	0.069902	0.889978
Zn157	Zn	0.498366	-0.471989	0.456665
Zn158	Zn	0.998366	0.028011	0.956665
Zn159	Zn	0.602177	-0.506508	0.421956
Zn160	Zn	1.102177	-0.006508	0.921956
O161	O	0.510862	-0.430308	0.469257
O162	O	1.010862	0.069692	0.969257
N163	N	0.673025	-0.530068	0.398267
N164	N	1.173025	-0.030068	0.898267
N165	N	0.091092	-0.112167	0.480590
N166	N	0.591092	0.387833	0.980590
O167	O	-0.025539	0.049976	0.472612
O168	O	0.474461	0.549976	0.972612
O169	O	0.099472	0.050011	0.380491
O170	O	0.599472	0.550011	0.880491
O171	O	0.020155	0.049979	0.380751
O172	O	0.520155	0.549979	0.880751
O173	O	0.053778	0.050009	0.472352
O174	O	0.553778	0.550009	0.972352
O175	O	0.046458	-0.028818	0.407008
O176	O	0.546458	0.471182	0.907008
O177	O	0.125775	-0.028785	0.406748
O178	O	0.625775	0.471215	0.906748
O179	O	0.000764	-0.028821	0.498869
O180	O	0.500764	0.471179	0.998869
Zn181	Zn	0.067445	-0.041314	0.456977
Zn182	Zn	0.567445	0.458686	0.956977
Zn183	Zn	0.032791	0.062504	0.422382
Zn184	Zn	0.532791	0.562504	0.922382
O185	O	0.080081	-0.028788	0.498609
O186	O	0.580081	0.471212	0.998609
N187	N	0.009138	0.133358	0.398771
N188	N	0.509138	0.633358	0.898771
N189	N	0.091421	-0.448552	0.816827
N190	N	0.591421	0.051448	1.316827
O191	O	0.083469	-0.565164	0.978960
O192	O	0.583469	-0.065164	1.478960
O193	O	-0.008614	-0.440110	0.979002
O194	O	0.491386	0.059890	1.479002
O195	O	-0.008399	-0.519410	0.978978
O196	O	0.491601	-0.019410	1.478978
O197	O	0.083253	-0.485863	0.978984
O198	O	0.583253	0.014137	1.478984
O199	O	0.017837	-0.493128	0.900185
O200	O	0.517837	0.006872	1.400185
O201	O	0.017621	-0.413827	0.900208
O202	O	0.517621	0.086173	1.400208
O203	O	0.109704	-0.538881	0.900167
O204	O	0.609704	-0.038881	1.400167
Zn205	Zn	0.067828	-0.472181	0.887677
Zn206	Zn	0.567828	0.027819	1.387677
Zn207	Zn	0.033262	-0.506810	0.991491
Zn208	Zn	0.533262	-0.006810	1.491491
O209	O	0.109489	-0.459581	0.900191
O210	O	0.609489	0.040419	1.400191
N211	N	0.009668	-0.530444	1.062341
N212	N	0.509668	-0.030444	1.562341
C213	C	0.030297	-0.411123	0.381218
C214	C	0.530297	0.088877	0.881218
C215	C	0.128439	-0.509167	0.381113
C216	C	0.628439	-0.009167	0.881113
C217	C	0.070004	-0.567805	0.498310
C218	C	0.570004	-0.067805	0.998310
C219	C	-0.028138	-0.469761	0.498415
C220	C	0.471862	0.030239	0.998415
C221	C	0.550388	-0.547982	0.517564
C222	C	1.050388	-0.047982	1.017564
C223	C	0.550290	-0.547721	0.419387
C224	C	1.050290	-0.047721	0.919387
C225	C	0.550153	-0.430514	0.361058
C226	C	1.050153	0.069486	0.861058
C227	C	0.550253	-0.430775	0.459234
C228	C	1.050253	0.069225	0.959234
C229	C	0.128339	0.010714	0.380902
C230	C	0.628339	0.510714	0.880902
C231	C	0.030148	0.010577	0.381256
C232	C	0.530148	0.510577	0.881256
C233	C	-0.028136	0.010574	0.498426
C234	C	0.471864	0.510574	0.998426
C235	C	0.070089	0.010613	0.498104
C236	C	0.570089	0.510613	0.998104
C237	C	-0.008178	-0.411214	0.939610
C238	C	0.491822	0.088786	1.439610
C239	C	-0.007906	-0.509413	0.939566
C240	C	0.492094	-0.009413	1.439566
C241	C	0.109268	-0.567777	0.939558
C242	C	0.609268	-0.067777	1.439558
C243	C	0.109002	-0.469572	0.939586
C244	C	0.609002	0.030428	1.439586
H245	H	0.082121	-0.347425	0.623816
H246	H	0.582121	0.152575	1.123816
H247	H	0.022945	0.010574	0.352477
H248	H	0.522945	0.510574	0.852477
O249	O	-0.075719	-0.460393	0.536669
O250	O	0.424281	0.039607	1.036669
H251	H	-0.075775	-0.492456	0.568817
H252	H	0.424225	0.007544	1.068817
O253	O	0.550455	-0.586285	0.565120
O254	O	1.050455	-0.086285	1.065120
H255	H	0.550471	-0.572888	0.588351
H256	H	1.050471	-0.072888	1.088351
H257	H	0.550303	-0.576522	0.412207
H258	H	1.050303	-0.076522	0.912207
H259	H	0.077290	0.010621	0.526881
H260	H	0.577290	0.510621	1.026881
O261	O	0.550086	-0.392210	0.313501
O262	O	1.050086	0.107790	0.813501
H263	H	0.550078	-0.405610	0.290268
H264	H	1.050078	0.094390	0.790268
H265	H	-0.064037	0.010563	0.527345
H266	H	0.435963	0.510563	1.027345
O267	O	0.207506	-0.458355	0.470581
O268	O	0.707506	0.041645	0.970581
H269	H	0.187810	-0.467837	0.461105
H270	H	0.687810	0.032163	0.961105
H271	H	-0.036687	-0.516580	0.939532
H272	H	0.463313	-0.016580	1.439532
H273	H	0.138179	-0.603691	0.939539
H274	H	0.638179	-0.103691	1.439539
H275	H	0.550247	-0.401977	0.466412
H276	H	1.050247	0.098023	0.966412
O277	O	-0.046476	-0.363644	0.939636
O278	O	0.453524	0.136356	1.439636
H279	H	-0.078595	-0.363620	0.939639
H280	H	0.421405	0.136380	1.439639
H281	H	0.077150	-0.603753	0.527142
H282	H	0.577150	-0.103753	1.027142
O283	O	0.147146	-0.460070	0.939583
O284	O	0.647146	0.039930	1.439583
H285	H	0.155725	-0.429870	0.907472
H286	H	0.655725	0.070130	1.407472
O287	O	0.039327	-0.374279	0.720354
O288	O	0.539327	0.125721	1.220354
H289	H	0.019664	-0.351666	0.694798
H290	H	0.519664	0.148334	1.194798
O291	O	-0.127216	-0.554735	0.247807
O292	O	0.372784	-0.054735	0.747807
H293	H	-0.136703	-0.568061	0.231519
H294	H	0.363297	-0.068061	0.731519
O295	O	0.207728	-0.458464	0.720221
O296	O	0.707728	0.041536	1.220221
H297	H	0.244397	-0.464019	0.694619
H298	H	0.744397	0.035981	1.194619
O299	O	0.241998	-0.424032	0.617129
O300	O	0.741998	0.075968	1.117129
H301	H	0.261662	-0.446633	0.642684
H302	H	0.761662	0.053367	1.142684
O303	O	0.175789	0.010999	0.342477
O304	O	0.675789	0.510999	0.842477
H305	H	0.182356	0.043188	0.333847
H306	H	0.682356	0.543188	0.833847
O307	O	0.073570	-0.339900	0.589218
O308	O	0.573570	0.160100	1.089218
H309	H	0.050952	-0.307139	0.569558
H310	H	0.550952	0.192861	1.069558
O311	O	0.039181	-0.374267	0.554878
O312	O	0.539181	0.125733	1.054878
H313	H	0.019557	-0.351676	0.577498
H314	H	0.519557	0.148324	1.077498
H315	H	0.229008	-0.420842	0.508101
H316	H	0.729008	0.079158	1.008101
O317	O	0.081301	-0.208735	0.596932
O318	O	0.581301	0.291265	1.096932
H319	H	0.071796	-0.170078	0.577256
H320	H	0.571796	0.329922	1.077256
H321	H	0.234479	-0.456922	0.572596
H322	H	0.734479	0.043078	1.072596
H323	H	-0.061536	-0.491273	0.165398
H324	H	0.438464	0.008727	0.665398
O325	O	0.331016	-0.499684	0.544404
O326	O	0.831016	0.000316	1.044404
H327	H	0.305452	-0.519067	0.563589
H328	H	0.805452	-0.019067	1.063589
H329	H	0.234427	-0.311322	0.517070
H330	H	0.734427	0.188678	1.017070
O331	O	0.330950	-0.332877	0.480797
O332	O	0.830950	0.167123	0.980797
H333	H	0.321405	-0.306356	0.448609
H334	H	0.821405	0.193644	0.948609
O335	O	0.199744	-0.311778	0.462893
O336	O	0.699744	0.188222	0.962893
H337	H	0.205257	-0.286192	0.426214
H338	H	0.705257	0.213808	0.926214
O339	O	0.165332	-0.208678	0.428563
O340	O	0.665332	0.291322	0.928563
H341	H	0.187932	-0.234245	0.408916
H342	H	0.687932	0.265755	0.908916
H343	H	0.118851	-0.305270	0.618371
H344	H	0.618851	0.194730	1.118371
H345	H	0.011877	-0.638258	0.165483
H346	H	0.511877	-0.138258	0.665483
O347	O	-0.099192	-0.512691	0.261922
O348	O	0.400808	-0.012691	0.761922
H349	H	-0.104697	-0.476014	0.236329
H350	H	0.395303	0.023986	0.736329
O351	O	0.176019	-0.518535	0.342858
O352	O	0.676019	-0.018535	0.842858
H353	H	0.176073	-0.486475	0.310707
H354	H	0.676073	0.013525	0.810707
H355	H	-0.091707	-0.521211	0.297556
H356	H	0.408293	-0.021211	0.797556
O357	O	-0.015080	-0.681084	0.262021
O358	O	0.484920	-0.181084	0.762021
H359	H	-0.028405	-0.697312	0.252466
H360	H	0.471595	-0.197312	0.752466
O361	O	-0.064844	-0.478379	0.324407
O362	O	0.435156	0.021621	0.824407
H363	H	-0.087367	-0.458725	0.301712
H364	H	0.412633	0.041275	0.801712
H365	H	0.011532	-0.638242	0.401256
H366	H	0.511532	-0.138242	0.901256
H367	H	0.017729	-0.673638	0.306677
H368	H	0.517729	-0.173638	0.806677
O369	O	-0.015251	-0.681075	0.374331
O370	O	0.484749	-0.181075	0.874331
H371	H	0.007310	-0.700730	0.396988
H372	H	0.507310	-0.200730	0.896988
O373	O	0.060439	-0.770190	0.334873
O374	O	0.560439	-0.270190	0.834873
H375	H	0.080661	-0.760701	0.296342
H376	H	0.580661	-0.260701	0.796342
O377	O	-0.106359	-0.770014	0.398213
O378	O	0.393641	-0.270014	0.898213
H379	H	-0.132907	-0.760475	0.430394
H380	H	0.367093	-0.260475	0.930394
O381	O	-0.140650	-0.666920	0.363810
O382	O	0.359350	-0.166920	0.863810
H383	H	-0.160042	-0.692470	0.382940
H384	H	0.339958	-0.192470	0.882940
O385	O	-0.127474	-0.638879	0.416242
O386	O	0.372526	-0.138879	0.916242
H387	H	-0.137007	-0.619191	0.438840
H388	H	0.362993	-0.119191	0.938840
O389	O	-0.230588	-0.604406	0.450449
O390	O	0.269412	-0.104406	0.950449
H391	H	-0.221107	-0.591089	0.466752
H392	H	0.278893	-0.091089	0.966752
O393	O	-0.230312	-0.520265	0.282009
O394	O	0.269688	-0.020265	0.782009
H395	H	-0.220771	-0.539956	0.259410
H396	H	0.279229	-0.039956	0.759410
O397	O	0.020838	-0.363507	0.343021
O398	O	0.520838	0.136493	0.843021
H399	H	-0.015811	-0.340353	0.356529
H400	H	0.484189	0.159647	0.856529
