data_functionalizedCrystal
_audit_creation_method	'MofGen! by Chris Wilmer'
_symmetry_space_group_name_H-M	'P1'
_symmetry_Int_Tables_number	1
_symmetry_cell_setting	triclinic
loop_
_symmetry_equiv_pos_as_xyz
  x,y,z
_cell_length_a	12.759401
_cell_length_b	13.032721
_cell_length_c	13.034296
_cell_angle_alpha	89.133654
_cell_angle_beta	82.799640
_cell_angle_gamma	82.795696
loop_
_atom_site_label
_atom_site_type_symbol
_atom_site_fract_x
_atom_site_fract_y
_atom_site_fract_z
Zn1	Zn	1.644296	0.335524	-0.633413
Zn2	Zn	1.600237	0.529374	-0.483273
Zn3	Zn	1.443834	0.357417	-0.461465
Zn4	Zn	1.449398	0.507458	-0.655199
O5	O	1.534441	0.432443	-0.558338
O6	O	1.785472	0.361248	-0.613506
O7	O	1.558723	0.524898	-0.336468
O8	O	1.486536	0.210592	-0.466030
O9	O	1.753103	0.503669	-0.503199
O10	O	1.633814	0.194508	-0.592360
O11	O	1.443814	0.398561	-0.320446
O12	O	1.297551	0.377310	-0.487155
O13	O	1.496018	0.466317	-0.796222
O14	O	1.301639	0.487545	-0.629491
O15	O	1.639209	0.339997	-0.780216
O16	O	1.564118	0.670387	-0.524324
O17	O	1.453297	0.654285	-0.650637
C18	C	1.261474	0.432426	-0.558322
C19	C	1.144698	0.432440	-0.558342
C20	C	1.091964	0.489959	-0.632361
C21	C	0.982241	0.489970	-0.632374
C22	C	0.977992	0.374943	-0.484340
C23	C	1.087716	0.374927	-0.484332
C24	C	1.148947	0.547472	-0.706370
C25	C	1.096213	0.604997	-0.780394
C26	C	0.986489	0.605008	-0.780407
C27	C	0.929499	0.547496	-0.706396
C28	C	1.504562	0.699650	-0.592234
C29	C	1.491880	0.813958	-0.606769
C30	C	1.573149	0.398270	-0.826577
C31	C	1.589644	0.383708	-0.940885
C32	C	1.808474	0.432461	-0.558355
C33	C	1.925251	0.432469	-0.558362
C34	C	1.564469	0.164190	-0.524332
C35	C	1.577265	0.049876	-0.509841
C36	C	1.541122	0.872846	-0.550798
C37	C	1.528016	0.990990	-0.565820
C38	C	1.526150	0.439716	-0.999766
C39	C	1.543196	0.424666	-1.117909
C40	C	1.495953	0.466409	-0.291133
C41	C	1.479694	0.480682	-0.176789
H42	H	1.238289	0.547472	-0.706367
H43	H	1.656627	0.324619	-0.977939
H44	H	1.130654	0.328081	-0.424067
Cl45	Cl	1.167857	0.677287	-0.873437
Cl46	Cl	1.411816	0.871148	-0.697929
H47	H	1.459174	0.498812	-0.962713
Cl48	Cl	1.646622	0.333430	-1.175105
H49	H	1.412712	0.539782	-1.139741
Cl50	Cl	0.791561	0.547503	-0.706422
Cl51	Cl	0.906346	0.302651	-0.391302
Cl52	Cl	0.920200	0.677313	-0.873471
Cl53	Cl	1.621201	0.815655	-0.459650
H54	H	1.476158	1.028033	-0.624867
H55	H	1.629133	1.012833	-0.450802
