data_functionalizedCrystal
_audit_creation_method	'MofGen! by Chris Wilmer'
_symmetry_space_group_name_H-M	'P1'
_symmetry_Int_Tables_number	1
_symmetry_cell_setting	triclinic
loop_
_symmetry_equiv_pos_as_xyz
  x,y,z
_cell_length_a	13.897448
_cell_length_b	12.759395
_cell_length_c	13.897441
_cell_angle_alpha	89.980870
_cell_angle_beta	90.029627
_cell_angle_gamma	89.981744
loop_
_atom_site_label
_atom_site_type_symbol
_atom_site_fract_x
_atom_site_fract_y
_atom_site_fract_z
Zn1	Zn	-0.383979	-1.606214	0.545395
Zn2	Zn	0.116021	-1.106214	1.045395
Zn3	Zn	-0.545298	-1.606105	0.384096
Zn4	Zn	-0.045298	-1.106105	0.884096
Zn5	Zn	-0.384020	-1.430522	0.384112
Zn6	Zn	0.115980	-0.930522	0.884112
Zn7	Zn	-0.545235	-1.430496	0.545347
Zn8	Zn	-0.045235	-0.930496	1.045347
O9	O	-0.464633	-1.518334	0.464738
O10	O	0.035367	-1.018334	0.964738
O11	O	-0.405387	-1.753221	0.524012
O12	O	0.094613	-1.253221	1.024012
O13	O	-0.523947	-1.582779	0.249117
O14	O	-0.023947	-1.082779	0.749117
O15	O	-0.249033	-1.453885	0.405533
O16	O	0.250967	-0.953885	0.905533
O17	O	-0.523908	-1.753141	0.405506
O18	O	-0.023908	-1.253141	0.905506
O19	O	-0.249003	-1.582965	0.524027
O20	O	0.250997	-1.082965	1.024027
O21	O	-0.405457	-1.453779	0.249128
O22	O	0.094543	-0.953779	0.749128
O23	O	-0.405397	-1.283497	0.405487
O24	O	0.094603	-0.783497	0.905487
O25	O	-0.523801	-1.453840	0.680335
O26	O	-0.023801	-0.953840	1.180335
O27	O	-0.523841	-1.283478	0.523946
O28	O	-0.023841	-0.783478	1.023946
O29	O	-0.405326	-1.582939	0.680370
O30	O	0.094674	-1.082939	1.180370
O31	O	-0.680271	-1.582754	0.405460
O32	O	-0.180271	-1.082754	0.905460
O33	O	-0.680225	-1.453734	0.523931
O34	O	-0.180225	-0.953734	1.023931
C35	C	-0.464617	-1.245367	0.464713
C36	C	0.035383	-0.745367	0.964713
C37	C	-0.464633	-1.128590	0.464726
C38	C	0.035367	-0.628590	0.964726
C39	C	-0.588169	-1.128608	0.587878
C40	C	-0.088169	-0.628608	1.087878
C41	C	-0.649943	-1.073757	0.649455
C42	C	-0.149943	-0.573757	1.149455
C43	C	-0.649953	-0.964035	0.649464
C44	C	-0.149953	-0.464035	1.149464
C45	C	-0.588180	-0.909163	0.587891
C46	C	-0.088180	-0.409163	1.087891
C47	C	-0.526406	-0.964014	0.526313
C48	C	-0.026406	-0.464014	1.026313
C49	C	-0.526404	-1.073738	0.526309
C50	C	-0.026404	-0.573738	1.026309
C51	C	-0.402867	-0.963996	0.403168
C52	C	0.097133	-0.463996	0.903168
C53	C	-0.402860	-1.073718	0.403153
C54	C	0.097140	-0.573718	0.903153
C55	C	-0.341094	-0.909123	0.341595
C56	C	0.158906	-0.409123	0.841595
C57	C	-0.279323	-0.963975	0.280011
C58	C	0.220677	-0.463975	0.780011
C59	C	-0.279316	-1.073703	0.280004
C60	C	0.220684	-0.573703	0.780004
C61	C	-0.341086	-1.128569	0.341576
C62	C	0.158914	-0.628569	0.841576
C63	C	-0.715247	-1.518258	0.464710
C64	C	-0.215247	-1.018258	0.964710
C65	C	-0.822461	-1.518321	0.464730
C66	C	-0.322461	-1.018321	0.964730
C67	C	-1.018756	-1.518431	0.464790
C68	C	-0.518756	-1.018431	0.964790
C69	C	-0.909524	-1.518367	0.464760
C70	C	-0.409524	-1.018367	0.964760
C71	C	-0.213040	-1.518440	0.464787
C72	C	0.286960	-1.018440	0.964787
C73	C	-0.105826	-1.518485	0.464808
C74	C	0.394174	-1.018485	0.964808
C75	C	-0.464552	-1.518399	0.716331
C76	C	0.035448	-1.018399	1.216331
C77	C	-0.464517	-1.518426	0.823545
C78	C	0.035483	-1.018426	1.323545
C79	C	-0.464646	-0.792368	0.464755
C80	C	0.035354	-0.292368	0.964755
C81	C	-0.464641	-0.909144	0.464745
C82	C	0.035359	-0.409144	0.964745
C83	C	-0.464644	-1.518331	0.214123
C84	C	0.035356	-1.018331	0.714123
C85	C	-0.464407	-1.518507	0.106910
C86	C	0.035593	-1.018507	0.606910
C87	C	-0.464490	-1.518448	0.910615
C88	C	0.035510	-1.018448	1.410615
C89	C	-0.464447	-1.518478	1.019847
C90	C	0.035553	-1.018478	1.519847
H91	H	-0.700236	-1.118446	0.699588
H92	H	-0.200236	-0.618446	1.199588
C93	C	-0.341078	-1.249260	0.341567
C94	C	0.158922	-0.749260	0.841567
H95	H	-0.295446	-1.274072	0.296073
H96	H	0.204554	-0.774072	0.796073
H97	H	-0.324484	-1.274112	0.403844
H98	H	0.175516	-0.774112	0.903844
H99	H	-0.403305	-1.274054	0.324762
H100	H	0.096695	-0.774054	0.824762
C101	C	-0.211363	-1.134037	0.212272
C102	C	0.288637	-0.634037	0.712272
H103	H	-0.220197	-1.207243	0.221086
H104	H	0.279803	-0.707243	0.721086
H105	H	-0.225388	-1.116020	0.147437
H106	H	0.274612	-0.616020	0.647437
H107	H	-0.146571	-1.116078	0.226522
H108	H	0.353429	-0.616078	0.726522
H109	H	-0.229028	-0.919289	0.229888
H110	H	0.270972	-0.419289	0.729888
C111	C	-0.341108	-0.788433	0.341599
C112	C	0.158892	-0.288433	0.841599
H113	H	-0.386752	-0.763622	0.387082
H114	H	0.113248	-0.263622	0.887082
H115	H	-0.278888	-0.763628	0.358394
H116	H	0.221112	-0.263628	0.858394
H117	H	-0.357713	-0.763590	0.279317
H118	H	0.142287	-0.263590	0.779317
H119	H	-0.588174	-1.217950	0.587870
H120	H	-0.088174	-0.717950	1.087870
H121	H	-0.588185	-0.819822	0.587911
H122	H	-0.088185	-0.319822	1.087911
C123	C	-0.717860	-0.903696	0.717238
C124	C	-0.217860	-0.403696	1.217238
H125	H	-0.754639	-0.952086	0.753917
H126	H	-0.254639	-0.452086	1.253917
H127	H	-0.680979	-0.860943	0.759319
H128	H	-0.180979	-0.360943	1.259319
H129	H	-0.759859	-0.860845	0.680296
H130	H	-0.259859	-0.360845	1.180296
