data_functionalizedCrystal
_audit_creation_method	'MofGen! by Chris Wilmer'
_symmetry_space_group_name_H-M	'P1'
_symmetry_Int_Tables_number	1
_symmetry_cell_setting	triclinic
loop_
_symmetry_equiv_pos_as_xyz
  x,y,z
_cell_length_a	23.532407
_cell_length_b	23.532357
_cell_length_c	22.010155
_cell_angle_alpha	89.998697
_cell_angle_beta	89.996931
_cell_angle_gamma	82.838485
loop_
_atom_site_label
_atom_site_type_symbol
_atom_site_fract_x
_atom_site_fract_y
_atom_site_fract_z
O1	O	0.755251	0.069129	-0.050457
O2	O	1.255251	0.569129	0.449543
O3	O	0.589386	0.079132	-0.050475
O4	O	1.089386	0.579132	0.449525
O5	O	0.677335	-0.008803	-0.050453
O6	O	1.177335	0.491197	0.449547
O7	O	0.667302	0.157064	-0.050479
O8	O	1.167302	0.657064	0.449521
O9	O	0.677319	-0.008790	0.050597
O10	O	1.177319	0.491210	0.550597
O11	O	0.589370	0.079145	0.050575
O12	O	1.089370	0.579145	0.550575
O13	O	0.755235	0.069142	0.050594
O14	O	1.255235	0.569142	0.550594
Cu15	Cu	0.672301	0.074145	0.059811
Cu16	Cu	1.172301	0.574145	0.559811
Cu17	Cu	0.672320	0.074129	-0.059693
Cu18	Cu	1.172320	0.574129	0.440307
O19	O	0.667286	0.157077	0.050571
O20	O	1.167286	0.657077	0.550571
C21	C	0.568162	0.078884	0.000048
C22	C	1.068162	0.578884	0.500048
C23	C	0.504945	0.078118	0.000041
C24	C	1.004945	0.578118	0.500041
C25	C	0.677076	-0.030013	0.000074
C26	C	1.177076	0.469987	0.500074
C27	C	0.676322	-0.093232	0.000080
C28	C	1.176322	0.406768	0.500080
C29	C	0.105834	0.125353	0.000061
C30	C	0.605834	0.625353	0.500061
C31	C	0.046434	0.124641	0.000065
C32	C	0.546434	0.624641	0.500065
O33	O	0.009681	0.168428	0.000080
O34	O	0.509681	0.668428	0.500080
N35	N	0.023817	0.072364	0.000072
N36	N	0.523817	0.572364	0.500072
C37	C	0.060604	0.020794	0.000082
C38	C	0.560604	0.520794	0.500082
O39	O	0.035912	-0.023737	0.000089
O40	O	0.535912	0.476263	0.500089
C41	C	0.120003	0.021506	0.000082
C42	C	0.620003	0.521506	0.500082
C43	C	0.142616	0.073787	0.000069
C44	C	0.642616	0.573787	0.500069
C45	C	0.128448	0.177629	0.000048
C46	C	0.628448	0.677629	0.500048
C47	C	0.187844	0.178341	0.000043
C48	C	0.687844	0.678341	0.500043
C49	C	0.224626	0.126775	0.000051
C50	C	0.724626	0.626775	0.500051
C51	C	0.202012	0.074498	0.000064
C52	C	0.702012	0.574498	0.500064
C53	C	0.156788	-0.030063	0.000096
C54	C	0.656788	0.469937	0.500096
C55	C	0.216191	-0.029346	0.000097
C56	C	0.716191	0.470654	0.500097
C57	C	0.238804	0.022935	0.000084
C58	C	0.738804	0.522935	0.500084
C59	C	0.298190	0.023644	0.000067
C60	C	0.798190	0.523644	0.500067
N61	N	0.320807	0.075922	0.000059
N62	N	0.820807	0.575922	0.500059
C63	C	0.284025	0.127487	0.000052
C64	C	0.784025	0.627487	0.500052
C65	C	-0.064139	0.019303	0.000082
C66	C	0.435861	0.519303	0.500082
C67	C	-0.123536	0.018590	0.000077
C68	C	0.376464	0.518590	0.500077
C69	C	-0.137702	0.122437	0.000061
C70	C	0.362298	0.622437	0.500061
C71	C	-0.078303	0.123149	0.000062
C72	C	0.421697	0.623149	0.500062
C73	C	-0.041522	0.071580	0.000074
C74	C	0.458478	0.571580	0.500074
C75	C	0.408761	0.128977	0.000041
C76	C	0.908761	0.628977	0.500041
C77	C	0.468163	0.129684	0.000033
C78	C	0.968163	0.629684	0.500033
C79	C	0.482324	0.025837	0.000052
C80	C	0.982324	0.525837	0.500052
C81	C	0.422927	0.025130	0.000056
C82	C	0.922927	0.525130	0.500056
C83	C	0.386147	0.076704	0.000053
C84	C	0.886147	0.576704	0.500053
O85	O	0.334977	-0.020120	0.000054
O86	O	0.834977	0.479880	0.500054
O87	O	0.308725	0.172011	0.000052
O88	O	0.808725	0.672011	0.500052
C89	C	0.671594	-0.485250	-0.055036
C90	C	1.171594	0.014750	0.444964
C91	C	0.670877	-0.544650	-0.055040
C92	C	1.170877	-0.044650	0.444960
O93	O	0.670494	-0.575372	-0.101885
O94	O	1.170494	-0.075372	0.398115
N95	N	0.670512	-0.574354	0.000042
N96	N	1.170512	-0.074354	0.500042
C97	C	0.670859	-0.544655	0.055131
C98	C	1.170859	-0.044655	0.555131
O99	O	0.670483	-0.575374	0.101982
O100	O	1.170483	-0.075374	0.601982
C101	C	0.671572	-0.485256	0.055134
C102	C	1.171572	0.014744	0.555134
C103	C	0.671943	-0.455556	0.000048
C104	C	1.171943	0.044444	0.500048
C105	C	0.671963	-0.455550	-0.110117
C106	C	1.171963	0.044450	0.389883
C107	C	0.672682	-0.396155	-0.110113
C108	C	1.172682	0.103845	0.389887
C109	C	0.673030	-0.366460	-0.055029
C110	C	1.173030	0.133540	0.444971
C111	C	0.672661	-0.396160	0.000052
C112	C	1.172661	0.103840	0.500052
C113	C	0.671915	-0.455557	0.110222
C114	C	1.171915	0.044443	0.610222
C115	C	0.672628	-0.396154	0.110220
C116	C	1.172628	0.103846	0.610220
C117	C	0.672998	-0.366454	0.055135
C118	C	1.172998	0.133546	0.555135
C119	C	0.673728	-0.307070	0.055141
C120	C	1.173728	0.192930	0.555141
N121	N	0.674092	-0.277366	0.000059
N122	N	1.174092	0.222634	0.500059
C123	C	0.673743	-0.307061	-0.055026
C124	C	1.173743	0.192939	0.444974
C125	C	0.669361	-0.669396	0.055121
C126	C	1.169361	-0.169396	0.555121
C127	C	0.668652	-0.728795	0.055118
C128	C	1.168652	-0.228795	0.555118
C129	C	0.668668	-0.728786	-0.055053
C130	C	1.168668	-0.228786	0.444947
C131	C	0.669381	-0.669387	-0.055050
C132	C	1.169381	-0.169387	0.444950
C133	C	0.669725	-0.639692	0.000039
C134	C	1.169725	-0.139692	0.500039
C135	C	0.675252	-0.182327	-0.055014
C136	C	1.175252	0.317673	0.444986
C137	C	0.675973	-0.122927	-0.055005
C138	C	1.175973	0.377073	0.444995
C139	C	0.675954	-0.122941	0.055166
C140	C	1.175954	0.377059	0.555166
C141	C	0.675236	-0.182336	0.055157
C142	C	1.175236	0.317664	0.555157
C143	C	0.674883	-0.212027	0.000063
C144	C	1.174883	0.287973	0.500063
O145	O	0.674109	-0.276310	0.101962
O146	O	1.174109	0.223690	0.601962
O147	O	0.674112	-0.276333	-0.101869
O148	O	1.174112	0.223667	0.398131
C149	C	0.776459	0.069390	0.000070
C150	C	1.276459	0.569390	0.500070
C151	C	0.839676	0.070156	0.000072
C152	C	1.339676	0.570156	0.500072
C153	C	0.667545	0.178287	0.000043
C154	C	1.167545	0.678287	0.500043
C155	C	0.668300	0.241506	0.000033
C156	C	1.168300	0.741506	0.500033
N157	N	0.672292	0.074155	0.143864
N158	N	1.172292	0.574155	0.643864
N159	N	0.672334	0.074114	-0.143745
N160	N	1.172334	0.574114	0.356255
C161	C	0.711266	0.035197	0.563653
C162	C	1.211266	0.535197	1.063653
C163	C	0.711269	0.035193	0.627260
C164	C	1.211269	0.535193	1.127260
O165	O	0.744383	0.002076	0.660160
O166	O	1.244383	0.502076	1.160160
N167	N	0.672320	0.074117	0.659071
N168	N	1.172320	0.574117	1.159071
C169	C	0.633362	0.113044	0.627270
C170	C	1.133362	0.613044	1.127270
O171	O	0.600233	0.146152	0.660168
O172	O	1.100233	0.646152	1.160168
C173	C	0.633357	0.113045	0.563663
C174	C	1.133357	0.613045	1.063663
C175	C	0.672312	0.074122	0.531857
C176	C	1.172312	0.574122	1.031857
C177	C	0.750218	-0.003724	0.531846
C178	C	1.250218	0.496276	1.031846
C179	C	0.750216	-0.003719	0.468243
C180	C	1.250216	0.496281	0.968243
C181	C	0.711262	0.035206	0.436446
C182	C	1.211262	0.535206	0.936446
C183	C	0.672310	0.074127	0.468253
C184	C	1.172310	0.574127	0.968253
C185	C	0.594397	0.151969	0.531864
C186	C	1.094397	0.651969	1.031864
C187	C	0.594395	0.151966	0.468253
C188	C	1.094395	0.651966	0.968253
C189	C	0.633350	0.113043	0.436446
C190	C	1.133350	0.613043	0.936446
C191	C	0.633354	0.113056	0.372854
C192	C	1.133354	0.613056	0.872854
N193	N	0.672303	0.074132	0.341044
N194	N	1.172303	0.574132	0.841044
C195	C	0.711257	0.035207	0.372840
C196	C	1.211257	0.535207	0.872840
C197	C	0.633374	0.113039	0.760848
C198	C	1.133374	0.613039	1.260848
C199	C	0.633382	0.113041	0.824453
C200	C	1.133382	0.613041	1.324453
C201	C	0.711288	0.035189	0.824439
C202	C	1.211288	0.535189	1.324439
C203	C	0.711283	0.035190	0.760833
C204	C	1.211283	0.535190	1.260833
C205	C	0.672323	0.074115	0.729038
C206	C	1.172323	0.574115	1.229038
C207	C	0.711250	0.035220	0.239269
C208	C	1.211250	0.535220	0.739269
C209	C	0.711246	0.035230	0.175660
C210	C	1.211246	0.535230	0.675660
C211	C	0.633338	0.113080	0.175679
C212	C	1.133338	0.613080	0.675679
C213	C	0.633344	0.113073	0.239282
C214	C	1.133344	0.613073	0.739282
C215	C	0.672302	0.074138	0.271076
C216	C	1.172302	0.574138	0.771076
O217	O	0.600255	0.146155	0.339914
O218	O	1.100255	0.646155	0.839914
O219	O	0.744376	0.002100	0.339935
O220	O	1.244376	0.502100	0.839935
H221	H	0.486571	0.172259	0.000022
H222	H	0.986571	0.672259	0.500022
O223	O	-0.173496	0.172493	-0.000024
O224	O	0.326504	0.672493	0.499976
C225	C	-0.248762	0.231961	-0.052398
C226	C	0.251238	0.731961	0.447602
C227	C	-0.208268	0.175251	-0.052369
C228	C	0.291732	0.675251	0.447631
H229	H	-0.276878	0.234214	-0.094720
H230	H	0.223122	0.734214	0.405280
H231	H	-0.276966	0.234233	-0.010136
H232	H	0.223034	0.734233	0.489864
H233	H	-0.222388	0.269442	-0.052375
H234	H	0.277612	0.769442	0.447625
H235	H	-0.234597	0.137738	-0.052413
H236	H	0.265403	0.637738	0.447587
H237	H	-0.180063	0.173029	-0.094627
H238	H	0.319937	0.673029	0.405373
H239	H	0.743006	0.003493	0.850339
H240	H	1.243006	0.503493	1.350339
H241	H	0.743004	0.003495	0.734939
H242	H	1.243004	0.503495	1.234939
O243	O	0.787890	-0.041619	0.437256
O244	O	1.287890	0.458381	0.937256
C245	C	0.822065	-0.076489	0.339272
C246	C	1.322065	0.423511	0.839272
C247	C	0.779471	-0.033430	0.374283
C248	C	1.279471	0.466570	0.874283
H249	H	0.815265	-0.069890	0.288352
H250	H	1.315265	0.430110	0.788352
H251	H	0.867735	-0.069514	0.351608
H252	H	1.367735	0.430486	0.851608
H253	H	0.814702	-0.121972	0.351945
H254	H	1.314702	0.378028	0.851945
H255	H	0.786781	0.012071	0.361629
H256	H	1.286781	0.512071	0.861629
H257	H	0.733816	-0.040454	0.361944
H258	H	1.233816	0.459546	0.861944
O259	O	0.595477	0.150945	0.144880
O260	O	1.095477	0.650945	0.644880
C261	C	0.518174	0.228133	0.151589
C262	C	1.018174	0.728133	0.651589
C263	C	0.561032	0.185295	0.186546
C264	C	1.061032	0.685295	0.686546
H265	H	0.490305	0.255907	0.185260
H266	H	0.990305	0.755907	0.685260
H267	H	0.542561	0.256501	0.121823
H268	H	1.042561	0.756501	0.621823
H269	H	0.489899	0.203670	0.121796
H270	H	0.989899	0.703670	0.621796
H271	H	0.589318	0.209710	0.216371
H272	H	1.089318	0.709710	0.716371
H273	H	0.536609	0.156927	0.216273
H274	H	1.036609	0.656927	0.716273
H275	H	0.601628	0.144773	0.265180
H276	H	1.101628	0.644773	0.765180
H277	H	0.378821	0.170974	0.000040
H278	H	0.878821	0.670974	0.500040
O279	O	0.668392	-0.757684	0.108610
O280	O	1.168392	-0.257684	0.608610
C281	C	0.716882	-0.831513	0.172545
C282	C	1.216882	-0.331513	0.672545
C283	C	0.717263	-0.798834	0.111949
C284	C	1.217263	-0.298834	0.611949
H285	H	0.756384	-0.864798	0.175259
H286	H	1.256384	-0.364798	0.675259
H287	H	0.717289	-0.800115	0.211940
H288	H	1.217289	-0.300115	0.711940
H289	H	0.676663	-0.853847	0.175277
H290	H	1.176663	-0.353847	0.675277
H291	H	0.757476	-0.776499	0.109158
H292	H	1.257476	-0.276499	0.609158
H293	H	0.716826	-0.830259	0.072583
H294	H	1.216826	-0.330259	0.572583
H295	H	0.742970	0.003534	0.149765
H296	H	1.242970	0.503534	0.649765
H297	H	0.138388	-0.072635	0.000107
H298	H	0.638388	0.427365	0.500107
H299	H	0.669642	-0.645223	0.099983
H300	H	1.169642	-0.145223	0.599983
O301	O	0.518118	-0.024214	-0.000020
O302	O	1.018118	0.475786	0.499980
C303	C	0.593394	-0.083695	-0.052372
C304	C	1.093394	0.416305	0.447628
C305	C	0.552896	-0.026987	-0.052366
C306	C	1.052896	0.473013	0.447634
H307	H	0.621513	-0.085961	-0.094696
H308	H	1.121513	0.414039	0.405304
H309	H	0.621593	-0.085951	-0.010111
H310	H	1.121593	0.414049	0.489889
H311	H	0.567022	-0.121178	-0.052332
H312	H	1.067022	0.378822	0.447668
H313	H	0.579223	0.010528	-0.052427
H314	H	1.079223	0.510528	0.447573
H315	H	0.524695	-0.024781	-0.094623
H316	H	1.024695	0.475219	0.405377
O317	O	0.674927	-0.211078	-0.108586
O318	O	1.174927	0.288922	0.391414
C319	C	0.674964	-0.204777	-0.217858
C320	C	1.174964	0.295223	0.282142
C321	C	0.675350	-0.172149	-0.157233
C322	C	1.175350	0.327851	0.342767
H323	H	0.675294	-0.173315	-0.257206
H324	H	1.175294	0.326685	0.242794
H325	H	0.714495	-0.238019	-0.220666
H326	H	1.214495	0.261981	0.279334
H327	H	0.634771	-0.227153	-0.220582
H328	H	1.134771	0.272847	0.279418
H329	H	0.715517	-0.149738	-0.154469
H330	H	1.215517	0.350262	0.345531
H331	H	0.635792	-0.138939	-0.154452
H332	H	1.135792	0.361061	0.345548
H333	H	0.206249	0.220913	0.000032
H334	H	0.706249	0.720913	0.500032
H335	H	0.601667	0.144742	0.850346
H336	H	1.101667	0.644742	1.350346
O337	O	0.788118	-0.041559	0.562633
O338	O	1.288118	0.458441	1.062633
C339	C	0.865373	-0.118792	0.555885
C340	C	1.365373	0.381208	1.055885
C341	C	0.822485	-0.075966	0.520949
C342	C	1.322485	0.424034	1.020949
H343	H	0.893162	-0.146629	0.522199
H344	H	1.393162	0.353371	1.022199
H345	H	0.893723	-0.094377	0.585639
H346	H	1.393723	0.405623	1.085639
H347	H	0.840954	-0.147101	0.585686
H348	H	1.340954	0.352899	1.085686
H349	H	0.846857	-0.047646	0.491115
H350	H	1.346857	0.452354	0.991115
H351	H	0.794136	-0.100416	0.491233
H352	H	1.294136	0.399584	0.991233
O353	O	0.595611	0.150884	0.729898
O354	O	1.095611	0.650884	1.229898
C355	C	0.583026	0.228764	0.658127
C356	C	1.083026	0.728764	1.158127
C357	C	0.625854	0.185929	0.693124
C358	C	1.125854	0.685929	1.193124
H359	H	0.607461	0.257118	0.628397
H360	H	1.107461	0.757118	1.128397
H361	H	0.554721	0.204358	0.628310
H362	H	1.054721	0.704358	1.128310
H363	H	0.555183	0.256556	0.691806
H364	H	1.055183	0.756556	1.191806
H365	H	0.653735	0.158126	0.659489
H366	H	1.153735	0.658126	1.159489
H367	H	0.654120	0.210370	0.722950
H368	H	1.154120	0.710370	1.222950
O369	O	0.092665	0.227688	-0.000044
O370	O	0.592665	0.727688	0.499956
C371	C	0.017424	0.287172	-0.052438
C372	C	0.517424	0.787172	0.447562
C373	C	0.057899	0.230449	-0.052395
C374	C	0.557899	0.730449	0.447605
H375	H	-0.010686	0.289428	-0.094765
H376	H	0.489314	0.789428	0.405235
H377	H	-0.010786	0.289460	-0.010181
H378	H	0.489214	0.789460	0.489819
H379	H	0.043813	0.324641	-0.052418
H380	H	0.543813	0.824641	0.447582
H381	H	0.031556	0.192948	-0.052436
H382	H	0.531556	0.692948	0.447564
H383	H	0.086111	0.228210	-0.094648
H384	H	0.586111	0.728210	0.405352
H385	H	0.562667	0.183662	0.442369
H386	H	1.062667	0.683662	0.942369
O387	O	0.556498	0.189800	0.562657
O388	O	1.056498	0.689800	1.062657
C389	C	0.479242	0.267033	0.555930
C390	C	0.979242	0.767033	1.055930
C391	C	0.522125	0.224209	0.520983
C392	C	1.022125	0.724209	1.020983
H393	H	0.451448	0.294871	0.522252
H394	H	0.951448	0.794871	1.022252
H395	H	0.450897	0.242617	0.585693
H396	H	0.950897	0.742617	1.085693
H397	H	0.503666	0.295340	0.585723
H398	H	1.003666	0.795340	1.085723
H399	H	0.497747	0.195890	0.491156
H400	H	0.997747	0.695890	0.991156
H401	H	0.550469	0.248660	0.491258
H402	H	1.050469	0.748660	0.991258
H403	H	-0.059896	0.165721	0.000054
H404	H	0.440104	0.665721	0.500054
H405	H	0.246136	-0.071341	0.000108
H406	H	0.746136	0.428659	0.500108
H407	H	-0.141942	-0.023982	0.000078
H408	H	0.358058	0.476018	0.500078
H409	H	-0.034193	-0.022694	0.000087
H410	H	0.465807	0.477306	0.500087
O411	O	0.674990	-0.211227	0.108652
O412	O	1.174990	0.288773	0.608652
C413	C	0.723507	-0.285046	0.172580
C414	C	1.223507	0.214954	0.672580
C415	C	0.723866	-0.252372	0.111980
C416	C	1.223866	0.247628	0.611980
H417	H	0.763012	-0.318327	0.175285
H418	H	1.263012	0.181673	0.675285
H419	H	0.723922	-0.253643	0.211971
H420	H	1.223922	0.246357	0.711971
H421	H	0.683291	-0.307384	0.175330
H422	H	1.183291	0.192616	0.675330
H423	H	0.764075	-0.230032	0.109170
H424	H	1.264075	0.269968	0.609170
H425	H	0.723420	-0.283801	0.072618
H426	H	1.223420	0.216199	0.572618
O427	O	0.401023	-0.025690	-0.000018
O428	O	0.901023	0.474310	0.499982
C429	C	0.394925	-0.114656	-0.052372
C430	C	0.894925	0.385344	0.447628
C431	C	0.419776	-0.057130	-0.052362
C432	C	0.919776	0.442870	0.447638
H433	H	0.410068	-0.140087	-0.094694
H434	H	0.910068	0.359913	0.405306
H435	H	0.410117	-0.140155	-0.010109
H436	H	0.910117	0.359845	0.489891
H437	H	0.346154	-0.106293	-0.052336
H438	H	0.846154	0.393707	0.447664
H439	H	0.468548	-0.065441	-0.052419
H440	H	0.968548	0.434559	0.447581
H441	H	0.404540	-0.031648	-0.094621
H442	H	0.904540	0.468352	0.405379
O443	O	0.673008	-0.367392	-0.163678
O444	O	1.173008	0.132608	0.336322
C445	C	0.672975	-0.373678	-0.272951
C446	C	1.172975	0.126322	0.227049
C447	C	0.672595	-0.406316	-0.212330
C448	C	1.172595	0.093684	0.287670
H449	H	0.672653	-0.405136	-0.312302
H450	H	1.172653	0.094864	0.187698
H451	H	0.633437	-0.340444	-0.275752
H452	H	1.133437	0.159556	0.224248
H453	H	0.713162	-0.351292	-0.275675
H454	H	1.213162	0.148708	0.224325
H455	H	0.632435	-0.428737	-0.209566
H456	H	1.132435	0.071263	0.290434
H457	H	0.712159	-0.439518	-0.209554
H458	H	1.212159	0.060482	0.290446
O459	O	0.676187	-0.094045	0.108654
O460	O	1.176187	0.405955	0.608654
C461	C	0.627640	-0.020209	0.172543
C462	C	1.127640	0.479791	0.672543
C463	C	0.627306	-0.052904	0.111954
C464	C	1.127306	0.447096	0.611954
H465	H	0.588131	0.013069	0.175226
H466	H	1.088131	0.513069	0.675226
H467	H	0.627215	-0.051600	0.211945
H468	H	1.127215	0.448400	0.711945
H469	H	0.667852	0.002134	0.175295
H470	H	1.167852	0.502134	0.675295
H471	H	0.587101	-0.075249	0.109143
H472	H	1.087101	0.424751	0.609143
H473	H	0.627762	-0.021486	0.072581
H474	H	1.127762	0.478514	0.572581
H475	H	0.671677	-0.479721	-0.154976
H476	H	1.171677	0.020279	0.345024
H477	H	0.676276	-0.098748	-0.099864
H478	H	1.176276	0.401252	0.400136
H479	H	0.742973	0.003516	0.265148
H480	H	1.242973	0.503516	0.765148
H481	H	0.669681	-0.645209	-0.099905
H482	H	1.169681	-0.145209	0.400095
H483	H	0.671615	-0.479729	0.155079
H484	H	1.171615	0.020271	0.655079
H485	H	0.668382	-0.752974	-0.099906
H486	H	1.168382	-0.252974	0.400094
H487	H	0.672900	-0.371979	0.155081
H488	H	1.172900	0.128021	0.655081
