data_functionalizedCrystal
_audit_creation_method	'MofGen! by Chris Wilmer'
_symmetry_space_group_name_H-M	'P1'
_symmetry_Int_Tables_number	1
_symmetry_cell_setting	triclinic
loop_
_symmetry_equiv_pos_as_xyz
  x,y,z
_cell_length_a	27.732064
_cell_length_b	27.732048
_cell_length_c	14.185569
_cell_angle_alpha	76.951782
_cell_angle_beta	103.051318
_cell_angle_gamma	82.646040
loop_
_atom_site_label
_atom_site_type_symbol
_atom_site_fract_x
_atom_site_fract_y
_atom_site_fract_z
O1	O	0.629896	0.068574	-0.083255
O2	O	0.489099	0.077317	-0.083298
O3	O	0.563873	0.002547	-0.083256
O4	O	0.555122	0.143345	-0.083297
O5	O	0.585962	-0.019539	0.083591
O6	O	0.511187	0.055232	0.083549
O7	O	0.651985	0.046489	0.083592
Cu8	Cu	0.583603	0.048844	0.098805
Cu9	Cu	0.557481	0.074962	-0.098511
O10	O	0.577211	0.121260	0.083550
C11	C	0.482136	0.066091	0.000120
C12	C	0.428479	0.065537	0.000105
C13	C	0.574734	-0.026503	0.000170
C14	C	0.574182	-0.080159	0.000178
C15	C	0.051416	0.017560	0.000176
C16	C	0.253072	0.019610	0.000149
O17	O	0.284331	-0.017618	0.000198
N18	N	0.272198	0.063946	0.000132
C19	C	0.240906	0.107773	0.000128
O20	O	0.261802	0.145529	0.000123
C21	C	0.039251	0.105722	0.000162
C22	C	0.020128	0.061383	0.000169
C23	C	0.032292	-0.026775	0.000184
C24	C	-0.018120	-0.027286	0.000185
C25	C	-0.049408	0.016538	0.000178
C26	C	-0.030284	0.060872	0.000170
C27	C	0.007961	0.149546	0.000165
C28	C	-0.042455	0.149029	0.000176
C29	C	-0.061578	0.104691	0.000183
C30	C	-0.111984	0.104184	0.000164
N31	N	-0.131109	0.059848	0.000182
C32	C	-0.099821	0.016024	0.000189
C33	C	0.346778	0.108847	0.000108
C34	C	0.397191	0.109360	0.000098
C35	C	0.409354	0.021197	0.000121
C36	C	0.358939	0.020685	0.000124
C37	C	0.327653	0.064510	0.000125
C38	C	-0.205691	0.014954	0.000190
C39	C	-0.256108	0.014447	0.000187
C40	C	-0.268266	0.102610	0.000169
C41	C	-0.217854	0.103118	0.000167
C42	C	-0.186566	0.059285	0.000181
O43	O	-0.143270	0.141390	0.000127
O44	O	-0.120724	-0.021730	0.000216
C45	C	0.101828	0.018071	0.000175
C46	C	0.120952	0.062406	0.000166
C47	C	0.089664	0.106229	0.000159
C48	C	0.171365	0.062919	0.000156
C49	C	0.202653	0.019096	0.000163
C50	C	0.183528	-0.025241	0.000181
C51	C	0.133116	-0.025752	0.000182
C52	C	0.108789	0.150566	0.000142
C53	C	0.159201	0.151074	0.000140
C54	C	0.190489	0.107250	0.000147
C55	C	0.614881	-0.418967	0.000139
C56	C	0.612828	-0.620625	0.000124
O57	O	0.650044	-0.651874	0.000092
N58	N	0.568491	-0.639749	0.000112
C59	C	0.524664	-0.608455	0.000096
O60	O	0.486905	-0.629348	0.000075
C61	C	0.526717	-0.406797	0.000104
C62	C	0.571057	-0.387677	0.000127
C63	C	0.659218	-0.399846	0.000161
C64	C	0.659731	-0.349435	0.000170
C65	C	0.615908	-0.318145	0.000157
C66	C	0.571571	-0.337266	0.000136
C67	C	0.482889	-0.375503	0.000081
C68	C	0.483406	-0.325086	0.000081
C69	C	0.527746	-0.305966	0.000103
C70	C	0.528261	-0.255566	0.000132
N71	N	0.572597	-0.236441	0.000145
C72	C	0.616421	-0.267731	0.000157
C73	C	0.523590	-0.714329	0.000095
C74	C	0.523077	-0.764744	0.000094
C75	C	0.611241	-0.776909	0.000121
C76	C	0.611754	-0.726495	0.000128
C77	C	0.567926	-0.695204	0.000107
C78	C	0.617496	-0.161864	0.000177
C79	C	0.618006	-0.111449	0.000191
C80	C	0.529842	-0.099287	0.000159
C81	C	0.529332	-0.149699	0.000151
C82	C	0.573163	-0.180986	0.000157
O83	O	0.491063	-0.224287	0.000154
O84	O	0.654172	-0.246826	0.000156
C85	C	0.614367	-0.469378	0.000130
C86	C	0.570030	-0.488499	0.000108
C87	C	0.526207	-0.457209	0.000096
C88	C	0.569517	-0.538913	0.000108
C89	C	0.613341	-0.570203	0.000121
C90	C	0.657677	-0.551078	0.000133
C91	C	0.658191	-0.500667	0.000142
C92	C	0.481870	-0.476334	0.000083
C93	C	0.481361	-0.526745	0.000075
C94	C	0.525184	-0.558035	0.000088
C95	C	0.658948	0.057716	0.000171
C96	C	0.712604	0.058271	0.000180
C97	C	0.566349	0.150310	0.000122
C98	C	0.566900	0.203967	0.000107
N99	N	0.601980	0.030473	0.237586
N100	N	0.539108	0.093329	-0.237292
C101	C	0.485116	0.147282	0.605171
C102	C	0.499040	0.133369	0.710200
C103	C	0.565266	0.067184	0.710198
C104	C	0.551346	0.081090	0.605167
C105	C	0.511272	0.121139	0.552661
C106	C	0.577501	0.054947	0.552657
C107	C	0.563584	0.068853	0.447635
C108	C	0.523512	0.108902	0.395122
C109	C	0.497355	0.135045	0.447639
C110	C	0.617578	0.014900	0.605164
C111	C	0.643733	-0.011243	0.552655
C112	C	0.629814	0.002661	0.447631
C113	C	0.589742	0.042710	0.395118
C114	C	0.655972	-0.023482	0.395114
C115	C	0.642055	-0.009576	0.290092
C116	C	0.575825	0.056616	0.290096
H117	H	-0.271676	-0.021659	0.000191
O118	O	0.473556	0.158721	0.761168
C119	C	0.422366	0.154595	0.735496
H120	H	0.418597	0.119718	0.706626
H121	H	0.407219	0.151171	0.804569
H122	H	0.399888	0.189558	0.674539
O123	O	0.440879	-0.294661	0.000196
C124	C	0.449969	-0.276591	0.086623
H125	H	0.492132	-0.278135	0.115451
H126	H	0.429098	-0.235992	0.067186
H127	H	0.436028	-0.301035	0.147119
H128	H	0.117550	-0.061857	0.000188
H129	H	0.597896	0.034577	0.752960
O130	O	0.439826	-0.394106	-0.000085
C131	C	0.425444	-0.411442	-0.086518
H132	H	0.459829	-0.420472	-0.115301
H133	H	0.408987	-0.446884	-0.067106
H134	H	0.395888	-0.380988	-0.147038
O135	O	0.510029	0.122488	0.293103
C136	C	0.514844	0.172958	0.258008
H137	H	0.542770	0.183697	0.318521
H138	H	0.529077	0.177291	0.187739
H139	H	0.476579	0.198698	0.239384
O140	O	0.660059	-0.192319	0.000321
C141	C	0.673850	-0.233284	0.086743
H142	H	0.639314	-0.239376	0.115534
H143	H	0.689580	-0.268733	0.067314
H144	H	0.703807	-0.224867	0.147264
H145	H	0.464718	0.167654	0.404887
H146	H	0.493230	-0.165271	0.000161
O147	O	-0.199348	0.146234	0.000020
C148	C	-0.226800	0.184365	-0.086410
H149	H	-0.265491	0.175278	-0.115225
H150	H	-0.231513	0.222100	-0.066981
H151	H	-0.205594	0.186552	-0.146912
O152	O	0.702840	-0.330939	0.000139
C153	C	0.741407	-0.369377	0.000172
H154	H	0.723929	-0.399344	-0.031420
H155	H	0.765973	-0.352656	-0.048261
H156	H	0.765504	-0.387213	0.080220
O157	O	0.479957	-0.783229	0.000039
C158	C	0.441394	-0.744798	0.000051
H159	H	0.450506	-0.706464	-0.031530
H160	H	0.404001	-0.748689	-0.048402
H161	H	0.438491	-0.748166	0.080091
H162	H	0.693360	-0.576564	0.000148
O163	O	0.481063	-0.683906	0.000214
C164	C	0.490155	-0.665834	0.086638
H165	H	0.532318	-0.667373	0.115456
H166	H	0.469281	-0.625235	0.067199
H167	H	0.476219	-0.690278	0.147141
O168	O	0.487312	-0.068813	0.000101
C169	C	0.497281	-0.020221	0.000134
H170	H	0.531057	-0.014388	-0.031433
H171	H	0.462915	0.009244	-0.048320
H172	H	0.505933	-0.016227	0.080179
O173	O	0.701756	-0.430232	-0.000003
C174	C	0.692664	-0.448327	-0.086398
H175	H	0.659806	-0.421690	-0.146809
H176	H	0.727808	-0.450431	-0.115385
H177	H	0.683028	-0.487492	-0.066865
H178	H	0.676364	-0.043850	0.595417
H179	H	0.174765	0.187183	0.000127
H180	H	0.445252	-0.542309	0.000066
H181	H	0.647860	-0.710931	0.000145
O182	O	0.446131	0.186124	0.554115
C183	C	0.408466	0.168480	0.493358
H184	H	0.412135	0.126171	0.525016
H185	H	0.369740	0.188619	0.492168
H186	H	0.413067	0.176383	0.413762
O187	O	0.316322	0.151410	-0.000036
C188	C	0.275356	0.165200	-0.086458
H189	H	0.269261	0.130664	-0.115248
H190	H	0.239907	0.180933	-0.067029
H191	H	0.283772	0.195155	-0.146979
H192	H	0.688604	-0.056088	0.437877
H193	H	0.446183	-0.450862	0.000071
H194	H	0.628909	0.003581	0.690680
H195	H	-0.293751	0.138290	0.000159
O196	O	0.439709	-0.021364	-0.000044
C197	C	0.419642	-0.036883	-0.086427
H198	H	0.394219	-0.003242	-0.146837
H199	H	0.451716	-0.052700	-0.115424
H200	H	0.396766	-0.067256	-0.066872
H201	H	-0.033685	-0.063391	0.000195
H202	H	0.543189	0.089225	0.247344
O203	O	0.667499	-0.035038	0.239233
C204	C	0.705860	-0.073361	0.308095
H205	H	0.695970	-0.083687	0.382964
H206	H	0.709502	-0.107998	0.277750
H207	H	0.743129	-0.059389	0.319253
H208	H	0.343373	-0.015419	0.000131
H209	H	0.412755	0.145466	0.000078
H210	H	0.057763	-0.062463	0.000193
O211	O	-0.175378	-0.027661	0.000151
C212	C	-0.203074	-0.066899	0.000181
H213	H	-0.244978	-0.050152	-0.031401
H214	H	-0.190679	-0.091167	-0.048261
H215	H	-0.195962	-0.091108	0.080227
H216	H	0.023522	0.185652	0.000154
O217	O	0.653775	-0.807303	-0.000053
C218	C	0.644660	-0.825391	-0.086456
H219	H	0.611802	-0.798743	-0.146849
H220	H	0.679797	-0.827505	-0.115464
H221	H	0.635011	-0.864550	-0.066924
O222	O	-0.072850	0.191640	-0.000005
C223	C	-0.075666	0.230025	-0.086409
H224	H	-0.066250	0.212370	-0.146802
H225	H	-0.115420	0.253526	-0.115417
H226	H	-0.047605	0.255219	-0.066878
O227	O	0.213957	-0.067762	0.000054
C228	C	0.232026	-0.058665	-0.086370
H229	H	0.230474	-0.016501	-0.115192
H230	H	0.272629	-0.079528	-0.066930
H231	H	0.207588	-0.072611	-0.146870
H232	H	0.083318	0.186253	0.000138
H233	H	0.654115	-0.095885	0.000212
O234	O	0.701300	-0.482171	0.000113
C235	C	0.739867	-0.520610	0.000147
H236	H	0.722389	-0.550576	-0.031446
H237	H	0.764434	-0.503889	-0.048284
H238	H	0.763963	-0.538446	0.080195
