data_functionalizedCrystal
_audit_creation_method	'MofGen! by Chris Wilmer'
_symmetry_space_group_name_H-M	'P1'
_symmetry_Int_Tables_number	1
_symmetry_cell_setting	triclinic
loop_
_symmetry_equiv_pos_as_xyz
  x,y,z
_cell_length_a	10.723024
_cell_length_b	9.798715
_cell_length_c	16.109301
_cell_angle_alpha	90.004570
_cell_angle_beta	83.964675
_cell_angle_gamma	90.003391
loop_
_atom_site_label
_atom_site_type_symbol
_atom_site_fract_x
_atom_site_fract_y
_atom_site_fract_z
O1	O	1.655642	0.113487	0.116607
O2	O	1.292341	0.113492	0.127769
O3	O	1.483972	0.113476	0.001216
O4	O	1.464011	0.113504	0.243160
O5	O	1.483957	-0.113507	0.001215
O6	O	1.292327	-0.113490	0.127769
O7	O	1.655627	-0.113495	0.116607
Zn8	Zn	1.473975	-0.149531	0.122188
Zn9	Zn	1.473994	0.149528	0.122188
O10	O	1.463997	-0.113479	0.243160
C11	C	1.245845	0.000002	0.126956
C12	C	1.107323	0.000003	0.124526
C13	C	1.031402	0.000012	0.195339
C14	C	0.888232	0.000014	0.192829
N15	N	1.473971	-0.353631	0.122187
C16	C	1.554435	-0.421414	0.068817
C17	C	1.554455	-0.578577	0.068814
C18	C	1.702123	-0.000002	0.117419
C19	C	1.840645	0.000006	0.119850
C20	C	1.483156	-0.000016	-0.029764
C21	C	1.480732	-0.000018	-0.122074
N22	N	1.474007	0.353628	0.122182
C23	C	1.588805	0.000002	-0.343710
C24	C	1.586518	0.000013	-0.430444
C25	C	1.359155	0.000011	-0.411907
C26	C	1.361444	0.000010	-0.325175
C27	C	1.476272	-0.000002	-0.291079
C28	C	1.471696	0.000011	-0.464545
C29	C	1.469215	0.000023	-0.558586
C30	C	1.478754	-0.000012	-0.197032
C31	C	1.464813	0.000016	0.274140
C32	C	1.467237	0.000027	0.366449
H33	H	1.066329	0.000031	0.062043
H34	H	1.682306	-0.000005	-0.315952
O35	O	1.695948	-0.000048	-0.481450
C36	C	1.797782	-0.000021	-0.432753
H37	H	1.766082	-0.042999	-0.368214
H38	H	1.832986	0.108872	-0.426370
C39	C	1.943221	-0.036248	-0.554632
C40	C	1.904289	-0.089045	-0.475366
H41	H	2.008923	-0.091157	-0.580919
H42	H	1.874615	-0.036261	-0.587441
H43	H	1.972550	0.054495	-0.549302
H44	H	1.874948	-0.179780	-0.480699
H45	H	1.972893	-0.089049	-0.442559
O46	O	1.636458	-0.351673	0.014303
C47	C	1.569385	-0.269024	-0.037226
H48	H	1.471794	-0.247805	-0.004553
H49	H	1.560793	-0.323967	-0.098749
C50	C	1.759420	-0.159250	-0.094673
C51	C	1.639559	-0.133178	-0.054540
H52	H	1.802708	-0.075456	-0.105356
H53	H	1.804609	-0.214935	-0.059959
H54	H	1.752242	-0.205039	-0.145937
H55	H	1.646739	-0.087406	-0.003272
H56	H	1.594372	-0.077482	-0.089245
H57	H	1.072396	0.000012	0.257822
H58	H	1.623348	-0.636868	0.023124
O59	O	1.252205	-0.000176	-0.273958
C60	C	1.246709	-0.117746	-0.223252
H61	H	1.345751	-0.156941	-0.218311
H62	H	1.189718	-0.200063	-0.252103
C63	C	1.062257	-0.033891	-0.141630
C64	C	1.183903	-0.082024	-0.135557
H65	H	1.023510	-0.011860	-0.087537
H66	H	1.065956	0.045316	-0.175794
H67	H	1.014780	-0.102497	-0.165677
H68	H	1.231382	-0.013413	-0.111521
H69	H	1.180210	-0.161220	-0.101387
O70	O	1.391989	-0.576701	0.176735
C71	C	1.459087	-0.494058	0.228264
H72	H	1.556648	-0.472773	0.195560
H73	H	1.467755	-0.549038	0.289758
C74	C	1.269059	-0.384405	0.285825
C75	C	1.388882	-0.358254	0.245654
H76	H	1.225752	-0.300638	0.296556
H77	H	1.223852	-0.440087	0.251111
H78	H	1.276299	-0.430226	0.337066
H79	H	1.381640	-0.312451	0.194410
H80	H	1.434086	-0.302561	0.280360
O81	O	1.391749	-0.423344	0.176583
C82	C	1.314643	-0.505990	0.131694
H83	H	1.364133	-0.527250	0.066851
H84	H	1.222320	-0.451024	0.125691
C85	C	1.227492	-0.615688	0.258000
C86	C	1.288282	-0.641809	0.178362
H87	H	1.211225	-0.699465	0.286788
H88	H	1.279436	-0.560004	0.288244
H89	H	1.150563	-0.569880	0.252987
H90	H	1.365215	-0.687601	0.183376
H91	H	1.236350	-0.697504	0.148120
H92	H	0.905874	0.000007	0.059225
O93	O	0.810238	-0.000034	0.265075
C94	C	0.684654	0.000004	0.246486
H95	H	0.679808	-0.042977	0.181142
H96	H	0.647023	0.108901	0.249391
C97	C	0.610805	-0.036208	0.390779
C98	C	0.604852	-0.089008	0.310525
H99	H	0.561577	-0.091109	0.430284
H100	H	0.695413	-0.036228	0.403305
H101	H	0.579448	0.054539	0.393189
H102	H	0.636223	-0.179746	0.308114
H103	H	0.520247	-0.089005	0.298001
H104	H	1.265665	0.000018	-0.439679
