data_functionalizedCrystal
_audit_creation_method	'MofGen! by Chris Wilmer'
_symmetry_space_group_name_H-M	'P1'
_symmetry_Int_Tables_number	1
_symmetry_cell_setting	triclinic
loop_
_symmetry_equiv_pos_as_xyz
  x,y,z
_cell_length_a	19.805407
_cell_length_b	18.050589
_cell_length_c	19.805399
_cell_angle_alpha	90.023701
_cell_angle_beta	90.016886
_cell_angle_gamma	90.028221
loop_
_atom_site_label
_atom_site_type_symbol
_atom_site_fract_x
_atom_site_fract_y
_atom_site_fract_z
Zn1	Zn	1.034709	-0.295666	0.382745
Zn2	Zn	1.534709	0.204334	0.882745
Zn3	Zn	1.034626	-0.419862	0.269567
Zn4	Zn	1.534626	0.080138	0.769567
Zn5	Zn	0.921529	-0.295690	0.269569
Zn6	Zn	1.421529	0.204310	0.769569
Zn7	Zn	0.921484	-0.419819	0.382713
Zn8	Zn	1.421484	0.080181	0.882713
O9	O	0.978087	-0.357759	0.326148
O10	O	1.478087	0.142241	0.826148
O11	O	1.129415	-0.312149	0.367743
O12	O	1.629415	0.187851	0.867743
O13	O	1.019607	-0.403418	0.174850
O14	O	1.519607	0.096582	0.674850
O15	O	0.936597	-0.191762	0.284596
O16	O	1.436597	0.308238	0.784596
O17	O	1.129353	-0.403395	0.284592
O18	O	1.629353	0.096605	0.784592
O19	O	1.019750	-0.191745	0.367746
O20	O	1.519750	0.308255	0.867746
O21	O	0.936516	-0.312189	0.174852
O22	O	1.436516	0.187811	0.674852
O23	O	0.826807	-0.312148	0.284566
O24	O	1.326807	0.187852	0.784566
O25	O	0.936519	-0.403322	0.477434
O26	O	1.436519	0.096678	0.977434
O27	O	0.826773	-0.403345	0.367693
O28	O	1.326773	0.096655	0.867693
O29	O	1.019706	-0.312108	0.477457
O30	O	1.519706	0.187892	0.977457
O31	O	1.019563	-0.523781	0.284562
O32	O	1.519563	-0.023781	0.784562
O33	O	0.936438	-0.523749	0.367690
O34	O	1.436438	-0.023749	0.867690
C35	C	0.802231	-0.357745	0.326127
C36	C	1.302231	0.142255	0.826127
C37	C	0.726999	-0.357757	0.326133
C38	C	1.226999	0.142243	0.826133
C39	C	0.691655	-0.405315	0.369347
C40	C	1.191655	0.094685	0.869347
C41	C	0.620967	-0.405316	0.369357
C42	C	1.120967	0.094684	0.869357
C43	C	0.585623	-0.357763	0.326148
C44	C	1.085623	0.142237	0.826148
C45	C	0.620972	-0.310200	0.282933
C46	C	1.120972	0.189800	0.782933
C47	C	0.691659	-0.310195	0.282927
C48	C	1.191659	0.189805	0.782927
C49	C	0.335899	-0.310216	0.282955
C50	C	0.835899	0.189784	0.782955
C51	C	0.265207	-0.310226	0.282962
C52	C	0.765207	0.189774	0.782962
C53	C	0.265206	-0.405337	0.369385
C54	C	0.765206	0.094663	0.869385
C55	C	0.335893	-0.405332	0.369379
C56	C	0.835893	0.094668	0.869379
C57	C	0.371236	-0.357767	0.326166
C58	C	0.871236	0.142233	0.826166
C59	C	0.447884	-0.357765	0.326157
C60	C	0.947884	0.142235	0.826157
C61	C	0.508976	-0.357768	0.326153
C62	C	1.008976	0.142232	0.826153
C63	C	0.978005	-0.550711	0.326137
C64	C	1.478005	-0.050711	0.826137
C65	C	0.978032	-0.633257	0.326155
C66	C	1.478032	-0.133257	0.826155
C67	C	0.932873	-0.832718	0.371344
C68	C	1.432873	-0.332718	0.871344
C69	C	0.916378	-0.882158	0.309581
C70	C	1.416378	-0.382158	0.809581
C71	C	0.978099	-0.784387	0.326164
C72	C	1.478099	-0.284387	0.826164
C73	C	0.994627	-0.882029	0.387934
C74	C	1.494627	-0.382029	0.887934
C75	C	0.978162	-0.930373	0.326178
C76	C	1.478162	-0.430373	0.826178
C77	C	0.961571	-0.832741	0.264368
C78	C	1.461571	-0.332741	0.764368
C79	C	1.039849	-0.832607	0.342762
C80	C	1.539849	-0.332607	0.842762
C81	C	1.023377	-0.882025	0.280957
C82	C	1.523377	-0.382025	0.780957
C83	C	0.978061	-0.700289	0.326157
C84	C	1.478061	-0.200289	0.826157
C85	C	0.978200	-1.014469	0.326178
C86	C	1.478200	-0.514469	0.826178
C87	C	1.154630	-0.357774	0.326171
C88	C	1.654630	0.142226	0.826171
C89	C	1.229862	-0.357780	0.326180
C90	C	1.729862	0.142220	0.826180
C91	C	0.978117	-0.357708	0.502691
C92	C	1.478117	0.142292	1.002691
C93	C	0.978129	-0.357686	0.577923
C94	C	1.478129	0.142314	1.077923
C95	C	0.978187	-0.164054	0.326175
C96	C	1.478187	0.335946	0.826175
C97	C	0.978230	-0.081508	0.326186
C98	C	1.478230	0.418492	0.826186
C99	C	0.978096	-0.357757	0.150292
C100	C	1.478096	0.142243	0.650292
C101	C	0.978215	-0.357570	0.075061
C102	C	1.478215	0.142430	0.575061
C103	C	0.934876	-0.310179	0.613268
C104	C	1.434876	0.189821	1.113268
C105	C	0.934885	-0.310164	0.683956
C106	C	1.434885	0.189836	1.183956
C107	C	0.978152	-0.357654	0.719299
C108	C	1.478152	0.142346	1.219299
C109	C	1.021407	-0.405166	0.683949
C110	C	1.521407	0.094834	1.183949
C111	C	1.021394	-0.405184	0.613262
C112	C	1.521394	0.094816	1.113262
C113	C	1.021461	-0.405096	0.969023
C114	C	1.521461	0.094904	1.469023
C115	C	1.021472	-0.405074	1.039715
C116	C	1.521472	0.094926	1.539715
C117	C	0.934952	-0.310077	1.039717
C118	C	1.434952	0.189923	1.539717
C119	C	0.934939	-0.310095	0.969030
C120	C	1.434939	0.189905	1.469030
C121	C	0.978191	-0.357609	0.933686
C122	C	1.478191	0.142391	1.433686
C123	C	0.978180	-0.357626	0.857038
C124	C	1.478180	0.142374	1.357038
C125	C	0.978167	-0.357634	0.795946
C126	C	1.478167	0.142366	1.295946
H127	H	0.720435	-0.271465	0.247741
H128	H	1.220435	0.228535	0.747741
O129	O	0.370329	-0.264043	0.241037
O130	O	0.870329	0.235957	0.741037
C131	C	0.440299	-0.274243	0.250281
C132	C	0.940299	0.225757	0.750281
H133	H	0.449968	-0.298634	0.302478
H134	H	0.949968	0.201366	0.802478
H135	H	0.467181	-0.218606	0.245769
H136	H	0.967181	0.281394	0.745769
H137	H	0.460327	-0.313736	0.210072
H138	H	0.960327	0.186264	0.710072
O139	O	0.944753	-0.807115	0.202031
O140	O	1.444753	-0.307115	0.702031
C141	C	0.879870	-0.832962	0.184549
C142	C	1.379870	-0.332962	0.684549
H143	H	0.867926	-0.885108	0.214730
H144	H	1.367926	-0.385108	0.714730
H145	H	0.878344	-0.846271	0.128296
H146	H	1.378344	-0.346271	0.628296
H147	H	0.840873	-0.788409	0.196482
H148	H	1.340873	-0.288409	0.696482
H149	H	1.056672	-0.443794	0.940255
H150	H	1.556672	0.056206	1.440255
O151	O	1.068960	-0.907663	0.235241
O152	O	1.568960	-0.407663	0.735241
C153	C	1.051325	-0.882399	0.170235
C154	C	1.551325	-0.382399	0.670235
H155	H	0.995164	-0.868670	0.168894
H156	H	1.495164	-0.368670	0.668894
H157	H	1.062730	-0.927475	0.131557
H158	H	1.562730	-0.427475	0.631557
H159	H	1.081821	-0.830624	0.157688
H160	H	1.581821	-0.330624	0.657688
O161	O	0.887092	-0.806917	0.416785
O162	O	1.387092	-0.306917	0.916785
C163	C	0.822089	-0.832185	0.399043
C164	C	1.322089	-0.332185	0.899043
H165	H	0.820855	-0.846072	0.342901
H166	H	1.320855	-0.346072	0.842901
H167	H	0.783450	-0.787049	0.410292
H168	H	1.283450	-0.287049	0.910292
H169	H	0.809400	-0.883864	0.429590
H170	H	1.309400	-0.383864	0.929590
H171	H	0.236432	-0.271497	0.247777
H172	H	0.736432	0.228503	0.747777
H173	H	0.864187	-0.903940	0.295555
H174	H	1.364187	-0.403940	0.795555
H175	H	1.092028	-0.810827	0.356819
H176	H	1.592028	-0.310827	0.856819
O177	O	0.230769	-0.451468	0.411347
O178	O	0.730769	0.048532	0.911347
C179	C	0.160799	-0.441290	0.402081
C180	C	0.660799	0.058710	0.902081
H181	H	0.151157	-0.383946	0.380006
H182	H	0.651157	0.116054	0.880006
H183	H	0.133955	-0.446404	0.452776
H184	H	0.633955	0.053596	0.952776
H185	H	0.140707	-0.485290	0.365969
H186	H	0.640707	0.014710	0.865969
O187	O	1.011201	-0.907770	0.450297
O188	O	1.511201	-0.407770	0.950297
C189	C	0.963342	-0.882663	0.497755
C190	C	1.463342	-0.382663	0.997755
H191	H	0.937549	-0.830701	0.477671
H192	H	1.437549	-0.330701	0.977671
H193	H	0.989840	-0.869296	0.547395
H194	H	1.489840	-0.369296	1.047395
H195	H	0.923936	-0.927688	0.506575
H196	H	1.423936	-0.427688	1.006575
O197	O	0.586537	-0.264072	0.240985
O198	O	1.086537	0.235928	0.740985
C199	C	0.516567	-0.274259	0.250267
C200	C	1.016567	0.225741	0.750267
H201	H	0.506898	-0.331606	0.272342
H202	H	1.006898	0.168394	0.772342
H203	H	0.489685	-0.269146	0.199579
H204	H	0.989685	0.230854	0.699579
H205	H	0.496540	-0.230264	0.286385
H206	H	0.996540	0.269736	0.786385
H207	H	0.364667	-0.444058	0.404562
H208	H	0.864667	0.055942	0.904562
H209	H	0.899647	-0.271503	0.584497
H210	H	1.399647	0.228497	1.084497
H211	H	0.899661	-0.271482	0.712731
H212	H	1.399661	0.228518	1.212731
O213	O	0.892845	-0.263940	0.934803
O214	O	1.392845	0.236060	1.434803
C215	C	0.854681	-0.221992	0.981158
C216	C	1.354681	0.278008	1.481158
H217	H	0.852331	-0.252396	1.031542
H218	H	1.352331	0.247604	1.531542
H219	H	0.801353	-0.214073	0.960729
H220	H	1.301353	0.285927	1.460729
H221	H	0.879496	-0.165588	0.988687
H222	H	1.379496	0.334412	1.488687
H223	H	0.899732	-0.271390	1.068502
H224	H	1.399732	0.228610	1.568502
O225	O	1.063596	-0.451175	1.073972
O226	O	1.563596	0.048825	1.573972
C227	C	1.131063	-0.434951	1.056721
C228	C	1.631063	0.065049	1.556721
H229	H	1.132473	-0.406419	1.005400
H230	H	1.632473	0.093581	1.505400
H231	H	1.161380	-0.488555	1.054300
H232	H	1.661380	0.011445	1.554300
H233	H	1.153891	-0.396761	1.096511
H234	H	1.653891	0.103239	1.596511
H235	H	1.056632	-0.443836	0.712731
H236	H	1.556632	0.056164	1.212731
O237	O	1.063473	-0.451357	0.579031
O238	O	1.563473	0.048643	1.079031
C239	C	1.101652	-0.493284	0.625381
C240	C	1.601652	0.006716	1.125381
H241	H	1.104027	-0.462850	0.675773
H242	H	1.604027	0.037150	1.175773
H243	H	1.154970	-0.501223	0.604959
H244	H	1.654970	-0.001223	1.104959
H245	H	1.076832	-0.549679	0.632890
H246	H	1.576832	-0.049679	1.132890
H247	H	0.720427	-0.444041	0.404530
H248	H	1.220427	0.055959	0.904530
H249	H	0.592193	-0.444043	0.404545
H250	H	1.092193	0.055957	0.904545
