data_functionalizedCrystal
_audit_creation_method	'MofGen! by Chris Wilmer'
_symmetry_space_group_name_H-M	'P1'
_symmetry_Int_Tables_number	1
_symmetry_cell_setting	triclinic
loop_
_symmetry_equiv_pos_as_xyz
  x,y,z
_cell_length_a	21.295417
_cell_length_b	21.295418
_cell_length_c	13.897441
_cell_angle_alpha	90.045201
_cell_angle_beta	89.963577
_cell_angle_gamma	89.951286
loop_
_atom_site_label
_atom_site_type_symbol
_atom_site_fract_x
_atom_site_fract_y
_atom_site_fract_z
Zn1	Zn	-0.250283	-0.962339	-0.545972
Zn2	Zn	-0.355562	-0.962247	-0.384657
Zn3	Zn	-0.250344	-0.857067	-0.384622
Zn4	Zn	-0.355552	-0.857032	-0.545841
O5	O	-0.302935	-0.909671	-0.465273
O6	O	-0.264227	-1.050417	-0.524643
O7	O	-0.341635	-0.948270	-0.249671
O8	O	-0.162247	-0.871086	-0.406065
O9	O	-0.341575	-1.050348	-0.406126
O10	O	-0.162202	-0.948429	-0.524609
O11	O	-0.264331	-0.870996	-0.249645
O12	O	-0.264321	-0.768973	-0.405938
O13	O	-0.341558	-0.871025	-0.680840
O14	O	-0.341617	-0.768947	-0.524385
O15	O	-0.264217	-0.948394	-0.680936
O16	O	-0.443650	-0.948236	-0.405998
O17	O	-0.443643	-0.870935	-0.524419
C18	C	-0.302975	-0.746120	-0.465144
C19	C	-0.303008	-0.676152	-0.465111
C20	C	-0.343310	-0.643288	-0.526691
C21	C	-0.343297	-0.577545	-0.526727
C22	C	-0.302989	-0.544669	-0.465166
C23	C	-0.262678	-0.577541	-0.403583
C24	C	-0.262688	-0.643282	-0.403555
N25	N	-0.298080	-0.441396	-0.380789
N26	N	-0.298075	-0.378944	-0.380818
C27	C	-0.302957	-0.346594	-0.465247
N28	N	-0.307857	-0.379055	-0.549648
N29	N	-0.307865	-0.441513	-0.549618
C30	C	-0.302974	-0.473384	-0.465190
C31	C	-0.343248	-0.242445	-0.526871
C32	C	-0.343230	-0.176701	-0.526908
C33	C	-0.262615	-0.176698	-0.403755
C34	C	-0.262629	-0.242441	-0.403726
C35	C	-0.302948	-0.275310	-0.465283
C36	C	-0.466487	-0.909589	-0.465219
C37	C	-0.536455	-0.909611	-0.465229
C38	C	-0.569305	-0.949897	-0.403630
C39	C	-0.635047	-0.949927	-0.403652
C40	C	-0.667938	-0.909659	-0.465262
C41	C	-0.635080	-0.869370	-0.526873
C42	C	-0.569339	-0.869346	-0.526856
N43	N	-0.771220	-0.854592	-0.472572
N44	N	-0.833672	-0.854616	-0.472582
C45	C	-0.866012	-0.909729	-0.465317
N46	N	-0.833542	-0.964819	-0.458023
N47	N	-0.771085	-0.964793	-0.458008
C48	C	-0.739223	-0.909681	-0.465287
C49	C	-0.970147	-0.950051	-0.403739
C50	C	-1.035891	-0.950082	-0.403768
C51	C	-1.035923	-0.869519	-0.526983
C52	C	-0.970180	-0.869494	-0.526960
C53	C	-0.937296	-0.909759	-0.465333
C54	C	-0.138745	-0.909771	-0.465348
C55	C	-0.068777	-0.909814	-0.465380
C56	C	-0.302880	-0.909716	-0.716866
C57	C	-0.302856	-0.909735	-0.824080
C58	C	-0.302906	-0.073862	-0.465375
C59	C	-0.302921	-0.143830	-0.465348
C60	C	-0.302813	-0.909752	-1.020375
C61	C	-0.302839	-0.909741	-0.911143
C62	C	-0.302945	-0.909663	-0.214659
C63	C	-0.302792	-0.909766	-0.107445
H64	H	-0.229867	-0.670039	-0.353409
C65	C	-0.218780	-0.141126	-0.336881
C66	C	-0.183477	-0.183982	-0.282957
C67	C	-0.143081	-0.151233	-0.221353
H68	H	-0.242751	-0.115423	-0.294710
H69	H	-0.191343	-0.115548	-0.373848
H70	H	-0.210910	-0.209549	-0.245992
H71	H	-0.159493	-0.209686	-0.325102
H72	H	-0.115644	-0.125655	-0.258321
H73	H	-0.167057	-0.125531	-0.179189
H74	H	-0.119119	-0.180306	-0.184765
H75	H	-0.542592	-0.836539	-0.577018
H76	H	-0.661799	-0.982735	-0.353491
H77	H	-0.943372	-0.982840	-0.353561
H78	H	-0.376141	-0.670046	-0.576817
C79	C	-0.934592	-0.825782	-0.593987
C80	C	-0.950528	-0.839448	-0.689456
C81	C	-0.917763	-0.799188	-0.751231
H82	H	-0.890719	-0.831493	-0.585285
H83	H	-0.945439	-0.783486	-0.579841
H84	H	-0.939676	-0.881734	-0.703597
H85	H	-0.994395	-0.833733	-0.698188
H86	H	-0.928611	-0.756891	-0.737086
H87	H	-0.873892	-0.804902	-0.742521
H88	H	-0.928576	-0.808450	-0.816014
H89	H	-0.229813	-0.269199	-0.353577
H90	H	-1.062636	-0.982892	-0.353609
C91	C	-1.071737	-0.825825	-0.593776
C92	C	-1.136343	-0.834459	-0.580595
C93	C	-1.169358	-0.794215	-0.642104
H94	H	-1.060992	-0.834973	-0.658639
H95	H	-1.061060	-0.783516	-0.579563
H96	H	-1.147015	-0.876758	-0.594814
H97	H	-1.147107	-0.825307	-0.515744
H98	H	-1.158681	-0.751906	-0.627891
H99	H	-1.158607	-0.803366	-0.706964
H100	H	-1.213196	-0.800063	-0.633163
H101	H	-0.376075	-0.269209	-0.576999
C102	C	-0.670900	-0.825673	-0.593659
C103	C	-0.735505	-0.834303	-0.580470
C104	C	-0.768521	-0.794056	-0.641973
H105	H	-0.660158	-0.834820	-0.658524
H106	H	-0.660220	-0.783365	-0.579445
H107	H	-0.746181	-0.876601	-0.594691
H108	H	-0.746265	-0.825152	-0.515618
H109	H	-0.757840	-0.751748	-0.627759
H110	H	-0.757774	-0.803206	-0.706835
H111	H	-0.812359	-0.799902	-0.633027
C112	C	-0.386991	-0.541741	-0.593547
C113	C	-0.378343	-0.477133	-0.580408
C114	C	-0.418577	-0.444132	-0.641952
H115	H	-0.429302	-0.552387	-0.579359
H116	H	-0.377831	-0.552529	-0.658403
H117	H	-0.387507	-0.466349	-0.515566
H118	H	-0.336041	-0.466468	-0.594602
H119	H	-0.409417	-0.454921	-0.706808
H120	H	-0.460885	-0.454784	-0.627759
H121	H	-0.412710	-0.400292	-0.633052
H122	H	-0.229858	-0.550769	-0.353461
H123	H	-0.376048	-0.149945	-0.577060
H124	H	-0.542533	-0.982685	-0.353452
