data_functionalizedCrystal
_audit_creation_method	'MofGen! by Chris Wilmer'
_symmetry_space_group_name_H-M	'P1'
_symmetry_Int_Tables_number	1
_symmetry_cell_setting	triclinic
loop_
_symmetry_equiv_pos_as_xyz
  x,y,z
_cell_length_a	12.594517
_cell_length_b	12.594516
_cell_length_c	13.897441
_cell_angle_alpha	89.973623
_cell_angle_beta	89.987647
_cell_angle_gamma	90.011939
loop_
_atom_site_label
_atom_site_type_symbol
_atom_site_fract_x
_atom_site_fract_y
_atom_site_fract_z
Zn1	Zn	1.627276	-0.423825	-0.545194
Zn2	Zn	1.627164	-0.601836	-0.383907
Zn3	Zn	1.449277	-0.423859	-0.383936
Zn4	Zn	1.449262	-0.601749	-0.545183
O5	O	1.538245	-0.512817	-0.464555
O6	O	1.776207	-0.447461	-0.523791
O7	O	1.603527	-0.578277	-0.248929
O8	O	1.472942	-0.274909	-0.405343
O9	O	1.776125	-0.578244	-0.405294
O10	O	1.603717	-0.274884	-0.523819
O11	O	1.472834	-0.447519	-0.248950
O12	O	1.300329	-0.447434	-0.405333
O13	O	1.472917	-0.578097	-0.680166
O14	O	1.300318	-0.578130	-0.523801
O15	O	1.603703	-0.447377	-0.680174
O16	O	1.603512	-0.750770	-0.405284
O17	O	1.472808	-0.750706	-0.523773
C18	C	1.261704	-0.512777	-0.464570
C19	C	1.143399	-0.512785	-0.464599
C20	C	1.074170	-0.584010	-0.528909
C21	C	1.003362	-0.486964	-0.552630
C22	C	1.003408	-0.609912	-0.440857
C23	C	1.074149	-0.415688	-0.488366
C24	C	1.074200	-0.538701	-0.376552
C25	C	1.003424	-0.441588	-0.400239
C26	C	1.538175	-0.789358	-0.464545
C27	C	1.538243	-0.907664	-0.464574
C28	C	1.467146	-0.976921	-0.528974
C29	C	1.441211	-1.047785	-0.440961
C30	C	1.564275	-1.047599	-0.552602
C31	C	1.512257	-0.976969	-0.376514
C32	C	1.635365	-0.976777	-0.488214
C33	C	1.609467	-1.047609	-0.400140
C34	C	1.815866	-0.512858	-0.464541
C35	C	1.934171	-0.512876	-0.464535
C36	C	1.538320	-0.512723	-0.716148
C37	C	1.538353	-0.512683	-0.823362
C38	C	1.538344	-0.235196	-0.464585
C39	C	1.538386	-0.116891	-0.464599
C40	C	1.538382	-0.512611	-1.019657
C41	C	1.538362	-0.512654	-0.910425
C42	C	1.538231	-0.512834	-0.213941
C43	C	1.538405	-0.512574	-0.106727
H44	H	0.972557	-0.381325	-0.345827
H45	H	1.490202	-0.946072	-0.302058
H46	H	0.972246	-0.465076	-0.627062
H47	H	1.105236	-0.644126	-0.583364
H48	H	1.105093	-0.333563	-0.508504
C49	C	1.116277	-0.568308	-0.276033
H50	H	1.092100	-0.637343	-0.259280
H51	H	1.091002	-0.518450	-0.230163
H52	H	1.191699	-0.567422	-0.276650
H53	H	1.586234	-1.078624	-0.627037
C54	C	0.961413	-0.720815	-0.413769
H55	H	0.985644	-0.771296	-0.459553
H56	H	0.885996	-0.719881	-0.413371
H57	H	0.986709	-0.739696	-0.351683
H58	H	1.406914	-0.945882	-0.583357
H59	H	1.359143	-1.078998	-0.420986
C60	C	1.690769	-1.089287	-0.326502
H61	H	1.672154	-1.064973	-0.264035
H62	H	1.759503	-1.063900	-0.342753
H63	H	1.690787	-1.164712	-0.327276
C64	C	1.746224	-0.934647	-0.515236
H65	H	1.764572	-0.958797	-0.577819
H66	H	1.796929	-0.959928	-0.470122
H67	H	1.745561	-0.859225	-0.514456
