data_functionalizedCrystal
_audit_creation_method	'MofGen! by Chris Wilmer'
_symmetry_space_group_name_H-M	'P1'
_symmetry_Int_Tables_number	1
_symmetry_cell_setting	triclinic
loop_
_symmetry_equiv_pos_as_xyz
  x,y,z
_cell_length_a	11.169417
_cell_length_b	14.908520
_cell_length_c	14.908308
_cell_angle_alpha	96.360765
_cell_angle_beta	93.281299
_cell_angle_gamma	93.321403
loop_
_atom_site_label
_atom_site_type_symbol
_atom_site_fract_x
_atom_site_fract_y
_atom_site_fract_z
Zn1	Zn	1.763991	-0.389851	-0.532495
Zn2	Zn	2.263991	0.110149	-0.032495
Zn3	Zn	1.763855	-0.532497	-0.389865
Zn4	Zn	2.263855	-0.032497	0.110135
Zn5	Zn	1.575581	-0.381156	-0.381160
Zn6	Zn	2.075581	0.118844	0.118840
Zn7	Zn	1.550958	-0.541172	-0.541183
Zn8	Zn	2.050958	-0.041172	-0.041183
O9	O	1.663596	-0.461169	-0.461176
O10	O	2.163596	0.038831	0.038824
O11	O	1.931922	-0.408782	-0.513582
O12	O	2.431922	0.091218	-0.013582
O13	O	1.749128	-0.505151	-0.262050
O14	O	2.249128	-0.005151	0.237950
O15	O	1.610935	-0.255645	-0.393956
O16	O	2.110935	0.244355	0.106044
O17	O	1.931822	-0.513582	-0.408792
O18	O	2.431822	-0.013582	0.091208
O19	O	1.749360	-0.262033	-0.505141
O20	O	2.249360	0.237967	-0.005141
O21	O	1.610803	-0.393962	-0.255654
O22	O	2.110803	0.106038	0.244346
O23	O	1.404366	-0.402374	-0.402381
O24	O	1.904366	0.097626	0.097619
O25	O	1.568970	-0.528369	-0.666691
O26	O	2.068970	-0.028369	-0.166691
O27	O	1.386276	-0.519938	-0.519949
O28	O	1.886276	-0.019938	-0.019949
O29	O	1.725485	-0.417194	-0.660308
O30	O	2.225485	0.082806	-0.160308
O31	O	1.725252	-0.660312	-0.417217
O32	O	2.225252	-0.160312	0.082783
O33	O	1.568838	-0.666686	-0.528389
O34	O	2.068838	-0.166686	-0.028389
C35	C	1.351774	-0.461155	-0.461163
C36	C	1.851774	0.038845	0.038837
C37	C	1.218371	-0.461172	-0.461181
C38	C	1.718371	0.038828	0.038819
C39	C	1.644389	-0.696343	-0.474710
C40	C	2.144389	-0.196343	0.025290
C41	C	1.636280	-0.796953	-0.480530
C42	C	2.136280	-0.296953	0.019470
C43	C	1.784066	-0.979318	-0.375797
C44	C	2.284066	-0.479318	0.124203
C45	C	1.776451	-1.073850	-0.381263
C46	C	2.276451	-0.573850	0.118737
C47	C	1.613441	-1.080552	-0.496932
C48	C	2.113441	-0.580552	0.003068
C49	C	1.621056	-0.986019	-0.491466
C50	C	2.121056	-0.486019	0.008534
C51	C	1.706370	-0.935406	-0.430895
C52	C	2.206370	-0.435406	0.069105
C53	C	1.713979	-0.840872	-0.425426
C54	C	2.213979	-0.340872	0.074574
C55	C	1.550975	-0.847575	-0.541099
C56	C	2.050975	-0.347575	-0.041099
C57	C	1.543360	-0.942107	-0.546565
C58	C	2.043360	-0.442107	-0.046565
C59	C	1.976637	-0.461184	-0.461189
C60	C	2.476637	0.038816	0.038811
C61	C	2.110036	-0.461191	-0.461194
C62	C	2.610036	0.038809	0.038806
C63	C	1.644496	-0.474719	-0.697260
C64	C	2.144496	0.025281	-0.197260
C65	C	1.636356	-0.480493	-0.797865
C66	C	2.136356	0.019507	-0.297865
C67	C	1.682909	-0.225078	-0.447609
C68	C	2.182909	0.274922	0.052391
C69	C	1.691140	-0.124470	-0.441827
C70	C	2.191140	0.375530	0.058173
C71	C	1.784038	-0.375556	-0.980266
C72	C	2.284038	0.124444	-0.480266
C73	C	1.776394	-0.380979	-1.074793
C74	C	2.276394	0.119021	-0.574793
C75	C	1.613420	-0.496755	-1.081448
C76	C	2.113420	0.003245	-0.581448
C77	C	1.621064	-0.491333	-0.986921
C78	C	2.121064	0.008667	-0.486921
C79	C	1.706377	-0.430732	-0.936333
C80	C	2.206377	0.069268	-0.436333
C81	C	1.714026	-0.425315	-0.841804
C82	C	2.214026	0.074685	-0.341804
C83	C	1.551047	-0.541087	-0.848460
C84	C	2.051047	-0.041087	-0.348460
C85	C	1.543403	-0.546509	-0.942988
C86	C	2.043403	-0.046509	-0.442988
C87	C	1.682697	-0.447606	-0.226006
C88	C	2.182697	0.052394	0.273994
C89	C	1.691090	-0.441577	-0.125387
C90	C	2.191090	0.058423	0.374613
H91	H	1.783443	-0.799662	-0.376104
H92	H	2.283443	-0.299662	0.123896
H93	H	1.839631	-0.336046	-1.110560
H94	H	2.339631	0.163954	-0.610560
H95	H	1.543962	-0.546093	-1.122652
H96	H	2.043962	-0.046093	-0.622652
H97	H	1.839721	-1.109599	-0.336397
H98	H	2.339721	-0.609599	0.163603
C99	C	1.519615	-1.136233	-0.563562
C100	C	2.019615	-0.636233	-0.063562
H101	H	1.474436	-1.096544	-0.595603
H102	H	1.974436	-0.596544	-0.095603
H103	H	1.467193	-1.171177	-0.531044
H104	H	1.967193	-0.671177	-0.031044
H105	H	1.559342	-1.175321	-0.605161
H106	H	2.059342	-0.675321	-0.105161
H107	H	1.473903	-0.983330	-0.595881
H108	H	1.973903	-0.483330	-0.095881
C109	C	1.449571	-0.613167	-0.998638
C110	C	1.949571	-0.113167	-0.498638
H111	H	1.456145	-0.608499	-1.061228
H112	H	1.956145	-0.108499	-0.561228
H113	H	1.371265	-0.599038	-0.982384
H114	H	1.871265	-0.099038	-0.482384
H115	H	1.463433	-0.673097	-0.986644
H116	H	1.963433	-0.173097	-0.486644
H117	H	1.487707	-0.811812	-0.585961
H118	H	1.987707	-0.311812	-0.085961
H119	H	1.487812	-0.586017	-0.812680
H120	H	1.987812	-0.086017	-0.312680
C121	C	1.807856	-0.358652	-0.786159
C122	C	2.307856	0.141348	-0.286159
H123	H	1.853003	-0.326561	-0.825866
H124	H	2.353003	0.173439	-0.325866
H125	H	1.860307	-0.391154	-0.751272
H126	H	2.360307	0.108846	-0.251272
H127	H	1.768135	-0.317098	-0.747019
H128	H	2.268135	0.182902	-0.247019
C129	C	1.877900	-0.923640	-0.309172
C130	C	2.377900	-0.423640	0.190828
H131	H	1.923086	-0.963332	-0.277140
H132	H	2.423086	-0.463332	0.222860
H133	H	1.838193	-0.884541	-0.267576
H134	H	2.338193	-0.384541	0.232424
H135	H	1.930331	-0.888707	-0.341702
H136	H	2.430331	-0.388707	0.158298
H137	H	1.853509	-0.326218	-0.939077
H138	H	2.353509	0.173782	-0.439077
