data_functionalizedCrystal
_audit_creation_method	'MofGen! by Chris Wilmer'
_symmetry_space_group_name_H-M	'P1'
_symmetry_Int_Tables_number	1
_symmetry_cell_setting	triclinic
loop_
_symmetry_equiv_pos_as_xyz
  x,y,z
_cell_length_a	14.853567
_cell_length_b	14.853567
_cell_length_c	15.186229
_cell_angle_alpha	90.000386
_cell_angle_beta	90.000050
_cell_angle_gamma	96.365070
loop_
_atom_site_label
_atom_site_type_symbol
_atom_site_fract_x
_atom_site_fract_y
_atom_site_fract_z
O1	O	0.117703	-1.196363	-0.073160
O2	O	0.131724	-0.933904	-0.073174
O3	O	-0.006516	-1.072144	-0.073170
O4	O	0.255943	-1.058123	-0.073165
O5	O	-0.006518	-1.072135	0.073288
O6	O	0.131722	-0.933895	0.073283
O7	O	0.117701	-1.196354	0.073297
Zn8	Zn	0.124711	-1.065123	0.096543
Zn9	Zn	0.124714	-1.065135	-0.096421
O10	O	0.255942	-1.058114	0.073292
C11	C	-0.040106	-1.071504	0.000056
C12	C	-0.140189	-1.069601	0.000049
C13	C	0.131088	-0.900311	0.000052
C14	C	0.129184	-0.800227	0.000047
N15	N	0.124709	-1.065121	0.228236
C16	C	-0.552723	-0.979435	0.000061
C17	C	-0.574004	-1.143668	0.000069
C18	C	-0.479971	-1.145458	0.000064
C19	C	-0.422309	-1.064235	0.000059
C20	C	-0.458680	-0.981223	0.000058
C21	C	-0.443591	-1.228469	0.000074
C22	C	-0.349552	-1.230262	0.000070
C23	C	-0.291889	-1.149039	0.000058
C24	C	-0.328266	-1.066023	0.000056
C25	C	-0.270604	-0.984800	0.000051
C26	C	-0.306979	-0.901783	0.000043
C27	C	-0.401017	-0.899999	0.000046
C28	C	-0.197851	-1.150823	0.000054
C29	C	-0.176561	-0.986588	0.000048
C30	C	0.289531	-1.058754	0.000064
C31	C	0.389615	-1.060657	0.000066
C32	C	0.118337	-1.229947	0.000068
C33	C	0.120241	-1.330031	0.000068
C34	C	0.039019	-0.387693	0.000065
C35	C	0.203251	-0.366412	0.000067
C36	C	0.205042	-0.460446	0.000064
C37	C	0.123819	-0.518108	0.000060
C38	C	0.040806	-0.481736	0.000059
C39	C	0.288053	-0.496825	0.000056
C40	C	0.289846	-0.590864	0.000052
C41	C	0.208623	-0.648528	0.000055
C42	C	0.125607	-0.612150	0.000055
C43	C	0.044384	-0.669812	0.000051
C44	C	-0.038633	-0.633437	0.000057
C45	C	-0.040417	-0.539399	0.000062
C46	C	0.210407	-0.742565	0.000050
C47	C	0.046172	-0.763855	0.000046
N48	N	0.124709	-1.065144	-0.228113
C49	C	0.063517	-1.126355	0.453961
C50	C	0.063515	-1.126358	0.546150
C51	C	0.185904	-1.003904	0.546155
C52	C	0.185901	-1.003897	0.453967
C53	C	0.124709	-1.065128	0.407872
C54	C	0.124710	-1.065137	0.592250
C55	C	0.124708	-1.065140	0.692206
C56	C	0.124709	-1.065124	0.307910
H57	H	-0.129618	-0.920445	0.000040
H58	H	0.235732	-0.954035	0.416440
Cl59	Cl	-0.234480	-0.799679	0.000043
H60	H	-0.430643	-0.832411	0.000041
H61	H	-0.019971	-0.810798	0.000046
Cl62	Cl	-0.013414	-1.203327	0.396017
H63	H	0.013686	-1.176213	0.583673
Cl64	Cl	0.314762	-0.788291	0.000036
H65	H	0.357443	-0.620472	0.000047
Cl66	Cl	-0.598450	-0.875076	0.000042
Cl67	Cl	-0.303832	-1.334624	0.000065
Cl68	Cl	-0.516083	-1.330570	0.000100
H69	H	-0.104764	-0.680397	0.000048
H70	H	0.235727	-0.954052	0.583695
H71	H	-0.108005	-0.509774	0.000088
Cl72	Cl	-0.152125	-1.255178	0.000080
Cl73	Cl	-0.065340	-0.341967	0.000077
Cl74	Cl	0.305354	-0.293923	0.000059
Cl75	Cl	0.390154	-0.424333	0.000046
H76	H	-0.620958	-1.209795	0.000081
