data_functionalizedCrystal
_audit_creation_method	'MofGen! by Chris Wilmer'
_symmetry_space_group_name_H-M	'P1'
_symmetry_Int_Tables_number	1
_symmetry_cell_setting	triclinic
loop_
_symmetry_equiv_pos_as_xyz
  x,y,z
_cell_length_a	10.967874
_cell_length_b	14.044190
_cell_length_c	9.482900
_cell_angle_alpha	100.185237
_cell_angle_beta	68.707142
_cell_angle_gamma	88.854151
loop_
_atom_site_label
_atom_site_type_symbol
_atom_site_fract_x
_atom_site_fract_y
_atom_site_fract_z
O1	O	1.753033	0.064826	-0.560076
O2	O	1.377284	0.089025	-0.465949
O3	O	1.559509	-0.060919	-0.511568
O4	O	1.570807	0.214770	-0.514456
O5	O	1.522509	-0.030343	-0.260513
O6	O	1.340283	0.119600	-0.214893
O7	O	1.716032	0.095402	-0.309020
Cu8	Cu	1.524779	0.110293	-0.239033
Cu9	Cu	1.568537	0.074134	-0.535936
O10	O	1.533807	0.245345	-0.263400
C11	C	1.310405	0.104862	-0.328302
C12	C	1.166252	0.106488	-0.292189
C13	C	1.121151	0.091374	-0.406143
C14	C	0.972161	0.093053	-0.368822
C15	C	1.536069	-0.080825	-0.384799
C16	C	1.521336	-0.185692	-0.381096
C17	C	1.598893	-0.437866	-0.400581
C18	C	1.494431	-0.377703	-0.374403
C19	C	1.509404	-0.270859	-0.378128
C20	C	1.583921	-0.544721	-0.396857
C21	C	1.782911	0.079564	-0.446671
C22	C	1.927066	0.077937	-0.482793
C23	C	1.557247	0.265251	-0.390173
C24	C	1.571982	0.370117	-0.393887
N25	N	1.494012	0.135724	-0.030211
N26	N	1.599313	0.048695	-0.744760
C27	C	1.559452	0.081630	0.025606
C28	C	1.533864	0.102797	0.199429
H29	H	1.094562	0.120676	-0.166999
Cl30	Cl	0.861492	0.114961	-0.175523
H31	H	0.998750	0.063759	-0.607992
H32	H	1.192840	0.077195	-0.531333
Cl33	Cl	1.338988	-0.422062	-0.335465
H34	H	1.699562	-0.409132	-0.425784
H35	H	1.634417	0.019645	-0.055289
H36	H	1.458884	0.164779	0.280324
H37	H	1.419038	0.197703	0.050689
H38	H	1.674282	-0.013294	0.174347
