data_functionalizedCrystal
_audit_creation_method	'MofGen! by Chris Wilmer'
_symmetry_space_group_name_H-M	'P1'
_symmetry_Int_Tables_number	1
_symmetry_cell_setting	triclinic
loop_
_symmetry_equiv_pos_as_xyz
  x,y,z
_cell_length_a	14.519731
_cell_length_b	14.519731
_cell_length_c	14.048226
_cell_angle_alpha	90.004594
_cell_angle_beta	89.994041
_cell_angle_gamma	96.311147
loop_
_atom_site_label
_atom_site_type_symbol
_atom_site_fract_x
_atom_site_fract_y
_atom_site_fract_z
O1	O	-1.223865	0.120982	0.079187
O2	O	-0.973865	0.370982	0.329187
O3	O	-0.723865	0.620982	0.579187
O4	O	-0.473865	0.870982	0.829187
O5	O	-0.955392	0.135198	0.079184
O6	O	-0.705392	0.385198	0.329184
O7	O	-0.455392	0.635198	0.579184
O8	O	-0.205392	0.885198	0.829184
O9	O	-1.096737	-0.006147	0.079177
O10	O	-0.846737	0.243853	0.329177
O11	O	-0.596737	0.493853	0.579177
O12	O	-0.346737	0.743853	0.829177
O13	O	-1.082521	0.262327	0.079194
O14	O	-0.832521	0.512327	0.329194
O15	O	-0.582521	0.762327	0.579194
O16	O	-0.332521	1.012327	0.829194
O17	O	-1.096723	-0.006148	-0.079144
O18	O	-0.846723	0.243852	0.170856
O19	O	-0.596723	0.493852	0.420856
O20	O	-0.346723	0.743852	0.670856
O21	O	-0.955379	0.135197	-0.079137
O22	O	-0.705379	0.385197	0.170863
O23	O	-0.455379	0.635197	0.420863
O24	O	-0.205379	0.885197	0.670863
O25	O	-1.223852	0.120981	-0.079134
O26	O	-0.973852	0.370981	0.170866
O27	O	-0.723852	0.620981	0.420866
O28	O	-0.473852	0.870981	0.670866
Zn29	Zn	-1.089613	0.128089	-0.104273
Zn30	Zn	-0.839613	0.378089	0.145727
Zn31	Zn	-0.589613	0.628089	0.395727
Zn32	Zn	-0.339613	0.878089	0.645727
Zn33	Zn	-1.089631	0.128090	0.104323
Zn34	Zn	-0.839631	0.378090	0.354323
Zn35	Zn	-0.589631	0.628090	0.604323
Zn36	Zn	-0.339631	0.878090	0.854323
O37	O	-1.082507	0.262325	-0.079127
O38	O	-0.832507	0.512325	0.170873
O39	O	-0.582507	0.762325	0.420873
O40	O	-0.332507	1.012325	0.670873
C41	C	-0.921026	0.134531	0.000023
C42	C	-0.671026	0.384531	0.250023
C43	C	-0.421026	0.634531	0.500023
C44	C	-0.171026	0.884531	0.750023
C45	C	-0.818645	0.132535	0.000021
C46	C	-0.568645	0.382535	0.250021
C47	C	-0.318645	0.632535	0.500021
C48	C	-0.068645	0.882535	0.750021
C49	C	-1.096064	-0.040507	0.000016
C50	C	-0.846064	0.209493	0.250016
C51	C	-0.596064	0.459493	0.500016
C52	C	-0.346064	0.709493	0.750016
C53	C	-1.094068	-0.142887	0.000016
C54	C	-0.844068	0.107113	0.250016
C55	C	-0.594068	0.357113	0.500016
C56	C	-0.344068	0.607113	0.750016
C57	C	-0.735501	0.130913	0.000024
C58	C	-0.485501	0.380913	0.250024
C59	C	-0.235501	0.630913	0.500024
C60	C	0.014499	0.880913	0.750024
C61	C	-0.631192	0.128887	0.000022
C62	C	-0.381192	0.378887	0.250022
C63	C	-0.131192	0.628887	0.500022
C64	C	0.118808	0.878887	0.750022
C65	C	-0.548053	0.127278	0.000020
C66	C	-0.298053	0.377278	0.250020
C67	C	-0.048053	0.627278	0.500020
C68	C	0.201947	0.877278	0.750020
C69	C	-0.443738	0.125252	0.000020
C70	C	-0.193738	0.375252	0.250020
C71	C	0.056262	0.625252	0.500020
C72	C	0.306262	0.875252	0.750020
C73	C	-1.092446	-0.226031	0.000018
C74	C	-0.842446	0.023969	0.250018
C75	C	-0.592446	0.273969	0.500018
C76	C	-0.342446	0.523969	0.750018
C77	C	-1.090419	-0.330340	0.000025
C78	C	-0.840419	-0.080340	0.250025
C79	C	-0.590419	0.169660	0.500025
C80	C	-0.340419	0.419660	0.750025
C81	C	-1.088811	-0.413479	0.000031
C82	C	-0.838811	-0.163479	0.250031
C83	C	-0.588811	0.086521	0.500031
C84	C	-0.338811	0.336521	0.750031
C85	C	-1.086785	-0.517795	0.000037
C86	C	-0.836785	-0.267795	0.250037
C87	C	-0.586785	-0.017795	0.500037
C88	C	-0.336785	0.232205	0.750037
C89	C	-0.258218	0.121648	0.000025
C90	C	-0.008218	0.371648	0.250025
C91	C	0.241782	0.621648	0.500025
C92	C	0.491782	0.871648	0.750025
C93	C	-0.360598	0.123643	0.000019
C94	C	-0.110598	0.373643	0.250019
C95	C	0.139402	0.623643	0.500019
C96	C	0.389402	0.873643	0.750019
C97	C	-1.083180	0.296685	0.000036
C98	C	-0.833180	0.546685	0.250036
C99	C	-0.583180	0.796685	0.500036
C100	C	-0.333180	1.046685	0.750036
C101	C	-1.085176	0.399066	0.000043
C102	C	-0.835176	0.649066	0.250043
C103	C	-0.585176	0.899066	0.500043
C104	C	-0.335176	1.149066	0.750043
N105	N	-1.089608	0.128087	-0.246633
N106	N	-0.839608	0.378087	0.003367
N107	N	-0.589608	0.628087	0.253367
N108	N	-0.339608	0.878087	0.503367
C109	C	-1.145632	0.184151	-0.296443
C110	C	-0.895632	0.434151	-0.046443
C111	C	-0.645632	0.684151	0.203557
C112	C	-0.395632	0.934151	0.453557
C113	C	-1.145644	0.184147	-0.396100
C114	C	-0.895644	0.434147	-0.146100
C115	C	-0.645644	0.684147	0.103900
C116	C	-0.395644	0.934147	0.353900
C117	C	-1.089626	0.128083	-0.445947
C118	C	-0.839626	0.378083	-0.195947
C119	C	-0.589626	0.628083	0.054053
C120	C	-0.339626	0.878083	0.304053
C121	C	-1.033599	0.072012	-0.396130
C122	C	-0.783599	0.322012	-0.146130
C123	C	-0.533599	0.572012	0.103870
C124	C	-0.283599	0.822012	0.353870
C125	C	-1.033593	0.072012	-0.296475
C126	C	-0.783593	0.322012	-0.046475
C127	C	-0.533593	0.572012	0.203525
C128	C	-0.283593	0.822012	0.453525
C129	C	-1.033614	0.072019	-0.603845
C130	C	-0.783614	0.322019	-0.353845
C131	C	-0.533614	0.572019	-0.103845
C132	C	-0.283614	0.822019	0.146155
C133	C	-1.033619	0.072020	-0.703507
C134	C	-0.783619	0.322020	-0.453507
C135	C	-0.533619	0.572020	-0.203507
C136	C	-0.283619	0.822020	0.046493
C137	C	-1.145666	0.184154	-0.703470
C138	C	-0.895666	0.434154	-0.453470
C139	C	-0.645666	0.684154	-0.203470
C140	C	-0.395666	0.934154	0.046530
C141	C	-1.145660	0.184154	-0.603815
C142	C	-0.895660	0.434154	-0.353815
C143	C	-0.645660	0.684154	-0.103815
C144	C	-0.395660	0.934154	0.146185
C145	C	-1.089631	0.128084	-0.554005
C146	C	-0.839631	0.378084	-0.304005
C147	C	-0.589631	0.628084	-0.054005
C148	C	-0.339631	0.878084	0.195995
N149	N	-1.089644	0.128084	0.246683
N150	N	-0.839644	0.378084	0.496683
N151	N	-0.589644	0.628084	0.746683
N152	N	-0.339644	0.878084	0.996683
H153	H	-1.191244	0.229811	-0.255865
H154	H	-0.941244	0.479811	-0.005865
H155	H	-0.691244	0.729811	0.244135
H156	H	-0.441244	0.979811	0.494135
F157	F	-0.973995	0.012330	-0.550836
F158	F	-0.723995	0.262330	-0.300836
F159	F	-0.473995	0.512330	-0.050836
F160	F	-0.223995	0.762330	0.199164
F161	F	-0.974002	0.012346	-0.756556
F162	F	-0.724002	0.262346	-0.506556
F163	F	-0.474002	0.512346	-0.256556
F164	F	-0.224002	0.762346	-0.006556
F165	F	-0.973982	0.012342	-0.449183
F166	F	-0.723982	0.262342	-0.199183
F167	F	-0.473982	0.512342	0.050817
F168	F	-0.223982	0.762342	0.300817
F169	F	-1.205299	0.243825	-0.756482
F170	F	-0.955299	0.493825	-0.506482
F171	F	-0.705299	0.743825	-0.256482
F172	F	-0.455299	0.993825	-0.006482
F173	F	-0.973971	0.012333	-0.243464
F174	F	-0.723971	0.262333	0.006536
F175	F	-0.473971	0.512333	0.256536
F176	F	-0.223971	0.762333	0.506536
H177	H	-1.191270	0.229811	-0.563232
H178	H	-0.941270	0.479811	-0.313232
H179	H	-0.691270	0.729811	-0.063232
H180	H	-0.441270	0.979811	0.186768
F181	F	-1.205272	0.243820	-0.449107
F182	F	-0.955272	0.493820	-0.199107
F183	F	-0.705272	0.743820	0.050893
F184	F	-0.455272	0.993820	0.300893
