data_functionalizedCrystal
_audit_creation_method	'MofGen! by Chris Wilmer'
_symmetry_space_group_name_H-M	'P1'
_symmetry_Int_Tables_number	1
_symmetry_cell_setting	triclinic
loop_
_symmetry_equiv_pos_as_xyz
  x,y,z
_cell_length_a	12.811439
_cell_length_b	14.044190
_cell_length_c	11.295500
_cell_angle_alpha	94.239051
_cell_angle_beta	89.164235
_cell_angle_gamma	88.596662
loop_
_atom_site_label
_atom_site_type_symbol
_atom_site_fract_x
_atom_site_fract_y
_atom_site_fract_z
O1	O	-1.401009	-0.124671	0.052242
O2	O	-0.901009	0.375329	0.552242
O3	O	-1.098983	-0.140450	0.019625
O4	O	-0.598983	0.359550	0.519625
O5	O	-1.245457	0.005415	0.035467
O6	O	-0.745457	0.505415	0.535467
O7	O	-1.254535	-0.270536	0.036400
O8	O	-0.754535	0.229464	0.536400
O9	O	-1.231858	0.016777	0.232051
O10	O	-0.731858	0.516777	0.732051
O11	O	-1.085384	-0.129088	0.216209
O12	O	-0.585384	0.370912	0.716209
O13	O	-1.387410	-0.113309	0.248826
O14	O	-0.887410	0.386691	0.748826
Cu15	Cu	-1.235155	-0.120161	0.250467
Cu16	Cu	-0.735155	0.379839	0.750467
Cu17	Cu	-1.251238	-0.133598	0.017984
Cu18	Cu	-0.751238	0.366402	0.517984
O19	O	-1.240935	-0.259174	0.232984
O20	O	-0.740935	0.240826	0.732984
C21	C	-1.053297	-0.134234	0.113718
C22	C	-0.553297	0.365766	0.613718
C23	C	-0.937427	-0.132629	0.101206
C24	C	-0.437427	0.367371	0.601206
C25	C	-0.704866	-0.117207	0.292033
C26	C	-0.204866	0.382793	0.792033
C27	C	-0.595995	-0.115698	0.280283
C28	C	-0.095995	0.384302	0.780283
C29	C	-0.610813	-0.128096	0.065955
C30	C	-0.110813	0.371904	0.565955
C31	C	-0.719684	-0.129605	0.077706
C32	C	-0.219684	0.370395	0.577706
C33	C	-0.766706	-0.124161	0.190749
C34	C	-0.266706	0.375839	0.690749
C35	C	-0.875579	-0.125677	0.202498
C36	C	-0.375579	0.374323	0.702498
C37	C	-0.890395	-0.138068	-0.011829
C38	C	-0.390395	0.361932	0.488171
C39	C	-0.781524	-0.136559	-0.023579
C40	C	-0.281524	0.363441	0.476421
C41	C	-1.234688	0.046402	0.133334
C42	C	-0.734688	0.546402	0.633334
C43	C	-1.222845	0.151601	0.132065
C44	C	-0.722845	0.651601	0.632065
C45	C	-1.251706	-0.300161	0.135115
C46	C	-0.751706	0.199839	0.635115
C47	C	-1.263548	-0.405361	0.136376
C48	C	-0.763548	0.094639	0.636376
C49	C	-0.433096	-0.119528	0.154734
C50	C	0.066904	0.380472	0.654734
C51	C	-0.548965	-0.121144	0.167248
C52	C	-0.048965	0.378856	0.667248
C53	C	-1.285182	0.402028	0.138750
C54	C	-0.785182	0.902028	0.638750
C55	C	-1.201216	0.344207	0.129691
C56	C	-0.701216	0.844207	0.629691
C57	C	-1.213254	0.237032	0.131012
C58	C	-0.713254	0.737032	0.631012
C59	C	-1.273146	0.509213	0.137429
C60	C	-0.773146	1.009213	0.637429
N61	N	-1.223850	-0.110710	0.413984
N62	N	-0.723850	0.389290	0.913984
C63	C	-1.343905	-0.211139	0.676222
C64	C	-0.843905	0.288861	1.176222
C65	C	-1.335369	-0.203989	0.799965
C66	C	-0.835369	0.296011	1.299965
C67	C	-1.198249	-0.089255	0.785216
C68	C	-0.698249	0.410745	1.285216
C69	C	-1.206785	-0.096405	0.661473
C70	C	-0.706785	0.403595	1.161473
C71	C	-1.279614	-0.157350	0.606981
C72	C	-0.779614	0.342650	1.106981
C73	C	-1.288144	-0.164505	0.483235
C74	C	-0.788144	0.335495	0.983235
C75	C	-1.151029	-0.049766	0.468489
C76	C	-0.651029	0.450234	0.968489
C77	C	-1.142494	-0.042616	0.592232
C78	C	-0.642494	0.457384	1.092232
N79	N	-1.262543	-0.143050	0.854467
N80	N	-0.762543	0.356950	1.354467
H81	H	-0.743151	-0.112787	0.384077
H82	H	-0.243151	0.387213	0.884077
H83	H	-1.083201	0.007007	0.636617
H84	H	-0.583201	0.507007	1.136617
H85	H	-0.572509	-0.132511	-0.026078
H86	H	-0.072509	0.367489	0.473922
H87	H	-1.366101	0.371040	0.147501
H88	H	-0.866101	0.871040	0.647501
H89	H	-1.387722	-0.247789	0.856338
H90	H	-0.887722	0.252211	1.356338
H91	H	-1.120291	0.375197	0.120945
H92	H	-0.620291	0.875197	0.620945
H93	H	-0.913862	-0.121250	0.294543
H94	H	-0.413862	0.378750	0.794543
H95	H	-0.545648	-0.110040	0.362760
H96	H	-0.045648	0.389960	0.862760
H97	H	-0.940757	-0.143736	-0.094302
H98	H	-0.440757	0.356264	0.405698
C99	C	-0.729793	-0.142551	-0.147915
C100	C	-0.229793	0.357449	0.352085
H101	H	-0.656097	-0.140663	-0.140409
H102	H	-0.156097	0.359337	0.359591
H103	H	-0.753490	-0.090103	-0.189720
H104	H	-0.253490	0.409897	0.310280
H105	H	-0.747869	-0.200603	-0.190320
H106	H	-0.247869	0.299397	0.309680
C107	C	-1.118119	-0.022246	0.845164
C108	C	-0.618119	0.477754	1.345164
H109	H	-1.081045	0.008763	0.786205
H110	H	-0.581045	0.508763	1.286205
H111	H	-1.070454	-0.058402	0.888642
H112	H	-0.570454	0.441598	1.388642
H113	H	-1.153425	0.024247	0.897617
H114	H	-0.653425	0.524247	1.397617
H115	H	-1.347441	-0.214134	0.438868
H116	H	-0.847441	0.285866	0.938868
H117	H	-1.098674	-0.005972	0.412098
H118	H	-0.598674	0.494028	0.912098
H119	H	-1.403196	-0.260772	0.631852
H120	H	-0.903196	0.239228	1.131852
