data_functionalizedCrystal
_audit_creation_method	'MofGen! by Chris Wilmer'
_symmetry_space_group_name_H-M	'P1'
_symmetry_Int_Tables_number	1
_symmetry_cell_setting	triclinic
loop_
_symmetry_equiv_pos_as_xyz
  x,y,z
_cell_length_a	14.853558
_cell_length_b	14.853559
_cell_length_c	13.330367
_cell_angle_alpha	89.999454
_cell_angle_beta	90.004506
_cell_angle_gamma	83.631294
loop_
_atom_site_label
_atom_site_type_symbol
_atom_site_fract_x
_atom_site_fract_y
_atom_site_fract_z
O1	O	1.196367	0.117661	0.083406
O2	O	0.933906	0.131691	0.083410
O3	O	1.072152	-0.006555	0.083407
O4	O	1.058122	0.255906	0.083409
O5	O	1.072137	-0.006551	-0.083440
O6	O	0.933892	0.131695	-0.083437
O7	O	1.196353	0.117665	-0.083441
Cu8	Cu	1.065121	0.124680	-0.098673
Cu9	Cu	1.065138	0.124675	0.098643
O10	O	1.058108	0.255910	-0.083438
C11	C	0.900310	0.131059	-0.000013
C12	C	0.800226	0.129158	-0.000011
C13	C	0.753214	0.128265	0.090941
C14	C	0.753197	0.128258	-0.090962
C15	C	0.659163	0.126468	-0.090964
C16	C	0.612151	0.125574	-0.000011
C17	C	0.659172	0.126471	0.090942
C18	C	0.612136	0.125562	-0.181916
C19	C	0.518097	0.123770	-0.181921
C20	C	0.471082	0.122883	-0.090968
C21	C	0.518109	0.123781	-0.000010
C22	C	0.471096	0.122888	0.090942
C23	C	0.518121	0.123792	0.181900
C24	C	0.612157	0.125584	0.181896
C25	C	0.377046	0.121091	-0.090963
C26	C	0.377054	0.121094	0.090943
C27	C	1.071510	-0.040142	-0.000015
C28	C	1.069609	-0.140226	-0.000009
C29	C	1.061553	-0.563403	0.090940
C30	C	1.061538	-0.563393	-0.090963
C31	C	1.063331	-0.469360	-0.090964
C32	C	1.064234	-0.422343	-0.000012
C33	C	1.063344	-0.469360	0.090942
C34	C	1.064212	-0.422335	-0.181916
C35	C	1.066005	-0.328295	-0.181921
C36	C	1.066914	-0.281278	-0.090967
C37	C	1.066025	-0.328301	-0.000010
C38	C	1.066928	-0.281285	0.090943
C39	C	1.066046	-0.328307	0.181901
C40	C	1.064254	-0.422343	0.181895
C41	C	1.068706	-0.187242	-0.090961
C42	C	1.068719	-0.187243	0.090945
C43	C	1.229949	0.118297	-0.000016
C44	C	1.330033	0.120197	-0.000011
C45	C	1.058749	0.289497	-0.000014
C46	C	1.060650	0.389581	-0.000013
N47	N	1.065116	0.124683	-0.237455
C48	C	1.003893	0.185879	-0.289979
C49	C	1.126345	0.063483	-0.289959
C50	C	1.126354	0.063479	-0.394977
C51	C	1.065131	0.124676	-0.447501
C52	C	1.003898	0.185876	-0.395007
C53	C	1.187579	0.002274	-0.447480
C54	C	1.187590	0.002268	-0.552504
C55	C	1.126371	0.063469	-0.605030
C56	C	1.065136	0.124672	-0.552529
C57	C	1.003913	0.185869	-0.605053
C58	C	0.942682	0.247077	-0.552554
C59	C	0.942678	0.247077	-0.447533
C60	C	1.126374	0.063469	-0.710052
C61	C	1.003918	0.185865	-0.710081
N62	N	1.065151	0.124665	0.237424
H63	H	0.479832	0.123060	0.255954
N64	N	1.192402	-0.002544	-0.766677
H65	H	1.231182	-0.041314	-0.717467
H66	H	1.232305	0.032037	-0.810245
N67	N	1.060608	-0.614115	0.189039
H68	H	1.004026	-0.645893	0.193101
H69	H	1.061488	-0.570006	0.246596
H70	H	0.338783	0.120372	0.165008
N71	N	0.467381	0.122796	-0.280019
H72	H	0.511512	0.123007	-0.337634
H73	H	0.421550	0.178218	-0.284286
N74	N	0.662882	0.126548	0.279989
H75	H	0.653761	0.070394	0.319753
H76	H	0.639259	0.182116	0.319674
N77	N	1.192380	-0.002528	-0.233332
H78	H	1.181915	-0.066528	-0.251620
H79	H	1.183062	0.006825	-0.158849
H80	H	1.237448	-0.047570	-0.595243
H81	H	0.892829	0.296900	-0.595331
N82	N	1.063278	-0.473070	0.279983
H83	H	1.007746	-0.449459	0.319738
H84	H	1.119468	-0.463950	0.319682
H85	H	1.060796	-0.601678	-0.165013
H86	H	0.338762	0.120363	-0.165020
N87	N	1.063259	-0.473044	-0.280009
H88	H	1.062005	-0.539752	-0.266206
H89	H	1.119420	-0.463836	-0.319708
H90	H	0.892825	0.296910	-0.404781
H91	H	0.791505	0.129005	0.164997
H92	H	1.066727	-0.290018	-0.255984
H93	H	1.069405	-0.148958	-0.165018
H94	H	1.237422	-0.047554	-0.404711
N95	N	1.069702	-0.136535	0.189045
H96	H	1.068872	-0.180595	0.246660
H97	H	1.014599	-0.090278	0.193013
N98	N	0.937883	0.251871	-0.766730
H99	H	0.899096	0.290642	-0.717534
H100	H	0.897987	0.217282	-0.810303
N101	N	0.937855	0.251897	-0.233364
H102	H	0.947139	0.242619	-0.158863
H103	H	0.873891	0.241368	-0.251730
H104	H	0.791481	0.128979	-0.165011
N105	N	0.662839	0.126525	-0.280008
H106	H	0.729545	0.127805	-0.266205
H107	H	0.639150	0.182055	-0.319726
H108	H	1.066775	-0.290013	0.255954
