data_functionalizedCrystal
_audit_creation_method	'MofGen! by Chris Wilmer'
_symmetry_space_group_name_H-M	'P1'
_symmetry_Int_Tables_number	1
_symmetry_cell_setting	triclinic
loop_
_symmetry_equiv_pos_as_xyz
  x,y,z
_cell_length_a	12.759401
_cell_length_b	16.959453
_cell_length_c	12.759393
_cell_angle_alpha	90.035042
_cell_angle_beta	90.018567
_cell_angle_gamma	90.019032
loop_
_atom_site_label
_atom_site_type_symbol
_atom_site_fract_x
_atom_site_fract_y
_atom_site_fract_z
Zn1	Zn	1.606217	-0.314655	0.593958
Zn2	Zn	1.606095	-0.446857	0.418267
Zn3	Zn	1.430519	-0.314694	0.418297
Zn4	Zn	1.430491	-0.446793	0.593909
O5	O	1.518330	-0.380750	0.506108
O6	O	1.753222	-0.332202	0.570660
O7	O	1.582765	-0.429368	0.271250
O8	O	1.453888	-0.204078	0.441632
O9	O	1.753132	-0.429330	0.441581
O10	O	1.582973	-0.204049	0.570689
O11	O	1.453770	-0.332268	0.271272
O12	O	1.283494	-0.332207	0.441584
O13	O	1.453841	-0.429222	0.740936
O14	O	1.283474	-0.429260	0.570605
O15	O	1.582946	-0.332141	0.740973
O16	O	1.582738	-0.557459	0.441534
O17	O	1.453723	-0.557413	0.570576
C18	C	1.245363	-0.380731	0.506093
C19	C	1.128586	-0.380742	0.506112
C20	C	1.073764	-0.330263	0.573427
C21	C	0.964040	-0.330278	0.573434
C22	C	0.963970	-0.431258	0.438807
C23	C	1.073692	-0.431239	0.438795
C24	C	1.073803	-0.271965	0.651157
C25	C	0.964079	-0.271981	0.651163
C26	C	1.518243	-0.586116	0.506069
C27	C	1.518301	-0.673973	0.506088
C28	C	1.585631	-1.045375	0.573435
C29	C	1.451323	-1.045521	0.438937
C30	C	1.451284	-0.962976	0.438913
C31	C	1.518419	-0.921626	0.506152
C32	C	1.585592	-0.962821	0.573415
C33	C	1.384105	-0.921774	0.371658
C34	C	1.384063	-0.839223	0.371632
C35	C	1.451203	-0.797871	0.438867
C36	C	1.518379	-0.839072	0.506132
C37	C	1.585514	-0.797722	0.573371
C38	C	1.652696	-0.838921	0.640631
C39	C	1.652732	-0.921470	0.640649
C40	C	1.451167	-0.715323	0.438849
C41	C	1.585474	-0.715168	0.573351
C42	C	1.792364	-0.380769	0.506123
C43	C	1.909140	-0.380777	0.506130
C44	C	1.518404	-0.380670	0.780141
C45	C	1.518435	-0.380636	0.896918
C46	C	1.518447	-0.174582	0.506169
C47	C	1.518497	-0.086725	0.506196
C48	C	1.518318	-0.380772	0.233140
C49	C	1.518490	-0.380583	0.116364
C50	C	1.585669	-0.330081	0.951801
C51	C	1.585694	-0.330052	1.061525
C52	C	1.451248	-0.431141	1.061474
C53	C	1.451219	-0.431165	0.951752
C54	C	1.663294	-0.271721	0.951831
C55	C	1.663319	-0.271692	1.061555
H56	H	1.640148	-0.681506	0.628102
H57	H	1.118325	-0.472336	0.383971
C58	C	0.918093	-0.193393	0.611995
H59	H	0.973540	-0.158384	0.594553
H60	H	0.876162	-0.202735	0.551718
H61	H	0.876216	-0.170572	0.665562
C62	C	1.119827	-0.301667	0.755495
H63	H	1.064397	-0.314903	0.801969
H64	H	1.161723	-0.346981	0.742900
H65	H	1.161746	-0.261429	0.785996
H66	H	1.396521	-0.472278	1.106133
C67	C	0.903584	-0.486806	0.364772
H68	H	0.830385	-0.479592	0.374423
H69	H	0.921539	-0.475175	0.294208
H70	H	0.921564	-0.539927	0.380030
H71	H	0.934332	-0.288453	0.732498
C72	C	1.114034	-0.189237	0.621908
H73	H	1.056122	-0.155228	0.609876
H74	H	1.155421	-0.168940	0.677641
H75	H	1.155368	-0.192506	0.560145
C76	C	1.767678	-0.301356	0.905840
H77	H	1.814185	-0.314533	0.961286
H78	H	1.755157	-0.346698	0.863914
H79	H	1.798100	-0.261111	0.863959
H80	H	1.640332	-1.078923	0.628194
C81	C	1.726526	-0.793434	0.714607
H82	H	1.766535	-0.829789	0.754677
H83	H	1.772306	-0.761221	0.674462
H84	H	1.686270	-0.761237	0.760340
H85	H	1.707428	-0.955022	0.695410
C86	C	1.377485	-1.091004	0.364978
H87	H	1.387134	-1.146068	0.374619
H88	H	1.306878	-1.077503	0.380280
H89	H	1.392907	-1.077511	0.294394
H90	H	1.641533	-0.210506	0.922080
H91	H	1.744688	-0.288089	1.091332
H92	H	1.329445	-0.955447	0.316919
H93	H	1.396466	-0.472329	0.907071
C94	C	1.310177	-0.793911	0.297640
H95	H	1.270206	-0.830361	0.257594
H96	H	1.264363	-0.761702	0.337774
H97	H	1.350389	-0.761721	0.251886
C98	C	1.377274	-0.670007	0.364875
H99	H	1.337298	-0.706456	0.324832
H100	H	1.331466	-0.637802	0.405020
H101	H	1.417476	-0.637814	0.319116
C102	C	1.624019	-0.193118	1.107566
H103	H	1.606506	-0.158144	1.052129
H104	H	1.563766	-0.202490	1.149463
H105	H	1.677553	-0.170238	1.149480
