data_functionalizedCrystal
_audit_creation_method	'MofGen! by Chris Wilmer'
_symmetry_space_group_name_H-M	'P1'
_symmetry_Int_Tables_number	1
_symmetry_cell_setting	triclinic
loop_
_symmetry_equiv_pos_as_xyz
  x,y,z
_cell_length_a	16.109318
_cell_length_b	10.654541
_cell_length_c	14.586319
_cell_angle_alpha	89.996435
_cell_angle_beta	90.000075
_cell_angle_gamma	83.976246
loop_
_atom_site_label
_atom_site_type_symbol
_atom_site_fract_x
_atom_site_fract_y
_atom_site_fract_z
O1	O	1.104081	0.161523	-0.076164
O2	O	0.862140	0.181589	-0.076182
O3	O	0.988675	-0.011259	-0.076167
O4	O	0.977547	0.354370	-0.076179
O5	O	0.988666	-0.011262	0.076314
O6	O	0.862132	0.181586	0.076299
O7	O	1.104072	0.161520	0.076317
Cu8	Cu	0.983101	0.171553	0.090231
Cu9	Cu	0.983112	0.171556	-0.090096
O10	O	0.977538	0.354367	0.076302
C11	C	0.831156	0.180771	0.000056
C12	C	0.738847	0.178322	0.000049
C13	C	0.439732	0.170417	-0.083052
C14	C	0.526466	0.172709	-0.083058
C15	C	0.526475	0.172688	0.083185
C16	C	0.439743	0.170387	0.083190
C17	C	0.396373	0.169258	0.000069
C18	C	0.569840	0.173851	0.000058
C19	C	0.663882	0.176336	0.000053
C20	C	0.302325	0.166770	0.000074
C21	C	0.987853	-0.058047	0.000073
C22	C	0.985410	-0.197458	0.000071
C23	C	1.136716	-0.227467	0.000094
C24	C	1.211218	-0.307965	0.000108
C25	C	1.208917	-0.438952	0.000105
C26	C	1.132106	-0.489443	0.000086
C27	C	1.057605	-0.408945	0.000072
C28	C	1.059914	-0.277956	0.000078
C29	C	0.906301	-0.378936	0.000042
C30	C	0.908600	-0.247948	0.000052
C31	C	0.829490	-0.429426	0.000023
C32	C	0.754987	-0.348928	0.000017
C33	C	0.757291	-0.217933	0.000021
C34	C	0.834098	-0.167450	0.000039
C35	C	1.135056	0.162338	0.000077
C36	C	1.227365	0.164786	0.000078
C37	C	0.978359	0.401156	0.000060
C38	C	0.980802	0.540566	0.000056
N39	N	0.983100	0.171550	0.217062
N40	N	0.983119	0.171549	-0.216927
C41	C	1.039148	0.086185	0.452076
C42	C	1.039150	0.086182	0.548057
C43	C	0.927065	0.256917	0.548053
C44	C	0.927060	0.256914	0.452073
C45	C	0.983106	0.171549	0.404087
C46	C	0.983114	0.171550	0.596048
C47	C	0.983116	0.171547	0.700115
C48	C	0.983103	0.171550	0.300013
H49	H	0.404439	0.169443	0.150881
O50	O	1.139195	-0.086187	0.000104
H51	H	1.205119	-0.064602	0.000115
O52	O	0.866632	0.349006	0.599812
H53	H	0.801727	0.332975	0.581407
O54	O	0.827008	-0.570705	0.000030
H55	H	0.859076	-0.611725	-0.062105
O56	O	0.866614	0.348992	0.400303
H57	H	0.827652	0.408366	0.449794
O58	O	1.289272	-0.525779	0.000128
H59	H	1.291855	-0.586166	-0.062023
H60	H	0.404422	0.169495	-0.150735
O61	O	1.129620	-0.630721	0.000082
H62	H	1.194329	-0.678213	0.000099
O63	O	0.573235	0.173966	-0.172708
H64	H	0.528502	0.172803	-0.230502
O65	O	0.573250	0.173928	0.172836
H66	H	0.640844	0.175740	0.158870
H67	H	1.084783	0.016675	0.413008
O68	O	1.099606	-0.005872	0.599820
H69	H	1.138581	-0.065217	0.550324
H70	H	1.273756	-0.266841	0.000131
O71	O	0.672147	-0.403379	0.000004
H72	H	0.683064	-0.507986	0.000006
H73	H	0.696622	-0.152398	0.000006
O74	O	0.836580	-0.026171	0.000040
H75	H	0.902505	-0.004591	0.000048
