data_functionalizedCrystal
_audit_creation_method	'MofGen! by Chris Wilmer'
_symmetry_space_group_name_H-M	'P1'
_symmetry_Int_Tables_number	1
_symmetry_cell_setting	triclinic
loop_
_symmetry_equiv_pos_as_xyz
  x,y,z
_cell_length_a	10.654550
_cell_length_b	13.262415
_cell_length_c	9.130313
_cell_angle_alpha	74.082961
_cell_angle_beta	89.996220
_cell_angle_gamma	84.458640
loop_
_atom_site_label
_atom_site_type_symbol
_atom_site_fract_x
_atom_site_fract_y
_atom_site_fract_z
O1	O	1.667070	0.147420	-0.180642
O2	O	1.301519	0.161466	-0.186213
O3	O	1.493489	0.001719	-0.122584
O4	O	1.475100	0.307167	-0.244271
O5	O	1.493487	0.001723	0.121013
O6	O	1.301517	0.161470	0.057384
O7	O	1.667068	0.147425	0.062955
Cu8	Cu	1.484292	0.154448	0.082412
Cu9	Cu	1.484295	0.154443	-0.205670
O10	O	1.475098	0.307172	-0.000674
C11	C	1.254725	0.160437	-0.064001
C12	C	1.115298	0.157351	-0.062762
C13	C	1.492456	-0.037390	0.014793
C14	C	1.489368	-0.153930	0.061213
C15	C	1.035325	0.251408	-0.100255
C16	C	0.904319	0.248502	-0.099123
C17	C	0.933272	0.057476	-0.023008
C18	C	1.064275	0.060382	-0.024131
C19	C	1.086347	0.348377	-0.138887
C20	C	1.006373	0.442441	-0.176384
C21	C	0.875367	0.439536	-0.175252
C22	C	0.824336	0.342566	-0.136622
C23	C	1.480675	-0.482432	-0.339085
C24	C	1.483586	-0.372938	-0.382706
C25	C	1.485031	-0.318181	-0.271730
C26	C	1.483566	-0.372928	-0.117126
C27	C	1.480664	-0.482433	-0.073500
C28	C	1.485021	-0.318182	-0.006145
C29	C	1.483555	-0.372929	0.148460
C30	C	1.480653	-0.482423	0.192078
C31	C	1.479208	-0.537181	0.081102
C32	C	1.487923	-0.208676	-0.049771
C33	C	1.487912	-0.208678	0.215814
C34	C	1.485001	-0.318171	0.259435
C35	C	1.713862	0.148454	-0.059260
C36	C	1.853289	0.151539	-0.060508
C37	C	1.476130	0.346281	-0.138054
C38	C	1.479219	0.462820	-0.184483
N39	N	1.484299	0.154451	0.285034
N40	N	1.484298	0.154431	-0.408288
C41	C	1.569325	0.083739	0.389851
C42	C	1.569322	0.083726	0.543193
C43	C	1.399262	0.225147	0.486883
C44	C	1.399261	0.225153	0.333546
C45	C	1.654364	0.013037	0.341338
C46	C	1.739398	-0.057680	0.446158
C47	C	1.739394	-0.057693	0.599500
C48	C	1.654357	0.013011	0.648022
H49	H	1.193017	0.350753	-0.139820
H50	H	0.717661	0.340208	-0.135681
Cl51	Cl	0.869116	-0.064420	0.025543
Cl52	Cl	1.164820	-0.057862	0.023006
Cl53	Cl	1.070525	0.564339	-0.224927
Cl54	Cl	1.478884	-0.551277	-0.478577
Cl55	Cl	1.489763	-0.139865	-0.244123
Cl56	Cl	1.292370	0.314029	0.547883
H57	H	1.330023	0.282732	0.248201
Cl58	Cl	1.483156	-0.387008	0.453789
Cl59	Cl	1.485430	-0.304122	-0.577056
Cl60	Cl	0.774832	0.557785	-0.222375
Cl61	Cl	1.488686	-0.180529	-0.326572
Cl62	Cl	1.475533	-0.674835	0.135933
Cl63	Cl	1.478829	-0.551247	0.386438
Cl64	Cl	1.846281	-0.146599	0.731273
H65	H	1.489092	-0.164095	0.306181
H66	H	1.654377	0.013042	0.216482
Cl67	Cl	1.846285	-0.146569	0.385164
H68	H	1.654353	0.012988	0.772889
