data_functionalizedCrystal
_audit_creation_method	'MofGen! by Chris Wilmer'
_symmetry_space_group_name_H-M	'P1'
_symmetry_Int_Tables_number	1
_symmetry_cell_setting	triclinic
loop_
_symmetry_equiv_pos_as_xyz
  x,y,z
_cell_length_a	14.853567
_cell_length_b	14.853567
_cell_length_c	13.930277
_cell_angle_alpha	90.000757
_cell_angle_beta	89.995755
_cell_angle_gamma	96.365070
loop_
_atom_site_label
_atom_site_type_symbol
_atom_site_fract_x
_atom_site_fract_y
_atom_site_fract_z
O1	O	1.196368	-0.117704	-0.079756
O2	O	0.933909	-0.131725	-0.079772
O3	O	1.072149	0.006516	-0.079767
O4	O	1.058128	-0.255944	-0.079762
O5	O	1.072130	0.006519	0.079895
O6	O	0.933890	-0.131722	0.079890
O7	O	1.196349	-0.117701	0.079905
Zn8	Zn	1.065116	-0.124711	0.105247
Zn9	Zn	1.065142	-0.124715	-0.105114
O10	O	1.058109	-0.255941	0.079900
C11	C	0.900311	-0.131088	0.000057
C12	C	0.800227	-0.129184	0.000051
C13	C	0.387693	-0.039019	0.000070
C14	C	0.366412	-0.203251	0.000073
C15	C	0.460446	-0.205042	0.000070
C16	C	0.518108	-0.123819	0.000066
C17	C	0.481736	-0.040806	0.000065
C18	C	0.496825	-0.288053	0.000061
C19	C	0.590864	-0.289846	0.000057
C20	C	0.648528	-0.208623	0.000060
C21	C	0.612150	-0.125607	0.000060
C22	C	0.669812	-0.044384	0.000056
C23	C	0.633437	0.038633	0.000063
C24	C	0.539399	0.040417	0.000067
C25	C	0.742565	-0.210407	0.000055
C26	C	0.763855	-0.046172	0.000050
C27	C	1.071504	0.040106	0.000061
C28	C	1.069601	0.140189	0.000053
C29	C	1.229947	-0.118337	0.000075
C30	C	1.330031	-0.120241	0.000075
C31	C	1.058754	-0.289531	0.000070
C32	C	1.060657	-0.389615	0.000072
N33	N	1.065106	-0.124708	0.248814
C34	C	0.979435	0.552723	0.000066
C35	C	1.143668	0.574004	0.000076
C36	C	1.145458	0.479971	0.000070
C37	C	1.064235	0.422309	0.000064
C38	C	0.981223	0.458680	0.000063
C39	C	1.228469	0.443591	0.000080
C40	C	1.230262	0.349552	0.000076
C41	C	1.149039	0.291889	0.000063
C42	C	1.066023	0.328266	0.000061
C43	C	0.984800	0.270604	0.000055
C44	C	0.901783	0.306979	0.000047
C45	C	0.899999	0.401017	0.000050
C46	C	1.150823	0.197851	0.000059
C47	C	0.986588	0.176561	0.000052
N48	N	1.065160	-0.124711	-0.248680
C49	C	1.003926	-0.185904	0.701081
C50	C	1.126382	-0.063519	0.701055
C51	C	1.126371	-0.063516	0.600559
C52	C	1.065138	-0.124709	0.550319
C53	C	1.003916	-0.185904	0.600576
C54	C	1.187598	-0.002328	0.550295
C55	C	1.187591	-0.002323	0.449793
C56	C	1.126353	-0.063512	0.399552
C57	C	1.065127	-0.124710	0.449814
C58	C	1.003894	-0.185902	0.399575
C59	C	0.942664	-0.247096	0.449835
C60	C	0.942677	-0.247094	0.550334
C61	C	1.126339	-0.063515	0.299053
C62	C	1.003883	-0.185903	0.299070
H63	H	0.620472	-0.357443	0.000051
H64	H	1.176196	-0.013696	0.258136
H65	H	0.892827	-0.296916	0.591263
H66	H	1.176240	-0.013702	0.741963
N67	N	1.253621	0.063677	0.395582
H68	H	1.317618	0.053179	0.413055
H69	H	1.243084	0.127653	0.413100
H70	H	0.509774	0.108005	0.000096
N71	N	0.304223	-0.290850	0.000067
H72	H	0.315929	-0.327065	0.059252
H73	H	0.315972	-0.326985	-0.059161
N74	N	0.826046	0.041434	0.000056
H75	H	0.788730	0.094291	0.000064
H76	H	0.865526	0.044275	-0.059135
H77	H	0.449870	-0.354180	0.000054
N78	N	0.348456	0.050512	0.000075
H79	H	0.369473	0.086101	-0.059113
H80	H	0.369486	0.086029	0.059300
N81	N	0.781801	-0.299934	0.000037
H82	H	0.731003	-0.351116	0.000034
H83	H	0.820352	-0.304258	0.059223
N84	N	1.253646	0.063662	0.604478
H85	H	1.244358	0.054378	0.675770
H86	H	1.243160	0.127640	0.586915
H87	H	0.920445	0.129618	0.000043
H88	H	0.835652	0.260019	0.000048
N89	N	0.695628	0.126239	0.000057
H90	H	0.735116	0.129155	-0.059135
H91	H	0.735062	0.129100	0.059278
H92	H	0.832411	0.430643	0.000044
H93	H	0.911844	0.582344	0.000055
H94	H	1.209795	0.620958	0.000088
H95	H	1.294596	0.490546	0.000094
H96	H	1.297860	0.319944	0.000082
N97	N	0.876619	-0.313099	0.395650
H98	H	0.911115	-0.353080	0.353948
H99	H	0.836680	-0.278507	0.354013
H100	H	1.218414	0.168238	0.000072
N101	N	0.937831	-0.251898	0.244885
H102	H	0.899046	-0.290658	0.291976
H103	H	0.972383	-0.291823	0.203181
H104	H	0.954071	-0.235724	0.742005
