data_functionalizedCrystal
_audit_creation_method	'MofGen! by Chris Wilmer'
_symmetry_space_group_name_H-M	'P1'
_symmetry_Int_Tables_number	1
_symmetry_cell_setting	triclinic
loop_
_symmetry_equiv_pos_as_xyz
  x,y,z
_cell_length_a	11.026607
_cell_length_b	16.176319
_cell_length_c	17.699083
_cell_angle_alpha	89.992304
_cell_angle_beta	95.934516
_cell_angle_gamma	89.993777
loop_
_atom_site_label
_atom_site_type_symbol
_atom_site_fract_x
_atom_site_fract_y
_atom_site_fract_z
O1	O	1.609234	-0.068757	0.316812
O2	O	2.109234	0.431243	0.816812
O3	O	1.256034	-0.068757	0.280737
O4	O	1.756034	0.431243	0.780737
O5	O	1.442613	-0.068750	0.189956
O6	O	1.942613	0.431250	0.689956
O7	O	1.422655	-0.068765	0.407592
O8	O	1.922655	0.431235	0.907592
O9	O	1.442587	0.068743	0.189945
O10	O	1.942587	0.568743	0.689945
O11	O	1.256009	0.068736	0.280726
O12	O	1.756009	0.568736	0.780726
O13	O	1.609208	0.068736	0.316801
O14	O	2.109208	0.568736	0.816801
Cu15	Cu	1.432606	0.081290	0.298762
Cu16	Cu	1.932606	0.581290	0.798762
Cu17	Cu	1.432636	-0.081311	0.298775
Cu18	Cu	1.932636	0.418689	0.798775
O19	O	1.422630	0.068729	0.407582
O20	O	1.922630	0.568729	0.907582
C21	C	1.210830	-0.000010	0.274076
C22	C	1.710830	0.499990	0.774076
C23	C	1.076175	-0.000010	0.254237
C24	C	1.576175	0.499990	0.754237
N25	N	1.432594	0.195655	0.298754
N26	N	1.932594	0.695655	0.798754
N27	N	1.432659	-0.195677	0.298779
N28	N	1.932659	0.304323	0.798779
C29	C	1.002207	-0.000014	0.309017
C30	C	1.502207	0.499986	0.809017
C31	C	0.863034	-0.000014	0.288513
C32	C	1.363034	0.499986	0.788513
C33	C	1.654412	-0.000013	0.323461
C34	C	2.154412	0.499987	0.823461
C35	C	1.789068	-0.000018	0.343301
C36	C	2.289068	0.499982	0.843301
C37	C	1.441885	-0.000003	0.161655
C38	C	1.941885	0.499997	0.661655
C39	C	1.439740	-0.000003	0.077343
C40	C	1.939740	0.499997	0.577343
C41	C	1.515235	0.238923	0.258581
C42	C	2.015235	0.738923	0.758581
C43	C	1.515242	0.325470	0.258581
C44	C	2.015242	0.825470	0.758581
C45	C	1.432611	0.368748	0.298759
C46	C	1.932611	0.868748	0.798759
C47	C	1.349960	0.325475	0.338934
C48	C	1.849960	0.825475	0.838934
C49	C	1.349949	0.238929	0.338929
C50	C	1.849949	0.738929	0.838929
C51	C	1.350002	0.674503	0.338953
C52	C	1.850002	1.174503	0.838953
C53	C	1.350022	0.761054	0.338957
C54	C	1.850022	1.261054	0.838957
C55	C	1.515294	0.761044	0.258606
C56	C	2.015294	1.261044	0.758606
C57	C	1.515283	0.674498	0.258601
C58	C	2.015283	1.174498	0.758601
C59	C	1.432629	0.631232	0.298772
C60	C	1.932629	1.131232	0.798772
C61	C	1.432622	0.537388	0.298770
C62	C	1.932622	1.037388	0.798770
C63	C	1.432623	0.462591	0.298766
C64	C	1.932623	0.962591	0.798766
C65	C	1.549257	-0.000002	0.043769
C66	C	2.049257	0.499998	0.543769
C67	C	1.547234	-0.000009	-0.035453
C68	C	2.047234	0.499991	0.464547
C69	C	1.435692	-0.000012	-0.081099
C70	C	1.935692	0.499988	0.418901
C71	C	1.326166	-0.000015	-0.047520
C72	C	1.826166	0.499985	0.452480
C73	C	1.328190	-0.000014	0.031700
C74	C	1.828190	0.499986	0.531700
C75	C	1.318000	-0.000022	-0.367005
C76	C	1.818000	0.499978	0.132995
C77	C	1.315984	-0.000021	-0.446230
C78	C	1.815984	0.499979	0.053770
C79	C	1.537044	-0.000017	-0.434158
C80	C	2.037044	0.499983	0.065842
C81	C	1.539068	-0.000016	-0.354938
C82	C	2.039068	0.499984	0.145062
C83	C	1.429543	-0.000024	-0.321366
C84	C	1.929543	0.499976	0.178634
C85	C	1.431738	-0.000017	-0.235465
C86	C	1.931738	0.499983	0.264535
C87	C	1.433496	-0.000012	-0.166998
C88	C	1.933496	0.499988	0.333002
C89	C	1.423358	-0.000020	0.435882
C90	C	1.923358	0.499980	0.935882
C91	C	1.425503	-0.000026	0.520195
C92	C	1.925503	0.499974	1.020195
H93	H	1.041916	-0.000014	0.371095
H94	H	1.541916	0.499986	0.871095
F95	F	1.657786	-0.000014	-0.306362
F96	F	2.157786	0.499986	0.193638
H97	H	1.626225	-0.000015	-0.461501
H98	H	2.126225	0.499985	0.038499
F99	F	0.811145	-0.000003	0.207366
F100	F	1.311145	0.499997	0.707366
H101	H	1.036466	-0.000027	0.192158
H102	H	1.536466	0.499973	0.692158
F103	F	1.603190	0.192871	0.215821
F104	F	2.103190	0.692871	0.715821
H105	H	0.828769	-0.000017	0.405384
H106	H	1.328769	0.499983	0.905384
H107	H	1.582534	0.360698	0.225868
H108	H	2.082534	0.860698	0.725868
H109	H	1.640088	0.000005	0.080929
H110	H	2.140088	0.500005	0.580929
H111	H	1.228817	-0.000028	-0.339680
H112	H	1.728817	0.499972	0.160320
H113	H	1.225148	-0.000021	-0.483393
H114	H	1.725148	0.499979	0.016607
H115	H	1.235346	-0.000022	-0.084691
H116	H	1.735346	0.499978	0.415309
F117	F	1.603233	0.628442	0.215841
F118	F	2.103233	1.128442	0.715841
F119	F	1.603260	0.807097	0.215849
F120	F	2.103260	1.307097	0.715849
F121	F	1.262011	0.371535	0.381690
F122	F	1.762011	0.871535	0.881690
F123	F	1.262069	0.807113	0.381722
F124	F	1.762069	1.307113	0.881722
H125	H	1.282704	0.639282	0.371664
H126	H	1.782704	1.139282	0.871664
H127	H	1.239010	-0.000015	0.059035
H128	H	1.739010	0.499985	0.559035
F129	F	1.261987	0.192882	0.381684
F130	F	1.761987	0.692882	0.881684
H131	H	1.636415	-0.000006	-0.062784
H132	H	2.136415	0.499994	0.437216
