data_functionalizedCrystal
_audit_creation_method	'MofGen! by Chris Wilmer'
_symmetry_space_group_name_H-M	'P1'
_symmetry_Int_Tables_number	1
_symmetry_cell_setting	triclinic
loop_
_symmetry_equiv_pos_as_xyz
  x,y,z
_cell_length_a	15.995292
_cell_length_b	19.188924
_cell_length_c	15.072220
_cell_angle_alpha	89.996779
_cell_angle_beta	89.986330
_cell_angle_gamma	83.305290
loop_
_atom_site_label
_atom_site_type_symbol
_atom_site_fract_x
_atom_site_fract_y
_atom_site_fract_z
O1	O	1.110695	0.089798	-0.073811
O2	O	1.610695	0.589798	0.426189
O3	O	0.866872	0.100954	-0.073808
O4	O	1.366872	0.600954	0.426192
O5	O	0.995822	-0.006263	-0.073799
O6	O	1.495822	0.493737	0.426201
O7	O	0.981744	0.197016	-0.073819
O8	O	1.481744	0.697016	0.426181
O9	O	0.995791	-0.006257	0.073766
O10	O	1.495791	0.493743	0.573766
O11	O	0.866840	0.100960	0.073757
O12	O	1.366840	0.600960	0.573757
O13	O	1.110663	0.089804	0.073755
O14	O	1.610663	0.589804	0.573755
Zn15	Zn	0.988746	0.095383	0.097185
Zn16	Zn	1.488746	0.595383	0.597185
Zn17	Zn	0.988788	0.095375	-0.097238
Zn18	Zn	1.488788	0.595375	0.402762
O19	O	0.981712	0.197022	0.073746
O20	O	1.481712	0.697022	0.573746
C21	C	0.835662	0.100503	-0.000025
C22	C	1.335662	0.600503	0.499975
C23	C	0.742714	0.099142	-0.000023
C24	C	1.242714	0.599142	0.499977
C25	C	0.404994	0.094138	-0.000033
C26	C	0.904994	0.594138	0.499967
C27	C	0.428021	0.171524	-0.000370
C28	C	0.928021	0.671524	0.499630
C29	C	0.524691	0.172995	-0.000034
C30	C	1.024691	0.672995	0.499966
C31	C	0.572541	0.096621	-0.000028
C32	C	1.072541	0.596621	0.499972
C33	C	0.543563	0.057935	0.084240
C34	C	1.043563	0.557935	0.584240
C35	C	0.446776	0.057003	0.084306
C36	C	0.946776	0.557003	0.584306
C37	C	0.446963	0.055416	-0.083503
C38	C	0.946963	0.555416	0.416497
C39	C	0.543445	0.058284	-0.084613
C40	C	1.043445	0.558284	0.415387
C41	C	0.667232	0.098020	-0.000023
C42	C	1.167232	0.598020	0.499977
C43	C	0.310303	0.092736	-0.000032
C44	C	0.810303	0.592736	0.499968
C45	C	0.995351	-0.032272	-0.000015
C46	C	1.495351	0.467728	0.499985
C47	C	0.993986	-0.109780	-0.000013
C48	C	1.493986	0.390220	0.499987
C49	C	0.993366	-0.146184	-0.080451
C50	C	1.493366	0.353816	0.419549
C51	C	0.992071	-0.219010	-0.080458
C52	C	1.492071	0.280990	0.419542
C53	C	0.991412	-0.255431	-0.000022
C54	C	1.491412	0.244569	0.499978
C55	C	0.992028	-0.219018	0.080427
C56	C	1.492028	0.280982	0.580427
C57	C	0.993315	-0.146192	0.080431
C58	C	1.493315	0.353808	0.580431
N59	N	1.037029	-0.374983	0.059844
N60	N	1.537029	0.125017	0.559844
N61	N	1.035808	-0.444164	0.059834
N62	N	1.535808	0.055836	0.559834
C63	C	0.987534	-0.474849	-0.000030
C64	C	1.487534	0.025151	0.499970
N65	N	0.940537	-0.433740	-0.059899
N66	N	1.440537	0.066260	0.440101
N67	N	0.941761	-0.364553	-0.059891
N68	N	1.441761	0.135447	0.440109
C69	C	0.990017	-0.334397	-0.000018
C70	C	1.490017	0.165603	0.499982
C71	C	0.985508	-0.590219	-0.080481
C72	C	1.485508	-0.090219	0.419519
C73	C	0.984208	-0.663045	-0.080485
C74	C	1.484208	-0.163045	0.419515
C75	C	0.984174	-0.663053	0.080402
C76	C	1.484174	-0.163053	0.580402
C77	C	0.985466	-0.590227	0.080403
C78	C	1.485466	-0.090227	0.580403
C79	C	0.986137	-0.553814	-0.000041
C80	C	1.486137	-0.053814	0.499959
C81	C	1.141873	0.090255	-0.000031
C82	C	1.641873	0.590255	0.499969
C83	C	1.234821	0.091617	-0.000038
C84	C	1.734821	0.591617	0.499962
C85	C	0.982183	0.223031	-0.000040
C86	C	1.482183	0.723031	0.499960
C87	C	0.983549	0.300539	-0.000048
C88	C	1.483549	0.800539	0.499952
N89	N	0.988724	0.095388	0.229874
N90	N	1.488724	0.595388	0.729874
N91	N	0.988817	0.095365	-0.229927
N92	N	1.488817	0.595365	0.270073
C93	C	0.988786	0.095373	0.589075
C94	C	1.488786	0.595373	1.089075
C95	C	0.919557	0.152550	0.551464
C96	C	1.419557	0.652550	1.051464
C97	C	0.919715	0.152759	0.448638
C98	C	1.419715	0.652759	0.948638
C99	C	0.988755	0.095380	0.410871
C100	C	1.488755	0.595380	0.910871
C101	C	1.076063	0.111277	0.448160
C102	C	1.576063	0.611277	0.948160
C103	C	1.075675	0.111683	0.551017
C104	C	1.575675	0.611683	1.051017
C105	C	0.971487	0.022129	0.551184
C106	C	1.471487	0.522129	1.051184
C107	C	0.969480	0.022618	0.448320
C108	C	1.469480	0.522618	0.948320
C109	C	0.988742	0.095383	0.310158
C110	C	1.488742	0.595383	0.810158
C111	C	0.988805	0.095371	0.689789
C112	C	1.488805	0.595371	1.189789
H113	H	0.418560	0.079602	-0.147372
H114	H	0.918560	0.579602	0.352628
N115	N	0.986154	-0.550962	0.167164
N116	N	1.486154	-0.050962	0.667164
H117	H	0.987070	-0.499302	0.154962
H118	H	1.487070	0.000698	0.654962
H119	H	0.934027	-0.558022	0.202293
H120	H	1.434027	-0.058022	0.702293
H121	H	0.983632	-0.692706	0.145895
H122	H	1.483632	-0.192706	0.645895
H123	H	0.991561	-0.248655	-0.145962
H124	H	1.491561	0.251345	0.354038
N125	N	0.833741	0.140220	0.415237
N126	N	1.333741	0.640220	0.915237
H127	H	0.795398	0.134507	0.467331
H128	H	1.295398	0.634507	0.967331
H129	H	0.809528	0.181532	0.378111
H130	H	1.309528	0.681532	0.878111
N131	N	0.548912	0.213377	0.080106
N132	N	1.048912	0.713377	0.580106
H133	H	0.496760	0.230286	0.115355
H134	H	0.996760	0.730286	0.615355
H135	H	0.588935	0.181828	0.118444
H136	H	1.088935	0.681828	0.618444
H137	H	0.399927	0.201350	-0.060803
H138	H	0.899927	0.701350	0.439197
H139	H	0.576622	0.002538	-0.089698
H140	H	1.076622	0.502538	0.410302
H141	H	1.128798	0.070739	0.423694
H142	H	1.628798	0.570739	0.923694
H143	H	0.563510	0.084805	0.146948
H144	H	1.063510	0.584805	0.646948
H145	H	0.854440	0.143237	0.576227
H146	H	1.354440	0.643237	1.076227
H147	H	0.993910	-0.116541	-0.145955
H148	H	1.493910	0.383459	0.354045
N149	N	0.411097	0.092497	0.167738
N150	N	0.911097	0.592497	0.667738
H151	H	0.458265	0.108601	0.204126
H152	H	0.958265	0.608601	0.704126
H153	H	0.369706	0.134332	0.151333
H154	H	0.869706	0.634332	0.651333
H155	H	1.091721	0.164083	0.422385
H156	H	1.591721	0.664083	0.922385
N157	N	0.933969	0.224150	0.585635
N158	N	1.433969	0.724150	1.085635
H159	H	0.985145	0.219709	0.625379
H160	H	1.485145	0.719709	1.125379
H161	H	0.943293	0.255796	0.533901
H162	H	1.443293	0.755796	1.033901
H163	H	1.128785	0.071679	0.575895
H164	H	1.628785	0.571679	1.075895
H165	H	0.432435	0.000263	0.088138
H166	H	0.932435	0.500263	0.588138
N167	N	0.567936	0.095580	-0.167196
N168	N	1.067936	0.595580	0.332804
H169	H	0.597753	0.137137	-0.149900
H170	H	1.097753	0.637137	0.350100
H171	H	0.606705	0.062167	-0.204565
H172	H	1.106705	0.562167	0.295435
H173	H	0.909219	0.006840	0.577177
H174	H	1.409219	0.506840	1.077177
N175	N	0.586051	-0.016508	0.088409
N176	N	1.086051	0.483492	0.588409
H177	H	0.624585	-0.025894	0.035587
H178	H	1.124585	0.474106	0.535587
H179	H	0.619993	-0.023282	0.144887
H180	H	1.119993	0.476718	0.644887
H181	H	0.991490	-0.248676	0.145918
H182	H	1.491490	0.251324	0.645918
N183	N	0.428715	-0.020037	-0.084256
N184	N	0.928715	0.479963	0.415744
H185	H	0.393440	-0.029124	-0.030822
H186	H	0.893440	0.470876	0.469178
H187	H	0.397090	-0.029352	-0.140196
H188	H	0.897090	0.470648	0.359804
H189	H	1.021976	-0.020420	0.575505
H190	H	1.521976	0.479580	1.075505
H191	H	0.986050	-0.560570	-0.145984
H192	H	1.486050	-0.060570	0.354016
H193	H	0.993816	-0.116553	0.145935
H194	H	1.493816	0.383447	0.645935
N195	N	0.884380	0.006657	0.416104
N196	N	1.384380	0.506657	0.916104
H197	H	0.858418	0.046385	0.377403
H198	H	1.358418	0.546385	0.877403
H199	H	0.891220	-0.038322	0.380678
H200	H	1.391220	0.461678	0.880678
N201	N	0.389437	0.210823	0.079226
N202	N	0.889437	0.710823	0.579226
H203	H	0.349924	0.252598	0.058654
H204	H	0.849924	0.752598	0.558654
H205	H	0.357148	0.178666	0.115468
H206	H	0.857148	0.678666	0.615468
H207	H	0.983699	-0.692683	-0.145989
H208	H	1.483699	-0.192683	0.354011
N209	N	1.031963	-0.036386	0.414287
N210	N	1.531963	0.463614	0.914287
H211	H	1.073838	-0.016698	0.373932
H212	H	1.573838	0.483302	0.873932
H213	H	1.062635	-0.061107	0.466039
H214	H	1.562635	0.438893	0.966039
H215	H	1.090960	0.165099	0.574993
H216	H	1.590960	0.665099	1.074993
N217	N	0.934266	0.224792	0.416121
N218	N	1.434266	0.724792	0.916121
H219	H	0.987188	0.221190	0.379025
H220	H	1.487188	0.721190	0.879025
H221	H	0.884705	0.244967	0.378998
H222	H	1.384705	0.744967	0.878998
N223	N	0.549771	0.213121	-0.080049
N224	N	1.049771	0.713121	0.419951
H225	H	0.497984	0.230012	-0.115857
H226	H	0.997984	0.730012	0.384143
H227	H	0.578068	0.254752	-0.059862
H228	H	1.078068	0.754752	0.440138
