data_functionalizedCrystal
_audit_creation_method	'MofGen! by Chris Wilmer'
_symmetry_space_group_name_H-M	'P1'
_symmetry_Int_Tables_number	1
_symmetry_cell_setting	triclinic
loop_
_symmetry_equiv_pos_as_xyz
  x,y,z
_cell_length_a	14.519709
_cell_length_b	9.065218
_cell_length_c	13.596369
_cell_angle_alpha	90.003393
_cell_angle_beta	89.987919
_cell_angle_gamma	84.348015
loop_
_atom_site_label
_atom_site_type_symbol
_atom_site_fract_x
_atom_site_fract_y
_atom_site_fract_z
O1	O	1.225269	0.193397	0.081660
O2	O	0.956959	0.216172	0.081690
O3	O	1.096660	-0.009962	0.081671
O4	O	1.085568	0.419531	0.081678
O5	O	1.096677	-0.009974	-0.081912
O6	O	0.956976	0.216159	-0.081893
O7	O	1.225286	0.193385	-0.081923
Zn8	Zn	1.091134	0.204770	-0.107880
Zn9	Zn	1.091111	0.204786	0.107647
O10	O	1.085585	0.419518	-0.081905
C11	C	0.922600	0.215104	-0.000098
C12	C	0.820195	0.211923	-0.000087
N13	N	1.091156	0.204758	-0.254972
C14	C	1.095602	-0.064935	-0.000119
C15	C	1.092415	-0.228718	-0.000114
C16	C	0.445214	0.200214	-0.000132
C17	C	0.549545	0.203466	-0.000119
C18	C	0.632701	0.206068	-0.000108
C19	C	0.737039	0.209321	-0.000097
C20	C	1.259645	0.194452	-0.000133
C21	C	1.362049	0.197633	-0.000138
C22	C	1.086642	0.474491	-0.000113
C23	C	1.089830	0.638274	-0.000111
N24	N	1.091096	0.204787	0.254739
C25	C	1.091099	0.204788	0.343737
C26	C	1.091112	0.204785	0.455388
C27	C	1.091128	0.204774	0.544379
C28	C	1.091140	0.204768	0.656037
