data_functionalizedCrystal
_audit_creation_method	'MofGen! by Chris Wilmer'
_symmetry_space_group_name_H-M	'P1'
_symmetry_Int_Tables_number	1
_symmetry_cell_setting	triclinic
loop_
_symmetry_equiv_pos_as_xyz
  x,y,z
_cell_length_a	16.956984
_cell_length_b	16.992694
_cell_length_c	15.455313
_cell_angle_alpha	92.857794
_cell_angle_beta	92.464369
_cell_angle_gamma	96.639179
loop_
_atom_site_label
_atom_site_type_symbol
_atom_site_fract_x
_atom_site_fract_y
_atom_site_fract_z
O1	O	0.165135	-1.033119	-0.072024
O2	O	0.163287	-0.804955	-0.072049
O3	O	0.049006	-0.932744	-0.072029
O4	O	0.279416	-0.905329	-0.072044
O5	O	0.055513	-0.925439	0.072232
O6	O	0.169793	-0.797649	0.072212
O7	O	0.171642	-1.025813	0.072237
Cu8	Cu	0.171312	-0.911064	0.085397
Cu9	Cu	0.163617	-0.919704	-0.085209
O10	O	0.285922	-0.898024	0.072217
C11	C	0.164163	-0.772244	0.000078
C12	C	0.157072	-0.685660	0.000068
N13	N	0.176723	-0.904993	0.205391
C14	C	0.022641	-0.930495	0.000101
C15	C	-0.065614	-0.934669	0.000101
C16	C	-0.102146	-0.864884	0.000089
C17	C	-0.185071	-0.868811	0.000092
C18	C	-0.231463	-0.942523	0.000100
C19	C	-0.194925	-1.012313	0.000115
C20	C	-0.112002	-1.008385	0.000118
C21	C	-0.479997	-0.961962	0.000097
C22	C	-0.562926	-0.965884	0.000091
C23	C	-0.553066	-0.822381	0.000070
C24	C	-0.470141	-0.818461	0.000068
C25	C	-0.433611	-0.888250	0.000087
N26	N	-0.316225	-0.946538	0.000100
N27	N	-0.348849	-0.884234	0.000093
C28	C	0.312288	-0.900273	0.000085
C29	C	0.400542	-0.896099	0.000079
C30	C	0.170765	-1.058525	0.000108
C31	C	0.177856	-1.145109	0.000112
C32	C	0.225487	-0.630985	0.000065
C33	C	0.218821	-0.549630	0.000077
C34	C	0.143738	-0.522951	0.000087
C35	C	0.075318	-0.577633	0.000094
C36	C	0.081986	-0.658986	0.000087
C37	C	0.116104	-0.281144	0.000112
C38	C	0.109441	-0.199784	0.000116
C39	C	0.252944	-0.171786	0.000101
C40	C	0.259605	-0.253142	0.000089
C41	C	0.191185	-0.307816	0.000100
N42	N	0.136922	-0.439794	0.000097
N43	N	0.198002	-0.390972	0.000097
N44	N	0.158199	-0.925782	-0.205203
C45	C	0.128193	-0.959299	0.250794
C46	C	0.132294	-0.954714	0.341601
C47	C	0.184929	-0.895827	0.387004
C48	C	0.233461	-0.841515	0.341595
C49	C	0.229356	-0.846097	0.250789
C50	C	0.202627	-0.876052	0.658582
C51	C	0.206730	-0.871476	0.749394
C52	C	0.105561	-0.984675	0.749394
C53	C	0.101463	-0.989254	0.658587
C54	C	0.149993	-0.934940	0.613186
N55	N	0.189123	-0.891141	0.479823
N56	N	0.145794	-0.939623	0.520368
H57	H	-0.064379	-0.804860	0.000079
H58	H	0.308647	-0.127262	0.000094
H59	H	-0.214811	-0.811985	0.000076
Cl60	Cl	-0.621247	-1.058558	0.000095
H61	H	0.014185	-0.555905	0.000114
Cl62	Cl	0.062023	-1.033337	0.193726
Cl63	Cl	0.030089	-0.349866	0.000125
Cl64	Cl	0.263636	-0.807776	0.601512
H65	H	0.092776	-0.998934	0.378568
H66	H	0.066049	-1.028894	0.786368
Cl67	Cl	0.015046	-0.166247	0.000148
Cl68	Cl	-0.004025	-0.727721	0.000096
Cl69	Cl	0.290366	-0.777820	0.193712
H70	H	-0.450264	-1.018790	0.000110
H71	H	-0.232704	-1.072330	0.000127
Cl72	Cl	0.035294	-1.063286	0.601509
Cl73	Cl	-0.411826	-0.725791	0.000048
Cl74	Cl	0.272908	-0.797439	0.806466
H75	H	-0.082259	-1.065212	0.000129
H76	H	0.276315	-0.793564	0.378567
Cl77	Cl	0.319881	-0.664514	0.000046
Cl78	Cl	0.304832	-0.480898	0.000067
Cl79	Cl	0.353998	-0.286674	0.000071
Cl80	Cl	-0.598994	-0.734652	0.000049
