data_functionalizedCrystal
_audit_creation_method	'MofGen! by Chris Wilmer'
_symmetry_space_group_name_H-M	'P1'
_symmetry_Int_Tables_number	1
_symmetry_cell_setting	triclinic
loop_
_symmetry_equiv_pos_as_xyz
  x,y,z
_cell_length_a	17.640112
_cell_length_b	16.625546
_cell_length_c	17.640968
_cell_angle_alpha	101.233484
_cell_angle_beta	87.860920
_cell_angle_gamma	101.247770
loop_
_atom_site_label
_atom_site_type_symbol
_atom_site_fract_x
_atom_site_fract_y
_atom_site_fract_z
Zn1	Zn	1.247778	-0.023167	0.195079
Zn2	Zn	1.222008	-0.189521	0.068091
Zn3	Zn	1.095110	-0.075617	0.093723
Zn4	Zn	1.120749	-0.178908	0.220673
O5	O	1.171411	-0.116803	0.144392
O6	O	1.350629	-0.027726	0.156795
O7	O	1.183660	-0.200804	-0.034783
O8	O	1.115417	0.044187	0.107184
O9	O	1.331696	-0.149946	0.063498
O10	O	1.227581	0.082722	0.181650
O11	O	1.090428	-0.117119	-0.015951
O12	O	0.992242	-0.106828	0.132002
O13	O	1.159114	-0.131856	0.323552
O14	O	1.011078	-0.182715	0.225272
O15	O	1.252442	-0.017434	0.304748
O16	O	1.208521	-0.300961	0.088315
O17	O	1.134126	-0.293163	0.200417
C18	C	0.974106	-0.149311	0.184196
C19	C	0.889701	-0.163234	0.201243
C20	C	0.563039	-0.011024	0.014898
C21	C	0.483730	-0.024119	0.030926
C22	C	0.503365	-0.103324	0.127880
C23	C	0.582678	-0.090232	0.111863
C24	C	0.612508	-0.044082	0.055370
C25	C	0.632147	-0.123289	0.152335
C26	C	0.711452	-0.110201	0.136316
C27	C	0.741288	-0.064056	0.079824
C28	C	0.691813	-0.030994	0.039351
C29	C	0.602314	-0.169444	0.208823
C30	C	0.651783	-0.202502	0.249296
C31	C	0.731091	-0.189409	0.233281
C32	C	0.760927	-0.143264	0.176789
C33	C	0.780566	-0.222471	0.273754
C34	C	0.859871	-0.209383	0.257735
C35	C	0.840232	-0.130176	0.160770
C36	C	1.171333	-0.326314	0.144374
C37	C	1.171374	-0.415926	0.144378
C38	C	1.171522	-0.744060	0.144431
C39	C	1.171479	-0.652763	0.144419
C40	C	1.171448	-0.579996	0.144404
C41	C	1.171406	-0.488693	0.144393
C42	C	1.369487	-0.084169	0.104432
C43	C	1.453895	-0.070262	0.087404
C44	C	1.211513	-0.067611	0.342476
C45	C	1.228602	-0.046647	0.426888
C46	C	1.171514	0.093533	0.144422
C47	C	1.171558	0.183166	0.144434
C48	C	1.131509	-0.165740	-0.052931
C49	C	1.114568	-0.186451	-0.137372
C50	C	1.041880	-0.275571	0.753453
C51	C	1.057954	-0.255860	0.832768
C52	C	1.155128	-0.136723	0.813179
C53	C	1.139059	-0.156422	0.733861
C54	C	1.082435	-0.225847	0.704005
C55	C	1.179615	-0.106698	0.684413
C56	C	1.163551	-0.126397	0.605102
C57	C	1.106931	-0.195821	0.575239
C58	C	1.066371	-0.245547	0.624694
C59	C	1.236243	-0.037276	0.714270
C60	C	1.276798	0.012448	0.664822
C61	C	1.260730	-0.007248	0.585510
C62	C	1.204111	-0.076672	0.555647
C63	C	1.301290	0.042478	0.536055
C64	C	1.285226	0.022778	0.456744
C65	C	1.188046	-0.096371	0.476336
H66	H	0.805864	-0.053403	0.066781
C67	C	1.004081	-0.321918	0.591849
N68	N	0.957168	-0.379440	0.567108
H69	H	0.995753	-0.332088	0.729147
H70	H	0.443455	0.002811	-0.002031
H71	H	1.024924	-0.296357	0.873027
H72	H	1.249322	-0.021240	0.778850
C73	C	1.363574	0.118844	0.568909
N74	N	1.410484	0.176367	0.593654
C75	C	0.747740	-0.273240	0.335890
N76	N	0.723017	-0.311479	0.382692
H77	H	1.318249	0.063269	0.416482
H78	H	1.201233	-0.080199	0.837498
H79	H	1.093855	-0.211862	0.510658
H80	H	0.864523	-0.092581	0.114780
C81	C	1.339076	0.088820	0.697675
N82	N	1.385981	0.146348	0.722419
C83	C	0.724631	0.019778	-0.022791
N84	N	0.749349	0.058015	-0.069596
C85	C	0.618961	-0.253264	0.311437
N86	N	0.594240	-0.291495	0.358245
H87	H	0.479066	-0.140902	0.173874
C88	C	0.595857	0.039748	-0.047244
N89	N	0.620575	0.077985	-0.094049
H90	H	0.537739	-0.180099	0.221864
C91	C	0.914291	-0.245744	0.302260
N92	N	0.955280	-0.273133	0.335797
H93	H	1.141919	-0.152888	0.452030
