data_functionalizedCrystal
_audit_creation_method	'MofGen! by Chris Wilmer'
_symmetry_space_group_name_H-M	'P1'
_symmetry_Int_Tables_number	1
_symmetry_cell_setting	triclinic
loop_
_symmetry_equiv_pos_as_xyz
  x,y,z
_cell_length_a	10.489763
_cell_length_b	9.565339
_cell_length_c	11.792241
_cell_angle_alpha	89.999915
_cell_angle_beta	95.629112
_cell_angle_gamma	89.998309
loop_
_atom_site_label
_atom_site_type_symbol
_atom_site_fract_x
_atom_site_fract_y
_atom_site_fract_z
O1	O	-1.693490	0.116200	0.160250
O2	O	-1.193490	0.616200	0.660250
O3	O	-1.322247	0.116216	0.175255
O4	O	-0.822247	0.616216	0.675255
O5	O	-1.516878	0.116198	0.002607
O6	O	-1.016878	0.616198	0.502607
O7	O	-1.498860	0.116218	0.332898
O8	O	-0.998860	0.616218	0.832898
O9	O	-1.516862	-0.116322	0.002617
O10	O	-1.016862	0.383678	0.502617
O11	O	-1.322232	-0.116304	0.175265
O12	O	-0.822232	0.383696	0.675265
O13	O	-1.693475	-0.116320	0.160261
O14	O	-1.193475	0.383680	0.660261
Zn15	Zn	-1.507851	-0.153230	0.167765
Zn16	Zn	-1.007851	0.346770	0.667765
Zn17	Zn	-1.507871	0.153125	0.167751
Zn18	Zn	-1.007871	0.653125	0.667751
O19	O	-1.498844	-0.116302	0.332909
O20	O	-0.998844	0.383698	0.832909
C21	C	-1.274712	-0.000042	0.174121
C22	C	-0.774712	0.499958	0.674121
C23	C	-1.133096	-0.000036	0.170715
C24	C	-0.633096	0.499964	0.670715
C25	C	-1.065331	-0.000057	0.060850
C26	C	-0.565331	0.499943	0.560850
C27	C	-0.973035	0.114586	0.112735
C28	C	-0.473035	0.614586	0.612735
C29	C	-0.973054	-0.114660	0.112772
C30	C	-0.473054	0.385340	0.612772
C31	C	-1.042666	0.114702	0.222645
C32	C	-0.542666	0.614702	0.722645
C33	C	-1.042694	-0.114647	0.222666
C34	C	-0.542694	0.385353	0.722666
C35	C	-0.950426	0.000024	0.274631
C36	C	-0.450426	0.500024	0.774631
N37	N	-1.507846	-0.362309	0.167774
N38	N	-1.007846	0.137691	0.667774
C39	C	-1.417809	-0.453504	0.247591
C40	C	-0.917809	0.046496	0.747591
C41	C	-1.533226	-0.546686	0.270565
C42	C	-1.033226	-0.046686	0.770565
C43	C	-1.392479	-0.546682	0.144808
C44	C	-0.892479	-0.046682	0.644808
C45	C	-1.623322	-0.453440	0.190800
C46	C	-1.123322	0.046560	0.690800
C47	C	-1.482499	-0.453427	0.064998
C48	C	-0.982499	0.046573	0.564998
C49	C	-1.597999	-0.546568	0.087929
C50	C	-1.097999	-0.046568	0.587929
C51	C	-0.741012	-0.000063	0.161376
C52	C	-0.241012	0.499937	0.661376
C53	C	-0.882636	-0.000071	0.164729
C54	C	-0.382636	0.499929	0.664729
C55	C	-1.515738	-0.000062	-0.039682
C56	C	-1.015738	0.499938	0.460318
C57	C	-1.512351	-0.000060	-0.165705
C58	C	-1.012351	0.499940	0.334295
N59	N	-1.507886	0.362205	0.167733
N60	N	-1.007886	0.862205	0.667733
C61	C	-1.506121	-0.000037	-0.396435
C62	C	-1.006121	0.499963	0.103565
C63	C	-1.509582	-0.000050	-0.268040
C64	C	-1.009582	0.499950	0.231960
C65	C	-1.499984	-0.000039	0.375197
C66	C	-0.999984	0.499961	0.875197
C67	C	-1.503371	-0.000032	0.501220
C68	C	-1.003371	0.499968	1.001220
H69	H	-1.073341	0.211735	0.269090
H70	H	-0.573341	0.711735	0.769090
H71	H	-1.294898	-0.587643	0.125402
H72	H	-0.794898	-0.087643	0.625402
H73	H	-1.073575	-0.211572	0.269119
H74	H	-0.573575	0.288428	0.769119
H75	H	-0.900695	0.000091	0.365034
H76	H	-0.400695	0.500091	0.865034
H77	H	-0.942228	-0.211585	0.066270
H78	H	-0.442228	0.288415	0.566270
H79	H	-1.554692	-0.587649	0.357463
H80	H	-1.054692	-0.087649	0.857463
H81	H	-0.942186	0.211506	0.066244
H82	H	-0.442186	0.711506	0.566244
H83	H	-1.341736	-0.412642	0.315152
H84	H	-0.841736	0.087358	0.815152
H85	H	-1.720925	-0.412655	0.210310
H86	H	-1.220925	0.087345	0.710310
H87	H	-1.674242	-0.587174	0.020410
H88	H	-1.174242	-0.087174	0.520410
H89	H	-1.115327	0.000081	-0.029458
H90	H	-0.615327	0.500081	0.470542
H91	H	-1.460997	-0.412432	-0.021873
H92	H	-0.960997	0.087568	0.478127
