data_functionalizedCrystal
_audit_creation_method	'MofGen! by Chris Wilmer'
_symmetry_space_group_name_H-M	'P1'
_symmetry_Int_Tables_number	1
_symmetry_cell_setting	triclinic
loop_
_symmetry_equiv_pos_as_xyz
  x,y,z
_cell_length_a	25.639243
_cell_length_b	25.639239
_cell_length_c	25.639234
_cell_angle_alpha	89.975095
_cell_angle_beta	89.976852
_cell_angle_gamma	90.041410
loop_
_atom_site_label
_atom_site_type_symbol
_atom_site_fract_x
_atom_site_fract_y
_atom_site_fract_z
Zn1	Zn	0.799262	-0.208145	-0.295656
Zn2	Zn	0.799175	-0.295573	-0.208220
Zn3	Zn	0.711828	-0.208157	-0.208229
Zn4	Zn	0.711784	-0.295555	-0.295619
O5	O	0.755512	-0.251857	-0.251931
O6	O	0.872416	-0.219744	-0.284069
O7	O	0.787570	-0.283990	-0.135056
O8	O	0.723481	-0.134990	-0.219846
O9	O	0.872351	-0.283977	-0.219830
O10	O	0.787719	-0.134981	-0.284077
O11	O	0.723396	-0.219766	-0.135063
O12	O	0.638656	-0.219749	-0.219810
O13	O	0.723406	-0.283947	-0.368789
O14	O	0.638624	-0.283959	-0.284016
O15	O	0.787676	-0.219727	-0.368816
O16	O	0.787527	-0.368736	-0.219795
O17	O	0.723321	-0.368723	-0.284007
C18	C	0.619669	-0.251854	-0.251910
C19	C	0.561555	-0.251865	-0.251914
C20	C	0.201220	-0.218464	-0.285436
C21	C	0.146616	-0.218463	-0.285439
O22	O	0.118403	-0.190055	-0.313915
N23	N	0.119273	-0.251856	-0.251945
C24	C	0.146537	-0.285247	-0.218443
O25	O	0.118266	-0.313650	-0.189954
C26	C	0.201140	-0.285245	-0.218437
C27	C	0.228481	-0.251854	-0.251937
C28	C	0.228560	-0.185075	-0.318932
C29	C	0.283161	-0.185076	-0.318930
C30	C	0.310421	-0.218466	-0.285431
C31	C	0.283081	-0.251855	-0.251934
C32	C	0.228404	-0.318633	-0.184932
C33	C	0.283011	-0.318627	-0.184929
C34	C	0.310351	-0.285236	-0.218429
C35	C	0.364942	-0.285246	-0.218432
N36	N	0.392285	-0.251854	-0.251926
C37	C	0.365025	-0.218464	-0.285425
C38	C	0.031866	-0.285250	-0.218456
C39	C	-0.022736	-0.285255	-0.218464
C40	C	-0.022653	-0.218470	-0.285460
C41	C	0.031950	-0.218468	-0.285454
C42	C	0.059209	-0.251857	-0.251950
C43	C	0.479690	-0.218469	-0.285417
C44	C	0.534295	-0.218475	-0.285413
C45	C	0.534208	-0.285258	-0.218415
C46	C	0.479607	-0.285254	-0.218421
C47	C	0.452349	-0.251856	-0.251924
O48	O	0.393190	-0.313639	-0.189969
O49	O	0.393303	-0.190061	-0.313904
C50	C	0.755424	-0.387700	-0.251907
C51	C	0.755434	-0.445814	-0.251914
C52	C	0.789031	-0.806171	-0.218553
C53	C	0.789051	-0.860776	-0.218560
O54	O	0.817526	-0.889007	-0.190169
N55	N	0.755604	-0.888096	-0.251966
C56	C	0.722138	-0.860810	-0.285371
O57	O	0.693690	-0.889063	-0.313786
C58	C	0.722120	-0.806207	-0.285366
C59	C	0.755566	-0.778889	-0.251954
C60	C	0.822475	-0.778853	-0.185144
C61	C	0.822454	-0.724253	-0.185137
C62	C	0.788989	-0.696970	-0.218538
C63	C	0.755545	-0.724288	-0.251946
C64	C	0.688657	-0.778922	-0.318773
C65	C	0.688643	-0.724315	-0.318765
C66	C	0.722089	-0.696997	-0.285354
C67	C	0.722059	-0.642405	-0.285340
N68	N	0.755507	-0.615084	-0.251934
C69	C	0.788972	-0.642367	-0.218533
C70	C	0.722177	-0.975481	-0.285379
C71	C	0.722191	-1.030083	-0.285381
C72	C	0.789106	-1.030045	-0.218571
C73	C	0.789089	-0.975441	-0.218566
C74	C	0.755625	-0.948160	-0.251973
C75	C	0.788925	-0.527702	-0.218519
C76	C	0.788899	-0.473097	-0.218513
C77	C	0.721987	-0.473140	-0.285325
C78	C	0.722010	-0.527740	-0.285330
C79	C	0.755483	-0.555020	-0.251925
O80	O	0.693601	-0.614139	-0.313718
O81	O	0.817419	-0.614108	-0.190127
C82	C	0.891885	-0.251861	-0.251952
C83	C	0.949999	-0.251863	-0.251961
C84	C	0.755546	-0.251834	-0.388304
C85	C	0.755560	-0.251823	-0.446418
C86	C	0.755615	-0.115484	-0.251967
C87	C	0.755658	-0.057370	-0.251982
C88	C	0.722160	-0.218320	-0.806790
C89	C	0.722163	-0.218310	-0.861395
O90	O	0.693738	-0.189882	-0.889639
N91	N	0.755578	-0.251741	-0.888701
C92	C	0.788989	-0.285188	-0.861400
O93	O	0.817411	-0.313623	-0.889640
C94	C	0.788983	-0.285200	-0.806797
C95	C	0.755569	-0.251763	-0.779493
C96	C	0.688749	-0.184886	-0.779487
C97	C	0.688747	-0.184895	-0.724887
C98	C	0.722156	-0.218338	-0.697589
C99	C	0.755567	-0.251772	-0.724893
C100	C	0.822390	-0.318648	-0.779496
C101	C	0.822381	-0.318657	-0.724889
C102	C	0.788968	-0.285220	-0.697586
C103	C	0.788974	-0.285223	-0.642995
N104	N	0.755559	-0.251792	-0.615689
C105	C	0.722150	-0.218349	-0.642986
C106	C	0.788998	-0.285161	-0.976071
C107	C	0.789006	-0.285147	-1.030673
C108	C	0.722180	-0.218270	-1.030664
C109	C	0.722174	-0.218282	-0.976061
C110	C	0.755583	-0.251730	-0.948764
C111	C	0.722149	-0.218370	-0.528321
C112	C	0.722151	-0.218381	-0.473715
C113	C	0.788976	-0.285259	-0.473729
C114	C	0.788975	-0.285247	-0.528330
C115	C	0.755558	-0.251801	-0.555624
O116	O	0.817383	-0.313639	-0.614716
O117	O	0.693728	-0.189924	-0.614739
C118	C	0.755508	-0.251843	-0.116089
C119	C	0.755595	-0.251706	-0.057975
H120	H	0.054207	-0.191277	-0.312732
H121	H	0.694777	-0.549984	-0.312538
H122	H	0.694976	-0.191040	-1.052899
H123	H	0.694966	-0.191054	-0.953834
H124	H	0.816189	-0.312469	-0.550561
H125	H	0.816357	-1.052268	-0.191376
H126	H	0.694951	-1.052321	-0.312583
H127	H	0.816178	-0.312486	-0.451494
H128	H	0.457346	-0.312450	-0.191149
H129	H	0.556553	-0.191283	-0.312694
H130	H	0.694922	-0.953271	-0.312581
H131	H	0.661419	-0.801155	-0.345978
H132	H	0.457503	-0.191272	-0.312697
H133	H	-0.044859	-0.191281	-0.312735
H134	H	-0.044992	-0.312451	-0.191191
H135	H	0.661393	-0.702105	-0.345971
H136	H	0.849729	-0.801061	-0.157945
H137	H	0.694738	-0.450918	-0.312518
H138	H	0.849690	-0.702014	-0.157932
H139	H	0.694942	-0.191150	-0.451488
H140	H	0.305416	-0.157885	-0.346208
H141	H	0.054058	-0.312444	-0.191174
H142	H	0.694937	-0.191135	-0.550538
H143	H	0.661536	-0.157669	-0.702661
H144	H	0.206153	-0.345823	-0.157652
H145	H	0.849599	-0.345877	-0.801717
H146	H	0.661540	-0.157653	-0.801707
H147	H	0.816221	-0.312369	-1.052899
H148	H	0.816324	-0.953202	-0.191360
H149	H	0.305202	-0.345817	-0.157644
H150	H	0.816209	-0.312396	-0.953849
H151	H	0.556413	-0.312444	-0.191142
H152	H	0.849590	-0.345892	-0.702668
H153	H	0.206371	-0.157882	-0.346212
H154	H	0.816135	-0.450856	-0.191304
H155	H	0.816183	-0.549907	-0.191319
