data_functionalizedCrystal
_audit_creation_method	'MofGen! by Chris Wilmer'
_symmetry_space_group_name_H-M	'P1'
_symmetry_Int_Tables_number	1
_symmetry_cell_setting	triclinic
loop_
_symmetry_equiv_pos_as_xyz
  x,y,z
_cell_length_a	14.044220
_cell_length_b	10.654550
_cell_length_c	9.730223
_cell_angle_alpha	89.999854
_cell_angle_beta	90.001660
_cell_angle_gamma	88.836904
loop_
_atom_site_label
_atom_site_type_symbol
_atom_site_fract_x
_atom_site_fract_y
_atom_site_fract_z
O1	O	1.259697	0.302986	-0.114119
O2	O	0.983656	0.292052	-0.114155
O3	O	1.128023	0.115418	-0.114142
O4	O	1.115330	0.479621	-0.114132
O5	O	1.128014	0.115411	0.114438
O6	O	0.983646	0.292046	0.114425
O7	O	1.259688	0.302980	0.114461
Zn8	Zn	1.121665	0.297512	0.150735
Zn9	Zn	1.121678	0.297520	-0.150429
O10	O	1.115320	0.479614	0.114448
C11	C	0.948305	0.287263	0.000130
C12	C	0.842986	0.272988	0.000116
C13	C	1.116257	0.526509	0.000159
C14	C	1.119045	0.666233	0.000164
C15	C	1.127086	0.068523	0.000143
C16	C	1.124298	-0.071201	0.000130
C17	C	0.650153	0.246889	0.000142
C18	C	0.593185	0.348137	0.000151
C19	C	0.485886	0.333615	0.000166
C20	C	0.757462	0.261409	0.000128
C21	C	1.295038	0.307769	0.000172
C22	C	1.400358	0.322044	0.000178
N23	N	1.121664	0.297506	0.356271
C24	C	1.034044	0.737176	0.000149
C25	C	1.036670	0.868461	0.000128
C26	C	1.209306	0.857846	0.000140
C27	C	1.206679	0.726564	0.000152
N28	N	1.121687	0.297517	-0.355966
C29	C	1.185612	0.219331	0.428203
C30	C	1.185621	0.219332	0.572086
C31	C	1.057732	0.375696	0.572093
C32	C	1.057719	0.375687	0.428212
H33	H	0.618342	0.149310	0.000147
N34	N	0.949834	0.940909	0.000103
N35	N	0.871602	0.887021	0.000105
H36	H	0.810269	0.938186	0.000084
N37	N	0.944525	0.675568	0.000168
N38	N	0.868638	0.738933	0.000159
H39	H	0.805411	0.695427	0.000172
H40	H	1.237679	0.155670	0.369632
N41	N	1.298808	0.919496	0.000125
N42	N	1.301143	1.036711	0.000114
H43	H	1.364356	1.080252	0.000105
N44	N	1.250944	0.139463	0.645540
N45	N	1.308025	0.069664	0.581285
H46	H	1.354162	0.013250	0.633160
N47	N	0.992409	0.455569	0.354729
N48	N	1.023009	0.536970	0.274434
H49	H	0.976885	0.593384	0.222535
N50	N	1.293519	0.654106	0.000153
N51	N	1.371756	0.707985	0.000150
H52	H	1.433085	0.656813	0.000144
H53	H	1.005671	0.439350	0.630682
H54	H	0.624998	0.445725	0.000147
