data_functionalizedCrystal
_audit_creation_method	'MofGen! by Chris Wilmer'
_symmetry_space_group_name_H-M	'P1'
_symmetry_Int_Tables_number	1
_symmetry_cell_setting	triclinic
loop_
_symmetry_equiv_pos_as_xyz
  x,y,z
_cell_length_a	12.759395
_cell_length_b	12.759394
_cell_length_c	12.759387
_cell_angle_alpha	89.968340
_cell_angle_beta	90.019431
_cell_angle_gamma	89.985318
loop_
_atom_site_label
_atom_site_type_symbol
_atom_site_fract_x
_atom_site_fract_y
_atom_site_fract_z
Zn1	Zn	1.606268	0.418215	0.593969
Zn2	Zn	1.606158	0.593932	0.418286
Zn3	Zn	1.430566	0.418268	0.418309
Zn4	Zn	1.430558	0.593853	0.593929
O5	O	1.518387	0.506067	0.506123
O6	O	1.753274	0.441536	0.570671
O7	O	1.582823	0.570685	0.271268
O8	O	1.453922	0.271240	0.441636
O9	O	1.753194	0.570635	0.441598
O10	O	1.583010	0.271201	0.570693
O11	O	1.453816	0.441625	0.271285
O12	O	1.283544	0.441548	0.441598
O13	O	1.453909	0.570499	0.740955
O14	O	1.283538	0.570549	0.570625
O15	O	1.583002	0.441459	0.740984
O16	O	1.582815	0.740943	0.441560
O17	O	1.453802	0.740884	0.570603
C18	C	1.245420	0.506046	0.506110
C19	C	1.128643	0.506063	0.506130
C20	C	1.128708	0.371849	0.640750
C21	C	1.073879	0.304756	0.708069
C22	C	0.964158	0.304774	0.708082
C23	C	0.909262	0.371892	0.640767
C24	C	0.964091	0.438986	0.573448
C25	C	1.073815	0.438962	0.573445
C26	C	0.964026	0.573192	0.438824
C27	C	1.073747	0.573180	0.438814
C28	C	0.909130	0.640309	0.371508
C29	C	0.963959	0.707410	0.304193
C30	C	1.073687	0.707389	0.304184
C31	C	1.128576	0.640274	0.371495
C32	C	1.518324	0.779035	0.506098
C33	C	1.518393	0.895811	0.506122
C34	C	1.518467	0.505964	0.780157
C35	C	1.518500	0.505920	0.896934
C36	C	1.792421	0.506089	0.506137
C37	C	1.909197	0.506098	0.506143
C38	C	1.518479	0.232034	0.506172
C39	C	1.518518	0.115257	0.506192
C40	C	1.652835	0.895819	0.371849
C41	C	1.720083	0.950684	0.304726
C42	C	1.720145	1.060405	0.304754
C43	C	1.652953	1.115265	0.371916
C44	C	1.585705	1.060400	0.439040
C45	C	1.585648	0.950676	0.439002
C46	C	1.451270	1.060392	0.573316
C47	C	1.451202	0.950671	0.573284
C48	C	1.384079	1.115252	0.640478
C49	C	1.316823	1.060387	0.707598
C50	C	1.316764	0.950659	0.707566
C51	C	1.383954	0.895806	0.640408
C52	C	1.518369	0.506094	0.233156
C53	C	1.518538	0.505842	0.116379
C54	C	1.652934	0.371560	0.896984
C55	C	1.720166	0.304364	0.951870
C56	C	1.720192	0.304326	1.061591
C57	C	1.652976	0.371488	1.116430
C58	C	1.585744	0.438684	1.061544
C59	C	1.585728	0.438717	0.951819
C60	C	1.451307	0.573038	1.061494
C61	C	1.451285	0.573083	0.951772
C62	C	1.384091	0.640200	1.116332
C63	C	1.316863	0.707403	1.061446
C64	C	1.316841	0.707439	0.951717
C65	C	1.384053	0.640279	0.896886
H66	H	1.217917	0.640245	0.371489
H67	H	1.383905	0.806465	0.640368
H68	H	1.384113	0.640160	1.205673
H69	H	1.652778	0.806478	0.371806
H70	H	1.652930	0.371594	0.807643
O71	O	1.251493	0.897480	0.772920
C72	C	1.274450	0.924165	0.877657
H73	H	1.314882	1.003796	0.879884
H74	H	1.328418	0.862338	0.913062
C75	C	1.122349	0.831463	0.938493
C76	C	1.172001	0.929271	0.941229
H77	H	1.059155	0.834608	0.977710
H78	H	1.106884	0.813481	0.867930
H79	H	1.167333	0.779951	0.967996
H80	H	1.127022	0.980778	0.911715
H81	H	1.187457	0.947262	1.011788
O82	O	1.384235	1.221834	0.640679
C83	C	1.411171	1.258383	0.741409
H84	H	1.456921	1.195078	0.784857
H85	H	1.336782	1.277874	0.786876
C86	C	1.423090	1.435247	0.677968
C87	C	1.479288	1.357497	0.731329
H88	H	1.465103	1.496387	0.671752
H89	H	1.404938	1.410624	0.610105
H90	H	1.361102	1.451477	0.715865
H91	H	1.541267	1.341259	0.693426
H92	H	1.497451	1.382119	0.799186
O93	O	0.910730	0.239635	0.773376
C94	C	0.802117	0.254071	0.758967
H95	H	0.787100	0.288380	0.677825
H96	H	0.771005	0.310108	0.821184
C97	C	0.764230	0.105658	0.868452
C98	C	0.745785	0.147789	0.768788
H99	H	0.729480	0.040099	0.874515
H100	H	0.837404	0.095934	0.878163
H101	H	0.738303	0.152365	0.920288
H102	H	0.771724	0.101088	0.716955
H103	H	0.672614	0.157502	0.759069
H104	H	1.218049	0.371823	0.640742
O105	O	1.785597	0.239019	1.114750
C106	C	1.844895	0.179725	1.042828
H107	H	1.848503	0.222778	0.964602
H108	H	1.806453	0.099929	1.031176
C109	C	1.952294	0.111710	1.181755
C110	C	1.956733	0.164593	1.085678
H111	H	2.021279	0.102371	1.208187
H112	H	1.912341	0.151654	1.230211
H113	H	1.920254	0.045219	1.172031
H114	H	1.988760	0.231087	1.095406
H115	H	1.996694	0.124660	1.037224
H116	H	1.118588	0.250108	0.762874
O117	O	0.910587	0.772712	0.238961
C118	C	0.847112	0.840631	0.298657
H119	H	0.880210	0.847221	0.381390
H120	H	0.763963	0.808157	0.302341
C121	C	0.804732	0.941691	0.145520
C122	C	0.845390	0.949793	0.247131
H123	H	0.803665	1.009027	0.113735
H124	H	0.847494	0.895931	0.105300
H125	H	0.735445	0.914626	0.148603
H126	H	0.914679	0.976845	0.244046
H127	H	0.802640	0.995560	0.287350
H128	H	0.819921	0.371893	0.640775
O129	O	1.126898	0.772717	0.238902
C130	C	1.100062	0.877461	0.261655
H131	H	1.069934	0.882877	0.345579
H132	H	1.036345	0.904858	0.205282
C133	C	1.234520	0.940898	0.146213
C134	C	1.197525	0.947552	0.249294
H135	H	1.294637	0.984135	0.138585
H136	H	1.252598	0.870330	0.130881
H137	H	1.181414	0.963727	0.099248
H138	H	1.250626	0.924710	0.296257
H139	H	1.179458	1.018117	0.264634
H140	H	0.819789	0.640317	0.371521
H141	H	1.774792	0.906008	0.250045
H142	H	1.384046	0.640306	0.807545
H143	H	1.653018	1.204606	0.371942
O144	O	1.653158	0.371345	1.223013
C145	C	1.726885	0.297609	1.259697
H146	H	1.788266	0.282929	1.196482
H147	H	1.685258	0.220987	1.279168
C148	C	1.705345	0.358427	1.436502
C149	C	1.780739	0.340404	1.358863
H150	H	1.738562	0.384821	1.497675
H151	H	1.655671	0.408102	1.411789
H152	H	1.670662	0.294571	1.452716
H153	H	1.815411	0.404262	1.342642
H154	H	1.830420	0.290741	1.383576
H155	H	1.774909	1.105076	0.250101
H156	H	1.774890	0.249680	0.907208
H157	H	1.262126	1.105062	0.762281
H158	H	1.262136	0.762076	1.106104
H159	H	1.262082	0.762147	0.907036
