data_functionalizedCrystal
_audit_creation_method	'MofGen! by Chris Wilmer'
_symmetry_space_group_name_H-M	'P1'
_symmetry_Int_Tables_number	1
_symmetry_cell_setting	triclinic
loop_
_symmetry_equiv_pos_as_xyz
  x,y,z
_cell_length_a	19.805407
_cell_length_b	29.839131
_cell_length_c	19.805407
_cell_angle_alpha	90.023761
_cell_angle_beta	90.002724
_cell_angle_gamma	90.035228
loop_
_atom_site_label
_atom_site_type_symbol
_atom_site_fract_x
_atom_site_fract_y
_atom_site_fract_z
Zn1	Zn	1.034582	-0.178923	0.382674
Zn2	Zn	1.534582	0.321077	0.882674
Zn3	Zn	1.034512	-0.254033	0.269467
Zn4	Zn	1.534512	0.245967	0.769467
Zn5	Zn	0.921430	-0.178918	0.269499
Zn6	Zn	1.421430	0.321082	0.769499
Zn7	Zn	0.921342	-0.254027	0.382614
Zn8	Zn	1.421342	0.245973	0.882614
O9	O	0.977966	-0.216476	0.326063
O10	O	1.477966	0.283524	0.826063
O11	O	1.129289	-0.188892	0.367669
O12	O	1.629289	0.311108	0.867669
O13	O	1.019519	-0.244070	0.174755
O14	O	1.519519	0.255930	0.674755
O15	O	0.936505	-0.116052	0.284550
O16	O	1.436505	0.383948	0.784550
O17	O	1.129238	-0.244075	0.284496
O18	O	1.629238	0.255925	0.784496
O19	O	1.019637	-0.116056	0.367700
O20	O	1.519637	0.383944	0.867700
O21	O	0.936438	-0.188883	0.174778
O22	O	1.436438	0.311117	0.674778
O23	O	0.826701	-0.188877	0.284492
O24	O	1.326701	0.311123	0.784492
O25	O	0.936356	-0.244064	0.477338
O26	O	1.436356	0.255936	0.977338
O27	O	0.826637	-0.244059	0.367597
O28	O	1.326637	0.255941	0.867597
O29	O	1.019553	-0.188886	0.477383
O30	O	1.519553	0.311114	0.977383
O31	O	1.019435	-0.316900	0.284437
O32	O	1.519435	0.183100	0.784437
O33	O	0.936289	-0.316895	0.367566
O34	O	1.436289	0.183105	0.867566
C35	C	0.802110	-0.216467	0.326041
C36	C	1.302110	0.283533	0.826041
C37	C	0.726878	-0.216474	0.326048
C38	C	1.226878	0.283526	0.826048
C39	C	0.977863	-0.333198	0.326006
C40	C	1.477863	0.166802	0.826006
C41	C	0.977881	-0.383133	0.326004
C42	C	1.477881	0.116867	0.826004
C43	C	0.691519	-0.245251	0.369251
C44	C	1.191519	0.254749	0.869251
C45	C	0.620830	-0.245251	0.369260
C46	C	1.120830	0.254749	0.869260
C47	C	0.585503	-0.216478	0.326063
C48	C	1.085503	0.283522	0.826063
C49	C	0.620868	-0.187698	0.282859
C50	C	1.120868	0.312302	0.782859
C51	C	0.691555	-0.187695	0.282853
C52	C	1.191555	0.312305	0.782853
C53	C	0.335794	-0.187708	0.282881
C54	C	0.835794	0.312292	0.782881
C55	C	0.265102	-0.187714	0.282889
C56	C	0.765102	0.312286	0.782889
C57	C	0.265070	-0.245264	0.369288
C58	C	0.765070	0.254736	0.869288
C59	C	0.335757	-0.245261	0.369283
C60	C	0.835757	0.254739	0.869283
C61	C	0.371115	-0.216480	0.326081
C62	C	0.871115	0.283520	0.826081
C63	C	0.447764	-0.216479	0.326072
C64	C	0.947764	0.283521	0.826072
C65	C	0.508856	-0.216481	0.326068
C66	C	1.008856	0.283519	0.826068
C67	C	1.021244	-0.692743	0.369421
C68	C	1.521244	-0.192743	0.869421
C69	C	1.021317	-0.880416	0.369462
C70	C	1.521317	-0.380416	0.869462
O71	O	1.058085	-0.904653	0.406333
O72	O	1.558085	-0.404653	0.906333
N73	N	0.978081	-0.903918	0.326138
N74	N	1.478081	-0.403918	0.826138
C75	C	0.934821	-0.880498	0.282805
C76	C	1.434821	-0.380498	0.782805
O77	O	0.898043	-0.904794	0.245962
O78	O	1.398043	-0.404794	0.745962
C79	C	0.934744	-0.692826	0.282768
C80	C	1.434744	-0.192826	0.782768
C81	C	0.977988	-0.669327	0.326090
C82	C	1.477988	-0.169327	0.826090
C83	C	1.064484	-0.669244	0.412739
C84	C	1.564484	-0.169244	0.912739
C85	C	1.064467	-0.622328	0.412726
C86	C	1.564467	-0.122328	0.912726
C87	C	1.021212	-0.598912	0.369394
C88	C	1.521212	-0.098912	0.869394
C89	C	0.977972	-0.622411	0.326076
C90	C	1.477972	-0.122411	0.826076
C91	C	0.891481	-0.669407	0.239439
C92	C	1.391481	-0.169407	0.739439
C93	C	0.891464	-0.622486	0.239435
C94	C	1.391464	-0.122486	0.739435
C95	C	0.934708	-0.598987	0.282756
C96	C	1.434708	-0.098987	0.782756
C97	C	0.934700	-0.552079	0.282732
C98	C	1.434700	-0.052079	0.782732
N99	N	0.977936	-0.528578	0.326055
N100	N	1.477936	-0.028578	0.826055
C101	C	1.021192	-0.551994	0.369386
C102	C	1.521192	-0.051994	0.869386
C103	C	0.934865	-0.979029	0.282827
C104	C	1.434865	-0.479029	0.782827
C105	C	0.934885	-1.025946	0.282835
C106	C	1.434885	-0.525946	0.782835
C107	C	1.021381	-1.025861	0.369492
C108	C	1.521381	-0.525861	0.869492
C109	C	1.021364	-0.978943	0.369480
C110	C	1.521364	-0.478943	0.869480
C111	C	0.978101	-0.955527	0.326150
C112	C	1.478101	-0.455527	0.826150
C113	C	1.021155	-0.453468	0.369355
C114	C	1.521155	0.046532	0.869355
C115	C	1.021137	-0.406549	0.369336
C116	C	1.521137	0.093451	0.869336
C117	C	0.934639	-0.406638	0.282681
C118	C	1.434639	0.093362	0.782681
C119	C	0.934659	-0.453554	0.282697
C120	C	1.434659	0.046446	0.782697
C121	C	0.977919	-0.476968	0.326040
C122	C	1.477919	0.023032	0.826040
O123	O	0.897946	-0.527814	0.245885
O124	O	1.397946	-0.027814	0.745885
O125	O	1.057954	-0.527690	0.406235
O126	O	1.557954	-0.027690	0.906235
C127	C	1.021260	-0.739658	0.369434
C128	C	1.521260	-0.239658	0.869434
C129	C	0.978020	-0.763158	0.326116
C130	C	1.478020	-0.263158	0.826116
C131	C	0.934765	-0.739741	0.282785
C132	C	1.434765	-0.239741	0.782785
C133	C	0.978040	-0.810075	0.326124
C134	C	1.478040	-0.310075	0.826124
C135	C	1.021296	-0.833492	0.369456
C136	C	1.521296	-0.333492	0.869456
C137	C	1.064532	-0.809990	0.412779
C138	C	1.564532	-0.309990	0.912779
C139	C	1.064516	-0.763075	0.412765
C140	C	1.564516	-0.263075	0.912765
C141	C	0.891529	-0.763243	0.239461
C142	C	1.391529	-0.263243	0.739461
C143	C	0.891549	-0.810158	0.239478
C144	C	1.391549	-0.310158	0.739478
C145	C	0.934805	-0.833575	0.282809
C146	C	1.434805	-0.333575	0.782809
C147	C	1.154509	-0.216484	0.326086
C148	C	1.654509	0.283516	0.826086
C149	C	1.229741	-0.216488	0.326095
C150	C	1.729741	0.283512	0.826095
C151	C	0.977952	-0.216475	0.502606
C152	C	1.477952	0.283525	1.002606
C153	C	0.977947	-0.216474	0.577838
C154	C	1.477947	0.283526	1.077838
C155	C	0.978088	-0.099297	0.326135
C156	C	1.478088	0.400703	0.826135
C157	C	0.978141	-0.049363	0.326166
C158	C	1.478141	0.450637	0.826166
C159	C	1.021230	-0.245216	1.039614
C160	C	1.521230	0.254784	1.539614
C161	C	1.021224	-0.245217	0.968926
C162	C	1.521224	0.254783	1.468926
C163	C	0.977966	-0.216484	0.933600
C164	C	1.477966	0.283516	1.433600
C165	C	0.934706	-0.187751	0.968966
C166	C	1.434706	0.312249	1.468966
C167	C	0.934709	-0.187754	1.039653
C168	C	1.434709	0.312246	1.539653
C169	C	0.934693	-0.187742	0.683892
C170	C	1.434693	0.312258	1.183892
C171	C	0.934694	-0.187741	0.613200
C172	C	1.434694	0.312259	1.113200
C173	C	1.021207	-0.245205	0.613165
C174	C	1.521207	0.254795	1.113165
C175	C	1.021210	-0.245207	0.683853
C176	C	1.521210	0.254793	1.183853
C177	C	0.977948	-0.216477	0.719212
C178	C	1.477948	0.283523	1.219212
C179	C	0.977954	-0.216478	0.795861
C180	C	1.477954	0.283522	1.295861
C181	C	0.977963	-0.216480	0.856953
C182	C	1.477963	0.283520	1.356953
C183	C	0.977974	-0.216486	1.150207
C184	C	1.477974	0.283514	1.650207
C185	C	0.977975	-0.216485	1.074975
C186	C	1.477975	0.283515	1.574975
H187	H	0.720277	-0.268683	0.404425
H188	H	1.220277	0.231317	0.904425
F189	F	0.888650	-0.157158	0.575605
F190	F	1.388650	0.342842	1.075605
H191	H	0.592043	-0.268685	0.404440
H192	H	1.092043	0.231315	0.904440
H193	H	0.899634	-0.959967	0.247540
H194	H	1.399634	-0.459967	0.747540
H195	H	0.364517	-0.268694	0.404456
H196	H	0.864517	0.231306	0.904456
H197	H	0.720344	-0.164260	0.247677
H198	H	1.220344	0.335740	0.747677
F199	F	0.888606	-0.381708	0.236566
F200	F	1.388606	0.118292	0.736566
F201	F	0.888625	-0.157181	0.721516
F202	F	1.388625	0.342819	1.221516
F203	F	0.845452	-0.694406	0.193332
F204	F	1.345452	-0.194406	0.693332
H205	H	0.856232	-0.603423	0.204151
H206	H	1.356232	-0.103423	0.704151
H207	H	1.056353	-0.387417	0.404613
H208	H	1.556353	0.112583	0.904613
H209	H	0.364575	-0.164276	0.247698
H210	H	0.864575	0.335724	0.747698
H211	H	0.236272	-0.268698	0.404468
H212	H	0.736272	0.231302	0.904468
H213	H	0.236341	-0.164280	0.247712
H214	H	0.736341	0.335720	0.747712
H215	H	0.899452	-0.472688	0.247416
H216	H	1.399452	0.027312	0.747416
F217	F	0.583268	-0.157071	0.236889
F218	F	1.083268	0.342929	0.736889
F219	F	1.067263	-0.275795	0.931295
F220	F	1.567263	0.224205	1.431295
F221	F	1.067198	-0.478381	0.415484
F222	F	1.567198	0.021619	0.915484
F223	F	1.110542	-0.738071	0.458875
F224	F	1.610542	-0.238071	0.958875
H225	H	0.899487	-0.164358	1.068443
H226	H	1.399487	0.335642	1.568443
H227	H	1.099755	-0.829064	0.448058
H228	H	1.599755	-0.329064	0.948058
H229	H	0.856336	-0.829287	0.204194
H230	H	1.356336	-0.329287	0.704194
H231	H	1.056602	-1.044935	0.404774
H232	H	1.556602	-0.544935	0.904774
H233	H	1.056438	-0.268603	0.712612
H234	H	1.556438	0.231397	1.212612
F235	F	0.888674	-0.157167	0.931367
F236	F	1.388674	0.342833	1.431367
H237	H	1.099678	-0.603198	0.448004
H238	H	1.599678	-0.103198	0.948004
F239	F	1.067388	-0.953937	0.415589
F240	F	1.567388	-0.453937	0.915589
H241	H	1.099708	-0.688305	0.448029
H242	H	1.599708	-0.188305	0.948029
H243	H	1.056459	-0.268612	1.068372
H244	H	1.556459	0.231388	1.568372
F245	F	0.888867	-1.050951	0.236718
F246	F	1.388867	-0.550951	0.736718
F247	F	0.845484	-0.738328	0.193343
F248	F	1.345484	-0.238328	0.693343
F249	F	1.067250	-0.275784	0.575528
F250	F	1.567250	0.224216	1.075528
