data_functionalizedCrystal
_audit_creation_method	'MofGen! by Chris Wilmer'
_symmetry_space_group_name_H-M	'P1'
_symmetry_Int_Tables_number	1
_symmetry_cell_setting	triclinic
loop_
_symmetry_equiv_pos_as_xyz
  x,y,z
_cell_length_a	8.559649
_cell_length_b	15.995350
_cell_length_c	7.088929
_cell_angle_alpha	83.778427
_cell_angle_beta	95.325015
_cell_angle_gamma	76.635520
loop_
_atom_site_label
_atom_site_type_symbol
_atom_site_fract_x
_atom_site_fract_y
_atom_site_fract_z
O1	O	2.103728	-0.018745	-0.158958
O2	O	1.638524	0.024497	-0.158965
O3	O	1.883843	-0.119829	-0.158960
O4	O	1.858409	0.125582	-0.158964
O5	O	1.916627	-0.139156	0.159016
O6	O	1.671308	0.005171	0.159011
O7	O	2.136513	-0.038072	0.159018
Cu8	Cu	1.906904	-0.018215	0.188048
Cu9	Cu	1.868132	0.004641	-0.187995
O10	O	1.891194	0.106255	0.159012
C11	C	1.595386	0.018111	0.000022
C12	C	1.418005	0.027866	0.000019
C13	C	1.899183	-0.160619	0.000025
C14	C	1.896030	-0.253367	0.000014
C15	C	1.884710	-0.590386	0.000020
C16	C	1.709925	-0.531674	-0.000696
C17	C	1.713152	-0.435230	0.000021
C18	C	1.890325	-0.423187	0.000016
C19	C	1.995220	-0.480842	0.181594
C20	C	1.990847	-0.577205	0.181746
C21	C	1.957174	-0.555817	-0.179852
C22	C	1.956885	-0.458723	-0.182252
C23	C	1.893508	-0.328694	0.000020
C24	C	1.881533	-0.684880	0.000029
C25	C	2.179650	-0.031685	0.000027
C26	C	2.357029	-0.041439	0.000017
C27	C	1.875853	0.147046	0.000024
C28	C	1.879005	0.239793	0.000022
N29	N	1.934185	-0.034292	0.452537
N30	N	1.840864	0.020710	-0.452484
H31	H	1.334498	0.094668	0.000007
C32	C	1.711662	0.096673	0.438902
C33	C	1.559575	0.090345	0.487518
C34	C	1.440518	0.160314	0.387507
H35	H	1.713298	0.095644	0.305367
H36	H	1.732418	0.149462	0.471650
H37	H	1.538824	0.037571	0.454757
H38	H	1.557885	0.091385	0.621036
H39	H	1.461274	0.213103	0.420255
H40	H	1.442169	0.159279	0.253977
H41	H	1.337315	0.156035	0.420492
H42	H	1.631993	-0.394541	-0.130141
H43	H	2.030920	-0.091290	0.534195
C44	C	1.599127	-0.539997	-0.174374
C45	C	1.685866	-0.598019	-0.283922
C46	C	1.583844	-0.605724	-0.443917
H47	H	1.559243	-0.484867	-0.249361
H48	H	1.510972	-0.561013	-0.133599
H49	H	1.773991	-0.577001	-0.324698
H50	H	1.725747	-0.653159	-0.208992
H51	H	1.495689	-0.626739	-0.403142
H52	H	1.543965	-0.550590	-0.518887
H53	H	1.642677	-0.645098	-0.518255
C54	C	1.468510	-0.130439	-0.000278
C55	C	1.548463	-0.130215	-0.163844
C56	C	1.651198	-0.212184	-0.164169
H57	H	1.406666	-0.172687	-0.000378
H58	H	1.545836	-0.143941	0.110551
H59	H	1.471148	-0.116724	-0.274644
H60	H	1.610338	-0.087985	-0.163779
H61	H	1.728524	-0.225686	-0.053340
H62	H	1.589341	-0.254425	-0.164264
H63	H	1.705470	-0.212041	-0.275137
C64	C	1.634815	-0.562399	0.171717
C65	C	1.492991	-0.586082	0.109652
C66	C	1.423775	-0.614404	0.268425
H67	H	1.609769	-0.516938	0.248049
H68	H	1.709113	-0.611023	0.245175
H69	H	1.418708	-0.537463	0.036226
H70	H	1.517993	-0.631549	0.033340
H71	H	1.498073	-0.663027	0.341883
H72	H	1.398739	-0.568938	0.344747
H73	H	1.327549	-0.630483	0.226337
H74	H	1.658401	-0.410905	0.130403
H75	H	1.942003	-0.599715	0.317481
C76	C	2.169614	-0.473567	0.190327
C77	C	2.186025	-0.417025	0.032343
C78	C	2.346647	-0.410292	0.040335
H79	H	2.238881	-0.529152	0.188558
H80	H	2.198164	-0.451752	0.304683
H81	H	2.157495	-0.438843	-0.081983
H82	H	2.116795	-0.361431	0.034081
H83	H	2.375196	-0.388477	0.154691
H84	H	2.415901	-0.465880	0.038569
H85	H	2.357800	-0.371922	-0.066844
H86	H	1.949300	-0.456825	0.316721
C87	C	1.854671	-0.405897	-0.361314
C88	C	1.860794	-0.318995	-0.365796
C89	C	1.766668	-0.270302	-0.530725
H90	H	1.745825	-0.410058	-0.360332
H91	H	1.895539	-0.427648	-0.471144
H92	H	1.819919	-0.297250	-0.255995
H93	H	1.969617	-0.314807	-0.366808
H94	H	1.807537	-0.292053	-0.640555
H95	H	1.657828	-0.274470	-0.529728
H96	H	1.770822	-0.211335	-0.533797
H97	H	2.084957	-0.451003	-0.193219
H98	H	2.119966	-0.618201	0.189981
H99	H	1.885862	-0.564318	-0.317478
H100	H	2.085861	-0.595786	-0.181076
