data_functionalizedCrystal
_audit_creation_method	'MofGen! by Chris Wilmer'
_symmetry_space_group_name_H-M	'P1'
_symmetry_Int_Tables_number	1
_symmetry_cell_setting	triclinic
loop_
_symmetry_equiv_pos_as_xyz
  x,y,z
_cell_length_a	12.759401
_cell_length_b	12.759400
_cell_length_c	12.759393
_cell_angle_alpha	89.969349
_cell_angle_beta	89.982620
_cell_angle_gamma	90.013326
loop_
_atom_site_label
_atom_site_type_symbol
_atom_site_fract_x
_atom_site_fract_y
_atom_site_fract_z
Zn1	Zn	1.606255	-0.418198	-0.593990
Zn2	Zn	1.606157	-0.593917	-0.418313
Zn3	Zn	1.430560	-0.418253	-0.418329
Zn4	Zn	1.430550	-0.593836	-0.593955
O5	O	1.518381	-0.506051	-0.506147
O6	O	1.753263	-0.441518	-0.570694
O7	O	1.582828	-0.570672	-0.271294
O8	O	1.453912	-0.271225	-0.441652
O9	O	1.753191	-0.570618	-0.441625
O10	O	1.582994	-0.271184	-0.570709
O11	O	1.453817	-0.441613	-0.271306
O12	O	1.283538	-0.441534	-0.441618
O13	O	1.453895	-0.570480	-0.740980
O14	O	1.283531	-0.570533	-0.570649
O15	O	1.582984	-0.441439	-0.741006
O16	O	1.582818	-0.740927	-0.441591
O17	O	1.453800	-0.740868	-0.570634
C18	C	1.245413	-0.506032	-0.506132
C19	C	1.128637	-0.506049	-0.506151
C20	C	1.073798	-0.573326	-0.573227
C21	C	0.964074	-0.573340	-0.573238
C22	C	0.964037	-0.438795	-0.439089
C23	C	1.073759	-0.438777	-0.439084
C24	C	1.073819	-0.651008	-0.650673
C25	C	0.964095	-0.651021	-0.650685
C26	C	1.518326	-0.779018	-0.506130
C27	C	1.518398	-0.895795	-0.506158
C28	C	1.585578	-0.950556	-0.573413
C29	C	1.585627	-1.060280	-0.573439
C30	C	1.451314	-1.060472	-0.438945
C31	C	1.451260	-0.950750	-0.438926
C32	C	1.663125	-0.950446	-0.651059
C33	C	1.663174	-1.060170	-0.651084
C34	C	1.792414	-0.506071	-0.506161
C35	C	1.909191	-0.506080	-0.506168
C36	C	1.518449	-0.505944	-0.780180
C37	C	1.518478	-0.505898	-0.896957
C38	C	1.518465	-0.232018	-0.506186
C39	C	1.518501	-0.115241	-0.506203
C40	C	1.451331	-0.438685	-0.951831
C41	C	1.451363	-0.438653	-1.061555
C42	C	1.585698	-0.573052	-1.061521
C43	C	1.585660	-0.573088	-0.951799
C44	C	1.373776	-0.361087	-0.951851
C45	C	1.373808	-0.361056	-1.061575
C46	C	1.518373	-0.506082	-0.233179
C47	C	1.518548	-0.505831	-0.116403
H48	H	0.934302	-0.732371	-0.628754
H49	H	1.396651	-1.105230	-0.384208
O50	O	1.385851	-0.897673	-0.373650
C51	C	1.207141	-0.864225	-0.322549
C52	C	1.281103	-0.924417	-0.396526
H53	H	1.122436	-0.885808	-0.341032
H54	H	1.225555	-0.885869	-0.237834
H55	H	1.218684	-0.776368	-0.334061
H56	H	1.269601	-1.012287	-0.385107
H57	H	1.262672	-0.902686	-0.481214
O58	O	1.650831	-0.638531	-0.898612
C59	C	1.701705	-0.817267	-0.864959
C60	C	1.627846	-0.743268	-0.925276
H61	H	1.683133	-0.901964	-0.886478
H62	H	1.786452	-0.798912	-0.886557
H63	H	1.690160	-0.805703	-0.777122
H64	H	1.639297	-0.754792	-1.013127
H65	H	1.543126	-0.761642	-0.903591
O66	O	1.109259	-0.625242	-0.747865
C67	C	1.112698	-0.669819	-0.931328
C68	C	1.072474	-0.699104	-0.821325
H69	H	1.082993	-0.729533	-0.990747
H70	H	1.082909	-0.588513	-0.953365
H71	H	1.202046	-0.669765	-0.931291
H72	H	0.983131	-0.699219	-0.821279
H73	H	1.102343	-0.780392	-0.799332
O74	O	1.281604	-0.395659	-1.102311
C75	C	1.132144	-0.355472	-1.210500
C76	C	1.236544	-0.316149	-1.164448
H77	H	1.095671	-0.291200	-1.260729
H78	H	1.147089	-0.427738	-1.260835
H79	H	1.076342	-0.376573	-1.143955
H80	H	1.292398	-0.294988	-1.230926
H81	H	1.221519	-0.243920	-1.114086
H82	H	1.395623	-0.279674	-1.091371
H83	H	1.292388	-0.382876	-0.922074
H84	H	1.402939	-0.283809	-0.917834
H85	H	1.641277	-0.920628	-0.732406
H86	H	1.740417	-0.916378	-0.621970
H87	H	1.640396	-0.627755	-1.106187
H88	H	1.633983	-1.094165	-0.728356
O89	O	0.923350	-0.616361	-0.742878
C90	C	0.766984	-0.579228	-0.842019
C91	C	0.812991	-0.618478	-0.737554
H92	H	0.677754	-0.580947	-0.837758
H93	H	0.794503	-0.495580	-0.857239
H94	H	0.794650	-0.632175	-0.908434
H95	H	0.785347	-0.565608	-0.671075
H96	H	0.785478	-0.702143	-0.722426
H97	H	0.919342	-0.384024	-0.384487
H98	H	1.744572	-1.089906	-0.629370
H99	H	1.118404	-0.383986	-0.384472
H100	H	1.107836	-0.728260	-0.621390
