data_functionalizedCrystal
_audit_creation_method	'MofGen! by Chris Wilmer'
_symmetry_space_group_name_H-M	'P1'
_symmetry_Int_Tables_number	1
_symmetry_cell_setting	triclinic
loop_
_symmetry_equiv_pos_as_xyz
  x,y,z
_cell_length_a	13.262533
_cell_length_b	13.339070
_cell_length_c	9.130313
_cell_angle_alpha	89.997998
_cell_angle_beta	105.913286
_cell_angle_gamma	99.431353
loop_
_atom_site_label
_atom_site_type_symbol
_atom_site_fract_x
_atom_site_fract_y
_atom_site_fract_z
O1	O	1.432358	0.136442	0.448797
O2	O	1.131104	0.151272	0.328788
O3	O	1.247157	-0.003553	0.375023
O4	O	1.316305	0.291266	0.402561
O5	O	1.247144	-0.003557	0.618617
O6	O	1.131091	0.151268	0.572381
O7	O	1.432346	0.136437	0.692391
Cu8	Cu	1.281718	0.143852	0.654628
Cu9	Cu	1.281732	0.143857	0.366550
O10	O	1.316293	0.291262	0.646155
C11	C	1.091752	0.150438	0.434911
C12	C	0.974513	0.147948	0.388207
C13	C	1.235470	-0.041293	0.492165
C14	C	1.200653	-0.153742	0.478289
C15	C	0.644004	0.140931	0.787691
C16	C	0.754157	0.143276	0.831579
C17	C	0.809251	0.144444	0.720740
C18	C	0.754182	0.143267	0.566004
C19	C	0.644020	0.140930	0.522112
C20	C	0.809267	0.144442	0.455161
C21	C	0.754198	0.143266	0.300426
C22	C	0.644047	0.140928	0.256542
C23	C	0.588952	0.139760	0.367381
C24	C	0.919430	0.146779	0.499054
C25	C	0.919446	0.146778	0.233475
C26	C	0.809293	0.144433	0.189587
C27	C	1.471371	-0.517392	0.586135
C28	C	1.504087	-0.411741	0.599182
C29	C	1.428231	-0.347237	0.568959
C30	C	1.319654	-0.388393	0.525689
C31	C	1.286936	-0.494054	0.512653
C32	C	1.243795	-0.323898	0.495477
C33	C	1.135219	-0.365054	0.452207
C34	C	1.102505	-0.470705	0.439171
C35	C	1.178361	-0.535210	0.469394
C36	C	1.276514	-0.218237	0.508513
C37	C	1.092078	-0.194898	0.435031
C38	C	1.059363	-0.300549	0.421984
C39	C	1.471697	0.137271	0.586265
C40	C	1.588936	0.139762	0.632959
C41	C	1.327980	0.329003	0.529010
C42	C	1.362797	0.441451	0.542876
N43	N	1.281715	0.143848	0.857250
N44	N	1.281741	0.143854	0.163931
C45	C	1.333135	0.075320	0.954388
C46	C	1.333145	0.075320	1.107729
C47	C	1.230314	0.212384	1.066780
C48	C	1.230298	0.212379	0.913439
H49	H	0.964256	0.147740	0.625040
Br50	Br	1.423863	-0.162395	0.567239
H51	H	0.499255	0.137841	0.331654
Br52	Br	1.402927	-0.017690	1.239555
Br53	Br	1.160538	0.305389	1.143044
Br54	Br	1.651434	-0.355893	0.657872
Br55	Br	0.994209	0.148376	0.083041
H56	H	0.764440	0.143476	0.063599
Br57	Br	1.402913	-0.017688	0.878135
H58	H	1.188420	0.268182	0.834341
Br59	Br	0.955151	-0.526558	0.380475
Br60	Br	0.958747	0.147626	0.780305
Br61	Br	1.574305	-0.604936	0.627181
Br62	Br	0.569233	0.139366	0.938098
Br63	Br	1.133964	-0.678600	0.451491
Br64	Br	0.989124	-0.107365	0.394028
Br65	Br	0.912012	-0.356416	0.363253
H66	H	1.454875	-0.261212	0.579585
H67	H	0.599214	0.139981	0.130547
H68	H	0.798986	0.144233	0.957564
