data_functionalizedCrystal
_audit_creation_method	'MofGen! by Chris Wilmer'
_symmetry_space_group_name_H-M	'P1'
_symmetry_Int_Tables_number	1
_symmetry_cell_setting	triclinic
loop_
_symmetry_equiv_pos_as_xyz
  x,y,z
_cell_length_a	9.065215
_cell_length_b	12.837942
_cell_length_c	7.540329
_cell_angle_alpha	89.996889
_cell_angle_beta	89.997574
_cell_angle_gamma	89.921819
loop_
_atom_site_label
_atom_site_type_symbol
_atom_site_fract_x
_atom_site_fract_y
_atom_site_fract_z
O1	O	1.978904	0.152182	-0.147461
O2	O	1.551137	0.164669	-0.147469
O3	O	1.755535	0.007434	-0.147454
O4	O	1.774506	0.309417	-0.147476
O5	O	1.755522	0.007432	0.147511
O6	O	1.551123	0.164667	0.147496
O7	O	1.978890	0.152180	0.147504
Cu8	Cu	1.765005	0.158423	0.174433
Cu9	Cu	1.765022	0.158426	-0.174398
O10	O	1.774492	0.309415	0.147489
C11	C	1.495998	0.163468	0.000013
C12	C	1.331718	0.159882	0.000010
C13	C	1.749120	-0.031248	0.000027
C14	C	1.730007	-0.146505	0.000024
C15	C	1.959783	-0.385307	-0.000009
C16	C	1.941832	-0.493601	-0.000012
C17	C	1.676153	-0.471389	0.000001
C18	C	1.694104	-0.363095	0.000005
C19	C	1.835924	-0.320058	0.000002
C20	C	1.853875	-0.211762	0.000018
C21	C	1.588197	-0.189552	0.000019
C22	C	1.570245	-0.297846	0.000016
C23	C	2.034030	0.153380	0.000019
C24	C	2.198309	0.156966	0.000010
C25	C	1.780907	0.348097	0.000004
C26	C	1.800021	0.463353	-0.000004
N27	N	1.765005	0.158421	0.419781
N28	N	1.765033	0.158420	-0.419746
H29	H	1.969351	-0.176724	0.000023
H30	H	1.454779	-0.332902	0.000011
H31	H	1.487342	-0.136414	0.000042
Br32	Br	2.152246	-0.326894	0.000043
H33	H	1.560689	-0.506449	-0.000016
Br34	Br	2.109933	-0.582152	-0.000039
