data_functionalizedCrystal
_audit_creation_method	'MofGen! by Chris Wilmer'
_symmetry_space_group_name_H-M	'P1'
_symmetry_Int_Tables_number	1
_symmetry_cell_setting	triclinic
loop_
_symmetry_equiv_pos_as_xyz
  x,y,z
_cell_length_a	19.188931
_cell_length_b	11.792241
_cell_length_c	18.266242
_cell_angle_alpha	90.006463
_cell_angle_beta	89.992492
_cell_angle_gamma	96.330902
loop_
_atom_site_label
_atom_site_type_symbol
_atom_site_fract_x
_atom_site_fract_y
_atom_site_fract_z
O1	O	0.926952	-0.141695	-0.060855
O2	O	1.426952	0.358305	0.439145
O3	O	0.723749	-0.160770	-0.060862
O4	O	1.223749	0.339230	0.439138
O5	O	0.830281	0.014012	-0.060853
O6	O	1.330281	0.514012	0.439147
O7	O	0.820419	-0.316477	-0.060864
O8	O	1.320419	0.183523	0.439136
O9	O	0.830263	0.014021	0.060909
O10	O	1.330263	0.514021	0.560909
O11	O	0.723730	-0.160761	0.060900
O12	O	1.223730	0.339239	0.560900
O13	O	0.926934	-0.141686	0.060907
O14	O	1.426934	0.358314	0.560907
Zn15	Zn	0.825329	-0.151222	0.080236
Zn16	Zn	1.325329	0.348778	0.580236
Zn17	Zn	0.825353	-0.151234	-0.080191
Zn18	Zn	1.325353	0.348766	0.419809
O19	O	0.820401	-0.316468	0.060898
O20	O	1.320401	0.183532	0.560898
C21	C	0.697725	-0.160148	0.000018
C22	C	1.197725	0.339852	0.500018
C23	C	0.620210	-0.158293	0.000015
C24	C	1.120210	0.341707	0.500015
C25	C	0.829653	0.056298	0.000028
C26	C	1.329653	0.556298	0.500028
C27	C	0.827798	0.182284	0.000027
C28	C	1.327798	0.682284	0.500027
C29	C	0.952957	-0.142309	0.000025
C30	C	1.452957	0.357691	0.500025
C31	C	1.030472	-0.144163	0.000023
C32	C	1.530472	0.355837	0.500023
C33	C	1.074815	-0.041607	0.000020
C34	C	1.574815	0.458393	0.500020
C35	C	1.147649	-0.043349	0.000025
C36	C	1.647649	0.456651	0.500025
C37	C	1.176136	-0.147653	0.000017
C38	C	1.676136	0.352347	0.500017
C39	C	1.131783	-0.250222	0.000024
C40	C	1.631783	0.249778	0.500024
C41	C	1.058951	-0.248477	0.000027
C42	C	1.558951	0.251523	0.500027
N43	N	1.284589	-0.227383	-0.041435
N44	N	1.784589	0.272617	0.458565
N45	N	1.353777	-0.229034	-0.041440
N46	N	1.853777	0.270966	0.458560
C47	C	1.395575	-0.152916	0.000010
C48	C	1.895575	0.347084	0.500010
N49	N	1.365572	-0.075068	0.041455
N50	N	1.865572	0.424932	0.541455
N51	N	1.296378	-0.073414	0.041456
N52	N	1.796378	0.426586	0.541456
C53	C	1.255110	-0.149556	0.000014
C54	C	1.755110	0.350444	0.500014
C55	C	1.518893	-0.052242	0.000013
C56	C	2.018893	0.447758	0.500013
C57	C	1.591728	-0.053988	0.000021
C58	C	2.091728	0.446012	0.500021
C59	C	1.575861	-0.260865	0.000014
C60	C	2.075861	0.239135	0.500014
C61	C	1.503027	-0.259116	0.000012
C62	C	2.003027	0.240884	0.500012
C63	C	1.474548	-0.154801	0.000008
C64	C	1.974548	0.345199	0.500008
C65	C	0.821029	-0.358754	0.000016
C66	C	1.321029	0.141246	0.500016
C67	C	0.822884	-0.484740	0.000012
C68	C	1.322884	0.015260	0.500012
N69	N	0.825318	-0.151214	0.189723
N70	N	1.325318	0.348786	0.689723
C71	C	0.824389	0.412945	0.000014
C72	C	1.324389	0.912945	0.500014
C73	C	0.826283	0.284588	0.000021
C74	C	1.326283	0.784588	0.500021
N75	N	0.825370	-0.151234	-0.189678
N76	N	1.325370	0.348766	0.310322
C77	C	0.872506	-0.073858	0.228036
C78	C	1.372506	0.426142	0.728036
C79	C	0.872511	-0.073853	0.304680
C80	C	1.372511	0.426147	0.804680
C81	C	0.825333	-0.151222	0.343010
C82	C	1.325333	0.348778	0.843010
C83	C	0.778136	-0.228584	0.304688
C84	C	1.278136	0.271416	0.804688
C85	C	0.778128	-0.228579	0.228044
C86	C	1.278128	0.271421	0.728044
N87	N	0.816827	-0.251692	0.463339
N88	N	1.316827	0.248308	0.963339
N89	N	0.816838	-0.251693	0.536147
N90	N	1.316838	0.248307	1.036147
C91	C	0.825353	-0.151239	0.573932
C92	C	1.325353	0.348761	1.073932
N93	N	0.833869	-0.050781	0.536159
N94	N	1.333869	0.449219	1.036159
N95	N	0.833861	-0.050781	0.463344
N96	N	1.333861	0.449219	0.963344
C97	C	0.825336	-0.151235	0.426117
C98	C	1.325336	0.348765	0.926117
C99	C	0.872549	-0.073871	0.695352
C100	C	1.372549	0.426129	1.195352
C101	C	0.872548	-0.073864	0.771998
C102	C	1.372548	0.426136	1.271998
C103	C	0.778177	-0.228605	0.772004
C104	C	1.278177	0.271395	1.272004
C105	C	0.778174	-0.228602	0.695359
C106	C	1.278174	0.271398	1.195359
C107	C	0.825364	-0.151237	0.657038
C108	C	1.325364	0.348763	1.157038
H109	H	1.051633	0.043334	0.000019
H110	H	1.551633	0.543334	0.500019
H111	H	0.739701	-0.291573	0.196849
H112	H	1.239701	0.208427	0.696849
C113	C	0.924410	0.011258	0.185887
C114	C	1.424410	0.511258	0.685887
N115	N	0.963501	0.075372	0.154139
N116	N	1.463501	0.575372	0.654139
C117	C	1.640506	0.058838	0.000021
C118	C	2.140506	0.558838	0.500021
N119	N	1.677246	0.143821	0.000019
N120	N	2.177246	0.643821	0.500019
C121	C	0.924451	0.011242	0.653196
C122	C	1.424451	0.511242	1.153196
N123	N	0.963544	0.075353	0.621446
N124	N	1.463544	0.575353	1.121446
C125	C	1.454248	-0.371937	0.000014
C126	C	1.954248	0.128063	0.500014
N127	N	1.417507	-0.456920	0.000020
N128	N	1.917507	0.043080	0.500020
C129	C	0.924450	0.011257	0.814142
C130	C	1.424450	0.511257	1.314142
N131	N	0.963541	0.075377	0.845886
N132	N	1.463541	0.575377	1.345886
H133	H	1.183760	0.040167	0.000020
H134	H	1.683760	0.540167	0.500020
H135	H	0.910938	-0.010858	0.335881
H136	H	1.410938	0.489142	0.835881
C137	C	1.487563	0.062505	0.000017
C138	C	1.987563	0.562505	0.500017
N139	N	1.463968	0.148933	0.000021
N140	N	1.963968	0.648933	0.500021
C141	C	0.726282	-0.313714	0.814162
C142	C	1.226282	0.186286	1.314162
N143	N	0.687192	-0.377820	0.845918
N144	N	1.187192	0.122180	1.345918
C145	C	0.726238	-0.313686	0.346851
C146	C	1.226238	0.186314	0.846851
N147	N	0.687144	-0.377783	0.378609
N148	N	1.187144	0.122217	0.878609
H149	H	1.022847	-0.331994	0.000030
H150	H	1.522847	0.168006	0.500030
H151	H	0.739752	-0.291597	0.664163
H152	H	1.239752	0.208403	1.164163
H153	H	1.154983	-0.335147	0.000020
H154	H	1.654983	0.164853	0.500020
H155	H	1.599054	-0.345791	0.000013
H156	H	2.099054	0.154209	0.500013
