data_functionalizedCrystal
_audit_creation_method	'MofGen! by Chris Wilmer'
_symmetry_space_group_name_H-M	'P1'
_symmetry_Int_Tables_number	1
_symmetry_cell_setting	triclinic
loop_
_symmetry_equiv_pos_as_xyz
  x,y,z
_cell_length_a	33.592126
_cell_length_b	33.591377
_cell_length_c	33.588093
_cell_angle_alpha	60.004089
_cell_angle_beta	60.008299
_cell_angle_gamma	59.994549
loop_
_atom_site_label
_atom_site_type_symbol
_atom_site_fract_x
_atom_site_fract_y
_atom_site_fract_z
O1	O	0.055297	-0.581666	0.486338
O2	O	0.555297	-0.081666	0.986338
O3	O	0.020882	-0.452873	0.391864
O4	O	0.520882	0.047127	0.891864
O5	O	0.102445	-0.534352	0.391775
O6	O	0.602445	-0.034352	0.891775
O7	O	-0.026266	-0.500187	0.486427
O8	O	0.473734	-0.000187	0.986427
O9	O	0.129510	-0.507292	0.418747
O10	O	0.629510	-0.007292	0.918747
O11	O	0.047947	-0.425814	0.418835
O12	O	0.547947	0.074186	0.918835
O13	O	0.082362	-0.554606	0.513309
O14	O	0.582362	-0.054606	1.013309
Cu15	Cu	0.067626	-0.487739	0.468535
Cu16	Cu	0.567626	0.012261	0.968535
Cu17	Cu	0.035618	-0.519740	0.436638
Cu18	Cu	0.535618	-0.019740	0.936638
O19	O	0.000799	-0.473128	0.513398
O20	O	0.500799	0.026872	1.013398
N21	N	0.090139	-0.465235	0.490972
N22	N	0.590139	0.034765	0.990972
N23	N	0.013110	-0.542249	0.414202
N24	N	0.513110	-0.042249	0.914202
C25	C	0.124394	-0.431229	0.734914
C26	C	0.624394	0.068771	1.234914
C27	C	0.334265	-0.431145	0.524799
C28	C	0.834265	0.068855	1.024799
C29	C	0.124204	-0.431200	0.524965
C30	C	0.624204	0.068800	1.024965
C31	C	0.124184	-0.221175	0.524955
C32	C	0.624184	0.278825	1.024955
C33	C	0.158017	-0.322536	0.558710
C34	C	0.658017	0.177464	1.058710
C35	C	0.158027	-0.397406	0.558711
C36	C	0.658027	0.102594	1.058711
C37	C	0.176763	-0.378688	0.577408
C38	C	0.676763	0.121312	1.077408
C39	C	0.258412	-0.364594	0.534386
C40	C	0.758412	0.135406	1.034386
C41	C	0.309454	-0.381596	0.517340
C42	C	0.809454	0.118404	1.017340
C43	C	0.309485	-0.464188	0.548836
C44	C	0.809485	0.035812	1.048836
C45	C	0.258444	-0.447186	0.565883
C46	C	0.758444	0.052814	1.065883
C47	C	0.170304	-0.297002	0.508532
C48	C	0.670304	0.202998	1.008532
C49	C	0.153260	-0.245956	0.491537
C50	C	0.653260	0.254044	0.991537
C51	C	0.111648	-0.245983	0.574901
C52	C	0.611648	0.254017	1.074901
C53	C	0.128691	-0.297029	0.591896
C54	C	0.628691	0.202971	1.091896
C55	C	0.107841	-0.385091	0.571080
C56	C	0.607841	0.114909	1.071080
C57	C	0.090813	-0.402108	0.554078
C58	C	0.590813	0.097892	1.054078
C59	C	0.174153	-0.443755	0.512351
C60	C	0.674153	0.056245	1.012351
C61	C	0.191183	-0.426739	0.529347
C62	C	0.691183	0.073261	1.029347
C63	C	0.107923	-0.385106	0.659111
C64	C	0.607923	0.114894	1.159111
C65	C	0.090955	-0.402138	0.710156
C66	C	0.590955	0.097862	1.210156
C67	C	0.174335	-0.443795	0.710087
C68	C	0.674335	0.056205	1.210087
C69	C	0.191302	-0.426764	0.659041
C70	C	0.691302	0.073236	1.159041
C71	C	0.158095	-0.397418	0.633555
C72	C	0.658095	0.102582	1.133555
C73	C	0.232909	-0.397388	0.558656
C74	C	0.732909	0.102612	1.058656
C75	C	0.105069	-0.449619	0.791057
C76	C	0.605069	0.050381	1.291057
C77	C	0.390406	-0.449193	0.505789
C78	C	0.890406	0.050807	1.005789
C79	C	0.104813	-0.449599	0.506607
C80	C	0.604813	0.050401	1.006607
C81	C	0.105125	-0.165028	0.506915
C82	C	0.605125	0.334972	1.006915
C83	C	-0.020560	-0.576246	0.169890
C84	C	0.479440	-0.076246	0.669890
C85	C	-0.020889	-0.786183	0.379970
C86	C	0.479111	-0.286183	0.879970
C87	C	-0.020859	-0.576235	0.380063
C88	C	0.479141	-0.076235	0.880063
C89	C	-0.230772	-0.576015	0.379658
C90	C	0.269228	-0.076015	0.879658
C91	C	-0.129417	-0.609898	0.346025
C92	C	0.370583	-0.109898	0.846025
C93	C	-0.054587	-0.609979	0.346172
C94	C	0.445413	-0.109979	0.846172
C95	C	-0.073269	-0.628671	0.327396
C96	C	0.426731	-0.128671	0.827396
C97	C	-0.087401	-0.710299	0.370335
C98	C	0.412599	-0.210299	0.870335
C99	C	-0.070424	-0.761345	0.387369
C100	C	0.429576	-0.261345	0.887369
C101	C	0.012165	-0.761428	0.356003
C102	C	0.512165	-0.261428	0.856003
C103	C	-0.004813	-0.710383	0.338967
C104	C	0.495187	-0.210383	0.838967
C105	C	-0.155001	-0.622196	0.396191
C106	C	0.344999	-0.122196	0.896191
C107	C	-0.206043	-0.605128	0.413125
C108	C	0.293957	-0.105128	0.913125
C109	C	-0.205914	-0.563467	0.329724
C110	C	0.294086	-0.063467	0.829724
C111	C	-0.154872	-0.580535	0.312790
C112	C	0.345128	-0.080535	0.812790
C113	C	-0.066886	-0.559797	0.333828
C114	C	0.433114	-0.059797	0.833828
C115	C	-0.049903	-0.542809	0.350903
C116	C	0.450097	-0.042809	0.850903
C117	C	-0.008321	-0.626180	0.392654
C118	C	0.491679	-0.126180	0.892654
C119	C	-0.025304	-0.643170	0.375585
C120	C	0.474696	-0.143170	0.875585
C121	C	-0.066758	-0.559805	0.245702
C122	C	0.433242	-0.059805	0.745702
C123	C	-0.049671	-0.542819	0.194658
C124	C	0.450329	-0.042819	0.694658
C125	C	-0.008026	-0.626194	0.194706
C126	C	0.491974	-0.126194	0.694706
C127	C	-0.025111	-0.643179	0.245752
C128	C	0.474889	-0.143179	0.745752
C129	C	-0.054479	-0.609983	0.271248
C130	C	0.445521	-0.109983	0.771248
C131	C	-0.054597	-0.684821	0.346135
C132	C	0.445403	-0.184821	0.846135
C133	C	-0.002109	-0.556901	0.113746
C134	C	0.497891	-0.056901	0.613746
C135	C	-0.002869	-0.842328	0.398966
C136	C	0.497131	-0.342328	0.898966
C137	C	-0.002496	-0.556887	0.398501
C138	C	0.497504	-0.056887	0.898501
C139	C	-0.286914	-0.556929	0.397631
C140	C	0.213086	-0.056929	0.897631
N141	N	0.436349	-0.465146	0.490703
N142	N	0.936349	0.034854	0.990703
O143	O	0.592194	-0.469605	0.374236
O144	O	1.092194	0.030395	0.874236
O145	O	0.592389	-0.564393	0.502890
O146	O	1.092389	-0.064393	1.002890
O147	O	0.592305	-0.564176	0.421300
O148	O	1.092305	-0.064176	0.921300
O149	O	0.592277	-0.469822	0.455826
O150	O	1.092277	0.030178	0.955826
O151	O	0.511216	-0.537214	0.448415
O152	O	1.011216	-0.037214	0.948415
O153	O	0.511300	-0.537431	0.530004
O154	O	1.011300	-0.037431	1.030004
O155	O	0.511104	-0.442643	0.401350
O156	O	1.011104	0.057357	0.901350
Cu157	Cu	0.503798	-0.487575	0.468153
Cu158	Cu	1.003798	0.012425	0.968153
Cu159	Cu	0.599695	-0.519461	0.436087
Cu160	Cu	1.099695	-0.019461	0.936087
O161	O	0.511188	-0.442860	0.482940
O162	O	1.011188	0.057140	0.982940
N163	N	0.667145	-0.541890	0.413532
N164	N	1.167145	-0.041890	0.913532
N165	N	0.090108	-0.119085	0.490958
N166	N	0.590108	0.380915	0.990958
O167	O	-0.026275	0.036848	0.486394
O168	O	0.473725	0.536848	0.986394
O169	O	0.102381	0.036888	0.391584
O170	O	0.602381	0.536888	0.891584
O171	O	0.020751	0.036852	0.391854
O172	O	0.520751	0.536852	0.891854
O173	O	0.055356	0.036884	0.486124
O174	O	0.555356	0.536884	0.986124
O175	O	0.047821	-0.044242	0.418876
O176	O	0.547821	0.455758	0.918876
O177	O	0.129452	-0.044207	0.418606
O178	O	0.629452	0.455793	0.918606
O179	O	0.000796	-0.044246	0.513417
O180	O	0.500796	0.455754	1.013417
Cu181	Cu	0.067596	-0.051631	0.468479
Cu182	Cu	0.567596	0.448369	0.968479
Cu183	Cu	0.035582	0.044273	0.436522
Cu184	Cu	0.535582	0.544273	0.936522
O185	O	0.082426	-0.044211	0.513146
O186	O	0.582426	0.455789	1.013146
N187	N	0.013063	0.111726	0.414043
N188	N	0.513063	0.611726	0.914043
N189	N	0.090453	-0.465282	0.837001
N190	N	0.590453	0.034718	1.337001
O191	O	0.085913	-0.581648	0.992925
O192	O	0.585913	-0.081648	1.492925
O193	O	-0.008857	-0.452947	0.992970
O194	O	0.491143	0.047053	1.492970
O195	O	-0.008635	-0.534562	0.992946
O196	O	0.491365	-0.034562	1.492946
O197	O	0.085691	-0.500033	0.992949
O198	O	0.585691	-0.000033	1.492949
O199	O	0.018365	-0.507512	0.911855
O200	O	0.518365	-0.007512	1.411855
O201	O	0.018143	-0.425898	0.911878
O202	O	0.518143	0.074102	1.411878
O203	O	0.112912	-0.554598	0.911834
O204	O	0.612912	-0.054598	1.411834
Cu205	Cu	0.067993	-0.487778	0.904452
Cu206	Cu	0.567993	0.012222	1.404452
Cu207	Cu	0.036063	-0.519767	1.000352
Cu208	Cu	0.536063	-0.019767	1.500352
O209	O	0.112691	-0.472984	0.911857
O210	O	0.612691	0.027016	1.411857
N211	N	0.013602	-0.542269	1.067803
N212	N	0.513602	-0.042269	1.567803
C213	C	0.031188	-0.423114	0.392334
C214	C	0.531188	0.076886	0.892334
C215	C	0.132194	-0.524016	0.392223
C216	C	0.632194	-0.024016	0.892223
C217	C	0.072056	-0.584366	0.512840
C218	C	0.572056	-0.084366	1.012840
C219	C	-0.028950	-0.483464	0.512950
C220	C	0.471050	0.016536	1.012950
C221	C	0.551868	-0.563965	0.532655
C222	C	1.051868	-0.063965	1.032655
C223	C	0.551766	-0.563697	0.431617
C224	C	1.051766	-0.063697	0.931617
C225	C	0.551623	-0.443070	0.371586
C226	C	1.051623	0.056930	0.871586
C227	C	0.551728	-0.443339	0.472623
C228	C	1.051728	0.056661	0.972623
C229	C	0.132090	-0.003555	0.392006
C230	C	0.632090	0.496445	0.892006
C231	C	0.031035	-0.003698	0.392374
C232	C	0.531035	0.496302	0.892374
C233	C	-0.028947	-0.003703	0.512961
C234	C	0.471053	0.496297	1.012961
C235	C	0.072143	-0.003661	0.512626
C236	C	0.572143	0.496339	1.012626
C237	C	-0.008408	-0.423209	0.952430
C238	C	0.491592	0.076791	1.452430
C239	C	-0.008128	-0.524272	0.952385
C240	C	0.491872	-0.024272	1.452385
C241	C	0.112464	-0.584336	0.952374
C242	C	0.612464	-0.084336	1.452374
C243	C	0.112190	-0.483267	0.952401
C244	C	0.612190	0.016733	1.452401
H245	H	0.050098	-0.392105	0.730957
H246	H	0.550098	0.107895	1.230957
H247	H	0.142219	-0.621297	0.952354
H248	H	0.642219	-0.121297	1.452354
O249	O	-0.043406	-0.533142	0.952322
O250	O	0.456594	-0.033142	1.452322
C251	C	-0.025643	-0.581071	0.952305
C252	C	0.474357	-0.081071	1.452305
H253	H	0.015888	-0.593907	0.936971
H254	H	0.515888	-0.093907	1.436971
H255	H	-0.040472	-0.581759	0.928733
H256	H	0.459528	-0.081759	1.428733
H257	H	-0.037982	-0.606305	0.991198
H258	H	0.462018	-0.106305	1.491198
H259	H	-0.090673	-0.532769	0.266460
H260	H	0.409327	-0.032769	0.766460
H261	H	0.169160	-0.531297	0.362501
H262	H	0.669160	-0.031297	0.862501
O263	O	0.022187	-0.003625	0.357000
O264	O	0.522187	0.496375	0.857000
C265	C	0.027579	0.038370	0.315874
C266	C	0.527579	0.538370	0.815874
H267	H	0.022306	0.067734	0.327529
H268	H	0.522306	0.567734	0.827529
H269	H	-0.000847	0.052452	0.298606
H270	H	0.499153	0.552452	0.798606
H271	H	0.065638	0.028882	0.288233
H272	H	0.565638	0.528882	0.788233
O273	O	0.080943	-0.003720	0.548025
O274	O	0.580943	0.496280	1.048025
C275	C	0.075570	-0.045732	0.589133
C276	C	0.575570	0.454268	1.089133
H277	H	0.051112	-0.059745	0.588766
H278	H	0.551112	0.440255	1.088766
H279	H	0.058387	-0.036290	0.623739
H280	H	0.558387	0.463710	1.123739
H281	H	0.112866	-0.075132	0.588136
H282	H	0.612866	0.424868	1.088136
O283	O	0.551465	-0.407520	0.327546
O284	O	1.051465	0.092480	0.827546
C285	C	0.509448	-0.366458	0.334021
C286	C	1.009448	0.133542	0.834021
H287	H	0.480137	-0.378242	0.369742
H288	H	0.980137	0.121758	0.869742
H289	H	0.495303	-0.349009	0.302419
H290	H	0.995303	0.150991	0.802419
H291	H	0.518927	-0.338921	0.335138
H292	H	1.018927	0.161079	0.835138
H293	H	0.551722	-0.413701	0.480010
H294	H	1.051722	0.086299	0.980010
H295	H	0.551779	-0.593338	0.424228
H296	H	1.051779	-0.093338	0.924228
O297	O	0.147559	-0.474403	0.952307
O298	O	0.647559	0.025597	1.452307
C299	C	0.158727	-0.434905	0.910321
C300	C	0.658727	0.065095	1.410321
H301	H	0.148004	-0.431063	0.880971
H302	H	0.648004	0.068937	1.380971
H303	H	0.199521	-0.441767	0.896213
H304	H	0.699521	0.058233	1.396213
H305	H	0.137689	-0.399946	0.919829
H306	H	0.637689	0.100054	1.419829
O307	O	0.075597	-0.356622	0.634430
O308	O	0.575597	0.143378	1.134430
C309	C	0.027675	-0.349394	0.667932
C310	C	0.527675	0.150606	1.167932
H311	H	0.027802	-0.380175	0.704308
H312	H	0.527802	0.119825	1.204308
H313	H	0.003420	-0.349130	0.653209
H314	H	0.503420	0.150870	1.153209
H315	H	0.013050	-0.313034	0.673369
H316	H	0.513050	0.186966	1.173369
H317	H	0.079411	-0.621363	0.542512
H318	H	0.579411	-0.121363	1.042512
H319	H	0.168963	-0.003318	0.362168
H320	H	0.668963	0.496682	0.862168
O321	O	-0.073070	-0.474695	0.548364
O322	O	0.426930	0.025305	1.048364
C323	C	-0.103382	-0.426792	0.530743
C324	C	0.396618	0.073208	1.030743
H325	H	-0.079910	-0.403631	0.499423
H326	H	0.420090	0.096369	0.999423
H327	H	-0.126733	-0.410469	0.561344
H328	H	0.373267	0.089531	1.061344
H329	H	-0.128014	-0.427538	0.517216
H330	H	0.371986	0.072462	1.017216
H331	H	-0.065895	-0.003715	0.542725
H332	H	0.434105	0.496285	1.042725
H333	H	0.551918	-0.593721	0.569607
H334	H	1.051918	-0.093721	1.069607
H335	H	-0.038161	-0.386246	0.952443
H336	H	0.461839	0.113754	1.452443
O337	O	0.020104	-0.658489	0.421234
O338	O	0.520104	-0.158489	0.921234
C339	C	0.027327	-0.706422	0.428452
C340	C	0.527327	-0.206422	0.928452
H341	H	-0.003423	-0.706297	0.422682
H342	H	0.496577	-0.206297	0.922682
H343	H	0.027534	-0.730648	0.467184
H344	H	0.527534	-0.230648	0.967184
H345	H	0.063710	-0.721080	0.401326
H346	H	0.563710	-0.221080	0.901326
O347	O	0.206660	-0.472305	0.734765
O348	O	0.706660	0.027695	1.234765
C349	C	0.254581	-0.479505	0.701260
C350	C	0.754581	0.020495	1.201260
H351	H	0.254454	-0.473798	0.664886
H352	H	0.754454	0.026202	1.164886
H353	H	0.278843	-0.518214	0.715983
H354	H	0.778843	-0.018214	1.215983
H355	H	0.269195	-0.452326	0.695818
H356	H	0.769195	0.047674	1.195818
H357	H	0.232159	-0.436796	0.638236
H358	H	0.732159	0.063204	1.138236
H359	H	0.049948	-0.392069	0.564138
H360	H	0.549948	0.107931	1.064138
O361	O	0.075679	-0.356538	0.599549
O362	O	0.575679	0.143462	1.099549
C363	C	0.082995	-0.311145	0.576341
C364	C	0.582995	0.188855	1.076341
H365	H	0.121716	-0.315243	0.549347
H366	H	0.621716	0.184757	1.049347
H367	H	0.077339	-0.298076	0.604835
H368	H	0.577339	0.201924	1.104835
H369	H	0.055848	-0.283409	0.556076
H370	H	0.555848	0.216591	1.056076
O371	O	0.206429	-0.472228	0.483817
O372	O	0.706429	0.027772	0.983817
C373	C	0.254374	-0.479459	0.476563
C374	C	0.754374	0.020541	0.976563
H375	H	0.254283	-0.448685	0.482265
H376	H	0.754283	0.051315	0.982265
H377	H	0.278580	-0.479714	0.437842
H378	H	0.778580	0.020286	0.937842
H379	H	0.269028	-0.515824	0.503713
H380	H	0.769028	-0.015824	1.003713
H381	H	0.232048	-0.436761	0.519270
H382	H	0.732048	0.063239	1.019270
O383	O	-0.013155	-0.691941	0.270490
O384	O	0.486845	-0.191941	0.770490
C385	C	0.016434	-0.717595	0.237039
C386	C	0.516434	-0.217595	0.737039
H387	H	0.009980	-0.693251	0.200622
H388	H	0.509980	-0.193251	0.700622
H389	H	0.006845	-0.751637	0.251764
H390	H	0.506845	-0.251637	0.751764
H391	H	0.056404	-0.728642	0.231680
H392	H	0.556404	-0.228642	0.731680
H393	H	0.237680	-0.473893	0.585645
H394	H	0.737680	0.026107	1.085645
H395	H	0.330277	-0.504737	0.554712
H396	H	0.830277	-0.004737	1.054712
H397	H	0.330218	-0.354891	0.497577
H398	H	0.830218	0.145109	0.997577
H399	H	0.194180	-0.317769	0.481510
H400	H	0.694180	0.182231	0.981510
O401	O	0.233663	-0.316202	0.527281
O402	O	0.733663	0.183798	1.027281
C403	C	0.246084	-0.289860	0.476884
C404	C	0.746084	0.210140	0.976884
H405	H	0.283137	-0.312156	0.456767
H406	H	0.783137	0.187844	0.956767
H407	H	0.247825	-0.253873	0.470136
H408	H	0.747825	0.246127	0.970136
H409	H	0.217336	-0.282250	0.462997
H410	H	0.717336	0.217750	0.962997
O411	O	0.165109	-0.221126	0.442796
O412	O	0.665109	0.278874	0.942796
C413	C	0.122197	-0.191598	0.430499
C414	C	0.622197	0.308402	0.930499
H415	H	0.091554	-0.206997	0.459292
H416	H	0.591554	0.293003	0.959292
H417	H	0.128892	-0.191007	0.393449
H418	H	0.628892	0.308993	0.893449
H419	H	0.111446	-0.152914	0.428814
H420	H	0.611446	0.347086	0.928814
O421	O	0.083153	-0.221278	0.607201
O422	O	0.583153	0.278722	1.107201
C423	C	0.075983	-0.254762	0.655136
C424	C	0.575983	0.245238	1.155136
H425	H	0.081691	-0.291150	0.655047
H426	H	0.581691	0.208850	1.155047
H427	H	0.037283	-0.240029	0.679396
H428	H	0.537283	0.259971	1.179396
H429	H	0.103174	-0.260181	0.669727
H430	H	0.603174	0.239819	1.169727
H431	H	0.118680	-0.317820	0.632757
H432	H	0.618680	0.182180	1.132757
H433	H	0.023834	-0.386116	0.362662
H434	H	0.523834	0.113884	0.862662
O435	O	-0.061693	-0.494067	0.169871
O436	O	0.438307	0.005933	0.669871
C437	C	-0.112811	-0.472828	0.182276
C438	C	0.387189	0.027172	0.682276
H439	H	-0.129274	-0.501869	0.196274
H440	H	0.370726	-0.001869	0.696274
H441	H	-0.122531	-0.442736	0.148677
H442	H	0.377469	0.057264	0.648677
H443	H	-0.127964	-0.456705	0.211907
H444	H	0.372036	0.043295	0.711907
O445	O	0.020423	-0.658422	0.169921
O446	O	0.520423	-0.158422	0.669921
C447	C	-0.002721	-0.651045	0.140323
C448	C	0.497279	-0.151045	0.640323
H449	H	-0.043641	-0.632476	0.155643
H450	H	0.456359	-0.132476	0.655643
H451	H	0.004376	-0.687710	0.139747
H452	H	0.504376	-0.187710	0.639747
H453	H	0.012385	-0.626986	0.101645
H454	H	0.512385	-0.126986	0.601645
H455	H	-0.090726	-0.532768	0.309877
H456	H	0.409274	-0.032768	0.809877
H457	H	-0.059919	-0.501948	0.340854
H458	H	0.440081	-0.001948	0.840854
H459	H	0.021903	-0.689639	0.319262
H460	H	0.521903	-0.189639	0.819262
O461	O	0.060543	-0.786187	0.348983
O462	O	0.560543	-0.286187	0.848983
C463	C	0.085857	-0.752752	0.323981
C464	C	0.585857	-0.252752	0.823981
H465	H	0.063631	-0.716355	0.303028
H466	H	0.563631	-0.216355	0.803028
H467	H	0.122681	-0.767534	0.297372
H468	H	0.622681	-0.267534	0.797372
H469	H	0.091729	-0.747332	0.351323
H470	H	0.591729	-0.247332	0.851323
O471	O	-0.013427	-0.691909	0.387598
O472	O	0.486573	-0.191909	0.887598
C473	C	-0.056320	-0.704213	0.413200
C474	C	0.443680	-0.204213	0.913200
H475	H	-0.086999	-0.675441	0.430475
H476	H	0.413001	-0.175441	0.930475
H477	H	-0.049625	-0.741281	0.442937
H478	H	0.450375	-0.241281	0.942937
H479	H	-0.067020	-0.705868	0.386892
H480	H	0.432980	-0.205868	0.886892
H481	H	-0.127938	-0.689491	0.376175
H482	H	0.372062	-0.189491	0.876175
O483	O	-0.102355	-0.786019	0.410854
O484	O	0.397645	-0.286019	0.910854
C485	C	-0.126241	-0.773545	0.379593
C486	C	0.373759	-0.273545	0.879593
H487	H	-0.124995	-0.736518	0.350500
H488	H	0.375005	-0.236518	0.850500
H489	H	-0.165824	-0.771719	0.401636
H490	H	0.334176	-0.271719	0.901636
H491	H	-0.107218	-0.802312	0.361366
H492	H	0.392782	-0.302312	0.861366
O493	O	-0.130326	-0.650766	0.428519
O494	O	0.369674	-0.150766	0.928519
C495	C	-0.142836	-0.693553	0.458006
C496	C	0.357164	-0.193553	0.958006
H497	H	-0.179880	-0.686669	0.458442
H498	H	0.320120	-0.186669	0.958442
H499	H	-0.144638	-0.704312	0.496737
H500	H	0.355362	-0.204312	0.996737
H501	H	-0.114105	-0.724277	0.442685
H502	H	0.385895	-0.224277	0.942685
O503	O	-0.230955	-0.617093	0.461847
O504	O	0.269045	-0.117093	0.961847
C505	C	-0.260478	-0.642758	0.474118
C506	C	0.239522	-0.142758	0.974118
H507	H	-0.268066	-0.633544	0.440441
H508	H	0.231934	-0.133544	0.940441
H509	H	-0.296400	-0.631863	0.503677
H510	H	0.203600	-0.131863	1.003677
H511	H	-0.240844	-0.683619	0.488160
H512	H	0.259156	-0.183619	0.988160
H513	H	-0.226640	-0.539563	0.302661
H514	H	0.273360	-0.039563	0.802661
H515	H	-0.134040	-0.570516	0.271939
H516	H	0.365960	-0.070516	0.771939
