data_functionalizedCrystal
_audit_creation_method	'MofGen! by Chris Wilmer'
_symmetry_space_group_name_H-M	'P1'
_symmetry_Int_Tables_number	1
_symmetry_cell_setting	triclinic
loop_
_symmetry_equiv_pos_as_xyz
  x,y,z
_cell_length_a	18.050591
_cell_length_b	25.639239
_cell_length_c	18.050582
_cell_angle_alpha	89.974655
_cell_angle_beta	89.978183
_cell_angle_gamma	90.034692
loop_
_atom_site_label
_atom_site_type_symbol
_atom_site_fract_x
_atom_site_fract_y
_atom_site_fract_z
Zn1	Zn	1.135245	-0.208236	-0.420021
Zn2	Zn	1.135131	-0.295665	-0.295826
Zn3	Zn	1.011062	-0.208239	-0.295832
Zn4	Zn	1.010990	-0.295636	-0.419962
O5	O	1.073107	-0.251944	-0.357910
O6	O	1.239155	-0.219844	-0.403568
O7	O	1.118656	-0.284081	-0.191902
O8	O	1.027614	-0.135074	-0.312333
O9	O	1.239071	-0.284078	-0.312323
O10	O	1.118850	-0.135071	-0.403574
O11	O	1.027503	-0.219850	-0.191906
O12	O	0.907128	-0.219822	-0.312276
O13	O	1.027490	-0.284029	-0.523894
O14	O	0.907075	-0.284032	-0.403473
O15	O	1.118780	-0.219817	-0.523938
O16	O	1.118585	-0.368826	-0.312266
O17	O	1.027379	-0.368805	-0.403468
C18	C	0.880155	-0.251925	-0.357869
C19	C	0.797609	-0.251929	-0.357869
C20	C	0.598166	-0.216971	-0.308390
C21	C	0.548734	-0.264659	-0.290112
C22	C	0.646479	-0.251945	-0.357903
C23	C	0.548829	-0.204274	-0.376179
C24	C	0.500494	-0.251956	-0.357934
C25	C	0.598134	-0.299658	-0.339589
C26	C	0.598234	-0.239240	-0.425688
C27	C	0.548824	-0.286961	-0.407435
C28	C	0.730577	-0.251938	-0.357883
C29	C	0.416397	-0.251968	-0.357954
C30	C	1.072982	-0.387787	-0.357876
C31	C	1.072997	-0.445901	-0.357886
C32	C	1.120722	-0.806262	-0.310502
C33	C	1.120751	-0.860866	-0.310512
O34	O	1.161199	-0.889102	-0.270187
N35	N	1.073238	-0.888183	-0.357959
C36	C	1.025698	-0.860893	-0.405405
O37	O	0.985287	-0.889142	-0.445764
C38	C	1.025673	-0.806289	-0.405398
C39	C	1.073184	-0.778976	-0.357943
C40	C	1.168230	-0.778948	-0.263051
C41	C	1.168200	-0.724348	-0.263040
C42	C	1.120662	-0.697061	-0.310481
C43	C	1.073154	-0.724375	-0.357932
C44	C	0.978138	-0.779000	-0.452847
C45	C	0.978118	-0.724393	-0.452837
C46	C	1.025629	-0.697079	-0.405381
C47	C	1.025587	-0.642488	-0.405362
N48	N	1.073100	-0.615171	-0.357914
C49	C	1.120638	-0.642458	-0.310474
C50	C	1.025754	-0.975563	-0.405416
C51	C	1.025774	-1.030166	-0.405420
C52	C	1.120828	-1.030136	-0.310528
C53	C	1.120804	-0.975532	-0.310521
C54	C	1.073267	-0.948247	-0.357969
C55	C	1.120571	-0.527793	-0.310455
C56	C	1.120534	-0.473187	-0.310446
C57	C	1.025483	-0.473222	-0.405340
C58	C	1.025516	-0.527823	-0.405347
C59	C	1.073066	-0.555107	-0.357901
O60	O	0.985161	-0.614218	-0.445668
O61	O	1.161048	-0.614202	-0.270129
C62	C	1.266813	-0.251964	-0.357952
C63	C	1.349358	-0.251973	-0.357970
C64	C	1.073139	-0.251919	-0.551616
C65	C	1.073153	-0.251909	-0.634162
C66	C	1.073253	-0.115571	-0.357961
C67	C	1.073315	-0.057457	-0.357982
C68	C	1.023556	-0.286770	-0.882964
C69	C	1.005428	-0.239081	-0.833577
C70	C	1.073216	-0.251832	-0.931282
C71	C	1.091277	-0.299556	-0.833588
C72	C	1.073183	-0.251872	-0.785297
C73	C	1.055053	-0.204117	-0.882982
C74	C	1.140934	-0.264624	-0.882998
C75	C	1.122832	-0.216902	-0.833633
C76	C	1.073233	-0.251809	-1.015381
C77	C	1.073166	-0.251889	-0.701200
C78	C	1.073118	-0.251931	-0.164958
C79	C	1.073248	-0.251794	-0.082413
H80	H	1.159223	-0.450950	-0.271799
O81	O	1.166847	-0.554310	-0.264477
C82	C	1.267152	-0.615895	-0.254598
C83	C	1.214800	-0.585891	-0.306752
H84	H	1.305924	-0.641443	-0.288756
H85	H	1.301150	-0.587004	-0.220706
H86	H	1.233095	-0.641477	-0.215710
H87	H	1.248799	-0.560307	-0.345685
H88	H	1.180799	-0.614809	-0.340592
O89	O	1.214430	-0.697900	-0.216926
C90	C	1.308692	-0.703653	-0.122788
C91	C	1.256379	-0.733666	-0.174985
H92	H	1.342610	-0.732557	-0.088854
H93	H	1.347541	-0.678068	-0.156887
H94	H	1.274608	-0.678111	-0.083941
H95	H	1.290403	-0.759236	-0.213842
H96	H	1.217528	-0.759218	-0.140840
H97	H	1.159539	-1.052362	-0.271902
O98	O	0.624288	-0.226334	-0.493981
C99	C	0.697784	-0.166481	-0.566152
C100	C	0.668341	-0.181054	-0.488767
H101	H	0.733394	-0.129864	-0.561965
H102	H	0.732567	-0.199949	-0.588885
H103	H	0.649135	-0.158822	-0.604909
H104	H	0.716944	-0.188703	-0.449955
H105	H	0.633535	-0.147577	-0.466095
O106	O	0.624143	-0.181731	-0.258444
C107	C	0.731568	-0.141955	-0.202866
C108	C	0.702249	-0.181869	-0.259469
H109	H	0.794720	-0.142061	-0.203665
H110	H	0.710496	-0.101395	-0.217860
H111	H	0.711185	-0.152888	-0.145122
H112	H	0.722620	-0.170985	-0.317232
H113	H	0.723315	-0.222418	-0.244411
H114	H	1.164814	-0.187339	-0.812109
H115	H	1.039697	-0.163762	-0.904588
O116	O	0.979206	-0.446736	-0.451350
C117	C	0.852861	-0.430114	-0.487328
C118	C	0.905178	-0.460133	-0.435155
H119	H	0.792999	-0.440943	-0.474264
H120	H	0.860943	-0.386390	-0.479169
H121	H	0.865920	-0.440814	-0.547218
H122	H	0.892151	-0.449477	-0.375245
H123	H	0.897086	-0.503850	-0.443378
O124	O	1.214533	-0.805456	-0.217092
C125	C	1.314890	-0.867002	-0.207264
C126	C	1.262483	-0.837022	-0.259392
H127	H	1.353660	-0.892539	-0.241442
H128	H	1.348887	-0.838095	-0.173400
H129	H	1.280877	-0.892593	-0.168350
H130	H	1.296438	-0.811430	-0.298351
H131	H	1.228483	-0.865957	-0.293204
O132	O	0.973337	-0.321895	-0.908778
C133	C	0.845184	-0.348111	-0.912844
C134	C	0.901976	-0.308293	-0.883574
H135	H	0.787479	-0.337134	-0.892466
H136	H	0.845978	-0.348029	-0.975998
H137	H	0.860066	-0.388676	-0.891696
H138	H	0.887133	-0.267709	-0.904667
H139	H	0.901172	-0.308421	-0.820421
H140	H	1.198199	-0.275445	-0.904722
O141	O	1.109570	-0.347709	-0.807830
C142	C	1.142369	-0.436140	-0.838821
C143	C	1.121684	-0.381629	-0.868087
H144	H	1.152152	-0.463582	-0.887524
H145	H	1.194976	-0.433356	-0.804116
H146	H	1.095233	-0.451846	-0.803148
H147	H	1.168771	-0.365891	-0.903791
H148	H	1.069053	-0.384445	-0.902751
O149	O	0.522824	-0.277402	-0.221697
C150	C	0.518606	-0.254970	-0.092142
C151	C	0.547979	-0.240476	-0.169582
H152	H	0.538945	-0.225129	-0.049983
H153	H	0.455454	-0.255200	-0.092907
H154	H	0.539718	-0.295339	-0.076197
H155	H	0.526923	-0.200104	-0.185574
H156	H	0.611131	-0.240281	-0.168776
O157	O	0.979695	-1.056671	-0.451619
C158	C	0.943540	-1.073316	-0.577912
C159	C	0.995779	-1.043278	-0.525671
H160	H	0.956515	-1.062491	-0.637793
H161	H	0.951723	-1.117037	-0.569843
H162	H	0.883666	-1.062630	-0.564767
H163	H	1.055674	-1.053921	-0.538783
H164	H	0.987533	-0.999565	-0.533750
O165	O	0.623945	-0.347769	-0.321183
C166	C	0.696602	-0.422010	-0.358747
C167	C	0.667434	-0.367526	-0.379679
H168	H	0.731756	-0.438005	-0.406034
H169	H	0.731777	-0.419089	-0.306469
H170	H	0.647813	-0.449290	-0.348255
H171	H	0.716178	-0.340217	-0.390209
H172	H	0.632237	-0.370489	-0.431937
O173	O	0.523224	-0.322256	-0.457496
C174	C	0.520420	-0.349220	-0.585331
C175	C	0.549476	-0.309218	-0.528718
H176	H	0.541620	-0.338687	-0.642929
H177	H	0.540809	-0.389832	-0.569689
H178	H	0.457267	-0.348736	-0.585289
H179	H	0.612627	-0.309655	-0.528732
H180	H	0.529031	-0.268624	-0.544381
H181	H	0.527132	-0.163959	-0.391599
O182	O	0.937088	-0.226117	-0.807762
C183	C	0.840207	-0.161536	-0.804627
C184	C	0.917602	-0.176151	-0.833923
H185	H	0.824436	-0.121133	-0.825753
H186	H	0.797904	-0.191311	-0.824911
H187	H	0.841009	-0.161333	-0.741476
H188	H	0.916872	-0.176348	-0.897072
H189	H	0.959872	-0.146373	-0.813582
H190	H	1.159492	-0.953297	-0.271879
O191	O	0.979281	-0.554381	-0.451333
C192	C	0.879071	-0.616118	-0.461247
C193	C	0.931369	-0.586071	-0.409075
H194	H	0.840332	-0.641755	-0.427103
H195	H	0.845034	-0.587255	-0.495135
H196	H	0.913172	-0.641616	-0.500138
H197	H	0.897326	-0.560573	-0.370139
H198	H	0.965409	-0.614962	-0.375240
H199	H	0.987037	-0.953350	-0.444052
O200	O	0.931964	-0.805443	-0.499019
C201	C	0.837663	-0.799686	-0.593118
C202	C	0.889932	-0.769676	-0.540874
H203	H	0.803656	-0.770781	-0.626960
H204	H	0.871711	-0.825196	-0.632041
H205	H	0.798889	-0.825304	-0.558985
H206	H	0.928717	-0.744029	-0.574947
H207	H	0.855838	-0.744199	-0.501949
H208	H	0.939408	-0.702179	-0.491477
