data_functionalizedCrystal
_audit_creation_method	'MofGen! by Chris Wilmer'
_symmetry_space_group_name_H-M	'P1'
_symmetry_Int_Tables_number	1
_symmetry_cell_setting	triclinic
loop_
_symmetry_equiv_pos_as_xyz
  x,y,z
_cell_length_a	16.625547
_cell_length_b	16.625545
_cell_length_c	16.625539
_cell_angle_alpha	89.973630
_cell_angle_beta	90.021309
_cell_angle_gamma	89.976026
loop_
_atom_site_label
_atom_site_type_symbol
_atom_site_fract_x
_atom_site_fract_y
_atom_site_fract_z
Zn1	Zn	1.232644	0.321016	0.456001
Zn2	Zn	1.732644	0.821016	0.956001
Zn3	Zn	1.232552	0.455855	0.321169
Zn4	Zn	1.732552	0.955855	0.821169
Zn5	Zn	1.097814	0.321040	0.321172
Zn6	Zn	1.597814	0.821040	0.821172
Zn7	Zn	1.097772	0.455811	0.455948
Zn8	Zn	1.597772	0.955811	0.955948
O9	O	1.165195	0.388430	0.388573
O10	O	1.665195	0.888430	0.888573
O11	O	1.345464	0.338912	0.438136
O12	O	1.845464	0.838912	0.938136
O13	O	1.214657	0.438000	0.208337
O14	O	1.714657	0.938000	0.708337
O15	O	1.115755	0.208204	0.339081
O16	O	1.615755	0.708204	0.839081
O17	O	1.345396	0.437977	0.339075
O18	O	1.845396	0.937977	0.839075
O19	O	1.214814	0.208187	0.438139
O20	O	1.714814	0.708187	0.938139
O21	O	1.115666	0.338952	0.208339
O22	O	1.615666	0.838952	0.708339
O23	O	0.984976	0.338909	0.339029
O24	O	1.484976	0.838909	0.839029
O25	O	1.115684	0.437901	0.568788
O26	O	1.615684	0.937901	1.068788
O27	O	0.984945	0.437924	0.438049
O28	O	1.484945	0.937924	0.938049
O29	O	1.214774	0.338869	0.568827
O30	O	1.714774	0.838869	1.068827
O31	O	1.214617	0.568682	0.339024
O32	O	1.714617	1.068682	0.839024
O33	O	1.115595	0.568649	0.438046
O34	O	1.615595	1.068649	0.938046
C35	C	0.955705	0.388415	0.388534
C36	C	1.455705	0.888415	0.888534
C37	C	0.866083	0.388428	0.388537
C38	C	1.366083	0.888428	0.888537
C39	C	0.793301	0.388429	0.388547
C40	C	1.293301	0.888429	0.888547
C41	C	0.701993	0.388433	0.388567
C42	C	1.201993	0.888433	0.888567
C43	C	0.629216	0.388441	0.388588
C44	C	1.129216	0.888441	0.888588
C45	C	0.537902	0.388446	0.388607
C46	C	1.037902	0.888446	0.888607
C47	C	1.165113	0.597921	0.388547
C48	C	1.665113	1.097921	0.888547
C49	C	1.165152	0.687542	0.388563
C50	C	1.665152	1.187542	0.888563
C51	C	1.165284	1.015718	0.388659
C52	C	1.665284	1.515718	0.888659
C53	C	1.165244	0.924410	0.388634
C54	C	1.665244	1.424410	0.888634
C55	C	1.165217	0.851633	0.388610
C56	C	1.665217	1.351633	0.888610
C57	C	1.165179	0.760319	0.388587
C58	C	1.665179	1.260319	0.888587
C59	C	1.375504	0.388447	0.388611
C60	C	1.875504	0.888447	0.888611
C61	C	1.465125	0.388454	0.388628
C62	C	1.965125	0.888454	0.888628
C63	C	1.165235	0.388377	0.598882
C64	C	1.665235	0.888377	1.098882
C65	C	1.165252	0.388355	0.688503
C66	C	1.665252	0.888355	1.188503
C67	C	1.165293	1.178122	0.388626
C68	C	1.665293	1.678122	0.888626
C69	C	1.165317	1.088500	0.388672
C70	C	1.665317	1.588500	0.888672
C71	C	1.165202	0.388425	0.179082
C72	C	1.665202	0.888425	0.679082
C73	C	1.165342	0.388221	0.089461
C74	C	1.665342	0.888221	0.589461
C75	C	1.165265	0.388337	0.761285
C76	C	1.665265	0.888337	1.261285
C77	C	1.165284	0.388307	0.852594
C78	C	1.665284	0.888307	1.352594
C79	C	1.165303	0.388278	0.925370
C80	C	1.665303	0.888278	1.425370
C81	C	1.165323	0.388249	1.016685
C82	C	1.665323	0.888249	1.516685
