data_functionalizedCrystal
_audit_creation_method	'MofGen! by Chris Wilmer'
_symmetry_space_group_name_H-M	'P1'
_symmetry_Int_Tables_number	1
_symmetry_cell_setting	triclinic
loop_
_symmetry_equiv_pos_as_xyz
  x,y,z
_cell_length_a	21.395362
_cell_length_b	16.959454
_cell_length_c	21.395355
_cell_angle_alpha	89.987004
_cell_angle_beta	89.956060
_cell_angle_gamma	90.035955
loop_
_atom_site_label
_atom_site_type_symbol
_atom_site_fract_x
_atom_site_fract_y
_atom_site_fract_z
Zn1	Zn	0.957906	-0.314438	-0.354610
Zn2	Zn	1.457906	0.185562	0.145390
Zn3	Zn	0.957828	-0.446599	-0.249842
Zn4	Zn	1.457828	0.053401	0.250158
Zn5	Zn	0.853121	-0.314475	-0.249811
Zn6	Zn	1.353121	0.185525	0.250189
Zn7	Zn	0.853109	-0.446615	-0.354547
Zn8	Zn	1.353109	0.053385	0.145453
O9	O	0.905491	-0.380532	-0.302202
O10	O	1.405491	0.119468	0.197798
O11	O	1.045573	-0.331947	-0.340751
O12	O	1.545573	0.168053	0.159249
O13	O	0.943910	-0.429081	-0.162160
O14	O	1.443910	0.070919	0.337840
O15	O	0.867058	-0.203859	-0.263726
O16	O	1.367058	0.296141	0.236274
O17	O	1.045516	-0.429045	-0.263779
O18	O	1.545516	0.070955	0.236221
O19	O	0.944043	-0.203832	-0.340721
O20	O	1.444043	0.296168	0.159279
O21	O	0.866982	-0.332010	-0.162137
O22	O	1.366982	0.167990	0.337863
O23	O	0.765441	-0.332026	-0.263665
O24	O	1.265441	0.167974	0.236335
O25	O	0.867039	-0.429073	-0.442233
O26	O	1.367039	0.070927	0.057767
O27	O	0.765433	-0.429109	-0.340614
O28	O	1.265433	0.070891	0.159386
O29	O	0.944032	-0.331963	-0.442279
O30	O	1.444032	0.168037	0.057721
O31	O	0.943899	-0.557212	-0.263718
O32	O	1.443899	-0.057212	0.236282
O33	O	0.866963	-0.557224	-0.340645
O34	O	1.366963	-0.057224	0.159355
C35	C	0.742703	-0.380574	-0.302130
C36	C	1.242703	0.119426	0.197870
C37	C	0.673062	-0.380610	-0.302114
C38	C	1.173062	0.119390	0.197886
C39	C	0.640361	-0.431228	-0.342121
C40	C	1.140361	0.068772	0.157879
C41	C	0.574925	-0.431209	-0.342149
C42	C	1.074925	0.068791	0.157851
C43	C	0.542194	-0.380580	-0.302158
C44	C	1.042194	0.119420	0.197842
C45	C	0.574903	-0.329952	-0.262148
C46	C	1.074903	0.170048	0.237852
C47	C	0.640337	-0.329967	-0.262126
C48	C	1.140337	0.170033	0.237874
C49	C	0.438468	-0.374212	-0.245752
C50	C	0.938468	0.125788	0.254248
C51	C	0.373035	-0.374203	-0.245774
C52	C	0.873035	0.125797	0.254226
C53	C	0.340373	-0.380528	-0.302227
C54	C	0.840373	0.119472	0.197773
C55	C	0.373152	-0.386881	-0.358661
C56	C	0.873152	0.113119	0.141339
C57	C	0.438586	-0.386896	-0.358639
C58	C	0.938586	0.113104	0.141361
C59	C	0.471241	-0.380557	-0.302178
C60	C	0.971241	0.119443	0.197822
C61	C	0.236719	-0.431128	-0.342268
C62	C	0.736719	0.068872	0.157732
C63	C	0.171283	-0.431103	-0.342297
C64	C	0.671283	0.068897	0.157703
C65	C	0.171261	-0.329850	-0.262291
C66	C	0.671261	0.170150	0.237709
C67	C	0.236697	-0.329871	-0.262267
C68	C	0.736697	0.170129	0.237733
C69	C	0.269422	-0.380514	-0.302255
C70	C	0.769422	0.119486	0.197745
C71	C	0.905438	-0.585898	-0.302192
C72	C	1.405438	-0.085898	0.197808
C73	C	0.905473	-0.673755	-0.302208
C74	C	1.405473	-0.173755	0.197792
C75	C	0.865488	-1.045266	-0.342254
C76	C	1.365488	-0.545266	0.157746
C77	C	0.945668	-1.045194	-0.262215
C78	C	1.445668	-0.545194	0.237785
C79	C	0.945646	-0.962648	-0.262209
C80	C	1.445646	-0.462648	0.237791
C81	C	0.905544	-0.921407	-0.302226
C82	C	1.405544	-0.421407	0.197774
C83	C	0.865464	-0.962713	-0.342248
C84	C	1.365464	-0.462713	0.157752
C85	C	0.985721	-0.921337	-0.222184
C86	C	1.485721	-0.421337	0.277816
C87	C	0.985700	-0.838786	-0.222176
C88	C	1.485700	-0.338786	0.277824
C89	C	0.945601	-0.797544	-0.262196
C90	C	1.445601	-0.297544	0.237804
C91	C	0.905520	-0.838854	-0.302220
C92	C	1.405520	-0.338854	0.197780
C93	C	0.865418	-0.797613	-0.342236
C94	C	1.365418	-0.297613	0.157764
C95	C	0.825339	-0.838922	-0.382264
C96	C	1.325339	-0.338922	0.117736
C97	C	0.825365	-0.921471	-0.382268
C98	C	1.325365	-0.421471	0.117732
C99	C	0.945575	-0.714995	-0.262192
C100	C	1.445575	-0.214995	0.237808
C101	C	0.865393	-0.715060	-0.342230
C102	C	1.365393	-0.215060	0.157770
C103	C	1.068914	-0.380490	-0.302276
C104	C	1.568914	0.119510	0.197724
C105	C	1.138555	-0.380473	-0.302307
C106	C	1.638555	0.119527	0.197693
C107	C	0.905543	-0.380516	-0.465626
C108	C	1.405543	0.119484	0.034374
C109	C	0.905565	-0.380509	-0.535267
C110	C	1.405565	0.119491	-0.035267
C111	C	0.905561	-0.174363	-0.302227
C112	C	1.405561	0.325637	0.197773
C113	C	0.905590	-0.086507	-0.302237
C114	C	1.405590	0.413493	0.197763
C115	C	0.945654	-0.329942	-0.568005
C116	C	1.445654	0.170058	-0.068005
C117	C	0.945653	-0.329908	-0.633441
C118	C	1.445653	0.170092	-0.133441
C119	C	0.905570	-0.380455	-0.666135
C120	C	1.405570	0.119545	-0.166135
C121	C	0.865473	-0.431026	-0.633389
C122	C	1.365473	0.068974	-0.133389
C123	C	0.865471	-0.431053	-0.567955
C124	C	1.365471	0.068947	-0.067955
C125	C	0.900604	-0.451628	-0.769805
C126	C	1.400604	0.048372	-0.269805
C127	C	0.900611	-0.451602	-0.835238
C128	C	1.400611	0.048398	-0.335238
C129	C	0.905574	-0.380371	-0.867956
C130	C	1.405574	0.119629	-0.367956
C131	C	0.910543	-0.309164	-0.835234
C132	C	1.410543	0.190836	-0.335234
C133	C	0.910540	-0.309191	-0.769800
C134	C	1.410540	0.190809	-0.269800
C135	C	0.905568	-0.380431	-0.737088
C136	C	1.405568	0.119569	-0.237088
C137	C	0.945664	-0.329763	-0.971647
C138	C	1.445664	0.170237	-0.471647
C139	C	0.945659	-0.329728	-1.037084
C140	C	1.445659	0.170272	-0.537084
C141	C	0.865482	-0.430853	-1.037031
C142	C	1.365482	0.069147	-0.537031
C143	C	0.865484	-0.430881	-0.971596
C144	C	1.365484	0.069119	-0.471596
C145	C	0.905578	-0.380337	-0.938908
C146	C	1.405578	0.119663	-0.438908
C147	C	0.905475	-0.380491	-0.139415
C148	C	1.405475	0.119509	0.360585
C149	C	0.905574	-0.380275	-0.069774
C150	C	1.405574	0.119725	0.430226
H151	H	0.667002	-0.472465	-0.374683
H152	H	1.167002	0.027535	0.125317
C153	C	0.821887	-0.485939	-0.668771
C154	C	1.321887	0.014061	-0.168771
C155	C	0.786766	-0.530218	-0.626091
C156	C	1.286766	-0.030218	-0.126091
C157	C	0.746598	-0.580803	-0.658660
C158	C	1.246598	-0.080803	-0.158660
H159	H	0.845774	-0.520433	-0.694318
H160	H	1.345774	-0.020433	-0.194318
H161	H	0.794566	-0.455716	-0.694262
H162	H	1.294566	0.044284	-0.194262
H163	H	0.814083	-0.560438	-0.600610
H164	H	1.314083	-0.060438	-0.100610
H165	H	0.762866	-0.495744	-0.600542
H166	H	1.262866	0.004256	-0.100542
H167	H	0.719277	-0.550580	-0.684151
H168	H	1.219277	-0.050580	-0.184151
H169	H	0.770490	-0.615292	-0.684206
H170	H	1.270490	-0.115292	-0.184206
H171	H	0.722760	-0.610847	-0.629707
H172	H	1.222760	-0.110847	-0.129707
H173	H	1.018365	-0.954921	-0.189600
H174	H	1.518365	-0.454921	0.310400
C175	C	0.337534	-0.367426	-0.184448
C176	C	0.837534	0.132574	0.315552
C177	C	0.353386	-0.430796	-0.145628
C178	C	0.853386	0.069204	0.354372
C179	C	0.320705	-0.424575	-0.089124
C180	C	0.820705	0.075425	0.410876
H181	H	0.293876	-0.368358	-0.192449
H182	H	0.793876	0.131642	0.307551
H183	H	0.348281	-0.319289	-0.164443
H184	H	0.848281	0.180711	0.335557
H185	H	0.342635	-0.478921	-0.165629
H186	H	0.842635	0.021079	0.334371
H187	H	0.397038	-0.429876	-0.137609
H188	H	0.897038	0.070124	0.362391
H189	H	0.331451	-0.376437	-0.069120
H190	H	0.831451	0.123563	0.430880
H191	H	0.277048	-0.425505	-0.097132
H192	H	0.777048	0.074495	0.402868
H193	H	0.331460	-0.467565	-0.062776
H194	H	0.831460	0.032435	0.437224
H195	H	0.263366	-0.472361	-0.374832
H196	H	0.763366	0.027639	0.125168
H197	H	0.896396	-0.509618	-0.743171
H198	H	1.396396	-0.009618	-0.243171
H199	H	0.978301	-0.288784	-0.541395
H200	H	1.478301	0.211216	-0.041395
H201	H	0.548248	-0.288728	-0.229588
H202	H	1.048248	0.211272	0.270412
C203	C	0.821860	-0.485636	-1.072491
C204	C	1.321860	0.014364	-0.572491
C205	C	0.759871	-0.468437	-1.056542
C206	C	1.259871	0.031563	-0.556542
C207	C	0.719667	-0.518878	-1.089206
C208	C	1.219667	-0.018878	-0.589206
H209	H	0.830929	-0.538776	-1.061807
H210	H	1.330929	-0.038776	-0.561807
H211	H	0.827562	-0.478368	-1.116156
H212	H	1.327562	0.021632	-0.616156
H213	H	0.754172	-0.475712	-1.012887
H214	H	1.254172	0.024288	-0.512887
H215	H	0.750783	-0.415306	-1.067227
H216	H	1.250783	0.084694	-0.567227
H217	H	0.725369	-0.511610	-1.132870
H218	H	1.225369	-0.011610	-0.632870
H219	H	0.728742	-0.572015	-1.078519
H220	H	1.228742	-0.072015	-0.578519
H221	H	0.677604	-0.507211	-1.078393
H222	H	1.177604	-0.007211	-0.578393
C223	C	0.821874	-1.090008	-0.385675
C224	C	1.321874	-0.590008	0.114325
C225	C	0.759884	-1.069998	-0.371964
C226	C	1.259884	-0.569998	0.128036
C227	C	0.719690	-1.111191	-0.411957
C228	C	1.219690	-0.611191	0.088043
H229	H	0.827545	-1.145091	-0.379992
H230	H	1.327545	-0.645091	0.120008
H231	H	0.830983	-1.076429	-0.427792
H232	H	1.330983	-0.576429	0.072208
H233	H	0.750778	-1.083583	-0.329856
H234	H	1.250778	-0.583583	0.170144
H235	H	0.754193	-1.014923	-0.377650
H236	H	1.254193	-0.514923	0.122350
H237	H	0.728799	-1.097611	-0.454074
H238	H	1.228799	-0.597611	0.045926
H239	H	0.725367	-1.166271	-0.406271
H240	H	1.225367	-0.666271	0.093729
H241	H	0.677625	-1.097614	-0.402663
H242	H	1.177625	-0.597614	0.097337
H243	H	0.896569	-0.509584	-0.861875
H244	H	1.396569	-0.009584	-0.361875
H245	H	0.978204	-0.681365	-0.229599
H246	H	1.478204	-0.181365	0.270401
H247	H	0.978297	-0.288725	-0.660101
H248	H	1.478297	0.211275	-0.160101
H249	H	0.914584	-0.251211	-0.743160
H250	H	1.414584	0.248789	-0.243160
H251	H	0.914585	-0.251161	-0.861872
H252	H	1.414585	0.248839	-0.361872
C253	C	0.675732	-0.274982	-0.218614
C254	C	1.175732	0.225018	0.281386
C255	C	0.633065	-0.230649	-0.183586
C256	C	1.133065	0.269351	0.316414
C257	C	0.665649	-0.179998	-0.143489
C258	C	1.165649	0.320002	0.356511
H259	H	0.701312	-0.240525	-0.242548
H260	H	1.201312	0.259475	0.257452
H261	H	0.701191	-0.305160	-0.191231
H262	H	1.201191	0.194840	0.308769
H263	H	0.607616	-0.200474	-0.210966
H264	H	1.107616	0.299526	0.289034
H265	H	0.607484	-0.265086	-0.159640
H266	H	1.107484	0.234914	0.340360
H267	H	0.691109	-0.210176	-0.116106
H268	H	1.191109	0.289824	0.383894
H269	H	0.691228	-0.145546	-0.167428
H270	H	1.191228	0.354454	0.332572
H271	H	0.636705	-0.149917	-0.119714
H272	H	1.136705	0.350083	0.380286
C273	C	0.781839	-0.794241	-0.425812
C274	C	1.281839	-0.294241	0.074188
C275	C	0.795451	-0.814283	-0.487823
C276	C	1.295451	-0.314283	0.012177
C277	C	0.755389	-0.773142	-0.527955
C278	C	1.255389	-0.273142	-0.027955
H279	H	0.787527	-0.739151	-0.420156
H280	H	1.287527	-0.239151	0.079844
H281	H	0.739738	-0.807840	-0.416633
H282	H	1.239738	-0.307840	0.083367
H283	H	0.837542	-0.800678	-0.496999
H284	H	1.337542	-0.300678	0.003001
H285	H	0.789759	-0.869366	-0.493499
H286	H	1.289759	-0.369366	0.006501
H287	H	0.713287	-0.786742	-0.518776
H288	H	1.213287	-0.286742	-0.018776
H289	H	0.761080	-0.718055	-0.522293
H290	H	1.261080	-0.218055	-0.022293
H291	H	0.764615	-0.786741	-0.570034
H292	H	1.264615	-0.286741	-0.070034
C293	C	0.989268	-0.275016	-0.936121
C294	C	1.489268	0.224984	-0.436121
C295	C	1.029424	-0.319781	-0.898606
C296	C	1.529424	0.180219	-0.398606
C297	C	1.069607	-0.269377	-0.865881
C298	C	1.569607	0.230623	-0.365881
H299	H	0.965388	-0.240577	-0.910520
H300	H	1.465388	0.259423	-0.410520
H301	H	1.013177	-0.244906	-0.964976
H302	H	1.513177	0.255094	-0.464976
H303	H	1.005517	-0.349878	-0.869755
H304	H	1.505517	0.150122	-0.369755
H305	H	1.053318	-0.354218	-0.924192
H306	H	1.553318	0.145782	-0.424192
H307	H	1.093516	-0.239267	-0.894735
H308	H	1.593516	0.260733	-0.394735
H309	H	1.045722	-0.234940	-0.840283
H310	H	1.545722	0.265060	-0.340283
H311	H	1.096861	-0.299743	-0.840427
H312	H	1.596861	0.200257	-0.340427
H313	H	0.978303	-0.288545	-1.063738
H314	H	1.478303	0.211455	-0.563738
C315	C	0.822039	-0.485922	-0.936082
C316	C	1.322039	0.014078	-0.436082
C317	C	0.835666	-0.564120	-0.952003
C318	C	1.335666	-0.064120	-0.452003
C319	C	0.795658	-0.614846	-0.919294
C320	C	1.295658	-0.114846	-0.419294
H321	H	0.779924	-0.474464	-0.946748
H322	H	1.279924	0.025536	-0.446748
H323	H	0.827782	-0.478754	-0.892423
H324	H	1.327782	0.021246	-0.392423
H325	H	0.829918	-0.571285	-0.995651
H326	H	1.329918	-0.071285	-0.495651
H327	H	0.877774	-0.575603	-0.941335
H328	H	1.377774	-0.075603	-0.441335
H329	H	0.801401	-0.607677	-0.875636
H330	H	1.301401	-0.107677	-0.375636
H331	H	0.753545	-0.603380	-0.929963
H332	H	1.253545	-0.103380	-0.429963
H333	H	0.804902	-0.667909	-0.930088
H334	H	1.304902	-0.167909	-0.430088
C335	C	1.029286	-0.794082	-0.178700
C336	C	1.529286	-0.294082	0.321300
C337	C	1.064420	-0.847869	-0.143669
C338	C	1.564420	-0.347869	0.356331
C339	C	1.104585	-0.806716	-0.103622
C340	C	1.604585	-0.306716	0.396378
H341	H	1.005396	-0.761914	-0.151313
H342	H	1.505396	-0.261914	0.348687
H343	H	1.056598	-0.761857	-0.202690
H344	H	1.556598	-0.261857	0.297310
H345	H	1.037111	-0.880080	-0.119682
H346	H	1.537111	-0.380080	0.380318
H347	H	1.088323	-0.880039	-0.171040
H348	H	1.588323	-0.380039	0.328960
H349	H	1.131898	-0.774491	-0.127611
H350	H	1.631898	-0.274491	0.372389
H351	H	1.080691	-0.774549	-0.076238
H352	H	1.580691	-0.274549	0.423762
H353	H	1.128433	-0.843203	-0.079852
H354	H	1.628433	-0.343203	0.420148
H355	H	0.465056	-0.369058	-0.199778
H356	H	0.965056	0.130942	0.300222
H357	H	0.832823	-0.472230	-0.541300
H358	H	1.332823	0.027770	-0.041300
H359	H	0.548295	-0.472428	-0.374730
H360	H	1.048295	0.027572	0.125270
H361	H	0.978313	-1.078777	-0.229632
H362	H	1.478313	-0.578777	0.270368
C363	C	0.781749	-0.966218	-0.425684
C364	C	1.281749	-0.466218	0.074316
C365	C	0.719759	-0.946203	-0.411972
C366	C	1.219759	-0.446203	0.088028
C367	C	0.679563	-0.987403	-0.451958
C368	C	1.179563	-0.487403	0.048042
H369	H	0.787419	-1.021299	-0.419995
H370	H	1.287419	-0.521299	0.080005
H371	H	0.790856	-0.952647	-0.467804
H372	H	1.290856	-0.452647	0.032196
H373	H	0.710655	-0.959780	-0.369863
H374	H	1.210655	-0.459780	0.130137
H375	H	0.714069	-0.891129	-0.417666
H376	H	1.214069	-0.391129	0.082334
H377	H	0.688670	-0.973832	-0.494078
H378	H	1.188670	-0.473832	0.005922
H379	H	0.685239	-1.042482	-0.446266
H380	H	1.185239	-0.542482	0.053734
H381	H	0.637499	-0.973823	-0.442664
H382	H	1.137499	-0.473823	0.057336
H383	H	0.144659	-0.472321	-0.374880
H384	H	0.644659	0.027679	0.125120
H385	H	0.465272	-0.392066	-0.404590
H386	H	0.965272	0.107934	0.095410
H387	H	0.346560	-0.392030	-0.404632
H388	H	0.846560	0.107970	0.095368
H389	H	0.263322	-0.288656	-0.229686
H390	H	0.763322	0.211344	0.270314
C391	C	0.135619	-0.274989	-0.218877
C392	C	0.635619	0.225011	0.281123
C393	C	0.071314	-0.285831	-0.227440
C394	C	0.571314	0.214169	0.272560
C395	C	0.038458	-0.235320	-0.187445
C396	C	0.538458	0.264680	0.312555
H397	H	0.146303	-0.221860	-0.228056
H398	H	0.646303	0.278140	0.271944
H399	H	0.146262	-0.286512	-0.176753
H400	H	0.646262	0.213488	0.323247
H401	H	0.060676	-0.274302	-0.269555
H402	H	0.560676	0.225698	0.230445
H403	H	0.060612	-0.338949	-0.218256
H404	H	0.560612	0.161051	0.281744
H405	H	0.049101	-0.246843	-0.145321
H406	H	0.549101	0.253157	0.354679
H407	H	0.049147	-0.182194	-0.196628
H408	H	0.549147	0.317806	0.303372
H409	H	-0.005175	-0.242674	-0.193246
H410	H	0.494825	0.257326	0.306754
H411	H	0.832739	-0.681487	-0.374819
H412	H	1.332739	-0.181487	0.125181
