data_functionalizedCrystal
_audit_creation_method	'MofGen! by Chris Wilmer'
_symmetry_space_group_name_H-M	'P1'
_symmetry_Int_Tables_number	1
_symmetry_cell_setting	triclinic
loop_
_symmetry_equiv_pos_as_xyz
  x,y,z
_cell_length_a	14.853569
_cell_length_b	14.853568
_cell_length_c	10.065918
_cell_angle_alpha	80.199201
_cell_angle_beta	99.847462
_cell_angle_gamma	96.364624
loop_
_atom_site_label
_atom_site_type_symbol
_atom_site_fract_x
_atom_site_fract_y
_atom_site_fract_z
O1	O	1.208201	-0.129482	0.113416
O2	O	1.708201	0.370518	0.613416
O3	O	0.945743	-0.143503	0.113431
O4	O	1.445743	0.356497	0.613431
O5	O	1.083983	-0.005263	0.113430
O6	O	1.583983	0.494737	0.613430
O7	O	1.069961	-0.267721	0.113417
O8	O	1.569961	0.232279	0.613417
O9	O	1.060282	0.018299	-0.113556
O10	O	1.560282	0.518299	0.386444
O11	O	0.922042	-0.119941	-0.113555
O12	O	1.422042	0.380059	0.386445
O13	O	1.184499	-0.105920	-0.113570
O14	O	1.684499	0.394080	0.386430
Zn15	Zn	1.049507	-0.109189	-0.149601
Zn16	Zn	1.549507	0.390811	0.350399
Zn17	Zn	1.080735	-0.140233	0.149462
Zn18	Zn	1.580735	0.359767	0.649462
O19	O	1.046259	-0.244159	-0.113569
O20	O	1.546259	0.255841	0.386431
C21	C	0.900304	-0.131087	-0.000060
C22	C	1.400304	0.368913	0.499940
C23	C	0.800221	-0.129183	-0.000054
C24	C	1.300221	0.370817	0.499946
C25	C	0.763845	-0.046173	-0.000045
C26	C	1.263845	0.453827	0.499955
C27	C	0.742554	-0.210403	-0.000068
C28	C	1.242554	0.289597	0.499932
C29	C	0.648519	-0.208617	-0.000070
C30	C	1.148519	0.291383	0.499930
C31	C	0.612143	-0.125607	-0.000061
C32	C	1.112143	0.374393	0.499939
C33	C	0.669802	-0.044384	-0.000050
C34	C	1.169802	0.455616	0.499950
C35	C	0.590853	-0.289837	-0.000094
C36	C	1.090853	0.210163	0.499906
C37	C	0.496812	-0.288053	-0.000097
C38	C	0.996812	0.211947	0.499903
C39	C	0.460435	-0.205044	-0.000078
C40	C	0.960435	0.294956	0.499922
C41	C	0.518100	-0.123817	-0.000066
C42	C	1.018100	0.376183	0.499934
C43	C	0.481725	-0.040807	-0.000057
C44	C	0.981725	0.459193	0.499943
C45	C	0.539389	0.040419	-0.000036
C46	C	1.039389	0.540419	0.499964
C47	C	0.633426	0.038626	-0.000032
C48	C	1.133426	0.538626	0.499968
C49	C	0.366399	-0.203251	-0.000082
C50	C	0.866399	0.296749	0.499918
C51	C	0.387681	-0.039018	-0.000063
C52	C	0.887681	0.460982	0.499937
C53	C	1.071497	0.040106	-0.000058
C54	C	1.571497	0.540106	0.499942
C55	C	1.069595	0.140188	-0.000044
C56	C	1.569595	0.640188	0.499956
C57	C	0.979427	0.552724	-0.000056
C58	C	1.479427	1.052724	0.499944
C59	C	1.143659	0.574004	-0.000065
C60	C	1.643659	1.074004	0.499935
C61	C	1.145450	0.479970	-0.000059
C62	C	1.645450	0.979970	0.499941
C63	C	1.064228	0.422308	-0.000054
C64	C	1.564228	0.922308	0.499946
C65	C	0.981215	0.458681	-0.000055
C66	C	1.481215	0.958681	0.499945
C67	C	1.228460	0.443592	-0.000073
C68	C	1.728460	0.943592	0.499927
C69	C	1.230254	0.349552	-0.000068
C70	C	1.730254	0.849552	0.499932
C71	C	1.149032	0.291888	-0.000053
C72	C	1.649032	0.791888	0.499947
C73	C	1.066016	0.328265	-0.000052
C74	C	1.566016	0.828265	0.499948
C75	C	0.984794	0.270603	-0.000047
C76	C	1.484794	0.770603	0.499953
C77	C	0.901778	0.306978	-0.000036
C78	C	1.401778	0.806978	0.499964
C79	C	0.899993	0.401016	-0.000039
C80	C	1.399993	0.901016	0.499961
C81	C	1.150817	0.197850	-0.000050
C82	C	1.650817	0.697850	0.499950
C83	C	0.986582	0.176560	-0.000045
C84	C	1.486582	0.676560	0.499955
C85	C	1.229939	-0.118336	-0.000076
C86	C	1.729939	0.381664	0.499924
C87	C	1.330023	-0.120241	-0.000073
C88	C	1.830023	0.379759	0.499927
N89	N	1.028202	-0.088002	-0.353704
N90	N	1.528202	0.411998	0.146296
C91	C	1.058745	0.710470	-0.000072
C92	C	1.558745	1.210470	0.499928
C93	C	1.060649	0.610385	-0.000062
C94	C	1.560649	1.110385	0.499938
C95	C	1.073316	-0.132862	-0.421489
C96	C	1.573316	0.367138	0.078511
C97	C	1.056927	-0.116547	-0.578654
C98	C	1.556927	0.383453	-0.078654
N99	N	1.102048	-0.161413	0.353565
N100	N	1.602048	0.338587	0.853565
H101	H	0.680383	0.104757	-0.000017
H102	H	1.180383	0.604757	0.499983
H103	H	1.006168	-0.066057	-0.636970
H104	H	1.506168	0.433943	-0.136970
F105	F	1.168402	-0.227400	-0.570220
F106	F	1.668402	0.272600	-0.070220
H107	H	0.358073	0.028579	-0.000048
H108	H	0.858073	0.528579	0.499952
F109	F	1.239159	0.159143	-0.000083
F110	F	1.739159	0.659143	0.499917
H111	H	0.810800	0.019959	-0.000022
H112	H	1.310800	0.519959	0.499978
F113	F	0.781270	-0.298743	-0.000081
F114	F	1.281270	0.201257	0.499919
H115	H	0.977446	-0.037515	-0.412025
H116	H	1.477446	0.462485	0.087975
F117	F	0.629572	-0.378176	-0.000101
F118	F	1.129572	0.121824	0.499899
H119	H	0.920441	0.129617	-0.000035
H120	H	1.420441	0.629617	0.499965
H121	H	1.124078	-0.183343	-0.363168
H122	H	1.624078	0.316657	0.136832
F123	F	0.435450	-0.374501	-0.000112
F124	F	0.935450	0.125499	0.499888
F125	F	0.500663	0.128763	-0.000038
F126	F	1.000663	0.628763	0.499962
H127	H	0.319451	-0.269383	-0.000112
H128	H	0.819451	0.230617	0.499888
H129	H	0.832406	0.430641	-0.000032
H130	H	1.332406	0.930641	0.499968
F131	F	0.891081	0.591435	-0.000033
F132	F	1.391081	1.091435	0.499967
F133	F	0.815338	0.245601	-0.000041
F134	F	1.315338	0.745601	0.499959
F135	F	1.230093	0.635376	-0.000091
F136	F	1.730093	1.135376	0.499909
H137	H	1.294584	0.490548	-0.000090
H138	H	1.794584	0.990548	0.499910
H139	H	1.297850	0.319945	-0.000075
H140	H	1.797850	0.819945	0.499925
