data_functionalizedCrystal
_audit_creation_method	'MofGen! by Chris Wilmer'
_symmetry_space_group_name_H-M	'P1'
_symmetry_Int_Tables_number	1
_symmetry_cell_setting	triclinic
loop_
_symmetry_equiv_pos_as_xyz
  x,y,z
_cell_length_a	17.699083
_cell_length_b	16.776229
_cell_length_c	17.699083
_cell_angle_alpha	90.007545
_cell_angle_beta	83.283015
_cell_angle_gamma	90.001114
loop_
_atom_site_label
_atom_site_type_symbol
_atom_site_fract_x
_atom_site_fract_y
_atom_site_fract_z
O1	O	1.004078	0.066178	0.095713
O2	O	1.504078	0.566178	0.595713
O3	O	0.783700	0.066204	0.108165
O4	O	1.283700	0.566204	0.608165
O5	O	0.900116	0.066183	-0.008250
O6	O	1.400116	0.566183	0.491750
O7	O	0.887663	0.066199	0.212128
O8	O	1.387663	0.566199	0.712128
O9	O	0.900100	-0.066393	-0.008257
O10	O	1.400100	0.433607	0.491743
O11	O	0.783685	-0.066372	0.108158
O12	O	1.283685	0.433628	0.608158
O13	O	1.004063	-0.066398	0.095706
O14	O	1.504063	0.433602	0.595706
Zn15	Zn	0.893871	-0.087435	0.101931
Zn16	Zn	1.393871	0.412565	0.601931
Zn17	Zn	0.893892	0.087241	0.101940
Zn18	Zn	1.393892	0.587241	0.601940
O19	O	0.887648	-0.066378	0.212121
O20	O	1.387648	0.433622	0.712121
C21	C	0.755495	-0.000081	0.107716
C22	C	1.255495	0.499919	0.607716
C23	C	0.671477	-0.000071	0.106377
C24	C	1.171477	0.499929	0.606377
N25	N	0.893863	-0.206646	0.101924
N26	N	1.393863	0.293354	0.601924
C27	C	0.622856	-0.000066	0.174710
C28	C	1.122856	0.499934	0.674710
C29	C	0.543913	-0.000077	0.173448
C30	C	1.043913	0.499923	0.673448
C31	C	0.513592	-0.000086	0.103852
C32	C	1.013592	0.499914	0.603852
C33	C	0.562219	-0.000093	0.035513
C34	C	1.062219	0.499907	0.535513
C35	C	0.641161	-0.000088	0.036776
C36	C	1.141161	0.499912	0.536776
C37	C	0.243856	-0.000113	0.030418
C38	C	0.743856	0.499887	0.530418
C39	C	0.164908	-0.000115	0.029160
C40	C	0.664908	0.499885	0.529160
C41	C	0.146608	-0.000101	0.167090
C42	C	0.646608	0.499899	0.667090
C43	C	0.225550	-0.000097	0.168353
C44	C	0.725550	0.499903	0.668353
C45	C	0.274170	-0.000108	0.100015
C46	C	0.774170	0.499892	0.600015
C47	C	0.359769	-0.000098	0.101384
C48	C	0.859769	0.499902	0.601384
C49	C	0.427995	-0.000090	0.102481
C50	C	0.927995	0.499910	0.602481
C51	C	0.945428	-0.248372	0.050396
C52	C	1.445428	0.251628	0.550396
C53	C	0.945432	-0.331824	0.050396
C54	C	1.445432	0.168176	0.550396
C55	C	0.893875	-0.373549	0.101927
C56	C	1.393875	0.126451	0.601927
C57	C	0.842305	-0.331817	0.153457
C58	C	1.342305	0.168183	0.653457
C59	C	0.842297	-0.248366	0.153454
C60	C	1.342297	0.251634	0.653454
C61	C	0.842332	-0.668364	0.153472
C62	C	1.342332	-0.168364	0.653472
C63	C	0.842345	-0.751820	0.153473
C64	C	1.342345	-0.251820	0.653473
C65	C	0.945466	-0.751822	0.050414
C66	C	1.445466	-0.251822	0.550414
C67	C	0.945459	-0.668372	0.050411
C68	C	1.445459	-0.168372	0.550411
C69	C	0.893887	-0.626647	0.101938
C70	C	1.393887	-0.126647	0.601938
C71	C	0.893882	-0.536158	0.101937
C72	C	1.393882	-0.036158	0.601937
C73	C	0.893882	-0.464036	0.101932
C74	C	1.393882	0.035964	0.601932
C75	C	1.032268	-0.000112	0.096156
C76	C	1.532268	0.499888	0.596156
C77	C	1.116286	-0.000116	0.097494
C78	C	1.616286	0.499884	0.597494
C79	C	0.899662	-0.000105	-0.036451
C80	C	1.399662	0.499895	0.463549
C81	C	0.898323	-0.000105	-0.120469
C82	C	1.398323	0.499895	0.379531
N83	N	0.893906	0.206452	0.101941
N84	N	1.393906	0.706452	0.601941
C85	C	0.966656	-0.000114	-0.169090
C86	C	1.466656	0.499886	0.330910
C87	C	0.965394	-0.000107	-0.248033
C88	C	1.465394	0.499893	0.251967
C89	C	0.895798	-0.000096	-0.278354
C90	C	1.395798	0.499904	0.221646
C91	C	0.827459	-0.000085	-0.229727
C92	C	1.327459	0.499915	0.270273
C93	C	0.828722	-0.000086	-0.150785
C94	C	1.328722	0.499914	0.349215
C95	C	0.822364	-0.000078	-0.548090
C96	C	1.322364	0.499922	-0.048090
C97	C	0.821106	-0.000078	-0.627038
C98	C	1.321106	0.499922	-0.127038
C99	C	0.959036	-0.000099	-0.645338
C100	C	1.459036	0.499901	-0.145338
C101	C	0.960299	-0.000100	-0.566396
C102	C	1.460299	0.499900	-0.066396
C103	C	0.891961	-0.000084	-0.517776
C104	C	1.391961	0.499916	-0.017776
C105	C	0.893330	-0.000090	-0.432177
C106	C	1.393330	0.499910	0.067823
C107	C	0.894427	-0.000096	-0.363951
C108	C	1.394427	0.499904	0.136049
C109	C	0.888102	-0.000087	0.240322
C110	C	1.388102	0.499913	0.740322
C111	C	0.889440	-0.000082	0.324340
C112	C	1.389440	0.499918	0.824340
H113	H	0.504328	-0.000072	0.229092
H114	H	1.004328	0.499928	0.729092
O115	O	1.001058	-0.376819	-0.005180
O116	O	1.501058	0.123181	0.494820
H117	H	0.969281	-0.414844	-0.041938
H118	H	1.469281	0.085156	0.458062
H119	H	0.647537	-0.000058	0.231384
H120	H	1.147537	0.499942	0.731384
O121	O	1.035366	-0.000100	-0.533697
O122	O	1.535366	0.499900	-0.033697
H123	H	1.068197	-0.054133	-0.553247
H124	H	1.568197	0.445867	-0.053247
H125	H	0.766718	-0.000065	-0.508512
H126	H	1.266718	0.499935	-0.008512
H127	H	0.987414	-0.214406	0.008437
H128	H	1.487414	0.285594	0.508437
O129	O	1.039096	-0.000130	-0.300477
O130	O	1.539096	0.499870	0.199523
H131	H	1.087702	-0.000153	-0.266131
H132	H	1.587702	0.499847	0.233869
H133	H	0.987444	-0.634402	0.008452
H134	H	1.487444	-0.134402	0.508452
O135	O	1.001087	-0.796824	-0.005172
O136	O	1.501087	-0.296824	0.494828
H137	H	0.992428	-0.861862	0.003478
H138	H	1.492428	-0.361862	0.503478
O139	O	0.746034	-0.000062	-0.659738
O140	O	1.246034	0.499938	-0.159738
H141	H	0.742149	-0.054103	-0.695264
H142	H	1.242149	0.445897	-0.195264
H143	H	0.250232	-0.000085	0.225025
H144	H	0.750232	0.499915	0.725025
H145	H	0.140225	-0.000124	-0.027517
H146	H	0.640225	0.499876	0.472483
O147	O	0.094169	-0.000107	0.240803
O148	O	0.594169	0.499893	0.740803
H149	H	0.034181	-0.000123	0.228237
H150	H	0.534181	0.499877	0.728237
O151	O	0.786697	-0.376813	0.209043
O152	O	1.286697	0.123187	0.709043
H153	H	0.795370	-0.441852	0.200396
H154	H	1.295370	0.058148	0.700396
O155	O	0.296293	-0.000125	-0.043286
O156	O	0.796293	0.499875	0.456714
H157	H	0.261944	-0.000125	-0.091890
H158	H	0.761944	0.499875	0.408110
H159	H	1.023330	-0.000128	-0.144409
H160	H	1.523330	0.499872	0.355591
H161	H	0.537526	-0.000112	-0.021154
H162	H	1.037526	0.499888	0.478846
O163	O	0.786746	-0.796828	0.209067
O164	O	1.286746	-0.296828	0.709067
H165	H	0.750883	-0.753795	0.244897
H166	H	1.250883	-0.253795	0.744897
H167	H	0.800308	-0.214393	0.195412
H168	H	1.300308	0.285607	0.695412
H169	H	0.800342	-0.634398	0.195428
H170	H	1.300342	-0.134398	0.695428
H171	H	1.014680	-0.000107	-0.684934
H172	H	1.514680	0.499893	-0.184934
H173	H	0.770792	-0.000071	-0.254420
H174	H	1.270792	0.499929	0.245580
H175	H	0.773078	-0.000078	-0.111198
H176	H	1.273078	0.499922	0.388802
H177	H	0.680748	-0.000091	-0.018868
H178	H	1.180748	0.499909	0.481132
