data_functionalizedCrystal
_audit_creation_method	'MofGen! by Chris Wilmer'
_symmetry_space_group_name_H-M	'P1'
_symmetry_Int_Tables_number	1
_symmetry_cell_setting	triclinic
loop_
_symmetry_equiv_pos_as_xyz
  x,y,z
_cell_length_a	13.635800
_cell_length_b	15.866870
_cell_length_c	19.551833
_cell_angle_alpha	66.862825
_cell_angle_beta	101.663477
_cell_angle_gamma	77.344085
loop_
_atom_site_label
_atom_site_type_symbol
_atom_site_fract_x
_atom_site_fract_y
_atom_site_fract_z
V1	V	2.014401	-0.133799	0.252320
O2	O	1.996669	0.005394	0.212321
O3	O	2.001183	-0.264306	0.284443
O4	O	1.985613	-0.132196	0.346922
O5	O	2.012347	-0.127631	0.149410
V6	V	2.255386	-0.117096	0.235899
O7	O	2.146732	-0.170438	0.288340
O8	O	2.348153	-0.080457	0.199879
O9	O	2.157001	0.013410	0.203775
O10	O	2.331816	-0.256290	0.275897
O11	O	2.316139	-0.123265	0.338808
O12	O	2.172571	-0.118700	0.141297
V13	V	2.514401	-0.133799	0.252320
O14	O	2.496669	0.005394	0.212321
O15	O	2.501183	-0.264306	0.284443
O16	O	2.485613	-0.132196	0.346922
O17	O	2.512347	-0.127631	0.149410
V18	V	2.755386	-0.117096	0.235899
O19	O	2.646732	-0.170438	0.288340
O20	O	2.848153	-0.080457	0.199879
O21	O	2.657001	0.013410	0.203775
O22	O	2.831816	-0.256290	0.275897
O23	O	2.816139	-0.123265	0.338808
O24	O	2.672571	-0.118700	0.141297
C25	C	1.926503	-0.296106	0.289197
C26	C	1.956309	-0.402800	0.316092
C27	C	1.962858	-0.683733	0.066614
C28	C	1.990868	-0.783993	0.091910
C29	C	2.027459	-0.811969	0.227087
C30	C	1.999446	-0.711709	0.201802
C31	C	1.967148	-0.647599	0.121565
C32	C	2.003736	-0.675575	0.256753
C33	C	1.975731	-0.575325	0.231470
C34	C	1.943436	-0.511208	0.151236
C35	C	1.939143	-0.547348	0.096282
C36	C	2.036041	-0.739688	0.336990
C37	C	2.040332	-0.703554	0.391940
C38	C	2.012319	-0.603301	0.366658
C39	C	1.980024	-0.539185	0.286424
C40	C	2.016612	-0.567161	0.421612
C41	C	1.988607	-0.466910	0.396329
C42	C	1.952018	-0.438934	0.261142
C43	C	1.906642	-0.127585	0.368894
C44	C	1.923819	-0.127138	0.446454
C45	C	2.063352	0.045205	0.199021
C46	C	2.023166	0.151898	0.172130
C47	C	2.083213	-0.123314	0.119322
C48	C	2.055655	-0.123757	0.041760
C49	C	2.426503	-0.296106	0.289197
C50	C	2.456309	-0.402800	0.316092
C51	C	2.406642	-0.127585	0.368894
C52	C	2.423819	-0.127138	0.446454
C53	C	2.023181	-0.131745	0.487688
C54	C	2.039321	-0.131324	0.560564
C55	C	1.956099	-0.126316	0.592210
C56	C	1.856722	-0.121702	0.550965
C57	C	1.840582	-0.122113	0.478087
C58	C	1.929090	-0.178502	0.724963
C59	C	1.945235	-0.178097	0.797843
C60	C	2.005876	-0.125043	0.816989
C61	C	2.050390	-0.072408	0.763253
C62	C	2.034250	-0.072819	0.690375
C63	C	1.973590	-0.125869	0.671234
C64	C	2.122745	-0.129194	0.937244
C65	C	2.138880	-0.128767	1.010119
C66	C	1.956280	-0.119154	1.000522
C67	C	1.940145	-0.119572	0.927645
C68	C	2.023383	-0.124596	0.896012
C69	C	2.563352	0.045205	0.199021
C70	C	2.523166	0.151898	0.172130
C71	C	2.583213	-0.123314	0.119322
C72	C	2.555655	-0.123757	0.041760
C73	C	2.561620	-0.457814	0.333478
C74	C	2.589643	-0.558067	0.358761
C75	C	2.512351	-0.603303	0.366651
C76	C	2.407031	-0.548281	0.349265
C77	C	2.379011	-0.448031	0.323989
C78	C	2.523186	-0.131729	0.487675
C79	C	2.539336	-0.131296	0.560547
C80	C	2.456120	-0.126278	0.592199
C81	C	2.356744	-0.121683	0.550971
C82	C	2.340593	-0.122110	0.478098
C83	C	2.590348	0.206912	0.154746
C84	C	2.552597	0.307164	0.129467
C85	C	2.447666	0.352400	0.121578
C86	C	2.380479	0.297379	0.138962
C87	C	2.418228	0.197129	0.164235
C88	C	2.456639	-0.128764	0.010123
C89	C	2.430726	-0.129168	-0.062758
C90	C	2.503834	-0.124573	-0.104000
C91	C	2.602858	-0.119563	-0.072360
C92	C	2.628766	-0.119151	0.000518
H93	H	1.925702	-0.386730	0.195804
H94	H	2.053763	-0.864181	0.292416
H95	H	2.590957	-0.135818	0.461916
F96	F	2.324780	-0.596438	0.357665
F97	F	2.074711	-0.771794	0.477332
F98	F	2.266920	-0.389490	0.305482
F99	F	2.051000	-0.635404	0.507004
H100	H	2.620260	-0.135041	0.594107
F101	F	1.913639	-0.404512	0.124328
F102	F	1.864532	-0.234961	0.704591
H103	H	1.888516	-0.115068	1.026284
F104	F	2.325336	-0.134507	-0.096416
H105	H	2.469285	-0.125932	0.651538
H106	H	2.295041	0.334225	0.132534
F107	F	1.904753	-0.479110	0.010883
H108	H	1.936541	-0.631529	0.001276
F109	F	1.986296	-0.822444	0.033417
H110	H	2.675404	-0.602852	0.372911
F111	F	2.268191	-0.116352	0.584671
H112	H	1.908995	-0.220962	0.841593
H113	H	2.416942	0.434030	0.100998
F114	F	2.542188	-0.710000	0.393553
F115	F	2.643900	-0.409691	0.325090
F116	F	2.378815	-0.133655	0.054003
H117	H	2.363516	0.152343	0.178395
H118	H	2.259678	-0.118373	0.444541
F119	F	2.065852	-0.846385	0.363897
H120	H	2.675792	0.170095	0.161166
H121	H	2.662375	-0.115818	-0.105950
F122	F	2.624119	0.365703	0.110972
H123	H	1.992116	-0.437491	0.441077
H124	H	2.090960	-0.135832	0.461936
H125	H	2.482730	-0.124921	-0.163336
F126	F	2.244639	-0.133669	1.054003
F127	F	2.734160	-0.113834	0.034184
F128	F	2.145080	-0.136223	0.604455
H129	H	2.099772	-0.029209	0.778840
F130	F	2.081624	-0.016802	0.633189
H131	H	2.190521	-0.133281	0.911486
F132	F	1.834393	-0.114681	0.883763
H133	H	1.759665	-0.118354	0.444511
F134	F	1.768150	-0.116369	0.584645
