data_functionalizedCrystal
_audit_creation_method	'MofGen! by Chris Wilmer'
_symmetry_space_group_name_H-M	'P1'
_symmetry_Int_Tables_number	1
_symmetry_cell_setting	triclinic
loop_
_symmetry_equiv_pos_as_xyz
  x,y,z
_cell_length_a	12.759399
_cell_length_b	21.295418
_cell_length_c	12.759393
_cell_angle_alpha	89.958528
_cell_angle_beta	89.968539
_cell_angle_gamma	90.030931
loop_
_atom_site_label
_atom_site_type_symbol
_atom_site_fract_x
_atom_site_fract_y
_atom_site_fract_z
Zn1	Zn	-0.417766	0.962409	-0.594606
Zn2	Zn	-0.593483	0.962344	-0.418925
Zn3	Zn	-0.417867	0.857136	-0.418877
Zn4	Zn	-0.593452	0.857130	-0.594498
O5	O	-0.505642	0.909755	-0.506726
O6	O	-0.441046	1.050490	-0.571367
O7	O	-0.570243	0.948363	-0.271897
O8	O	-0.270833	0.871131	-0.442213
O9	O	-0.570145	1.050442	-0.442295
O10	O	-0.270758	0.948474	-0.571320
O11	O	-0.441219	0.871068	-0.271862
O12	O	-0.441189	0.769046	-0.442108
O13	O	-0.570091	0.871120	-0.741533
O14	O	-0.570190	0.769041	-0.571136
O15	O	-0.441016	0.948468	-0.741613
O16	O	-0.740500	0.948357	-0.442190
O17	O	-0.740477	0.871057	-0.571182
C18	C	-0.505698	0.746203	-0.506605
C19	C	-0.505746	0.676235	-0.506579
C20	C	-0.573006	0.643382	-0.573663
C21	C	-0.572980	0.577640	-0.573710
C22	C	-0.505706	0.544753	-0.506654
C23	C	-0.438433	0.577613	-0.439565
C24	C	-0.438453	0.643354	-0.439527
N25	N	-0.497510	0.441477	-0.414762
N26	N	-0.497496	0.379026	-0.414801
C27	C	-0.505639	0.346678	-0.506766
N28	N	-0.513815	0.379140	-0.598692
N29	N	-0.513834	0.441598	-0.598652
C30	C	-0.505676	0.473467	-0.506688
C31	C	-0.572874	0.242540	-0.573907
C32	C	-0.572841	0.176796	-0.573956
C33	C	-0.438299	0.176771	-0.439801
C34	C	-0.438326	0.242513	-0.439762
C35	C	-0.505620	0.275394	-0.506813
C36	C	-0.778610	0.909716	-0.506702
C37	C	-0.895386	0.909757	-0.506727
C38	C	-0.950225	0.950053	-0.439637
C39	C	-1.059949	0.950094	-0.439673
C40	C	-1.059986	0.869537	-0.573891
C41	C	-0.950264	0.869500	-0.573860
C42	C	-0.231609	0.909811	-0.506773
C43	C	-0.114832	0.909834	-0.506793
C44	C	-0.505539	0.909801	-0.780760
C45	C	-0.505495	0.909820	-0.897537
C46	C	-0.505587	1.073945	-0.506848
C47	C	-0.505564	1.143913	-0.506900
C48	C	-0.438234	0.950111	-1.062173
C49	C	-0.438275	0.950099	-0.952449
C50	C	-0.572685	0.869555	-0.952354
C51	C	-0.572649	0.869571	-1.062076
C52	C	-0.505670	0.909745	-0.233759
C53	C	-0.505418	0.909848	-0.116983
H54	H	-0.627663	0.269313	-0.628509
H55	H	-0.627610	0.150048	-0.628591
H56	H	-0.627751	0.550886	-0.628342
C57	C	-0.827002	0.784781	-0.588251
C58	C	-0.889973	0.825204	-0.647610
H59	H	-0.789777	0.757441	-0.633784
H60	H	-0.869887	0.760729	-0.542452
H61	H	-0.778624	0.808762	-0.548273
H62	H	-0.938357	0.801223	-0.687583
H63	H	-0.847084	0.849258	-0.693428
C64	C	-0.305390	1.029729	-1.051241
C65	C	-0.364345	0.994389	-1.122527
H66	H	-0.259779	1.057068	-1.088502
H67	H	-0.265225	1.002306	-1.008436
H68	H	-0.351185	1.053789	-1.008453
H69	H	-0.318549	0.970326	-1.165311
H70	H	-0.404512	1.021816	-1.165351
C71	C	-0.378578	0.075986	-0.380242
C72	C	-0.364380	0.140628	-0.366058
H73	H	-0.332953	0.053673	-0.334702
H74	H	-0.363247	0.065259	-0.450846
H75	H	-0.449161	0.065187	-0.364780
H76	H	-0.293798	0.151428	-0.381528
H77	H	-0.379703	0.151360	-0.295438
C78	C	-0.386957	0.262664	-0.261933
C79	C	-0.364402	0.278629	-0.366009
H80	H	-0.341319	0.284964	-0.216402
H81	H	-0.377312	0.218810	-0.252367
H82	H	-0.457536	0.273400	-0.246444
H83	H	-0.293826	0.267889	-0.381500
H84	H	-0.374039	0.322493	-0.375579
H85	H	-0.383569	0.982886	-0.907827
H86	H	-0.627421	0.836762	-0.907636
H87	H	-0.905547	0.982835	-0.384975
C88	C	-0.705509	0.789946	-1.050971
C89	C	-0.646500	0.825308	-1.122332
H90	H	-0.751096	0.762621	-1.088172
H91	H	-0.745702	0.817357	-1.008190
H92	H	-0.659746	0.765871	-1.008164
H93	H	-0.692263	0.849387	-1.165134
H94	H	-0.606304	0.797894	-1.165130
H95	H	-0.627800	0.670150	-0.628263
C96	C	-1.048885	1.029710	-0.306992
C97	C	-1.120228	0.994386	-0.365920
H98	H	-1.086100	1.057052	-0.261454
H99	H	-1.006008	1.053760	-0.352801
H100	H	-1.006173	1.002271	-0.266740
H101	H	-1.162935	1.021824	-0.406177
H102	H	-1.163123	0.970334	-0.320104
H103	H	-0.383679	0.670103	-0.384899
C104	C	-0.378685	0.476824	-0.380037
C105	C	-0.364492	0.541466	-0.365846
H106	H	-0.333039	0.454510	-0.334519
H107	H	-0.363381	0.466102	-0.450649
H108	H	-0.449261	0.466020	-0.364549
H109	H	-0.293919	0.552271	-0.381342
H110	H	-0.379789	0.552192	-0.295218
H111	H	-1.104680	0.836759	-0.628546
