data_functionalizedCrystal
_audit_creation_method	'MofGen! by Chris Wilmer'
_symmetry_space_group_name_H-M	'P1'
_symmetry_Int_Tables_number	1
_symmetry_cell_setting	triclinic
loop_
_symmetry_equiv_pos_as_xyz
  x,y,z
_cell_length_a	18.215407
_cell_length_b	12.827892
_cell_length_c	12.827885
_cell_angle_alpha	90.029786
_cell_angle_beta	90.021400
_cell_angle_gamma	90.015840
loop_
_atom_site_label
_atom_site_type_symbol
_atom_site_fract_x
_atom_site_fract_y
_atom_site_fract_z
Zn1	Zn	1.125132	-0.415970	0.590908
Zn2	Zn	1.125057	-0.590747	0.416168
Zn3	Zn	1.002061	-0.416022	0.416175
Zn4	Zn	1.002051	-0.590671	0.590862
O5	O	1.063575	-0.503353	0.503528
O6	O	1.228106	-0.439165	0.567745
O7	O	1.108715	-0.567623	0.269933
O8	O	1.018422	-0.269779	0.439376
O9	O	1.228051	-0.567573	0.439364
O10	O	1.108842	-0.269741	0.567752
O11	O	1.018350	-0.439254	0.269938
O12	O	0.899075	-0.439180	0.439331
O13	O	1.018405	-0.567443	0.737104
O14	O	0.899068	-0.567493	0.567673
O15	O	1.108832	-0.439091	0.737138
O16	O	1.108705	-0.736973	0.439320
O17	O	1.018332	-0.736917	0.567666
C18	C	0.872369	-0.503335	0.503498
C19	C	0.790570	-0.503352	0.503510
C20	C	0.602391	-0.570270	0.570254
C21	C	0.525533	-0.570274	0.570267
C22	C	0.525511	-0.436454	0.436826
C23	C	0.602368	-0.436446	0.436819
C24	C	0.640807	-0.503360	0.503531
C25	C	0.487091	-0.503371	0.503551
C26	C	0.403757	-0.503374	0.503565
C27	C	0.724146	-0.503356	0.503519
C28	C	1.063529	-0.774863	0.503510
C29	C	1.063577	-0.891016	0.503537
C30	C	1.108349	-0.942793	0.440098
C31	C	1.108399	-1.062844	0.440124
C32	C	1.255528	-0.503371	0.503559
C33	C	1.337327	-0.503379	0.503572
C34	C	1.063625	-0.503252	0.776099
C35	C	1.063647	-0.503209	0.892252
C36	C	1.063642	-0.230782	0.503570
C37	C	1.063670	-0.114629	0.503587
C38	C	1.063568	-0.503377	0.232018
C39	C	1.063689	-0.503126	0.115866
C40	C	1.018938	-0.566651	1.064064
C41	C	1.018915	-0.566696	0.944014
H42	H	0.494259	-0.624757	0.624601
F43	F	0.484596	-0.365245	0.365828
H44	H	0.633647	-0.381953	0.382485
H45	H	0.633686	-0.624753	0.624578
H46	H	1.025286	-0.935563	0.557873
F47	F	1.013560	-1.056439	0.574578
H48	H	1.146646	-0.898248	0.385768
H49	H	1.146728	-1.107372	0.385808
H50	H	1.101982	-0.448768	1.071338
F51	F	0.968877	-0.637692	1.122260
F52	F	0.968839	-0.637791	0.885790
H53	H	1.101964	-0.448824	0.936793
