data_functionalizedCrystal
_audit_creation_method	'MofGen! by Chris Wilmer'
_symmetry_space_group_name_H-M	'P1'
_symmetry_Int_Tables_number	1
_symmetry_cell_setting	triclinic
loop_
_symmetry_equiv_pos_as_xyz
  x,y,z
_cell_length_a	14.971486
_cell_length_b	15.995292
_cell_length_c	13.448316
_cell_angle_alpha	89.996588
_cell_angle_beta	89.998199
_cell_angle_gamma	83.541372
loop_
_atom_site_label
_atom_site_type_symbol
_atom_site_fract_x
_atom_site_fract_y
_atom_site_fract_z
O1	O	1.186798	0.109119	-0.082570
O2	O	1.686798	0.609119	0.417430
O3	O	0.926380	0.122187	-0.082596
O4	O	1.426380	0.622187	0.417404
O5	O	1.063735	-0.006231	-0.082584
O6	O	1.563735	0.493769	0.417416
O7	O	1.049444	0.237537	-0.082583
O8	O	1.549444	0.737537	0.417417
O9	O	1.063718	-0.006239	0.082800
O10	O	1.563718	0.493761	0.582800
O11	O	0.926363	0.122179	0.082787
O12	O	1.426363	0.622179	0.582787
O13	O	1.186781	0.109112	0.082814
O14	O	1.686781	0.609112	0.582814
Cu15	Cu	1.056571	0.115644	0.097901
Cu16	Cu	1.556571	0.615644	0.597901
Cu17	Cu	1.056591	0.115654	-0.097684
Cu18	Cu	1.556591	0.615654	0.402316
O19	O	1.049426	0.237529	0.082801
O20	O	1.549426	0.737529	0.582801
C21	C	0.893048	0.121598	0.000092
C22	C	1.393048	0.621598	0.500092
C23	C	0.793753	0.119847	0.000082
C24	C	1.293753	0.619847	0.500082
C25	C	1.063145	-0.037431	0.000105
C26	C	1.563145	0.462569	0.500105
C27	C	1.061401	-0.130386	0.000098
C28	C	1.561401	0.369614	0.500098
C29	C	0.736425	0.195289	0.000084
C30	C	1.236425	0.695289	0.500084
C31	C	0.643128	0.193638	0.000098
C32	C	1.143128	0.693638	0.500098
C33	C	0.607161	0.116545	0.000104
C34	C	1.107161	0.616545	0.500104
C35	C	0.664496	0.041098	0.000105
C36	C	1.164496	0.541098	0.500105
C37	C	0.757792	0.042749	0.000098
C38	C	1.257792	0.542749	0.500098
C39	C	0.470038	0.037661	0.000119
C40	C	0.970038	0.537661	0.500119
C41	C	0.376737	0.036009	0.000125
C42	C	0.876737	0.536009	0.500125
C43	C	0.355375	0.188550	0.000120
C44	C	0.855375	0.688550	0.500120
C45	C	0.448670	0.190202	0.000112
C46	C	0.948670	0.690202	0.500112
C47	C	0.505999	0.114754	0.000111
C48	C	1.005999	0.614754	0.500111
C49	C	1.054990	-0.468130	0.000106
C50	C	1.554990	0.031870	0.500106
C51	C	1.154129	-0.444719	0.000485
C52	C	1.654129	0.055281	0.500485
C53	C	1.156014	-0.348041	0.000109
C54	C	1.656014	0.151959	0.500109
C55	C	1.058171	-0.300571	0.000102
C56	C	1.558171	0.199429	0.500102
C57	C	1.008616	-0.329717	-0.094342
C58	C	1.508616	0.170283	0.405658
C59	C	1.007423	-0.426509	-0.094417
C60	C	1.507423	0.073491	0.405583
C61	C	1.005379	-0.426377	0.093655
C62	C	1.505379	0.073623	0.593655
C63	C	1.009053	-0.329881	0.094900
C64	C	1.509053	0.170119	0.594900
C65	C	1.059964	-0.205873	0.000097
C66	C	1.559964	0.294127	0.500097
C67	C	1.053195	-0.562828	0.000105
C68	C	1.553195	-0.062828	0.500105
C69	C	1.220114	0.109700	0.000123
C70	C	1.720114	0.609700	0.500123
C71	C	1.319408	0.111451	0.000127
C72	C	1.819408	0.611451	0.500127
C73	C	1.050017	0.268729	0.000110
C74	C	1.550017	0.768729	0.500110
C75	C	1.051760	0.361684	0.000111
C76	C	1.551760	0.861684	0.500111
N77	N	1.056563	0.115637	0.235466
N78	N	1.556563	0.615637	0.735466
N79	N	1.056606	0.115654	-0.235249
N80	N	1.556606	0.615654	0.264751
C81	C	1.117402	0.058797	0.287511
C82	C	1.617402	0.558797	0.787511
C83	C	1.117408	0.058797	0.391615
C84	C	1.617408	0.558797	0.891615
C85	C	1.056578	0.115641	0.443670
C86	C	1.556578	0.615641	0.943670
C87	C	0.995732	0.172483	0.391617
C88	C	1.495732	0.672483	0.891617
C89	C	0.995722	0.172479	0.287516
C90	C	1.495722	0.672479	0.787516
C91	C	0.995756	0.172489	0.608597
C92	C	1.495756	0.672489	1.108597
C93	C	0.995766	0.172494	0.712706
C94	C	1.495766	0.672494	1.212706
C95	C	1.117442	0.058806	0.712696
C96	C	1.617442	0.558806	1.212696
C97	C	1.117433	0.058802	0.608595
C98	C	1.617433	0.558802	1.108595
C99	C	1.056588	0.115646	0.556549
C100	C	1.556588	0.615646	1.056549
H101	H	0.765701	0.258067	0.000078
H102	H	1.265701	0.758067	0.500078
H103	H	1.166969	0.012520	0.566211
H104	H	1.666969	0.512520	1.066211
N105	N	1.179487	0.000694	0.234325
N106	N	1.679487	0.500694	0.734325
N107	N	1.178219	-0.076695	0.245968
N108	N	1.678219	0.423305	0.745968
H109	H	1.222046	-0.117745	0.208395
H110	H	1.722046	0.382255	0.708395
H111	H	1.195067	-0.329595	-0.067703
H112	H	1.695067	0.170405	0.432297
H113	H	1.192335	-0.472681	0.068216
H114	H	1.692335	0.027319	0.568216
H115	H	0.937637	-0.296984	0.100598
H116	H	1.437637	0.203016	0.600598
N117	N	0.933579	0.230554	0.234364
N118	N	1.433579	0.730554	0.734364
N119	N	0.934783	0.307952	0.245982
N120	N	1.434783	0.807952	0.745982
H121	H	0.890890	0.348968	0.208445
H122	H	1.390890	0.848968	0.708445
H123	H	1.166947	0.012513	0.433990
H124	H	1.666947	0.512513	0.933990
N125	N	0.913830	-0.444006	0.094450
N126	N	1.413830	0.055994	0.594450
N127	N	0.862927	-0.420380	0.023765
N128	N	1.362927	0.079620	0.523765
H129	H	0.798273	-0.432832	0.024320
H130	H	1.298273	0.067168	0.524320
N131	N	1.179561	0.000720	0.765869
N132	N	1.679561	0.500720	1.265869
N133	N	1.179542	0.000708	0.858816
N134	N	1.679542	0.500708	1.358816
H135	H	1.223402	-0.040321	0.896375
H136	H	1.723402	0.459679	1.396375
H137	H	0.477951	0.252978	0.000098
H138	H	0.977951	0.752978	0.500098
N139	N	0.933607	0.230543	0.555417
N140	N	1.433607	0.730543	1.055417
N141	N	0.878091	0.203890	0.497338
N142	N	1.378091	0.703890	0.997338
H143	H	0.834201	0.244892	0.459777
H144	H	1.334201	0.744892	0.959777
H145	H	0.946231	0.218781	0.755084
H146	H	1.446231	0.718781	1.255084
H147	H	0.347456	-0.026767	0.000131
H148	H	0.847456	0.473233	0.500131
N149	N	0.584581	0.270708	0.000106
N150	N	1.084581	0.770708	0.500106
N151	N	0.616706	0.339536	0.000096
N152	N	1.116706	0.839536	0.500096
H153	H	0.575358	0.393971	0.000103
H154	H	1.075358	0.893971	0.500103
N155	N	0.933589	0.230555	0.444772
N156	N	1.433589	0.730555	0.944772
N157	N	0.879270	0.281299	0.398286
N158	N	1.379270	0.781299	0.898286
H159	H	0.835380	0.322315	0.435824
H160	H	1.335380	0.822315	0.935824
N161	N	1.054296	-0.306516	0.182550
N162	N	1.554296	0.193484	0.682550
N163	N	1.013339	-0.258648	0.245019
N164	N	1.513339	0.241352	0.745019
H165	H	1.045292	-0.242135	0.306920
H166	H	1.545292	0.257865	0.806920
H167	H	0.516714	-0.023777	0.000120
H168	H	1.016714	0.476223	0.500120
N169	N	0.296812	0.265616	0.000151
N170	N	0.796812	0.765616	0.500151
N171	N	0.242383	0.281706	0.069880
N172	N	0.742383	0.781706	0.569880
H173	H	0.201021	0.336133	0.069905
H174	H	0.701021	0.836133	0.569905
N175	N	0.627760	-0.037652	0.000132
N176	N	1.127760	0.462348	0.500132
N177	N	0.578087	-0.055593	0.069851
N178	N	1.078087	0.444407	0.569851
H179	H	0.552143	-0.111212	0.069870
H180	H	1.052143	0.388788	0.569870
N181	N	1.050494	-0.460096	-0.182980
N182	N	1.550494	0.039904	0.317020
N183	N	1.081225	-0.412026	-0.244301
N184	N	1.581225	0.087974	0.255699
H185	H	1.111646	-0.435742	-0.306850
H186	H	1.611646	0.064258	0.193150
N187	N	0.816341	-0.034321	0.000107
N188	N	1.316341	0.465679	0.500107
N189	N	0.784220	-0.103149	0.000117
N190	N	1.284220	0.396851	0.500117
H191	H	0.825569	-0.157583	0.000129
H192	H	1.325569	0.342417	0.500129
H193	H	1.192137	-0.473695	-0.066857
H194	H	1.692137	0.026305	0.433143
N195	N	1.204702	-0.324137	0.085041
N196	N	1.704702	0.175863	0.585041
N197	N	1.237526	-0.378907	0.145009
N198	N	1.737526	0.121093	0.645009
H199	H	1.271918	-0.362029	0.204993
H200	H	1.771918	0.137971	0.704993
H201	H	0.934734	-0.441132	-0.098702
H202	H	1.434734	0.058868	0.401298
H203	H	0.936618	-0.297922	-0.097858
H204	H	1.436618	0.202078	0.402142
H205	H	1.043043	-0.309619	-0.164621
H206	H	1.543043	0.190381	0.335379
N207	N	1.044330	-0.461801	0.183450
N208	N	1.544330	0.038199	0.683450
N209	N	1.109136	-0.518258	0.179587
N210	N	1.609136	-0.018258	0.679587
H211	H	1.136654	-0.543280	0.243000
H212	H	1.636654	-0.043280	0.743000
