data_functionalizedCrystal
_audit_creation_method	'MofGen! by Chris Wilmer'
_symmetry_space_group_name_H-M	'P1'
_symmetry_Int_Tables_number	1
_symmetry_cell_setting	triclinic
loop_
_symmetry_equiv_pos_as_xyz
  x,y,z
_cell_length_a	6.817900
_cell_length_b	11.102289
_cell_length_c	17.078481
_cell_angle_alpha	95.111625
_cell_angle_beta	99.306161
_cell_angle_gamma	108.605707
loop_
_atom_site_label
_atom_site_type_symbol
_atom_site_fract_x
_atom_site_fract_y
_atom_site_fract_z
V1	V	-4.005700	-0.175542	-0.247361
O2	O	-3.966747	0.008741	-0.242653
O3	O	-3.983201	-0.348365	-0.245670
O4	O	-3.936325	-0.172708	-0.355244
O5	O	-4.013948	-0.168132	-0.132319
V6	V	-4.488690	-0.153516	-0.233602
O7	O	-4.268129	-0.223859	-0.277545
O8	O	-4.676459	-0.105199	-0.203418
O9	O	-4.287983	0.019306	-0.235293
O10	O	-4.645040	-0.337799	-0.238310
O11	O	-4.597839	-0.160927	-0.348644
O12	O	-4.334858	-0.156350	-0.125719
C13	C	-3.835182	-0.390499	-0.241767
C14	C	-3.897933	-0.531783	-0.241103
C15	C	-3.775386	-0.166430	-0.381540
C16	C	-3.800119	-0.165257	-0.469735
C17	C	-4.109727	-0.604627	-0.244749
C18	C	-4.168680	-0.737379	-0.244131
C19	C	-3.804020	-0.724430	-0.236219
C20	C	-3.745073	-0.591682	-0.236842
C21	C	-4.320260	-0.612103	-0.249313
C22	C	-4.379213	-0.744855	-0.248696
C23	C	-3.994021	-0.171049	-0.515211
C24	C	-4.017249	-0.169946	-0.598079
C25	C	-3.846575	-0.163058	-0.635470
C26	C	-3.652655	-0.157261	-0.589988
C27	C	-3.629426	-0.158356	-0.507121
C28	C	-3.896497	-0.159097	-0.882874
C29	C	-3.919744	-0.158006	-0.965748
C30	C	-4.284335	-0.170689	-0.973832
C31	C	-4.261092	-0.171790	-0.890963
C32	C	-4.067172	-0.165986	-0.845488
N33	N	-3.870314	-0.161934	-0.720175
N34	N	-4.043431	-0.167101	-0.760784
C35	C	-4.099346	0.061434	-0.239194
C36	C	-4.015832	0.202717	-0.239863
C37	C	-4.159142	-0.162632	-0.099419
C38	C	-4.113646	-0.163799	-0.011223
H39	H	-3.679575	-0.773217	-0.232751
O40	O	-4.520412	-0.821432	-0.326560
H41	H	-4.547626	-0.754675	-0.368337
H42	H	-4.407441	-0.592813	-0.307012
H43	H	-3.471517	-0.153607	-0.470092
O44	O	-3.516637	-0.513119	-0.232919
H45	H	-3.502830	-0.465846	-0.287345
H46	H	-3.780748	-0.152394	-0.996189
O47	O	-3.687356	-0.152849	-0.833832
H48	H	-3.645790	-0.236624	-0.856265
H49	H	-4.442218	-0.175412	-1.010867
H50	H	-4.175138	-0.174656	-0.635101
O51	O	-4.351979	-0.541663	-0.175210
H52	H	-4.416488	-0.611675	-0.135423
H53	H	-4.453706	-0.769889	-0.194502
O54	O	-4.178111	-0.178481	-0.474884
H55	H	-4.134871	-0.092273	-0.428849
H56	H	-3.513688	-0.151646	-0.620438
H57	H	-4.400077	-0.177397	-0.860525
