data_functionalizedCrystal
_audit_creation_method	'MofGen! by Chris Wilmer'
_symmetry_space_group_name_H-M	'P1'
_symmetry_Int_Tables_number	1
_symmetry_cell_setting	triclinic
loop_
_symmetry_equiv_pos_as_xyz
  x,y,z
_cell_length_a	23.532407
_cell_length_b	23.532357
_cell_length_c	15.072220
_cell_angle_alpha	89.993295
_cell_angle_beta	89.992868
_cell_angle_gamma	82.838485
loop_
_atom_site_label
_atom_site_type_symbol
_atom_site_fract_x
_atom_site_fract_y
_atom_site_fract_z
O1	O	0.755254	0.069133	-0.073682
O2	O	1.255254	0.569133	0.426318
O3	O	0.589389	0.079136	-0.073710
O4	O	1.089389	0.579136	0.426290
O5	O	0.677338	-0.008799	-0.073677
O6	O	1.177338	0.491201	0.426323
O7	O	0.667305	0.157068	-0.073715
O8	O	1.167305	0.657068	0.426285
O9	O	0.677316	-0.008794	0.073888
O10	O	1.177316	0.491206	0.573888
O11	O	0.589367	0.079141	0.073855
O12	O	1.089367	0.579141	0.573855
O13	O	0.755233	0.069138	0.073883
O14	O	1.255233	0.569138	0.573883
Zn15	Zn	0.672296	0.074140	0.097298
Zn16	Zn	1.172296	0.574140	0.597298
Zn17	Zn	0.672325	0.074134	-0.097125
Zn18	Zn	1.172325	0.574134	0.402875
O19	O	0.667283	0.157073	0.073850
O20	O	1.167283	0.657073	0.573850
C21	C	0.568162	0.078884	0.000069
C22	C	1.068162	0.578884	0.500069
C23	C	0.504945	0.078118	0.000060
C24	C	1.004945	0.578118	0.500060
C25	C	0.105834	0.125353	0.000089
C26	C	0.605834	0.625353	0.500089
C27	C	0.046434	0.124641	0.000095
C28	C	0.546434	0.624641	0.500095
O29	O	0.009681	0.168428	0.000117
O30	O	0.509681	0.668428	0.500117
N31	N	0.023817	0.072364	0.000105
N32	N	0.523817	0.572364	0.500105
C33	C	0.060604	0.020794	0.000119
C34	C	0.560604	0.520794	0.500119
O35	O	0.035912	-0.023737	0.000129
O36	O	0.535912	0.476263	0.500129
C37	C	0.120003	0.021506	0.000120
C38	C	0.620003	0.521506	0.500120
C39	C	0.142616	0.073787	0.000100
C40	C	0.642616	0.573787	0.500100
C41	C	0.128448	0.177629	0.000070
C42	C	0.628448	0.677629	0.500070
C43	C	0.187844	0.178341	0.000063
C44	C	0.687844	0.678341	0.500063
C45	C	0.224626	0.126775	0.000075
C46	C	0.724626	0.626775	0.500075
C47	C	0.202012	0.074498	0.000093
C48	C	0.702012	0.574498	0.500093
C49	C	0.156788	-0.030063	0.000140
C50	C	0.656788	0.469937	0.500140
C51	C	0.216191	-0.029346	0.000142
C52	C	0.716191	0.470654	0.500142
C53	C	0.238804	0.022935	0.000122
C54	C	0.738804	0.522935	0.500122
C55	C	0.298190	0.023644	0.000097
C56	C	0.798190	0.523644	0.500097
N57	N	0.320807	0.075922	0.000087
N58	N	0.820807	0.575922	0.500087
C59	C	0.284025	0.127487	0.000075
C60	C	0.784025	0.627487	0.500075
C61	C	-0.064139	0.019303	0.000119
C62	C	0.435861	0.519303	0.500119
C63	C	-0.123536	0.018590	0.000112
C64	C	0.376464	0.518590	0.500112
C65	C	-0.137702	0.122437	0.000089
C66	C	0.362298	0.622437	0.500089
C67	C	-0.078303	0.123149	0.000090
C68	C	0.421697	0.623149	0.500090
C69	C	-0.041522	0.071580	0.000109
C70	C	0.458478	0.571580	0.500109
C71	C	0.408761	0.128977	0.000059
C72	C	0.908761	0.628977	0.500059
C73	C	0.468163	0.129684	0.000048
C74	C	0.968163	0.629684	0.500048
C75	C	0.482324	0.025837	0.000076
C76	C	0.982324	0.525837	0.500076
C77	C	0.422927	0.025130	0.000082
C78	C	0.922927	0.525130	0.500082
C79	C	0.386147	0.076704	0.000077
C80	C	0.886147	0.576704	0.500077
O81	O	0.334977	-0.020120	0.000079
O82	O	0.834977	0.479880	0.500079
O83	O	0.308725	0.172011	0.000077
O84	O	0.808725	0.672011	0.500077
C85	C	0.677076	-0.030013	0.000108
C86	C	1.177076	0.469987	0.500108
C87	C	0.676322	-0.093232	0.000116
C88	C	1.176322	0.406768	0.500116
C89	C	0.671597	-0.485246	-0.080370
C90	C	1.171597	0.014754	0.419630
C91	C	0.670880	-0.544645	-0.080375
C92	C	1.170880	-0.044645	0.419625
O93	O	0.670499	-0.575364	-0.148784
O94	O	1.170499	-0.075364	0.351216
N95	N	0.670512	-0.574354	0.000061
N96	N	1.170512	-0.074354	0.500061
C97	C	0.670856	-0.544659	0.080508
C98	C	1.170856	-0.044659	0.580508
O99	O	0.670477	-0.575383	0.148925
O100	O	1.170477	-0.075383	0.648925
C101	C	0.671569	-0.485260	0.080513
C102	C	1.171569	0.014740	0.580513
C103	C	0.671943	-0.455556	0.000071
C104	C	1.171943	0.044444	0.500071
C105	C	0.671969	-0.455541	-0.160805
C106	C	1.171969	0.044459	0.339195
C107	C	0.672688	-0.396146	-0.160800
C108	C	1.172688	0.103854	0.339200
C109	C	0.673033	-0.366456	-0.080359
C110	C	1.173033	0.133544	0.419641
C111	C	0.672661	-0.396160	0.000076
C112	C	1.172661	0.103840	0.500076
C113	C	0.671909	-0.455566	0.160959
C114	C	1.171909	0.044434	0.660959
C115	C	0.672622	-0.396163	0.160956
C116	C	1.172622	0.103837	0.660956
C117	C	0.672995	-0.366458	0.080514
C118	C	1.172995	0.133542	0.580514
C119	C	0.673725	-0.307075	0.080523
C120	C	1.173725	0.192925	0.580523
N121	N	0.674092	-0.277366	0.000086
N122	N	1.174092	0.222634	0.500086
C123	C	0.673746	-0.307057	-0.080355
C124	C	1.173746	0.192943	0.419645
C125	C	0.669357	-0.669401	0.080493
C126	C	1.169357	-0.169401	0.580493
C127	C	0.668648	-0.728799	0.080490
C128	C	1.168648	-0.228799	0.580490
C129	C	0.668671	-0.728781	-0.080394
C130	C	1.168671	-0.228781	0.419606
C131	C	0.669384	-0.669382	-0.080390
C132	C	1.169384	-0.169382	0.419610
C133	C	0.669725	-0.639692	0.000057
C134	C	1.169725	-0.139692	0.500057
C135	C	0.675255	-0.182323	-0.080337
C136	C	1.175255	0.317677	0.419663
C137	C	0.675976	-0.122922	-0.080324
C138	C	1.175976	0.377078	0.419676
C139	C	0.675951	-0.122945	0.080559
C140	C	1.175951	0.377055	0.580559
C141	C	0.675233	-0.182340	0.080547
C142	C	1.175233	0.317660	0.580547
C143	C	0.674883	-0.212027	0.000092
C144	C	1.174883	0.287973	0.500092
O145	O	0.674103	-0.276318	0.148897
O146	O	1.174103	0.223682	0.648897
O147	O	0.674118	-0.276325	-0.148760
O148	O	1.174118	0.223675	0.351240
C149	C	0.776459	0.069390	0.000101
C150	C	1.276459	0.569390	0.500101
C151	C	0.839676	0.070156	0.000105
C152	C	1.339676	0.570156	0.500105
C153	C	0.667545	0.178287	0.000063
C154	C	1.167545	0.678287	0.500063
C155	C	0.668300	0.241506	0.000049
C156	C	1.168300	0.741506	0.500049
N157	N	0.672281	0.074144	0.229987
N158	N	1.172281	0.574144	0.729987
N159	N	0.672345	0.074125	-0.229814
N160	N	1.172345	0.574125	0.270186
C161	C	0.672324	0.074131	0.589188
C162	C	1.172324	0.574131	1.089188
C163	C	0.625108	0.121028	0.551564
C164	C	1.125108	0.621028	1.051564
C165	C	0.625214	0.121198	0.448738
C166	C	1.125214	0.621198	0.948738
C167	C	0.672302	0.074138	0.410984
C168	C	1.172302	0.574138	0.910984
C169	C	0.731651	0.086781	0.448282
C170	C	1.231651	0.586781	0.948282
C171	C	0.731386	0.087114	0.551140
C172	C	1.231386	0.587114	1.051140
C173	C	0.660722	0.014450	0.551300
C174	C	1.160722	0.514450	1.051300
C175	C	0.659356	0.014857	0.448436
C176	C	1.159356	0.514857	0.948436
C177	C	0.672294	0.074140	0.310271
C178	C	1.172294	0.574140	0.810271
C179	C	0.672336	0.074130	0.689902
C180	C	1.172336	0.574130	1.189902
H181	H	0.098505	0.219623	0.000064
H182	H	0.598505	0.719623	0.500064
O183	O	0.668260	-0.760837	0.167252
O184	O	1.168260	-0.260837	0.667252
H185	H	0.629114	-0.782604	0.171096
H186	H	1.129114	-0.282604	0.671096
H187	H	-0.141942	-0.023982	0.000114
H188	H	0.358058	0.476018	0.500114
H189	H	0.691539	-0.021650	0.422741
H190	H	1.191539	0.478350	0.922741
O191	O	0.674842	-0.214377	0.167314
O192	O	1.174842	0.285623	0.667314
H193	H	0.713340	-0.246736	0.171170
H194	H	1.213340	0.253264	0.671170
O195	O	0.212232	0.234729	0.000051
O196	O	0.712232	0.734729	0.500051
H197	H	0.238953	0.237536	0.060194
H198	H	0.738953	0.737536	0.560194
H199	H	0.246136	-0.071341	0.000157
H200	H	0.746136	0.428659	0.500157
H201	H	0.404515	-0.017442	0.000085
H202	H	0.904515	0.482558	0.500085
H203	H	0.674968	-0.206486	-0.145851
H204	H	1.174968	0.293514	0.354149
O205	O	0.669741	-0.637380	0.167265
O206	O	1.169741	-0.137380	0.667265
H207	H	0.669372	-0.668023	0.223190
H208	H	1.169372	-0.168023	0.723190
O209	O	0.676370	-0.090885	-0.167092
O210	O	1.176370	0.409115	0.332908
H211	H	0.715056	-0.107587	-0.205666
H212	H	1.215056	0.392413	0.294334
H213	H	0.378821	0.170974	0.000058
H214	H	0.878821	0.670974	0.500058
O215	O	0.673085	-0.364114	-0.247566
O216	O	1.173085	0.135886	0.252434
H217	H	0.673644	-0.317821	-0.234063
H218	H	1.173644	0.182179	0.265937
H219	H	0.676235	-0.098761	0.146052
H220	H	1.176235	0.401239	0.646052
H221	H	0.581089	0.113714	0.423522
H222	H	1.081089	0.613714	0.923522
H223	H	0.632587	0.165493	0.424116
H224	H	1.132587	0.665493	0.924116
O225	O	0.601526	0.002134	0.416164
O226	O	1.101526	0.502134	0.916164
H227	H	0.582082	0.037876	0.373621
H228	H	1.082082	0.537876	0.873621
H229	H	0.695159	-0.020444	0.575631
H230	H	1.195159	0.479556	1.075631
H231	H	0.671606	-0.479741	0.226463
H232	H	1.171606	0.020259	0.726463
O233	O	0.566465	0.111299	0.584365
O234	O	1.066465	0.611299	1.084365
H235	H	0.570342	0.072937	0.627840
H236	H	1.070342	0.572937	1.127840
O237	O	0.744997	0.144752	0.582907
O238	O	1.244997	0.644752	1.082907
H239	H	0.751704	0.172126	0.524804
H240	H	1.251704	0.672126	1.024804
O241	O	-0.024467	-0.036322	0.000126
O242	O	0.475533	0.463678	0.500126
H243	H	-0.050178	-0.072789	0.000126
H244	H	0.449822	0.427211	0.500126
O245	O	-0.053918	0.179539	0.000087
O246	O	0.446082	0.679539	0.500087
H247	H	-0.068715	0.204301	-0.060059
H248	H	0.431285	0.704301	0.439941
O249	O	0.492550	0.186076	0.000042
O250	O	0.992550	0.686076	0.500042
H251	H	0.477749	0.210840	-0.060101
H252	H	0.977749	0.710840	0.439899
O253	O	-0.177380	0.178058	0.000092
O254	O	0.322620	0.678058	0.500092
H255	H	-0.222481	0.168775	0.000107
H256	H	0.277519	0.668775	0.500107
H257	H	0.671686	-0.479709	-0.226313
H258	H	1.171686	0.020291	0.273687
O259	O	0.668283	-0.760803	-0.167165
O260	O	1.168283	-0.260803	0.332835
H261	H	0.706774	-0.793171	-0.171019
H262	H	1.206774	-0.293171	0.328981
O263	O	0.132406	-0.086452	0.000180
O264	O	0.632406	0.413548	0.500180
H265	H	0.167971	-0.122183	0.000204
H266	H	0.667971	0.377817	0.500204
O267	O	0.522001	-0.029780	0.000101
O268	O	1.022001	0.470220	0.500101
H269	H	0.567102	-0.020497	0.000107
H270	H	1.067102	0.479503	0.500107
H271	H	0.672891	-0.371991	0.226467
H272	H	1.172891	0.128009	0.726467
O273	O	0.634732	0.179376	0.585765
O274	O	1.134732	0.679376	1.085765
H275	H	0.672999	0.175121	0.629442
H276	H	1.172999	0.675121	1.129442
H277	H	0.669687	-0.645201	-0.145893
H278	H	1.169687	-0.145201	0.354107
O279	O	0.779301	0.043574	0.584118
O280	O	1.279301	0.543574	1.084118
H281	H	0.802562	0.022377	0.526598
H282	H	1.302562	0.522377	1.026598
H283	H	0.767611	0.053519	0.423826
H284	H	1.267611	0.553519	0.923826
O285	O	0.745603	0.143764	0.414156
O286	O	1.245603	0.643764	0.914156
H287	H	0.710363	0.163167	0.370641
H288	H	1.210363	0.663167	0.870641
H289	H	0.618404	0.002210	0.577287
H290	H	1.118404	0.502210	1.077287
