data_functionalizedCrystal
_audit_creation_method	'MofGen! by Chris Wilmer'
_symmetry_space_group_name_H-M	'P1'
_symmetry_Int_Tables_number	1
_symmetry_cell_setting	triclinic
loop_
_symmetry_equiv_pos_as_xyz
  x,y,z
_cell_length_a	14.519709
_cell_length_b	10.540539
_cell_length_c	12.996460
_cell_angle_alpha	89.996006
_cell_angle_beta	90.000034
_cell_angle_gamma	84.102818
loop_
_atom_site_label
_atom_site_type_symbol
_atom_site_fract_x
_atom_site_fract_y
_atom_site_fract_z
O1	O	1.224765	0.166400	-0.085428
O2	O	1.558099	0.499733	0.247906
O3	O	1.891432	0.833067	0.581239
O4	O	0.956394	0.185995	-0.085459
O5	O	1.289727	0.519329	0.247875
O6	O	1.623061	0.852662	0.581208
O7	O	1.096702	-0.008571	-0.085441
O8	O	1.430036	0.324762	0.247892
O9	O	1.763369	0.658095	0.581225
O10	O	1.084457	0.360967	-0.085445
O11	O	1.417790	0.694300	0.247888
O12	O	1.751124	1.027633	0.581221
O13	O	1.096688	-0.008582	0.085693
O14	O	1.430021	0.324751	0.419026
O15	O	1.763354	0.658085	0.752359
O16	O	0.956379	0.185985	0.085675
O17	O	1.289713	0.519318	0.419008
O18	O	1.623046	0.852651	0.752342
O19	O	1.224751	0.166389	0.085706
O20	O	1.558084	0.499722	0.419039
O21	O	1.891417	0.833056	0.752373
Cu22	Cu	1.090563	0.176186	0.101316
Cu23	Cu	1.423897	0.509519	0.434650
Cu24	Cu	1.757230	0.842853	0.767983
Cu25	Cu	1.090581	0.176199	-0.101069
Cu26	Cu	1.423914	0.509532	0.232264
Cu27	Cu	1.757248	0.842865	0.565598
O28	O	1.084442	0.360956	0.085689
O29	O	1.417775	0.694289	0.419022
O30	O	1.751109	1.027623	0.752355
C31	C	0.922022	0.185077	0.000104
C32	C	1.255355	0.518410	0.333438
C33	C	1.588689	0.851743	0.666771
C34	C	0.819626	0.182340	0.000092
C35	C	1.152959	0.515674	0.333426
C36	C	1.486293	0.849007	0.666759
C37	C	0.444676	0.172265	0.000139
C38	C	0.778009	0.505599	0.333473
C39	C	1.111342	0.838932	0.666806
C40	C	0.548999	0.175063	0.000126
C41	C	0.882332	0.508397	0.333459
C42	C	1.215665	0.841730	0.666793
C43	C	0.632148	0.177303	0.000115
C44	C	0.965481	0.510636	0.333448
C45	C	1.298814	0.843969	0.666781
C46	C	0.736477	0.180101	0.000103
C47	C	1.069811	0.513434	0.333437
C48	C	1.403144	0.846768	0.666770
C49	C	1.095777	-0.055870	0.000124
C50	C	1.429110	0.277463	0.333457
C51	C	1.762443	0.610796	0.666790
C52	C	1.093029	-0.196790	0.000118
C53	C	1.426363	0.136543	0.333451
C54	C	1.759696	0.469876	0.666784
C55	C	0.987750	-0.379142	-0.000278
C56	C	1.321083	-0.045809	0.333055
C57	C	1.654416	0.287524	0.666388
C58	C	0.990535	-0.232553	0.000107
C59	C	1.323868	0.100781	0.333440
C60	C	1.657202	0.434114	0.666774
C61	C	1.142346	-0.258958	0.097849
C62	C	1.475679	0.074376	0.431183
C63	C	1.809012	0.407709	0.764516
C64	C	1.138848	-0.405467	0.097931
C65	C	1.472181	-0.072133	0.431265
C66	C	1.805514	0.261200	0.764598
C67	C	1.140949	-0.405994	-0.096680
C68	C	1.474282	-0.072660	0.236654
C69	C	1.807616	0.260673	0.569987
C70	C	1.141893	-0.259021	-0.097972
C71	C	1.475226	0.074312	0.235362
C72	C	1.808560	0.407645	0.568695
C73	C	1.259123	0.167308	0.000141
C74	C	1.592456	0.500641	0.333474
C75	C	1.925789	0.833974	0.666808
C76	C	1.361519	0.170044	0.000146
C77	C	1.694852	0.503378	0.333479
C78	C	2.028185	0.836711	0.666813
C79	C	1.085368	0.408255	0.000121
C80	C	1.418701	0.741588	0.333455
C81	C	1.752035	1.074922	0.666788
C82	C	1.088115	0.549175	0.000120
C83	C	1.421449	0.882508	0.333454
C84	C	1.754782	1.215842	0.666787
N85	N	1.090558	0.176176	0.243664
N86	N	1.423891	0.509509	0.576997
N87	N	1.757225	0.842843	0.910330
N88	N	1.090594	0.176198	-0.243416
N89	N	1.423927	0.509532	0.089917
N90	N	1.757261	0.842865	0.423250
C91	C	1.090580	0.176200	0.663478
C92	C	1.423913	0.509533	0.996811
C93	C	1.757246	0.842867	1.330145
C94	C	1.090571	0.176198	0.546673
C95	C	1.423904	0.509531	0.880006
C96	C	1.757238	0.842864	1.213339
C97	C	1.090569	0.176189	0.453574
C98	C	1.423903	0.509522	0.786908
C99	C	1.757236	0.842856	1.120241
C100	C	1.090560	0.176185	0.336762
C101	C	1.423893	0.509518	0.670095
C102	C	1.757226	0.842851	1.003429
H103	H	0.951730	-0.189549	-0.069951
H104	H	1.285063	0.143784	0.263382
H105	H	1.618396	0.477118	0.596716
O106	O	1.239010	-0.469553	-0.097536
O107	O	1.572343	-0.136220	0.235797
O108	O	1.905677	0.197114	0.569130
H109	H	1.288120	-0.395567	-0.095012
H110	H	1.621453	-0.062233	0.238322
H111	H	1.954786	0.271100	0.571655
O112	O	1.242044	-0.230354	0.102692
O113	O	1.575377	0.102980	0.436025
O114	O	1.908711	0.436313	0.769358
H115	H	1.279238	-0.269165	0.033088
H116	H	1.612572	0.064168	0.366421
H117	H	1.945905	0.397502	0.699754
O118	O	1.096961	-0.202081	0.194184
O119	O	1.430295	0.131252	0.527517
O120	O	1.763628	0.464585	0.860851
H121	H	1.039289	-0.129556	0.172703
H122	H	1.372622	0.203777	0.506036
H123	H	1.705956	0.537110	0.839370
H124	H	1.107783	-0.437203	-0.170753
H125	H	1.441116	-0.103870	0.162580
H126	H	1.774450	0.229463	0.495913
O127	O	1.094172	-0.204306	-0.193751
O128	O	1.427505	0.129027	0.139582
O129	O	1.760838	0.462360	0.472916
H130	H	1.035896	-0.133080	-0.171599
H131	H	1.369230	0.200253	0.161734
H132	H	1.702563	0.533587	0.495068
H133	H	1.216620	-0.235562	-0.103864
H134	H	1.549953	0.097771	0.229469
H135	H	1.883286	0.431104	0.562802
H136	H	0.947421	-0.408943	0.069405
H137	H	1.280754	-0.075609	0.402739
H138	H	1.614087	0.257724	0.736072
O139	O	0.934117	-0.416497	-0.093102
O140	O	1.267451	-0.083164	0.240232
O141	O	1.600784	0.250170	0.573565
H142	H	0.970467	-0.391370	-0.164232
H143	H	1.303800	-0.058037	0.169102
H144	H	1.637134	0.275297	0.502435
O145	O	0.938778	-0.176704	0.093061
O146	O	1.272112	0.156629	0.426394
O147	O	1.605445	0.489962	0.759727
H148	H	0.911667	-0.254416	0.137917
H149	H	1.245000	0.078918	0.471251
H150	H	1.578333	0.412251	0.804584
H151	H	1.102388	-0.433299	0.170979
H152	H	1.435721	-0.099965	0.504312
H153	H	1.769055	0.233368	0.837646
H154	H	1.212560	-0.454188	0.102373
H155	H	1.545893	-0.120854	0.435707
H156	H	1.879226	0.212479	0.769040
