data_functionalizedCrystal
_audit_creation_method	'MofGen! by Chris Wilmer'
_symmetry_space_group_name_H-M	'P1'
_symmetry_Int_Tables_number	1
_symmetry_cell_setting	triclinic
loop_
_symmetry_equiv_pos_as_xyz
  x,y,z
_cell_length_a	12.827893
_cell_length_b	21.295417
_cell_length_c	21.295412
_cell_angle_alpha	90.031187
_cell_angle_beta	90.014442
_cell_angle_gamma	90.030477
loop_
_atom_site_label
_atom_site_type_symbol
_atom_site_fract_x
_atom_site_fract_y
_atom_site_fract_z
Zn1	Zn	1.597510	-0.250622	0.355878
Zn2	Zn	1.597373	-0.355892	0.250603
Zn3	Zn	1.422766	-0.250640	0.250626
Zn4	Zn	1.422691	-0.355857	0.355839
O5	O	1.510085	-0.303253	0.303236
O6	O	1.743728	-0.264593	0.341920
O7	O	1.574185	-0.341952	0.162517
O8	O	1.446035	-0.162548	0.264614
O9	O	1.743627	-0.341934	0.264575
O10	O	1.574419	-0.162535	0.341942
O11	O	1.445902	-0.264624	0.162534
O12	O	1.276520	-0.264591	0.264576
O13	O	1.445907	-0.341876	0.443933
O14	O	1.276465	-0.341893	0.341875
O15	O	1.574346	-0.264560	0.443962
O16	O	1.574112	-0.443976	0.264537
O17	O	1.445773	-0.443951	0.341853
C18	C	1.238575	-0.303241	0.303224
C19	C	1.122422	-0.303251	0.303234
C20	C	1.070637	-0.341562	0.341425
C21	C	0.950587	-0.341573	0.341436
C22	C	1.509948	-0.466804	0.303202
C23	C	1.509985	-0.536773	0.303208
C24	C	1.576870	-0.569631	0.262991
C25	C	1.576919	-0.635374	0.263005
C26	C	1.510064	-0.668255	0.303229
C27	C	1.443174	-0.635388	0.343454
C28	C	1.443135	-0.569647	0.343444
N29	N	1.418647	-0.771521	0.308024
N30	N	1.418688	-0.833972	0.308031
C31	C	1.510181	-0.866330	0.303266
N32	N	1.601635	-0.833876	0.298481
N33	N	1.601593	-0.771419	0.298471
C34	C	1.510100	-0.739540	0.303246
C35	C	1.577125	-0.970474	0.263062
C36	C	1.577176	-1.036218	0.263080
C37	C	1.443422	-1.036231	0.343527
C38	C	1.443381	-0.970488	0.343511
C39	C	1.510231	-0.937614	0.303275
C40	C	1.782655	-0.303265	0.303249
C41	C	1.898808	-0.303271	0.303254
C42	C	1.510133	-0.303212	0.467427
C43	C	1.510154	-0.303195	0.537395
C44	C	1.510251	-0.139063	0.303285
C45	C	1.510322	-0.069094	0.303306
C46	C	1.510097	-0.303248	0.139685
C47	C	1.510279	-0.303088	0.069717
C48	C	1.577131	-0.262837	1.036869
C49	C	1.577123	-0.262852	0.971127
C50	C	1.510244	-0.303112	0.938235
C51	C	1.443388	-0.343371	0.971091
C52	C	1.443405	-0.343359	1.036832
N53	N	1.418738	-0.307955	0.835008
N54	N	1.418724	-0.307963	0.772556
C55	C	1.510189	-0.303151	0.740160
N56	N	1.601670	-0.298319	0.772574
N57	N	1.601683	-0.298308	0.835031
C58	C	1.510218	-0.303129	0.866949
C59	C	1.577038	-0.262914	0.636026
C60	C	1.577032	-0.262934	0.570282
C61	C	1.443287	-0.343449	0.570248
C62	C	1.443303	-0.343433	0.635990
C63	C	1.510177	-0.303162	0.668875
H64	H	1.077880	-0.270456	0.270548
H65	H	1.631561	-0.230072	0.944377
H66	H	1.388743	-0.662164	0.376207
H67	H	1.388912	-0.943733	0.376257
C68	C	1.369818	-0.387658	0.934914
C69	C	1.378288	-0.459218	0.943927
C70	C	1.304720	-0.503510	0.907753
C71	C	1.222682	-0.476242	0.862566
C72	C	1.214210	-0.404678	0.853551
C73	C	1.287778	-0.360386	0.889725
H74	H	1.439020	-0.479406	0.977379
H75	H	1.310992	-0.556486	0.914427
H76	H	1.168223	-0.509029	0.835787
H77	H	1.153478	-0.384490	0.820099
H78	H	1.281505	-0.307410	0.883052
C79	C	1.650672	-0.934307	0.218814
C80	C	1.650630	-0.861994	0.218798
C81	C	1.724180	-0.825829	0.174552
C82	C	1.797773	-0.861977	0.130321
C83	C	1.797818	-0.934293	0.130335
C84	C	1.724268	-0.970459	0.174581
H85	H	1.596150	-0.835232	0.251541
H86	H	1.724146	-0.772295	0.174542
H87	H	1.852219	-0.835205	0.097568
H88	H	1.852298	-0.961056	0.097592
H89	H	1.724301	-1.023992	0.174592
C90	C	1.650492	-0.671527	0.218759
C91	C	1.732538	-0.716661	0.246079
C92	C	1.806109	-0.752811	0.201832
C93	C	1.797633	-0.743827	0.130265
C94	C	1.715583	-0.698691	0.102941
C95	C	1.642012	-0.662541	0.147188
H96	H	1.738815	-0.723314	0.299060
H97	H	1.866848	-0.786224	0.222059
H98	H	1.852095	-0.770588	0.097511
H99	H	1.709306	-0.692038	0.049960
H100	H	1.581274	-0.629128	0.126961
C101	C	1.650405	-0.533467	0.218736
C102	C	1.732393	-0.488206	0.246046
C103	C	1.805927	-0.452039	0.201792
C104	C	1.797473	-0.461133	0.130227
C105	C	1.715482	-0.506396	0.102913
C106	C	1.641948	-0.542563	0.147168
H107	H	1.738654	-0.481472	0.299025
H108	H	1.866622	-0.418532	0.222011
H109	H	1.851907	-0.434359	0.097468
H110	H	1.709221	-0.513130	0.049934
H111	H	1.581253	-0.576070	0.126948
C112	C	1.130801	-0.385863	0.385589
C113	C	1.205815	-0.435200	0.358173
C114	C	1.265977	-0.479503	0.402339
C115	C	1.251124	-0.474467	0.473919
C116	C	1.176107	-0.425128	0.501338
C117	C	1.115945	-0.380826	0.457173
H118	H	1.216813	-0.438930	0.305182
H119	H	1.321510	-0.516027	0.382041
H120	H	1.295660	-0.507263	0.506613
H121	H	1.165109	-0.421399	0.554330
H122	H	1.060412	-0.344302	0.477471
H123	H	1.388668	-0.542893	0.376194
H124	H	1.388860	-0.376207	0.662735
C125	C	1.369877	-1.072390	0.387775
C126	C	1.287887	-1.117648	0.360462
C127	C	1.214342	-1.153811	0.404714
C128	C	1.222786	-1.144715	0.476278
C129	C	1.304779	-1.099455	0.503595
C130	C	1.378325	-1.063292	0.459343
H131	H	1.281633	-1.124384	0.307482
H132	H	1.153645	-1.187315	0.384492
H133	H	1.168343	-1.171484	0.509036
H134	H	1.311033	-1.092719	0.556574
H135	H	1.439021	-1.029788	0.479565
C136	C	0.890435	-0.385887	0.385610
C137	C	0.770389	-0.385835	0.385558
C138	C	0.710235	-0.430150	0.429734
C139	C	0.770126	-0.474518	0.473962
C140	C	0.890178	-0.474571	0.474016
C141	C	0.950332	-0.430256	0.429840
H142	H	0.726048	-0.352990	0.352817
H143	H	0.621364	-0.430110	0.429694
H144	H	0.725596	-0.507323	0.506664
H145	H	0.934519	-0.507416	0.506757
H146	H	1.039203	-0.430296	0.429880
C147	C	1.650760	-1.072363	0.218840
C148	C	1.642295	-1.063384	0.147272
C149	C	1.715882	-1.099529	0.103032
C150	C	1.797936	-1.144655	0.130359
C151	C	1.806405	-1.153636	0.201930
C152	C	1.732817	-1.117491	0.246171
H153	H	1.581551	-1.029978	0.127040
H154	H	1.709612	-1.092880	0.050050
H155	H	1.852409	-1.171412	0.097610
H156	H	1.867148	-1.187043	0.222163
H157	H	1.739087	-1.124140	0.299153
H158	H	1.631478	-0.230159	0.543539
C159	C	1.369857	-0.387632	1.072971
C160	C	1.287853	-0.360340	1.118170
C161	C	1.214303	-0.404612	1.154311
C162	C	1.222757	-0.476176	1.145253
C163	C	1.304764	-0.503472	1.100053
C164	C	1.378315	-0.459200	1.063911
H165	H	1.281593	-0.307360	1.124877
H166	H	1.153596	-0.384405	1.187772
H167	H	1.168311	-0.508949	1.172007
H168	H	1.311025	-0.556452	1.093346
H169	H	1.439022	-0.479407	1.030450
H170	H	0.943335	-0.270471	0.270554
C171	C	1.650609	-0.218627	0.672205
C172	C	1.724164	-0.174358	0.636069
C173	C	1.797738	-0.130072	0.672247
C174	C	1.797757	-0.130054	0.744559
C175	C	1.724199	-0.174324	0.780699
C176	C	1.650626	-0.218611	0.744522
H177	H	1.724152	-0.174370	0.582536
H178	H	1.852190	-0.097300	0.645493
H179	H	1.852220	-0.097271	0.771340
H180	H	1.724211	-0.174313	0.834233
H181	H	1.596174	-0.251382	0.771276
H182	H	1.388837	-0.376232	0.543468
H183	H	1.631590	-0.230048	1.063640
