data_functionalizedCrystal
_audit_creation_method	'MofGen! by Chris Wilmer'
_symmetry_space_group_name_H-M	'P1'
_symmetry_Int_Tables_number	1
_symmetry_cell_setting	triclinic
loop_
_symmetry_equiv_pos_as_xyz
  x,y,z
_cell_length_a	17.699083
_cell_length_b	10.489767
_cell_length_c	16.176319
_cell_angle_alpha	89.977587
_cell_angle_beta	89.995231
_cell_angle_gamma	96.083247
loop_
_atom_site_label
_atom_site_type_symbol
_atom_site_fract_x
_atom_site_fract_y
_atom_site_fract_z
O1	O	1.005137	-0.161297	0.068658
O2	O	0.784897	-0.182281	0.068688
O3	O	0.900017	0.013900	0.068636
O4	O	0.890016	-0.357477	0.068710
O5	O	0.900015	0.013918	-0.068857
O6	O	0.784894	-0.182263	-0.068805
O7	O	1.005134	-0.161279	-0.068836
Cu8	Cu	0.895014	-0.171769	-0.081374
Cu9	Cu	0.895017	-0.171790	0.081227
O10	O	0.890014	-0.357459	-0.068783
C11	C	0.756694	-0.181520	-0.000055
C12	C	0.672661	-0.179264	-0.000045
C13	C	0.624800	-0.294419	-0.000022
C14	C	0.545842	-0.292291	-0.000033
C15	C	0.514747	-0.175009	-0.000062
C16	C	0.562614	-0.059846	-0.000087
C17	C	0.641570	-0.061974	-0.000082
C18	C	0.244195	-0.051260	-0.000109
C19	C	0.165233	-0.049140	-0.000112
C20	C	0.148467	-0.281576	-0.000061
C21	C	0.227423	-0.283705	-0.000056
C22	C	0.275283	-0.168543	-0.000085
C23	C	0.360897	-0.170851	-0.000075
C24	C	0.429135	-0.172700	-0.000066
C25	C	0.899256	0.061426	-0.000118
C26	C	0.896983	0.203011	-0.000141
C27	C	0.822380	0.354481	-0.000146
C28	C	0.859680	0.277774	0.067651
C29	C	0.859695	0.277833	-0.067906
C30	C	0.930270	0.378576	0.067690
C31	C	0.930275	0.378641	-0.067928
C32	C	0.967626	0.301983	-0.000114
C33	C	1.033337	-0.162039	-0.000090
C34	C	1.117370	-0.164295	-0.000095
C35	C	0.890763	0.595012	-0.000068
C36	C	0.893000	0.453419	-0.000163
N37	N	0.895019	-0.171796	0.195592
N38	N	0.895018	-0.171753	-0.195740
C39	C	0.946091	-0.085098	0.238833
C40	C	0.946094	-0.085095	0.325380
C41	C	0.895021	-0.171785	0.368685
C42	C	0.843946	-0.258493	0.325438
C43	C	0.843948	-0.258501	0.238892
C44	C	0.843940	-0.258464	0.674466
C45	C	0.843942	-0.258446	0.761018
C46	C	0.946087	-0.085058	0.760954
C47	C	0.946088	-0.085066	0.674409
C48	C	0.895017	-0.171777	0.631169
C49	C	0.895015	-0.171781	0.537325
C50	C	0.895018	-0.171777	0.462528
H51	H	0.283153	0.042513	-0.000134
H52	H	0.680538	0.031796	-0.000100
Br53	Br	0.774637	-0.376176	0.180208
Br54	Br	0.979928	0.451613	0.163304
Br55	Br	1.015400	0.032595	0.615641
Br56	Br	0.666992	-0.453597	0.000024
H57	H	0.987681	-0.014500	0.360587
H58	H	0.760969	0.378060	-0.000075
Br59	Br	0.520415	0.099326	-0.000133
H60	H	0.802364	-0.329084	0.360702
H61	H	0.987675	-0.014457	0.796169
H62	H	0.109489	-0.375347	-0.000041
H63	H	1.029084	0.278651	-0.000081
Br64	Br	0.809985	0.204506	-0.163409
H65	H	0.987678	-0.014500	0.203580
Br66	Br	0.979920	0.452082	-0.163476
Br67	Br	0.774622	-0.376104	0.819789
H68	H	0.802355	-0.329065	0.639267
H69	H	0.829869	0.233738	0.124975
H70	H	0.252735	-0.379208	-0.000029
Br71	Br	0.123033	0.110040	-0.000147
Br72	Br	0.480890	-0.448579	0.000000
