data_functionalizedCrystal
_audit_creation_method	'MofGen! by Chris Wilmer'
_symmetry_space_group_name_H-M	'P1'
_symmetry_Int_Tables_number	1
_symmetry_cell_setting	triclinic
loop_
_symmetry_equiv_pos_as_xyz
  x,y,z
_cell_length_a	14.971482
_cell_length_b	14.044190
_cell_length_c	13.448316
_cell_angle_alpha	89.988796
_cell_angle_beta	89.993798
_cell_angle_gamma	88.402193
loop_
_atom_site_label
_atom_site_type_symbol
_atom_site_fract_x
_atom_site_fract_y
_atom_site_fract_z
O1	O	1.196683	0.123521	-0.082690
O2	O	0.937449	0.138319	-0.082697
O3	O	1.063171	-0.007069	-0.082674
O4	O	1.070960	0.268909	-0.082713
O5	O	1.063154	-0.007078	0.082710
O6	O	0.937431	0.138310	0.082687
O7	O	1.196665	0.123512	0.082693
Cu8	Cu	1.067046	0.130910	0.097791
Cu9	Cu	1.067068	0.130921	-0.097794
O10	O	1.070942	0.268900	0.082671
C11	C	0.904063	0.137653	-0.000005
C12	C	0.804609	0.135672	-0.000007
C13	C	0.757881	0.134734	0.090145
C14	C	0.664435	0.132857	0.090147
C15	C	0.617718	0.131925	-0.000005
C16	C	0.664453	0.132861	-0.090164
C17	C	0.757898	0.134730	-0.090164
C18	C	0.469684	0.128965	-0.090157
C19	C	0.376232	0.127097	-0.090157
C20	C	0.376221	0.127092	0.090154
C21	C	0.469666	0.128962	0.090153
C22	C	0.516394	0.129899	-0.000006
C23	C	1.059755	-0.042392	0.000021
C24	C	1.049591	-0.147629	0.000029
C25	C	1.103093	-0.397856	-0.000009
C26	C	1.031025	-0.340307	-0.000003
C27	C	1.041358	-0.233092	0.000015
C28	C	1.092761	-0.505082	-0.000027
C29	C	1.230051	0.124178	-0.000000
C30	C	1.329504	0.126159	-0.000005
C31	C	1.074359	0.304223	-0.000026
C32	C	1.084522	0.409460	-0.000041
N33	N	1.067038	0.130902	0.235355
N34	N	1.067082	0.130921	-0.235359
C35	C	1.122729	0.066551	0.287406
C36	C	1.122734	0.066550	0.391509
C37	C	1.067053	0.130906	0.443560
C38	C	1.011356	0.195260	0.391502
C39	C	1.011346	0.195256	0.287401
C40	C	1.011381	0.195267	0.608482
C41	C	1.011391	0.195273	0.712591
C42	C	1.122769	0.066561	0.712590
C43	C	1.122760	0.066557	0.608489
C44	C	1.067063	0.130912	0.556439
H45	H	0.338171	0.126329	0.163565
H46	H	0.795911	0.135501	0.163557
H47	H	0.626394	0.132078	0.163557
O48	O	1.186021	-0.360737	-0.000038
C49	C	1.344929	-0.393120	0.000038
C50	C	1.251069	-0.435298	0.000045
H51	H	1.397545	-0.453381	0.000126
H52	H	1.353427	-0.347381	-0.069183
H53	H	1.353295	-0.347360	0.069243
H54	H	1.242638	-0.481101	-0.069114
H55	H	1.242613	-0.480982	0.069311
H56	H	1.168075	0.014149	0.245033
H57	H	0.966049	0.247677	0.754966
H58	H	1.168082	0.014150	0.433888
H59	H	0.961564	-0.371561	-0.000011
H60	H	0.507700	0.129727	0.163563
O61	O	1.176875	0.003952	0.558079
C62	C	1.287386	-0.123675	0.569058
C63	C	1.226131	-0.052840	0.626271
H64	H	1.327239	-0.169596	0.624166
H65	H	1.245023	-0.171165	0.520369
H66	H	1.335291	-0.082648	0.520271
H67	H	1.178216	-0.093789	0.675112
H68	H	1.268550	-0.005350	0.674896
H69	H	1.168119	0.014160	0.754976
O70	O	0.957254	0.257875	0.558073
C71	C	0.846754	0.385511	0.569054
C72	C	0.908016	0.314672	0.626266
H73	H	0.806916	0.431437	0.624162
H74	H	0.889111	0.432998	0.520323
H75	H	0.798836	0.344488	0.520309
H76	H	0.955945	0.355617	0.675065
H77	H	0.865604	0.267186	0.674933
O78	O	0.957224	0.257861	0.236990
C79	C	0.846715	0.385487	0.247971
C80	C	0.907984	0.314656	0.305183
H81	H	0.806875	0.431411	0.303079
H82	H	0.889066	0.432976	0.199237
H83	H	0.798798	0.344458	0.199229
H84	H	0.955912	0.355607	0.353978
H85	H	0.865578	0.267167	0.353854
H86	H	0.966014	0.247657	0.433888
H87	H	0.507727	0.129729	-0.163574
O88	O	0.330990	0.126157	-0.177818
C89	C	0.340853	0.126425	-0.356662
C90	C	0.392203	0.127463	-0.257459
H91	H	0.390321	0.127501	-0.421077
H92	H	0.300022	0.059250	-0.361226
H93	H	0.294188	0.191830	-0.361117
H94	H	0.438914	0.062104	-0.252936
H95	H	0.432976	0.194681	-0.252936
H96	H	0.626409	0.132095	-0.163567
H97	H	0.795942	0.135496	-0.163575
