data_functionalizedCrystal
_audit_creation_method	'MofGen! by Chris Wilmer'
_symmetry_space_group_name_H-M	'P1'
_symmetry_Int_Tables_number	1
_symmetry_cell_setting	triclinic
loop_
_symmetry_equiv_pos_as_xyz
  x,y,z
_cell_length_a	6.394989
_cell_length_b	14.971486
_cell_length_c	14.048226
_cell_angle_alpha	90.006640
_cell_angle_beta	90.005878
_cell_angle_gamma	85.055920
loop_
_atom_site_label
_atom_site_type_symbol
_atom_site_fract_x
_atom_site_fract_y
_atom_site_fract_z
O1	O	-2.771866	-0.146541	-0.079152
O2	O	-2.163756	-0.153924	-0.079156
O3	O	-2.484110	-0.020209	-0.079147
O4	O	-2.451512	-0.280256	-0.079161
O5	O	-2.484072	-0.020200	0.079175
O6	O	-2.163718	-0.153915	0.079166
O7	O	-2.771828	-0.146533	0.079170
Zn8	Zn	-2.467767	-0.150223	0.104305
Zn9	Zn	-2.467817	-0.150234	-0.104291
O10	O	-2.451474	-0.280248	0.079161
C11	C	-2.482633	0.013136	0.000014
C12	C	-2.478264	0.112480	0.000013
C13	C	-2.452951	-0.313593	-0.000002
C14	C	-2.457320	-0.412937	-0.000007
N15	N	-2.467747	-0.150215	0.246665
C16	C	-2.085912	-0.152460	0.000010
C17	C	-1.849666	-0.147999	0.000014
N18	N	-2.467853	-0.150235	-0.246651
C19	C	-2.666464	0.167670	0.000015
C20	C	-2.662346	0.261014	0.000005
C21	C	-2.470028	0.299167	0.000000
C22	C	-2.281814	0.243969	-0.000004
C23	C	-2.285933	0.150627	-0.000002
C24	C	-2.273241	0.438525	-0.000008
C25	C	-2.269120	0.531873	-0.000009
C26	C	-2.649654	0.548912	-0.000001
C27	C	-2.653773	0.455570	0.000002
C28	C	-2.465559	0.400379	-0.000001
C29	C	-2.609644	-0.091031	0.296487
C30	C	-2.609659	-0.091031	0.396145
C31	C	-2.467784	-0.150219	0.445979
C32	C	-2.325871	-0.209405	0.396150
C33	C	-2.325849	-0.209400	0.296494
C34	C	-2.325932	-0.209412	0.603864
C35	C	-2.325956	-0.209418	0.703527
C36	C	-2.609741	-0.091043	0.703515
C37	C	-2.609719	-0.091038	0.603859
C38	C	-2.467808	-0.150226	0.554037
H39	H	-2.823072	0.136615	0.000024
H40	H	-2.815597	0.305947	0.000009
F41	F	-2.077133	0.284576	-0.000020
F42	F	-2.858460	0.414967	0.000004
H43	H	-2.132682	0.105692	-0.000003
H44	H	-2.725184	-0.042837	0.255919
H45	H	-2.725201	-0.042839	0.436710
H46	H	-2.725254	-0.042847	0.563285
F47	F	-2.174885	-0.272405	0.550844
H48	H	-2.210344	-0.257594	0.436730
F49	F	-2.174815	-0.272389	0.243471
H50	H	-2.119976	0.393590	-0.000013
F51	F	-2.849967	0.607651	-0.000002
H52	H	-2.210425	-0.257615	0.744097
F53	F	-2.064434	0.572476	-0.000013
H54	H	-2.725289	-0.042850	0.744086
