data_functionalizedCrystal
_audit_creation_method	'MofGen! by Chris Wilmer'
_symmetry_space_group_name_H-M	'P1'
_symmetry_Int_Tables_number	1
_symmetry_cell_setting	triclinic
loop_
_symmetry_equiv_pos_as_xyz
  x,y,z
_cell_length_a	16.120530
_cell_length_b	16.120531
_cell_length_c	16.120297
_cell_angle_alpha	95.610581
_cell_angle_beta	89.871860
_cell_angle_gamma	89.826117
loop_
_atom_site_label
_atom_site_type_symbol
_atom_site_fract_x
_atom_site_fract_y
_atom_site_fract_z
Zn1	Zn	1.224939	0.422260	0.554785
Zn2	Zn	1.224819	0.554943	0.422081
Zn3	Zn	1.093680	0.408176	0.408028
Zn4	Zn	1.078817	0.554176	0.554013
O5	O	1.155564	0.484889	0.484727
O6	O	1.340958	0.446077	0.543385
O7	O	1.213594	0.529901	0.303585
O8	O	1.117362	0.293415	0.421938
O9	O	1.340870	0.543558	0.445888
O10	O	1.213797	0.303763	0.529759
O11	O	1.117246	0.422072	0.293260
O12	O	0.975673	0.421328	0.421190
O13	O	1.092030	0.542250	0.670748
O14	O	0.964753	0.528593	0.528444
O15	O	1.199385	0.445332	0.671315
O16	O	1.199181	0.671471	0.445140
O17	O	1.091914	0.670907	0.542070
C18	C	0.940126	0.473350	0.473209
C19	C	0.847959	0.468434	0.468302
C20	C	0.679209	0.459440	0.459350
C21	C	0.632752	0.510402	0.510167
C22	C	0.538854	0.505398	0.505186
C23	C	0.773116	0.464443	0.464330
C24	C	1.143943	0.701432	0.495066
C25	C	1.139046	0.794075	0.499521
C26	C	1.130110	0.963697	0.507672
C27	C	1.181051	1.005240	0.461737
C28	C	1.176079	1.099623	0.466272
C29	C	1.135081	0.869305	0.503138
C30	C	1.371842	0.496474	0.496290
C31	C	1.464007	0.501411	0.501218
C32	C	1.144063	0.495277	0.702119
C33	C	1.139162	0.499703	0.794758
C34	C	1.167222	1.267500	0.474350
C35	C	1.172117	1.174856	0.469885
C36	C	1.167071	0.474484	0.268181
C37	C	1.172145	0.469831	0.175539
C38	C	1.130185	0.507765	0.964369
C39	C	1.181119	0.461772	1.005934
C40	C	1.176124	0.466258	1.100311
C41	C	1.135179	0.503280	0.869983
H42	H	0.648464	0.412057	0.412107
H43	H	1.228397	0.969922	0.419004
H44	H	1.082831	0.550507	0.999661
C45	C	1.066143	1.011407	0.565389
N46	N	1.017959	1.047351	0.608856
C47	C	0.674288	0.574427	0.573990
N48	N	0.705577	0.622652	0.622057
H49	H	1.228476	0.419027	0.970640
