data_functionalizedCrystal
_audit_creation_method	'MofGen! by Chris Wilmer'
_symmetry_space_group_name_H-M	'P1'
_symmetry_Int_Tables_number	1
_symmetry_cell_setting	triclinic
loop_
_symmetry_equiv_pos_as_xyz
  x,y,z
_cell_length_a	14.044191
_cell_length_b	9.016244
_cell_length_c	14.044220
_cell_angle_alpha	90.002898
_cell_angle_beta	93.190327
_cell_angle_gamma	90.005095
loop_
_atom_site_label
_atom_site_type_symbol
_atom_site_fract_x
_atom_site_fract_y
_atom_site_fract_z
O1	O	1.277177	0.123275	0.230196
O2	O	1.610510	0.456609	0.563530
O3	O	1.943843	0.789942	0.896863
O4	O	1.000504	0.123294	0.221884
O5	O	1.333837	0.456627	0.555217
O6	O	1.667171	0.789960	0.888550
O7	O	1.134687	0.123270	0.087704
O8	O	1.468021	0.456603	0.421037
O9	O	1.801354	0.789937	0.754371
O10	O	1.142993	0.123299	0.364376
O11	O	1.476326	0.456632	0.697709
O12	O	1.809660	0.789966	1.031042
O13	O	1.134666	-0.123411	0.087706
O14	O	1.468000	0.209923	0.421039
O15	O	1.801333	0.543256	0.754372
O16	O	1.000483	-0.123387	0.221885
O17	O	1.333816	0.209946	0.555219
O18	O	1.667150	0.543280	0.888552
O19	O	1.277155	-0.123406	0.230198
O20	O	1.610489	0.209928	0.563531
O21	O	1.943822	0.543261	0.896865
Cu22	Cu	1.138817	-0.145920	0.226042
Cu23	Cu	1.472151	0.187413	0.559375
Cu24	Cu	1.805484	0.520746	0.892708
Cu25	Cu	1.138842	0.145808	0.226040
Cu26	Cu	1.472176	0.479142	0.559373
Cu27	Cu	1.805509	0.812475	0.892706
O28	O	1.142972	-0.123382	0.364377
O29	O	1.476305	0.209951	0.697711
O30	O	1.809639	0.543285	1.031044
C31	C	0.964872	-0.000044	0.218248
C32	C	1.298205	0.333289	0.551581
C33	C	1.631538	0.666622	0.884914
C34	C	0.858728	-0.000038	0.207401
C35	C	1.192062	0.333296	0.540734
C36	C	1.525395	0.666629	0.874067
C37	C	0.613270	-0.000047	0.264501
C38	C	0.946603	0.333287	0.597834
C39	C	1.279937	0.666620	0.931168
C40	C	0.664395	-0.000052	0.187585
C41	C	0.997729	0.333281	0.520918
C42	C	1.331062	0.666615	0.854251
C43	C	0.772532	-0.000044	0.198613
C44	C	1.105866	0.333289	0.531946
C45	C	1.439199	0.666623	0.865280
C46	C	0.505123	-0.000055	0.253474
C47	C	0.838457	0.333279	0.586808
C48	C	1.171790	0.666612	0.920141
N49	N	1.138807	-0.351106	0.226043
N50	N	1.472140	-0.017773	0.559376
N51	N	1.805473	0.315560	0.892710
C52	C	1.066769	-0.586126	0.297542
C53	C	1.400103	-0.252793	0.630875
C54	C	1.733436	0.080540	0.964208
C55	C	1.066964	-0.414235	0.297845
C56	C	1.400297	-0.080902	0.631178
C57	C	1.733630	0.252431	0.964511
C58	C	1.240264	-0.413449	0.256228
C59	C	1.573598	-0.080115	0.589561
C60	C	1.906931	0.253218	0.922894
C61	C	1.239881	-0.585394	0.256743
C62	C	1.573214	-0.252060	0.590077
C63	C	1.906547	0.081273	0.923410
C64	C	1.110357	-0.585659	0.124181
C65	C	1.443691	-0.252325	0.457515
C66	C	1.777024	0.081008	0.790848
C67	C	1.108118	-0.413704	0.124658
C68	C	1.441451	-0.080371	0.457991
C69	C	1.774785	0.252962	0.791325
C70	C	1.312788	-0.000064	0.233834
C71	C	1.646121	0.333269	0.567167
C72	C	1.979455	0.666603	0.900500
C73	C	1.418931	-0.000061	0.244681
C74	C	1.752264	0.333272	0.578014
C75	C	2.085598	0.666606	0.911348
C76	C	1.131041	-0.000071	0.052083
C77	C	1.464375	0.333263	0.385416
C78	C	1.797708	0.666596	0.718750
C79	C	1.120197	-0.000072	-0.054060
C80	C	1.453530	0.333262	0.279273
C81	C	1.786863	0.666595	0.612607
N82	N	1.138860	0.350995	0.226032
N83	N	1.472193	0.684328	0.559365
N84	N	1.805526	1.017661	0.892698
C85	C	1.100370	-0.000049	-0.248398
C86	C	1.433704	0.333284	0.084935
C87	C	1.767037	0.666618	0.418268
C88	C	1.177285	-0.000050	-0.299526
C89	C	1.510618	0.333284	0.033807
C90	C	1.843952	0.666617	0.367140
C91	C	1.166253	-0.000037	-0.407663
C92	C	1.499587	0.333296	-0.074329
C93	C	1.832920	0.666630	0.259004
C94	C	1.111400	-0.000062	-0.140252
C95	C	1.444734	0.333272	0.193081
C96	C	1.778067	0.666605	0.526415
C97	C	1.146618	-0.000038	0.399998
C98	C	1.479952	0.333295	0.733332
C99	C	1.813285	0.666629	1.066665
C100	C	1.157463	-0.000027	0.506142
C101	C	1.490796	0.333306	0.839475
C102	C	1.824130	0.666640	1.172808
H103	H	0.626952	0.000045	0.113452
H104	H	0.960285	0.333378	0.446786
H105	H	1.293619	0.666711	0.780119
Br106	Br	1.197815	-0.653426	0.035319
Br107	Br	1.531148	-0.320093	0.368652
Br108	Br	1.864482	0.013240	0.701986
Br109	Br	0.675675	-0.000019	0.388054
Br110	Br	1.009008	0.333315	0.721387
Br111	Br	1.342342	0.666648	1.054720
H112	H	1.251419	0.000045	-0.262085
H113	H	1.584752	0.333378	0.071248
H114	H	1.918085	0.666712	0.404582
H115	H	0.991820	-0.372088	0.278617
H116	H	1.325153	-0.038754	0.611951
H117	H	1.658486	0.294579	0.945284
Br118	Br	0.941152	-0.655068	0.265800
Br119	Br	1.274486	-0.321734	0.599133
Br120	Br	1.607819	0.011599	0.932466
H121	H	1.026242	-0.000041	-0.285837
H122	H	1.359576	0.333293	0.047496
H123	H	1.692909	0.666626	0.380830
H124	H	1.085635	-0.629313	0.372514
H125	H	1.418968	-0.295979	0.705848
H126	H	1.752301	0.037354	1.039181
H127	H	1.086036	-0.373082	0.373252
H128	H	1.419369	-0.039749	0.706585
H129	H	1.752702	0.293585	1.039918
H130	H	1.295648	-0.626985	0.207163
H131	H	1.628981	-0.293652	0.540497
H132	H	1.962314	0.039682	0.873830
Br133	Br	1.279599	-0.652210	0.380974
Br134	Br	1.612932	-0.318876	0.714308
Br135	Br	1.946265	0.014457	1.047641
Br136	Br	1.332391	-0.345303	0.172315
Br137	Br	1.665724	-0.011970	0.505648
Br138	Br	1.999057	0.321364	0.838982
H139	H	1.037530	-0.629104	0.097247
H140	H	1.370863	-0.295771	0.430580
H141	H	1.704197	0.037563	0.763914
Br142	Br	1.280566	-0.341643	0.379133
Br143	Br	1.613899	-0.008309	0.712466
Br144	Br	1.947232	0.325024	1.045799
Br145	Br	0.983651	-0.345800	0.086800
Br146	Br	1.316984	-0.012467	0.420134
Br147	Br	1.650318	0.320866	0.753467
Br148	Br	1.188869	-0.342114	0.030720
Br149	Br	1.522203	-0.008781	0.364053
Br150	Br	1.855536	0.324552	0.697386
