data_functionalizedCrystal
_audit_creation_method	'MofGen! by Chris Wilmer'
_symmetry_space_group_name_H-M	'P1'
_symmetry_Int_Tables_number	1
_symmetry_cell_setting	triclinic
loop_
_symmetry_equiv_pos_as_xyz
  x,y,z
_cell_length_a	16.974897
_cell_length_b	22.610064
_cell_length_c	16.992695
_cell_angle_alpha	89.995894
_cell_angle_beta	87.027201
_cell_angle_gamma	93.659798
loop_
_atom_site_label
_atom_site_type_symbol
_atom_site_fract_x
_atom_site_fract_y
_atom_site_fract_z
O1	O	1.055462	0.099653	0.099965
O2	O	1.388795	0.432986	0.433298
O3	O	1.722128	0.766319	0.766632
O4	O	0.826060	0.088685	0.112683
O5	O	1.159394	0.422018	0.446017
O6	O	1.492727	0.755352	0.779350
O7	O	0.939841	0.094120	-0.007818
O8	O	1.273175	0.427453	0.325516
O9	O	1.606508	0.760787	0.658849
O10	O	0.941681	0.094217	0.220466
O11	O	1.275014	0.427551	0.553799
O12	O	1.608347	0.760884	0.887133
O13	O	0.939821	-0.004250	-0.007800
O14	O	1.273154	0.329083	0.325533
O15	O	1.606488	0.662417	0.658867
O16	O	0.826040	-0.009685	0.112701
O17	O	1.159373	0.323648	0.446034
O18	O	1.492707	0.656981	0.779368
O19	O	1.055441	0.001282	0.099983
O20	O	1.388775	0.334616	0.433316
O21	O	1.722108	0.667949	0.766649
Zn22	Zn	0.940737	-0.019820	0.106345
Zn23	Zn	1.274071	0.313514	0.439678
Zn24	Zn	1.607404	0.646847	0.773011
Zn25	Zn	0.940764	0.109787	0.106321
Zn26	Zn	1.274098	0.443120	0.439655
Zn27	Zn	1.607431	0.776454	0.772988
O28	O	0.941660	-0.004153	0.220483
O29	O	1.274994	0.329181	0.553817
O30	O	1.608327	0.662514	0.887150
C31	C	0.796561	0.038090	0.112207
C32	C	1.129895	0.371423	0.445540
C33	C	1.463228	0.704757	0.778873
C34	C	0.708693	0.033889	0.110751
C35	C	1.042027	0.367222	0.444084
C36	C	1.375360	0.700556	0.777417
N37	N	0.940725	-0.108273	0.106360
N38	N	1.274058	0.225060	0.439693
N39	N	1.607392	0.558394	0.773027
C40	C	0.667417	0.085532	0.110059
C41	C	1.000750	0.418866	0.443392
C42	C	1.334083	0.752199	0.776726
C43	C	0.584854	0.081576	0.108704
C44	C	0.918188	0.414910	0.442037
C45	C	1.251521	0.748243	0.775370
C46	C	0.543571	0.025976	0.108034
C47	C	0.876904	0.359309	0.441368
C48	C	1.210237	0.692643	0.774701
C49	C	0.584853	-0.025671	0.108729
C50	C	0.918186	0.307662	0.442062
C51	C	1.251520	0.640995	0.775395
C52	C	0.667413	-0.021715	0.110090
C53	C	1.000747	0.311619	0.443423
C54	C	1.334080	0.644952	0.776756
C55	C	0.296651	0.008393	0.103970
C56	C	0.629984	0.341726	0.437304
C57	C	0.963318	0.675060	0.770637
C58	C	0.214085	0.004440	0.102607
C59	C	0.547418	0.337773	0.435940
C60	C	0.880752	0.671107	0.769273
C61	C	0.214092	0.111688	0.102584
C62	C	0.547425	0.445021	0.435917
C63	C	0.880759	0.778355	0.769250
C64	C	0.296654	0.115640	0.103940
C65	C	0.629988	0.448973	0.437273
C66	C	0.963321	0.782307	0.770607
C67	C	0.337929	0.063993	0.104638
C68	C	0.671262	0.397326	0.437971
C69	C	1.004596	0.730659	0.771305
N70	N	0.459179	0.021931	0.106646
N71	N	0.792512	0.355264	0.439980
N72	N	1.125846	0.688598	0.773313
N73	N	0.422319	0.068038	0.106032
N74	N	0.755652	0.401371	0.439365
N75	N	1.088986	0.734705	0.772698
C76	C	0.991149	-0.514506	0.052972
C77	C	1.324483	-0.181172	0.386305
C78	C	1.657816	0.152161	0.719638
C79	C	0.991153	-0.576425	0.052966
C80	C	1.324486	-0.243092	0.386299
C81	C	1.657820	0.090241	0.719633
O82	O	1.033993	-0.606398	0.007585
O83	O	1.367326	-0.273064	0.340919
O84	O	1.700660	0.060269	0.674252
N85	N	0.940763	-0.609808	0.106305
N86	N	1.274096	-0.276475	0.439638
N87	N	1.607429	0.056858	0.772972
C88	C	0.890359	-0.581269	0.159648
C89	C	1.223693	-0.247935	0.492981
C90	C	1.557026	0.085398	0.826315
O91	O	0.847498	-0.615349	0.205016
O92	O	1.180831	-0.282016	0.538349
O93	O	1.514165	0.051318	0.871683
C94	C	0.890352	-0.519350	0.159649
C95	C	1.223686	-0.186017	0.492983
C96	C	1.557019	0.147316	0.826316
C97	C	0.940752	-0.485970	0.106312
C98	C	1.274085	-0.152637	0.439645
C99	C	1.607418	0.180697	0.772979
C100	C	1.041544	-0.481126	-0.000362
C101	C	1.374877	-0.147792	0.332972
C102	C	1.708211	0.185541	0.666305
C103	C	1.041541	-0.419210	-0.000355
C104	C	1.374875	-0.085877	0.332979
C105	C	1.708208	0.247457	0.666312
C106	C	0.991144	-0.390675	0.052986
C107	C	1.324477	-0.057341	0.386319
C108	C	1.657810	0.275992	0.719652
C109	C	0.940749	-0.424055	0.106319
C110	C	1.274082	-0.090721	0.439652
C111	C	1.607416	0.242612	0.772986
C112	C	0.839946	-0.490812	0.212988
C113	C	1.173279	-0.157479	0.546321
C114	C	1.506612	0.175855	0.879654
C115	C	0.839943	-0.428889	0.212984
C116	C	1.173276	-0.095556	0.546317
C117	C	1.506609	0.237778	0.879651
C118	C	0.890342	-0.395509	0.159647
C119	C	1.223675	-0.062176	0.492980
C120	C	1.557009	0.271158	0.826314
C121	C	0.890349	-0.333604	0.159666
C122	C	1.223682	-0.000270	0.492999
C123	C	1.557015	0.333063	0.826333
N124	N	0.940739	-0.300221	0.106327
N125	N	1.274072	0.033113	0.439660
N126	N	1.607406	0.366446	0.772994
C127	C	0.991137	-0.328756	0.052987
C128	C	1.324470	0.004577	0.386320
C129	C	1.657803	0.337911	0.719654
C130	C	0.890377	-0.711301	0.159640
C131	C	1.223710	-0.377968	0.492974
C132	C	1.557044	-0.044635	0.826307
C133	C	0.890388	-0.773219	0.159643
C134	C	1.223721	-0.439885	0.492977
C135	C	1.557054	-0.106552	0.826310
C136	C	0.991181	-0.768371	0.052960
C137	C	1.324514	-0.435038	0.386294
C138	C	1.657847	-0.101704	0.719627
C139	C	0.991173	-0.706453	0.052962
C140	C	1.324507	-0.373119	0.386295
C141	C	1.657840	-0.039786	0.719628
C142	C	0.940768	-0.677918	0.106301
C143	C	1.274101	-0.344585	0.439635
C144	C	1.607434	-0.011252	0.772968
C145	C	0.991127	-0.198729	0.053006
C146	C	1.324461	0.134604	0.386339
C147	C	1.657794	0.467937	0.719672
C148	C	0.991122	-0.136808	0.053020
C149	C	1.324456	0.196525	0.386353
C150	C	1.657789	0.529858	0.719686
C151	C	0.890327	-0.141661	0.159699
C152	C	1.223660	0.191672	0.493033
C153	C	1.556994	0.525005	0.826366
C154	C	0.890335	-0.203577	0.159689
C155	C	1.223668	0.129757	0.493022
C156	C	1.557001	0.463090	0.826356
C157	C	0.940737	-0.232109	0.106335
C158	C	1.274071	0.101224	0.439669
C159	C	1.607404	0.434558	0.773002
O160	O	0.847528	-0.303591	0.205022
O161	O	1.180862	0.029742	0.538355
O162	O	1.514195	0.363076	0.871688
O163	O	1.033983	-0.294669	0.007620
O164	O	1.367317	0.038665	0.340953
O165	O	1.700650	0.371998	0.674286
C166	C	1.084940	0.051879	0.100459
C167	C	1.418274	0.385212	0.433793
C168	C	1.751607	0.718545	0.767126
C169	C	1.172808	0.056084	0.101915
C170	C	1.506142	0.389417	0.435249
C171	C	1.839475	0.722750	0.768582
C172	C	0.937465	0.044822	-0.037019
C173	C	1.270798	0.378155	0.296315
C174	C	1.604132	0.711489	0.629648
C175	C	0.930406	0.044485	-0.124056
C176	C	1.263739	0.377818	0.209278
C177	C	1.597072	0.711151	0.542611
N178	N	0.940783	0.198240	0.106300
N179	N	1.274116	0.531574	0.439633
N180	N	1.607449	0.864907	0.772967
C181	C	0.998521	0.047741	-0.174367
C182	C	1.331854	0.381074	0.158967
C183	C	1.665187	0.714407	0.492300
C184	C	0.991883	0.047429	-0.256146
C185	C	1.325216	0.380762	0.077187
C186	C	1.658550	0.714095	0.410520
C187	C	0.917129	0.043857	-0.287614
C188	C	1.250462	0.377190	0.045720
C189	C	1.583796	0.710523	0.379053
C190	C	0.849009	0.040602	-0.237296
C191	C	1.182342	0.373936	0.096037
C192	C	1.515675	0.707269	0.429371
C193	C	0.855647	0.040918	-0.155518
C194	C	1.188981	0.374252	0.177815
C195	C	1.522314	0.707585	0.511149
C196	C	0.889614	0.042549	-0.531183
C197	C	1.222948	0.375883	-0.197849
C198	C	1.556281	0.709216	0.135484
C199	C	0.882981	0.042232	-0.612967
C200	C	1.216314	0.375565	-0.279634
C201	C	1.549648	0.708899	0.053699
C202	C	1.025856	0.049059	-0.631812
C203	C	1.359189	0.382393	-0.298479
C204	C	1.692522	0.715726	0.034855
C205	C	1.032488	0.049372	-0.550031
C206	C	1.365821	0.382705	-0.216698
C207	C	1.699155	0.716038	0.116635
C208	C	0.964368	0.046120	-0.499721
C209	C	1.297701	0.379454	-0.166388
C210	C	1.631034	0.712787	0.166945
N211	N	0.910342	0.043536	-0.371205
N212	N	1.243676	0.376870	-0.037872
N213	N	1.577009	0.710203	0.295461
N214	N	0.971155	0.046445	-0.416131
N215	N	1.304488	0.379779	-0.082798
N216	N	1.637822	0.713112	0.250536
C217	C	0.944037	0.045147	0.249685
C218	C	1.277370	0.378480	0.583018
C219	C	1.610703	0.711813	0.916351
C220	C	0.951096	0.045488	0.336722
C221	C	1.284429	0.378821	0.670055
C222	C	1.617763	0.712155	1.003388
H223	H	0.701024	0.130808	0.110602
H224	H	1.034357	0.464141	0.443935
H225	H	1.367691	0.797475	0.777268
F226	F	0.836756	-0.808738	0.216421
F227	F	1.170090	-0.475404	0.549755
F228	F	1.503423	-0.142071	0.883088
F229	F	0.540928	0.136543	0.107969
F230	F	0.874261	0.469876	0.441302
F231	F	1.207595	0.803209	0.774635
H232	H	0.822104	0.039314	-0.638584
H233	H	1.155438	0.372647	-0.305251
H234	H	1.488771	0.705980	0.028083
H235	H	1.082584	-0.504353	-0.043801
H236	H	1.415917	-0.171020	0.289532
H237	H	1.749250	0.162313	0.622865
H238	H	0.330262	0.160915	0.104479
H239	H	0.663595	0.494249	0.437813
H240	H	0.996929	0.827582	0.771146
H241	H	0.330247	-0.033662	0.104534
H242	H	0.663581	0.299671	0.437867
H243	H	0.996914	0.633004	0.771200
H244	H	0.701020	-0.063768	0.110656
H245	H	1.034353	0.269565	0.443989
H246	H	1.367686	0.602898	0.777323
H247	H	0.180477	0.153736	0.102017
H248	H	0.513810	0.487070	0.435350
H249	H	0.847144	0.820403	0.768684
H250	H	0.551233	-0.070942	0.108188
H251	H	0.884566	0.262391	0.441522
H252	H	1.217900	0.595724	0.774855
F253	F	1.044772	-0.229086	-0.003779
F254	F	1.378105	0.104247	0.329554
F255	F	1.711439	0.437580	0.662888
F256	F	1.112051	0.053188	-0.516548
F257	F	1.445384	0.386522	-0.183215
F258	F	1.778718	0.719855	0.150118
F259	F	1.044768	-0.101285	-0.003750
F260	F	1.378102	0.232048	0.329583
F261	F	1.711435	0.565381	0.662917
F262	F	0.786290	-0.398526	0.269756
F263	F	1.119623	-0.065192	0.603089
F264	F	1.452957	0.268141	0.936422
H265	H	1.059393	0.050646	-0.148753
H266	H	1.392727	0.383979	0.184580
H267	H	1.726060	0.717312	0.517914
F268	F	1.064381	0.050893	-0.309688
F269	F	1.397714	0.384227	0.023645
F270	F	1.731048	0.717560	0.356979
F271	F	1.095179	-0.383690	-0.057127
F272	F	1.428512	-0.050357	0.276207
F273	F	1.761846	0.282976	0.609540
F274	F	0.836694	-0.111282	0.216467
F275	F	1.170027	0.222051	0.549801
F276	F	1.503361	0.555384	0.883134
H277	H	0.180473	-0.040839	0.102084
H278	H	0.513806	0.292495	0.435417
H279	H	0.847139	0.625828	0.768751
H280	H	1.032212	-0.679278	0.009530
H281	H	1.365546	-0.345944	0.342863
H282	H	1.698879	-0.012611	0.676196
F283	F	1.098349	0.052520	-0.685361
F284	F	1.431682	0.385854	-0.352028
F285	F	1.765016	0.719187	-0.018694
H286	H	1.032216	-0.791616	0.009527
H287	H	1.365549	-0.458282	0.342860
H288	H	1.698883	-0.124949	0.676193
H289	H	0.849333	-0.688072	0.203082
H290	H	1.182666	-0.354739	0.536416
H291	H	1.516000	-0.021405	0.869749
H292	H	0.798906	-0.517982	0.256419
H293	H	1.132239	-0.184648	0.589752
H294	H	1.465572	0.148685	0.923086
F295	F	0.817114	0.039091	-0.477649
F296	F	1.150447	0.372424	-0.144316
F297	F	1.483780	0.705757	0.189018
H298	H	0.849303	-0.230755	0.203128
H299	H	1.182636	0.102578	0.536462
H300	H	1.515970	0.435911	0.869795
F301	F	0.769449	0.036807	-0.270788
F302	F	1.102783	0.370141	0.062545
F303	F	1.436116	0.703474	0.395879
F304	F	0.783150	0.037455	-0.101973
F305	F	1.116483	0.370788	0.231360
F306	F	1.449816	0.704121	0.564694
