data_functionalizedCrystal
_audit_creation_method	'MofGen! by Chris Wilmer'
_symmetry_space_group_name_H-M	'P1'
_symmetry_Int_Tables_number	1
_symmetry_cell_setting	triclinic
loop_
_symmetry_equiv_pos_as_xyz
  x,y,z
_cell_length_a	15.944551
_cell_length_b	11.892112
_cell_length_c	12.811415
_cell_angle_alpha	99.781573
_cell_angle_beta	96.227286
_cell_angle_gamma	85.649868
loop_
_atom_site_label
_atom_site_type_symbol
_atom_site_fract_x
_atom_site_fract_y
_atom_site_fract_z
O1	O	-1.120524	0.108471	0.142303
O2	O	-0.876121	0.110221	0.159104
O3	O	-1.003669	0.093574	-0.003097
O4	O	-0.992976	0.125118	0.304504
O5	O	-0.994005	-0.095673	-0.015198
O6	O	-0.866458	-0.079026	0.147003
O7	O	-1.110861	-0.080776	0.130202
Zn8	Zn	-0.987125	-0.109948	0.136681
Zn9	Zn	-0.999857	0.139393	0.152625
O10	O	-0.983313	-0.064129	0.292403
C11	C	-0.839990	0.015530	0.152357
C12	C	-0.746726	0.015326	0.150266
N13	N	-0.978442	-0.280117	0.125799
C14	C	-1.146992	0.013918	0.136950
C15	C	-1.240256	0.014129	0.139040
C16	C	-0.530954	0.004481	0.044728
C17	C	-0.475123	0.102816	0.099702
C18	C	-0.575967	0.014925	0.146483
C19	C	-0.465618	-0.083765	0.087796
C20	C	-0.411021	0.014531	0.142821
C21	C	-0.521368	0.113339	0.201490
C22	C	-0.511865	-0.073327	0.189564
C23	C	-0.456053	0.025038	0.244614
C24	C	-0.670988	0.015152	0.148590
C25	C	-0.316002	0.014313	0.140722
C26	C	-0.997942	-0.005084	-0.048510
C27	C	-0.995264	-0.017103	-0.165796
N28	N	-1.008546	0.309561	0.163499
C29	C	-0.917934	0.534596	0.050149
C30	C	-0.924015	0.653716	0.057741
C31	C	-1.026794	0.666922	0.186267
C32	C	-1.020712	0.547802	0.178676
C33	C	-0.966280	0.481643	0.110616
C34	C	-0.960195	0.362522	0.103030
C35	C	-1.062977	0.375729	0.231551
C36	C	-1.069058	0.494849	0.239142
C37	C	-1.000753	0.166652	-0.372985
C38	C	-0.998238	0.155363	-0.483185
C39	C	-0.987711	-0.050966	-0.496400
C40	C	-0.990227	-0.039678	-0.386199
C41	C	-0.996749	0.069134	-0.324495
C42	C	-0.999271	0.080421	-0.214293
C43	C	-0.988738	-0.125908	-0.227509
C44	C	-0.986223	-0.137196	-0.337710
C45	C	-0.989040	0.034531	0.337816
C46	C	-0.991718	0.046558	0.455103
H47	H	-0.458668	0.177288	0.061709
N48	N	-0.574123	-0.006867	-0.067134
H49	H	-0.606513	-0.078560	-0.083310
H50	H	-0.530255	-0.011391	-0.119180
N51	N	-0.413094	0.036593	0.356588
H52	H	-0.349902	0.035716	0.354526
H53	H	-0.427164	-0.029235	0.390812
N54	N	-1.085498	0.738278	0.259676
H55	H	-1.145389	0.715419	0.237709
H56	H	-1.081946	0.821752	0.255281
H57	H	-0.980909	-0.225788	-0.387963
H58	H	-0.915870	0.308658	0.047616
H59	H	-1.006072	0.255251	-0.322745
H60	H	-0.545760	0.196721	0.249546
N61	N	-1.127770	0.566207	0.312540
H62	H	-1.124289	0.649705	0.308173
H63	H	-1.110662	0.553285	0.388019
H64	H	-0.441132	-0.167063	0.039695
N65	N	-1.115121	0.318619	0.296782
H66	H	-1.103008	0.233118	0.281650
H67	H	-1.177110	0.337306	0.277432
H68	H	-0.985481	-0.205314	-0.188018
N69	N	-0.533664	-0.171975	0.239874
H70	H	-0.513424	-0.246373	0.196871
H71	H	-0.596920	-0.170557	0.241555
N72	N	-0.859220	0.463232	-0.023242
H73	H	-0.829512	0.514855	-0.060393
H74	H	-0.892940	0.408507	-0.077938
N75	N	-0.871875	0.710832	-0.007480
H76	H	-0.836472	0.650842	-0.051746
H77	H	-0.833673	0.764981	0.041611
H78	H	-1.004584	0.169022	-0.164055
N79	N	-1.002590	0.260541	-0.535493
H80	H	-1.007116	0.331181	-0.479680
H81	H	-1.053751	0.259440	-0.589474
H82	H	-0.982394	-0.139556	-0.546657
