data_functionalizedCrystal
_audit_creation_method	'MofGen! by Chris Wilmer'
_symmetry_space_group_name_H-M	'P1'
_symmetry_Int_Tables_number	1
_symmetry_cell_setting	triclinic
loop_
_symmetry_equiv_pos_as_xyz
  x,y,z
_cell_length_a	10.686285
_cell_length_b	12.759401
_cell_length_c	10.686409
_cell_angle_alpha	85.570169
_cell_angle_beta	89.594968
_cell_angle_gamma	85.636231
loop_
_atom_site_label
_atom_site_type_symbol
_atom_site_fract_x
_atom_site_fract_y
_atom_site_fract_z
Zn1	Zn	-0.553059	1.684869	-0.670939
Zn2	Zn	-0.746960	1.682620	-0.445110
Zn3	Zn	-0.537220	1.494644	-0.461198
Zn4	Zn	-0.762798	1.521542	-0.654842
O5	O	-0.650009	1.595919	-0.558022
O6	O	-0.578781	1.831592	-0.640986
O7	O	-0.705880	1.645487	-0.271693
O8	O	-0.363767	1.509562	-0.502489
O9	O	-0.721239	1.829940	-0.475070
O10	O	-0.375405	1.649320	-0.656585
O11	O	-0.551785	1.507382	-0.283513
O12	O	-0.567142	1.351191	-0.486882
O13	O	-0.748233	1.555406	-0.832528
O14	O	-0.732874	1.370953	-0.629151
O15	O	-0.594139	1.675402	-0.844354
O16	O	-0.924614	1.671569	-0.459463
O17	O	-0.936250	1.553225	-0.613552
C18	C	-0.650009	1.322951	-0.558016
C19	C	-0.650041	1.206178	-0.558041
C20	C	-0.975953	1.615102	-0.533042
C21	C	-1.115397	1.623408	-0.522398
C22	C	-0.674720	1.618655	-0.885232
C23	C	-0.685250	1.628344	-1.024670
C24	C	-0.322794	1.576692	-0.583127
C25	C	-0.183355	1.568498	-0.593825
C26	C	-0.650010	1.869953	-0.558029
C27	C	-0.650011	1.986730	-0.558032
C28	C	-0.575846	2.042454	-0.644413
C29	C	-0.575864	2.152179	-0.644421
C30	C	-0.724215	2.150447	-0.471655
C31	C	-0.724203	2.040724	-0.471654
C32	C	-0.625304	1.573326	-0.232092
C33	C	-0.614421	1.563820	-0.092682
H34	H	-1.134860	1.515134	-0.663123
O35	O	-0.532105	1.489150	-0.035114
C36	C	-0.468416	1.431086	-0.126339
H37	H	-0.527035	1.437067	-0.215675
H38	H	-0.452811	1.344919	-0.089219
H39	H	-0.373905	1.464319	-0.147890
H40	H	-1.163899	1.676767	-0.453087
H41	H	-0.754224	1.690852	-0.073094
O42	O	-0.503642	1.989937	-0.728157
C43	C	-0.417232	1.916732	-0.662956
H44	H	-0.402021	1.942475	-0.564746
H45	H	-0.324115	1.912977	-0.715739
H46	H	-0.455682	1.835551	-0.655659
H47	H	-0.515473	2.197545	-0.714763
O48	O	-0.796157	2.203056	-0.387794
C49	C	-0.780287	2.311853	-0.406333
H50	H	-0.686576	2.324011	-0.454847
H51	H	-0.781703	2.347521	-0.311713
H52	H	-0.859747	2.352002	-0.467429
H53	H	-0.784604	1.995352	-0.401311
