data_functionalizedCrystal
_audit_creation_method	'MofGen! by Chris Wilmer'
_symmetry_space_group_name_H-M	'P1'
_symmetry_Int_Tables_number	1
_symmetry_cell_setting	triclinic
loop_
_symmetry_equiv_pos_as_xyz
  x,y,z
_cell_length_a	9.065215
_cell_length_b	10.540510
_cell_length_c	7.540329
_cell_angle_alpha	89.998880
_cell_angle_beta	89.997574
_cell_angle_gamma	84.764004
loop_
_atom_site_label
_atom_site_type_symbol
_atom_site_fract_x
_atom_site_fract_y
_atom_site_fract_z
O1	O	1.959448	0.186128	-0.147451
O2	O	2.459448	0.686128	0.352549
O3	O	1.530085	0.201401	-0.147458
O4	O	2.030085	0.701401	0.352542
O5	O	1.754585	0.009092	-0.147454
O6	O	2.254585	0.509092	0.352546
O7	O	1.734948	0.378437	-0.147455
O8	O	2.234948	0.878437	0.352545
O9	O	1.754571	0.009089	0.147511
O10	O	2.254571	0.509089	0.647511
O11	O	1.530071	0.201398	0.147507
O12	O	2.030071	0.701398	0.647507
O13	O	1.959435	0.186126	0.147514
O14	O	2.459435	0.686126	0.647514
Cu15	Cu	1.744752	0.193762	0.174443
Cu16	Cu	2.244752	0.693762	0.674443
Cu17	Cu	1.744768	0.193765	-0.174387
Cu18	Cu	2.244768	0.693765	0.325613
O19	O	1.734934	0.378435	0.147510
O20	O	2.234934	0.878435	0.647510
C21	C	1.475099	0.199933	0.000023
C22	C	1.975099	0.699933	0.500023
C23	C	1.311278	0.195546	0.000020
C24	C	1.811278	0.695546	0.500020
C25	C	1.753115	-0.038218	0.000025
C26	C	2.253115	0.461782	0.500025
C27	C	1.748737	-0.179185	0.000014
C28	C	2.248737	0.320815	0.500014
C29	C	1.904696	-0.396065	0.000693
C30	C	2.404696	0.103935	0.500693
C31	C	1.909366	-0.249452	0.000019
C32	C	2.409366	0.250548	0.500019
C33	C	1.666518	-0.224245	-0.168423
C34	C	2.166518	0.275755	0.331577
C35	C	1.662985	-0.371019	-0.168555
C36	C	2.162985	0.128981	0.331445
C37	C	1.659625	-0.370843	0.166876
C38	C	2.159625	0.129157	0.666876
C39	C	1.667243	-0.224474	0.169093
C40	C	2.167243	0.275526	0.669093
C41	C	2.014421	0.187594	0.000029
C42	C	2.514421	0.687594	0.500029
C43	C	2.178241	0.191980	0.000020
C44	C	2.678241	0.691980	0.500020
C45	C	1.736404	0.425745	0.000027
C46	C	2.236404	0.925745	0.500027
C47	C	1.740782	0.566711	0.000026
C48	C	2.240782	1.066711	0.500026
N49	N	1.744751	0.193759	0.419792
N50	N	2.244751	0.693759	0.919792
N51	N	1.744780	0.193758	-0.419736
N52	N	2.244780	0.693758	0.080264
H53	H	1.973698	-0.219872	0.120759
H54	H	2.473698	0.280128	0.620759
H55	H	1.719185	-0.411026	-0.294462
H56	H	2.219185	0.088974	0.205538
H57	H	1.727069	-0.195642	0.293701
H58	H	2.227069	0.304358	0.793701
F59	F	1.501991	-0.400377	0.168360
F60	F	2.001991	0.099623	0.668360
H61	H	1.974083	-0.220807	-0.120930
H62	H	2.474083	0.279193	0.379070
F63	F	1.505956	-0.401659	-0.178559
F64	F	2.005956	0.098341	0.321441
H65	H	1.967270	-0.437790	0.121488
H66	H	2.467270	0.062210	0.621488
H67	H	1.549971	-0.175839	0.179262
H68	H	2.049971	0.324161	0.679262
F69	F	1.511955	-0.162871	-0.176624
F70	F	2.011955	0.337129	0.323376
H71	H	1.723627	-0.193177	-0.293772
H72	H	2.223627	0.306823	0.206228
H73	H	1.710665	-0.412837	0.294552
H74	H	2.210665	0.087163	0.794552
H75	H	1.966921	-0.439340	-0.119417
H76	H	2.466921	0.060660	0.380583
