data_functionalizedCrystal
_audit_creation_method	'MofGen! by Chris Wilmer'
_symmetry_space_group_name_H-M	'P1'
_symmetry_Int_Tables_number	1
_symmetry_cell_setting	triclinic
loop_
_symmetry_equiv_pos_as_xyz
  x,y,z
_cell_length_a	17.699083
_cell_length_b	17.699104
_cell_length_c	16.176319
_cell_angle_alpha	89.998737
_cell_angle_beta	90.001389
_cell_angle_gamma	96.712734
loop_
_atom_site_label
_atom_site_type_symbol
_atom_site_fract_x
_atom_site_fract_y
_atom_site_fract_z
O1	O	-1.004086	0.095712	-0.068621
O2	O	-0.783708	0.108164	-0.068646
O3	O	-0.900115	-0.008250	-0.068639
O4	O	-0.887679	0.212126	-0.068628
O5	O	-0.900099	-0.008257	0.068854
O6	O	-0.783692	0.108157	0.068847
O7	O	-1.004070	0.095705	0.068873
Cu8	Cu	-0.893880	0.101930	0.081414
Cu9	Cu	-0.893899	0.101939	-0.081188
O10	O	-0.887663	0.212119	0.068865
C11	C	-0.755503	0.107715	0.000097
C12	C	-0.671485	0.106376	0.000086
C13	C	-0.899659	-0.036450	0.000104
C14	C	-0.898314	-0.120467	0.000094
C15	C	-0.888120	0.240319	0.000120
C16	C	-0.889464	0.324337	0.000125
C17	C	-1.032275	0.096155	0.000128
C18	C	-1.116293	0.097493	0.000133
C19	C	-0.622869	0.174709	0.000090
C20	C	-0.543926	0.173446	0.000101
C21	C	-0.513600	0.103851	0.000102
C22	C	-0.562222	0.035513	0.000101
C23	C	-0.641164	0.036776	0.000096
C24	C	-0.243859	0.030418	0.000121
C25	C	-0.164911	0.029160	0.000123
C26	C	-0.146621	0.167088	0.000126
C27	C	-0.225563	0.168351	0.000121
C28	C	-0.274178	0.100014	0.000124
C29	C	-0.359777	0.101383	0.000114
C30	C	-0.428002	0.102480	0.000106
C31	C	-0.828721	0.849208	0.000086
C32	C	-0.827461	0.770264	0.000095
C33	C	-0.895797	0.721646	0.000105
C34	C	-0.965395	0.751976	0.000116
C35	C	-0.966654	0.830919	0.000113
C36	C	-0.960322	0.433610	0.000127
C37	C	-0.959059	0.354663	0.000127
C38	C	-0.821130	0.372956	0.000108
C39	C	-0.822388	0.451898	0.000106
C40	C	-0.891987	0.482221	0.000121
C41	C	-0.893351	0.567821	0.000113
C42	C	-0.894433	0.636048	0.000107
N43	N	-0.893872	0.101924	0.195779
N44	N	-0.893912	0.101940	-0.195553
C45	C	-0.945432	0.050396	0.239047
C46	C	-0.945436	0.050396	0.325594
C47	C	-0.893883	0.101926	0.368872
C48	C	-0.842317	0.153456	0.325598
C49	C	-0.842310	0.153453	0.239053
C50	C	-0.842343	0.153470	0.674627
C51	C	-0.842355	0.153471	0.761178
C52	C	-0.945469	0.050413	0.761168
C53	C	-0.945462	0.050410	0.674622
C54	C	-0.893894	0.101936	0.631356
C55	C	-0.893889	0.101936	0.537512
C56	C	-0.893890	0.101931	0.462714
H57	H	-0.647554	0.231382	0.000089
H58	H	-0.800323	0.195410	0.203825
H59	H	-0.987444	0.008451	0.639388
H60	H	-0.987456	0.008455	0.796404
H61	H	-0.800371	0.195435	0.796414
C62	C	-0.754444	0.901863	0.000114
C63	C	-0.693228	0.858405	0.000132
C64	C	-0.624792	0.906883	0.000171
H65	H	-0.751964	0.933054	-0.047821
H66	H	-0.752020	0.933030	0.048079
H67	H	-0.695651	0.827252	-0.047828
H68	H	-0.695683	0.827215	0.048064
H69	H	-0.622367	0.938049	0.048135
H70	H	-0.622320	0.938071	-0.047766
H71	H	-0.583249	0.877404	0.000190
C72	C	-1.001512	-0.005573	0.372420
C73	C	-1.046679	-0.050681	0.315996
C74	C	-1.098355	-0.102240	0.359101
H75	H	-0.974447	-0.037124	0.406194
H76	H	-1.033006	0.021606	0.406155
H77	H	-1.015189	-0.077858	0.282276
H78	H	-1.073760	-0.019151	0.282220
H79	H	-1.129849	-0.075061	0.392836
H80	H	-1.071284	-0.133785	0.392874
H81	H	-1.129012	-0.132847	0.320824
H82	H	-0.800356	0.195426	0.639406
H83	H	-0.283432	-0.025227	0.000124
C84	C	-0.132088	-0.046461	0.000002
C85	C	-0.156824	-0.087775	-0.070722
C86	C	-0.126611	-0.157439	-0.070858
H87	H	-0.078113	-0.037532	-0.000042
H88	H	-0.148803	-0.074631	0.047926
H89	H	-0.140104	-0.059611	-0.118634
H90	H	-0.210794	-0.096724	-0.070694
H91	H	-0.143326	-0.185609	-0.022933
H92	H	-0.072637	-0.148502	-0.070898
H93	H	-0.143395	-0.185482	-0.118838
H94	H	-0.800337	0.195411	0.360840
C95	C	-0.751954	0.737239	-0.000050
C96	C	-0.747223	0.692434	-0.070775
C97	C	-0.677678	0.661994	-0.070932
H98	H	-0.711374	0.777424	-0.000105
H99	H	-0.748576	0.706784	0.047873
H100	H	-0.750594	0.722888	-0.118686
H101	H	-0.787787	0.652238	-0.070735
H102	H	-0.674299	0.631539	-0.023009
H103	H	-0.637103	0.702184	-0.070985
H104	H	-0.674461	0.631585	-0.118914
H105	H	-0.537525	-0.021153	0.000113
H106	H	-0.250249	0.225023	0.000116
C107	C	-0.491269	0.247719	0.000061
C108	C	-0.534723	0.308938	0.000033
C109	C	-0.486242	0.377372	-0.000012
H110	H	-0.460080	0.250202	0.047999
H111	H	-0.460100	0.250136	-0.047901
H112	H	-0.565878	0.306522	0.047991
H113	H	-0.565911	0.306480	-0.047901
H114	H	-0.455073	0.379789	-0.047975
H115	H	-0.455055	0.379847	0.047926
H116	H	-0.515718	0.418917	-0.000039
H117	H	-0.107028	0.222732	0.000127
C118	C	-1.035859	0.466572	0.000303
C119	C	-1.040616	0.511343	0.071050
C120	C	-1.110196	0.541717	0.071243
H121	H	-1.039296	0.497040	-0.047588
H122	H	-1.076400	0.426333	0.000350
H123	H	-1.000087	0.551577	0.070995
H124	H	-1.037193	0.480893	0.118952
H125	H	-1.150737	0.501477	0.071290
H126	H	-1.113627	0.572180	0.023349
H127	H	-1.113436	0.572091	0.119247
H128	H	-0.680747	-0.018868	0.000092
H129	H	-0.766743	0.491479	0.000093
H130	H	-0.764460	0.348258	0.000100
C131	C	-1.039614	0.699231	0.000296
C132	C	-1.081512	0.712903	0.071048
C133	C	-1.149883	0.664325	0.071243
H134	H	-1.068252	0.708369	-0.047592
H135	H	-1.028932	0.647861	0.000337
H136	H	-1.092196	0.764262	0.070998
H137	H	-1.052897	0.703760	0.118947
H138	H	-1.139201	0.612954	0.071285
H139	H	-1.178514	0.673466	0.023353
H140	H	-1.178316	0.673589	0.119251
C141	C	-1.033337	0.302001	0.000186
C142	C	-1.094559	0.345452	0.000223
C143	C	-1.162991	0.296967	0.000287
H144	H	-1.035829	0.270809	-0.047747
H145	H	-1.035742	0.270837	0.048153
H146	H	-1.092156	0.376604	-0.047739
H147	H	-1.092092	0.376643	0.048152
H148	H	-1.165396	0.265803	0.048254
H149	H	-1.165475	0.265777	-0.047647
H150	H	-1.204538	0.326441	0.000319
H151	H	-1.023324	0.855607	0.000121
H152	H	-0.987416	0.008437	0.203815
