data_functionalizedCrystal
_audit_creation_method	'MofGen! by Chris Wilmer'
_symmetry_space_group_name_H-M	'P1'
_symmetry_Int_Tables_number	1
_symmetry_cell_setting	triclinic
loop_
_symmetry_equiv_pos_as_xyz
  x,y,z
_cell_length_a	16.109302
_cell_length_b	16.109301
_cell_length_c	18.366186
_cell_angle_alpha	89.993749
_cell_angle_beta	89.989012
_cell_angle_gamma	83.461682
loop_
_atom_site_label
_atom_site_type_symbol
_atom_site_fract_x
_atom_site_fract_y
_atom_site_fract_z
O1	O	1.103137	0.106871	-0.060582
O2	O	0.861075	0.120170	-0.060577
O3	O	0.988756	-0.007510	-0.060575
O4	O	0.975456	0.234552	-0.060584
O5	O	0.988734	-0.007517	0.060525
O6	O	0.861053	0.120164	0.060523
O7	O	1.103115	0.106865	0.060517
Zn8	Zn	0.982081	0.113513	0.079747
Zn9	Zn	0.982109	0.113522	-0.079807
O10	O	0.975435	0.234545	0.060515
C11	C	0.830089	0.119628	-0.000026
C12	C	0.737794	0.118013	-0.000024
C13	C	0.525441	0.114274	0.065980
C14	C	0.438721	0.112747	0.065978
C15	C	0.438755	0.112758	-0.066051
C16	C	0.525475	0.114279	-0.066048
C17	C	0.568815	0.115041	-0.000030
C18	C	0.395375	0.111994	-0.000036
C19	C	0.301350	0.110338	-0.000039
C20	C	0.662847	0.116695	-0.000027
C21	C	0.988206	-0.038488	-0.000025
C22	C	0.986591	-0.130784	-0.000026
C23	C	1.057074	-0.439782	-0.000041
C24	C	1.058599	-0.353062	-0.000036
C25	C	0.907111	-0.333189	-0.000023
C26	C	0.905586	-0.419907	-0.000022
C27	C	0.980570	-0.473202	-0.000035
C28	C	0.983620	-0.299763	-0.000031
C29	C	0.985273	-0.205737	-0.000027
C30	C	0.978917	-0.567234	-0.000038
C31	C	1.134101	0.107407	-0.000035
C32	C	1.226396	0.109022	-0.000042
C33	C	0.975984	0.265523	-0.000036
C34	C	0.977600	0.357819	-0.000040
N35	N	0.982067	0.113507	0.188638
N36	N	0.982129	0.113521	-0.188698
C37	C	1.038623	0.056998	0.226739
C38	C	1.038628	0.056994	0.302967
C39	C	0.982086	0.113514	0.341091
C40	C	0.925520	0.170027	0.302981
C41	C	0.925511	0.170024	0.226754
C42	C	0.971173	0.189236	0.461848
C43	C	0.971188	0.189241	0.538073
C44	C	0.982109	0.113524	0.576198
C45	C	0.993034	0.037800	0.538089
C46	C	0.993025	0.037797	0.461863
C47	C	0.982089	0.113524	0.423746
C48	C	1.038674	0.057007	0.696955
C49	C	1.038673	0.057002	0.773184
C50	C	0.925569	0.170042	0.773196
C51	C	0.925565	0.170040	0.696968
C52	C	0.982122	0.113523	0.658852
H53	H	0.560791	0.114902	-0.119805
H54	H	0.843284	-0.447118	-0.000014
O55	O	1.099610	-0.003967	0.185627
H56	H	1.138931	-0.043268	0.224932
H57	H	0.846061	-0.289786	-0.000015
O58	O	0.391914	0.112148	0.137177
H59	H	0.324321	0.111036	0.126087
O60	O	0.392005	0.111934	-0.137252
H61	H	0.436738	0.112712	-0.183153
O62	O	0.864606	0.231015	0.814318
H63	H	0.875193	0.295825	0.799669
O64	O	1.137945	-0.497268	-0.000041
H65	H	1.191398	-0.459455	-0.000035
H66	H	1.084684	0.010976	0.333995
H67	H	1.120896	-0.325856	-0.000040
O68	O	1.004792	-0.043869	0.420756
H69	H	1.012381	-0.096523	0.460066
O70	O	1.004808	-0.043876	0.579196
H71	H	1.002968	-0.031156	0.638603
O72	O	1.099659	-0.003956	0.655835
H73	H	1.138978	-0.043263	0.695139
O74	O	1.099684	-0.003941	0.814285
H75	H	1.139015	-0.043230	0.774971
O76	O	0.864576	0.230998	0.655865
H77	H	0.825263	0.270306	0.695179
O78	O	0.959422	0.270910	0.579176
H79	H	0.951815	0.323559	0.539861
O80	O	0.959398	0.270907	0.420729
H81	H	0.951819	0.323561	0.460033
O82	O	0.864537	0.230994	0.344093
H83	H	0.874051	0.221511	0.403500
O84	O	0.864513	0.230974	0.185647
H85	H	0.875086	0.295794	0.200259
O86	O	0.572191	0.115097	0.137181
H87	H	0.527458	0.114303	0.183081
