data_functionalizedCrystal
_audit_creation_method	'MofGen! by Chris Wilmer'
_symmetry_space_group_name_H-M	'P1'
_symmetry_Int_Tables_number	1
_symmetry_cell_setting	triclinic
loop_
_symmetry_equiv_pos_as_xyz
  x,y,z
_cell_length_a	9.798715
_cell_length_b	17.699083
_cell_length_c	17.699083
_cell_angle_alpha	83.283015
_cell_angle_beta	89.995964
_cell_angle_gamma	90.002347
loop_
_atom_site_label
_atom_site_type_symbol
_atom_site_fract_x
_atom_site_fract_y
_atom_site_fract_z
O1	O	0.113302	-1.004075	-0.095710
O2	O	0.613302	-0.504075	0.404290
O3	O	0.113347	-0.783697	-0.108162
O4	O	0.613347	-0.283697	0.391838
O5	O	0.113312	-0.900112	0.008253
O6	O	0.613312	-0.400112	0.508253
O7	O	0.113338	-0.887660	-0.212125
O8	O	0.613338	-0.387660	0.287875
O9	O	-0.113671	-0.900104	0.008254
O10	O	0.386329	-0.400104	0.508254
O11	O	-0.113635	-0.783688	-0.108162
O12	O	0.386365	-0.283688	0.391838
O13	O	-0.113680	-1.004066	-0.095709
O14	O	0.386320	-0.504066	0.404291
Zn15	Zn	-0.149696	-0.893876	-0.101936
Zn16	Zn	0.350304	-0.393876	0.398064
Zn17	Zn	0.149363	-0.893887	-0.101936
Zn18	Zn	0.649363	-0.393887	0.398064
O19	O	-0.113644	-0.887651	-0.212125
O20	O	0.386356	-0.387651	0.287875
C21	C	-0.000138	-0.755495	-0.107716
C22	C	0.499862	-0.255495	0.392284
C23	C	-0.000121	-0.671477	-0.106377
C24	C	0.499879	-0.171477	0.393623
N25	N	-0.353795	-0.893874	-0.101935
N26	N	0.146205	-0.393874	0.398065
C27	C	-0.000180	-0.899662	0.036451
C28	C	0.499820	-0.399662	0.536451
C29	C	-0.000180	-0.898323	0.120469
C30	C	0.499820	-0.398323	0.620469
C31	C	-0.421587	-0.942756	-0.052842
C32	C	0.078413	-0.442756	0.447158
C33	C	-0.578750	-0.942768	-0.052839
C34	C	-0.078750	-0.442768	0.447161
N35	N	0.353463	-0.893896	-0.101930
N36	N	0.853463	-0.393896	0.398070
C37	C	-0.000191	-1.032268	-0.096156
C38	C	0.499809	-0.532268	0.403844
C39	C	-0.000199	-1.116286	-0.097494
C40	C	0.499801	-0.616286	0.402506
C41	C	-0.000113	-0.622856	-0.174710
C42	C	0.499887	-0.122856	0.325290
C43	C	-0.000131	-0.543913	-0.173448
C44	C	0.499869	-0.043913	0.326552
C45	C	-0.000147	-0.513592	-0.103852
C46	C	0.499853	-0.013592	0.396148
C47	C	-0.000159	-0.562219	-0.035513
C48	C	0.499841	-0.062219	0.464487
C49	C	-0.000151	-0.641161	-0.036776
C50	C	0.499849	-0.141161	0.463224
C51	C	-0.000193	-0.243856	-0.030418
C52	C	0.499807	0.256144	0.469582
C53	C	-0.000197	-0.164908	-0.029160
C54	C	0.499803	0.335092	0.470840
C55	C	-0.000174	-0.146608	-0.167090
C56	C	0.499826	0.353392	0.332910
C57	C	-0.000165	-0.225550	-0.168353
C58	C	0.499835	0.274450	0.331647
C59	C	-0.000185	-0.274170	-0.100015
C60	C	0.499815	0.225830	0.399985
C61	C	-0.000168	-0.359769	-0.101384
C62	C	0.499832	0.140231	0.398616
C63	C	-0.000154	-0.427995	-0.102481
C64	C	0.499846	0.072005	0.397519
C65	C	-0.000150	-0.888102	-0.240322
C66	C	0.499850	-0.388102	0.259678
C67	C	-0.000141	-0.889440	-0.324340
C68	C	0.499859	-0.389440	0.175660
C69	C	-0.000196	-0.966656	0.169090
C70	C	0.499804	-0.466656	0.669090
C71	C	-0.000183	-0.965394	0.248033
C72	C	0.499817	-0.465394	0.748033
C73	C	-0.000165	-0.895798	0.278354
C74	C	0.499835	-0.395798	0.778354
C75	C	-0.000145	-0.827459	0.229727
C76	C	0.499855	-0.327459	0.729727
C77	C	-0.000148	-0.828722	0.150785
C78	C	0.499852	-0.328722	0.650785
C79	C	-0.000133	-0.822364	0.548090
C80	C	0.499867	-0.322364	1.048090
C81	C	-0.000134	-0.821106	0.627038
C82	C	0.499866	-0.321106	1.127038
C83	C	-0.000169	-0.959036	0.645338
C84	C	0.499831	-0.459036	1.145338
C85	C	-0.000171	-0.960299	0.566396
C86	C	0.499829	-0.460299	1.066396
C87	C	-0.000144	-0.891961	0.517776
C88	C	0.499856	-0.391961	1.017776
C89	C	-0.000155	-0.893330	0.432177
C90	C	0.499845	-0.393330	0.932177
C91	C	-0.000164	-0.894427	0.363951
C92	C	0.499836	-0.394427	0.863951
H93	H	-0.363278	-0.984594	-0.010811
H94	H	0.136722	-0.484594	0.489189
H95	H	-0.000134	-0.773078	0.111198
H96	H	0.499866	-0.273078	0.611198
C97	C	-0.432551	-0.837336	-0.158704
C98	C	0.067449	-0.337336	0.341296
H99	H	-0.369639	-0.806660	-0.189499
H100	H	0.130361	-0.306660	0.310501
H101	H	-0.488299	-0.864621	-0.190063
H102	H	0.011701	-0.364621	0.309937
H103	H	-0.488286	-0.805832	-0.131567
H104	H	0.011714	-0.305832	0.368433
C105	C	-0.000095	-0.656202	-0.251268
C106	C	0.499905	-0.156202	0.248732
H107	H	-0.000105	-0.615936	-0.291783
H108	H	0.499895	-0.115936	0.208217
H109	H	0.079061	-0.686613	-0.254630
H110	H	0.579061	-0.186613	0.245370
H111	H	-0.079256	-0.686620	-0.254627
H112	H	0.420744	-0.186620	0.245373
C113	C	-0.000118	-0.490433	-0.248615
C114	C	0.499882	0.009567	0.251385
H115	H	-0.000090	-0.519797	-0.290244
H116	H	0.499910	-0.019797	0.209756
H117	H	-0.079276	-0.459262	-0.250994
H118	H	0.420724	0.040738	0.249006
H119	H	0.079042	-0.459253	-0.250987
H120	H	0.579042	0.040747	0.249013
H121	H	-0.000146	-0.250232	-0.225025
H122	H	0.499854	0.249768	0.274975
H123	H	-0.637048	-0.984620	-0.010812
H124	H	-0.137048	-0.484620	0.489188
C125	C	-0.000187	-1.040559	0.301516
C126	C	0.499813	-0.540559	0.801516
H127	H	-0.000161	-1.029841	0.352874
H128	H	0.499839	-0.529841	0.852874
H129	H	-0.079344	-1.069105	0.292349
H130	H	0.420656	-0.569105	0.792349
H131	H	0.078973	-1.069100	0.292328
H132	H	0.578973	-0.569100	0.792328
C133	C	-0.000171	-0.093124	-0.242262
C134	C	0.499829	0.406876	0.257738
H135	H	-0.000193	-0.041766	-0.231546
H136	H	0.499807	0.458234	0.268454
H137	H	0.078990	-0.102296	-0.270805
H138	H	0.578990	0.397704	0.229195
H139	H	-0.079328	-0.102309	-0.270805
H140	H	0.420672	0.397691	0.229195
H141	H	-0.000191	-0.537526	0.021154
H142	H	0.499809	-0.037526	0.521154
C143	C	-0.000228	-0.131557	0.047400
C144	C	0.499772	0.368443	0.547400
H145	H	-0.000252	-0.171819	0.087919
H146	H	0.499748	0.328181	0.587919
H147	H	0.078922	-0.101139	0.050763
H148	H	0.578922	0.398861	0.550763
H149	H	-0.079396	-0.101145	0.050750
H150	H	0.420604	0.398855	0.550750
C151	C	-0.000205	-0.297328	0.044751
C152	C	0.499795	0.202672	0.544751
H153	H	-0.000201	-0.267962	0.086379
H154	H	0.499799	0.232038	0.586379
H155	H	-0.079357	-0.328507	0.047128
H156	H	0.420643	0.171493	0.547128
H157	H	0.078960	-0.328501	0.047128
H158	H	0.578960	0.171499	0.547128
H159	H	-0.000219	-1.023330	0.144409
H160	H	0.499781	-0.523330	0.644409
C161	C	-0.000146	-0.694644	0.038390
C162	C	0.499854	-0.194644	0.538390
H163	H	-0.000142	-0.665282	0.080021
H164	H	0.499858	-0.165282	0.580021
H165	H	-0.079294	-0.725826	0.040767
H166	H	0.420706	-0.225826	0.540767
H167	H	0.079023	-0.725813	0.040762
H168	H	0.579023	-0.225813	0.540762
H169	H	-0.000193	-1.016971	0.541714
H170	H	0.499807	-0.516971	1.041714
H171	H	-0.000184	-1.014680	0.684934
H172	H	0.499816	-0.514680	1.184934
H173	H	-0.000122	-0.764429	0.651721
H174	H	0.499878	-0.264429	1.151721
H175	H	-0.000111	-0.766718	0.508512
H176	H	0.499889	-0.266718	1.008512
H177	H	-0.000121	-0.770792	0.254420
H178	H	0.499879	-0.270792	0.754420
H179	H	-0.588248	-0.852046	-0.143966
H180	H	-0.088248	-0.352046	0.356034
