data_functionalizedCrystal
_audit_creation_method	'MofGen! by Chris Wilmer'
_symmetry_space_group_name_H-M	'P1'
_symmetry_Int_Tables_number	1
_symmetry_cell_setting	triclinic
loop_
_symmetry_equiv_pos_as_xyz
  x,y,z
_cell_length_a	17.077404
_cell_length_b	29.839131
_cell_length_c	17.077396
_cell_angle_alpha	90.031913
_cell_angle_beta	90.019501
_cell_angle_gamma	90.041645
loop_
_atom_site_label
_atom_site_type_symbol
_atom_site_fract_x
_atom_site_fract_y
_atom_site_fract_z
Zn1	Zn	1.199954	-0.178851	0.443824
Zn2	Zn	1.199818	-0.253981	0.312550
Zn3	Zn	1.068685	-0.178866	0.312572
Zn4	Zn	1.068611	-0.253955	0.443774
O5	O	1.134267	-0.216413	0.378180
O6	O	1.309782	-0.188821	0.426422
O7	O	1.182398	-0.244035	0.202706
O8	O	1.086186	-0.115997	0.330013
O9	O	1.309683	-0.244020	0.329976
O10	O	1.182628	-0.115986	0.426443
O11	O	1.086055	-0.188848	0.202722
O12	O	0.958829	-0.188822	0.329964
O13	O	1.086059	-0.243974	0.553627
O14	O	0.958774	-0.243989	0.426358
O15	O	1.182556	-0.188796	0.553664
O16	O	1.182325	-0.316845	0.329927
O17	O	1.085928	-0.316825	0.426336
C18	C	0.930319	-0.216405	0.378158
C19	C	0.843069	-0.216412	0.378168
C20	C	1.134125	-0.333136	0.378141
C21	C	1.134136	-0.383070	0.378151
C22	C	0.802071	-0.245181	0.428279
C23	C	0.720091	-0.245182	0.428292
C24	C	0.679110	-0.216416	0.378188
C25	C	0.720114	-0.187644	0.328074
C26	C	0.802093	-0.187641	0.328066
C27	C	0.549244	-0.187653	0.328093
C28	C	0.467259	-0.187657	0.328100
C29	C	0.467242	-0.245194	0.428319
C30	C	0.549221	-0.245191	0.428311
C31	C	0.590219	-0.216420	0.378196
C32	C	1.184552	-0.692711	0.328053
C33	C	1.184649	-0.880384	0.328083
O34	O	1.227402	-0.904647	0.285459
N35	N	1.134430	-0.903855	0.378239
C36	C	1.084186	-0.880405	0.428394
O37	O	1.041479	-0.904675	0.471061
C38	C	1.084094	-0.692733	0.428367
C39	C	1.134311	-0.669264	0.378203
C40	C	1.234766	-0.669242	0.277893
C41	C	1.234738	-0.622327	0.277883
C42	C	1.184497	-0.598880	0.328033
C43	C	1.134283	-0.622349	0.378193
C44	C	1.033855	-0.669284	0.478526
C45	C	1.033837	-0.622363	0.478516
C46	C	1.084055	-0.598894	0.428352
C47	C	1.084014	-0.551987	0.428332
N48	N	1.134233	-0.528516	0.378177
C49	C	1.184475	-0.551962	0.328027
C50	C	1.084237	-0.978936	0.428404
C51	C	1.084259	-1.025854	0.428410
C52	C	1.184723	-1.025829	0.328100
C53	C	1.184697	-0.978911	0.328090
C54	C	1.134457	-0.955465	0.378248
C55	C	1.184412	-0.453437	0.328009
C56	C	1.184378	-0.406517	0.328001
C57	C	1.083917	-0.406545	0.428314
C58	C	1.083948	-0.453461	0.428319
C59	C	1.134202	-0.476905	0.378164
O60	O	1.041290	-0.527695	0.470941
O61	O	1.227188	-0.527685	0.285378
C62	C	1.184580	-0.739627	0.328063
C63	C	1.134366	-0.763095	0.378223
C64	C	1.084125	-0.739649	0.428373
C65	C	1.134388	-0.810013	0.378229
C66	C	1.184630	-0.833460	0.328079
C67	C	1.234849	-0.809989	0.277923
C68	C	1.234822	-0.763073	0.277913
C69	C	1.033905	-0.763120	0.478529
C70	C	1.033937	-0.810035	0.478534
C71	C	1.084178	-0.833482	0.428384
C72	C	1.339011	-0.216422	0.378202
C73	C	1.426261	-0.216425	0.378212
C74	C	1.134314	-0.216380	0.582924
C75	C	1.134335	-0.216366	0.670174
C76	C	1.134431	-0.099235	0.378236
C77	C	1.134500	-0.049300	0.378260
C78	C	1.134265	-0.216414	0.174232
C79	C	1.134397	-0.216301	0.086983
C80	C	1.184582	-0.187632	0.711185
C81	C	1.184592	-0.187617	0.793165
C82	C	1.134357	-0.216339	0.834134
C83	C	1.084104	-0.245074	0.793117
C84	C	1.084091	-0.245086	0.711138
C85	C	1.084135	-0.245047	0.963987
C86	C	1.084149	-0.245035	1.045972
C87	C	1.184636	-0.187578	1.046014
C88	C	1.184624	-0.187590	0.964035
C89	C	1.134371	-0.216326	0.923025
H90	H	0.835432	-0.268607	0.469077
C91	C	1.028901	-0.276626	1.091057
C92	C	1.062897	-0.311883	1.147403
C93	C	1.007655	-0.343474	1.192497
C94	C	0.918417	-0.339808	1.181244
C95	C	0.884416	-0.304549	1.124896
C96	C	0.939658	-0.272958	1.079802
H97	H	1.128960	-0.314598	1.155735
H98	H	1.032824	-0.369575	1.234210
H99	H	0.877523	-0.363193	1.214625
H100	H	0.818353	-0.301834	1.116564
H101	H	0.914488	-0.246858	1.038089
C102	C	0.674996	-0.276831	0.483415
C103	C	0.686207	-0.327897	0.476837
C104	C	0.641114	-0.359546	0.531964
C105	C	0.584811	-0.340130	0.593669
C106	C	0.573599	-0.289061	0.600249
C107	C	0.618691	-0.257411	0.545122
H108	H	0.727888	-0.342272	0.431157
H109	H	0.649415	-0.397351	0.527093
H110	H	0.551431	-0.363559	0.634478
H111	H	0.531918	-0.274685	0.645929
H112	H	0.610390	-0.219607	0.549994
H113	H	1.043166	-0.268480	0.677748
H114	H	0.433857	-0.268619	0.469126
H115	H	0.993037	-0.829139	0.519383
C116	C	1.290117	-0.835786	0.222759
C117	C	1.256155	-0.868089	0.161113
C118	C	1.311423	-0.893889	0.105955
C119	C	1.400654	-0.887386	0.112445
C120	C	1.434620	-0.855082	0.174094
C121	C	1.379352	-0.829282	0.229251
H122	H	1.190097	-0.872903	0.156306
H123	H	1.286278	-0.917802	0.060319
H124	H	1.441566	-0.906485	0.071614
H125	H	1.500678	-0.850268	0.178900
H126	H	1.404497	-0.805369	0.274888
C127	C	1.029011	-1.051666	0.483585
C128	C	0.967412	-1.083966	0.449525
C129	C	0.912165	-1.109776	0.504705
C130	C	0.918518	-1.103285	0.593946
C131	C	0.980121	-1.070983	0.628011
C132	C	1.035367	-1.045173	0.572830
H133	H	0.962707	-1.088772	0.383459
H134	H	0.866563	-1.133688	0.479487
H135	H	0.877622	-1.122391	0.634794
H136	H	0.984826	-1.066177	0.694076
H137	H	1.080969	-1.021261	0.598048
H138	H	0.582622	-0.164220	0.287291
H139	H	0.686741	-0.164221	0.287283
H140	H	1.043199	-0.268458	0.826480
C141	C	0.422178	-0.156002	0.273009
C142	C	0.467270	-0.124342	0.217905
C143	C	0.422189	-0.092682	0.162822
C144	C	0.332015	-0.092681	0.162844
C145	C	0.286918	-0.124342	0.217950
C146	C	0.331999	-0.156002	0.273033
H147	H	0.534027	-0.124342	0.217887
H148	H	0.455573	-0.069245	0.122029
H149	H	0.298643	-0.069244	0.122068
H150	H	0.220161	-0.124342	0.217968
H151	H	0.298615	-0.179439	0.313826
C152	C	1.028866	-0.276664	0.918880
C153	C	1.062835	-0.311945	0.862519
C154	C	1.007574	-0.343566	0.817414
C155	C	0.918342	-0.339905	0.828671
C156	C	0.884368	-0.304623	0.885035
C157	C	0.939630	-0.273002	0.930139
H158	H	1.128894	-0.314656	0.854183
H159	H	1.032724	-0.369684	0.775689
H160	H	0.877434	-0.363313	0.795281
H161	H	0.818309	-0.301912	0.893370
H162	H	0.914479	-0.246884	0.971864
H163	H	0.582585	-0.268617	0.469105
H164	H	0.835472	-0.164213	0.287265
C165	C	1.239623	-0.380703	0.272819
C166	C	1.233275	-0.387196	0.183578
C167	C	1.288519	-0.361383	0.128399
C168	C	1.350111	-0.329078	0.162460
C169	C	1.356460	-0.322584	0.251705
C170	C	1.301217	-0.348396	0.306885
H171	H	1.187679	-0.411111	0.158359
H172	H	1.283818	-0.366191	0.062333
H173	H	1.391005	-0.309970	0.121613
H174	H	1.402056	-0.298668	0.276924
H175	H	1.305918	-0.343588	0.372950
C176	C	0.978617	-0.695089	0.533715
C177	C	0.889381	-0.688685	0.527238
C178	C	0.834140	-0.714488	0.582434
C179	C	0.868135	-0.746695	0.644106
C180	C	0.957375	-0.753101	0.650585
C181	C	1.012616	-0.727298	0.595390
H182	H	0.864212	-0.664841	0.481583
H183	H	0.768079	-0.709746	0.577637
H184	H	0.827242	-0.765796	0.684965
H185	H	0.982544	-0.776944	0.696241
H186	H	1.078678	-0.732040	0.600187
H187	H	1.225534	-0.164205	0.930681
H188	H	1.225492	-0.164245	0.677834
H189	H	1.225336	-0.472520	0.287169
H190	H	1.275632	-0.603222	0.237037
H191	H	1.275683	-0.688328	0.237055
C192	C	0.978567	-0.596573	0.533689
C193	C	0.889338	-0.603081	0.527203
C194	C	0.834067	-0.577292	0.582372
C195	C	0.868025	-0.544994	0.644027
C196	C	0.957259	-0.538483	0.650516
C197	C	1.012530	-0.564273	0.595347
H198	H	0.864196	-0.626992	0.481560
H199	H	0.768010	-0.582112	0.577569
H200	H	0.827110	-0.525903	0.684867
H201	H	0.982401	-0.514573	0.696159
H202	H	1.078587	-0.559453	0.600150
H203	H	1.225632	-1.044928	0.287266
C204	C	1.028964	-0.953150	0.483580
C205	C	0.939736	-0.959661	0.477088
C206	C	0.884460	-0.933879	0.532263
C207	C	0.918412	-0.901586	0.593930
C208	C	1.007645	-0.895074	0.600425
C209	C	1.062921	-0.920856	0.545250
H210	H	0.914598	-0.983567	0.431436
H211	H	0.818404	-0.938700	0.527455
H212	H	0.877494	-0.882501	0.634774
H213	H	1.032783	-0.871168	0.646077
H214	H	1.128977	-0.916035	0.550058
H215	H	1.043059	-0.472570	0.469170
C216	C	1.028656	-0.380747	0.483478
C217	C	0.967036	-0.348537	0.449402
C218	C	0.911781	-0.322737	0.504571
C219	C	0.918145	-0.329146	0.593815
C220	C	0.979767	-0.361357	0.627895
C221	C	1.035023	-0.387157	0.572727
H222	H	0.962323	-0.343791	0.383334
H223	H	0.866164	-0.298892	0.479342
H224	H	0.877241	-0.310047	0.634655
H225	H	0.984480	-0.366103	0.693964
H226	H	1.080640	-0.411002	0.597955
H227	H	1.275713	-0.743969	0.237065
C228	C	1.239867	-0.156008	0.838273
C229	C	1.329097	-0.159682	0.827017
C230	C	1.384373	-0.128070	0.872123
C231	C	1.350419	-0.092784	0.928485
C232	C	1.261185	-0.089109	0.939744
C233	C	1.205909	-0.120721	0.894638
H234	H	1.354235	-0.185804	0.785292
H235	H	1.450430	-0.130791	0.863788
H236	H	1.391338	-0.069383	0.961875
H237	H	1.236046	-0.062987	0.981469
H238	H	1.139852	-0.118000	0.902973
H239	H	1.225588	-0.959805	0.287243
H240	H	0.992994	-0.744033	0.519368
H241	H	1.225552	-0.164179	1.079409
