data_functionalizedCrystal
_audit_creation_method	'MofGen! by Chris Wilmer'
_symmetry_space_group_name_H-M	'P1'
_symmetry_Int_Tables_number	1
_symmetry_cell_setting	triclinic
loop_
_symmetry_equiv_pos_as_xyz
  x,y,z
_cell_length_a	16.974800
_cell_length_b	15.944545
_cell_length_c	16.053802
_cell_angle_alpha	92.563576
_cell_angle_beta	91.074188
_cell_angle_gamma	83.443106
loop_
_atom_site_label
_atom_site_type_symbol
_atom_site_fract_x
_atom_site_fract_y
_atom_site_fract_z
O1	O	1.049081	0.107072	0.001478
O2	O	1.549081	0.607072	0.501478
O3	O	0.819620	0.119931	-0.014035
O4	O	1.319620	0.619931	0.485965
O5	O	0.940618	-0.008760	-0.005845
O6	O	1.440618	0.491240	0.494155
O7	O	0.928082	0.235763	-0.006712
O8	O	1.428082	0.735763	0.493288
O9	O	0.933958	-0.001705	0.132563
O10	O	1.433958	0.498295	0.632563
O11	O	0.812960	0.126985	0.124374
O12	O	1.312960	0.626985	0.624374
O13	O	1.042421	0.114127	0.139886
O14	O	1.542421	0.614127	0.639886
Zn15	Zn	0.926633	0.121676	0.154105
Zn16	Zn	1.426633	0.621676	0.654105
Zn17	Zn	0.935408	0.112382	-0.028254
Zn18	Zn	1.435408	0.612382	0.471746
O19	O	0.921422	0.242817	0.131696
O20	O	1.421422	0.742817	0.631696
C21	C	0.786927	0.122840	0.053185
C22	C	1.286927	0.622840	0.553185
C23	C	0.699434	0.120987	0.047270
C24	C	1.199434	0.620987	0.547270
C25	C	0.654704	0.123960	0.119940
C26	C	1.154704	0.623960	0.619940
C27	C	0.572497	0.122207	0.114385
C28	C	1.072497	0.622207	0.614385
C29	C	0.535020	0.117486	0.036160
C30	C	1.035020	0.617486	0.536160
C31	C	0.579757	0.114510	-0.036515
C32	C	1.079757	0.614510	0.463485
C33	C	0.661963	0.116258	-0.030960
C34	C	1.161963	0.616258	0.469040
C35	C	0.289550	0.111841	0.011454
C36	C	0.789550	0.611841	0.511454
C37	C	0.207337	0.110096	0.005904
C38	C	0.707337	0.610096	0.505904
C39	C	0.200083	0.117792	0.156805
C40	C	0.700083	0.617792	0.656805
C41	C	0.282290	0.119544	0.162354
C42	C	0.782290	0.619544	0.662354
C43	C	0.327020	0.116564	0.089679
C44	C	0.827020	0.616564	0.589679
N45	N	0.450991	0.115696	0.030480
N46	N	0.950991	0.615696	0.530480
N47	N	0.411049	0.118347	0.095359
N48	N	0.911049	0.618347	0.595359
C49	C	0.936769	-0.036528	0.063325
C50	C	1.436769	0.463472	0.563325
C51	C	0.935211	-0.129777	0.063222
C52	C	1.435211	0.370223	0.563222
C53	C	0.855556	-0.400584	0.057820
C54	C	1.355556	0.099416	0.557820
C55	C	0.897243	-0.353393	-0.007826
C56	C	1.397243	0.146607	0.492174
C57	C	0.929657	-0.465434	0.062823
C58	C	1.429657	0.034566	0.562823
C59	C	0.890697	-0.346465	0.128634
C60	C	1.390697	0.153535	0.628634
C61	C	0.932381	-0.300514	0.063020
C62	C	1.432381	0.199486	0.563020
C63	C	0.971327	-0.419475	-0.002882
C64	C	1.471327	0.080525	0.497118
C65	C	0.964767	-0.412547	0.133640
C66	C	1.464767	0.087453	0.633640
C67	C	1.006509	-0.365390	0.067980
C68	C	1.506509	0.134610	0.567980
C69	C	0.928085	-0.560440	0.062708
C70	C	1.428085	-0.060440	0.562708
C71	C	0.933959	-0.205511	0.063129
C72	C	1.433959	0.294489	0.563129
C73	C	1.075114	0.111218	0.072665
C74	C	1.575114	0.611218	0.572665
C75	C	1.162607	0.113070	0.078574
C76	C	1.662607	0.613070	0.578574
C77	C	0.925272	0.270585	0.062524
C78	C	1.425272	0.770585	0.562524
C79	C	0.926830	0.363834	0.062622
C80	C	1.426830	0.863834	0.562622
N81	N	0.920650	0.128018	0.278560
N82	N	1.420650	0.628018	0.778560
N83	N	0.941397	0.106032	-0.152709
N84	N	1.441397	0.606032	0.347291
C85	C	0.972154	0.073280	0.325740
C86	C	1.472154	0.573280	0.825740
C87	C	0.967976	0.077725	0.412864
C88	C	1.467976	0.577725	0.912864
C89	C	0.912297	0.136912	0.452807
C90	C	1.412297	0.636912	0.952807
C91	C	0.860788	0.191653	0.405620
C92	C	1.360788	0.691653	0.905620
C93	C	0.864963	0.187204	0.318498
C94	C	1.364963	0.687204	0.818498
C95	C	0.894062	0.156324	0.712982
C96	C	1.394062	0.656324	1.212982
C97	C	0.889893	0.160771	0.800111
C98	C	1.389893	0.660771	1.300111
C99	C	0.997080	0.046841	0.807349
C100	C	1.497080	0.546841	1.307349
C101	C	1.001253	0.042400	0.720225
C102	C	1.501253	0.542400	1.220225
C103	C	0.949741	0.097138	0.673046
C104	C	1.449741	0.597138	1.173046
N105	N	0.908027	0.141459	0.541862
N106	N	1.408027	0.641459	1.041862
N107	N	0.954008	0.092587	0.583992
N108	N	1.454008	0.592587	1.083992
H109	H	0.536083	0.124614	0.173561
H110	H	1.036083	0.624614	0.673561
Cl111	Cl	1.071251	-0.032007	0.670011
Cl112	Cl	1.571251	0.467993	1.170011
H113	H	0.163655	0.120217	0.215973
H114	H	0.663655	0.620217	0.715973
Cl115	Cl	1.061832	-0.021971	0.866663
Cl116	Cl	1.561832	0.478029	1.366663
Cl117	Cl	0.790787	0.266058	0.455832
Cl118	Cl	1.290787	0.766058	0.955832
Cl119	Cl	0.757036	-0.424975	0.051059
Cl120	Cl	1.257036	0.075025	0.551059
Cl121	Cl	0.718196	0.112516	-0.122320
Cl122	Cl	1.218196	0.612516	0.377680
H123	H	0.868725	-0.327467	-0.067637
H124	H	1.368725	0.172533	0.432363
H125	H	0.176826	0.106255	-0.057800
H126	H	0.676826	0.606255	0.442200
H127	H	1.070377	-0.349762	0.072259
H128	H	1.570377	0.150238	0.572259
Cl129	Cl	0.345770	0.108096	-0.079910
Cl130	Cl	0.845770	0.608096	0.420090
Cl131	Cl	0.532647	0.108545	-0.134856
Cl132	Cl	1.032647	0.608545	0.365144
H133	H	1.005378	-0.451157	-0.058525
H134	H	1.505378	0.048843	0.441475
H135	H	0.852120	0.200895	0.674576
H136	H	1.352120	0.700895	1.174576
H137	H	0.993257	-0.438488	0.193450
H138	H	1.493257	0.061512	0.693450
Cl139	Cl	0.838077	-0.297388	0.214439
Cl140	Cl	1.338077	0.202612	0.714439
Cl141	Cl	0.800209	0.256018	0.259186
Cl142	Cl	1.300209	0.756018	0.759186
Cl143	Cl	1.032724	0.008909	0.472178
Cl144	Cl	1.532724	0.508909	0.972178
Cl145	Cl	0.701808	0.129901	0.218285
Cl146	Cl	1.201808	0.629901	0.718285
H147	H	1.017496	0.025087	0.293225
H148	H	1.517496	0.525087	0.793225
H149	H	0.844550	0.208972	0.832628
H150	H	1.344550	0.708972	1.332628
H151	H	0.312798	0.123384	0.226053
H152	H	0.812798	0.623384	0.726053
