data_functionalizedCrystal
_audit_creation_method	'MofGen! by Chris Wilmer'
_symmetry_space_group_name_H-M	'P1'
_symmetry_Int_Tables_number	1
_symmetry_cell_setting	triclinic
loop_
_symmetry_equiv_pos_as_xyz
  x,y,z
_cell_length_a	6.817900
_cell_length_b	10.943925
_cell_length_c	10.943624
_cell_angle_alpha	91.772910
_cell_angle_beta	108.838799
_cell_angle_gamma	108.844289
loop_
_atom_site_label
_atom_site_type_symbol
_atom_site_fract_x
_atom_site_fract_y
_atom_site_fract_z
V1	V	-4.115532	-0.178599	-0.402534
O2	O	-4.073202	0.008617	-0.394889
O3	O	-4.093518	-0.354165	-0.399763
O4	O	-4.093494	-0.175837	-0.578100
O5	O	-4.073227	-0.170946	-0.215317
V6	V	-4.592325	-0.156208	-0.380143
O7	O	-4.391553	-0.227716	-0.451649
O8	O	-4.766501	-0.107090	-0.331028
O9	O	-4.391132	0.019359	-0.382914
O10	O	-4.752051	-0.343424	-0.387788
O11	O	-4.752026	-0.163861	-0.567359
O12	O	-4.391156	-0.158970	-0.204576
C13	C	-3.944085	-0.396965	-0.393408
C14	C	-4.007548	-0.540493	-0.392314
C15	C	-4.274915	-0.717225	-0.397745
C16	C	-4.085582	-0.611235	-0.288089
C17	C	-4.196062	-0.644571	-0.501935
C18	C	-3.931139	-0.690208	-0.280609
C19	C	-4.041699	-0.723567	-0.494552
C20	C	-3.852230	-0.617606	-0.384865
C21	C	-3.944052	-0.169487	-0.620894
C22	C	-4.007492	-0.168390	-0.764420
C23	C	-3.852320	-0.161003	-0.841568
C24	C	-4.041701	-0.270649	-0.947548
C25	C	-3.931176	-0.056802	-0.914182
C26	C	-4.196083	-0.278139	-0.868523
C27	C	-4.085478	-0.064195	-0.835134
C28	C	-4.274995	-0.173872	-0.941083
C29	C	-4.203907	0.062152	-0.389265
C30	C	-4.119684	0.205678	-0.390368
C31	C	-4.203939	-0.165324	-0.161776
C32	C	-4.119737	-0.166414	-0.018248
H33	H	-3.673119	-0.155709	-0.798120
O34	O	-4.020023	-0.374664	-1.005859
C35	C	-3.797809	-0.367550	-0.954850
H36	H	-3.685776	-0.262000	-0.912823
H37	H	-3.750181	-0.403728	-1.036055
H38	H	-3.777781	-0.431167	-0.874427
H39	H	-4.307485	-0.371785	-0.847969
O40	O	-4.107021	0.039879	-0.776850
C41	C	-4.328372	0.034094	-0.829466
H42	H	-4.411317	-0.027266	-0.930569
H43	H	-4.331777	0.137054	-0.837491
H44	H	-4.421012	-0.012182	-0.762887
H45	H	-3.819808	0.036718	-0.934953
O46	O	-4.488591	-0.769032	-0.403842
C47	C	-4.511548	-0.711239	-0.294743
H48	H	-4.343687	-0.670740	-0.212424
H49	H	-4.633084	-0.787769	-0.260537
H50	H	-4.576435	-0.628479	-0.323045
O51	O	-4.107131	-0.553090	-0.183929
C52	C	-4.184258	-0.648709	-0.110447
H53	H	-4.273426	-0.747893	-0.175361
H54	H	-4.303717	-0.622364	-0.071286
H55	H	-4.038002	-0.653191	-0.025275
H56	H	-4.454311	-0.179339	-0.984327
H57	H	-4.307448	-0.623861	-0.595480
H58	H	-3.672911	-0.574321	-0.379394
O59	O	-3.798490	-0.714932	-0.168931
C60	C	-3.860356	-0.850982	-0.169223
H61	H	-4.039537	-0.901097	-0.236916
H62	H	-3.843497	-0.873041	-0.065954
H63	H	-3.748064	-0.888819	-0.205032
H64	H	-4.023893	-0.772507	-0.581841
