data_functionalizedCrystal
_audit_creation_method	'MofGen! by Chris Wilmer'
_symmetry_space_group_name_H-M	'P1'
_symmetry_Int_Tables_number	1
_symmetry_cell_setting	triclinic
loop_
_symmetry_equiv_pos_as_xyz
  x,y,z
_cell_length_a	10.686220
_cell_length_b	12.759399
_cell_length_c	10.686551
_cell_angle_alpha	94.404428
_cell_angle_beta	89.691918
_cell_angle_gamma	94.396971
loop_
_atom_site_label
_atom_site_type_symbol
_atom_site_fract_x
_atom_site_fract_y
_atom_site_fract_z
Zn1	Zn	1.972286	-0.256138	0.562393
Zn2	Zn	1.956055	-0.446298	0.352639
Zn3	Zn	1.746404	-0.283014	0.368711
Zn4	Zn	1.762485	-0.444169	0.578417
O5	O	1.859307	-0.357404	0.465540
O6	O	2.145674	-0.271006	0.521136
O7	O	1.914721	-0.436776	0.179226
O8	O	1.776430	-0.132422	0.394423
O9	O	2.133750	-0.410716	0.367031
O10	O	1.942384	-0.112677	0.536720
O11	O	1.760692	-0.316812	0.191034
O12	O	1.572995	-0.314748	0.409961
O13	O	1.803838	-0.407087	0.751836
O14	O	1.584810	-0.433148	0.564031
O15	O	1.957978	-0.268942	0.740064
O16	O	1.930315	-0.593042	0.382569
O17	O	1.788100	-0.591477	0.548447
C18	C	1.533386	-0.376634	0.490480
C19	C	1.393958	-0.384884	0.501179
C20	C	1.859227	-0.630378	0.465527
C21	C	1.859311	-0.747147	0.465555
C22	C	1.773093	-0.922093	0.391425
C23	C	1.773009	-0.812376	0.391409
C24	C	1.945695	-0.791641	0.539732
C25	C	1.945773	-0.901357	0.539754
C26	C	1.686794	-0.987317	0.317264
C27	C	1.600407	-0.942830	0.243088
C28	C	1.600322	-0.833113	0.243072
C29	C	1.686624	-0.767882	0.317232
C30	C	2.186501	-0.338101	0.440504
C31	C	2.325931	-0.329875	0.429835
C32	C	1.884512	-0.334779	0.792740
C33	C	1.895253	-0.325137	0.932173
C34	C	1.859424	-0.083361	0.465577
C35	C	1.859474	0.033420	0.465593
C36	C	1.834273	-0.379862	0.139608
C37	C	1.823775	-0.389193	0.000157
H38	H	1.374357	-0.276469	0.360568
H39	H	2.016098	-0.937578	0.600164
H40	H	1.964676	-0.262921	0.980644
H41	H	1.345526	-0.438300	0.570442
H42	H	1.686855	-1.076655	0.317266
F43	F	1.508554	-1.012254	0.164180
F44	F	1.508373	-0.785770	0.164144
F45	F	1.686216	-0.651107	0.317576
F46	F	1.733050	-0.470521	0.936810
H47	H	2.015960	-0.738523	0.600109
