data_functionalizedCrystal
_audit_creation_method	'MofGen! by Chris Wilmer'
_symmetry_space_group_name_H-M	'P1'
_symmetry_Int_Tables_number	1
_symmetry_cell_setting	triclinic
loop_
_symmetry_equiv_pos_as_xyz
  x,y,z
_cell_length_a	15.944551
_cell_length_b	19.188930
_cell_length_c	15.021413
_cell_angle_alpha	89.998889
_cell_angle_beta	89.997174
_cell_angle_gamma	83.321760
loop_
_atom_site_label
_atom_site_type_symbol
_atom_site_fract_x
_atom_site_fract_y
_atom_site_fract_z
O1	O	1.114192	0.090039	-0.073949
O2	O	0.869601	0.101141	-0.073973
O3	O	0.998955	-0.006048	-0.073943
O4	O	0.984838	0.197227	-0.073979
O5	O	0.998934	-0.006033	0.074121
O6	O	0.869580	0.101156	0.074091
O7	O	1.114171	0.090054	0.074115
Zn8	Zn	0.991873	0.095607	0.097611
Zn9	Zn	0.991900	0.095587	-0.097470
O10	O	0.984817	0.197242	0.074085
C11	C	0.838298	0.100687	0.000056
C12	C	0.745057	0.099306	0.000048
C13	C	0.530462	0.029563	0.000078
C14	C	0.469331	0.061941	-0.072931
C15	C	0.574341	0.096806	0.000059
C16	C	0.469332	0.061972	0.073048
C17	C	0.409437	0.094386	0.000074
C18	C	0.514438	0.129203	-0.073010
C19	C	0.514446	0.129225	0.073035
C20	C	0.453332	0.161652	0.000008
C21	C	0.669338	0.098198	0.000050
C22	C	0.314441	0.093000	0.000076
C23	C	0.998487	-0.032052	0.000091
C24	C	0.997115	-0.109560	0.000099
C25	C	1.073016	-0.154288	0.000111
C26	C	1.071726	-0.227115	0.000096
C27	C	0.994532	-0.255211	0.000088
C28	C	0.918622	-0.210474	0.000072
C29	C	0.919913	-0.137648	0.000077
N30	N	0.935519	-0.363364	0.050472
N31	N	0.934298	-0.432546	0.050468
C32	C	0.990637	-0.474630	0.000070
N33	N	1.048256	-0.444921	-0.050314
N34	N	1.049480	-0.375733	-0.050307
C35	C	0.993123	-0.334178	0.000082
C36	C	1.065145	-0.598326	0.000064
C37	C	1.063852	-0.671154	0.000044
C38	C	0.910745	-0.654511	0.000029
C39	C	0.912040	-0.581685	0.000040
C40	C	0.989242	-0.553597	0.000062
C41	C	1.145474	0.090507	0.000083
C42	C	1.238715	0.091889	0.000086
C43	C	0.985285	0.223247	0.000048
C44	C	0.986657	0.300755	0.000035
N45	N	0.991860	0.095621	0.230749
N46	N	0.991919	0.095568	-0.230607
C47	C	0.932038	0.145161	0.470418
C48	C	1.007887	0.158716	0.529757
C49	C	0.991882	0.095603	0.412356
C50	C	0.916053	0.082064	0.529759
C51	C	0.991896	0.095588	0.587780
C52	C	1.067770	0.109189	0.470388
C53	C	0.975885	0.032510	0.470384
C54	C	1.051789	0.046038	0.529697
C55	C	0.991872	0.095614	0.311299
C56	C	0.991914	0.095577	0.688835
H57	H	1.135880	-0.131424	0.000125
H58	H	0.851919	0.070620	0.555840
H59	H	0.534328	0.157617	-0.134801
C60	C	0.575746	-0.045834	0.000001
H61	H	0.609697	-0.053054	0.051898
H62	H	0.610462	-0.052727	-0.051373
H63	H	0.535009	-0.078238	-0.000556
H64	H	0.419965	0.217516	-0.000043
C65	C	1.155220	-0.276325	0.000115
H66	H	1.201383	-0.249166	0.000134
H67	H	1.157911	-0.305081	-0.051517
H68	H	1.157881	-0.305078	0.051756
C69	C	0.442316	0.023519	-0.156304
H70	H	0.404532	0.054639	-0.190683
H71	H	0.415003	-0.015721	-0.138757
H72	H	0.490757	0.007944	-0.190918
H73	H	1.021431	0.212066	0.555837
C74	C	0.863745	0.201819	0.435245
H75	H	0.875260	0.246615	0.455574
H76	H	0.809978	0.192648	0.456443
H77	H	0.863882	0.201156	0.372007
C78	C	1.154428	0.124739	0.435318
H79	H	1.190606	0.131199	0.484137
H80	H	1.147543	0.166137	0.400119
H81	H	1.178602	0.086463	0.400070
H82	H	0.449344	0.033525	0.134770
C83	C	0.541498	0.167620	0.156406
H84	H	0.526239	0.143666	0.208234
H85	H	0.514027	0.214281	0.156923
H86	H	0.600927	0.168586	0.155507
C87	C	0.833710	-0.241377	0.000066
H88	H	0.843811	-0.291155	0.000074
H89	H	0.802475	-0.226023	-0.051570
H90	H	0.802463	-0.226024	0.051703
C91	C	1.120230	-0.010594	0.564641
H92	H	1.094563	-0.043609	0.599453
H93	H	1.159300	0.010809	0.600248
H94	H	1.149042	-0.033927	0.515774
C95	C	0.836419	-0.088446	0.000073
H96	H	0.790258	-0.115606	0.000070
H97	H	0.833747	-0.059684	-0.051555
H98	H	0.833735	-0.059698	0.051718
C99	C	1.150061	-0.567426	0.000078
H100	H	1.195082	-0.604498	0.000070
H101	H	1.153742	-0.539367	0.051716
H102	H	1.153753	-0.539358	-0.051557
H103	H	1.125662	-0.707571	0.000049
C104	C	0.957562	-0.039535	0.435114
H105	H	1.003955	-0.059618	0.400318
H106	H	0.908055	-0.033869	0.399427
H107	H	0.949379	-0.069572	0.483844
C108	C	0.825831	-0.685405	0.000017
H109	H	0.780810	-0.648332	0.000007
H110	H	0.822134	-0.713473	0.051645
H111	H	0.822154	-0.713462	-0.051628
C112	C	0.828548	-0.532482	0.000042
H113	H	0.782388	-0.559643	0.000043
H114	H	0.825874	-0.503722	-0.051587
H115	H	0.825866	-0.503733	0.051686
