data_functionalizedCrystal
_audit_creation_method	'MofGen! by Chris Wilmer'
_symmetry_space_group_name_H-M	'P1'
_symmetry_Int_Tables_number	1
_symmetry_cell_setting	triclinic
loop_
_symmetry_equiv_pos_as_xyz
  x,y,z
_cell_length_a	21.295412
_cell_length_b	19.805407
_cell_length_c	19.805405
_cell_angle_alpha	90.026410
_cell_angle_beta	90.029645
_cell_angle_gamma	90.017371
loop_
_atom_site_label
_atom_site_type_symbol
_atom_site_fract_x
_atom_site_fract_y
_atom_site_fract_z
Zn1	Zn	-0.355934	-1.034721	0.269477
Zn2	Zn	0.144066	-0.534721	0.769477
Zn3	Zn	-0.250662	-1.034640	0.382666
Zn4	Zn	0.249338	-0.534640	0.882666
Zn5	Zn	-0.250677	-0.921540	0.269496
Zn6	Zn	0.249323	-0.421540	0.769496
Zn7	Zn	-0.355892	-0.921499	0.382629
Zn8	Zn	0.144108	-0.421499	0.882629
O9	O	-0.303291	-0.978100	0.326067
O10	O	0.196709	-0.478100	0.826067
O11	O	-0.341980	-1.129427	0.284499
O12	O	0.158020	-0.629427	0.784499
O13	O	-0.162575	-1.019620	0.367677
O14	O	0.337425	-0.519620	0.867677
O15	O	-0.264663	-0.936605	0.174777
O16	O	0.235337	-0.436605	0.674777
O17	O	-0.264638	-1.129367	0.367658
O18	O	0.235362	-0.629367	0.867658
O19	O	-0.341995	-1.019758	0.174763
O20	O	0.158005	-0.519758	0.674763
O21	O	-0.162586	-0.936526	0.284532
O22	O	0.337414	-0.436526	0.784532
O23	O	-0.264623	-0.826818	0.284496
O24	O	0.235377	-0.326818	0.784496
O25	O	-0.443987	-0.936535	0.367596
O26	O	0.056013	-0.436535	0.867596
O27	O	-0.341924	-0.826788	0.367614
O28	O	0.158076	-0.326788	0.867614
O29	O	-0.444018	-1.019719	0.284463
O30	O	0.055982	-0.519719	0.784463
O31	O	-0.264597	-1.019581	0.477377
O32	O	0.235403	-0.519581	0.977377
O33	O	-0.341909	-0.936457	0.477350
O34	O	0.158091	-0.436457	0.977350
C35	C	-0.303271	-0.802244	0.326054
C36	C	0.196729	-0.302244	0.826054
C37	C	-0.303277	-0.727012	0.326065
C38	C	0.196723	-0.227012	0.826065
C39	C	-0.303261	-0.978024	0.501923
C40	C	0.196739	-0.478024	1.001923
C41	C	-0.303269	-0.978053	0.577155
C42	C	0.196731	-0.478053	1.077155
C43	C	-0.467481	-0.978131	0.326023
C44	C	0.032519	-0.478131	0.826023
C45	C	-0.537450	-0.978145	0.326004
C46	C	-0.037450	-0.478145	0.826004
C47	C	-1.036925	-1.021522	0.282610
C48	C	-0.536925	-0.521522	0.782610
C49	C	-0.971182	-1.021517	0.282627
C50	C	-0.471182	-0.521517	0.782627
C51	C	-0.938289	-0.978203	0.325915
C52	C	-0.438289	-0.478203	0.825915
C53	C	-0.971144	-0.934904	0.369203
C54	C	-0.471144	-0.434904	0.869203
C55	C	-1.036886	-0.934915	0.369190
C56	C	-0.536886	-0.434915	0.869190
N57	N	-0.835060	-0.918935	0.331123
N58	N	-0.335060	-0.418935	0.831123
N59	N	-0.772608	-0.918927	0.331131
N60	N	-0.272608	-0.418927	0.831131
C61	C	-0.740214	-0.978168	0.325957
C62	C	-0.240214	-0.478168	0.825957
N63	N	-0.772631	-1.037419	0.320762
N64	N	-0.272631	-0.537419	0.820762
N65	N	-0.835089	-1.037427	0.320750
N66	N	-0.335089	-0.537427	0.820750
C67	C	-0.867004	-0.978186	0.325934
C68	C	-0.367004	-0.478186	0.825934
C69	C	-0.636082	-1.021462	0.282694
C70	C	-0.136082	-0.521462	0.782694
C71	C	-0.570338	-1.021458	0.282715
C72	C	-0.070338	-0.521458	0.782715
C73	C	-0.570301	-0.934838	0.369287
C74	C	-0.070301	-0.434838	0.869287
C75	C	-0.636044	-0.934849	0.369270
C76	C	-0.136044	-0.434849	0.869270
C77	C	-0.668930	-0.978160	0.325969
C78	C	-0.168930	-0.478160	0.825969
C79	C	-0.139740	-0.978108	0.326061
C80	C	0.360260	-0.478108	0.826061
C81	C	-0.069772	-0.978226	0.325889
C82	C	0.430228	-0.478226	0.825889
C83	C	-0.303312	-1.154643	0.326080
C84	C	0.196688	-0.654643	0.826080
C85	C	-0.303321	-1.229875	0.326086
C86	C	0.196679	-0.729875	0.826086
C87	C	-0.343462	-0.691670	0.369409
C88	C	0.156538	-0.191670	0.869409
C89	C	-0.343471	-0.620982	0.369411
C90	C	0.156529	-0.120982	0.869411
C91	C	-0.303291	-0.585636	0.326070
C92	C	0.196709	-0.085636	0.826070
C93	C	-0.263104	-0.620983	0.282720
C94	C	0.236896	-0.120983	0.782720
C95	C	-0.263099	-0.691671	0.282716
C96	C	0.236901	-0.191671	0.782716
C97	C	-0.263125	-0.335910	0.282735
C98	C	0.236875	0.164090	0.782735
C99	C	-0.263132	-0.265218	0.282744
C100	C	0.236868	0.234782	0.782744
C101	C	-0.343497	-0.265221	0.369430
C102	C	0.156503	0.234779	0.869430
C103	C	-0.343492	-0.335908	0.369426
C104	C	0.156508	0.164092	0.869426
C105	C	-0.303308	-0.371249	0.326074
C106	C	0.196692	0.128751	0.826074
C107	C	-0.303299	-0.447898	0.326072
C108	C	0.196701	0.052102	0.826072
C109	C	-0.303296	-0.508989	0.326074
C110	C	0.196704	-0.008989	0.826074
C111	C	-0.303336	-0.978195	0.149524
C112	C	0.196664	-0.478195	0.649524
C113	C	-0.303354	-0.978235	0.074292
C114	C	0.196646	-0.478235	0.574292
C115	C	-0.263055	-1.021378	0.612490
C116	C	0.236945	-0.521378	1.112490
C117	C	-0.263068	-1.021407	0.683179
C118	C	0.236932	-0.521407	1.183179
C119	C	-0.303294	-0.978107	0.718530
C120	C	0.196706	-0.478107	1.218530
C121	C	-0.343513	-0.934780	0.683190
C122	C	0.156487	-0.434780	1.183190
C123	C	-0.343501	-0.934755	0.612503
C124	C	0.156499	-0.434755	1.112503
C125	C	-0.343559	-0.934880	0.968263
C126	C	0.156441	-0.434880	1.468263
C127	C	-0.343566	-0.934907	1.038955
C128	C	0.156434	-0.434907	1.538955
C129	C	-0.263126	-1.021531	1.038939
C130	C	0.236874	-0.521531	1.538939
C131	C	-0.263115	-1.021507	0.968252
C132	C	0.236885	-0.521507	1.468252
C133	C	-0.303336	-0.978183	0.932918
C134	C	0.196664	-0.478183	1.432918
C135	C	-0.303321	-0.978153	0.856269
C136	C	0.196679	-0.478153	1.356269
C137	C	-0.303306	-0.978133	0.795177
C138	C	0.196694	-0.478133	1.295177
H139	H	-1.063697	-1.056793	0.247354
H140	H	-0.563697	-0.556793	0.747354
Br141	Br	-0.680717	-1.080225	0.223916
Br142	Br	-0.180717	-0.580225	0.723916
H143	H	-0.230358	-1.056763	0.939471
H144	H	0.269642	-0.556763	1.439471
Br145	Br	-0.398034	-0.217255	0.428267
Br146	Br	0.101966	0.282745	0.928267
Br147	Br	-0.398145	-0.876083	0.920318
Br148	Br	0.101855	-0.376083	1.420318
H149	H	-0.230391	-0.592200	0.247428
H150	H	0.269609	-0.092200	0.747428
Br151	Br	-1.081467	-0.876152	0.427932
Br152	Br	-0.581467	-0.376152	0.927932
Br153	Br	-0.208542	-1.080332	1.086897
Br154	Br	0.291458	-0.580332	1.586897
Br155	Br	-0.208597	-0.217250	0.223921
Br156	Br	0.291403	0.282750	0.723921
Br157	Br	-0.208454	-1.080139	0.564520
Br158	Br	0.291546	-0.580139	1.064520
Br159	Br	-0.398110	-0.876021	0.731166
Br160	Br	0.101890	-0.376021	1.231166
H161	H	-0.376180	-0.720443	0.404705
H162	H	0.123820	-0.220443	0.904705
Br163	Br	-0.208592	-0.383864	0.223897
Br164	Br	0.291408	0.116136	0.723897
Br165	Br	-0.680625	-0.876086	0.428010
Br166	Br	-0.180625	-0.376086	0.928010
H167	H	-0.230379	-0.720445	0.247417
H168	H	0.269621	-0.220445	0.747417
H169	H	-0.543595	-1.056720	0.247473
H170	H	-0.043595	-0.556720	0.747473
Br171	Br	-0.208493	-1.080211	0.731132
Br172	Br	0.291507	-0.580211	1.231132
H173	H	-0.376249	-0.899477	0.583733
H174	H	0.123751	-0.399477	1.083733
H175	H	-0.376327	-0.899647	1.067736
H176	H	0.123673	-0.399647	1.567736
H177	H	-0.944433	-1.056774	0.247381
H178	H	-0.444433	-0.556774	0.747381
H179	H	-0.543521	-0.899574	0.404536
H180	H	-0.043521	-0.399574	0.904536
Br181	Br	-0.398013	-0.573020	0.428237
Br182	Br	0.101987	-0.073020	0.928237
Br183	Br	-0.926506	-0.876124	0.427956
Br184	Br	-0.426506	-0.376124	0.927956
H185	H	-0.376209	-0.364683	0.404720
H186	H	0.123791	0.135317	0.904720
