data_functionalizedCrystal
_audit_creation_method	'MofGen! by Chris Wilmer'
_symmetry_space_group_name_H-M	'P1'
_symmetry_Int_Tables_number	1
_symmetry_cell_setting	triclinic
loop_
_symmetry_equiv_pos_as_xyz
  x,y,z
_cell_length_a	19.288859
_cell_length_b	14.519731
_cell_length_c	17.766277
_cell_angle_alpha	89.992662
_cell_angle_beta	89.989768
_cell_angle_gamma	83.411289
loop_
_atom_site_label
_atom_site_type_symbol
_atom_site_fract_x
_atom_site_fract_y
_atom_site_fract_z
O1	O	0.921776	0.115017	-0.062611
O2	O	0.719572	0.130542	-0.062609
O3	O	0.826027	-0.011492	-0.062603
O4	O	0.815321	0.257051	-0.062617
O5	O	0.826009	-0.011499	0.062585
O6	O	0.719553	0.130535	0.062579
O7	O	0.921758	0.115010	0.062578
Cu8	Cu	0.820654	0.122771	0.074009
Cu9	Cu	0.820676	0.122780	-0.074041
O10	O	0.815302	0.257043	0.062572
C11	C	0.693684	0.130040	-0.000015
C12	C	0.616575	0.128543	-0.000014
C13	C	0.052802	0.201757	-0.000019
C14	C	0.125253	0.203171	-0.000023
C15	C	0.169655	0.119832	-0.000017
C16	C	0.141601	0.035073	-0.000027
C17	C	0.069150	0.033661	-0.000030
C18	C	0.290692	0.057676	0.043848
C19	C	0.363141	0.059091	0.043856
C20	C	0.393117	0.124184	-0.000010
C21	C	0.350635	0.187876	-0.043874
C22	C	0.278184	0.186464	-0.043877
C23	C	0.248217	0.121354	-0.000014
C24	C	0.499724	0.210472	-0.000010
C25	C	0.572178	0.211883	-0.000018
C26	C	0.588524	0.043782	-0.000015
C27	C	0.516071	0.042373	-0.000014
C28	C	0.471676	0.125721	-0.000007
C29	C	0.825516	-0.045852	-0.000009
C30	C	0.824013	-0.148222	-0.000008
C31	C	0.822792	-0.231359	-0.000010
C32	C	0.821265	-0.335658	-0.000016
C33	C	0.820054	-0.418789	-0.000021
C34	C	0.818528	-0.523095	-0.000025
C35	C	0.947645	0.115512	-0.000018
C36	C	1.024755	0.117008	-0.000024
C37	C	0.815813	0.291403	-0.000024
C38	C	0.817316	0.393774	-0.000030
N39	N	0.820643	0.122765	0.178140
N40	N	0.820692	0.122779	-0.178171
C41	C	0.867797	0.059903	0.217529
C42	C	0.867801	0.059899	0.296331
C43	C	0.820658	0.122772	0.335740
C44	C	0.773495	0.185639	0.296341
C45	C	0.773488	0.185635	0.217541
C46	C	0.811666	0.206800	0.460574
C47	C	0.811678	0.206805	0.539373
C48	C	0.820676	0.122783	0.578787
C49	C	0.829677	0.038753	0.539392
C50	C	0.829670	0.038750	0.460591
C51	C	0.820660	0.122783	0.421186
C52	C	0.867837	0.059912	0.703622
C53	C	0.867836	0.059906	0.782425
C54	C	0.773534	0.185654	0.782434
C55	C	0.773531	0.185652	0.703632
C56	C	0.820687	0.122781	0.664231
H57	H	0.375039	0.240883	-0.079591
O58	O	0.636406	-0.046107	-0.000009
H59	H	0.626406	-0.086686	0.051014
H60	H	0.493236	-0.026638	-0.000013
H61	H	0.804354	0.275227	0.571442
O62	O	0.722685	0.253473	0.824926
H63	H	0.730614	0.242920	0.886340
H64	H	0.397725	0.007234	0.079577
O65	O	0.602424	0.303301	-0.000010
H66	H	0.635043	0.307987	-0.051037
H67	H	0.243597	0.238323	-0.079594
H68	H	0.906201	0.008707	0.328408
O69	O	0.722657	0.253460	0.338849
H70	H	0.731599	0.325318	0.323702
H71	H	0.804327	0.275224	0.428490
H72	H	0.463575	0.278339	-0.000006
H73	H	0.836996	-0.029670	0.428519
O74	O	0.722632	0.253445	0.175048
H75	H	0.689852	0.297170	0.215687
O76	O	0.258359	-0.012525	0.091171
H77	H	0.279197	-0.083524	0.073131
O78	O	0.004918	0.291650	-0.000015
H79	H	0.014911	0.332228	-0.051041
O80	O	0.155515	0.294584	-0.000004
H81	H	0.137699	0.334638	-0.051021
O82	O	0.189485	-0.054818	-0.000013
H83	H	0.244577	-0.039599	0.000001
H84	H	0.046316	-0.035354	-0.000035
O85	O	0.918646	-0.007915	0.175030
H86	H	0.951431	-0.051635	0.215665
H87	H	0.837004	-0.029665	0.571481
O88	O	0.918685	-0.007905	0.661116
H89	H	0.951468	-0.051631	0.701748
O90	O	0.918705	-0.007888	0.824916
H91	H	0.951498	-0.051594	0.784276
H92	H	0.735137	0.236843	0.671559
