data_functionalizedCrystal
_audit_creation_method	'MofGen! by Chris Wilmer'
_symmetry_space_group_name_H-M	'P1'
_symmetry_Int_Tables_number	1
_symmetry_cell_setting	triclinic
loop_
_symmetry_equiv_pos_as_xyz
  x,y,z
_cell_length_a	10.489741
_cell_length_b	18.366186
_cell_length_c	19.288865
_cell_angle_alpha	89.988521
_cell_angle_beta	83.837711
_cell_angle_gamma	89.993662
loop_
_atom_site_label
_atom_site_type_symbol
_atom_site_fract_x
_atom_site_fract_y
_atom_site_fract_z
O1	O	1.691846	-0.060514	0.097994
O2	O	2.191846	0.439486	0.597994
O3	O	1.320442	-0.060526	0.107192
O4	O	1.820442	0.439474	0.607192
O5	O	1.516876	-0.060505	0.001535
O6	O	2.016876	0.439495	0.501535
O7	O	1.495412	-0.060535	0.203651
O8	O	1.995412	0.439465	0.703651
O9	O	1.516842	0.060594	0.001529
O10	O	2.016842	0.560594	0.501529
O11	O	1.320409	0.060573	0.107187
O12	O	1.820409	0.560573	0.607187
O13	O	1.691813	0.060585	0.097988
O14	O	2.191813	0.560585	0.597988
Zn15	Zn	1.506105	0.079806	0.102587
Zn16	Zn	2.006105	0.579806	0.602587
Zn17	Zn	1.506149	-0.079747	0.102594
Zn18	Zn	2.006149	0.420253	0.602594
O19	O	1.495379	0.060564	0.203646
O20	O	1.995379	0.560564	0.703646
C21	C	1.272910	0.000022	0.106495
C22	C	1.772910	0.500022	0.606495
C23	C	1.131327	0.000018	0.104416
C24	C	1.631327	0.500018	0.604416
N25	N	1.506085	0.188697	0.102581
N26	N	2.006085	0.688697	0.602581
N27	N	1.506180	-0.188638	0.102594
N28	N	2.006180	0.311362	0.602594
C29	C	1.064707	0.000035	0.037189
C30	C	1.564707	0.500035	0.537189
C31	C	0.971879	-0.059677	0.068949
C32	C	1.471879	0.440323	0.568949
C33	C	0.971880	0.059718	0.068960
C34	C	1.471880	0.559718	0.568960
C35	C	1.040363	-0.059743	0.136204
C36	C	1.540363	0.440257	0.636204
C37	C	1.040374	0.059705	0.136205
C38	C	1.540374	0.559705	0.636205
C39	C	0.947572	-0.000021	0.168014
C40	C	1.447572	0.499979	0.668014
C41	C	1.739345	0.000035	0.098686
C42	C	2.239345	0.500035	0.598686
C43	C	1.880928	0.000035	0.100764
C44	C	2.380928	0.500035	0.600764
C45	C	1.516169	0.000046	-0.024349
C46	C	2.016169	0.500046	0.475651
C47	C	1.514095	0.000053	-0.101467
C48	C	2.014095	0.500053	0.398533
C49	C	1.593094	0.226807	0.055820
C50	C	2.093094	0.726807	0.555820
C51	C	1.593102	0.303035	0.055817
C52	C	2.093102	0.803035	0.555817
C53	C	1.506113	0.341150	0.102587
C54	C	2.006113	0.841150	0.602587
C55	C	1.419088	0.303031	0.149353
C56	C	1.919088	0.803031	0.649353
C57	C	1.419073	0.226805	0.149350
C58	C	1.919073	0.726805	0.649350
C59	C	1.489039	0.461901	0.165761
C60	C	1.989039	0.961901	0.665761
C61	C	1.489062	0.538126	0.165765
C62	C	1.989062	1.038126	0.665765
C63	C	1.506149	0.576258	0.102596
C64	C	2.006149	1.076258	0.602596
C65	C	1.523241	0.538155	0.039421
C66	C	2.023241	1.038155	0.539421
C67	C	1.523226	0.461929	0.039418
C68	C	2.023226	0.961929	0.539418
C69	C	1.506118	0.423805	0.102595
C70	C	2.006118	0.923805	0.602595
C71	C	1.593172	0.697022	0.055827
C72	C	2.093172	1.197022	0.555827
C73	C	1.593171	0.773252	0.055823
C74	C	2.093171	1.273252	0.555823
C75	C	1.419163	0.773247	0.149365
C76	C	1.919163	1.273247	0.649365
C77	C	1.419158	0.697019	0.149363
C78	C	1.919158	1.197019	0.649363
C79	C	1.506169	0.658911	0.102595
C80	C	2.006169	1.158911	0.602595
C81	C	1.629354	0.000060	-0.145390
C82	C	2.129354	0.500060	0.354610
C83	C	1.627406	0.000049	-0.217850
C84	C	2.127406	0.500049	0.282150
C85	C	1.510193	0.000044	-0.246384
C86	C	2.010193	0.500044	0.253616
C87	C	1.394920	0.000033	-0.202451
C88	C	1.894920	0.500033	0.297549
C89	C	1.396871	0.000037	-0.129992
C90	C	1.896871	0.500037	0.370008
C91	C	1.418039	0.042460	-0.355291
C92	C	1.918039	0.542460	0.144709
C93	C	1.416093	0.042460	-0.427748
C94	C	1.916093	0.542460	0.072252
C95	C	1.504171	0.000028	-0.469870
C96	C	2.004171	0.500028	0.030130
C97	C	1.594217	-0.042395	-0.439526
C98	C	2.094217	0.457605	0.060474
C99	C	1.596168	-0.042391	-0.367067
C100	C	2.096168	0.457609	0.132933
C101	C	1.508065	0.000039	-0.324952
C102	C	2.008065	0.500039	0.175048
C103	C	1.617326	0.000021	-0.592363
C104	C	2.117326	0.500021	-0.092363
C105	C	1.615373	0.000005	-0.664824
C106	C	2.115373	0.500005	-0.164824
C107	C	1.382884	-0.000003	-0.649423
C108	C	1.882884	0.499997	-0.149423
C109	C	1.384839	0.000006	-0.576964
C110	C	1.884839	0.500006	-0.076964
C111	C	1.502064	0.000021	-0.548438
C112	C	2.002064	0.500021	-0.048438
C113	C	1.496086	0.000011	0.229530
C114	C	1.996086	0.500011	0.729530
C115	C	1.498159	-0.000000	0.306647
C116	C	1.998159	0.500000	0.806647
H117	H	1.115647	-0.000032	-0.018075
H118	H	1.615647	0.499968	0.481925
C119	C	0.879100	-0.000070	0.242746
C120	C	1.379100	0.499930	0.742746
H121	H	0.827516	0.042364	0.249711
H122	H	1.327516	0.542364	0.749711
H123	H	0.826445	-0.042101	0.249429
H124	H	1.326445	0.457899	0.749429
H125	H	0.941106	-0.000492	0.275203
H126	H	1.441106	0.499508	0.775203
C127	C	1.317047	0.089119	-0.461124
C128	C	1.817047	0.589119	0.038876
H129	H	1.328508	0.083046	-0.510310
H130	H	1.828508	0.583046	-0.010310
H131	H	1.232990	0.074193	-0.443656
H132	H	1.732990	0.574193	0.056344
H133	H	1.328557	0.138909	-0.450002
H134	H	1.828557	0.638909	0.049998
C135	C	1.691102	-0.089078	-0.485849
C136	C	2.191102	0.410922	0.014151
H137	H	1.677036	-0.083014	-0.533348
H138	H	2.177036	0.416986	-0.033348
H139	H	1.775806	-0.074160	-0.479571
H140	H	2.275806	0.425840	0.020429
H141	H	1.680213	-0.138864	-0.473214
H142	H	2.180213	0.361136	0.026786
H143	H	1.669484	-0.076935	-0.342364
H144	H	2.169484	0.423065	0.157636
H145	H	1.712777	0.000031	-0.569137
H146	H	2.212777	0.500031	-0.069137
C147	C	0.930855	-0.127859	0.030528
C148	C	1.430855	0.372141	0.530528
H149	H	0.971367	-0.127782	-0.015951
H150	H	1.471367	0.372218	0.484049
H151	H	0.955450	-0.170265	0.053965
H152	H	1.455450	0.329735	0.553965
H153	H	0.840433	-0.127584	0.029852
H154	H	1.340433	0.372416	0.529852
C155	C	0.930884	0.127916	0.030519
C156	C	1.430884	0.627916	0.530519
H157	H	0.971421	0.127843	-0.015955
H158	H	1.471421	0.627843	0.484045
H159	H	0.840470	0.127666	0.029840
H160	H	1.340470	0.627666	0.529840
H161	H	0.955501	0.170313	0.053949
H162	H	1.455501	0.670313	0.553949
H163	H	1.070763	0.110182	0.164625
H164	H	1.570763	0.610182	0.664625
H165	H	1.721266	0.000052	-0.253619
H166	H	2.221266	0.500052	0.246381
C167	C	1.321145	0.089137	-0.308964
C168	C	1.821145	0.589137	0.191036
H169	H	1.267253	0.114409	-0.337412
H170	H	1.767253	0.614409	0.162588
H171	H	1.270415	0.058551	-0.277279
H172	H	1.770415	0.558551	0.222721
H173	H	1.366001	0.123259	-0.283628
H174	H	1.866001	0.623259	0.216372
H175	H	1.663941	0.195782	0.017737
H176	H	2.163941	0.695782	0.517737
H177	H	1.287447	-0.000010	-0.672654
H178	H	1.787447	0.499990	-0.172654
H179	H	1.664018	0.665994	0.017744
H180	H	2.164018	1.165994	0.517744
C181	C	1.688818	0.344964	0.004378
C182	C	2.188818	0.844964	0.504378
H183	H	1.740639	0.311351	-0.023473
H184	H	2.240639	0.811351	0.476527
H185	H	1.643118	0.374716	-0.024779
H186	H	2.143118	0.874716	0.475221
H187	H	1.741766	0.374685	0.029657
H188	H	2.241766	0.874685	0.529657
H189	H	1.537139	0.430909	-0.012021
H190	H	2.037139	0.930909	0.487979
C191	C	1.323460	0.655096	0.200809
C192	C	1.823460	1.155096	0.700809
H193	H	1.271659	0.688711	0.228669
H194	H	1.771659	1.188711	0.728669
H195	H	1.270510	0.625371	0.175543
H196	H	1.770510	1.125371	0.675543
H197	H	1.369177	0.625350	0.229968
H198	H	1.869177	1.125350	0.729968
C199	C	1.542027	0.580089	-0.030068
C200	C	2.042027	1.080089	0.469932
H201	H	1.539571	0.630944	-0.021021
H202	H	2.039571	1.130944	0.478979
H203	H	1.622606	0.567597	-0.054412
H204	H	2.122606	1.067597	0.445588
H205	H	1.475471	0.567607	-0.057635
H206	H	1.975471	1.067607	0.442365
H207	H	1.070562	-0.110281	0.164629
H208	H	1.570562	0.389719	0.664629
H209	H	1.709234	0.000007	-0.700587
H210	H	2.209234	0.500007	-0.200587
H211	H	1.475154	0.569143	0.217205
H212	H	1.975154	1.069143	0.717205
C213	C	1.470252	0.419963	0.235250
C214	C	1.970252	0.919963	0.735250
H215	H	1.460097	0.453571	0.272874
H216	H	1.960097	0.953571	0.772874
H217	H	1.395977	0.390233	0.236265
H218	H	1.895977	0.890233	0.736265
H219	H	1.543112	0.390220	0.239486
H220	H	2.043112	0.890220	0.739486
H221	H	1.664021	0.804281	0.017741
H222	H	2.164021	1.304281	0.517741
H223	H	1.348258	0.334069	0.187433
H224	H	1.848258	0.834069	0.687433
H225	H	1.348330	0.804279	0.187444
H226	H	1.848330	1.304279	0.687444
H227	H	1.348219	0.195775	0.187429
H228	H	1.848219	0.695775	0.687429
H229	H	1.290983	0.000004	-0.541200
H230	H	1.790983	0.500004	-0.041200
H231	H	1.724807	0.000070	-0.122170
H232	H	2.224807	0.500070	0.377830
C233	C	1.265990	0.000031	-0.233835
C234	C	1.765990	0.500031	0.266165
H235	H	1.281334	0.000037	-0.283280
H236	H	1.781334	0.500037	0.216720
H237	H	1.218558	-0.042201	-0.218789
H238	H	1.718558	0.457799	0.281211
H239	H	1.218539	0.042265	-0.218804
H240	H	1.718539	0.542265	0.281196
H241	H	1.303011	0.000031	-0.094229
H242	H	1.803011	0.500031	0.405771
