data_functionalizedCrystal
_audit_creation_method	'MofGen! by Chris Wilmer'
_symmetry_space_group_name_H-M	'P1'
_symmetry_Int_Tables_number	1
_symmetry_cell_setting	triclinic
loop_
_symmetry_equiv_pos_as_xyz
  x,y,z
_cell_length_a	14.044220
_cell_length_b	14.044191
_cell_length_c	12.503572
_cell_angle_alpha	93.847901
_cell_angle_beta	93.835250
_cell_angle_gamma	86.809673
loop_
_atom_site_label
_atom_site_type_symbol
_atom_site_fract_x
_atom_site_fract_y
_atom_site_fract_z
O1	O	-1.282205	0.225118	-0.089189
O2	O	-1.005535	0.216811	-0.089217
O3	O	-1.139713	0.082628	-0.089206
O4	O	-1.148026	0.359301	-0.089201
O5	O	-1.129624	0.092738	0.089435
O6	O	-0.995445	0.226920	0.089424
O7	O	-1.272115	0.235228	0.089452
Cu8	Cu	-1.132859	0.231997	0.105749
Cu9	Cu	-1.144791	0.220041	-0.105515
O10	O	-1.137936	0.369410	0.089440
C11	C	-0.964868	0.218230	0.000100
C12	C	-0.858726	0.207385	0.000089
C13	C	-1.131032	0.052061	0.000112
C14	C	-1.120185	-0.054083	0.000102
C15	C	-1.312782	0.233809	0.000132
C16	C	-1.418925	0.244654	0.000136
C17	C	-1.146618	0.399978	0.000120
C18	C	-1.157465	0.506121	0.000123
C19	C	-0.664386	0.187559	0.000110
C20	C	-0.613258	0.264474	0.000115
C21	C	-0.505121	0.253443	0.000127
C22	C	-0.772533	0.198589	0.000098
N23	N	-1.124473	0.240406	0.254341
C24	C	-1.100365	0.751579	0.000108
C25	C	-1.177281	0.700454	0.000117
C26	C	-1.166252	0.592317	0.000120
C27	C	-1.111392	0.859725	0.000105
N28	N	-1.153183	0.211625	-0.254106
C29	C	-1.112139	0.252784	0.473455
C30	C	-1.165515	0.199250	0.526786
C31	C	-1.158652	0.206138	0.648709
C32	C	-1.119001	0.245898	0.351521
H33	H	-0.626947	0.113432	0.000114
C34	C	-0.726054	0.370363	-0.091772
C35	C	-0.663786	0.364558	0.000080
H36	H	-0.757243	0.432151	-0.091803
H37	H	-0.772345	0.323568	-0.091758
H38	H	-0.690796	0.359323	-0.154048
H39	H	-0.699045	0.375591	0.062357
H40	H	-0.617489	0.411367	0.000076
H41	H	-1.061292	0.303786	0.519358
C42	C	-1.321828	0.729728	0.091978
C43	C	-1.277359	0.750993	0.000136
H44	H	-1.383611	0.760929	0.091987
H45	H	-1.284602	0.751200	0.154254
H46	H	-1.327441	0.662633	0.091968
H47	H	-1.271740	0.818088	0.000151
H48	H	-1.314594	0.729526	-0.062156
H49	H	-1.216367	0.148247	0.480878
H50	H	-1.026239	0.714137	0.000103
