data_functionalizedCrystal
_audit_creation_method	'MofGen! by Chris Wilmer'
_symmetry_space_group_name_H-M	'P1'
_symmetry_Int_Tables_number	1
_symmetry_cell_setting	triclinic
loop_
_symmetry_equiv_pos_as_xyz
  x,y,z
_cell_length_a	19.377625
_cell_length_b	19.376995
_cell_length_c	12.970454
_cell_angle_alpha	48.617629
_cell_angle_beta	75.509530
_cell_angle_gamma	62.433786
loop_
_atom_site_label
_atom_site_type_symbol
_atom_site_fract_x
_atom_site_fract_y
_atom_site_fract_z
Zr1	Zr	0.829286	0.780204	-0.651581
O2	O	0.742655	0.928921	-0.823150
O3	O	0.836994	0.631492	-0.564671
O4	O	0.864177	0.780202	-0.829245
O5	O	0.715471	0.780211	-0.388909
O6	O	0.981477	0.780195	-0.873088
O7	O	0.715472	0.780211	-0.558576
O8	O	0.932851	0.514180	-0.399812
O9	O	0.764097	1.046226	-0.862184
O10	O	0.950594	0.692653	-0.601782
O11	O	0.863054	0.692658	-0.442443
O12	O	0.895058	0.867745	-0.753945
O13	O	0.807518	0.867750	-0.594606
Zr14	Zr	1.016365	0.780195	-0.450906
Zr15	Zr	1.016366	0.780194	-0.721504
Zr16	Zr	0.829285	0.780205	-0.380982
Zr17	Zr	0.863483	0.967293	-0.713836
Zr18	Zr	0.982168	0.593106	-0.388650
O19	O	1.008658	0.928907	-0.537816
O20	O	1.008659	0.928906	-0.922572
O21	O	0.742653	0.928922	-0.438394
O22	O	1.102996	0.631478	-0.279337
O23	O	1.102998	0.631477	-0.664093
O24	O	0.836992	0.631493	-0.179914
O25	O	1.130180	0.780188	-0.713578
O26	O	0.981475	0.780197	-0.273241
O27	O	0.864174	0.780204	-0.229399
O28	O	1.130180	0.780188	-0.543911
O29	O	0.912801	1.046218	-0.917764
O30	O	0.932851	0.514181	-0.184722
O31	O	1.081555	0.514173	-0.240302
O32	O	1.081556	0.514172	-0.455392
O33	O	0.764096	1.046227	-0.647094
O34	O	0.912800	1.046219	-0.702674
O35	O	0.950593	0.692654	-0.348542
O36	O	1.038134	0.692649	-0.507881
O37	O	0.982598	0.867741	-0.660044
O38	O	0.895057	0.867746	-0.500704
C39	C	0.880050	0.546180	-0.473372
C40	C	0.865533	0.466756	-0.446943
C41	C	0.688816	0.780212	-0.463780
C42	C	0.609396	0.780217	-0.434095
C43	C	0.799378	0.354814	-0.326526
C44	C	0.813025	0.429444	-0.351369
C45	C	0.904411	0.429449	-0.517717
C46	C	0.890769	0.354820	-0.492893
C47	C	0.838252	0.317508	-0.397294
C48	C	0.929643	0.317514	-0.563661
C49	C	0.916004	0.242888	-0.538833
C50	C	0.863492	0.205568	-0.443237
C51	C	0.824614	0.242882	-0.372466
C52	C	0.982164	0.354823	-0.659252
C53	C	1.021038	0.317517	-0.730020
C54	C	1.007395	0.242895	-0.705200
C55	C	0.954883	0.205575	-0.609603
C56	C	1.046274	0.205582	-0.775970
C57	C	1.032635	0.130956	-0.751142
C58	C	0.941245	0.130949	-0.584775
C59	C	0.348178	0.780190	-0.803737
C60	C	0.273553	0.780186	-0.775803
C61	C	0.273573	0.780187	-0.588874
C62	C	0.348198	0.780195	-0.616797
C63	C	0.385495	0.780196	-0.724229
C64	C	0.385515	0.780201	-0.537288
C65	C	0.460135	0.780205	-0.565204
C66	C	0.497439	0.780202	-0.672628
C67	C	0.460116	0.780199	-0.752145
C68	C	0.348219	0.780194	-0.429850
C69	C	0.385536	0.780200	-0.350342
C70	C	0.460155	0.780210	-0.378263
C71	C	0.497458	0.780208	-0.485688
C72	C	0.497478	0.780213	-0.298747
C73	C	0.572099	0.780217	-0.326663
C74	C	0.572079	0.780211	-0.513604
C75	C	1.156835	0.780186	-0.638707
C76	C	1.236255	0.780182	-0.668391
C77	C	0.922827	0.780198	-0.889721
C78	C	0.922828	0.780198	-1.004597
C79	C	0.965601	1.014219	-0.629115
C80	C	0.980119	1.093643	-0.655544
C81	C	0.922824	0.780201	-0.212766
C82	C	0.922824	0.780201	-0.097889
C83	C	1.114059	0.546167	-0.560835
C84	C	1.178962	0.466738	-0.564091
C85	C	0.880049	0.546181	-0.134894
C86	C	0.865531	0.466757	0.006411
C87	C	1.114058	0.546168	-0.222357
C88	C	1.178961	0.466740	-0.110737
C89	C	0.731593	1.014231	-0.880129
C90	C	0.666691	1.093659	-0.991750
C91	C	0.731592	1.014232	-0.541651
C92	C	0.666689	1.093661	-0.538396
C93	C	0.965602	1.014218	-0.967593
C94	C	0.980121	1.093641	-1.108898
C95	C	1.163747	0.429440	-0.614646
C96	C	1.224725	0.354819	-0.617731
C97	C	1.300917	0.317492	-0.570251
C98	C	1.316132	0.354798	-0.519695
C99	C	1.255156	0.429423	-0.516620
C100	C	0.904408	0.429457	0.121797
C101	C	0.890765	0.354840	0.254576
C102	C	0.838249	0.317521	0.271967
C103	C	0.799368	0.354828	0.156569
C104	C	0.813007	0.429449	0.023792
C105	C	1.255143	0.429437	-0.141495
C106	C	1.316134	0.354816	-0.036632
C107	C	1.300942	0.317495	0.098990
C108	C	1.224752	0.354805	0.129747
C109	C	1.163763	0.429430	0.024883
C110	C	0.590510	1.130971	-0.960995
C111	C	0.529523	1.205615	-1.065866
C112	C	0.544716	1.242940	-1.201489
C113	C	0.620905	1.205625	-1.232244
C114	C	0.681892	1.130988	-1.127376
C115	C	0.681906	1.130967	-0.487854
C116	C	0.620932	1.205608	-0.484806
C117	C	0.544740	1.242938	-0.532291
C118	C	0.529524	1.205629	-0.582841
C119	C	0.590499	1.130993	-0.585897
C120	C	1.032641	1.130938	-1.126244
C121	C	1.046297	1.205555	-1.259008
C122	C	1.007429	1.242879	-1.374424
C123	C	0.954906	1.205576	-1.357072
C124	C	0.941254	1.130955	-1.224311
H125	H	0.898473	0.100576	-0.506942
H126	H	1.267555	0.459781	-0.475443
Cl127	Cl	1.377623	0.223678	0.230807
H128	H	1.064295	1.100559	-1.032282
Cl129	Cl	0.970433	0.476355	0.099970
Cl130	Cl	1.067991	0.476310	0.063577
H131	H	0.495098	1.303711	-0.529795
H132	H	0.355161	0.780196	-0.262867
Cl133	Cl	0.875216	1.084087	-1.202527
H134	H	0.490481	0.780210	-0.839636
Cl135	Cl	1.112299	0.252489	-0.896133
H136	H	0.633267	1.236025	-1.342681
H137	H	0.781349	0.459809	-0.070151
H138	H	0.578124	1.100585	-0.850569
Cl139	Cl	1.024597	1.336693	-1.541317
Cl140	Cl	0.433750	1.252506	-1.027171
H141	H	0.495049	1.303715	-1.286866
H142	H	0.243198	0.780183	-0.501399
H143	H	0.467104	0.780203	-0.211267
Cl144	Cl	0.846350	0.111747	-0.412017
Cl145	Cl	1.112323	1.252441	-1.280788
H146	H	0.743939	1.100579	-0.449177
H147	H	1.212321	0.324454	-0.658898
H148	H	0.633335	1.235973	-0.443638
H149	H	0.923262	1.235977	-1.451063
Cl150	Cl	1.067969	0.476354	-0.674352
Cl151	Cl	1.377565	0.223674	-0.574122
H152	H	0.602483	0.780220	-0.261918
H153	H	0.467481	1.236034	-0.621501
H154	H	1.378166	0.324445	-0.061698
Cl155	Cl	1.411921	0.307857	-0.460002
Cl156	Cl	0.777659	1.084083	-1.166061
Cl157	Cl	0.821113	0.223709	0.438897
H158	H	1.212393	0.324407	0.240184
H159	H	0.922432	0.324473	0.348522
Cl160	Cl	0.571354	1.084097	-0.649430
Cl161	Cl	0.226647	0.780175	-0.875771
H162	H	1.267527	0.459813	-0.251917
Cl163	Cl	0.758582	0.195981	-0.252300
Cl164	Cl	0.733346	0.307913	-0.206360
H165	H	0.781360	0.459823	-0.293743
H166	H	0.947173	0.459835	-0.595549
H167	H	0.756609	0.324432	0.170750
H168	H	1.063799	0.347903	-0.807853
Cl169	Cl	0.999310	0.448635	-0.690452
H170	H	1.064292	0.100580	-0.808768
H171	H	0.602444	0.780222	-0.601095
H172	H	0.558201	0.780200	-0.695351
H173	H	0.378544	0.780201	-0.891229
H174	H	0.287460	0.780186	-0.407122
