data_functionalizedCrystal
_audit_creation_method	'MofGen! by Chris Wilmer'
_symmetry_space_group_name_H-M	'P1'
_symmetry_Int_Tables_number	1
_symmetry_cell_setting	triclinic
loop_
_symmetry_equiv_pos_as_xyz
  x,y,z
_cell_length_a	18.050590
_cell_length_b	18.050588
_cell_length_c	12.645323
_cell_angle_alpha	90.028389
_cell_angle_beta	90.006808
_cell_angle_gamma	90.018727
loop_
_atom_site_label
_atom_site_type_symbol
_atom_site_fract_x
_atom_site_fract_y
_atom_site_fract_z
Zn1	Zn	1.135341	-0.295868	0.598971
Zn2	Zn	1.135232	-0.420067	0.421701
Zn3	Zn	1.011144	-0.295872	0.421765
Zn4	Zn	1.011105	-0.419998	0.598965
O5	O	1.073206	-0.357951	0.510350
O6	O	1.239251	-0.312371	0.575432
O7	O	1.118742	-0.403623	0.273362
O8	O	1.027680	-0.191947	0.445301
O9	O	1.239171	-0.403620	0.445192
O10	O	1.118928	-0.191944	0.575494
O11	O	1.027575	-0.312378	0.273409
O12	O	0.907214	-0.312310	0.445295
O13	O	1.027615	-0.403501	0.747313
O14	O	0.907186	-0.403505	0.575483
O15	O	1.118890	-0.312304	0.747318
O16	O	1.118705	-0.523983	0.445186
O17	O	1.027509	-0.523931	0.575421
C18	C	0.880254	-0.357901	0.510396
C19	C	0.797708	-0.357897	0.510441
C20	C	0.598263	-0.407630	0.581069
C21	C	0.548874	-0.339913	0.607153
C22	C	0.646577	-0.357938	0.510389
C23	C	0.548885	-0.425694	0.484303
C24	C	0.500592	-0.357984	0.510341
C25	C	0.598276	-0.290185	0.536524
C26	C	0.598290	-0.376012	0.413629
C27	C	0.548924	-0.308248	0.439677
C28	C	0.730676	-0.357913	0.510419
C29	C	0.416496	-0.358002	0.510310
C30	C	1.073111	-0.550904	0.510319
C31	C	1.073139	-0.633449	0.510341
C32	C	1.023625	-0.882274	0.581163
C33	C	1.091344	-0.832816	0.607151
C34	C	1.073293	-0.930570	0.510400
C35	C	1.005502	-0.832946	0.484433
C36	C	1.073214	-0.784585	0.510373
C37	C	1.141048	-0.882199	0.536438
C38	C	1.055161	-0.882333	0.413674
C39	C	1.122927	-0.832898	0.439625
C40	C	1.073338	-1.014668	0.510417
C41	C	1.073177	-0.700488	0.510355
C42	C	1.266911	-0.358003	0.510305
C43	C	1.349457	-0.358025	0.510286
C44	C	1.073260	-0.357894	0.786856
C45	C	1.073284	-0.357870	0.904686
C46	C	1.073320	-0.164246	0.510405
C47	C	1.073369	-0.081700	0.510429
C48	C	1.073194	-0.357955	0.234921
C49	C	1.073314	-0.357770	0.117091
C50	C	1.015685	-0.414971	1.072247
C51	C	1.015836	-0.415254	0.949687
C52	C	1.151530	-0.379124	0.949173
C53	C	1.151214	-0.379482	1.071771
C54	C	1.053375	-0.279194	1.071899
C55	C	1.051629	-0.279665	0.949293
H56	H	0.619930	-0.449580	0.640908
H57	H	0.981708	-0.903952	0.641062
H58	H	1.028718	-0.472859	1.103056
H59	H	1.028997	-0.473506	0.920363
H60	H	1.164944	-0.811355	0.379772
H61	H	0.527168	-0.324641	0.688961
H62	H	1.106651	-0.811067	0.688938
H63	H	0.997312	-0.259823	1.102827
H64	H	1.168117	-0.436923	1.100370
Br65	Br	1.225160	-0.313011	1.121221
Br66	Br	1.116488	-0.204873	0.898254
Br67	Br	0.634278	-0.194683	0.573418
H68	H	1.039834	-0.904099	0.331911
H69	H	1.198362	-0.903745	0.558484
Br70	Br	0.513040	-0.238164	0.340016
H71	H	0.620013	-0.391304	0.331845
Br72	Br	0.512721	-0.521165	0.447562
Br73	Br	0.910006	-0.796879	0.447844
Br74	Br	0.919128	-0.393078	0.899549
Br75	Br	0.918683	-0.393011	1.121397
Br76	Br	1.225019	-0.311882	0.900598
H77	H	1.168723	-0.435963	0.918472
H78	H	0.994047	-0.263637	0.920218
H79	H	1.095350	-0.236577	1.100899
