data_functionalizedCrystal
_audit_creation_method	'MofGen! by Chris Wilmer'
_symmetry_space_group_name_H-M	'P1'
_symmetry_Int_Tables_number	1
_symmetry_cell_setting	triclinic
loop_
_symmetry_equiv_pos_as_xyz
  x,y,z
_cell_length_a	14.908571
_cell_length_b	21.295417
_cell_length_c	14.909241
_cell_angle_alpha	86.669119
_cell_angle_beta	83.210755
_cell_angle_gamma	86.726349
loop_
_atom_site_label
_atom_site_type_symbol
_atom_site_fract_x
_atom_site_fract_y
_atom_site_fract_z
Zn1	Zn	1.413288	-0.283768	-0.591477
Zn2	Zn	1.404421	-0.394784	-0.440090
Zn3	Zn	1.253184	-0.283784	-0.431408
Zn4	Zn	1.261861	-0.383251	-0.582694
O5	O	1.333189	-0.336397	-0.511417
O6	O	1.538778	-0.303315	-0.578704
O7	O	1.377017	-0.384893	-0.312269
O8	O	1.274502	-0.195694	-0.452683
O9	O	1.532263	-0.384878	-0.467481
O10	O	1.392129	-0.195682	-0.570285
O11	O	1.265904	-0.303341	-0.305890
O12	O	1.127669	-0.292158	-0.444167
O13	O	1.289291	-0.365221	-0.710528
O14	O	1.134044	-0.365236	-0.555316
O15	O	1.400543	-0.292132	-0.716981
O16	O	1.385431	-0.481342	-0.458965
O17	O	1.280693	-0.472869	-0.563735
C18	C	1.098014	-0.327448	-0.497847
C19	C	0.997406	-0.323634	-0.492063
C20	C	0.815031	-0.392694	-0.596779
C21	C	0.720502	-0.389112	-0.591347
C22	C	0.713816	-0.312885	-0.475774
C23	C	0.808345	-0.316467	-0.481206
C24	C	0.858950	-0.356373	-0.541709
C25	C	0.953481	-0.359958	-0.547135
C26	C	0.946794	-0.283728	-0.431567
C27	C	0.852264	-0.280147	-0.426136
C28	C	1.333067	-0.499946	-0.511360
C29	C	1.333100	-0.569915	-0.511371
C30	C	1.387692	-0.607172	-0.456879
C31	C	1.387735	-0.672916	-0.456902
C32	C	1.333170	-0.701399	-0.511406
C33	C	1.278575	-0.664133	-0.565909
C34	C	1.278539	-0.598391	-0.565891
N35	N	1.254386	-0.801393	-0.513738
N36	N	1.254421	-0.863846	-0.513749
C37	C	1.333275	-0.899475	-0.511464
N38	N	1.412091	-0.870294	-0.509149
N39	N	1.412054	-0.807836	-0.509132
C40	C	1.333203	-0.772684	-0.511432
C41	C	1.387919	-1.008019	-0.456994
C42	C	1.387964	-1.073764	-0.457023
C43	C	1.278795	-1.064980	-0.566025
C44	C	1.278758	-0.999237	-0.566001
C45	C	1.333318	-0.970761	-0.511480
C46	C	1.569282	-0.345381	-0.525041
C47	C	1.669891	-0.349210	-0.530846
C48	C	1.346874	-0.327388	-0.747517
C49	C	1.352706	-0.323550	-0.848129
C50	C	1.333336	-0.172209	-0.511496
C51	C	1.333399	-0.102242	-0.511529
C52	C	1.247819	-0.392459	-1.030471
C53	C	1.253296	-0.388854	-1.125005
C54	C	1.369139	-0.312739	-1.131731
C55	C	1.363663	-0.316344	-1.037198
C56	C	1.303000	-0.356204	-0.986571
C57	C	1.297519	-0.359806	-0.892035
C58	C	1.413366	-0.283694	-0.898764
C59	C	1.418843	-0.280089	-0.993297
C60	C	1.319609	-0.345326	-0.276239
C61	C	1.313953	-0.348995	-0.175638
H62	H	1.432194	-0.703256	-0.412529
H63	H	0.856234	-0.425191	-0.646038
N64	N	0.675654	-0.426213	-0.647610
N65	N	0.720852	-0.461837	-0.701627
H66	H	0.689179	-0.488041	-0.741367
H67	H	0.672598	-0.280391	-0.426522
H68	H	1.248115	-0.392255	-0.850816
N69	N	0.800556	-0.239385	-0.364347
N70	N	0.716156	-0.236190	-0.359507
H71	H	0.679637	-0.207402	-0.315866
N72	N	1.222782	-0.560321	-0.621556
N73	N	1.257912	-0.522603	-0.681084
H74	H	1.218534	-0.495715	-0.720399
N75	N	1.480813	-0.239372	-1.044998
N76	N	1.563721	-0.247119	-1.039255
H77	H	1.607488	-0.218359	-1.075766
H78	H	0.982562	-0.254155	-0.386723
H79	H	1.198408	-0.424903	-0.989249
N80	N	1.443428	-0.578096	-0.401185
N81	N	1.492169	-0.611375	-0.352536
H82	H	1.531534	-0.590839	-0.313202
H83	H	1.458294	-0.254169	-0.863010
H84	H	1.234149	-0.687328	-0.610288
H85	H	1.432425	-1.104098	-0.412652
N86	N	1.443653	-0.978937	-0.401301
N87	N	1.492400	-1.012214	-0.352656
H88	H	1.531763	-0.991677	-0.313321
H89	H	1.234371	-1.088170	-0.610407
H90	H	1.208363	-0.418377	-1.160745
H91	H	1.234300	-0.968899	-0.610369
H92	H	0.994682	-0.392453	-0.596398
H93	H	1.418535	-0.280292	-1.172968
