data_functionalizedCrystal
_audit_creation_method	'MofGen! by Chris Wilmer'
_symmetry_space_group_name_H-M	'P1'
_symmetry_Int_Tables_number	1
_symmetry_cell_setting	triclinic
loop_
_symmetry_equiv_pos_as_xyz
  x,y,z
_cell_length_a	17.699083
_cell_length_b	16.992695
_cell_length_c	16.176319
_cell_angle_alpha	89.993125
_cell_angle_beta	89.998611
_cell_angle_gamma	86.975619
loop_
_atom_site_label
_atom_site_type_symbol
_atom_site_fract_x
_atom_site_fract_y
_atom_site_fract_z
O1	O	1.010252	0.099146	-0.068631
O2	O	1.510252	0.599146	0.431369
O3	O	0.790676	0.112045	-0.068658
O4	O	1.290676	0.612045	0.431342
O5	O	0.899584	-0.008546	-0.068638
O6	O	1.399584	0.491454	0.431362
O7	O	0.901344	0.219736	-0.068651
O8	O	1.401344	0.719736	0.431349
O9	O	0.899567	-0.008553	0.068855
O10	O	1.399567	0.491447	0.568855
O11	O	0.790660	0.112037	0.068835
O12	O	1.290660	0.612037	0.568835
O13	O	1.010235	0.099138	0.068862
O14	O	1.510235	0.599138	0.568862
Cu15	Cu	0.900446	0.105587	0.081403
Cu16	Cu	1.400446	0.605587	0.581403
Cu17	Cu	0.900465	0.105596	-0.081199
Cu18	Cu	1.400465	0.605596	0.418801
O19	O	0.901328	0.219729	0.068842
O20	O	1.401328	0.719729	0.568842
C21	C	0.762442	0.111579	0.000085
C22	C	1.262442	0.611579	0.500085
C23	C	0.678338	0.110192	0.000075
C24	C	1.178338	0.610192	0.500075
C25	C	0.634124	0.180976	0.000071
C26	C	1.134124	0.680976	0.500071
C27	C	0.555099	0.179669	0.000082
C28	C	1.055099	0.679669	0.500082
C29	C	0.520290	0.107576	0.000091
C30	C	1.020290	0.607576	0.500091
C31	C	0.564510	0.036787	0.000097
C32	C	1.064510	0.536787	0.500097
C33	C	0.643533	0.038095	0.000092
C34	C	1.143533	0.538095	0.500092
C35	C	0.245818	0.031509	0.000118
C36	C	0.745818	0.531509	0.500118
C37	C	0.166789	0.030206	0.000120
C38	C	0.666789	0.530206	0.500120
C39	C	0.157384	0.173082	0.000108
C40	C	0.657384	0.673082	0.500108
C41	C	0.236408	0.174391	0.000103
C42	C	0.736408	0.674391	0.500103
C43	C	0.280621	0.103602	0.000113
C44	C	0.780621	0.603602	0.500113
C45	C	0.366308	0.105020	0.000103
C46	C	0.866308	0.605020	0.500103
C47	C	0.434604	0.106157	0.000095
C48	C	0.934604	0.606157	0.500095
C49	C	0.897311	-0.037758	0.000108
C50	C	1.397311	0.462242	0.500108
C51	C	0.890554	-0.124789	0.000107
C52	C	1.390554	0.375211	0.500107
C53	C	0.955751	-0.175154	0.000116
C54	C	1.455751	0.324846	0.500116
C55	C	0.949398	-0.256928	0.000107
C56	C	1.449398	0.243072	0.500107
C57	C	0.877846	-0.288336	0.000096
C58	C	1.377846	0.211664	0.500096
C59	C	0.812643	-0.237965	0.000084
C60	C	1.312643	0.262035	0.500084
C61	C	0.818998	-0.156192	0.000087
C62	C	1.318998	0.343808	0.500087
C63	C	0.851510	-0.531884	0.000081
C64	C	1.351510	-0.031884	0.500081
C65	C	0.845160	-0.613663	0.000081
C66	C	1.345160	-0.113663	0.500081
C67	C	0.981915	-0.632621	0.000102
C68	C	1.481915	-0.132621	0.500102
C69	C	0.988263	-0.550845	0.000110
C70	C	1.488263	-0.050845	0.500110
C71	C	0.923061	-0.500481	0.000094
C72	C	1.423061	-0.000481	0.500094
N73	N	0.871350	-0.371923	0.000090
N74	N	1.371350	0.128077	0.500090
N75	N	0.929558	-0.416897	0.000095
N76	N	1.429558	0.083103	0.500095
C77	C	1.038469	0.099604	0.000117
C78	C	1.538469	0.599604	0.500117
C79	C	1.122574	0.100991	0.000122
C80	C	1.622574	0.600991	0.500122
C81	C	0.903601	0.248941	0.000094
C82	C	1.403601	0.748941	0.500094
C83	C	0.910358	0.335972	0.000090
C84	C	1.410358	0.835972	0.500090
N85	N	0.900438	0.105580	0.195768
N86	N	1.400438	0.605580	0.695768
N87	N	0.900479	0.105597	-0.195564
N88	N	1.400479	0.605597	0.304436
C89	C	0.948679	0.052204	0.239041
C90	C	1.448679	0.552204	0.739041
C91	C	0.948683	0.052203	0.325588
C92	C	1.448683	0.552203	0.825588
C93	C	0.900449	0.105583	0.368861
C94	C	1.400449	0.605583	0.868861
C95	C	0.852202	0.158961	0.325582
C96	C	1.352202	0.658961	0.825582
C97	C	0.852195	0.158957	0.239036
C98	C	1.352195	0.658957	0.739036
C99	C	0.852229	0.158976	0.674610
C100	C	1.352229	0.658976	1.174610
C101	C	0.852242	0.158977	0.761161
C102	C	1.352242	0.658977	1.261161
C103	C	0.948717	0.052222	0.761162
C104	C	1.448717	0.552222	1.261162
C105	C	0.948709	0.052218	0.674617
C106	C	1.448709	0.552218	1.174617
C107	C	0.900461	0.105593	0.631345
C108	C	1.400461	0.605593	1.131345
C109	C	0.900456	0.105593	0.537501
C110	C	1.400456	0.605593	1.037501
C111	C	0.900457	0.105588	0.462703
C112	C	1.400457	0.605588	0.962703
H113	H	0.679531	-0.019545	0.000095
H114	H	1.179531	0.480455	0.500095
N115	N	1.000741	-0.005339	0.372262
N116	N	1.500741	0.494661	0.872262
H117	H	1.031309	-0.039142	0.331717
H118	H	1.531309	0.460858	0.831717
H119	H	1.036000	0.024668	0.408145
H120	H	1.536000	0.524668	0.908145
N121	N	0.273943	0.252152	0.000096
N122	N	0.773943	0.752152	0.500096
H123	H	0.306521	0.255876	0.051062
H124	H	0.806521	0.755876	0.551062
H125	H	0.306477	0.255839	-0.050909
H126	H	0.806477	0.755839	0.449091
H127	H	1.046528	-0.525279	0.000120
H128	H	1.546528	-0.025279	0.500120
N129	N	0.735467	-0.271834	0.000078
N130	N	1.235467	0.228166	0.500078
H131	H	0.706685	-0.253454	-0.050895
H132	H	1.206685	0.246546	0.449105
H133	H	0.741395	-0.331274	0.000113
H134	H	1.241395	0.168726	0.500113
N135	N	0.293489	-0.044845	0.000117
N136	N	0.793489	0.455155	0.500117
H137	H	0.326484	-0.047488	-0.050853
H138	H	0.826484	0.452512	0.449147
H139	H	0.326439	-0.047454	0.051118
H140	H	0.826439	0.452546	0.551118
N141	N	0.671659	0.258737	0.000055
N142	N	1.171659	0.758737	0.500055
H143	H	0.655852	0.289739	0.051022
H144	H	1.155852	0.789739	0.551022
H145	H	0.728421	0.248766	0.000018
H146	H	1.228421	0.748766	0.500018
N147	N	0.800188	0.216538	0.627945
N148	N	1.300188	0.716538	1.127945
H149	H	0.769635	0.250352	0.668493
H150	H	1.269635	0.750352	1.168493
H151	H	0.831243	0.251163	0.592021
H152	H	1.331243	0.751163	1.092021
N153	N	0.526962	-0.040967	0.000116
N154	N	1.026962	0.459033	0.500116
H155	H	0.494383	-0.044694	-0.050851
H156	H	0.994383	0.455306	0.449149
H157	H	0.567005	-0.085568	0.000152
H158	H	1.067005	0.414432	0.500152
N159	N	0.129237	-0.047552	0.000136
N160	N	0.629237	0.452448	0.500136
H161	H	0.145044	-0.078562	-0.050827
H162	H	0.645044	0.421438	0.449173
H163	H	0.145054	-0.078492	0.051145
H164	H	0.645054	0.421508	0.551145
N165	N	1.000736	-0.005351	0.627944
N166	N	1.500736	0.494649	1.127944
H167	H	1.031297	-0.039167	0.668491
H168	H	1.531297	0.460833	1.168491
H169	H	0.969665	-0.039974	0.592046
H170	H	1.469665	0.460026	1.092046
H171	H	0.988001	0.008758	0.796403
H172	H	1.488001	0.508758	1.296403
H173	H	0.812912	0.202420	0.203804
H174	H	1.312912	0.702420	0.703804
N175	N	1.032926	-0.141281	0.000136
N176	N	1.532926	0.358719	0.500136
H177	H	1.073263	-0.185598	0.000140
H178	H	1.573263	0.314402	0.500140
H179	H	1.038549	-0.107758	-0.050832
H180	H	1.538549	0.392242	0.449168
H181	H	1.034999	-0.673635	0.000114
H182	H	1.534999	-0.173635	0.500114
N183	N	0.507411	0.256014	0.000171
N184	N	1.007411	0.756014	0.500171
H185	H	0.541453	0.301882	0.000190
H186	H	1.041453	0.801882	0.500190
H187	H	0.474377	0.258644	-0.050765
H188	H	0.974377	0.758644	0.449235
H189	H	1.002489	-0.297933	0.000117
H190	H	1.502489	0.202067	0.500117
H191	H	0.786891	-0.639232	0.000085
H192	H	1.286891	-0.139232	0.500085
N193	N	0.781187	-0.477569	0.000068
N194	N	1.281187	0.022431	0.500068
H195	H	0.734898	-0.509877	0.000064
H196	H	1.234898	-0.009877	0.500064
H197	H	0.780838	-0.443234	0.051038
H198	H	1.280838	0.056766	0.551038
H199	H	0.121377	0.230722	0.000103
H200	H	0.621377	0.730722	0.500103
H201	H	0.765906	-0.115186	0.000080
H202	H	1.265906	0.384814	0.500080
N203	N	1.000708	-0.005365	0.192372
N204	N	1.500708	0.494635	0.692372
H205	H	1.031268	-0.039179	0.232921
H206	H	1.531268	0.460821	0.732921
H207	H	0.969640	-0.039990	0.156472
H208	H	1.469640	0.460010	0.656472
H209	H	0.812961	0.202446	0.796393
H210	H	1.312961	0.702446	1.296393
N211	N	0.800172	0.216530	0.372249
N212	N	1.300172	0.716530	0.872249
H213	H	0.807497	0.208436	0.433642
H214	H	1.307497	0.708436	0.933642
H215	H	0.812271	0.272138	0.357109
H216	H	1.312271	0.772138	0.857109
