data_functionalizedCrystal
_audit_creation_method	'MofGen! by Chris Wilmer'
_symmetry_space_group_name_H-M	'P1'
_symmetry_Int_Tables_number	1
_symmetry_cell_setting	triclinic
loop_
_symmetry_equiv_pos_as_xyz
  x,y,z
_cell_length_a	18.215407
_cell_length_b	19.076808
_cell_length_c	19.077174
_cell_angle_alpha	90.063984
_cell_angle_beta	87.687393
_cell_angle_gamma	92.320996
loop_
_atom_site_label
_atom_site_type_symbol
_atom_site_fract_x
_atom_site_fract_y
_atom_site_fract_z
Zn1	Zn	1.128831	-0.295784	-0.386006
Zn2	Zn	1.118874	-0.408579	-0.263774
Zn3	Zn	1.001035	-0.291079	-0.268519
Zn4	Zn	1.000594	-0.413255	-0.381248
O5	O	1.062334	-0.352174	-0.324887
O6	O	1.230494	-0.310758	-0.369797
O7	O	1.099260	-0.389067	-0.166072
O8	O	1.022338	-0.193367	-0.288080
O9	O	1.223179	-0.393629	-0.279994
O10	O	1.116230	-0.196823	-0.374397
O11	O	1.012684	-0.302740	-0.169557
O12	O	0.897992	-0.307274	-0.283467
O13	O	1.021588	-0.401598	-0.480211
O14	O	0.897669	-0.397036	-0.366289
O15	O	1.115803	-0.315292	-0.483707
O16	O	1.098833	-0.507536	-0.275381
O17	O	1.011933	-0.510971	-0.361689
C18	C	0.871128	-0.352152	-0.324877
C19	C	0.789329	-0.352161	-0.324889
C20	C	0.524116	-0.398985	-0.367948
C21	C	0.600975	-0.398979	-0.367944
C22	C	0.601292	-0.305380	-0.281838
C23	C	0.524435	-0.305390	-0.281838
C24	C	0.485849	-0.352192	-0.324897
C25	C	0.639565	-0.352176	-0.324894
C26	C	0.722899	-0.352169	-0.324890
C27	C	0.402509	-0.352200	-0.324900
C28	C	1.054275	-0.534752	-0.317519
C29	C	1.050896	-0.612860	-0.314391
C30	C	1.098159	-0.651296	-0.357898
C31	C	1.094982	-0.724688	-0.354960
C32	C	1.044544	-0.759641	-0.308510
C33	C	0.997275	-0.721200	-0.265001
C34	C	1.000450	-0.647810	-0.267943
C35	C	1.029807	-0.978946	-0.294890
C36	C	1.026637	-1.052341	-0.291950
C37	C	1.124343	-1.055824	-0.381910
C38	C	1.127516	-0.982432	-0.384845
C39	C	1.080245	-0.943998	-0.341339
N40	N	1.041296	-0.834659	-0.305504
N41	N	1.083490	-0.868982	-0.344349
C42	C	1.254286	-0.352197	-0.324897
C43	C	1.336085	-0.352207	-0.324902
C44	C	1.069757	-0.359491	-0.508168
C45	C	1.072921	-0.362610	-0.586272
C46	C	1.070444	-0.168884	-0.332299
C47	C	1.073900	-0.090777	-0.335457
C48	C	1.029333	-0.319130	-0.624779
C49	C	1.032302	-0.322065	-0.698166
C50	C	1.078864	-0.368478	-0.733044
C51	C	1.122453	-0.411963	-0.694531
C52	C	1.119479	-0.409030	-0.621146
C53	C	1.092587	-0.382071	-0.952327
C54	C	1.095559	-0.384999	-1.025718
C55	C	1.005407	-0.295102	-1.029348
C56	C	1.002441	-0.292171	-0.955961
C57	C	1.046027	-0.335658	-0.917454
N58	N	1.081901	-0.371478	-0.808056
N59	N	1.042985	-0.332661	-0.842443
C60	C	1.054984	-0.344835	-0.142320
C61	C	1.051971	-0.341519	-0.064225
H62	H	1.139235	-0.622842	-0.395719
C63	C	0.406158	-0.440559	-0.406186
C64	C	0.481700	-0.450432	-0.415272
H65	H	0.379975	-0.472320	-0.435406
H66	H	0.391200	-0.448890	-0.358550
H67	H	0.396066	-0.393772	-0.418452
H68	H	0.491793	-0.497217	-0.403002
H69	H	0.496663	-0.442106	-0.462918
C70	C	0.593885	-0.212873	-0.196715
C71	C	0.643708	-0.253938	-0.234508
H72	H	0.620070	-0.181118	-0.167492
H73	H	0.566335	-0.187263	-0.228454
H74	H	0.561467	-0.242389	-0.168560
H75	H	0.676122	-0.224422	-0.262667
H76	H	0.671270	-0.279550	-0.202765
C77	C	1.221226	-1.051894	-0.471137
C78	C	1.176289	-1.098072	-0.429743
H79	H	1.253295	-1.077977	-0.500668
H80	H	1.191460	-1.024354	-0.499125
H81	H	1.249408	-1.022039	-0.441687
H82	H	1.148103	-1.127924	-0.459192
H83	H	1.206058	-1.125624	-0.401752
C84	C	0.910187	-0.288627	-1.112259
C85	C	0.957491	-0.247309	-1.071673
H86	H	0.880600	-0.259121	-1.138384
H87	H	0.938344	-0.316679	-1.143531
H88	H	0.879528	-0.318096	-1.082381
H89	H	0.988154	-0.217844	-1.101551
H90	H	0.929332	-0.219246	-1.040398
H91	H	1.133478	-0.422795	-1.054113
C92	C	0.592937	-0.491489	-0.453064
C93	C	0.643039	-0.450412	-0.415271
H94	H	0.618907	-0.523240	-0.482285
H95	H	0.560536	-0.517103	-0.421325
H96	H	0.565397	-0.461980	-0.481221
H97	H	0.670575	-0.479921	-0.387110
H98	H	0.675452	-0.424796	-0.447014
C99	C	0.910117	-0.288715	-0.722116
C100	C	0.984386	-0.274266	-0.740485
H101	H	0.880534	-0.259201	-0.748237
H102	H	0.897747	-0.336402	-0.732238
H103	H	0.901702	-0.280329	-0.673417
H104	H	0.992802	-0.282657	-0.789184
H105	H	0.996760	-0.226568	-0.730368
H106	H	1.128070	-0.417489	-0.920984
H107	H	1.133474	-0.755979	-0.390383
C108	C	0.434622	-0.291745	-0.187714
C109	C	0.482374	-0.253959	-0.234496
H110	H	0.408662	-0.259997	-0.158481
H111	H	0.400640	-0.319607	-0.213356
H112	H	0.462184	-0.321248	-0.159571
H113	H	0.454811	-0.224459	-0.262642
H114	H	0.516360	-0.226085	-0.208852
H115	H	1.168587	-0.953975	-0.422668
C116	C	0.930361	-1.041532	-0.203331
C117	C	0.971186	-1.090764	-0.240894
H118	H	0.896128	-1.065254	-0.171816
H119	H	0.962594	-1.011820	-0.177623
H120	H	0.904665	-1.014139	-0.235080
H121	H	0.996886	-1.118153	-0.209145
H122	H	0.938949	-1.120488	-0.266603
C123	C	0.933977	-0.896119	-0.288342
C124	C	0.977850	-0.936709	-0.247062
H125	H	0.901897	-0.870047	-0.258810
H126	H	0.964465	-0.864797	-0.316417
H127	H	0.905806	-0.925990	-0.317785
H128	H	1.006025	-0.906838	-0.217622
H129	H	0.947359	-0.968035	-0.218974
H130	H	0.956205	-0.749665	-0.227183
H131	H	1.154978	-0.444431	-0.589794
C132	C	0.903556	-0.651735	-0.178725
C133	C	0.948497	-0.605559	-0.220119
H134	H	0.871483	-0.625649	-0.149199
H135	H	0.875385	-0.681592	-0.208170
H136	H	0.933325	-0.679271	-0.150724
H137	H	0.918728	-0.578026	-0.248123
H138	H	0.976671	-0.575689	-0.190670
H139	H	0.991422	-0.281331	-0.596388
C140	C	1.167044	-0.456371	-0.805412
C141	C	1.173634	-0.462981	-0.732867
H142	H	1.198647	-0.487866	-0.829076
H143	H	1.117635	-0.467131	-0.817018
H144	H	1.180393	-0.409636	-0.819342
H145	H	1.160279	-0.509716	-0.718936
H146	H	1.223053	-0.452226	-0.721256
C147	C	0.913627	-0.203607	-0.966923
C148	C	0.951259	-0.241152	-0.917626
H149	H	0.882029	-0.172111	-0.943255
H150	H	0.948040	-0.177879	-0.996635
H151	H	0.885279	-0.235370	-0.994305
H152	H	0.979612	-0.209389	-0.890247
H153	H	0.916841	-0.266882	-0.887901
