data_functionalizedCrystal
_audit_creation_method	'MofGen! by Chris Wilmer'
_symmetry_space_group_name_H-M	'P1'
_symmetry_Int_Tables_number	1
_symmetry_cell_setting	triclinic
loop_
_symmetry_equiv_pos_as_xyz
  x,y,z
_cell_length_a	16.109301
_cell_length_b	10.540539
_cell_length_c	14.586319
_cell_angle_alpha	89.998343
_cell_angle_beta	89.999213
_cell_angle_gamma	83.993486
loop_
_atom_site_label
_atom_site_type_symbol
_atom_site_fract_x
_atom_site_fract_y
_atom_site_fract_z
O1	O	1.104129	0.163159	-0.076178
O2	O	0.862191	0.183464	-0.076192
O3	O	0.988679	-0.011474	-0.076184
O4	O	0.977640	0.358096	-0.076186
O5	O	0.988670	-0.011477	0.076297
O6	O	0.862182	0.183461	0.076289
O7	O	1.104120	0.163156	0.076303
Cu8	Cu	0.983150	0.173308	0.090219
Cu9	Cu	0.983160	0.173312	-0.090108
O10	O	0.977631	0.358094	0.076294
C11	C	0.831206	0.182640	0.000047
C12	C	0.738896	0.180174	0.000041
C13	C	0.517296	0.290112	0.000051
C14	C	0.430561	0.287785	0.000057
C15	C	0.449021	0.056499	0.000055
C16	C	0.535754	0.058827	0.000055
C17	C	0.569889	0.175637	0.000049
C18	C	0.396421	0.170982	0.000054
C19	C	0.302380	0.168459	0.000060
C20	C	0.663936	0.178162	0.000044
C21	C	0.987847	-0.058767	0.000055
C22	C	0.985370	-0.199679	0.000050
C23	C	0.890460	-0.381753	-0.000298
C24	C	0.892971	-0.235171	0.000046
C25	C	1.029832	-0.261973	0.087127
C26	C	1.026678	-0.408472	0.087200
C27	C	1.028567	-0.409014	-0.086199
C28	C	1.029419	-0.262044	-0.087350
C29	C	1.135104	0.163980	0.000062
C30	C	1.227414	0.166446	0.000062
C31	C	0.978463	0.405386	0.000054
C32	C	0.980940	0.546299	0.000053
N33	N	0.983149	0.173305	0.217050
N34	N	0.983168	0.173305	-0.216939
C35	C	1.039177	0.087015	0.452060
C36	C	1.039179	0.087012	0.548042
C37	C	0.927134	0.259598	0.548044
C38	C	0.927129	0.259594	0.452064
C39	C	0.983154	0.173304	0.404075
C40	C	0.983163	0.173305	0.596036
C41	C	0.983165	0.173303	0.700103
C42	C	0.983151	0.173305	0.300001
H43	H	0.578578	-0.034398	0.000056
N44	N	0.849079	-0.181108	-0.078260
N45	N	0.816371	-0.251626	-0.133546
H46	H	0.785366	-0.213450	-0.188851
N47	N	1.096358	-0.001209	0.403054
N48	N	1.146339	-0.078298	0.445915
H49	H	1.186705	-0.140641	0.411307
H50	H	1.084796	0.016747	0.587109
H51	H	0.421218	-0.038605	0.000066
H52	H	0.545085	0.385227	0.000052
N53	N	0.869921	0.347759	0.597063
N54	N	0.871754	0.465088	0.586336
H55	H	0.831347	0.527357	0.620953
H56	H	0.853964	-0.409832	-0.062742
N57	N	0.376837	0.404717	0.000043
N58	N	0.326377	0.429226	-0.064228
H59	H	0.288432	0.511813	-0.064236
N60	N	0.869889	0.347742	0.403056
N61	N	0.819874	0.424783	0.445912
H62	H	0.779447	0.487031	0.411300
N63	N	0.844858	-0.419008	0.077594
N64	N	0.878706	-0.498317	0.133363
H65	H	0.846502	-0.524633	0.188376
N66	N	0.848766	-0.182168	0.078480
N67	N	0.815967	-0.253451	0.133141
H68	H	0.784746	-0.216021	0.188540
H69	H	0.993812	-0.436204	0.152288
N70	N	1.110042	-0.469826	0.092173
N71	N	1.170363	-0.404408	0.095584
H72	H	1.229238	-0.447733	0.099103
N73	N	1.114955	-0.235144	0.091184
N74	N	1.143870	-0.169654	0.029799
H75	H	1.203989	-0.150704	0.032662
N76	N	0.991072	-0.207977	0.168408
N77	N	0.930714	-0.123635	0.162431
H78	H	0.903334	-0.085501	0.219834
H79	H	0.998666	-0.440139	-0.152197
N80	N	0.988654	-0.210106	-0.168158
N81	N	0.927389	-0.127463	-0.161476
H82	H	0.898596	-0.090774	-0.218545
H83	H	1.095307	-0.457191	-0.086781
N84	N	1.113928	-0.232855	-0.093927
N85	N	1.164650	-0.266060	-0.031388
H86	H	1.224338	-0.245441	-0.036024
