data_functionalizedCrystal
_audit_creation_method	'MofGen! by Chris Wilmer'
_symmetry_space_group_name_H-M	'P1'
_symmetry_Int_Tables_number	1
_symmetry_cell_setting	triclinic
loop_
_symmetry_equiv_pos_as_xyz
  x,y,z
_cell_length_a	12.837943
_cell_length_b	15.021413
_cell_length_c	12.837942
_cell_angle_alpha	90.004978
_cell_angle_beta	85.171060
_cell_angle_gamma	90.007011
loop_
_atom_site_label
_atom_site_type_symbol
_atom_site_fract_x
_atom_site_fract_y
_atom_site_fract_z
O1	O	1.402340	0.074015	-0.272127
O2	O	1.652340	0.324015	-0.022127
O3	O	1.902340	0.574015	0.227873
O4	O	2.152340	0.824015	0.477873
O5	O	1.099207	0.074021	-0.258684
O6	O	1.349207	0.324021	-0.008684
O7	O	1.599207	0.574021	0.241316
O8	O	1.849207	0.824021	0.491316
O9	O	1.244052	0.074013	-0.113839
O10	O	1.494052	0.324013	0.136161
O11	O	1.744052	0.574013	0.386161
O12	O	1.994052	0.824013	0.636161
O13	O	1.257495	0.074023	-0.416972
O14	O	1.507495	0.324023	-0.166972
O15	O	1.757495	0.574023	0.083028
O16	O	2.007495	0.824023	0.333028
O17	O	1.244029	-0.074052	-0.113859
O18	O	1.494029	0.175948	0.136141
O19	O	1.744029	0.425948	0.386141
O20	O	1.994029	0.675948	0.636141
O21	O	1.099183	-0.074044	-0.258704
O22	O	1.349183	0.175956	-0.008704
O23	O	1.599183	0.425956	0.241296
O24	O	1.849183	0.675956	0.491296
O25	O	1.402317	-0.074049	-0.272147
O26	O	1.652317	0.175951	-0.022147
O27	O	1.902317	0.425951	0.227853
O28	O	2.152317	0.675951	0.477853
Zn29	Zn	1.250746	-0.097555	-0.265429
Zn30	Zn	1.500746	0.152445	-0.015429
Zn31	Zn	1.750746	0.402445	0.234571
Zn32	Zn	2.000746	0.652445	0.484571
Zn33	Zn	1.250777	0.097526	-0.265402
Zn34	Zn	1.500777	0.347526	-0.015402
Zn35	Zn	1.750777	0.597526	0.234598
Zn36	Zn	2.000777	0.847526	0.484598
O37	O	1.257472	-0.074041	-0.416993
O38	O	1.507472	0.175959	-0.166993
O39	O	1.757472	0.425959	0.083007
O40	O	2.007472	0.675959	0.333007
C41	C	1.060126	-0.000011	-0.254153
C42	C	1.310126	0.249989	-0.004153
C43	C	1.560126	0.499989	0.245847
C44	C	1.810126	0.749989	0.495847
C45	C	0.943711	-0.000009	-0.240608
C46	C	1.193711	0.249991	0.009392
C47	C	1.443711	0.499991	0.259392
C48	C	1.693711	0.749991	0.509392
C49	C	0.718837	-0.000016	-0.403437
C50	C	0.968837	0.249984	-0.153437
C51	C	1.218837	0.499984	0.096563
C52	C	1.468837	0.749984	0.346563
C53	C	0.609454	-0.000015	-0.390716
C54	C	0.859454	0.249985	-0.140716
C55	C	1.109454	0.499985	0.109284
C56	C	1.359454	0.749985	0.359284
C57	C	0.615562	-0.000012	-0.202445
C58	C	0.865562	0.249988	0.047555
C59	C	1.115562	0.499988	0.297555
C60	C	1.365562	0.749988	0.547555
C61	C	0.724944	-0.000013	-0.215166
C62	C	0.974944	0.249987	0.034834
C63	C	1.224944	0.499987	0.284834
C64	C	1.474944	0.749987	0.534834
C65	C	0.776578	-0.000014	-0.315666
C66	C	1.026578	0.249986	-0.065666
C67	C	1.276578	0.499986	0.184334
C68	C	1.526578	0.749986	0.434334
C69	C	0.885962	-0.000008	-0.328386
C70	C	1.135962	0.249992	-0.078386
C71	C	1.385962	0.499992	0.171614
C72	C	1.635962	0.749992	0.421614
C73	C	0.892067	-0.000012	-0.140116
C74	C	1.142067	0.249988	0.109884
C75	C	1.392067	0.499988	0.359884
C76	C	1.642067	0.749988	0.609884
C77	C	0.782685	-0.000011	-0.127395
C78	C	1.032685	0.249989	0.122605
C79	C	1.282685	0.499989	0.372605
C80	C	1.532685	0.749989	0.622605
N81	N	1.250733	-0.230692	-0.265447
N82	N	1.500733	0.019308	-0.015447
N83	N	1.750733	0.269308	0.234553
N84	N	2.000733	0.519308	0.484553
C85	C	1.183742	-0.470372	-0.332388
C86	C	1.433742	-0.220372	-0.082388
C87	C	1.683742	0.029628	0.167612
C88	C	1.933742	0.279628	0.417612
C89	C	1.280341	-0.529707	-0.362050
C90	C	1.530341	-0.279707	-0.112050
C91	C	1.780341	-0.029707	0.137950
C92	C	2.030341	0.220293	0.387950
C93	C	1.250757	-0.412299	-0.265424
C94	C	1.500757	-0.162299	-0.015424
C95	C	1.750757	0.087701	0.234576
C96	C	2.000757	0.337701	0.484576
C97	C	1.154186	-0.529706	-0.235788
C98	C	1.404186	-0.279706	0.014212
C99	C	1.654186	-0.029706	0.264212
C100	C	1.904186	0.220294	0.514212
C101	C	1.250772	-0.587723	-0.265403
C102	C	1.500772	-0.337723	-0.015403
C103	C	1.750772	-0.087723	0.234597
C104	C	2.000772	0.162277	0.484597
C105	C	1.347409	-0.470328	-0.295137
C106	C	1.597409	-0.220328	-0.045137
C107	C	1.847409	0.029672	0.204863
C108	C	2.097409	0.279672	0.454863
C109	C	1.221187	-0.470321	-0.168829
C110	C	1.471187	-0.220321	0.081171
C111	C	1.721187	0.029679	0.331171
C112	C	1.971187	0.279679	0.581171
C113	C	1.317851	-0.529630	-0.198457
C114	C	1.567851	-0.279630	0.051543
C115	C	1.817851	-0.029630	0.301543
C116	C	2.067851	0.220370	0.551543
C117	C	1.250747	-0.311242	-0.265439
C118	C	1.500747	-0.061242	-0.015439
C119	C	1.750747	0.188758	0.234561
C120	C	2.000747	0.438758	0.484561
C121	C	1.250793	-0.688778	-0.265388
C122	C	1.500793	-0.438778	-0.015388
C123	C	1.750793	-0.188778	0.234612
C124	C	2.000793	0.061222	0.484612
C125	C	1.441398	-0.000015	-0.276679
C126	C	1.691398	0.249985	-0.026679
C127	C	1.941398	0.499985	0.223321
C128	C	2.191398	0.749985	0.473321
C129	C	1.557813	-0.000011	-0.290223
C130	C	1.807813	0.249989	-0.040223
C131	C	2.057813	0.499989	0.209777
C132	C	2.307813	0.749989	0.459777
N133	N	1.250798	0.230664	-0.265376
N134	N	1.500798	0.480664	-0.015376
N135	N	1.750798	0.730664	0.234624
N136	N	2.000798	0.980664	0.484624
C137	C	1.239499	-0.000019	-0.074780
C138	C	1.489499	0.249981	0.175220
C139	C	1.739499	0.499981	0.425220
C140	C	1.989499	0.749981	0.675220
C141	C	1.225954	-0.000017	0.041635
C142	C	1.475954	0.249983	0.291635
C143	C	1.725954	0.499983	0.541635
C144	C	1.975954	0.749983	0.791635
C145	C	1.262025	-0.000007	-0.456052
C146	C	1.512025	0.249993	-0.206052
C147	C	1.762025	0.499993	0.043948
C148	C	2.012025	0.749993	0.293948
C149	C	1.275569	-0.000003	-0.572467
C150	C	1.525569	0.249997	-0.322467
C151	C	1.775569	0.499997	-0.072467
C152	C	2.025569	0.749997	0.177533
C153	C	1.388784	-0.000001	0.266510
C154	C	1.638784	0.249999	0.516510
C155	C	1.888784	0.499999	0.766510
C156	C	2.138784	0.749999	1.016510
C157	C	1.376062	0.000000	0.375892
C158	C	1.626062	0.250000	0.625892
C159	C	1.876062	0.500000	0.875892
C160	C	2.126062	0.750000	1.125892
C161	C	1.187791	-0.000006	0.369785
C162	C	1.437791	0.249994	0.619785
C163	C	1.687791	0.499994	0.869785
C164	C	1.937791	0.749994	1.119785
C165	C	1.200513	-0.000007	0.260402
C166	C	1.450513	0.249993	0.510402
C167	C	1.700513	0.499993	0.760402
C168	C	1.950513	0.749993	1.010402
C169	C	1.301012	-0.000007	0.208769
C170	C	1.551012	0.249993	0.458769
C171	C	1.801012	0.499993	0.708769
C172	C	2.051012	0.749993	0.958769
C173	C	1.313732	-0.000015	0.099384
C174	C	1.563732	0.249985	0.349384
C175	C	1.813732	0.499985	0.599384
C176	C	2.063732	0.749985	0.849384
C177	C	1.125462	-0.000014	0.093279
C178	C	1.375462	0.249986	0.343279
C179	C	1.625462	0.499986	0.593279
C180	C	1.875462	0.749986	0.843279
C181	C	1.112741	-0.000013	0.202661
C182	C	1.362741	0.249987	0.452661
C183	C	1.612741	0.499987	0.702661
C184	C	1.862741	0.749987	0.952661
H185	H	0.573502	-0.000085	-0.120623
H186	H	0.823502	0.249915	0.129377
H187	H	1.073502	0.499915	0.379377
H188	H	1.323502	0.749915	0.629377
H189	H	0.562446	-0.000019	-0.462189
H190	H	0.812446	0.249981	-0.212189
H191	H	1.062446	0.499981	0.037811
H192	H	1.312446	0.749981	0.287811
H193	H	0.760878	-0.000015	-0.485268
H194	H	1.010878	0.249985	-0.235268
H195	H	1.260878	0.499985	0.014732
H196	H	1.510878	0.749985	0.264732
Br197	Br	1.495186	0.000013	0.454253
Br198	Br	1.745186	0.250013	0.704253
Br199	Br	1.995186	0.500013	0.954253
Br200	Br	2.245186	0.750013	1.204253
H201	H	1.127138	-0.444353	-0.389074
H202	H	1.377138	-0.194353	-0.139074
H203	H	1.627138	0.055647	0.110926
H204	H	1.877138	0.305647	0.360926
H205	H	0.740630	-0.000021	-0.045571
H206	H	0.990630	0.249979	0.204429
H207	H	1.240630	0.499979	0.454429
H208	H	1.490630	0.749979	0.704429
Br209	Br	0.976356	-0.000002	0.272745
Br210	Br	1.226356	0.249998	0.522745
Br211	Br	1.476356	0.499998	0.772745
Br212	Br	1.726356	0.749998	1.022745
H213	H	1.053992	-0.000026	0.046254
H214	H	1.303992	0.249974	0.296254
H215	H	1.553992	0.499974	0.546254
H216	H	1.803992	0.749974	0.796254
Br217	Br	0.970436	0.000010	-0.020989
Br218	Br	1.220436	0.250010	0.229011
Br219	Br	1.470436	0.500010	0.479011
Br220	Br	1.720436	0.750010	0.729011
H221	H	1.374599	-0.555485	-0.141822
H222	H	1.624599	-0.305485	0.108178
H223	H	1.874599	-0.055485	0.358178
H224	H	2.124599	0.194515	0.608178
H225	H	1.105969	0.000003	0.411844
H226	H	1.355969	0.250003	0.661844
H227	H	1.605969	0.500003	0.911844
H228	H	1.855969	0.750003	1.161844
H229	H	0.928000	-0.000010	-0.410218
H230	H	1.178000	0.249990	-0.160218
H231	H	1.428000	0.499990	0.089782
H232	H	1.678000	0.749990	0.339782
H233	H	1.429111	-0.444356	-0.320291
H234	H	1.679111	-0.194356	-0.070291
H235	H	1.929111	0.055644	0.179709
H236	H	2.179111	0.305644	0.429709
H237	H	1.395564	-0.000017	0.057346
H238	H	1.645564	0.249983	0.307346
H239	H	1.895564	0.499983	0.557346
H240	H	2.145564	0.749983	0.807346
H241	H	1.305365	-0.555792	-0.443730
H242	H	1.555365	-0.305792	-0.193730
H243	H	1.805365	-0.055792	0.056270
H244	H	2.055365	0.194208	0.306270
Br245	Br	1.018058	-0.573183	-0.194026
Br246	Br	1.268058	-0.323183	0.055974
Br247	Br	1.518058	-0.073183	0.305974
Br248	Br	1.768058	0.176817	0.555974
Br249	Br	1.179436	-0.426807	-0.032725
Br250	Br	1.429436	-0.176807	0.217275
Br251	Br	1.679436	0.073193	0.467275
Br252	Br	1.929436	0.323193	0.717275
H253	H	1.470614	-0.000009	0.224469
H254	H	1.720614	0.249991	0.474469
H255	H	1.970614	0.499991	0.724469
H256	H	2.220614	0.749991	0.974469
