data_functionalizedCrystal
_audit_creation_method	'MofGen! by Chris Wilmer'
_symmetry_space_group_name_H-M	'P1'
_symmetry_Int_Tables_number	1
_symmetry_cell_setting	triclinic
loop_
_symmetry_equiv_pos_as_xyz
  x,y,z
_cell_length_a	14.853567
_cell_length_b	19.188924
_cell_length_c	13.330367
_cell_angle_alpha	89.993282
_cell_angle_beta	89.995418
_cell_angle_gamma	83.388448
loop_
_atom_site_label
_atom_site_type_symbol
_atom_site_fract_x
_atom_site_fract_y
_atom_site_fract_z
O1	O	1.195859	0.091155	-0.083359
O2	O	1.695859	0.591155	0.416641
O3	O	0.933339	0.102014	-0.083377
O4	O	1.433339	0.602014	0.416623
O5	O	1.072178	-0.005046	-0.083356
O6	O	1.572178	0.494954	0.416644
O7	O	1.057020	0.198216	-0.083380
O8	O	1.557020	0.698216	0.416620
O9	O	1.072158	-0.005048	0.083492
O10	O	1.572158	0.494952	0.583492
O11	O	0.933319	0.102012	0.083470
O12	O	1.433319	0.602012	0.583470
O13	O	1.195839	0.091153	0.083488
O14	O	1.695839	0.591153	0.583488
Cu15	Cu	1.064577	0.096582	0.098714
Cu16	Cu	1.564577	0.596582	0.598714
Cu17	Cu	1.064601	0.096585	-0.098602
Cu18	Cu	1.564601	0.596585	0.401398
O19	O	1.057000	0.198213	0.083467
O20	O	1.557000	0.698213	0.583467
C21	C	0.899743	0.101521	0.000045
C22	C	1.399743	0.601521	0.500045
C23	C	0.799667	0.100047	0.000038
C24	C	1.299667	0.600047	0.500038
C25	C	0.387524	0.030218	0.000069
C26	C	0.887524	0.530218	0.500069
C27	C	0.365532	0.157408	0.000053
C28	C	0.865532	0.657408	0.500053
C29	C	0.459558	0.158794	0.000049
C30	C	0.959558	0.658794	0.500049
C31	C	0.517571	0.095891	0.000054
C32	C	1.017571	0.595891	0.500054
C33	C	0.481559	0.031602	0.000063
C34	C	0.981559	0.531602	0.500063
C35	C	0.495577	0.223082	0.000031
C36	C	0.995577	0.723082	0.500031
C37	C	0.589609	0.224471	0.000026
C38	C	1.089609	0.724471	0.500026
C39	C	0.647624	0.161567	0.000039
C40	C	1.147624	0.661567	0.500039
C41	C	0.611606	0.097276	0.000048
C42	C	1.111606	0.597276	0.500048
C43	C	0.669620	0.034373	0.000053
C44	C	1.169620	0.534373	0.500053
C45	C	0.633604	-0.029919	0.000070
C46	C	1.133604	0.470081	0.500070
C47	C	0.539575	-0.031301	0.000075
C48	C	1.039575	0.468699	0.500075
C49	C	0.741654	0.162949	0.000033
C50	C	1.241654	0.662949	0.500033
C51	C	0.763655	0.035758	0.000047
C52	C	1.263655	0.535758	0.500047
C53	C	1.071678	-0.031060	0.000069
C54	C	1.571678	0.468940	0.500069
C55	C	1.070208	-0.108570	0.000071
C56	C	1.570208	0.391430	0.500071
C57	C	1.069532	-0.144969	-0.090877
C58	C	1.569532	0.355031	0.409123
C59	C	1.068138	-0.217797	-0.090885
C60	C	1.568138	0.282203	0.409115
C61	C	1.067437	-0.254223	0.000061
C62	C	1.567437	0.245777	0.500061
C63	C	1.068107	-0.217814	0.091022
C64	C	1.568107	0.282186	0.591022
C65	C	1.069493	-0.144987	0.091027
C66	C	1.569493	0.355013	0.591027
N67	N	1.116557	-0.373724	0.067754
N68	N	1.616557	0.126276	0.567754
N69	N	1.115243	-0.442906	0.067743
N70	N	1.615243	0.057094	0.567743
C71	C	1.063261	-0.473646	0.000051
C72	C	1.563261	0.026354	0.500051
N73	N	1.012654	-0.432591	-0.067644
N74	N	1.512654	0.067409	0.432356
N75	N	1.013973	-0.363403	-0.067636
N76	N	1.513973	0.136597	0.432364
C77	C	1.065934	-0.333192	0.000066
C78	C	1.565934	0.166808	0.500066
C79	C	1.061073	-0.589014	-0.090912
C80	C	1.561073	-0.089014	0.409088
C81	C	1.059672	-0.661842	-0.090916
C82	C	1.559672	-0.161842	0.409084
C83	C	1.059651	-0.661859	0.090993
C84	C	1.559651	-0.161859	0.590993
C85	C	1.061042	-0.589031	0.090995
C86	C	1.561042	-0.089031	0.590995
C87	C	1.061757	-0.552613	0.000039
C88	C	1.561757	-0.052613	0.500039
C89	C	1.229435	0.091646	0.000064
C90	C	1.729435	0.591646	0.500064
C91	C	1.329510	0.093121	0.000064
C92	C	1.829510	0.593121	0.500064
C93	C	1.057500	0.224227	0.000040
C94	C	1.557500	0.724227	0.500040
C95	C	1.058970	0.301737	0.000031
C96	C	1.558970	0.801737	0.500031
N97	N	1.064567	0.096580	0.237495
N98	N	1.564567	0.596580	0.737495
N99	N	1.064618	0.096582	-0.237384
N100	N	1.564618	0.596582	0.262616
C101	C	1.003120	0.143973	0.710109
C102	C	1.503120	0.643973	1.210109
C103	C	1.126106	0.049192	0.710095
C104	C	1.626106	0.549192	1.210095
C105	C	1.126095	0.049190	0.605077
C106	C	1.626095	0.549190	1.105077
C107	C	1.064598	0.096580	0.552570
C108	C	1.564598	0.596580	1.052570
C109	C	1.003110	0.143973	0.605081
C110	C	1.503110	0.643973	1.105081
C111	C	1.187588	0.001803	0.552558
C112	C	1.687588	0.501803	1.052558
C113	C	1.187581	0.001799	0.447534
C114	C	1.687581	0.501799	0.947534
C115	C	1.126078	0.049187	0.395024
C116	C	1.626078	0.549187	0.895024
C117	C	1.064587	0.096581	0.447542
C118	C	1.564587	0.596581	0.947542
C119	C	1.003090	0.143972	0.395034
C120	C	1.503090	0.643972	0.895034
C121	C	0.941594	0.191363	0.447550
C122	C	1.441594	0.691363	0.947550
C123	C	0.941607	0.191361	0.552571
C124	C	1.441607	0.691361	1.052571
C125	C	1.126065	0.049189	0.290003
C126	C	1.626065	0.549189	0.790003
C127	C	1.003079	0.143973	0.290006
C128	C	1.503079	0.643973	0.790006
H129	H	0.618924	0.276822	0.000013
H130	H	1.118924	0.776822	0.500013
H131	H	1.059073	-0.691516	0.165044
H132	H	1.559073	-0.191516	0.665044
N133	N	1.192364	-0.001935	0.233364
N134	N	1.692364	0.498065	0.733364
H135	H	1.183020	0.005249	0.158865
H136	H	1.683020	0.505249	0.658865
H137	H	1.256292	0.006211	0.251692
H138	H	1.756292	0.506211	0.751692
N139	N	0.432998	0.290917	-0.000007
N140	N	0.932998	0.790917	0.499993
H141	H	0.444555	0.318946	-0.061877
H142	H	0.944555	0.818946	0.438123
H143	H	0.367998	0.280213	0.000031
H144	H	0.867998	0.780213	0.500031
H145	H	0.770974	0.215295	0.000021
H146	H	1.270974	0.715295	0.500021
H147	H	1.067534	-0.247477	0.165071
H148	H	1.567534	0.252523	0.665071
N149	N	0.875284	0.242472	0.609211
N150	N	1.375284	0.742472	1.109211
H151	H	0.884627	0.235281	0.683709
H152	H	1.384627	0.735281	1.183709
H153	H	0.885495	0.292019	0.590842
H154	H	1.385495	0.792019	1.090842
H155	H	1.070112	-0.115322	-0.164940
H156	H	1.570112	0.384678	0.335060
H157	H	0.953049	0.182556	0.752869
H158	H	1.453049	0.682556	1.252869
N159	N	1.070236	-0.105721	0.189123
N160	N	1.570236	0.394279	0.689123
H161	H	1.014940	-0.069896	0.193177
H162	H	1.514940	0.430104	0.693177
H163	H	1.069613	-0.139891	0.246683
H164	H	1.569613	0.360109	0.746683
N165	N	1.067403	-0.257068	-0.188983
N166	N	1.567403	0.242932	0.311017
H167	H	1.068063	-0.222946	-0.246600
H168	H	1.568063	0.277054	0.253400
H169	H	1.122704	-0.292892	-0.192936
H170	H	1.622704	0.207108	0.307064
N171	N	1.192440	-0.001914	0.766722
N172	N	1.692440	0.498086	1.266722
H173	H	1.183118	0.005278	0.841222
H174	H	1.683118	0.505278	1.341222
H175	H	1.182225	-0.051462	0.748381
H176	H	1.682225	0.448538	1.248381
H177	H	1.061599	-0.559395	0.165055
H178	H	1.561599	-0.059395	0.665055
H179	H	1.061650	-0.559360	-0.164973
H180	H	1.561650	-0.059360	0.335027
N181	N	1.253921	-0.049303	0.609187
N182	N	1.753921	0.450697	1.109187
H183	H	1.244593	-0.042113	0.683686
H184	H	1.744593	0.457887	1.183686
H185	H	1.243712	-0.098850	0.590841
H186	H	1.743712	0.401150	1.090841
H187	H	1.237653	-0.036790	0.404782
H188	H	1.737653	0.463210	0.904782
N189	N	0.875270	0.242480	0.390913
N190	N	1.375270	0.742480	0.890913
H191	H	0.884602	0.235288	0.316415
H192	H	1.384602	0.735288	0.816415
H193	H	0.811350	0.234322	0.409275
H194	H	1.311350	0.734322	0.909275
H195	H	0.680851	-0.081134	0.000067
H196	H	1.180851	0.418866	0.500067
N197	N	0.826222	-0.032090	0.000045
N198	N	1.326222	0.467910	0.500045
H199	H	0.891255	-0.021460	0.000036
H200	H	1.391255	0.478540	0.500036
H201	H	0.814590	-0.060102	0.061904
H202	H	1.314590	0.439898	0.561904
N203	N	0.500719	-0.100635	0.000095
N204	N	1.000719	0.399365	0.500095
H205	H	0.462198	-0.104042	-0.061753
H206	H	0.962198	0.395958	0.438247
H207	H	0.551781	-0.140238	0.000141
H208	H	1.051781	0.359762	0.500141
H209	H	1.059118	-0.691477	-0.164980
H210	H	1.559118	-0.191477	0.335020
H211	H	0.358196	-0.022127	0.000087
H212	H	0.858196	0.477873	0.500087
N213	N	0.936745	0.195091	0.233385
N214	N	1.436745	0.695091	0.733385
H215	H	0.971062	0.226058	0.189802
H216	H	1.471062	0.726058	0.689802
H217	H	0.896950	0.168304	0.189880
H218	H	1.396950	0.668304	0.689880
N219	N	0.302966	0.225250	0.000037
N220	N	0.802966	0.725250	0.500037
H221	H	0.237934	0.214618	0.000039
H222	H	0.737934	0.714618	0.500039
H223	H	0.314594	0.253262	0.061886
H224	H	0.814594	0.753262	0.561886
