data_functionalizedCrystal
_audit_creation_method	'MofGen! by Chris Wilmer'
_symmetry_space_group_name_H-M	'P1'
_symmetry_Int_Tables_number	1
_symmetry_cell_setting	triclinic
loop_
_symmetry_equiv_pos_as_xyz
  x,y,z
_cell_length_a	10.654541
_cell_length_b	17.038272
_cell_length_c	9.130307
_cell_angle_alpha	89.996293
_cell_angle_beta	89.999822
_cell_angle_gamma	87.797742
loop_
_atom_site_label
_atom_site_type_symbol
_atom_site_fract_x
_atom_site_fract_y
_atom_site_fract_z
O1	O	1.678040	0.109868	-0.121756
O2	O	1.313534	0.120338	-0.121769
O3	O	1.493621	0.001275	-0.121751
O4	O	1.497953	0.228930	-0.121774
O5	O	1.493614	0.001274	0.121848
O6	O	1.313527	0.120337	0.121830
O7	O	1.678034	0.109867	0.121843
Cu8	Cu	1.495780	0.115102	0.144079
Cu9	Cu	1.495788	0.115103	-0.144005
O10	O	1.497947	0.228929	0.121825
C11	C	1.266661	0.119569	0.000029
C12	C	1.127004	0.117270	0.000024
C13	C	1.112253	0.259642	-0.000008
C14	C	1.039268	0.329744	-0.000031
C15	C	0.908049	0.327580	-0.000032
C16	C	0.849813	0.255304	-0.000006
C17	C	0.922798	0.185202	0.000016
C18	C	1.054019	0.187374	0.000013
C19	C	0.937548	0.042832	0.000059
C20	C	1.068768	0.044995	0.000050
C21	C	0.879312	-0.029443	0.000084
C22	C	0.952297	-0.099548	0.000096
C23	C	1.083524	-0.097380	0.000096
C24	C	1.141753	-0.025108	0.000072
C25	C	1.489677	-0.027875	0.000048
C26	C	1.477920	-0.114734	0.000047
C27	C	1.585864	-0.164246	0.000053
C28	C	1.574809	-0.245858	0.000038
C29	C	1.455809	-0.277957	0.000029
C30	C	1.347857	-0.228439	0.000019
C31	C	1.358913	-0.146828	0.000023
C32	C	1.416751	-0.523933	0.000008
C33	C	1.405704	-0.605550	0.000008
C34	C	1.632657	-0.622963	0.000025
C35	C	1.643703	-0.541350	0.000037
C36	C	1.535750	-0.491839	0.000020
C37	C	1.444507	-0.361377	0.000019
C38	C	1.547054	-0.408420	0.000019
C39	C	1.724907	0.110635	0.000042
C40	C	1.864564	0.112934	0.000037
C41	C	1.501891	0.258080	0.000022
C42	C	1.513648	0.344939	0.000014
N43	N	1.495784	0.115100	0.346702
N44	N	1.495793	0.115098	-0.346628
C45	C	1.655324	0.009701	0.346708
C46	C	1.735102	-0.042996	0.423377
C47	C	1.735114	-0.042997	0.576711
C48	C	1.655337	0.009704	0.653378
C49	C	1.575559	0.062402	0.576708
C50	C	1.575558	0.062398	0.423371
C51	C	1.416015	0.167796	0.576702
C52	C	1.416007	0.167801	0.423369
C53	C	1.336238	0.220496	0.653370
C54	C	1.256464	0.273199	0.576700
C55	C	1.256456	0.273198	0.423357
C56	C	1.336228	0.220498	0.346699
H57	H	0.848624	0.384663	-0.000040
F58	F	1.712521	-0.130092	0.000077
F59	F	1.317861	-0.395547	0.000003
F60	F	1.301857	-0.471250	-0.000015
F61	F	1.161191	-0.171994	0.000130
F62	F	1.819999	-0.099084	0.341776
F63	F	0.739657	-0.031746	0.000091
H64	H	1.655332	0.009703	0.221856
F65	F	1.747539	-0.675662	0.000041
F66	F	1.820017	-0.099086	0.658309
F67	F	1.281407	-0.022794	0.000063
F68	F	1.689700	-0.298549	0.000047
F69	F	1.655338	0.009693	0.816570
F70	F	1.244023	-0.094134	0.000013
H71	H	1.740605	-0.515222	0.000045
F72	F	1.279042	-0.639709	0.000006
F73	F	1.336244	0.220492	0.816561
F74	F	1.171561	0.329276	0.658300
H75	H	1.191485	0.316107	0.360941
H76	H	0.904870	-0.158388	0.000115
F77	F	1.251908	0.261952	-0.000031
F78	F	1.101256	0.406661	-0.000058
F79	F	0.710157	0.253004	0.000015
H80	H	1.250964	-0.254580	0.000003
F81	F	1.336232	0.220495	0.183508
H82	H	1.643943	-0.382282	-0.000006
