data_functionalizedCrystal
_audit_creation_method	'MofGen! by Chris Wilmer'
_symmetry_space_group_name_H-M	'P1'
_symmetry_Int_Tables_number	1
_symmetry_cell_setting	triclinic
loop_
_symmetry_equiv_pos_as_xyz
  x,y,z
_cell_length_a	14.908571
_cell_length_b	13.897448
_cell_length_c	14.908694
_cell_angle_alpha	93.268807
_cell_angle_beta	83.592472
_cell_angle_gamma	86.713891
loop_
_atom_site_label
_atom_site_type_symbol
_atom_site_fract_x
_atom_site_fract_y
_atom_site_fract_z
Zn1	Zn	1.413363	-0.507824	-0.591509
Zn2	Zn	1.404538	-0.659258	-0.440145
Zn3	Zn	1.253264	-0.488095	-0.431444
Zn4	Zn	1.261970	-0.659183	-0.582743
O5	O	1.333284	-0.578590	-0.511460
O6	O	1.538860	-0.536201	-0.578740
O7	O	1.377134	-0.628328	-0.312325
O8	O	1.274552	-0.355735	-0.452705
O9	O	1.532376	-0.647459	-0.467533
O10	O	1.392176	-0.370230	-0.570304
O11	O	1.265994	-0.502574	-0.305933
O12	O	1.127752	-0.502502	-0.444205
O13	O	1.289389	-0.647331	-0.710571
O14	O	1.134148	-0.628200	-0.555363
O15	O	1.400617	-0.536128	-0.717012
O16	O	1.385576	-0.794225	-0.459033
O17	O	1.280831	-0.794170	-0.563799
C18	C	1.098106	-0.563203	-0.497889
C19	C	0.997498	-0.556644	-0.492105
C20	C	1.333216	-0.829199	-0.511430
C21	C	1.333272	-0.936417	-0.511452
C22	C	0.815142	-0.675391	-0.596829
C23	C	0.720612	-0.669232	-0.591397
C24	C	0.713904	-0.538164	-0.475814
C25	C	0.808435	-0.544323	-0.481246
C26	C	0.859051	-0.612940	-0.541755
C27	C	0.953583	-0.619102	-0.547181
C28	C	0.946874	-0.488030	-0.431604
C29	C	0.852343	-0.481871	-0.426172
C30	C	1.333370	-1.132722	-0.511515
C31	C	1.333313	-1.023484	-0.511483
C32	C	1.569380	-0.594039	-0.525085
C33	C	1.669989	-0.600622	-0.530891
C34	C	1.346959	-0.593922	-0.747553
C35	C	1.352786	-0.600455	-0.848161
C36	C	1.333377	-0.327006	-0.511512
C37	C	1.333417	-0.219796	-0.511533
C38	C	1.247985	-0.481787	-1.030560
C39	C	1.253457	-0.487922	-1.125091
C40	C	1.369197	-0.618865	-1.131755
C41	C	1.363725	-0.612730	-1.037224
C42	C	1.303118	-0.544188	-0.986630
C43	C	1.297651	-0.538048	-0.892098
C44	C	1.413386	-0.668995	-0.898763
C45	C	1.418858	-0.675131	-0.993294
C46	C	1.319714	-0.563252	-0.276289
C47	C	1.314062	-0.556458	-0.175691
H48	H	0.994793	-0.674975	-0.596449
O49	O	0.994223	-0.420675	-0.372179
H50	H	0.976998	-0.344825	-0.386763
H51	H	0.856355	-0.731267	-0.646092
H52	H	1.208562	-0.437109	-1.160854
H53	H	1.458282	-0.719804	-0.862986
H54	H	1.468200	-0.730939	-1.034500
O55	O	0.673244	-0.736669	-0.650717
H56	H	0.724324	-0.785447	-0.693670
O57	O	0.797758	-0.407865	-0.360906
H58	H	0.811781	-0.420870	-0.290887
H59	H	1.198644	-0.425969	-0.989366
O60	O	0.659283	-0.464192	-0.410540
H61	H	0.618564	-0.415016	-0.448643
H62	H	1.418528	-0.674682	-1.172964
O63	O	1.232288	-0.464123	-0.837522
H64	H	1.194865	-0.421769	-0.883955
