data_functionalizedCrystal
_audit_creation_method	'MofGen! by Chris Wilmer'
_symmetry_space_group_name_H-M	'P1'
_symmetry_Int_Tables_number	1
_symmetry_cell_setting	triclinic
loop_
_symmetry_equiv_pos_as_xyz
  x,y,z
_cell_length_a	10.967926
_cell_length_b	17.019294
_cell_length_c	9.482900
_cell_angle_alpha	95.509088
_cell_angle_beta	92.549900
_cell_angle_gamma	84.884424
loop_
_atom_site_label
_atom_site_type_symbol
_atom_site_fract_x
_atom_site_fract_y
_atom_site_fract_z
O1	O	1.612635	0.137563	0.265904
O2	O	1.263452	0.139272	0.178206
O3	O	1.445591	0.025267	0.238118
O4	O	1.430495	0.251569	0.205992
O5	O	1.408597	0.048521	0.467729
O6	O	1.226457	0.162527	0.407817
O7	O	1.575640	0.160818	0.495515
Cu8	Cu	1.397671	0.163796	0.472631
Cu9	Cu	1.441421	0.136294	0.201090
O10	O	1.393500	0.274823	0.435603
C11	C	1.200234	0.149018	0.282043
C12	C	1.066981	0.143402	0.249360
C13	C	0.988409	0.152945	0.353735
C14	C	0.850685	0.147142	0.319959
C15	C	1.425792	0.007836	0.356234
C16	C	1.421898	-0.078748	0.366094
C17	C	1.440238	-0.132097	0.245566
C18	C	1.436571	-0.213451	0.254833
C19	C	1.414573	-0.241455	0.384631
C20	C	1.396229	-0.188100	0.505166
C21	C	1.399887	-0.106747	0.495896
C22	C	1.402510	-0.486454	0.418880
C23	C	1.398856	-0.567814	0.428143
C24	C	1.439196	-0.593160	0.177808
C25	C	1.442860	-0.511805	0.168551
C26	C	1.424510	-0.458456	0.289085
C27	C	1.410828	-0.324612	0.394107
C28	C	1.428246	-0.375300	0.279605
C29	C	1.638858	0.151072	0.391676
C30	C	1.772113	0.156686	0.424349
C31	C	1.413300	0.292254	0.317484
C32	C	1.417196	0.378837	0.307615
N33	N	1.366907	0.183138	0.663622
N34	N	1.472194	0.116946	0.010103
C35	C	1.432339	0.141995	0.757367
C36	C	1.406753	0.158095	0.916358
H37	H	0.815999	0.134672	0.205588
C38	C	1.466482	-0.481235	0.027691
C39	C	1.465657	-0.398565	0.045344
C40	C	1.487299	-0.370370	-0.084415
H41	H	1.404241	-0.495936	-0.040091
H42	H	1.543982	-0.503478	-0.004513
H43	H	1.388168	-0.376329	0.077528
H44	H	1.527896	-0.383842	0.113101
H45	H	1.564798	-0.392613	-0.116619
H46	H	1.425055	-0.385076	-0.152187
H47	H	1.486753	-0.314277	-0.072452
H48	H	1.387591	-0.443028	0.517034
H49	H	1.291942	0.230279	0.701065
H50	H	1.384936	-0.063309	0.594038
H51	H	1.378310	-0.210906	0.610848
H52	H	1.454134	-0.636605	0.079676
H53	H	1.446148	-0.352495	0.173922
H54	H	1.023101	0.165408	0.468100
C55	C	0.818579	0.173341	0.576758
C56	C	0.945938	0.175811	0.579961
C57	C	0.988784	0.191160	0.720330
H58	H	0.798299	0.132583	0.631075
H59	H	0.781544	0.222848	0.615481
H60	H	0.982961	0.126310	0.541257
H61	H	0.966251	0.216569	0.525673
H62	H	0.951748	0.240667	0.759053
H63	H	0.968495	0.150400	0.774635
H64	H	1.075198	0.192845	0.722520
C65	C	1.374815	-0.598330	0.568933
C66	C	1.268541	-0.638719	0.555047
C67	C	1.246381	-0.666855	0.684699
H68	H	1.364329	-0.554987	0.639515
H69	H	1.442360	-0.633377	0.595707
H70	H	1.201012	-0.603674	0.528291
H71	H	1.278999	-0.682072	0.484490
H72	H	1.313926	-0.701902	0.711474
H73	H	1.235900	-0.623508	0.755271
H74	H	1.174279	-0.694268	0.675292
H75	H	1.392921	-0.347422	0.499790
C76	C	1.572218	0.054119	0.960220
C77	C	1.684952	0.073606	1.022730
C78	C	1.777071	0.015735	0.976737
H79	H	1.576164	0.051660	0.860014
H80	H	1.554297	0.004101	0.986851
H81	H	1.702869	0.123610	0.996090
H82	H	1.681047	0.076059	1.122934
H83	H	1.759150	-0.034283	1.003368
H84	H	1.781005	0.013280	0.876531
H85	H	1.853569	0.028945	1.019153
C86	C	1.020884	0.126898	0.096777
C87	C	1.051136	0.187106	0.017235
C88	C	1.008709	0.171924	-0.123337
H89	H	0.934470	0.125226	0.094138
H90	H	1.058019	0.077431	0.058006
H91	H	1.013997	0.236561	0.055996
H92	H	1.137543	0.188788	0.019833
H93	H	1.045844	0.122457	-0.162108
H94	H	0.922297	0.170252	-0.125961
H95	H	1.029239	0.212768	-0.177326
H96	H	1.458157	-0.109304	0.139873
C97	C	1.532149	0.079025	0.707470
C98	C	1.505414	0.005406	0.746845
C99	C	1.597327	-0.052617	0.700875
H100	H	1.608731	0.092097	0.749797
H101	H	1.536035	0.076523	0.607236
H102	H	1.501541	0.007909	0.847059
H103	H	1.428848	-0.007690	0.704521
H104	H	1.601213	-0.055118	0.600641
H105	H	1.673904	-0.039538	0.743206
H106	H	1.579194	-0.102575	0.727573
C107	C	1.306879	0.221067	0.966085
C108	C	1.333618	0.294666	0.926618
C109	C	1.241636	0.352690	0.972386
H110	H	1.302877	0.223642	1.066297
H111	H	1.230342	0.207933	0.923665
H112	H	1.410134	0.307797	0.969042
H113	H	1.337609	0.292117	0.826413
H114	H	1.165099	0.339556	0.929967
H115	H	1.237641	0.355258	1.072597
H116	H	1.259759	0.402631	0.945603
H117	H	1.451510	-0.256886	0.156688
