data_functionalizedCrystal
_audit_creation_method	'MofGen! by Chris Wilmer'
_symmetry_space_group_name_H-M	'P1'
_symmetry_Int_Tables_number	1
_symmetry_cell_setting	triclinic
loop_
_symmetry_equiv_pos_as_xyz
  x,y,z
_cell_length_a	21.295418
_cell_length_b	21.295417
_cell_length_c	21.295120
_cell_angle_alpha	89.638316
_cell_angle_beta	89.913853
_cell_angle_gamma	90.046319
loop_
_atom_site_label
_atom_site_type_symbol
_atom_site_fract_x
_atom_site_fract_y
_atom_site_fract_z
Zn1	Zn	0.962621	-0.248301	-0.356246
Zn2	Zn	1.462621	0.251699	0.143754
Zn3	Zn	0.962445	-0.354178	-0.250968
Zn4	Zn	1.462445	0.145822	0.249032
Zn5	Zn	0.857266	-0.248955	-0.250952
Zn6	Zn	1.357266	0.251045	0.249048
Zn7	Zn	0.857314	-0.353566	-0.356168
Zn8	Zn	1.357314	0.146434	0.143832
O9	O	0.909911	-0.301250	-0.303583
O10	O	1.409911	0.198750	0.196417
O11	O	1.050687	-0.262328	-0.342320
O12	O	1.550687	0.237672	0.157680
O13	O	0.948399	-0.340750	-0.162873
O14	O	1.448399	0.159250	0.337127
O15	O	0.871295	-0.160779	-0.264946
O16	O	1.371295	0.339221	0.235054
O17	O	1.050558	-0.340115	-0.264972
O18	O	1.550558	0.159885	0.235028
O19	O	0.948699	-0.160298	-0.342305
O20	O	1.448699	0.339702	0.157695
O21	O	0.871125	-0.263443	-0.162862
O22	O	1.371125	0.236557	0.337138
O23	O	0.769183	-0.262850	-0.264870
O24	O	1.269183	0.237150	0.235130
O25	O	0.871377	-0.339072	-0.444271
O26	O	1.371377	0.160928	0.055729
O27	O	0.769218	-0.339707	-0.342171
O28	O	1.269218	0.160293	0.157829
O29	O	0.948746	-0.261734	-0.444328
O30	O	1.448746	0.238266	0.055672
O31	O	0.948446	-0.442186	-0.264896
O32	O	1.448446	0.057814	0.235104
O33	O	0.871206	-0.441736	-0.342187
O34	O	1.371206	0.058264	0.157813
C35	C	0.909829	-0.464802	-0.303548
C36	C	1.409829	0.035198	0.196452
C37	C	0.909851	-0.534770	-0.303555
C38	C	1.409851	-0.034770	0.196445
C39	C	0.746360	-0.301283	-0.303511
C40	C	1.246360	0.198717	0.196489
C41	C	0.676392	-0.301313	-0.303495
C42	C	1.176392	0.198687	0.196505
C43	C	0.643560	-0.341386	-0.343685
C44	C	1.143560	0.158614	0.156315
C45	C	0.577817	-0.341370	-0.343714
C46	C	1.077817	0.158630	0.156286
C47	C	0.544909	-0.301288	-0.303540
C48	C	1.044909	0.198712	0.196460
C49	C	0.577749	-0.261207	-0.263347
C50	C	1.077749	0.238793	0.236653
C51	C	0.643490	-0.261220	-0.263324
C52	C	1.143490	0.238780	0.236676
N53	N	0.441592	-0.296688	-0.248481
N54	N	0.941592	0.203312	0.251519
N55	N	0.379141	-0.296680	-0.248504
N56	N	0.879141	0.203320	0.251496
C57	C	0.346835	-0.301248	-0.303607
C58	C	0.846835	0.198752	0.196393
N59	N	0.379339	-0.305836	-0.358687
N60	N	0.879339	0.194164	0.141313
N61	N	0.441796	-0.305847	-0.358663
N62	N	0.941796	0.194153	0.141337
C63	C	0.473624	-0.301270	-0.303560
C64	C	0.973624	0.198730	0.196440
C65	C	0.242717	-0.341306	-0.343832
C66	C	0.742717	0.158694	0.156168
C67	C	0.176973	-0.341286	-0.343861
C68	C	0.676973	0.158714	0.156139
C69	C	0.176907	-0.261126	-0.263488
C70	C	0.676907	0.238874	0.236512
C71	C	0.242649	-0.261143	-0.263464
C72	C	0.742649	0.238857	0.236536
C73	C	0.275550	-0.301236	-0.303635
C74	C	0.775550	0.198764	0.196365
C75	C	0.950106	-0.567849	-0.263351
C76	C	1.450106	-0.067849	0.236649
C77	C	0.950135	-0.633592	-0.263365
C78	C	1.450135	-0.133592	0.236635
C79	C	0.909899	-0.666252	-0.303576
C80	C	1.409899	-0.166252	0.196424
C81	C	0.869642	-0.633165	-0.343788
C82	C	1.369642	-0.133165	0.156212
C83	C	0.869618	-0.567423	-0.343777
C84	C	1.369618	-0.067423	0.156223
N85	N	0.854836	-0.769506	-0.308351
N86	N	1.354836	-0.269506	0.191649
N87	N	0.854860	-0.831957	-0.308358
N88	N	1.354860	-0.331957	0.191642
C89	C	0.909970	-0.864327	-0.303612
C90	C	1.409970	-0.364327	0.196388
N91	N	0.965055	-0.831886	-0.298848
N92	N	1.465055	-0.331886	0.201152
N93	N	0.965030	-0.769428	-0.298838
N94	N	1.465030	-0.269428	0.201162
C95	C	0.909921	-0.737537	-0.303593
C96	C	1.409921	-0.237537	0.196407
C97	C	0.950259	-0.968692	-0.263422
C98	C	1.450259	-0.468692	0.236578
C99	C	0.950290	-1.034435	-0.263441
C100	C	1.450290	-0.534435	0.236559
C101	C	0.869791	-1.034007	-0.343860
C102	C	1.369791	-0.534007	0.156140
C103	C	0.869766	-0.968264	-0.343845
C104	C	1.369766	-0.468264	0.156155
C105	C	0.909999	-0.935611	-0.303622
C106	C	1.409999	-0.435611	0.196378
C107	C	1.074102	-0.301217	-0.303656
C108	C	1.574102	0.198783	0.196344
C109	C	1.144070	-0.301202	-0.303688
C110	C	1.644070	0.198798	0.196312
C111	C	0.910086	-0.300262	-0.467779
C112	C	1.410086	0.199738	0.032221
C113	C	0.910160	-0.299841	-0.537750
C114	C	1.410160	0.200159	-0.037750
C115	C	0.910012	-0.137059	-0.303632
C116	C	1.410012	0.362941	0.196368
C117	C	0.910054	-0.067091	-0.303653
C118	C	1.410054	0.432909	0.196347
C119	C	0.909774	-0.302188	-0.140026
C120	C	1.409774	0.197812	0.359974
C121	C	0.909821	-0.302432	-0.070056
C122	C	1.409821	0.197568	0.429944
C123	C	0.949825	-0.261712	-0.037730
C124	C	1.449825	0.238288	0.462270
C125	C	0.949871	-0.261394	0.028011
C126	C	1.449871	0.238606	0.528011
C127	C	0.909903	-0.301789	0.061423
C128	C	1.409903	0.198211	0.561423
C129	C	0.869897	-0.342517	0.029088
C130	C	1.369897	0.157483	0.529088
C131	C	0.869856	-0.342838	-0.036651
C132	C	1.369856	0.157162	0.463349
N133	N	0.854898	-0.306525	0.164815
N134	N	1.354898	0.193475	0.664815
N135	N	0.854938	-0.306216	0.227264
N136	N	1.354938	0.193784	0.727264
C137	C	0.910024	-0.300825	0.259491
C138	C	1.410024	0.199175	0.759491
N139	N	0.965069	-0.295742	0.226910
N140	N	1.465069	0.204258	0.726910
N141	N	0.965028	-0.296048	0.164454
N142	N	1.465028	0.203952	0.664454
C143	C	0.909943	-0.301446	0.132706
C144	C	1.409943	0.198554	0.632706
C145	C	0.950081	-0.259758	0.363101
C146	C	1.450081	0.240242	0.863101
C147	C	0.950128	-0.259445	0.428843
C148	C	1.450128	0.240555	0.928843
C149	C	0.870148	-0.340564	0.429919
C150	C	1.370148	0.159436	0.929919
C151	C	0.870107	-0.340881	0.364179
C152	C	1.370107	0.159119	0.864179
C153	C	0.910072	-0.300475	0.330774
C154	C	1.410072	0.199525	0.830774
H155	H	0.670344	-0.374032	-0.376397
H156	H	1.170344	0.125968	0.123603
C157	C	0.994050	-0.215317	0.326354
C158	C	1.494050	0.284683	0.826354
N159	N	1.027169	-0.181845	0.298677
N160	N	1.527169	0.318155	0.798677
H161	H	0.150243	-0.373917	-0.376593
H162	H	0.650243	0.126083	0.123407
C163	C	0.994417	-0.669987	-0.219133
C164	C	1.494417	-0.169987	0.280867
N165	N	1.027768	-0.697397	-0.185815
N166	N	1.527768	-0.197397	0.314185
C167	C	0.825380	-0.669092	-0.388018
C168	C	1.325380	-0.169092	0.111982
N169	N	0.792040	-0.696153	-0.421334
N170	N	1.292040	-0.196153	0.078666
H171	H	0.551080	-0.374002	-0.376444
H172	H	1.051080	0.125998	0.123556
C173	C	0.994136	-0.214646	0.464402
C174	C	1.494136	0.285354	0.964402
N175	N	1.027282	-0.180901	0.491185
N176	N	1.527282	0.319099	0.991185
C177	C	0.825532	-1.069929	-0.388094
C178	C	1.325532	-0.569929	0.111906
N179	N	0.792195	-1.096989	-0.421414
N180	N	1.292195	-0.596989	0.078586
C181	C	0.825843	-0.387631	-0.072211
C182	C	1.325843	0.112369	0.427789
N183	N	0.792690	-0.421368	-0.098996
N184	N	1.292690	0.078632	0.401004
C185	C	0.993793	-0.217269	-0.074471
C186	C	1.493793	0.282731	0.425529
N187	N	1.026911	-0.183795	-0.102146
N188	N	1.526911	0.316205	0.397854
H189	H	0.836984	-0.941329	-0.376580
H190	H	1.336984	-0.441329	0.123420
H191	H	0.269507	-0.373949	-0.376544
H192	H	0.769507	0.126051	0.123456
H193	H	0.983022	-0.942104	-0.230672
H194	H	1.483022	-0.442104	0.269328
H195	H	0.550951	-0.228571	-0.230638
H196	H	1.050951	0.271429	0.269362
H197	H	0.837608	-0.373457	0.457122
H198	H	1.337608	0.126543	0.957122
H199	H	0.836837	-0.540489	-0.376516
H200	H	1.336837	-0.040489	0.123484
C201	C	0.825930	-0.386950	0.065842
C202	C	1.325930	0.113050	0.565842
N203	N	0.792814	-0.420420	0.093525
N204	N	1.292814	0.079580	0.593525
H205	H	0.150114	-0.228488	-0.230781
H206	H	0.650114	0.271512	0.269219
C207	C	0.993876	-0.216594	0.063577
C208	C	1.493876	0.283406	0.563577
N209	N	1.027020	-0.182850	0.090364
N210	N	1.527020	0.317150	0.590364
C211	C	0.278766	-0.217065	-0.219245
C212	C	0.778766	0.282935	0.280755
N213	N	0.305968	-0.183862	-0.185937
N214	N	0.805968	0.316138	0.314063
C215	C	0.826092	-0.385670	0.328618
C216	C	1.326092	0.114330	0.828618
N217	N	0.792939	-0.419407	0.301834
N218	N	1.292939	0.080593	0.801834
H219	H	0.983074	-1.061367	-0.230703
H220	H	1.483074	-0.561367	0.269297
C221	C	0.994357	-0.531934	-0.219098
C222	C	1.494357	-0.031934	0.280902
N223	N	1.027685	-0.504882	-0.185764
N224	N	1.527685	-0.004882	0.314236
C225	C	0.679607	-0.217138	-0.219106
C226	C	1.179607	0.282862	0.280894
N227	N	0.706810	-0.183936	-0.185798
N228	N	1.206810	0.316064	0.314202
