data_functionalizedCrystal
_audit_creation_method	'MofGen! by Chris Wilmer'
_symmetry_space_group_name_H-M	'P1'
_symmetry_Int_Tables_number	1
_symmetry_cell_setting	triclinic
loop_
_symmetry_equiv_pos_as_xyz
  x,y,z
_cell_length_a	16.992701
_cell_length_b	10.654550
_cell_length_c	15.455313
_cell_angle_alpha	92.692163
_cell_angle_beta	87.136501
_cell_angle_gamma	87.576036
loop_
_atom_site_label
_atom_site_type_symbol
_atom_site_fract_x
_atom_site_fract_y
_atom_site_fract_z
O1	O	1.045249	0.261265	-0.072134
O2	O	0.816948	0.258345	-0.072134
O3	O	0.936347	0.077520	-0.072131
O4	O	0.925850	0.442091	-0.072137
O5	O	0.929519	0.087815	0.072131
O6	O	0.810120	0.268640	0.072128
O7	O	1.038421	0.271560	0.072128
Cu8	Cu	0.923647	0.271040	0.085300
Cu9	Cu	0.931722	0.258865	-0.085306
O10	O	0.919022	0.452386	0.072125
C11	C	0.784301	0.259733	-0.000003
C12	C	0.697196	0.248515	-0.000003
C13	C	0.207826	0.173140	-0.000005
C14	C	0.289670	0.183691	-0.000000
C15	C	0.321859	0.302492	-0.000006
C16	C	0.272200	0.410750	-0.000008
C17	C	0.190358	0.400199	-0.000007
C18	C	0.565694	0.346222	-0.000004
C19	C	0.647543	0.356765	-0.000008
C20	C	0.665007	0.129705	0.000002
C21	C	0.583163	0.119163	-0.000002
C22	C	0.533510	0.227422	-0.000000
N23	N	0.405517	0.313279	-0.000004
N24	N	0.449854	0.216634	0.000004
C25	C	0.932163	0.035803	-0.000001
C26	C	0.929857	-0.103840	-0.000004
C27	C	1.000157	-0.177251	-0.000001
C28	C	0.997986	-0.308460	-0.000007
C29	C	0.855207	-0.292834	-0.000015
C30	C	0.857380	-0.161628	-0.000015
C31	C	1.072634	-0.119464	0.000010
C32	C	1.142940	-0.192876	0.000014
C33	C	1.140769	-0.324084	0.000008
C34	C	1.068291	-0.381881	-0.000002
C35	C	1.071068	0.270172	-0.000005
C36	C	1.158174	0.281390	-0.000010
C37	C	0.923206	0.494103	-0.000007
C38	C	0.925513	0.633745	-0.000010
N39	N	0.917973	0.279603	0.205296
N40	N	0.937402	0.250293	-0.205301
C41	C	0.968716	0.202814	0.250691
C42	C	0.964433	0.209302	0.341499
C43	C	0.909409	0.292587	0.386910
C44	C	0.858661	0.369379	0.341508
C45	C	0.862941	0.362884	0.250702
C46	C	0.890934	0.320590	0.658490
C47	C	0.886659	0.327082	0.749303
C48	C	0.992430	0.167003	0.749288
C49	C	0.996709	0.160520	0.658480
C50	C	0.945958	0.237308	0.613086
N51	N	0.905031	0.299224	0.479730
N52	N	0.950333	0.230664	0.520268
H53	H	0.330094	0.095542	0.000007
C54	C	0.798133	0.460995	0.391454
C55	C	0.793458	0.468214	0.491338
C56	C	0.732931	0.559836	0.541281
C57	C	0.677079	0.644240	0.491342
C58	C	0.681752	0.637024	0.391453
C59	C	0.742279	0.545402	0.341509
H60	H	0.834806	0.405731	0.528311
H61	H	0.729472	0.565177	0.615226
H62	H	0.632273	0.712064	0.528313
H63	H	0.640404	0.699507	0.354480
H64	H	0.745738	0.540061	0.267565
H65	H	0.673747	0.453513	-0.000001
H66	H	0.821620	0.425412	0.213741
C67	C	0.511088	0.465308	-0.000006
C68	C	0.518684	0.555066	-0.074923
C69	C	0.464075	0.674160	-0.074924
C70	C	0.401870	0.703497	-0.000008
C71	C	0.394271	0.613737	0.074914
C72	C	0.448880	0.494642	0.074915
H73	H	0.564734	0.533351	-0.130385
H74	H	0.469700	0.740606	-0.130387
H75	H	0.361445	0.791657	-0.000009
H76	H	0.348221	0.635452	0.130376
H77	H	0.443255	0.428197	0.130378
H78	H	1.201950	-0.145810	0.000000
C79	C	1.057231	0.068903	0.608526
C80	C	1.113051	-0.015575	0.658451
C81	C	1.173575	-0.107188	0.608493
C82	C	1.178278	-0.114323	0.508610
C83	C	1.122456	-0.029842	0.458679
C84	C	1.061933	0.061771	0.508637
H85	H	1.109571	-0.010295	0.732396
H86	H	1.214898	-0.169726	0.645456
H87	H	1.223082	-0.182140	0.471629
H88	H	1.125937	-0.035122	0.384735
H89	H	1.020609	0.124309	0.471674
C90	C	0.826125	0.418699	0.799253
C91	C	0.770302	0.503157	0.749318
C92	C	0.709773	0.594772	0.799266
C93	C	0.705067	0.601927	0.899149
C94	C	0.760893	0.517465	0.949090
C95	C	0.821422	0.425851	0.899142
H96	H	0.773783	0.497863	0.675374
H97	H	0.668447	0.657296	0.762297
H98	H	0.660260	0.669746	0.936124
H99	H	0.757411	0.522760	1.023034
H100	H	0.862747	0.363327	0.936111
H101	H	1.074410	-0.012627	0.000018
H102	H	0.556960	0.022423	0.000003
H103	H	0.800135	-0.101854	-0.000016
H104	H	0.181625	0.076399	-0.000006
H105	H	0.849611	0.383116	0.621538
H106	H	0.705442	0.041567	0.000001
H107	H	0.298415	0.507481	-0.000008
H108	H	0.149931	0.488348	-0.000008
H109	H	1.198016	-0.383854	0.000002
H110	H	1.066530	-0.488722	-0.000016
H111	H	0.796199	-0.339903	-0.000022
H112	H	1.013525	0.135001	0.213724
H113	H	1.005751	0.146774	0.378460
H114	H	1.033749	0.104485	0.786256
