data_functionalizedCrystal
_audit_creation_method	'MofGen! by Chris Wilmer'
_symmetry_space_group_name_H-M	'P1'
_symmetry_Int_Tables_number	1
_symmetry_cell_setting	triclinic
loop_
_symmetry_equiv_pos_as_xyz
  x,y,z
_cell_length_a	11.169417
_cell_length_b	29.839132
_cell_length_c	11.169409
_cell_angle_alpha	89.957666
_cell_angle_beta	90.019824
_cell_angle_gamma	89.953858
loop_
_atom_site_label
_atom_site_type_symbol
_atom_site_fract_x
_atom_site_fract_y
_atom_site_fract_z
Zn1	Zn	1.834671	0.178806	0.678459
Zn2	Zn	2.168004	0.512140	1.011793
Zn3	Zn	2.501338	0.845473	1.345126
Zn4	Zn	1.834438	0.253948	0.477741
Zn5	Zn	2.167771	0.587281	0.811074
Zn6	Zn	2.501105	0.920615	1.144408
Zn7	Zn	1.633957	0.178834	0.477794
Zn8	Zn	1.967290	0.512167	0.811127
Zn9	Zn	2.300624	0.845500	1.144460
Zn10	Zn	1.633842	0.253911	0.678386
Zn11	Zn	1.967176	0.587245	1.011719
Zn12	Zn	2.300509	0.920578	1.345053
O13	O	1.734227	0.216375	0.578095
O14	O	2.067560	0.549708	0.911428
O15	O	2.400894	0.883042	1.244762
O16	O	2.002590	0.188778	0.651842
O17	O	2.335923	0.522111	0.985176
O18	O	2.669257	0.855445	1.318509
O19	O	1.807794	0.244011	0.309798
O20	O	2.141128	0.577344	0.643132
O21	O	2.474461	0.910677	0.976465
O22	O	1.660728	0.115963	0.504465
O23	O	1.994061	0.449296	0.837798
O24	O	2.327394	0.782630	1.171132
O25	O	2.002419	0.243984	0.504376
O26	O	2.335752	0.577317	0.837709
O27	O	2.669085	0.910651	1.171042
O28	O	1.808191	0.115943	0.651893
O29	O	2.141525	0.449276	0.985227
O30	O	2.474858	0.782610	1.318560
O31	O	1.660502	0.188825	0.309837
O32	O	1.993835	0.522158	0.643170
O33	O	2.327168	0.855491	0.976504
O34	O	1.465992	0.188789	0.504394
O35	O	1.799325	0.522123	0.837727
O36	O	2.132659	0.855456	1.171061
O37	O	1.660532	0.243922	0.846346
O38	O	1.993865	0.577255	1.179679
O39	O	2.327199	0.910588	1.513012
O40	O	1.465908	0.243948	0.651768
O41	O	1.799241	0.577282	0.985102
O42	O	2.132574	0.910615	1.318435
O43	O	1.808080	0.188743	0.846399
O44	O	2.141414	0.522076	1.179733
O45	O	2.474747	0.855409	1.513066
O46	O	1.807683	0.316810	0.504304
O47	O	2.141016	0.650144	0.837638
O48	O	2.474350	0.983477	1.170971
O49	O	1.660306	0.316783	0.651717
O50	O	1.993639	0.650117	0.985051
O51	O	2.326973	0.983450	1.318384
C52	C	1.422402	0.216368	0.578080
C53	C	1.755736	0.549701	0.911413
C54	C	2.089069	0.883035	1.244746
C55	C	1.289002	0.216376	0.578101
C56	C	1.622336	0.549709	0.911435
C57	C	1.955669	0.883043	1.244768
C58	C	1.733989	0.333097	0.578023
C59	C	2.067323	0.666431	0.911357
C60	C	2.400656	0.999764	1.244690
C61	C	1.733998	0.383032	0.578033
C62	C	2.067331	0.716365	0.911366
C63	C	2.400664	1.049699	1.244700
C64	C	1.811020	0.692677	0.501400
C65	C	2.144354	1.026010	0.834733
C66	C	2.477687	1.359343	1.168067
C67	C	1.811135	0.880350	0.501427
C68	C	2.144468	1.213683	0.834761
C69	C	2.477802	1.547016	1.168094
O70	O	1.876493	0.904616	0.436250
O71	O	2.209827	1.237949	0.769583
O72	O	2.543160	1.571282	1.102917
N73	N	1.734353	0.903817	0.578115
N74	N	2.067686	1.237150	0.911448
N75	N	2.401019	1.570484	1.244781
C76	C	1.657542	0.880363	0.654806
C77	C	1.990875	1.213696	0.988139
C78	C	2.324209	1.547030	1.321473
O79	O	1.592245	0.904630	0.720043
O80	O	1.925579	1.237963	1.053376
O81	O	2.258912	1.571296	1.386709
C82	C	1.657434	0.692691	0.654784
C83	C	1.990768	1.026024	0.988117
C84	C	2.324101	1.359358	1.321451
C85	C	1.734213	0.669226	0.578083
C86	C	2.067546	1.002559	0.911416
C87	C	2.400880	1.335893	1.244750
C88	C	1.887794	0.669212	0.424706
C89	C	2.221127	1.002545	0.758040
C90	C	2.554460	1.335878	1.091373
C91	C	1.887760	0.622296	0.424696
C92	C	2.221093	0.955630	0.758029
C93	C	2.554426	1.288963	1.091362
C94	C	1.810952	0.598846	0.501379
C95	C	2.144286	0.932179	0.834712
C96	C	2.477619	1.265512	1.168045
C97	C	1.734179	0.622311	0.578072
C98	C	2.067512	0.955644	0.911406
C99	C	2.400846	1.288977	1.244739
C100	C	1.580631	0.669238	0.731481
C101	C	1.913964	1.002571	1.064814
C102	C	2.247297	1.335905	1.398147
C103	C	1.580613	0.622317	0.731470
C104	C	1.913946	0.955650	1.064804
C105	C	2.247279	1.288984	1.398137
C106	C	1.657391	0.598852	0.654770
C107	C	1.990725	0.932185	0.988103
C108	C	2.324058	1.265519	1.321436
C109	C	1.657338	0.551945	0.654745
C110	C	1.990671	0.885278	0.988078
C111	C	2.324004	1.218611	1.321412
N112	N	1.734120	0.528477	0.578058
N113	N	2.067453	0.861811	0.911391
N114	N	2.400787	1.195144	1.244724
C115	C	1.810927	0.551928	0.501375
C116	C	2.144261	0.885261	0.834708
C117	C	2.477594	1.218595	1.168041
C118	C	1.657602	0.978894	0.654810
C119	C	1.990936	1.312227	0.988144
C120	C	2.324269	1.645560	1.321477
C121	C	1.657627	1.025812	0.654815
C122	C	1.990961	1.359145	0.988148
C123	C	2.324294	1.692478	1.321481
C124	C	1.811222	1.025795	0.501437
C125	C	2.144556	1.359128	0.834771
C126	C	2.477889	1.692462	1.168104
C127	C	1.811190	0.978876	0.501428
C128	C	2.144523	1.312209	0.834761
C129	C	2.477857	1.645543	1.168094
C130	C	1.734384	0.955426	0.578123
C131	C	2.067718	1.288760	0.911457
C132	C	2.401051	1.622093	1.244790
C133	C	1.810849	0.453402	0.501357
C134	C	2.144183	0.786735	0.834691
C135	C	2.477516	1.120069	1.168024
C136	C	1.810805	0.406482	0.501350
C137	C	2.144138	0.739816	0.834683
C138	C	2.477472	1.073149	1.168017
C139	C	1.657215	0.406503	0.654731
C140	C	1.990548	0.739837	0.988065
C141	C	2.323882	1.073170	1.321398
C142	C	1.657254	0.453419	0.654735
C143	C	1.990588	0.786752	0.988068
C144	C	2.323921	1.120085	1.321401
C145	C	1.734081	0.476867	0.578044
C146	C	2.067415	0.810200	0.911377
C147	C	2.400748	1.143534	1.244710
O148	O	1.592023	0.527650	0.719897
O149	O	1.925356	0.860983	1.053231
O150	O	2.258690	1.194316	1.386564
O151	O	1.876233	0.527653	0.436167
O152	O	2.209566	0.860986	0.769500
O153	O	2.542900	1.194320	1.102833
C154	C	1.811054	0.739592	0.501411
C155	C	2.144388	1.072925	0.834744
C156	C	2.477721	1.406259	1.168077
C157	C	1.734281	0.763057	0.578104
C158	C	2.067614	1.096390	0.911438
C159	C	2.400948	1.429724	1.244771
C160	C	1.657474	0.739606	0.654787
C161	C	1.990807	1.072940	0.988121
C162	C	2.324140	1.406273	1.321454
C163	C	1.734306	0.809975	0.578109
C164	C	2.067640	1.143308	0.911442
C165	C	2.400973	1.476641	1.244775
C166	C	1.811114	0.833425	0.501426
C167	C	2.144447	1.166759	0.834759
C168	C	2.477780	1.500092	1.168092
C169	C	1.887896	0.809958	0.424738
C170	C	2.221229	1.143291	0.758072
C171	C	2.554563	1.476625	1.091405
C172	C	1.887862	0.763043	0.424728
C173	C	2.221195	1.096376	0.758061
C174	C	2.554529	1.429709	1.091394
C175	C	1.580692	0.763074	0.731475
C176	C	1.914025	1.096407	1.064808
C177	C	2.247358	1.429740	1.398141
C178	C	1.580731	0.809989	0.731478
C179	C	1.914064	1.143322	1.064811
C180	C	2.247398	1.476656	1.398145
C181	C	1.657538	0.833440	0.654795
C182	C	1.990872	1.166773	0.988128
C183	C	2.324205	1.500106	1.321462
C184	C	2.047269	0.216382	0.578111
C185	C	2.380603	0.549715	0.911445
C186	C	2.713936	0.883049	1.244778
C187	C	2.180669	0.216385	0.578118
C188	C	2.514003	0.549718	0.911451
C189	C	2.847336	0.883052	1.244785
C190	C	1.734319	0.216325	0.891138
C191	C	2.067653	0.549658	1.224471
C192	C	2.400986	0.882992	1.557804
C193	C	1.734359	0.216304	1.024538
C194	C	2.067692	0.549637	1.357871
C195	C	2.401025	0.882970	1.691204
C196	C	1.734453	1.099196	0.578167
C197	C	2.067787	1.432530	0.911501
C198	C	2.401120	1.765863	1.244834
C199	C	1.734435	1.049262	0.578132
C200	C	2.067768	1.382595	0.911465
C201	C	2.401101	1.715929	1.244798
C202	C	1.734204	0.216392	0.266270
C203	C	2.067538	0.549725	0.599604
C204	C	2.400871	0.883059	0.932937
C205	C	1.734398	0.216287	0.132871
C206	C	2.067731	0.549620	0.466204
C207	C	2.401064	0.882954	0.799538
H208	H	1.873327	0.387379	0.438887
H209	H	2.206660	0.720712	0.772220
H210	H	2.539994	1.054045	1.105553
H211	H	1.950382	0.743941	0.362271
H212	H	2.283716	1.077274	0.695604
H213	H	2.617049	1.410608	1.028938
F214	F	1.575479	0.381537	0.736342
F215	F	1.908812	0.714871	1.069675
F216	F	2.242145	1.048204	1.403009
F217	F	1.498939	0.738122	0.813097
F218	F	1.832272	1.071455	1.146430
F219	F	2.165606	1.404789	1.479764
F220	F	1.969637	0.834924	0.343123
F221	F	2.302970	1.168257	0.676456
F222	F	2.636303	1.501591	1.009790
F223	F	1.892964	1.050761	0.419822
F224	F	2.226297	1.384094	0.753156
F225	F	2.559631	1.717427	1.086489
H226	H	1.873710	0.959774	0.438972
H227	H	2.207044	1.293107	0.772306
H228	H	2.540377	1.626440	1.105639
F229	F	1.498921	0.694201	0.813128
F230	F	1.832254	1.027534	1.146461
F231	F	2.165588	1.360868	1.479795
H232	H	1.594739	0.472525	0.717195
H233	H	1.928072	0.805858	1.050528
H234	H	2.261405	1.139191	1.383861
F235	F	1.498865	0.597363	0.813105
F236	F	1.832199	0.930696	1.146438
F237	F	2.165532	1.264029	1.479772
H238	H	1.873412	0.472488	0.438911
H239	H	2.206745	0.805821	0.772244
H240	H	2.540078	1.139155	1.105578
H241	H	1.950346	0.688300	0.362261
H242	H	2.283679	1.021634	0.695595
H243	H	2.617013	1.354967	1.028928
H244	H	1.595095	1.044913	0.717261
H245	H	1.928429	1.378246	1.050594
H246	H	2.261762	1.711579	1.383928
F247	F	1.499003	0.834957	0.813117
F248	F	1.832337	1.168290	1.146450
F249	F	2.165670	1.501624	1.479783
H250	H	1.950283	0.603194	0.362243
H251	H	2.283616	0.936527	0.695576
H252	H	2.616950	1.269861	1.028910
H253	H	1.595055	0.959804	0.717267
H254	H	1.928388	1.293137	1.050600
H255	H	2.261721	1.626471	1.383933
