data_functionalizedCrystal
_audit_creation_method	'MofGen! by Chris Wilmer'
_symmetry_space_group_name_H-M	'P1'
_symmetry_Int_Tables_number	1
_symmetry_cell_setting	triclinic
loop_
_symmetry_equiv_pos_as_xyz
  x,y,z
_cell_length_a	10.654550
_cell_length_b	19.288865
_cell_length_c	9.730223
_cell_angle_alpha	89.990377
_cell_angle_beta	89.999957
_cell_angle_gamma	83.810589
loop_
_atom_site_label
_atom_site_type_symbol
_atom_site_fract_x
_atom_site_fract_y
_atom_site_fract_z
O1	O	1.665751	0.097555	-0.114205
O2	O	2.165751	0.597555	0.385795
O3	O	1.300073	0.106849	-0.114232
O4	O	1.800073	0.606849	0.385768
O5	O	1.493478	0.001141	-0.114191
O6	O	1.993478	0.501141	0.385809
O7	O	1.472346	0.203263	-0.114247
O8	O	1.972346	0.703263	0.385753
O9	O	1.493466	0.001138	0.114389
O10	O	1.993466	0.501138	0.614389
O11	O	1.300061	0.106846	0.114348
O12	O	1.800061	0.606846	0.614348
O13	O	1.665738	0.097552	0.114375
O14	O	2.165738	0.597552	0.614375
Zn15	Zn	1.482898	0.102198	0.150653
Zn16	Zn	1.982898	0.602198	0.650653
Zn17	Zn	1.482914	0.102202	-0.150511
Zn18	Zn	1.982914	0.602202	0.349489
O19	O	1.472333	0.203260	0.114333
O20	O	1.972333	0.703260	0.614333
C21	C	1.253284	0.106165	0.000055
C22	C	1.753284	0.606165	0.500055
C23	C	1.113884	0.104123	0.000046
C24	C	1.613884	0.604123	0.500046
C25	C	1.033066	0.166363	0.000033
C26	C	1.533066	0.666363	0.500033
C27	C	0.902087	0.164440	0.000057
C28	C	1.402087	0.664440	0.500057
C29	C	0.932756	0.038033	0.000102
C30	C	1.432756	0.538033	0.500102
C31	C	1.063733	0.039956	0.000088
C32	C	1.563733	0.539956	0.500088
C33	C	1.492792	-0.024742	0.000103
C34	C	1.992792	0.475258	0.500103
C35	C	1.490751	-0.101859	0.000115
C36	C	1.990751	0.398141	0.500115
C37	C	1.604232	-0.145812	0.000131
C38	C	2.104232	0.354188	0.500131
C39	C	1.602315	-0.218272	0.000109
C40	C	2.102315	0.281728	0.500109
C41	C	1.486909	-0.246775	0.000099
C42	C	1.986909	0.253225	0.500099
C43	C	1.373413	-0.202812	0.000076
C44	C	1.873413	0.297188	0.500076
C45	C	1.375334	-0.130354	0.000085
C46	C	1.875334	0.369646	0.500085
C47	C	1.396183	-0.355657	0.080159
C48	C	1.896183	0.144343	0.580159
C49	C	1.394267	-0.428114	0.080160
C50	C	1.894267	0.071886	0.580160
C51	C	1.480980	-0.470259	0.000068
C52	C	1.980980	0.029741	0.500068
C53	C	1.569631	-0.439940	-0.080006
C54	C	2.069631	0.060060	0.419994
C55	C	1.571552	-0.367482	-0.079998
C56	C	2.071552	0.132518	0.420002
C57	C	1.484814	-0.325343	0.000090
C58	C	1.984814	0.174657	0.500090
C59	C	1.592390	-0.592782	0.000057
C60	C	2.092390	-0.092782	0.500057
C61	C	1.590467	-0.665243	0.000027
C62	C	2.090467	-0.165243	0.500027
C63	C	1.361562	-0.649781	0.000009
C64	C	1.861562	-0.149781	0.500009
C65	C	1.363488	-0.577322	0.000025
C66	C	1.863488	-0.077322	0.500025
C67	C	1.478905	-0.548827	0.000056
C68	C	1.978905	-0.048827	0.500056
C69	C	1.712528	0.098236	0.000085
C70	C	2.212528	0.598236	0.500085
C71	C	1.851928	0.100277	0.000085
C72	C	2.351928	0.600277	0.500085
C73	C	1.473020	0.229142	0.000036
C74	C	1.973020	0.729142	0.500036
C75	C	1.475061	0.306259	0.000015
C76	C	1.975061	0.806259	0.500015
N77	N	1.482896	0.102195	0.356190
N78	N	1.982896	0.602195	0.856190
N79	N	1.482926	0.102200	-0.356047
N80	N	1.982926	0.602200	0.143953
C81	C	1.568564	0.055408	0.428134
C82	C	2.068564	0.555408	0.928134
C83	C	1.568577	0.055408	0.572017
C84	C	2.068577	0.555408	1.072017
C85	C	1.397248	0.148990	0.571999
C86	C	1.897248	0.648990	1.071999
C87	C	1.397231	0.148986	0.428118
C88	C	1.897231	0.648986	0.928118
H89	H	1.073895	0.218611	0.000009
H90	H	1.573895	0.718611	0.500009
Br91	Br	1.173424	-0.044518	0.000123
Br92	Br	1.673424	0.455482	0.500123
H93	H	0.836289	0.215122	0.000049
H94	H	1.336289	0.715122	0.500049
H95	H	0.891906	-0.014209	0.000145
H96	H	1.391906	0.485791	0.500145
Br97	Br	1.684821	-0.008095	0.330522
Br98	Br	2.184821	0.491905	0.830522
H99	H	1.279449	-0.226024	0.000066
H100	H	1.779449	0.273976	0.500066
H101	H	1.327503	0.187086	0.630577
H102	H	1.827503	0.687086	1.130577
Br103	Br	1.204937	-0.688456	-0.000018
Br104	Br	1.704937	-0.188456	0.499982
H105	H	1.698214	-0.122616	0.000151
H106	H	2.198214	0.377384	0.500151
H107	H	1.694728	-0.254065	0.000115
H108	H	2.194728	0.245935	0.500115
Br109	Br	1.691850	-0.326334	-0.188671
Br110	Br	2.191850	0.173666	0.311329
H111	H	1.327463	0.187086	0.369537
H112	H	1.827463	0.687086	0.869537
H113	H	1.640240	-0.474253	-0.145225
H114	H	2.140240	0.025747	0.354775
Br115	Br	1.273965	-0.469256	0.188839
Br116	Br	1.773965	0.030744	0.688839
Br117	Br	1.278490	-0.298467	0.188866
Br118	Br	1.778490	0.201533	0.688866
H119	H	1.686369	-0.569580	0.000076
H120	H	2.186369	-0.069580	0.500076
H121	H	1.638334	0.017308	0.630590
H122	H	2.138334	0.517308	1.130590
Br123	Br	1.744492	-0.724896	0.000033
Br124	Br	2.244492	-0.224896	0.500033
H125	H	1.271079	-0.541534	0.000021
H126	H	1.771079	-0.041534	0.500021
H127	H	1.282921	-0.094566	0.000073
H128	H	1.782921	0.405434	0.500073
