data_functionalizedCrystal
_audit_creation_method	'MofGen! by Chris Wilmer'
_symmetry_space_group_name_H-M	'P1'
_symmetry_Int_Tables_number	1
_symmetry_cell_setting	triclinic
loop_
_symmetry_equiv_pos_as_xyz
  x,y,z
_cell_length_a	14.044220
_cell_length_b	10.540535
_cell_length_c	13.101039
_cell_angle_alpha	93.394726
_cell_angle_beta	86.340132
_cell_angle_gamma	88.856260
loop_
_atom_site_label
_atom_site_type_symbol
_atom_site_fract_x
_atom_site_fract_y
_atom_site_fract_z
O1	O	1.264941	0.299849	-0.085111
O2	O	0.988899	0.288795	-0.085137
O3	O	1.133219	0.110253	-0.085113
O4	O	1.120620	0.478391	-0.085135
O5	O	1.122864	0.123086	0.085315
O6	O	0.978544	0.301629	0.085291
O7	O	1.254586	0.312682	0.085317
Zn8	Zn	1.114921	0.309193	0.112363
Zn9	Zn	1.128564	0.292285	-0.112183
O10	O	1.110266	0.491225	0.085293
C11	C	0.948374	0.290374	0.000074
C12	C	0.843052	0.275944	0.000065
C13	C	1.127098	0.069271	0.000101
C14	C	1.124273	-0.071963	0.000103
C15	C	0.650211	0.249565	0.000087
C16	C	0.593269	0.351907	0.000085
C17	C	0.485966	0.337229	0.000097
C18	C	0.757524	0.264240	0.000074
C19	C	1.018902	-0.119287	0.000085
C20	C	1.015954	-0.266219	-0.000320
C21	C	1.178277	-0.283740	-0.097050
C22	C	1.180523	-0.136753	-0.097113
C23	C	1.170280	-0.122142	0.096703
C24	C	1.165330	-0.268886	0.097961
C25	C	1.295111	0.311103	0.000104
C26	C	1.400434	0.325533	0.000107
C27	C	1.116387	0.532206	0.000077
C28	C	1.119212	0.673440	0.000069
N29	N	1.105617	0.320733	0.265610
N30	N	1.137875	0.280736	-0.265430
C31	C	1.092959	0.336444	0.474651
C32	C	1.150530	0.265028	0.525536
C33	C	1.143487	0.273770	0.641853
C34	C	1.100001	0.327704	0.358323
H35	H	0.625107	0.450548	0.000074
Br36	Br	1.001997	0.449291	0.547636
H37	H	0.618374	0.150931	0.000098
H38	H	0.983341	-0.085082	-0.069465
Br39	Br	0.939603	-0.313408	0.115689
H40	H	1.146210	-0.323784	-0.169615
Br41	Br	0.944397	-0.047423	0.116153
H42	H	0.978840	-0.304121	-0.070364
Br43	Br	1.128064	-0.084974	-0.218590
H44	H	1.258021	-0.106223	-0.101242
H45	H	1.254524	-0.323659	-0.100382
H46	H	1.247748	-0.092037	0.097657
H47	H	1.132925	-0.077470	0.170346
Br48	Br	1.241902	0.152759	0.452552
H49	H	1.240338	-0.309836	0.104125
Br50	Br	1.093572	-0.314069	0.217720
