data_functionalizedCrystal
_audit_creation_method	'MofGen! by Chris Wilmer'
_symmetry_space_group_name_H-M	'P1'
_symmetry_Int_Tables_number	1
_symmetry_cell_setting	triclinic
loop_
_symmetry_equiv_pos_as_xyz
  x,y,z
_cell_length_a	12.759400
_cell_length_b	12.759401
_cell_length_c	12.759393
_cell_angle_alpha	90.017380
_cell_angle_beta	89.968231
_cell_angle_gamma	89.985155
loop_
_atom_site_label
_atom_site_type_symbol
_atom_site_fract_x
_atom_site_fract_y
_atom_site_fract_z
Zn1	Zn	-0.418198	-1.606244	-0.593981
Zn2	Zn	-0.593917	-1.606142	-0.418301
Zn3	Zn	-0.418253	-1.430549	-0.418321
Zn4	Zn	-0.593836	-1.430535	-0.593943
O5	O	-0.506051	-1.518367	-0.506137
O6	O	-0.441518	-1.753251	-0.570685
O7	O	-0.570672	-1.582812	-0.271283
O8	O	-0.271225	-1.453905	-0.441647
O9	O	-0.570618	-1.753176	-0.441614
O10	O	-0.271184	-1.582987	-0.570704
O11	O	-0.441613	-1.453805	-0.271297
O12	O	-0.441534	-1.283526	-0.441609
O13	O	-0.570480	-1.453879	-0.740969
O14	O	-0.570533	-1.283516	-0.570638
O15	O	-0.441439	-1.582972	-0.740997
O16	O	-0.740927	-1.582798	-0.441577
O17	O	-0.740868	-1.453780	-0.570620
C18	C	-0.506032	-1.245400	-0.506122
C19	C	-0.506049	-1.128623	-0.506141
C20	C	-0.779018	-1.518305	-0.506115
C21	C	-0.895795	-1.518374	-0.506140
C22	C	-0.505944	-1.518436	-0.780170
C23	C	-0.505898	-1.518465	-0.896947
C24	C	-0.950653	-1.585629	-0.439022
C25	C	-1.060377	-1.585693	-0.439054
C26	C	-1.060375	-1.451240	-0.573327
C27	C	-0.950653	-1.451182	-0.573299
C28	C	-0.895795	-1.652821	-0.371864
C29	C	-0.950654	-1.720080	-0.304739
C30	C	-1.060378	-1.720144	-0.304771
C31	C	-1.115243	-1.652950	-0.371929
C32	C	-0.232018	-1.518459	-0.506182
C33	C	-0.115241	-1.518497	-0.506201
C34	C	-0.506071	-1.792401	-0.506152
C35	C	-0.506080	-1.909177	-0.506158
C36	C	-0.573326	-1.073783	-0.573215
C37	C	-0.573340	-0.964059	-0.573227
C38	C	-0.438795	-0.964025	-0.439081
C39	C	-0.438777	-1.073747	-0.439075
C40	C	-0.651008	-1.073802	-0.650660
C41	C	-0.651021	-0.964078	-0.650672
C42	C	-0.438685	-1.451319	-0.951822
C43	C	-0.438653	-1.451351	-1.061546
C44	C	-0.573052	-1.585683	-1.061510
C45	C	-0.573088	-1.585645	-0.951788
C46	C	-0.361087	-1.373767	-0.951844
C47	C	-0.361056	-1.373799	-1.061568
C48	C	-0.506082	-1.518360	-0.233169
C49	C	-0.505831	-1.518534	-0.116393
H50	H	-0.806452	-1.652773	-0.371827
Cl51	Cl	-0.394732	-1.248114	-0.905862
Cl52	Cl	-1.253182	-1.652600	-0.371532
H53	H	-0.627755	-1.640379	-1.106175
H54	H	-1.105055	-1.396533	-0.628002
H55	H	-0.905976	-1.774793	-0.250068
H56	H	-0.283809	-1.402931	-0.917828
Cl57	Cl	-0.881683	-1.366634	-0.657680
Cl58	Cl	-0.406043	-1.254470	-1.114111
H59	H	-0.279674	-1.395616	-1.091366
H60	H	-1.105040	-1.774917	-0.250123
Cl61	Cl	-0.770314	-1.126327	-0.605549
Cl62	Cl	-0.354177	-1.142686	-0.354769
Cl63	Cl	-0.606180	-0.911576	-0.770092
Cl64	Cl	-0.354229	-0.895030	-0.354775
Cl65	Cl	-0.776604	-0.918068	-0.616775
Cl66	Cl	-0.657602	-1.670047	-0.882805
Cl67	Cl	-0.617507	-1.119830	-0.776342
