data_functionalizedCrystal
_audit_creation_method	'MofGen! by Chris Wilmer'
_symmetry_space_group_name_H-M	'P1'
_symmetry_Int_Tables_number	1
_symmetry_cell_setting	triclinic
loop_
_symmetry_equiv_pos_as_xyz
  x,y,z
_cell_length_a	10.654550
_cell_length_b	18.266242
_cell_length_c	10.654551
_cell_angle_alpha	90.004535
_cell_angle_beta	84.485180
_cell_angle_gamma	90.005777
loop_
_atom_site_label
_atom_site_type_symbol
_atom_site_fract_x
_atom_site_fract_y
_atom_site_fract_z
O1	O	1.667850	0.060823	0.176401
O2	O	1.302372	0.060836	0.193207
O3	O	1.493513	0.060828	0.002065
O4	O	1.476709	0.060832	0.367543
O5	O	1.493480	-0.060934	0.002055
O6	O	1.302339	-0.060926	0.193197
O7	O	1.667817	-0.060939	0.176391
Zn8	Zn	1.485073	-0.080265	0.184792
Zn9	Zn	1.485116	0.080162	0.184806
O10	O	1.476676	-0.060930	0.367533
C11	C	1.255557	-0.000043	0.191968
C12	C	1.116114	-0.000038	0.188276
N13	N	1.485052	-0.189751	0.184782
C14	C	1.036629	-0.000039	0.300818
C15	C	0.905608	-0.000052	0.297341
C16	C	0.933570	-0.000059	0.068772
C17	C	1.064588	-0.000052	0.072249
C18	C	1.569718	-0.228064	0.100187
C19	C	1.569726	-0.304709	0.100181
C20	C	1.485081	-0.343038	0.184792
C21	C	1.400399	-0.304717	0.269394
C22	C	1.400385	-0.228073	0.269389
N23	N	1.470063	-0.463369	0.295783
N24	N	1.470084	-0.536177	0.295784
C25	C	1.485116	-0.573961	0.184811
N26	N	1.500151	-0.536186	0.073834
N27	N	1.500136	-0.463371	0.073834
C28	C	1.485086	-0.426145	0.184807
C29	C	1.569795	-0.695381	0.100202
C30	C	1.569794	-0.772027	0.100195
C31	C	1.400473	-0.772033	0.269419
C32	C	1.400467	-0.695388	0.269416
C33	C	1.485135	-0.657066	0.184809
C34	C	1.714632	-0.000058	0.177630
C35	C	1.854075	-0.000058	0.181322
C36	C	1.492262	-0.000052	-0.044738
C37	C	1.488570	-0.000048	-0.184181
N38	N	1.485146	0.189649	0.184806
C39	C	1.486855	0.066325	-0.249680
C40	C	1.483375	0.066326	-0.380700
C41	C	1.483331	-0.066426	-0.380713
C42	C	1.486801	-0.066426	-0.249694
C43	C	1.477926	-0.000049	0.414336
C44	C	1.481619	-0.000048	0.553779
H45	H	1.078576	-0.000033	0.395294
N46	N	1.309076	-0.186741	0.360643
H47	H	1.253055	-0.154950	0.312128
H48	H	1.255532	-0.222693	0.414225
H49	H	1.481975	0.120373	-0.434023
N50	N	1.481449	-0.138014	-0.451381
H51	H	1.483061	-0.180062	-0.390003
H52	H	1.402292	-0.140905	-0.496243
H53	H	1.488191	-0.120478	-0.196363
N54	N	0.819849	-0.000054	0.418707
H55	H	0.764878	-0.045199	0.422336
H56	H	0.872437	-0.000019	0.492682
N57	N	0.877996	-0.000078	-0.056366
H58	H	0.782934	-0.000083	-0.041495
H59	H	0.907002	0.045058	-0.105669
N60	N	1.661025	-0.186732	0.008927
H61	H	1.717040	-0.154923	0.057437
H62	H	1.714576	-0.222685	-0.044644
N63	N	1.661105	-0.654041	0.008950
H64	H	1.714737	-0.689945	-0.044651
H65	H	1.612542	-0.622248	-0.047019
H66	H	1.129309	-0.000053	-0.019401
N67	N	1.661044	-0.346045	0.008932
H68	H	1.714675	-0.310138	-0.044667
H69	H	1.716979	-0.377833	0.057543
N70	N	1.309094	-0.346052	0.360649
H71	H	1.321951	-0.400420	0.347818
H72	H	1.324365	-0.332646	0.449881
N73	N	1.309164	-0.813362	0.360672
H74	H	1.322016	-0.867730	0.347837
H75	H	1.324437	-0.799959	0.449905
N76	N	1.488669	0.137900	-0.178964
H77	H	1.567803	0.140874	-0.134073
H78	H	1.486976	0.179922	-0.240377
N79	N	1.661138	-0.813354	0.008969
H80	H	1.714779	-0.777444	-0.044615
H81	H	1.717059	-0.845136	0.057605
H82	H	1.331530	-0.664192	0.338307
