data_functionalizedCrystal
_audit_creation_method	'MofGen! by Chris Wilmer'
_symmetry_space_group_name_H-M	'P1'
_symmetry_Int_Tables_number	1
_symmetry_cell_setting	triclinic
loop_
_symmetry_equiv_pos_as_xyz
  x,y,z
_cell_length_a	10.654554
_cell_length_b	16.098538
_cell_length_c	10.654551
_cell_angle_alpha	87.247833
_cell_angle_beta	84.486053
_cell_angle_gamma	92.763785
loop_
_atom_site_label
_atom_site_type_symbol
_atom_site_fract_x
_atom_site_fract_y
_atom_site_fract_z
O1	O	1.673411	0.069225	0.170864
O2	O	1.307934	0.069232	0.187664
O3	O	1.499074	0.069228	-0.003475
O4	O	1.482270	0.069228	0.362003
O5	O	1.487909	-0.069284	0.007646
O6	O	1.296768	-0.069281	0.198785
O7	O	1.662245	-0.069288	0.181986
Zn8	Zn	1.477733	-0.091276	0.192151
Zn9	Zn	1.492445	0.091220	0.177498
O10	O	1.471104	-0.069285	0.373124
C11	C	1.255553	-0.000024	0.191990
C12	C	1.116110	-0.000021	0.188295
C13	C	0.905601	-0.000029	0.297369
C14	C	1.036623	-0.000022	0.300840
C15	C	1.064570	-0.000018	0.072271
C16	C	0.933550	-0.000018	0.068800
C17	C	0.826120	-0.000039	0.409922
C18	C	0.877651	-0.000040	0.525947
C19	C	1.008673	-0.000034	0.529419
C20	C	1.088164	-0.000026	0.416865
N21	N	1.467702	-0.215825	0.202151
C22	C	1.548860	-0.259412	0.121053
C23	C	1.541855	-0.346601	0.128060
C24	C	1.453697	-0.390202	0.216172
C25	C	1.372530	-0.346609	0.297273
C26	C	1.379530	-0.259422	0.290259
C27	C	1.428320	-0.653451	0.241576
C28	C	1.421328	-0.740645	0.248587
C29	C	1.590652	-0.740630	0.079372
C30	C	1.597650	-0.653441	0.072370
C31	C	1.516479	-0.609856	0.153467
C32	C	1.446536	-0.479323	0.223339
C33	C	1.523633	-0.520737	0.146293
C34	C	1.714626	-0.000031	0.177660
C35	C	1.854069	-0.000028	0.181354
C36	C	1.492257	-0.000026	-0.044712
C37	C	1.488565	-0.000020	-0.184156
N38	N	1.502486	0.215769	0.167489
C39	C	1.492920	0.075482	-0.255730
C40	C	1.489439	0.075478	-0.386750
C41	C	1.477255	-0.075536	-0.374611
C42	C	1.480727	-0.075532	-0.243592
C43	C	1.500759	0.150993	-0.196294
C44	C	1.505115	0.226501	-0.267869
C45	C	1.501634	0.226497	-0.398889
C46	C	1.493797	0.150985	-0.458334
C47	C	1.477921	-0.000029	0.414362
C48	C	1.481613	-0.000029	0.553805
H49	H	1.194851	-0.000003	0.419700
H50	H	1.490946	0.150989	-0.565018
H51	H	1.511483	0.287980	-0.219458
H52	H	1.607939	-0.382088	0.062023
H53	H	0.719433	-0.000047	0.407109
H54	H	1.374758	-0.514830	0.295083
H55	H	1.050626	-0.000028	0.623891
H56	H	1.470876	-0.137014	-0.423022
N57	N	0.796444	-0.000038	0.640899
N58	N	0.679465	-0.000042	0.637787
H59	H	0.622112	-0.000039	0.718974
H60	H	1.129301	-0.000012	-0.019364
N61	N	0.880923	-0.000013	-0.049716
N62	N	0.951898	-0.000011	-0.150199
H63	H	0.914732	-0.000005	-0.233905
H64	H	1.620653	-0.223918	0.049308
N65	N	1.687925	-0.608920	-0.017425
N66	N	1.760525	-0.647847	-0.089685
H67	H	1.824368	-0.616405	-0.153022
H68	H	1.313441	-0.223935	0.356296
H69	H	1.656737	-0.776125	0.013345
H70	H	1.505168	0.287979	-0.457161
N71	N	1.504296	0.151018	-0.062462
N72	N	1.420199	0.184743	0.004108
H73	H	1.422698	0.184763	0.098628
N74	N	1.331255	-0.785171	0.338595
N75	N	1.258782	-0.746247	0.410988
H76	H	1.195169	-0.777693	0.474551
H77	H	1.595408	-0.485235	0.074548
N78	N	1.345425	-0.608921	0.324403
N79	N	1.271030	-0.560281	0.279921
H80	H	1.212485	-0.528826	0.338421
H81	H	1.477154	-0.137012	-0.185311
H82	H	1.300743	-0.382114	0.369011
