data_functionalizedCrystal
_audit_creation_method	'MofGen! by Chris Wilmer'
_symmetry_space_group_name_H-M	'P1'
_symmetry_Int_Tables_number	1
_symmetry_cell_setting	triclinic
loop_
_symmetry_equiv_pos_as_xyz
  x,y,z
_cell_length_a	25.639239
_cell_length_b	12.594517
_cell_length_c	12.594509
_cell_angle_alpha	90.011478
_cell_angle_beta	90.034128
_cell_angle_gamma	90.034573
loop_
_atom_site_label
_atom_site_type_symbol
_atom_site_fract_x
_atom_site_fract_y
_atom_site_fract_z
Zn1	Zn	-0.208192	1.627099	0.601537
Zn2	Zn	0.291808	2.127099	1.101537
Zn3	Zn	-0.295635	1.626920	0.423540
Zn4	Zn	0.204365	2.126920	0.923540
Zn5	Zn	-0.208209	1.449103	0.423596
Zn6	Zn	0.291791	1.949103	0.923596
Zn7	Zn	-0.295592	1.449015	0.601500
Zn8	Zn	0.204408	1.949015	1.101500
O9	O	-0.251907	1.538034	0.512543
O10	O	0.248093	2.038034	1.012543
O11	O	-0.219803	1.776021	0.577917
O12	O	0.280197	2.276021	1.077917
O13	O	-0.284062	1.603294	0.274601
O14	O	0.215938	2.103294	0.774601
O15	O	-0.135041	1.472827	0.447239
O16	O	0.364959	1.972827	0.947239
O17	O	-0.284046	1.775890	0.447143
O18	O	0.215954	2.275890	0.947143
O19	O	-0.135029	1.603600	0.577971
O20	O	0.364971	2.103600	1.077971
O21	O	-0.219831	1.472653	0.274643
O22	O	0.280169	1.972653	0.774643
O23	O	-0.219790	1.300146	0.447204
O24	O	0.280210	1.800146	0.947204
O25	O	-0.283974	1.472677	0.750451
O26	O	0.216026	1.972677	1.250451
O27	O	-0.283990	1.300081	0.577909
O28	O	0.216010	1.800081	1.077909
O29	O	-0.219762	1.603514	0.750478
O30	O	0.280238	2.103514	1.250478
O31	O	-0.368794	1.603209	0.447108
O32	O	0.131206	2.103209	0.947108
O33	O	-0.368763	1.472503	0.577855
O34	O	0.131237	1.972503	1.077855
C35	C	-0.251887	1.261494	0.512559
C36	C	0.248113	1.761494	1.012559
C37	C	-0.251891	1.143188	0.512592
C38	C	0.248109	1.643188	1.012592
C39	C	-0.286878	1.073931	0.583545
C40	C	0.213122	1.573931	1.083545
C41	C	-0.239208	1.003160	0.609733
C42	C	0.260792	1.503160	1.109733
C43	C	-0.299602	1.003159	0.486380
C44	C	0.200398	1.503159	0.986380
C45	C	-0.204195	1.073976	0.538831
C46	C	0.295805	1.573976	1.038831
C47	C	-0.264622	1.073981	0.415432
C48	C	0.235378	1.573981	0.915432
C49	C	-0.216918	1.003243	0.441583
C50	C	0.283082	1.503243	0.941583
C51	C	-0.387750	1.537855	0.512495
C52	C	0.112250	2.037855	1.012495
C53	C	-0.445864	1.537876	0.512509
C54	C	0.054136	2.037876	1.012509
C55	C	-0.806230	1.606271	0.444579
C56	C	-0.306230	2.106271	0.944579
C57	C	-0.860835	1.606312	0.444594
C58	C	-0.360835	2.106312	0.944594
O59	O	-0.889074	1.664278	0.386784
O60	O	-0.389074	2.164278	0.886784
N61	N	-0.888146	1.538222	0.512614
N62	N	-0.388146	2.038222	1.012614
C63	C	-0.860851	1.470093	0.580632
C64	C	-0.360851	1.970093	1.080632
O65	O	-0.889095	1.412182	0.638490
O66	O	-0.389095	1.912182	1.138490
C67	C	-0.806247	1.470058	0.580622
C68	C	-0.306247	1.970058	1.080622
C69	C	-0.778939	1.538145	0.512590
C70	C	-0.278939	2.038145	1.012590
C71	C	-0.778922	1.674353	0.376553
C72	C	-0.278922	2.174353	0.876553
C73	C	-0.724321	1.674310	0.376538
C74	C	-0.224321	2.174310	0.876538
C75	C	-0.697029	1.606185	0.444549
C76	C	-0.197029	2.106185	0.944549
C77	C	-0.724338	1.538102	0.512574
C78	C	-0.224338	2.038102	1.012574
C79	C	-0.778953	1.401936	0.648645
C80	C	-0.278953	1.901936	1.148645
C81	C	-0.724346	1.401907	0.648630
C82	C	-0.224346	1.901907	1.148630
C83	C	-0.697037	1.469994	0.580598
C84	C	-0.197037	1.969994	1.080598
C85	C	-0.642446	1.469934	0.580570
C86	C	-0.142446	1.969934	1.080570
N87	N	-0.615134	1.538024	0.512549
N88	N	-0.115134	2.038024	1.012549
C89	C	-0.642426	1.606150	0.444539
C90	C	-0.142426	2.106150	0.944539
C91	C	-0.975521	1.470173	0.580648
C92	C	-0.475521	1.970173	1.080648
C93	C	-1.030123	1.470202	0.580653
C94	C	-0.530123	1.970202	1.080653
C95	C	-1.030104	1.606423	0.444616
C96	C	-0.530104	2.106423	0.944616
C97	C	-0.975501	1.606388	0.444606
C98	C	-0.475501	2.106388	0.944606
C99	C	-0.948210	1.538264	0.512628
C100	C	-0.448210	2.038264	1.012628
C101	C	-0.527761	1.606054	0.444511
C102	C	-0.027761	2.106054	0.944511
C103	C	-0.473156	1.606002	0.444499
C104	C	0.026844	2.106002	0.944499
C105	C	-0.473180	1.469786	0.580539
C106	C	0.026820	1.969786	1.080539
C107	C	-0.527781	1.469833	0.580548
C108	C	-0.027781	1.969833	1.080548
C109	C	-0.555070	1.537976	0.512531
C110	C	-0.055070	2.037976	1.012531
O111	O	-0.614171	1.412001	0.638353
O112	O	-0.114171	1.912001	1.138353
O113	O	-0.614175	1.664061	0.386700
O114	O	-0.114175	2.164061	0.886700
C115	C	-0.115534	1.538243	0.512615
C116	C	0.384466	2.038243	1.012615
C117	C	-0.057420	1.538332	0.512646
C118	C	0.442580	2.038332	1.012646
C119	C	-0.251861	1.538106	0.790164
C120	C	0.248139	2.038106	1.290164
C121	C	-0.251842	1.538136	0.908470
C122	C	0.248158	2.038136	1.408470
C123	C	-0.251927	1.815655	0.512528
C124	C	0.248073	2.315655	1.012528
C125	C	-0.251936	1.933961	0.512521
C126	C	0.248064	2.433961	1.012521
C127	C	-0.251915	1.538025	0.236002
C128	C	0.248085	2.038025	0.736002
C129	C	-0.251787	1.538201	0.117697
C130	C	0.248213	2.038201	0.617697
C131	C	-0.286747	1.466996	0.977709
C132	C	0.213253	1.966996	1.477709
C133	C	-0.299525	1.564106	1.048480
C134	C	0.200475	2.064106	1.548480
C135	C	-0.239032	1.441102	1.048498
C136	C	0.260968	1.941102	1.548498
C137	C	-0.264645	1.635297	0.977683
C138	C	0.235355	2.135297	1.477683
C139	C	-0.204130	1.512227	0.977695
C140	C	0.295870	2.012227	1.477695
C141	C	-0.216890	1.609405	1.048434
C142	C	0.283110	2.109405	1.548434
H143	H	-0.275388	1.105113	0.333320
H144	H	0.224612	1.605113	0.833320
H145	H	-0.702090	1.729756	0.321144
H146	H	-0.202090	2.229756	0.821144
H147	H	-0.187315	0.972401	0.381551
H148	H	0.312685	1.472401	0.881551
H149	H	-0.228220	1.359014	1.079604
H150	H	0.271780	1.859014	1.579604
Br151	Br	-0.687311	1.309452	0.740954
Br152	Br	-0.187311	1.809452	1.240954
H153	H	-0.549973	1.661544	0.389127
H154	H	-0.049973	2.161544	0.889127
H155	H	-0.339931	0.972048	0.464242
H156	H	0.160069	1.472048	0.964242
H157	H	-0.450923	1.661446	0.389095
H158	H	0.049077	2.161446	0.889095
Br159	Br	-0.221285	0.951311	0.746629
Br160	Br	0.278715	1.451311	1.246629
Br161	Br	-0.282747	1.772155	0.926064
Br162	Br	0.217253	2.272155	1.426064
H163	H	-1.052354	1.414749	0.636042
H164	H	-0.552354	1.914749	1.136042
H165	H	-0.163854	1.104952	0.561064
H166	H	0.336146	1.604952	1.061064
Br167	Br	-0.336101	1.125667	0.683674
Br168	Br	0.163899	1.625667	1.183674
H169	H	-0.801137	1.729835	0.321171
H170	H	-0.301137	2.229835	0.821171
H171	H	-0.953269	1.661830	0.389209
H172	H	-0.453269	2.161830	0.889209
Br173	Br	-1.067153	1.698875	0.352310
Br174	Br	-0.567153	2.198875	0.852310
H175	H	-0.316311	1.406882	0.946655
H176	H	0.183689	1.906882	1.446655
Br177	Br	-0.938489	1.377704	0.672965
Br178	Br	-0.438489	1.877704	1.172965
Br179	Br	-0.816000	1.309537	0.740992
Br180	Br	-0.316000	1.809537	1.240992
H181	H	-0.550016	1.414395	0.635949
H182	H	-0.050016	1.914395	1.135949
Br183	Br	-0.136935	1.475599	0.925829
Br184	Br	0.363065	1.975599	1.425829
H185	H	-0.450950	1.414315	0.635910
H186	H	0.049050	1.914315	1.135910
Br187	Br	-0.366737	1.600694	1.100303
Br188	Br	0.133263	2.100694	1.600303
H189	H	-0.187348	1.669663	1.079292
H190	H	0.312652	2.169663	1.579292
