data_functionalizedCrystal
_audit_creation_method	'MofGen! by Chris Wilmer'
_symmetry_space_group_name_H-M	'P1'
_symmetry_Int_Tables_number	1
_symmetry_cell_setting	triclinic
loop_
_symmetry_equiv_pos_as_xyz
  x,y,z
_cell_length_a	10.654550
_cell_length_b	14.971486
_cell_length_c	9.130313
_cell_angle_alpha	89.995272
_cell_angle_beta	89.999724
_cell_angle_gamma	84.049530
loop_
_atom_site_label
_atom_site_type_symbol
_atom_site_fract_x
_atom_site_fract_y
_atom_site_fract_z
O1	O	1.666492	0.125631	-0.121691
O2	O	1.300885	0.137600	-0.121718
O3	O	1.493487	0.001469	-0.121693
O4	O	1.473889	0.261762	-0.121716
O5	O	1.493474	0.001465	0.121906
O6	O	1.300872	0.137596	0.121881
O7	O	1.666479	0.125627	0.121908
Cu8	Cu	1.483674	0.131611	0.144137
Cu9	Cu	1.483689	0.131616	-0.143947
O10	O	1.473876	0.261758	0.121883
C11	C	1.254090	0.136720	0.000078
C12	C	1.114675	0.134090	0.000068
C13	C	1.492604	-0.031863	0.000106
C14	C	1.489978	-0.131174	0.000104
C15	C	1.034329	0.214242	0.000065
C16	C	0.903335	0.211766	0.000091
C17	C	0.933044	0.048979	0.000116
C18	C	1.064036	0.051456	0.000101
C19	C	1.603127	-0.187783	0.000114
C20	C	1.600651	-0.281096	0.000099
C21	C	1.485026	-0.317798	0.000085
C22	C	1.371868	-0.261181	0.000071
C23	C	1.374345	-0.167870	0.000075
C24	C	1.366714	-0.455672	0.000065
C25	C	1.364237	-0.548989	0.000064
C26	C	1.593020	-0.568898	0.000089
C27	C	1.595497	-0.475587	0.000093
C28	C	1.482339	-0.418976	0.000082
C29	C	1.713274	0.126508	0.000109
C30	C	1.852689	0.129137	0.000109
C31	C	1.474759	0.295090	0.000081
C32	C	1.477385	0.394401	0.000073
N33	N	1.483672	0.131608	0.346760
N34	N	1.483701	0.131613	-0.346570
C35	C	1.568985	0.071354	0.423422
C36	C	1.568997	0.071354	0.576759
C37	C	1.398379	0.191869	0.576757
C38	C	1.398362	0.191864	0.423423
H39	H	0.837922	0.277034	0.000092
O40	O	1.256677	-0.400807	0.000116
C41	C	1.029494	-0.390902	0.000008
C42	C	1.154011	-0.453138	-0.000022
H43	H	0.946456	-0.433187	-0.000134
H44	H	1.024840	-0.346741	0.101979
H45	H	1.025011	-0.346694	-0.101913
H46	H	1.158577	-0.497402	0.101831
H47	H	1.158612	-0.497239	-0.102059
O48	O	1.651891	0.012732	0.349177
C49	C	1.821165	-0.106770	0.365371
C50	C	1.727324	-0.040439	0.449629
H51	H	1.882195	-0.149764	0.446549
H52	H	1.766943	-0.151879	0.293644
H53	H	1.883891	-0.067723	0.293524
H54	H	1.664575	-0.079413	0.521555
H55	H	1.781625	0.004669	0.521264
H56	H	0.891798	-0.018299	0.000152
H57	H	1.129457	-0.013817	0.000107
H58	H	1.328923	0.240930	0.639192
H59	H	1.638465	0.022290	0.639174
O60	O	1.710681	-0.335958	0.000183
C61	C	1.937863	-0.345858	0.000143
C62	C	1.813344	-0.283625	0.000081
H63	H	2.020899	-0.303571	0.000030
H64	H	1.942497	-0.390032	0.102110
H65	H	1.942370	-0.390054	-0.101781
H66	H	1.808753	-0.239373	0.101936
H67	H	1.808762	-0.239512	-0.101953
O68	O	1.083371	0.294564	-0.000149
C69	C	1.098099	0.434436	-0.126412
C70	C	1.042459	0.343509	-0.126339
H71	H	1.065065	0.474025	-0.228441
H72	H	1.064989	0.474145	-0.024535
H73	H	1.205522	0.422421	-0.126354
H74	H	0.935035	0.355441	-0.126448
H75	H	1.075668	0.303829	-0.228207
O76	O	1.264316	-0.113005	0.000131
C77	C	1.037133	-0.103100	0.000007
C78	C	1.161650	-0.165336	-0.000010
H79	H	0.954095	-0.145384	-0.000139
H80	H	1.032474	-0.058936	0.101974
H81	H	1.032655	-0.058895	-0.101917
H82	H	1.166211	-0.209597	0.101845
H83	H	1.166257	-0.209439	-0.102045
O84	O	1.702976	-0.623850	0.000349
C85	C	1.897779	-0.669399	0.126528
C86	C	1.773297	-0.607124	0.126424
H87	H	1.954680	-0.655885	0.228433
H88	H	1.876221	-0.742411	0.126608
H89	H	1.954632	-0.655960	0.024546
H90	H	1.716382	-0.620483	0.228388
H91	H	1.794943	-0.534132	0.126268
O92	O	1.315438	0.250485	0.349170
C93	C	1.146157	0.369982	0.365336
C94	C	1.240018	0.303665	0.449609
H95	H	1.085138	0.412983	0.446504
H96	H	1.200363	0.415085	0.293566
H97	H	1.083422	0.330924	0.293531
H98	H	1.302776	0.342650	0.521494
H99	H	1.185734	0.258562	0.521287
H100	H	1.697282	-0.157909	0.000134
H101	H	1.689649	-0.445708	0.000115
H102	H	1.270084	-0.578868	0.000076
H103	H	1.277724	-0.291071	0.000051
