data_functionalizedCrystal
_audit_creation_method	'MofGen! by Chris Wilmer'
_symmetry_space_group_name_H-M	'P1'
_symmetry_Int_Tables_number	1
_symmetry_cell_setting	triclinic
loop_
_symmetry_equiv_pos_as_xyz
  x,y,z
_cell_length_a	19.077105
_cell_length_b	12.759399
_cell_length_c	19.077258
_cell_angle_alpha	92.306641
_cell_angle_beta	90.096589
_cell_angle_gamma	87.711582
loop_
_atom_site_label
_atom_site_type_symbol
_atom_site_fract_x
_atom_site_fract_y
_atom_site_fract_z
Zn1	Zn	1.058248	-0.455634	0.440436
Zn2	Zn	1.558248	0.044366	0.940436
Zn3	Zn	1.062927	-0.638605	0.322933
Zn4	Zn	1.562927	-0.138605	0.822933
Zn5	Zn	0.945486	-0.456166	0.318228
Zn6	Zn	1.445486	0.043834	0.818228
Zn7	Zn	0.940728	-0.624495	0.435687
Zn8	Zn	1.440728	-0.124495	0.935687
O9	O	1.001847	-0.543725	0.379321
O10	O	1.501847	-0.043725	0.879321
O11	O	1.157200	-0.485588	0.428805
O12	O	1.657200	0.014412	0.928805
O13	O	1.051297	-0.620532	0.223977
O14	O	1.551297	-0.120532	0.723977
O15	O	0.960476	-0.309075	0.334457
O16	O	1.460476	0.190925	0.834457
O17	O	1.160638	-0.620016	0.342477
O18	O	1.660638	-0.120016	0.842477
O19	O	1.043322	-0.308684	0.424243
O20	O	1.543322	0.191316	0.924243
O21	O	0.965013	-0.486495	0.220520
O22	O	1.465013	0.013505	0.720520
O23	O	0.846523	-0.472813	0.329852
O24	O	1.346523	0.027187	0.829852
O25	O	0.952369	-0.595967	0.534648
O26	O	1.452369	-0.095967	1.034648
O27	O	0.843028	-0.596483	0.416149
O28	O	1.343028	-0.096483	0.916149
O29	O	1.038710	-0.471906	0.538138
O30	O	1.538710	0.028094	1.038138
O31	O	1.046684	-0.783753	0.337872
O32	O	1.546684	-0.283753	0.837872
O33	O	0.956905	-0.773387	0.420711
O34	O	1.456905	-0.273387	0.920711
C35	C	0.819279	-0.533175	0.371975
C36	C	1.319279	-0.033175	0.871975
C37	C	0.741175	-0.528687	0.368849
C38	C	1.241175	-0.028687	0.868849
C39	C	1.001805	-0.816691	0.379303
C40	C	1.501805	-0.316691	0.879303
C41	C	1.001850	-0.933469	0.379322
C42	C	1.501850	-0.433469	0.879322
C43	C	0.702683	-0.591072	0.412240
C44	C	1.202683	-0.091072	0.912240
C45	C	0.629296	-0.586840	0.409306
C46	C	1.129296	-0.086840	0.909306
C47	C	0.594402	-0.520228	0.362977
C48	C	1.094402	-0.020228	0.862977
C49	C	0.632899	-0.457835	0.319585
C50	C	1.132899	0.042165	0.819585
C51	C	0.706285	-0.462062	0.322523
C52	C	1.206285	0.037938	0.822523
C53	C	0.375115	-0.500665	0.349384
C54	C	0.875115	-0.000665	0.849384
C55	C	0.301724	-0.496445	0.346448
C56	C	0.801724	0.003555	0.846448
C57	C	0.298125	-0.625448	0.436170
C58	C	0.798125	-0.125448	0.936170
C59	C	0.371513	-0.629674	0.439101
C60	C	0.871513	-0.129674	0.939101
C61	C	0.410003	-0.567278	0.395711
C62	C	0.910003	-0.067278	0.895711
N63	N	0.519388	-0.515903	0.359976
N64	N	1.019388	-0.015903	0.859976
N65	N	0.485015	-0.571598	0.398717
N66	N	0.985015	-0.071598	0.898717
C67	C	1.048647	-0.993694	0.336240
C68	C	1.548647	-0.493694	0.836240
C69	C	1.048691	-1.103419	0.336266
C70	C	1.548691	-0.603419	0.836266
C71	C	0.955135	-1.092685	0.422455
C72	C	1.455135	-0.592685	0.922455
C73	C	0.955095	-0.982961	0.422433
C74	C	1.455095	-0.482961	0.922433
C75	C	1.132643	-1.259627	0.314591
C76	C	1.632643	-0.759627	0.814591
C77	C	1.179434	-1.319855	0.271499
C78	C	1.679434	-0.819855	0.771499
C79	C	1.193017	-1.289175	0.203372
C80	C	1.693017	-0.789175	0.703372
C81	C	1.159800	-1.198267	0.178323
C82	C	1.659800	-0.698267	0.678323
C83	C	1.113003	-1.138044	0.221412
C84	C	1.613003	-0.638044	0.721412
C85	C	1.099433	-1.168723	0.289549
C86	C	1.599433	-0.668723	0.789549
C87	C	0.871142	-0.826752	0.444101
C88	C	1.371142	-0.326752	0.944101
C89	C	0.824342	-0.766527	0.487186
C90	C	1.324342	-0.266527	0.987186
C91	C	0.810752	-0.797205	0.555314
C92	C	1.310752	-0.297205	1.055314
C93	C	0.843957	-0.888115	0.580359
C94	C	1.343957	-0.388115	1.080359
C95	C	0.890757	-0.948341	0.537274
C96	C	1.390757	-0.448341	1.037274
C97	C	0.904349	-0.917655	0.469147
C98	C	1.404349	-0.417655	0.969147
C99	C	1.185128	-0.554316	0.386696
C100	C	1.685128	-0.054316	0.886696
C101	C	1.263232	-0.558830	0.389839
C102	C	1.763232	-0.058830	0.889839
C103	C	0.994487	-0.532303	0.562602
C104	C	1.494487	-0.032303	1.062602
C105	C	0.991350	-0.527436	0.640706
C106	C	1.491350	-0.027436	1.140706
C107	C	1.001908	-0.269693	0.379355
C108	C	1.501908	0.230307	0.879355
C109	C	1.001934	-0.152917	0.379369
C110	C	1.501934	0.347083	0.879369
C111	C	1.034796	-0.594932	0.679202
C112	C	1.534796	-0.094932	1.179202
C113	C	1.031849	-0.590346	0.752588
C114	C	1.531849	-0.090346	1.252588
C115	C	0.985451	-0.518268	0.787478
C116	C	1.485451	-0.018268	1.287478
C117	C	0.942004	-0.450766	0.748977
C118	C	1.442004	0.049234	1.248977
C119	C	0.944955	-0.455347	0.675591
C120	C	1.444955	0.044653	1.175591
C121	C	0.971811	-0.497077	1.006762
C122	C	1.471811	0.002923	1.506762
C123	C	0.968862	-0.492503	1.080153
C124	C	1.468862	0.007497	1.580153
C125	C	1.058708	-0.632082	1.083759
C126	C	1.558708	-0.132082	1.583759
C127	C	1.061652	-0.636662	1.010373
C128	C	1.561652	-0.136662	1.510373
C129	C	1.018207	-0.569155	0.971878
C130	C	1.518207	-0.069155	1.471878
N131	N	0.982436	-0.513581	0.862490
N132	N	1.482436	-0.013581	1.362490
N133	N	1.021226	-0.573838	0.896867
N134	N	1.521226	-0.073838	1.396867
C135	C	1.009173	-0.555127	1.196752
C136	C	1.509173	-0.055127	1.696752
C137	C	1.012308	-0.559998	1.118648
C138	C	1.512308	-0.059998	1.618648
H139	H	0.731088	-0.645319	0.449963
H140	H	1.231088	-0.145319	0.949963
Cl141	Cl	1.115580	-1.298194	0.400244
Cl142	Cl	1.615580	-0.798194	0.900244
H143	H	0.772641	-0.748160	0.590392
H144	H	1.272641	-0.248160	1.090392
H145	H	0.917068	-1.132995	0.457554
H146	H	1.417068	-0.632995	0.957554
H147	H	0.399918	-0.683919	0.476825
H148	H	0.899918	-0.183919	0.976825
Cl149	Cl	0.888229	-0.788175	0.358451
Cl150	Cl	1.388229	-0.288175	0.858451
H151	H	0.266778	-0.676246	0.471497
H152	H	0.766778	-0.176246	0.971497
Cl153	Cl	1.086465	-0.675208	0.800980
Cl154	Cl	1.586465	-0.175208	1.300980
H155	H	0.931081	-0.433801	1.108557
H156	H	1.431081	0.066199	1.608557
H157	H	0.904229	-0.392074	0.777389
H158	H	1.404229	0.107926	1.277389
Cl159	Cl	1.093124	-0.685553	0.635348
Cl160	Cl	1.593124	-0.185553	1.135348
H161	H	1.099423	-0.695371	0.981970
H162	H	1.599423	-0.195371	1.481970
Cl163	Cl	0.917191	-0.412215	0.958379
Cl164	Cl	1.417191	0.087785	1.458379
H165	H	0.597958	-0.637642	0.444639
H166	H	1.097958	-0.137642	0.944639
H167	H	0.273315	-0.442188	0.308726
H168	H	0.773315	0.057812	0.808726
H169	H	1.086718	-0.953400	0.301137
H170	H	1.586718	-0.453400	0.801137
Cl171	Cl	0.754675	-0.383629	0.267974
Cl172	Cl	1.254675	0.116371	0.767974
Cl173	Cl	1.113324	-0.716938	1.132157
Cl174	Cl	1.613324	-0.216938	1.632157
H175	H	0.909578	-0.400382	0.644249
H176	H	1.409578	0.099618	1.144249
Cl177	Cl	0.826873	-0.926687	0.666008
Cl178	Cl	1.326873	-0.426687	1.166008
Cl179	Cl	0.423493	-0.422220	0.294838
Cl180	Cl	0.923493	0.077780	0.794838
H181	H	0.604482	-0.403593	0.281866
H182	H	1.104482	0.096407	0.781866
H183	H	1.085960	-1.064028	0.201018
H184	H	1.585960	-0.564028	0.701018
H185	H	1.231117	-1.338220	0.168286
H186	H	1.731117	-0.838220	0.668286
Cl187	Cl	1.176871	-1.159711	0.092669
Cl188	Cl	1.676871	-0.659711	0.592669
Cl189	Cl	1.221192	-1.434134	0.302988
Cl190	Cl	1.721192	-0.934134	0.802988
H191	H	0.797309	-0.692499	0.466789
H192	H	1.297309	-0.192499	0.966789
Cl193	Cl	0.932503	-1.062629	0.568761
Cl194	Cl	1.432503	-0.562629	1.068761
