data_functionalizedCrystal
_audit_creation_method	'MofGen! by Chris Wilmer'
_symmetry_space_group_name_H-M	'P1'
_symmetry_Int_Tables_number	1
_symmetry_cell_setting	triclinic
loop_
_symmetry_equiv_pos_as_xyz
  x,y,z
_cell_length_a	19.805407
_cell_length_b	15.297327
_cell_length_c	19.805384
_cell_angle_alpha	99.587708
_cell_angle_beta	89.931692
_cell_angle_gamma	99.707092
loop_
_atom_site_label
_atom_site_type_symbol
_atom_site_fract_x
_atom_site_fract_y
_atom_site_fract_z
Zn1	Zn	0.988555	-0.358479	-0.429245
Zn2	Zn	0.968781	-0.509503	-0.335657
Zn3	Zn	0.875246	-0.358691	-0.316097
Zn4	Zn	0.855771	-0.509268	-0.448774
O5	O	0.922088	-0.433986	-0.382443
O6	O	1.080648	-0.378523	-0.416844
O7	O	0.956248	-0.489685	-0.238370
O8	O	0.906703	-0.232442	-0.314748
O9	O	1.066120	-0.489479	-0.348085
O10	O	0.989950	-0.232287	-0.397877
O11	O	0.887528	-0.378884	-0.223999
O12	O	0.777947	-0.378656	-0.333684
O13	O	0.873511	-0.489079	-0.540876
O14	O	0.763639	-0.489284	-0.431161
O15	O	0.971066	-0.378295	-0.526528
O16	O	0.937364	-0.635693	-0.367021
O17	O	0.854337	-0.635521	-0.450127
C18	C	0.746235	-0.433968	-0.382419
C19	C	0.671001	-0.433983	-0.382428
C20	C	0.628213	-0.491674	-0.433125
C21	C	0.557524	-0.491675	-0.433135
C22	C	0.529624	-0.433990	-0.382444
C23	C	0.572418	-0.376292	-0.331744
C24	C	0.643106	-0.376287	-0.331737
C25	C	0.287342	-0.376312	-0.331769
C26	C	0.216649	-0.376324	-0.331778
C27	C	0.201761	-0.491701	-0.433166
C28	C	0.272448	-0.491695	-0.433160
C29	C	0.315236	-0.433995	-0.382462
C30	C	0.391885	-0.433993	-0.382453
C31	C	0.452976	-0.433996	-0.382450
C32	C	0.891610	-0.668335	-0.412830
C33	C	0.878633	-0.768590	-0.425853
C34	C	1.015116	-1.051427	-0.289601
C35	C	1.027308	-0.957232	-0.277363
C36	C	0.990141	-0.910067	-0.314484
C37	C	0.940778	-0.957106	-0.363846
C38	C	0.928581	-1.051310	-0.376082
C39	C	0.903606	-0.909950	-0.400965
C40	C	0.854244	-0.956989	-0.450327
C41	C	0.842049	-1.051184	-0.462561
C42	C	0.879217	-1.098349	-0.425440
C43	C	0.915803	-0.815746	-0.388729
C44	C	0.829268	-0.815629	-0.475210
C45	C	0.817076	-0.909824	-0.487449
C46	C	1.098629	-0.434004	-0.382468
C47	C	1.173860	-0.434011	-0.382478
C48	C	0.922322	-0.433637	-0.558941
C49	C	0.922421	-0.433488	-0.634154
C50	C	0.952705	-0.198722	-0.351952
C51	C	0.965751	-0.098466	-0.338959
C52	C	0.921903	-0.434268	-0.206623
C53	C	0.921968	-0.434162	-0.131378
C54	C	0.885852	-0.376849	-0.088632
C55	C	0.885919	-0.376749	-0.017931
C56	C	0.922098	-0.433968	0.010023
C57	C	0.958218	-0.491284	-0.032728
C58	C	0.958155	-0.491379	-0.103428
C59	C	0.958475	-0.490904	0.252394
C60	C	0.958534	-0.490807	0.323098
C61	C	0.886239	-0.376275	0.337890
C62	C	0.886176	-0.376369	0.267191
C63	C	0.922298	-0.433681	0.224447
C64	C	0.922227	-0.433787	0.147785
C65	C	0.922166	-0.433867	0.086683
H66	H	0.955994	-0.777455	-0.348538
H67	H	0.856829	-0.329605	0.372702
H68	H	1.045368	-1.089838	-0.259378
O69	O	1.075304	-0.911681	-0.229418
C70	C	1.105484	-0.973506	-0.199267
H71	H	1.099149	-1.040583	-0.235705
H72	H	1.162340	-0.946250	-0.188558
H73	H	1.079369	-0.983677	-0.149158
H74	H	0.799002	-0.777228	-0.505436
H75	H	0.869294	-1.175050	-0.435404
O76	O	0.850696	-0.321181	-0.115668
C77	C	0.818821	-0.270590	-0.062777
H78	H	0.847014	-0.267135	-0.012001
H79	H	0.820434	-0.199621	-0.074120
H80	H	0.763241	-0.304101	-0.059441
H81	H	0.856713	-0.329779	0.244435
O82	O	0.160102	-0.547661	-0.482388
C83	C	0.091726	-0.535315	-0.471520
H84	H	0.091093	-0.465703	-0.440415
H85	H	0.064132	-0.541443	-0.523009
H86	H	0.064662	-0.588812	-0.442347
H87	H	0.801847	-1.089480	-0.502747
H88	H	0.776885	-0.948136	-0.527640
H89	H	0.650923	-0.538651	-0.474402
H90	H	0.677944	-0.329304	-0.290457
H91	H	0.856509	-0.330080	0.016870
O92	O	0.993743	-0.546418	0.350145
C93	C	1.025599	-0.597039	0.297256
H94	H	1.032510	-0.560142	0.251577
H95	H	1.077811	-0.606117	0.316424
H96	H	0.992239	-0.665792	0.281002
O97	O	0.993659	-0.546442	0.210872
C98	C	1.043789	-0.494717	0.176506
H99	H	1.056833	-0.423608	0.206882
H100	H	1.091882	-0.526825	0.171521
H101	H	1.023191	-0.491894	0.123328
O102	O	0.993252	-0.546964	-0.005557
C103	C	0.947442	-0.605518	0.027935
H104	H	0.893356	-0.611627	0.005951
H105	H	0.963297	-0.674696	0.019855
H106	H	0.948630	-0.577581	0.085081
O107	O	0.993248	-0.547139	-0.144860
C108	C	1.025208	-0.597607	-0.105027
H109	H	0.997105	-0.600931	-0.055011
H110	H	1.023561	-0.668628	-0.134539
H111	H	1.080800	-0.564072	-0.093322
H112	H	0.522689	-0.538654	-0.474417
H113	H	0.295160	-0.538672	-0.474436
O114	O	1.002092	-0.818567	-0.302537
C115	C	1.053618	-0.787162	-0.250998
H116	H	1.086133	-0.841430	-0.248600
H117	H	1.087481	-0.724067	-0.263251
H118	H	1.028909	-0.770596	-0.199470
H119	H	0.193936	-0.329344	-0.290498
H120	H	0.322171	-0.329336	-0.290483
H121	H	0.549697	-0.329320	-0.290472
