data_functionalizedCrystal
_audit_creation_method	'MofGen! by Chris Wilmer'
_symmetry_space_group_name_H-M	'P1'
_symmetry_Int_Tables_number	1
_symmetry_cell_setting	triclinic
loop_
_symmetry_equiv_pos_as_xyz
  x,y,z
_cell_length_a	18.050591
_cell_length_b	29.839131
_cell_length_c	18.050582
_cell_angle_alpha	90.025477
_cell_angle_beta	90.020922
_cell_angle_gamma	90.037426
loop_
_atom_site_label
_atom_site_type_symbol
_atom_site_fract_x
_atom_site_fract_y
_atom_site_fract_z
Zn1	Zn	1.135224	-0.178930	0.420016
Zn2	Zn	1.135106	-0.254052	0.295820
Zn3	Zn	1.011044	-0.178932	0.295827
Zn4	Zn	1.010963	-0.254028	0.419956
O5	O	1.073084	-0.216485	0.357905
O6	O	1.239133	-0.188904	0.403564
O7	O	1.118634	-0.244098	0.191896
O8	O	1.027600	-0.116064	0.312330
O9	O	1.239047	-0.244096	0.312317
O10	O	1.118835	-0.116063	0.403571
O11	O	1.027485	-0.188907	0.191902
O12	O	0.907108	-0.188884	0.312271
O13	O	1.027462	-0.244056	0.523888
O14	O	0.907049	-0.244057	0.403467
O15	O	1.118756	-0.188881	0.523933
O16	O	1.118555	-0.316916	0.312258
O17	O	1.027348	-0.316898	0.403460
C18	C	0.880132	-0.216469	0.357864
C19	C	0.797586	-0.216472	0.357864
C20	C	1.072950	-0.333208	0.357868
C21	C	1.072961	-0.383142	0.357877
C22	C	0.598146	-0.186434	0.308386
C23	C	0.548711	-0.227410	0.290106
C24	C	0.646456	-0.216486	0.357897
C25	C	0.548810	-0.175525	0.376175
C26	C	0.500471	-0.216495	0.357928
C27	C	0.598108	-0.257483	0.339583
C28	C	0.598211	-0.205570	0.425683
C29	C	0.548798	-0.246574	0.407429
C30	C	0.730554	-0.216480	0.357878
C31	C	0.416374	-0.216506	0.357948
C32	C	1.120663	-0.692782	0.310485
C33	C	1.120754	-0.880455	0.310514
O34	O	1.161206	-0.904717	0.270192
N35	N	1.073238	-0.903927	0.357961
C36	C	1.025700	-0.880478	0.405407
O37	O	0.985292	-0.904749	0.445769
C38	C	1.025612	-0.692806	0.405381
C39	C	1.073126	-0.669337	0.357926
C40	C	1.168173	-0.669312	0.263035
C41	C	1.168147	-0.622397	0.263025
C42	C	1.120610	-0.598951	0.310466
C43	C	1.073100	-0.622421	0.357917
C44	C	0.978078	-0.669358	0.452831
C45	C	0.978062	-0.622437	0.452822
C46	C	1.025575	-0.598967	0.405367
C47	C	1.025537	-0.552060	0.405348
N48	N	1.073053	-0.528588	0.357902
C49	C	1.120589	-0.552033	0.310461
C50	C	1.025748	-0.979009	0.405416
C51	C	1.025769	-1.025927	0.405422
C52	C	1.120824	-1.025900	0.310530
C53	C	1.120799	-0.978982	0.310521
C54	C	1.073264	-0.955537	0.357970
C55	C	1.120530	-0.453508	0.310444
C56	C	1.120497	-0.406588	0.310436
C57	C	1.025445	-0.406619	0.405331
C58	C	1.025474	-0.453534	0.405336
C59	C	1.073023	-0.476977	0.357890
O60	O	0.985113	-0.527769	0.445655
O61	O	1.161002	-0.527755	0.270116
C62	C	1.120689	-0.739698	0.310495
C63	C	1.073178	-0.763167	0.357946
C64	C	1.025642	-0.739722	0.405387
C65	C	1.073199	-0.810085	0.357951
C66	C	1.120736	-0.833531	0.310510
C67	C	1.168252	-0.810059	0.263064
C68	C	1.168225	-0.763143	0.263054
C69	C	0.978126	-0.763194	0.452833
C70	C	0.978155	-0.810109	0.452838
C71	C	1.025692	-0.833555	0.405397
C72	C	1.266790	-0.216502	0.357947
C73	C	1.349336	-0.216510	0.357964
C74	C	1.073113	-0.216465	0.551611
C75	C	1.073126	-0.216457	0.634156
C76	C	1.073239	-0.099307	0.357958
C77	C	1.073305	-0.049373	0.357981
C78	C	1.073098	-0.216473	0.164953
C79	C	1.073230	-0.216355	0.082407
C80	C	1.023518	-0.246420	0.833583
C81	C	1.091269	-0.257404	0.882980
C82	C	1.073162	-0.216423	0.785287
C83	C	1.005449	-0.205426	0.882971
C84	C	1.073192	-0.216390	0.931272
C85	C	1.140949	-0.227429	0.833597
C86	C	1.055083	-0.175431	0.833584
C87	C	1.122881	-0.186400	0.882959
C88	C	1.073145	-0.216442	0.701189
C89	C	1.073218	-0.216371	1.015369
H90	H	0.619814	-0.161048	0.266470
C91	C	0.627614	-0.193069	0.503083
N92	N	0.649765	-0.183647	0.561380
C93	C	0.925849	-0.737410	0.505045
N94	N	0.886475	-0.717992	0.544379
H95	H	1.159189	-0.387480	0.271790
H96	H	0.526970	-0.236650	0.232794
C97	C	1.220492	-0.737333	0.210847
N98	N	1.259862	-0.717895	0.171521
H99	H	0.981575	-0.271821	0.811904
C100	C	0.973493	-1.051738	0.457619
N101	N	0.934120	-1.071178	0.496939
C102	C	0.928070	-0.192876	0.912268
N103	N	0.869786	-0.183427	0.934330
H104	H	0.619673	-0.292138	0.324073
C105	C	0.519701	-0.280951	0.464009
N106	N	0.497783	-0.306846	0.506620
C107	C	0.519556	-0.128721	0.397046
N108	N	0.497526	-0.093468	0.412761
H109	H	1.206838	-0.603291	0.224386
C110	C	1.172832	-0.479289	0.258246
N111	N	1.212221	-0.498706	0.218927
C112	C	1.173070	-0.953169	0.258320
N113	N	1.212443	-0.933730	0.219000
H114	H	1.159531	-1.044998	0.271902
C115	C	0.973471	-0.953226	0.457636
N116	N	0.934101	-0.933808	0.496975
H117	H	1.206887	-0.688397	0.224403
C118	C	0.925767	-0.596651	0.505021
N119	N	0.886378	-0.577229	0.544335
C120	C	0.973205	-0.479352	0.457535
N121	N	0.933840	-0.498794	0.496859
C122	C	0.973160	-0.380819	0.457516
N123	N	0.933783	-0.361386	0.496827
C124	C	1.179678	-0.152110	0.912065
N125	N	1.222460	-0.126285	0.933988
H126	H	1.106579	-0.292056	0.904678
H127	H	0.939383	-0.688459	0.491470
C128	C	1.220541	-0.835858	0.210878
N129	N	1.259926	-0.855292	0.171576
C130	C	1.218349	-0.240034	0.804423
N131	N	1.276645	-0.249530	0.782447
C132	C	0.925882	-0.835921	0.505045
N133	N	0.886515	-0.855360	0.544371
C134	C	1.034371	-0.128632	0.804243
N135	N	1.018763	-0.093383	0.782141
