data_functionalizedCrystal
_audit_creation_method	'MofGen! by Chris Wilmer'
_symmetry_space_group_name_H-M	'P1'
_symmetry_Int_Tables_number	1
_symmetry_cell_setting	triclinic
loop_
_symmetry_equiv_pos_as_xyz
  x,y,z
_cell_length_a	16.992701
_cell_length_b	10.967829
_cell_length_c	16.053802
_cell_angle_alpha	80.477515
_cell_angle_beta	87.243340
_cell_angle_gamma	87.621741
loop_
_atom_site_label
_atom_site_type_symbol
_atom_site_fract_x
_atom_site_fract_y
_atom_site_fract_z
O1	O	1.046848	0.257169	-0.106432
O2	O	0.818527	0.254297	-0.106020
O3	O	0.936733	0.076438	-0.080427
O4	O	0.928643	0.435028	-0.132025
O5	O	0.930226	0.086185	0.057030
O6	O	0.812021	0.264044	0.031437
O7	O	1.040341	0.266915	0.031024
Zn8	Zn	0.925148	0.267027	0.053055
Zn9	Zn	0.933721	0.254185	-0.128050
O10	O	0.922136	0.444774	0.005431
C11	C	0.786016	0.255472	-0.036759
C12	C	0.698837	0.244438	-0.035172
C13	C	0.208970	0.170300	-0.024507
C14	C	0.290883	0.180677	-0.025995
C15	C	0.323857	0.297529	-0.042813
C16	C	0.274913	0.404011	-0.058136
C17	C	0.193001	0.393633	-0.056641
C18	C	0.567981	0.340542	-0.049000
C19	C	0.649899	0.350912	-0.050496
C20	C	0.665864	0.127577	-0.018354
C21	C	0.583950	0.117208	-0.016866
C22	C	0.535012	0.223691	-0.032184
N23	N	0.407586	0.308139	-0.044337
N24	N	0.451285	0.213080	-0.030654
C25	C	0.932399	0.035215	-0.005067
C26	C	0.929171	-0.102136	0.014691
C27	C	0.931102	-0.168415	-0.047707
C28	C	0.927766	-0.310376	-0.027287
C29	C	1.072852	0.265740	-0.038238
C30	C	1.160032	0.276774	-0.039831
C31	C	0.926470	0.485997	-0.069930
C32	C	0.929698	0.623348	-0.089694
N33	N	0.919303	0.275791	0.176654
N34	N	0.939572	0.245412	-0.251648
C35	C	0.969618	0.200142	0.231233
C36	C	0.965537	0.206285	0.317756
C37	C	0.911143	0.288084	0.349697
C38	C	0.860822	0.363736	0.295111
C39	C	0.864900	0.357586	0.208591
C40	C	0.893329	0.314914	0.607246
C41	C	0.889256	0.321061	0.693773
C42	C	0.993971	0.163608	0.716412
C43	C	0.998047	0.157470	0.629888
C44	C	0.947723	0.233117	0.575311
N45	N	0.906972	0.294368	0.438136
N46	N	0.951891	0.226826	0.486874
H47	H	0.676743	0.446073	-0.064180
F48	F	1.055939	0.070412	0.595896
F49	F	0.922370	-0.373565	0.062305
H50	H	1.013915	0.133539	0.205233
H51	H	0.852355	0.376511	0.562815
F52	F	0.802928	0.450788	0.329106
H53	H	0.933813	-0.328304	-0.158238
F54	F	0.310008	0.528375	-0.076032
H55	H	0.557108	0.022055	-0.003171
F56	F	0.831360	0.408130	0.727759
H57	H	1.006507	0.144685	0.362195
H58	H	1.034941	0.102018	0.760857
H59	H	0.182129	0.075146	-0.010817
H60	H	0.823927	0.419185	0.164152
H61	H	0.330725	0.093974	-0.013514
F62	F	0.515909	0.453871	-0.065312
F63	F	0.717951	0.014259	-0.002048
F64	F	0.140917	0.506958	-0.072947
F65	F	0.936506	-0.105222	-0.137294
F66	F	0.923775	-0.165331	0.104279
