data_functionalizedCrystal
_audit_creation_method	'MofGen! by Chris Wilmer'
_symmetry_space_group_name_H-M	'P1'
_symmetry_Int_Tables_number	1
_symmetry_cell_setting	triclinic
loop_
_symmetry_equiv_pos_as_xyz
  x,y,z
_cell_length_a	19.805407
_cell_length_b	19.805405
_cell_length_c	19.805399
_cell_angle_alpha	89.970699
_cell_angle_beta	89.980427
_cell_angle_gamma	90.026410
loop_
_atom_site_label
_atom_site_type_symbol
_atom_site_fract_x
_atom_site_fract_y
_atom_site_fract_z
Zn1	Zn	-1.034736	0.269479	0.382712
Zn2	Zn	-0.534736	0.769479	0.882712
Zn3	Zn	-1.034651	0.382667	0.269520
Zn4	Zn	-0.534651	0.882667	0.769520
Zn5	Zn	-0.921550	0.269498	0.269536
Zn6	Zn	-0.421550	0.769498	0.769536
Zn7	Zn	-0.921514	0.382631	0.382667
Zn8	Zn	-0.421514	0.882631	0.882667
O9	O	-0.978113	0.326069	0.326109
O10	O	-0.478113	0.826069	0.826109
O11	O	-1.129441	0.284501	0.367708
O12	O	-0.629441	0.784501	0.867708
O13	O	-1.019627	0.367678	0.174805
O14	O	-0.519627	0.867678	0.674805
O15	O	-0.936616	0.174778	0.284575
O16	O	-0.436616	0.674778	0.784575
O17	O	-1.129378	0.367660	0.284547
O18	O	-0.629378	0.867660	0.784547
O19	O	-1.019772	0.174765	0.367724
O20	O	-0.519772	0.674765	0.867724
O21	O	-0.936533	0.284533	0.174817
O22	O	-0.436533	0.784533	0.674817
O23	O	-0.826829	0.284498	0.284531
O24	O	-0.326829	0.784498	0.784531
O25	O	-0.936553	0.367598	0.477389
O26	O	-0.436553	0.867598	0.977389
O27	O	-0.826802	0.367617	0.367648
O28	O	-0.326802	0.867617	0.867648
O29	O	-1.019737	0.284466	0.477422
O30	O	-0.519737	0.784466	0.977422
O31	O	-1.019592	0.477379	0.284503
O32	O	-0.519592	0.977379	0.784503
O33	O	-0.936471	0.477353	0.367632
O34	O	-0.436471	0.977353	0.867632
C35	C	-0.802257	0.326056	0.326087
C36	C	-0.302257	0.826056	0.826087
C37	C	-0.727025	0.326067	0.326093
C38	C	-0.227025	0.826067	0.826093
C39	C	-0.978036	0.501925	0.326076
C40	C	-0.478036	1.001925	0.826076
C41	C	-0.978066	0.577157	0.326084
C42	C	-0.478066	1.077157	0.826084
C43	C	-0.978151	0.326026	0.502651
C44	C	-0.478151	0.826026	1.002651
C45	C	-0.978167	0.326008	0.577883
C46	C	-0.478167	0.826008	1.077883
C47	C	-1.154655	0.326082	0.326131
C48	C	-0.654655	0.826082	0.826131
C49	C	-1.229887	0.326088	0.326140
C50	C	-0.729887	0.826088	0.826140
C51	C	-0.691684	0.369412	0.369302
C52	C	-0.191684	0.869412	0.869302
C53	C	-0.620996	0.369413	0.369312
C54	C	-0.120996	0.869413	0.869312
C55	C	-0.585649	0.326072	0.326109
C56	C	-0.085649	0.826072	0.826109
C57	C	-0.620994	0.282722	0.282898
C58	C	-0.120994	0.782722	0.782898
C59	C	-0.691681	0.282718	0.282892
C60	C	-0.191681	0.782718	0.782892
C61	C	-0.335921	0.282737	0.282920
C62	C	0.164079	0.782737	0.782920
C63	C	-0.265229	0.282746	0.282928
C64	C	0.234771	0.782746	0.782928
C65	C	-0.265235	0.369432	0.369340
C66	C	0.234765	0.869432	0.869340
C67	C	-0.335922	0.369428	0.369334
C68	C	0.164078	0.869428	0.869334
C69	C	-0.371262	0.326076	0.326126
C70	C	0.128738	0.826076	0.826126
C71	C	-0.447910	0.326074	0.326117
C72	C	0.052090	0.826074	0.826117
C73	C	-0.509002	0.326076	0.326114
C74	C	-0.009002	0.826076	0.826114
C75	C	-0.978207	0.149526	0.326156
C76	C	-0.478207	0.649526	0.826156
C77	C	-0.978248	0.074294	0.326177
C78	C	-0.478248	0.574294	0.826177
C79	C	-1.021389	0.612492	0.282845
C80	C	-0.521389	1.112492	0.782845
C81	C	-1.021418	0.683181	0.282860
C82	C	-0.521418	1.183181	0.782860
C83	C	-0.978119	0.718532	0.326111
C84	C	-0.478119	1.218532	0.826111
C85	C	-0.934794	0.683192	0.369356
C86	C	-0.434794	1.183192	0.869356
C87	C	-0.934769	0.612505	0.369344
C88	C	-0.434769	1.112505	0.869344
C89	C	-0.934894	0.968265	0.369406
C90	C	-0.434894	1.468265	0.869406
C91	C	-0.934921	1.038957	0.369413
C92	C	-0.434921	1.538957	0.869413
C93	C	-1.021542	1.038941	0.282922
C94	C	-0.521542	1.538941	0.782922
C95	C	-1.021517	0.968254	0.282910
C96	C	-0.521517	1.468254	0.782910
C97	C	-0.978195	0.932920	0.326157
C98	C	-0.478195	1.432920	0.826157
C99	C	-0.978166	0.856271	0.326141
C100	C	-0.478166	1.356271	0.826141
C101	C	-0.978145	0.795179	0.326124
C102	C	-0.478145	1.295179	0.826124
C103	C	-0.978114	0.326062	0.150253
C104	C	-0.478114	0.826062	0.650253
C105	C	-0.978229	0.325890	0.075021
C106	C	-0.478229	0.825890	0.575021
C107	C	-1.021481	0.282719	0.613246
C108	C	-0.521481	0.782719	1.113246
C109	C	-1.021488	0.282699	0.683934
C110	C	-0.521488	0.782699	1.183934
C111	C	-0.978184	0.325973	0.719259
C112	C	-0.478184	0.825973	1.219259
C113	C	-0.934864	0.369264	0.683892
C114	C	-0.434864	0.869264	1.183892
C115	C	-0.934854	0.369279	0.613204
C116	C	-0.434854	0.869279	1.113204
C117	C	-0.934902	0.369201	0.968965
C118	C	-0.434902	0.869201	1.468965
C119	C	-0.934917	0.369183	1.039657
C120	C	-0.434917	0.869183	1.539657
C121	C	-1.021536	0.282620	1.039695
C122	C	-0.521536	0.782620	1.539695
C123	C	-1.021527	0.282636	0.969008
C124	C	-0.521527	0.782636	1.469008
C125	C	-0.978205	0.325924	0.933647
C126	C	-0.478205	0.825924	1.433647
C127	C	-0.978197	0.325944	0.856998
C128	C	-0.478197	0.825944	1.356998
C129	C	-0.978194	0.325957	0.795906
C130	C	-0.478194	0.825957	1.295906
H131	H	-0.592225	0.404709	0.404496
H132	H	-0.092225	0.904709	0.904496
C133	C	-1.030947	0.191623	0.763436
C134	C	-0.530947	0.691623	1.263436
C135	C	-1.069098	0.235105	0.722798
C136	C	-0.569098	0.735105	1.222798
H137	H	-1.060340	0.162234	0.787423
H138	H	-0.560340	0.662234	1.287423
H139	H	-1.005168	0.217389	0.794592
H140	H	-0.505168	0.717389	1.294592
H141	H	-1.001466	0.165748	0.735849
H142	H	-0.501466	0.665748	1.235849
H143	H	-1.098575	0.260984	0.750386
H144	H	-0.598575	0.760984	1.250386
H145	H	-1.094888	0.209336	0.691638
H146	H	-0.594888	0.709336	1.191638
H147	H	-0.720455	0.247418	0.247711
H148	H	-0.220455	0.747418	0.747711
C149	C	-1.107145	0.197061	0.976147
C150	C	-0.607145	0.697061	1.476147
C151	C	-1.069126	0.235066	0.930180
C152	C	-0.569126	0.735066	1.430180
H153	H	-1.136526	0.167689	0.952175
H154	H	-0.636526	0.667689	1.452175
H155	H	-1.133025	0.226546	1.003711
H156	H	-0.633025	0.726546	1.503711
H157	H	-1.077665	0.171166	1.003722
H158	H	-0.577665	0.671166	1.503722
H159	H	-1.098606	0.260966	0.902608
H160	H	-0.598606	0.760966	1.402608
H161	H	-1.043244	0.205578	0.902604
H162	H	-0.543244	0.705578	1.402604
C163	C	-0.800043	0.407902	0.407663
C164	C	-0.300043	0.907902	0.907663
C165	C	-0.730535	0.417055	0.416792
C166	C	-0.230535	0.917055	0.916792
H167	H	-0.824025	0.437318	0.436981
H168	H	-0.324025	0.937318	0.936981
H169	H	-0.811647	0.362443	0.417651
H170	H	-0.311647	0.862443	0.917651
H171	H	-0.811598	0.417750	0.362165
H172	H	-0.311598	0.917750	0.862165
H173	H	-0.718979	0.407202	0.462289
H174	H	-0.218979	0.907202	0.962289
H175	H	-0.718926	0.462524	0.406808
H176	H	-0.218926	0.962524	0.906808
H177	H	-0.899650	0.404423	1.068417
H178	H	-0.399650	0.904423	1.568417
H179	H	-0.899492	0.583735	0.404555
H180	H	-0.399492	1.083735	0.904555
C181	C	-0.849268	0.454749	0.976038
C182	C	-0.349268	0.954749	1.476038
C183	C	-0.887275	0.416774	0.930102
C184	C	-0.387275	0.916774	1.430102
H185	H	-0.819863	0.484119	0.952042
H186	H	-0.319863	0.984119	1.452042
H187	H	-0.823413	0.425246	1.003618
H188	H	-0.323413	0.925246	1.503618
H189	H	-0.878753	0.480646	1.003600
H190	H	-0.378753	0.980646	1.503600
H191	H	-0.857790	0.390874	0.902543
H192	H	-0.357790	0.890874	1.402543
H193	H	-0.913132	0.446281	0.902510
H194	H	-0.413132	0.946281	1.402510
C195	C	-0.896419	0.407680	0.792232
C196	C	-0.396419	0.907680	1.292232
C197	C	-0.887262	0.416832	0.722719
C198	C	-0.387262	0.916832	1.222719
H199	H	-0.867034	0.437052	0.816200
H200	H	-0.367034	0.937052	1.316200
H201	H	-0.886539	0.362205	0.803825
H202	H	-0.386539	0.862205	1.303825
H203	H	-0.941895	0.417589	0.803815
H204	H	-0.441895	0.917589	1.303815
H205	H	-0.841787	0.406918	0.711136
H206	H	-0.341787	0.906918	1.211136
H207	H	-0.897138	0.462317	0.711122
H208	H	-0.397138	0.962317	1.211122
H209	H	-1.056809	0.247370	1.068495
H210	H	-0.556809	0.747370	1.568495
H211	H	-0.899576	0.404523	0.584413
H212	H	-0.399576	0.904523	1.084413
H213	H	-0.364698	0.404723	0.404512
H214	H	0.135302	0.904723	0.904512
H215	H	-0.592209	0.247430	0.247724
H216	H	-0.092209	0.747430	0.747724
C217	C	-1.054594	1.060773	0.168344
C218	C	-0.554594	1.560773	0.668344
C219	C	-1.069169	1.077790	0.235394
C220	C	-0.569169	1.577790	0.735394
H221	H	-1.083993	1.084761	0.139006
H222	H	-0.583993	1.584761	0.639006
H223	H	-1.060780	1.013622	0.162146
H224	H	-0.560780	1.513622	0.662146
H225	H	-1.009125	1.072405	0.158407
H226	H	-0.509125	1.572405	0.658407
H227	H	-1.114637	1.066153	0.245333
H228	H	-0.614637	1.566153	0.745333
H229	H	-1.062989	1.124952	0.241596
H230	H	-0.562989	1.624952	0.741596
C231	C	-0.843896	1.118519	0.378755
C232	C	-0.343896	1.618519	0.878755
C233	C	-0.887327	1.077817	0.416964
C234	C	-0.387327	1.577817	0.916964
H235	H	-0.814514	1.142506	0.408110
H236	H	-0.314514	1.642506	0.908110
H237	H	-0.869700	1.149675	0.353007
H238	H	-0.369700	1.649675	0.853007
H239	H	-0.818011	1.090975	0.349244
H240	H	-0.318011	1.590975	0.849244
H241	H	-0.913216	1.105361	0.446471
H242	H	-0.413216	1.605361	0.946471
H243	H	-0.861521	1.046657	0.442724
H244	H	-0.361521	1.546657	0.942724
H245	H	-1.056644	0.583713	0.247621
H246	H	-0.556644	1.083713	0.747621
C247	C	-0.185713	0.273231	0.191894
C248	C	0.314287	0.773231	0.691894
C249	C	-0.226380	0.235103	0.235429
C250	C	0.273620	0.735103	0.735429
H251	H	-0.161735	0.243822	0.162567
H252	H	0.338265	0.743822	0.662567
H253	H	-0.154549	0.299040	0.217627
H254	H	0.345451	0.799040	0.717627
H255	H	-0.213279	0.302683	0.165956
H256	H	0.286721	0.802683	0.665956
H257	H	-0.198813	0.205655	0.261371
H258	H	0.301187	0.705655	0.761371
H259	H	-0.257548	0.209284	0.209693
H260	H	0.242452	0.709284	0.709693
H261	H	-0.899618	0.939502	0.404618
H262	H	-0.399618	1.439502	0.904618
H263	H	-1.056747	0.247482	0.584489
H264	H	-0.556747	0.747482	1.084489
C265	C	-1.136076	0.704731	0.250049
C266	C	-0.636076	1.204731	0.750049
C267	C	-1.069091	0.721959	0.235330
C268	C	-0.569091	1.221959	0.735330
H269	H	-1.165524	0.728650	0.220702
H270	H	-0.665524	1.228650	0.720702
H271	H	-1.145942	0.716299	0.295529
H272	H	-0.645942	1.216299	0.795529
H273	H	-1.142193	0.657560	0.243886
H274	H	-0.642193	1.157560	0.743886
H275	H	-1.062974	0.769129	0.241497
H276	H	-0.562974	1.269129	0.741497
H277	H	-1.059222	0.710396	0.189838
H278	H	-0.559222	1.210396	0.689838
C279	C	-0.156879	0.407930	0.407733
C280	C	0.343121	0.907930	0.907733
C281	C	-0.226388	0.417080	0.416843
C282	C	0.273612	0.917080	0.916843
H283	H	-0.132900	0.437344	0.437061
H284	H	0.367100	0.937344	0.937061
H285	H	-0.145272	0.417778	0.362244
H286	H	0.354728	0.917778	0.862244
H287	H	-0.145325	0.362465	0.417725
H288	H	0.354675	0.862465	0.917725
H289	H	-0.237943	0.462544	0.406845
H290	H	0.262057	0.962544	0.906845
H291	H	-0.238000	0.407237	0.462342
H292	H	0.262000	0.907237	0.962342
C293	C	-0.328805	0.197049	0.197506
C294	C	0.171195	0.697049	0.697506
C295	C	-0.374760	0.235086	0.235426
C296	C	0.125240	0.735086	0.735426
H297	H	-0.352786	0.167633	0.168182
H298	H	0.147214	0.667633	0.668182
H299	H	-0.301256	0.171206	0.227047
H300	H	0.198744	0.671206	0.727047
H301	H	-0.301213	0.226516	0.171564
H302	H	0.198787	0.726516	0.671564
H303	H	-0.402348	0.205620	0.261373
H304	H	0.097652	0.705620	0.761373
H305	H	-0.402320	0.260931	0.205881
H306	H	0.097680	0.760931	0.705881
H307	H	-1.056773	0.939473	0.247688
H308	H	-0.556773	1.439473	0.747688
C309	C	-0.896363	0.791556	0.407775
C310	C	-0.396363	1.291556	0.907775
C311	C	-0.887197	0.722049	0.416898
C312	C	-0.387197	1.222049	0.916898
H313	H	-0.866973	0.815542	0.437122
H314	H	-0.366973	1.315542	0.937122
H315	H	-0.941832	0.803095	0.417728
H316	H	-0.441832	1.303095	0.917728
H317	H	-0.886488	0.803170	0.362287
H318	H	-0.386488	1.303170	0.862287
H319	H	-0.897077	0.710434	0.462384
H320	H	-0.397077	1.210434	0.962384
H321	H	-0.841718	0.710506	0.406950
H322	H	-0.341718	1.210506	0.906950
