data_functionalizedCrystal
_audit_creation_method	'MofGen! by Chris Wilmer'
_symmetry_space_group_name_H-M	'P1'
_symmetry_Int_Tables_number	1
_symmetry_cell_setting	triclinic
loop_
_symmetry_equiv_pos_as_xyz
  x,y,z
_cell_length_a	15.624803
_cell_length_b	10.654541
_cell_length_c	14.750488
_cell_angle_alpha	102.767612
_cell_angle_beta	85.135395
_cell_angle_gamma	95.650927
loop_
_atom_site_label
_atom_site_type_symbol
_atom_site_fract_x
_atom_site_fract_y
_atom_site_fract_z
O1	O	1.085999	-0.319998	-0.457976
O2	O	1.585999	0.180002	0.042024
O3	O	0.844099	-0.310836	-0.373748
O4	O	1.344099	0.189164	0.126252
O5	O	0.970613	-0.133273	-0.417793
O6	O	1.470613	0.366727	0.082207
O7	O	0.959485	-0.497561	-0.413930
O8	O	1.459485	0.002439	0.086070
O9	O	1.006389	-0.083078	-0.270591
O10	O	1.506389	0.416922	0.229409
O11	O	0.879875	-0.260642	-0.226546
O12	O	1.379875	0.239358	0.273454
O13	O	1.121774	-0.269803	-0.310774
O14	O	1.621774	0.230197	0.189226
Zn15	Zn	1.006505	-0.257253	-0.245288
Zn16	Zn	1.506505	0.242747	0.254712
Zn17	Zn	0.959369	-0.323387	-0.439233
Zn18	Zn	1.459369	0.176613	0.060767
O19	O	0.995260	-0.447367	-0.266728
O20	O	1.495260	0.052633	0.233272
C21	C	0.831013	-0.281180	-0.289362
C22	C	1.331013	0.218820	0.210638
C23	C	0.738719	-0.267580	-0.257226
C24	C	1.238719	0.232420	0.242774
C25	C	0.337743	-0.359620	-0.552822
C26	C	0.837743	0.140380	-0.052822
C27	C	0.251022	-0.346816	-0.522624
C28	C	0.751022	0.153184	-0.022624
C29	C	0.290002	-0.292092	-0.362143
C30	C	0.790002	0.207908	0.137857
C31	C	0.376729	-0.304886	-0.392327
C32	C	0.876729	0.195114	0.107673
C33	C	0.400592	-0.338651	-0.487668
C34	C	0.900592	0.161349	0.012332
C35	C	0.439578	-0.283917	-0.327173
C36	C	0.939578	0.216083	0.172827
C37	C	0.526296	-0.296716	-0.357356
C38	C	1.026296	0.203284	0.142644
C39	C	0.550166	-0.330484	-0.452692
C40	C	1.050166	0.169516	0.047308
C41	C	0.487310	-0.351450	-0.517850
C42	C	0.987310	0.148550	-0.017850
C43	C	0.415712	-0.250161	-0.231833
C44	C	0.915712	0.249839	0.268167
C45	C	0.478561	-0.229192	-0.166679
C46	C	0.978561	0.270808	0.333321
C47	C	0.565282	-0.241982	-0.196861
C48	C	1.065282	0.258018	0.303139
C49	C	0.589152	-0.275750	-0.292197
C50	C	1.089152	0.224250	0.207803
C51	C	0.628138	-0.221016	-0.131703
C52	C	1.128138	0.278984	0.368297
C53	C	0.714857	-0.233815	-0.161885
C54	C	1.214857	0.266185	0.338115
C55	C	0.675871	-0.288549	-0.322380
C56	C	1.175871	0.211451	0.177620
C57	C	0.987684	-0.061290	-0.343908
C58	C	1.487684	0.438710	0.156092
C59	C	0.985241	0.078415	-0.343059
C60	C	1.485241	0.578415	0.156941
C61	C	1.134860	-0.299460	-0.395162
C62	C	1.634860	0.200540	0.104838
C63	C	1.227152	-0.313062	-0.427304
C64	C	1.727152	0.186938	0.072696
C65	C	0.978189	-0.519350	-0.340615
C66	C	1.478189	-0.019350	0.159385
C67	C	0.980630	-0.659057	-0.341470
C68	C	1.480630	-0.159057	0.158530
N69	N	1.038680	-0.212118	-0.112928
N70	N	1.538680	0.287882	0.387072
C71	C	1.136524	0.090150	-0.395723
C72	C	1.636524	0.590150	0.104277
C73	C	1.211015	0.161651	-0.421652
C74	C	1.711015	0.661651	0.078348
C75	C	1.208714	0.292915	-0.420854
C76	C	1.708714	0.792915	0.079146
C77	C	1.131913	0.352680	-0.394126
C78	C	1.631913	0.852680	0.105874
C79	C	1.057422	0.281179	-0.368197
C80	C	1.557422	0.781179	0.131803
C81	C	1.059732	0.149914	-0.368996
C82	C	1.559732	0.649914	0.131004
C83	C	0.906140	0.269442	-0.315541
C84	C	1.406140	0.769442	0.184459
C85	C	0.908440	0.138180	-0.316332
C86	C	1.408440	0.638180	0.183668
C87	C	0.829339	0.329207	-0.288813
C88	C	1.329339	0.829207	0.211187
C89	C	0.754848	0.257709	-0.262877
C90	C	1.254848	0.757709	0.237123
C91	C	0.757153	0.126437	-0.263675
C92	C	1.257153	0.626437	0.236325
C93	C	0.833950	0.066680	-0.290403
C94	C	1.333950	0.566680	0.209597
N95	N	0.927200	-0.368512	-0.571596
N96	N	1.427200	0.131488	-0.071596
C97	C	1.128511	-0.086139	0.006540
C98	C	1.628511	0.413861	0.506540
C99	C	1.105967	-0.117746	-0.086115
C100	C	1.605967	0.382254	0.413885
C101	C	0.993908	-0.274916	-0.047087
C102	C	1.493908	0.225084	0.452913
C103	C	1.016440	-0.243318	0.045574
C104	C	1.516440	0.256682	0.545574
C105	C	1.083742	-0.148929	0.072379
C106	C	1.583742	0.351071	0.572379
C107	C	0.971671	-0.306108	0.111414
C108	C	1.471671	0.193892	0.611414
C109	C	0.994204	-0.274516	0.204066
C110	C	1.494204	0.225484	0.704066
C111	C	1.061506	-0.180135	0.230878
C112	C	1.561506	0.319865	0.730878
C113	C	1.106276	-0.117338	0.165031
C114	C	1.606276	0.382662	0.665031
C115	C	0.904373	-0.400502	0.084605
C116	C	1.404373	0.099498	0.584605
C117	C	0.859604	-0.463292	0.150445
C118	C	1.359604	0.036708	0.650445
C119	C	0.882133	-0.431695	0.243100
C120	C	1.382133	0.068305	0.743100
C121	C	0.949435	-0.337313	0.269913
C122	C	1.449435	0.162687	0.769913
C123	C	0.837364	-0.494492	0.308947
C124	C	1.337364	0.005508	0.808947
C125	C	0.859897	-0.462900	0.401599
C126	C	1.359897	0.037100	0.901599
C127	C	0.971968	-0.305722	0.362565
C128	C	1.471968	0.194278	0.862565
H129	H	0.608694	-0.193536	-0.054076
H130	H	1.108694	0.306464	0.445924
H131	H	0.506740	-0.378941	-0.595486
H132	H	1.006740	0.121059	-0.095486
H133	H	0.620778	-0.340912	-0.477264
H134	H	1.120778	0.159088	0.022736
H135	H	0.766030	-0.216747	-0.108830
H136	H	1.266030	0.283253	0.391170
F137	F	0.264595	-0.256164	-0.260678
F138	F	0.764595	0.243836	0.239322
F139	F	1.129456	0.492367	-0.393327
F140	F	1.629456	0.992367	0.106673
H141	H	1.183309	-0.009269	0.028366
H142	H	1.683309	0.490731	0.528366
F143	F	1.138983	-0.049547	-0.396557
F144	F	1.638983	0.450453	0.103443
H145	H	0.835835	-0.040199	-0.291050
H146	H	1.335835	0.459801	0.208950
F147	F	0.826881	0.468895	-0.288010
F148	F	1.326881	0.968895	0.211990
H149	H	1.026767	-0.228852	0.384391
H150	H	1.526767	0.271148	0.884391
H151	H	0.823442	-0.514032	0.455207
H152	H	1.323442	-0.014032	0.955207
F153	F	1.153625	-0.050908	-0.156184
F154	F	1.653625	0.449092	0.343816
F155	F	1.292746	0.098034	-0.450101
F156	F	1.792746	0.598034	0.049899
H157	H	0.696492	0.068228	-0.242564
H158	H	1.196492	0.568228	0.257436
F159	F	1.287993	0.369010	-0.448458
F160	F	1.787993	0.869010	0.051542
H161	H	0.692322	0.306378	-0.241123
H162	H	1.192322	0.806378	0.258877
F163	F	1.085491	-0.146519	0.329487
F164	F	1.585491	0.353481	0.829487
F165	F	0.363145	-0.395542	-0.654295
F166	F	0.863145	0.104458	-0.154295
F167	F	1.177900	-0.016865	0.193563
F168	F	1.677900	0.483135	0.693563
H169	H	0.939111	-0.351771	-0.068923
H170	H	1.439111	0.148229	0.431077
H171	H	0.886032	-0.426224	0.009160
H172	H	1.386032	0.073776	0.509160
H173	H	0.804808	-0.540148	0.128608
H174	H	1.304808	-0.040148	0.628608
H175	H	0.199850	-0.363898	-0.575688
H176	H	0.699850	0.136102	-0.075688
F177	F	0.765745	-0.594956	0.280405
F178	F	1.265745	-0.094956	0.780405
H179	H	0.345099	-0.239748	-0.207262
H180	H	0.845099	0.260252	0.292738
F181	F	0.701273	-0.324471	-0.423853
F182	F	1.201273	0.175529	0.076147
H183	H	0.459119	-0.201705	-0.089052
H184	H	0.959119	0.298295	0.410948
