data_functionalizedCrystal
_audit_creation_method	'MofGen! by Chris Wilmer'
_symmetry_space_group_name_H-M	'P1'
_symmetry_Int_Tables_number	1
_symmetry_cell_setting	triclinic
loop_
_symmetry_equiv_pos_as_xyz
  x,y,z
_cell_length_a	25.639243
_cell_length_b	25.639239
_cell_length_c	25.639233
_cell_angle_alpha	90.018747
_cell_angle_beta	90.015962
_cell_angle_gamma	90.041410
loop_
_atom_site_label
_atom_site_type_symbol
_atom_site_fract_x
_atom_site_fract_y
_atom_site_fract_z
Zn1	Zn	0.799225	-0.208176	0.295656
Zn2	Zn	1.299225	0.291824	0.795656
Zn3	Zn	0.799149	-0.295595	0.208220
Zn4	Zn	1.299149	0.204405	0.708220
Zn5	Zn	0.711801	-0.208180	0.208229
Zn6	Zn	1.211801	0.291820	0.708229
Zn7	Zn	0.711746	-0.295587	0.295619
Zn8	Zn	1.211746	0.204413	0.795619
O9	O	0.755480	-0.251885	0.251931
O10	O	1.255480	0.248115	0.751931
O11	O	0.872380	-0.219775	0.284069
O12	O	1.372380	0.280225	0.784069
O13	O	0.787553	-0.284004	0.135056
O14	O	1.287553	0.215996	0.635056
O15	O	0.723453	-0.135014	0.219846
O16	O	1.223453	0.364986	0.719846
O17	O	0.872324	-0.284001	0.219830
O18	O	1.372324	0.215999	0.719830
O19	O	0.787683	-0.135012	0.284077
O20	O	1.287683	0.364988	0.784077
O21	O	0.723379	-0.219781	0.135063
O22	O	1.223379	0.280219	0.635063
O23	O	0.638629	-0.219772	0.219810
O24	O	1.138629	0.280228	0.719810
O25	O	0.723360	-0.283987	0.368789
O26	O	1.223360	0.216013	0.868789
O27	O	0.638589	-0.283990	0.284016
O28	O	1.138589	0.216010	0.784016
O29	O	0.787630	-0.219767	0.368816
O30	O	1.287630	0.280233	0.868816
O31	O	0.787499	-0.368759	0.219795
O32	O	1.287499	0.131241	0.719795
O33	O	0.723286	-0.368753	0.284007
O34	O	1.223286	0.131247	0.784007
C35	C	0.619638	-0.251881	0.251910
C36	C	1.119638	0.248119	0.751910
C37	C	0.561524	-0.251892	0.251914
C38	C	1.061524	0.248108	0.751914
C39	C	0.201184	-0.218495	0.285436
C40	C	0.701184	0.281505	0.785436
C41	C	0.146580	-0.218494	0.285439
C42	C	0.646580	0.281506	0.785439
O43	O	0.118363	-0.190088	0.313915
O44	O	0.618363	0.309912	0.813915
N45	N	0.119241	-0.251883	0.251945
N46	N	0.619241	0.248117	0.751945
C47	C	0.146510	-0.285271	0.218443
C48	C	0.646510	0.214729	0.718443
O49	O	0.118242	-0.313670	0.189954
O50	O	0.618242	0.186330	0.689954
C51	C	0.201113	-0.285268	0.218437
C52	C	0.701113	0.214732	0.718437
C53	C	0.228449	-0.251881	0.251937
C54	C	0.728449	0.248119	0.751937
C55	C	0.228520	-0.185109	0.318932
C56	C	0.728520	0.314891	0.818932
C57	C	0.283121	-0.185111	0.318930
C58	C	0.783121	0.314889	0.818930
C59	C	0.310385	-0.218497	0.285431
C60	C	0.810385	0.281503	0.785431
C61	C	0.283049	-0.251882	0.251934
C62	C	0.783049	0.248118	0.751934
C63	C	0.228380	-0.318653	0.184932
C64	C	0.728380	0.181347	0.684932
C65	C	0.282987	-0.318647	0.184929
C66	C	0.782987	0.181353	0.684929
C67	C	0.310323	-0.285260	0.218429
C68	C	0.810323	0.214740	0.718429
C69	C	0.364915	-0.285270	0.218432
C70	C	0.864915	0.214730	0.718432
N71	N	0.392253	-0.251881	0.251926
N72	N	0.892253	0.248119	0.751926
C73	C	0.364989	-0.218494	0.285425
C74	C	0.864989	0.281506	0.785425
C75	C	0.031839	-0.285273	0.218456
C76	C	0.531839	0.214727	0.718456
C77	C	-0.022763	-0.285279	0.218464
C78	C	0.477237	0.214721	0.718464
C79	C	-0.022689	-0.218501	0.285460
C80	C	0.477311	0.281499	0.785460
C81	C	0.031914	-0.218499	0.285454
C82	C	0.531914	0.281501	0.785454
C83	C	0.059178	-0.251884	0.251950
C84	C	0.559178	0.248116	0.751950
C85	C	0.479654	-0.218500	0.285417
C86	C	0.979654	0.281500	0.785417
C87	C	0.534259	-0.218506	0.285413
C88	C	1.034259	0.281494	0.785413
C89	C	0.534180	-0.285281	0.218415
C90	C	1.034180	0.214719	0.718415
C91	C	0.479580	-0.285278	0.218421
C92	C	0.979580	0.214722	0.718421
C93	C	0.452318	-0.251883	0.251924
C94	C	0.952318	0.248117	0.751924
O95	O	0.393166	-0.313659	0.189969
O96	O	0.893166	0.186341	0.689969
O97	O	0.393263	-0.190095	0.313904
O98	O	0.893263	0.309905	0.813904
C99	C	0.755392	-0.387727	0.251907
C100	C	1.255392	0.112273	0.751907
C101	C	0.755403	-0.445841	0.251914
C102	C	1.255403	0.054159	0.751914
C103	C	0.789004	-0.806195	0.218553
C104	C	1.289004	-0.306195	0.718553
C105	C	0.789024	-0.860799	0.218560
C106	C	1.289024	-0.360799	0.718560
O107	O	0.817502	-0.889028	0.190169
O108	O	1.317502	-0.389028	0.690169
N109	N	0.755572	-0.888124	0.251966
N110	N	1.255572	-0.388124	0.751966
C111	C	0.722102	-0.860841	0.285371
C112	C	1.222102	-0.360841	0.785371
O113	O	0.693651	-0.889096	0.313786
O114	O	1.193651	-0.389096	0.813786
C115	C	0.722085	-0.806238	0.285366
C116	C	1.222085	-0.306238	0.785366
C117	C	0.755535	-0.778916	0.251954
C118	C	1.255535	-0.278916	0.751954
C119	C	0.822452	-0.778873	0.185144
C120	C	1.322452	-0.278873	0.685144
C121	C	0.822431	-0.724273	0.185137
C122	C	1.322431	-0.224273	0.685137
C123	C	0.788962	-0.696994	0.218538
C124	C	1.288962	-0.196994	0.718538
C125	C	0.755514	-0.724315	0.251946
C126	C	1.255514	-0.224315	0.751946
C127	C	0.688617	-0.778956	0.318773
C128	C	1.188617	-0.278956	0.818773
C129	C	0.688603	-0.724349	0.318765
C130	C	1.188603	-0.224349	0.818765
C131	C	0.722053	-0.697027	0.285354
C132	C	1.222053	-0.197027	0.785354
C133	C	0.722024	-0.642436	0.285340
C134	C	1.222024	-0.142436	0.785340
N135	N	0.755475	-0.615112	0.251934
N136	N	1.255475	-0.115112	0.751934
C137	C	0.788944	-0.642390	0.218533
C138	C	1.288944	-0.142390	0.718533
C139	C	0.722141	-0.975511	0.285379
C140	C	1.222141	-0.475511	0.785379
C141	C	0.722155	-1.030114	0.285381
C142	C	1.222155	-0.530114	0.785381
C143	C	0.789078	-1.030068	0.218571
C144	C	1.289078	-0.530068	0.718571
C145	C	0.789061	-0.975465	0.218566
C146	C	1.289061	-0.475465	0.718566
C147	C	0.755593	-0.948187	0.251973
C148	C	1.255593	-0.448187	0.751973
C149	C	0.788897	-0.527725	0.218519
C150	C	1.288897	-0.027725	0.718519
C151	C	0.788872	-0.473120	0.218513
C152	C	1.288872	0.026880	0.718513
C153	C	0.721951	-0.473170	0.285325
C154	C	1.221951	0.026830	0.785325
C155	C	0.721974	-0.527771	0.285329
C156	C	1.221974	-0.027771	0.785329
C157	C	0.755452	-0.555047	0.251925
C158	C	1.255452	-0.055047	0.751925
O159	O	0.693562	-0.614173	0.313718
O160	O	1.193562	-0.114173	0.813718
O161	O	0.817396	-0.614128	0.190127
O162	O	1.317396	-0.114128	0.690127
C163	C	0.891853	-0.251888	0.251952
C164	C	1.391853	0.248112	0.751952
C165	C	0.949967	-0.251890	0.251961
C166	C	1.449967	0.248110	0.751961
C167	C	0.755497	-0.251875	0.388304
C168	C	1.255497	0.248125	0.888304
C169	C	0.755504	-0.251871	0.446418
C170	C	1.255504	0.248129	0.946418
C171	C	0.755583	-0.115512	0.251967
C172	C	1.255583	0.384488	0.751967
C173	C	0.755627	-0.057397	0.251982
C174	C	1.255627	0.442603	0.751982
C175	C	0.755494	-0.251856	0.116089
C176	C	1.255494	0.248144	0.616089
C177	C	0.755588	-0.251713	0.057975
C178	C	1.255588	0.248287	0.557975
C179	C	0.789012	-0.218333	0.806801
C180	C	1.289012	0.281667	1.306801
C181	C	0.789019	-0.218318	0.861405
C182	C	1.289019	0.281682	1.361405
O183	O	0.817466	-0.189864	0.889659
O184	O	1.317466	0.310136	1.389659
N185	N	0.755562	-0.251749	0.888701
N186	N	1.255562	0.248251	1.388701
C187	C	0.722093	-0.285192	0.861389
C188	C	1.222093	0.214808	1.361389
O189	O	0.693636	-0.313626	0.889620
O190	O	1.193636	0.186374	1.389620
C191	C	0.722084	-0.285204	0.806786
C192	C	1.222084	0.214796	1.306786
C193	C	0.755547	-0.251775	0.779493
C194	C	1.255547	0.248225	1.279493
C195	C	0.822472	-0.184906	0.779508
C196	C	1.322472	0.315094	1.279508
C197	C	0.822466	-0.184921	0.724908
C198	C	1.322466	0.315079	1.224908
C199	C	0.789001	-0.218363	0.697600
C200	C	1.289001	0.281637	1.197600
C201	C	0.755541	-0.251790	0.724893
C202	C	1.255541	0.248210	1.224893
C203	C	0.688613	-0.318644	0.779475
C204	C	1.188613	0.181356	1.279475
C205	C	0.688607	-0.318653	0.724868
C206	C	1.188607	0.181347	1.224868
C207	C	0.722069	-0.285223	0.697576
C208	C	1.222069	0.214777	1.197576
C209	C	0.722070	-0.285247	0.642984
C210	C	1.222070	0.214753	1.142984
N211	N	0.755526	-0.251817	0.615689
N212	N	1.255526	0.248183	1.115689
C213	C	0.788992	-0.218375	0.642996
C214	C	1.288992	0.281625	1.142996
C215	C	0.722113	-0.285165	0.976060
C216	C	1.222113	0.214835	1.476060
C217	C	0.722124	-0.285157	1.030662
C218	C	1.222124	0.214843	1.530662
C219	C	0.789049	-0.218282	1.030675
C220	C	1.289049	0.281718	1.530675
C221	C	0.789041	-0.218293	0.976071
C222	C	1.289041	0.281707	1.476071
C223	C	0.755570	-0.251735	0.948764
C224	C	1.255570	0.248265	1.448764
C225	C	0.788977	-0.218410	0.528331
C226	C	1.288977	0.281590	1.028331
C227	C	0.788970	-0.218429	0.473726
C228	C	1.288970	0.281571	0.973726
C229	C	0.722043	-0.285302	0.473719
C230	C	1.222043	0.214698	0.973719
C231	C	0.722052	-0.285285	0.528319
C232	C	1.222052	0.214715	1.028319
C233	C	0.755521	-0.251834	0.555624
C234	C	1.255521	0.248166	1.055624
O235	O	0.693635	-0.313686	0.614696
O236	O	1.193635	0.186314	1.114696
O237	O	0.817439	-0.189941	0.614759
O238	O	1.317439	0.310059	1.114759
H239	H	0.206327	-0.157919	0.346212
H240	H	0.706327	0.342081	0.846212
O241	O	0.450255	-0.182481	0.321550
O242	O	0.950255	0.317519	0.821550
H243	H	0.425366	-0.205918	0.348109
H244	H	0.925366	0.294082	0.848109
O245	O	0.825147	-0.945996	0.182539
O246	O	1.325147	-0.445996	0.682539
H247	H	0.816217	-0.956502	0.141495
H248	H	1.316217	-0.456502	0.641495
O249	O	0.858555	-0.148863	0.695473
O250	O	1.358555	0.351137	1.195473
H251	H	0.881820	-0.125606	0.723642
H252	H	1.381820	0.374394	1.223642
O253	O	0.061244	-0.321287	0.182320
O254	O	0.561244	0.178713	0.682320
H255	H	0.050740	-0.362335	0.191218
H256	H	0.550740	0.137665	0.691218
O257	O	0.825062	-0.182372	0.444287
O258	O	1.325062	0.317628	0.944287
H259	H	0.848329	-0.159113	0.472453
H260	H	1.348329	0.340887	0.972453
O261	O	0.312602	-0.149090	0.355051
O262	O	0.812602	0.350910	0.855051
H263	H	0.284463	-0.125872	0.378337
H264	H	0.784463	0.374128	0.878337
O265	O	0.858517	-0.694807	0.149108
O266	O	1.358517	-0.194807	0.649108
H267	H	0.881795	-0.722956	0.125891
H268	H	1.381795	-0.222956	0.625891
H269	H	0.556514	-0.191317	0.312694
H270	H	1.056514	0.308683	0.812694
H271	H	0.849724	-0.157671	0.801736
H272	H	1.349724	0.342329	1.301736
O273	O	0.061398	-0.182482	0.321579
O274	O	0.561398	0.317518	0.821579
H275	H	0.033260	-0.159266	0.344869
H276	H	0.533260	0.340734	0.844869
H277	H	-0.044898	-0.191315	0.312735
H278	H	0.455102	0.308685	0.812735
O279	O	0.825129	-0.182235	0.946634
O280	O	1.325129	0.317765	1.446634
H281	H	0.848397	-0.158980	0.974802
H282	H	1.348397	0.341020	1.474802
H283	H	-0.045016	-0.312472	0.191191
H284	H	0.454984	0.187528	0.691191
H285	H	0.206133	-0.345840	0.157652
H286	H	0.706133	0.154160	0.657652
O287	O	0.312394	-0.354658	0.148792
O288	O	0.812394	0.145342	0.648792
H289	H	0.284209	-0.377874	0.125504
H290	H	0.784209	0.122126	0.625504
H291	H	0.816333	-1.052289	0.191376
H292	H	1.316333	-0.552289	0.691376
O293	O	0.450090	-0.321288	0.182292
O294	O	0.950090	0.178712	0.682292
H295	H	0.478225	-0.344502	0.158997
H296	H	0.978225	0.155498	0.658997
H297	H	0.816229	-0.191169	0.550557
H298	H	1.316229	0.308831	1.050557
H299	H	0.556389	-0.312465	0.191142
H300	H	1.056389	0.187535	0.691142
H301	H	0.849709	-0.801078	0.157945
H302	H	1.349709	-0.301078	0.657945
H303	H	0.816111	-0.450876	0.191304
H304	H	1.316111	0.049124	0.691304
H305	H	0.694809	-0.312510	0.550542
H306	H	1.194809	0.187490	1.050542
O307	O	0.686074	-1.059581	0.321414
O308	O	1.186074	-0.559581	0.821414
H309	H	0.662802	-1.031433	0.344639
H310	H	1.162802	-0.531433	0.844639
H311	H	0.816159	-0.549927	0.191319
H312	H	1.316159	-0.049927	0.691319
O313	O	0.825137	-0.182200	1.060132
O314	O	1.325137	0.317800	1.560132
H315	H	0.819512	-0.187805	1.102686
H316	H	1.319512	0.312195	1.602686
H317	H	0.694883	-0.953304	0.312581
H318	H	1.194883	-0.453304	0.812581
O319	O	0.686034	-0.321213	1.060098
O320	O	1.186034	0.178787	1.560098
H321	H	0.662761	-0.344465	1.031930
H322	H	1.162761	0.155535	1.531930
H323	H	0.661376	-0.801192	0.345978
H324	H	1.161376	-0.301192	0.845978
O325	O	0.652498	-0.694926	0.354791
O326	O	1.152498	-0.194926	0.854791
H327	H	0.629239	-0.723102	0.378018
H328	H	1.129239	-0.223102	0.878018
H329	H	0.694738	-0.550017	0.312538
H330	H	1.194738	-0.050017	0.812538
H331	H	0.694699	-0.450951	0.312518
H332	H	1.194699	0.049049	0.812518
H333	H	0.694857	-0.312400	0.953830
H334	H	1.194857	0.187600	1.453830
O335	O	0.652514	-0.354693	0.808905
O336	O	1.152514	0.145307	1.308905
H337	H	0.629239	-0.377939	0.780735
H338	H	1.129239	0.122061	1.280735
H339	H	0.661345	-0.345880	0.702638
H340	H	1.161345	0.154120	1.202638
H341	H	0.694798	-0.312531	0.451475
H342	H	1.194798	0.187469	0.951475
