data_functionalizedCrystal
_audit_creation_method	'MofGen! by Chris Wilmer'
_symmetry_space_group_name_H-M	'P1'
_symmetry_Int_Tables_number	1
_symmetry_cell_setting	triclinic
loop_
_symmetry_equiv_pos_as_xyz
  x,y,z
_cell_length_a	19.188933
_cell_length_b	19.188925
_cell_length_c	10.268362
_cell_angle_alpha	89.995070
_cell_angle_beta	89.996830
_cell_angle_gamma	83.144059
loop_
_atom_site_label
_atom_site_type_symbol
_atom_site_fract_x
_atom_site_fract_y
_atom_site_fract_z
O1	O	0.926142	0.087175	-0.108256
O2	O	1.426142	0.587175	0.391744
O3	O	0.722831	0.098908	-0.108268
O4	O	1.222831	0.598908	0.391732
O5	O	0.830356	-0.008615	-0.108254
O6	O	1.330356	0.491385	0.391746
O7	O	0.818617	0.194697	-0.108270
O8	O	1.318617	0.694697	0.391730
O9	O	0.830346	-0.008619	0.108346
O10	O	1.330346	0.491381	0.608346
O11	O	0.722822	0.098903	0.108333
O12	O	1.222822	0.598903	0.608333
O13	O	0.926133	0.087170	0.108345
O14	O	1.426133	0.587170	0.608345
Cu15	Cu	0.824476	0.093036	0.128116
Cu16	Cu	1.324476	0.593036	0.628116
Cu17	Cu	0.824487	0.093042	-0.128039
Cu18	Cu	1.324487	0.593042	0.371961
O19	O	0.818608	0.194693	0.108331
O20	O	1.318608	0.694693	0.608331
C21	C	0.696815	0.098525	0.000031
C22	C	1.196815	0.598525	0.500031
C23	C	0.619311	0.097384	0.000027
C24	C	1.119311	0.597384	0.500027
C25	C	0.066061	0.089241	-0.118028
C26	C	0.566061	0.589241	0.381972
C27	C	0.138885	0.090309	-0.118033
C28	C	0.638885	0.590309	0.381967
C29	C	0.175297	0.090844	0.000036
C30	C	0.675297	0.590844	0.500036
C31	C	0.138881	0.090293	0.118118
C32	C	0.638881	0.590293	0.618118
C33	C	0.066059	0.089218	0.118120
C34	C	0.566059	0.589218	0.618120
N35	N	0.284312	0.132261	0.087916
N36	N	0.784312	0.632261	0.587916
N37	N	0.353490	0.133284	0.087907
N38	N	0.853490	0.633284	0.587907
C39	C	0.394705	0.094082	0.000038
C40	C	0.894705	0.594082	0.500038
N41	N	0.364129	0.053828	-0.087841
N42	N	0.864129	0.553828	0.412159
N43	N	0.294945	0.052808	-0.087835
N44	N	0.794945	0.552808	0.412165
C45	C	0.254260	0.092010	0.000047
C46	C	0.754260	0.592010	0.500047
C47	C	0.510078	0.095787	-0.118043
C48	C	1.010078	0.595787	0.381957
C49	C	0.582904	0.096850	-0.118043
C50	C	1.082904	0.596850	0.381957
C51	C	0.582897	0.096841	0.118111
C52	C	1.082897	0.596841	0.618111
C53	C	0.510074	0.095770	0.118108
C54	C	1.010074	0.595770	0.618108
C55	C	0.473668	0.095246	0.000027
C56	C	0.973668	0.595246	0.500027
C57	C	0.829972	-0.034628	0.000045
C58	C	1.329972	0.465372	0.500045
C59	C	0.828832	-0.112133	0.000043
C60	C	1.328832	0.387867	0.500043
C61	C	0.884296	-0.673902	0.000013
C62	C	1.384296	-0.173902	0.500013
C63	C	0.885373	-0.601079	0.000025
C64	C	1.385373	-0.101079	0.500025
C65	C	0.822281	-0.556145	0.000021
C66	C	1.322281	-0.056145	0.500021
C67	C	0.758107	-0.584040	0.000038
C68	C	1.258107	-0.084040	0.500038
C69	C	0.757033	-0.656862	0.000039
C70	C	1.257033	-0.156862	0.500039
N71	N	0.776608	-0.435464	-0.073707
N72	N	1.276608	0.064536	0.426293
N73	N	0.777633	-0.366286	-0.073711
N74	N	1.277633	0.133714	0.426289
C75	C	0.825515	-0.336736	0.000020
C76	C	1.325515	0.163264	0.500020
N77	N	0.872343	-0.378978	0.073739
N78	N	1.372343	0.121022	0.573739
N79	N	0.871320	-0.448162	0.073737
N80	N	1.371320	0.051838	0.573737
C81	C	0.823439	-0.477181	0.000020
C82	C	1.323439	0.022819	0.500020
C83	C	0.890851	-0.229887	0.000025
C84	C	1.390851	0.270113	0.500025
C85	C	0.891925	-0.157062	0.000045
C86	C	1.391925	0.342938	0.500045
C87	C	0.764658	-0.140023	0.000045
C88	C	1.264658	0.359977	0.500045
C89	C	0.763586	-0.212847	0.000038
C90	C	1.263586	0.287153	0.500038
C91	C	0.826685	-0.257775	0.000022
C92	C	1.326685	0.242225	0.500022
C93	C	0.952149	0.087553	0.000043
C94	C	1.452149	0.587553	0.500043
C95	C	1.029653	0.088694	0.000039
C96	C	1.529653	0.588694	0.500039
C97	C	0.818992	0.220706	0.000029
C98	C	1.318992	0.720706	0.500029
C99	C	0.820131	0.298211	0.000023
C100	C	1.320131	0.798211	0.500023
N101	N	0.824474	0.093032	0.308282
N102	N	1.324474	0.593032	0.808282
N103	N	0.824496	0.093040	-0.308205
N104	N	1.324496	0.593040	0.191795
C105	C	0.824484	0.093040	0.573953
C106	C	1.324484	0.593040	1.073953
C107	C	0.824476	0.093038	0.426115
C108	C	1.324476	0.593038	0.926115
H109	H	0.168532	0.090727	0.214250
H110	H	0.668532	0.590727	0.714250
H111	H	0.612544	0.097274	0.214245
H112	H	1.112544	0.597274	0.714245
H113	H	0.937625	-0.578369	0.000017
H114	H	1.437625	-0.078369	0.500017
Br115	Br	0.679031	-0.079049	0.000064
Br116	Br	1.179031	0.420951	0.500064
H117	H	0.036416	0.088775	0.214267
H118	H	0.536416	0.588775	0.714267
H119	H	0.036424	0.088812	-0.214179
H120	H	0.536424	0.588812	0.285821
H121	H	0.168533	0.090759	-0.214180
H122	H	0.668533	0.590759	0.285820
H123	H	0.480435	0.095358	-0.214191
H124	H	0.980435	0.595358	0.285809
H125	H	0.612546	0.097291	-0.214191
H126	H	1.112546	0.597291	0.285809
Br127	Br	0.460658	0.095037	0.278351
Br128	Br	0.960658	0.595037	0.778351
H129	H	0.935676	-0.710479	0.000007
H130	H	1.435676	-0.210479	0.500007
H131	H	0.706737	-0.547450	0.000039
H132	H	1.206737	-0.047450	0.500039
Br133	Br	0.669945	-0.694711	0.000054
Br134	Br	1.169945	-0.194711	0.500054
Br135	Br	0.676500	-0.250697	0.000043
Br136	Br	1.176500	0.249303	0.500043
Br137	Br	0.979014	-0.119214	0.000029
Br138	Br	1.479014	0.380786	0.500029
Br139	Br	0.976483	-0.290864	0.000006
Br140	Br	1.476483	0.209136	0.500006
