data_functionalizedCrystal
_audit_creation_method	'MofGen! by Chris Wilmer'
_symmetry_space_group_name_H-M	'P1'
_symmetry_Int_Tables_number	1
_symmetry_cell_setting	triclinic
loop_
_symmetry_equiv_pos_as_xyz
  x,y,z
_cell_length_a	6.394984
_cell_length_b	10.654550
_cell_length_c	9.130313
_cell_angle_alpha	90.000276
_cell_angle_beta	89.997013
_cell_angle_gamma	94.509859
loop_
_atom_site_label
_atom_site_type_symbol
_atom_site_fract_x
_atom_site_fract_y
_atom_site_fract_z
O1	O	0.293442	-1.670944	-0.121685
O2	O	0.321400	-1.305761	-0.121711
O3	O	0.003431	-1.493540	-0.121693
O4	O	0.611411	-1.483165	-0.121702
O5	O	0.003422	-1.493526	0.121906
O6	O	0.321390	-1.305748	0.121888
O7	O	0.293433	-1.670930	0.121914
Cu8	Cu	0.307411	-1.488338	0.144144
Cu9	Cu	0.307422	-1.488354	-0.143940
O10	O	0.611402	-1.483152	0.121896
C11	C	0.319342	-1.258935	0.000085
C12	C	0.313201	-1.119426	0.000075
N13	N	0.307402	-1.488336	0.346766
C14	C	0.925578	-1.491470	0.000110
C15	C	0.689250	-1.485218	0.000107
C16	C	0.295491	-1.717757	0.000115
C17	C	0.301632	-1.857265	0.000116
N18	N	0.307414	-1.488365	-0.346563
C19	C	0.500415	-1.041921	0.000076
C20	C	0.494632	-0.910839	0.000102
C21	C	0.114403	-0.934780	0.000119
C22	C	0.120188	-1.065860	0.000103
C23	C	0.166665	-1.571514	0.423426
C24	C	0.166666	-1.571526	0.576763
C25	C	0.448158	-1.405178	0.576767
C26	C	0.448146	-1.405161	0.423433
H27	H	0.657578	-1.085531	0.000064
H28	H	0.562751	-1.337422	0.361012
H29	H	-0.042741	-0.891150	0.000151
Br30	Br	0.748721	-0.805657	0.000111
Br31	Br	-0.133908	-1.171055	0.000120
H32	H	0.052060	-1.639238	0.361008
H33	H	0.052063	-1.639255	0.639175
H34	H	0.562751	-1.337461	0.639204
