data_functionalizedCrystal
_audit_creation_method	'MofGen! by Chris Wilmer'
_symmetry_space_group_name_H-M	'P1'
_symmetry_Int_Tables_number	1
_symmetry_cell_setting	triclinic
loop_
_symmetry_equiv_pos_as_xyz
  x,y,z
_cell_length_a	17.000383
_cell_length_b	17.038272
_cell_length_c	12.376457
_cell_angle_alpha	102.103643
_cell_angle_beta	79.610811
_cell_angle_gamma	83.355929
loop_
_atom_site_label
_atom_site_type_symbol
_atom_site_fract_x
_atom_site_fract_y
_atom_site_fract_z
O1	O	1.072195	0.012078	-0.094084
O2	O	1.572195	0.512078	0.405916
O3	O	0.842373	0.040323	-0.094070
O4	O	1.342373	0.540323	0.405930
O5	O	0.955917	-0.087520	-0.094068
O6	O	1.455917	0.412480	0.405932
O7	O	0.958651	0.139921	-0.094086
O8	O	1.458651	0.639921	0.405914
O9	O	0.927539	-0.055601	0.093944
O10	O	1.427539	0.444399	0.593944
O11	O	0.813995	0.072242	0.093942
O12	O	1.313995	0.572242	0.593942
O13	O	1.043817	0.043997	0.093928
O14	O	1.543817	0.543997	0.593928
Zn15	Zn	0.924400	0.063188	0.123786
Zn16	Zn	1.424400	0.563188	0.623786
Zn17	Zn	0.961790	0.021133	-0.123928
Zn18	Zn	1.461790	0.521133	0.376072
O19	O	0.930273	0.171840	0.093926
O20	O	1.430273	0.671840	0.593926
C21	C	0.798633	0.057800	-0.000062
C22	C	1.298633	0.557800	0.499938
C23	C	0.710579	0.062311	-0.000056
C24	C	1.210579	0.562311	0.499944
C25	C	0.212341	0.091428	-0.000101
C26	C	0.712341	0.591428	0.499899
C27	C	0.295076	0.087184	-0.000099
C28	C	0.795076	0.587184	0.499901
C29	C	0.341081	0.013520	-0.000085
C30	C	0.841081	0.513520	0.499915
C31	C	0.304347	-0.055906	-0.000083
C32	C	0.804347	0.444094	0.499917
C33	C	0.221615	-0.051663	-0.000093
C34	C	0.721615	0.448337	0.499907
C35	C	0.591113	-0.002872	-0.000064
C36	C	1.091113	0.497128	0.499936
C37	C	0.673851	-0.007109	-0.000051
C38	C	1.173851	0.492891	0.499949
C39	C	0.664574	0.135981	-0.000069
C40	C	1.164574	0.635981	0.499931
C41	C	0.581839	0.140219	-0.000072
C42	C	1.081839	0.640219	0.499928
C43	C	0.545114	0.070792	-0.000076
C44	C	1.045114	0.570792	0.499924
C45	C	0.425649	0.009181	-0.000080
C46	C	0.925649	0.509181	0.499920
C47	C	0.460548	0.075130	-0.000089
C48	C	0.960548	0.575130	0.499911
C49	C	0.939243	-0.100518	-0.000062
C50	C	1.439243	0.399482	0.499938
C51	C	0.931830	-0.186803	-0.000062
C52	C	1.431830	0.313197	0.499938
C53	C	0.999889	-0.241579	-0.000065
C54	C	1.499889	0.258421	0.499935
C55	C	0.992921	-0.322654	-0.000075
C56	C	1.492921	0.177346	0.499925
C57	C	0.917892	-0.348950	-0.000074
C58	C	1.417892	0.151050	0.499926
C59	C	0.849828	-0.294169	-0.000074
C60	C	1.349828	0.205831	0.499926
C61	C	0.856799	-0.213097	-0.000072
C62	C	1.356799	0.286903	0.499928
C63	C	0.893268	-0.593024	-0.000088
C64	C	1.393268	-0.093024	0.499912
C65	C	0.886302	-0.674103	-0.000087
C66	C	1.386302	-0.174103	0.499913
C67	C	1.029396	-0.702582	-0.000089
C68	C	1.529396	-0.202582	0.499911
C69	C	1.036359	-0.621506	-0.000080
C70	C	1.536359	-0.121506	0.499920
C71	C	0.968296	-0.566733	-0.000087
C72	C	1.468296	-0.066733	0.499913
C73	C	0.910767	-0.431821	-0.000081
C74	C	1.410767	0.068179	0.499919
C75	C	0.975423	-0.483865	-0.000088
C76	C	1.475423	0.016135	0.499912
C77	C	1.087558	0.026520	-0.000082
C78	C	1.587558	0.526520	0.499918
C79	C	1.175613	0.022007	-0.000095
C80	C	1.675613	0.522007	0.499905
C81	C	0.946947	0.184838	-0.000082
C82	C	1.446947	0.684838	0.499918
C83	C	0.954361	0.271122	-0.000090
C84	C	1.454361	0.771122	0.499910
N85	N	0.898889	0.091888	0.292844
N86	N	1.398889	0.591888	0.792844
N87	N	0.987307	-0.007575	-0.292985
N88	N	1.487307	0.492425	0.207015
C89	C	1.046526	-0.074213	0.647831
C90	C	1.546526	0.425787	1.147831
C91	C	1.064376	-0.094300	0.529492
C92	C	1.564376	0.405700	1.029492
C93	C	1.023006	-0.047755	0.470324
C94	C	1.523006	0.452245	0.970324
C95	C	0.963782	0.018881	0.529507
C96	C	1.463782	0.518881	1.029507
C97	C	0.945934	0.038975	0.647858
C98	C	1.445934	0.538975	1.147858
C99	C	0.922414	0.065432	0.470351
C100	C	1.422414	0.565432	0.970351
C101	C	0.863190	0.132069	0.529534
C102	C	1.363190	0.632069	1.029534
C103	C	0.845344	0.152158	0.647874
C104	C	1.345344	0.652158	1.147874
C105	C	0.886715	0.105613	0.707042
C106	C	1.386715	0.605613	1.207042
C107	C	0.940262	0.045339	0.352000
C108	C	1.440262	0.545339	0.852000
C109	C	0.839670	0.158527	0.352027
C110	C	1.339670	0.658527	0.852027
C111	C	0.821819	0.178614	0.470367
C112	C	1.321819	0.678614	0.970367
H113	H	0.423089	0.135106	-0.000106
H114	H	0.923089	0.635106	0.499894
N115	N	0.723473	-0.086564	-0.000034
N116	N	1.223473	0.413436	0.499966
H117	H	0.687655	-0.129903	-0.000041
H118	H	1.187655	0.370097	0.499959
H119	H	0.768530	-0.103270	-0.069725
H120	H	1.268530	0.396730	0.430275
N121	N	0.551507	-0.077749	-0.000059
N122	N	1.051507	0.422251	0.499941
H123	H	0.593205	-0.125055	-0.000041
H124	H	1.093205	0.374945	0.499959
H125	H	0.506856	-0.067268	0.069636
H126	H	1.006856	0.432732	0.569636
H127	H	1.112597	-0.148554	0.481309
H128	H	1.612597	0.351446	0.981309
N129	N	1.091134	-0.124413	0.711649
N130	N	1.591134	0.375587	1.211649
H131	H	1.131357	-0.169679	0.656203
H132	H	1.631357	0.330321	1.156203
H133	H	1.120769	-0.088670	0.760736
H134	H	1.620769	0.411330	1.260736
H135	H	1.084809	-0.747187	-0.000086
H136	H	1.584809	-0.247187	0.499914
H137	H	0.191712	-0.108193	-0.000091
H138	H	0.691712	0.391807	0.499909
N139	N	0.781466	0.224027	0.711711
N140	N	1.281466	0.724027	1.211711
H141	H	0.757961	0.250461	0.656275
H142	H	1.257961	0.750461	1.156275
H143	H	0.737026	0.204944	0.760821
H144	H	1.237026	0.704944	1.260821
N145	N	0.532262	0.219699	-0.000061
N146	N	1.032262	0.719699	0.499939
H147	H	0.508242	0.212858	-0.069748
H148	H	1.008242	0.712858	0.430252
H149	H	0.487256	0.236454	0.069690
H150	H	0.987256	0.736454	0.569690
N151	N	0.704184	0.210858	-0.000086
N152	N	1.204184	0.710858	0.499914
H153	H	0.677234	0.254712	0.069601
H154	H	1.177234	0.754712	0.569601
H155	H	0.763572	0.196925	-0.000124
H156	H	1.263572	0.696925	0.499876
N157	N	0.795047	0.208739	0.288226
N158	N	1.295047	0.708739	0.788226
H159	H	0.815338	0.185897	0.204276
H160	H	1.315338	0.685897	0.704276
H161	H	0.735114	0.207095	0.308932
H162	H	1.235114	0.707095	0.808932
H163	H	0.801378	-0.168498	-0.000070
H164	H	1.301378	0.331502	0.499930
H165	H	1.060985	-0.220175	-0.000058
H166	H	1.560985	0.279825	0.499942
H167	H	1.048341	-0.367249	-0.000075
H168	H	1.548341	0.132751	0.499925
N169	N	1.117293	-0.593165	-0.000106
N170	N	1.617293	-0.093165	0.499894
H171	H	1.133891	-0.571996	-0.069806
H172	H	1.633891	-0.071996	0.430194
H173	H	1.112812	-0.548361	0.069632
H174	H	1.612812	-0.048361	0.569632
N175	N	0.757945	0.250483	0.534212
N176	N	1.257945	0.750483	1.034212
H177	H	0.783146	0.291211	0.583301
H178	H	1.283146	0.791211	1.083301
H179	H	0.734461	0.276859	0.478712
H180	H	1.234461	0.776859	0.978712
H181	H	0.872179	0.121966	0.803404
H182	H	1.372179	0.621966	1.303404
H183	H	0.341812	-0.115886	-0.000078
H184	H	0.841812	0.384114	0.499922
H185	H	0.463114	-0.050795	-0.000064
H186	H	0.963114	0.449205	0.499936
N187	N	1.056344	-0.455507	-0.000079
N188	N	1.556344	0.044493	0.499921
H189	H	1.072949	-0.434330	-0.069770
H190	H	1.572949	0.065670	0.430230
H191	H	1.051834	-0.410703	0.069668
H192	H	1.551834	0.089297	0.569668
H193	H	0.825199	-0.695505	-0.000068
H194	H	1.325199	-0.195505	0.499932
N195	N	0.819861	-0.533953	-0.000090
N196	N	1.319861	-0.033953	0.499910
H197	H	0.771274	-0.562916	-0.000084
H198	H	1.271274	-0.062916	0.499916
H199	H	0.809114	-0.487865	0.069608
H200	H	1.309114	0.012135	0.569608
N201	N	0.768904	-0.322528	-0.000081
N202	N	1.268904	0.177472	0.499919
H203	H	0.774813	-0.382198	-0.000079
H204	H	1.274813	0.117802	0.499921
H205	H	0.728359	-0.290306	0.069618
H206	H	1.228359	0.209694	0.569618
N207	N	0.829845	-0.460189	-0.000067
N208	N	1.329845	0.039811	0.499933
H209	H	0.789259	-0.428028	0.069634
H210	H	1.289259	0.071972	0.569634
H211	H	0.810364	-0.451687	-0.069804
H212	H	1.310364	0.048313	0.430196
N213	N	1.004128	-0.026530	0.288160
N214	N	1.504128	0.473470	0.788160
H215	H	1.057861	-0.017908	0.308732
H216	H	1.557861	0.482092	0.808732
H217	H	0.988089	-0.077611	0.308790
H218	H	1.488089	0.422389	0.808790
N219	N	0.162719	0.170886	-0.000080
N220	N	0.662719	0.670886	0.499920
H221	H	0.198543	0.214220	-0.000077
H222	H	0.698543	0.714220	0.499923
H223	H	0.138706	0.163943	-0.069773
H224	H	0.638706	0.663943	0.430227
N225	N	1.042247	-0.069417	0.342687
N226	N	1.542247	0.430583	0.842687
H227	H	1.101140	-0.066604	0.314154
H228	H	1.601140	0.433396	0.814154
H229	H	1.031397	-0.126339	0.314285
H230	H	1.531397	0.373661	0.814285
H231	H	0.324978	0.143712	-0.000114
H232	H	0.824978	0.643712	0.499886
