data_functionalizedCrystal
_audit_creation_method	'MofGen! by Chris Wilmer'
_symmetry_space_group_name_H-M	'P1'
_symmetry_Int_Tables_number	1
_symmetry_cell_setting	triclinic
loop_
_symmetry_equiv_pos_as_xyz
  x,y,z
_cell_length_a	9.198806
_cell_length_b	11.026644
_cell_length_c	10.723022
_cell_angle_alpha	83.474313
_cell_angle_beta	90.005661
_cell_angle_gamma	90.000035
loop_
_atom_site_label
_atom_site_type_symbol
_atom_site_fract_x
_atom_site_fract_y
_atom_site_fract_z
O1	O	0.120918	-1.614502	0.523481
O2	O	0.120914	-1.260702	0.463876
O3	O	0.120911	-1.445764	0.313864
O4	O	0.120921	-1.429440	0.673493
O5	O	-0.120874	-1.445763	0.313848
O6	O	-0.120871	-1.260701	0.463860
O7	O	-0.120867	-1.614502	0.523466
Cu8	Cu	-0.142946	-1.437601	0.493662
Cu9	Cu	0.142993	-1.437602	0.493680
O10	O	-0.120864	-1.429440	0.673478
C11	C	0.000021	-1.215400	0.452872
C12	C	0.000020	-1.080414	0.420091
N13	N	-0.344060	-1.437610	0.493650
N14	N	0.344107	-1.437603	0.493684
C15	C	0.000022	-0.867845	0.476739
C16	C	0.000023	-1.007360	0.510622
C17	C	0.416302	-1.515475	0.430556
C18	C	0.583715	-1.515479	0.430538
C19	C	0.000020	-1.444576	0.267100
C20	C	0.000025	-1.441023	0.127779
C21	C	0.000025	-0.659804	0.534472
C22	C	0.000026	-0.794789	0.567257
C23	C	0.000026	-1.334304	0.056185
C24	C	0.000032	-1.330630	-0.087811
C25	C	0.000030	-1.430627	0.720242
C26	C	0.000035	-1.434180	0.859563
H27	H	-0.000003	-0.827103	0.374158
H28	H	0.000020	-0.835531	0.669838
H29	H	0.000017	-1.048095	0.613210
C30	C	0.333652	-1.604300	0.358285
C31	C	0.370565	-1.583571	0.230974
C32	C	0.294472	-1.665381	0.164356
H33	H	0.232120	-1.592561	0.367718
H34	H	0.358552	-1.685605	0.390011
H35	H	0.345656	-1.502285	0.199258
H36	H	0.472084	-1.595319	0.221503
H37	H	0.319372	-1.746686	0.196083
H38	H	0.192944	-1.653635	0.173800
H39	H	0.319517	-1.651335	0.077972
C40	C	0.000096	-1.025878	0.283372
C41	C	0.000135	-0.898343	0.276940
C42	C	0.000229	-0.848063	0.151020
H43	H	-0.084194	-1.052039	0.242786
H44	H	0.084448	-1.052109	0.242907
H45	H	-0.084208	-0.872123	0.317388
H46	H	0.084419	-0.872147	0.317500
H47	H	0.084581	-0.874294	0.110555
H48	H	-0.084063	-0.874233	0.110444
H49	H	0.000268	-0.761526	0.146639
H50	H	0.645800	-1.582144	0.376486
C51	C	-0.000191	-1.208701	-0.169694
C52	C	-0.124566	-1.142711	-0.143954
C53	C	-0.124809	-1.030375	-0.219352
H54	H	-0.000260	-1.222250	-0.255607
H55	H	0.084081	-1.163699	-0.152368
H56	H	-0.208816	-1.187703	-0.161290
H57	H	-0.124523	-1.129128	-0.058056
H58	H	-0.040538	-0.985373	-0.202025
H59	H	-0.124875	-1.043937	-0.305260
H60	H	-0.209189	-0.985582	-0.201890
H61	H	0.406236	-1.370942	0.547721
H62	H	0.000021	-1.529669	0.082469
H63	H	0.000016	-1.245659	0.101496
H64	H	0.593864	-1.370933	0.547694
C65	C	0.000110	-1.556149	-0.058623
C66	C	0.000151	-1.650968	-0.135092
C67	C	0.000241	-1.763341	-0.059760
H68	H	-0.084182	-1.562163	-0.007128
H69	H	0.084461	-1.562052	-0.007157
H70	H	-0.084191	-1.645067	-0.186536
H71	H	0.084436	-1.644994	-0.186586
H72	H	0.084592	-1.769244	-0.008294
H73	H	-0.084052	-1.769342	-0.008268
H74	H	0.000282	-1.827689	-0.111632
