data_functionalizedCrystal
_audit_creation_method	'MofGen! by Chris Wilmer'
_symmetry_space_group_name_H-M	'P1'
_symmetry_Int_Tables_number	1
_symmetry_cell_setting	triclinic
loop_
_symmetry_equiv_pos_as_xyz
  x,y,z
_cell_length_a	17.077404
_cell_length_b	12.645330
_cell_length_c	17.077396
_cell_angle_alpha	90.026204
_cell_angle_beta	90.018362
_cell_angle_gamma	90.010616
loop_
_atom_site_label
_atom_site_type_symbol
_atom_site_fract_x
_atom_site_fract_y
_atom_site_fract_z
Zn1	Zn	1.200110	-0.422097	0.443831
Zn2	Zn	1.200041	-0.599382	0.312570
Zn3	Zn	1.068842	-0.422127	0.312582
Zn4	Zn	1.068834	-0.599312	0.443797
O5	O	1.134457	-0.510730	0.378195
O6	O	1.309948	-0.445631	0.426429
O7	O	1.182612	-0.575911	0.202725
O8	O	1.086288	-0.273776	0.330012
O9	O	1.309897	-0.575882	0.329992
O10	O	1.182730	-0.273754	0.426440
O11	O	1.086221	-0.445682	0.202733
O12	O	0.958994	-0.445614	0.329978
O13	O	1.086273	-0.575762	0.553648
O14	O	0.958988	-0.575792	0.426381
O15	O	1.182722	-0.445563	0.553674
O16	O	1.182603	-0.747720	0.329959
O17	O	1.086206	-0.747669	0.426370
C18	C	0.930509	-0.510700	0.378177
C19	C	0.843259	-0.510712	0.378189
C20	C	0.802296	-0.443011	0.428480
C21	C	0.720316	-0.443018	0.428483
C22	C	0.679300	-0.510732	0.378199
C23	C	0.720268	-0.578436	0.327902
C24	C	0.802247	-0.578423	0.327895
C25	C	0.549398	-0.578460	0.327922
C26	C	0.467414	-0.578475	0.327930
C27	C	0.467467	-0.443055	0.428510
C28	C	0.549446	-0.443042	0.428503
C29	C	0.590409	-0.510748	0.378207
C30	C	1.134418	-0.786159	0.378177
C31	C	1.134473	-0.903989	0.378195
C32	C	1.195019	-1.071541	0.317419
C33	C	1.195216	-0.948981	0.317568
C34	C	1.156905	-0.948374	0.460938
C35	C	1.157385	-1.070972	0.460616
C36	C	1.051470	-1.071312	0.357042
C37	C	1.051868	-0.948708	0.355187
C38	C	1.339201	-0.510761	0.378213
C39	C	1.426451	-0.510774	0.378221
C40	C	1.134504	-0.510651	0.582939
C41	C	1.134525	-0.510618	0.670189
C42	C	1.134518	-0.234224	0.378231
C43	C	1.134544	-0.116394	0.378246
C44	C	1.134455	-0.510731	0.174247
C45	C	1.134587	-0.510466	0.086998
C46	C	1.184747	-0.442818	0.711194
C47	C	1.184757	-0.442782	0.793174
C48	C	1.134547	-0.510554	0.834149
C49	C	1.084319	-0.578357	0.793138
C50	C	1.084306	-0.578386	0.711159
C51	C	1.084350	-0.578294	0.964009
C52	C	1.084364	-0.578266	1.045993
C53	C	1.184801	-0.442689	1.046024
C54	C	1.184788	-0.442719	0.964045
C55	C	1.134561	-0.510524	0.923040
H56	H	0.434021	-0.633614	0.286984
C57	C	0.594456	-0.652943	0.272595
N58	N	0.628393	-0.709048	0.230928
C59	C	1.238016	-0.906796	0.485605
N60	N	1.299111	-0.875483	0.504180
C61	C	1.029100	-0.652887	0.918905
N62	N	0.987491	-0.709075	0.884933
C63	C	0.675261	-0.368545	0.483810
N64	N	0.641325	-0.312448	0.525485
C65	C	1.239982	-0.368261	0.666130
N66	N	1.281584	-0.312100	0.632190
C67	C	1.029059	-0.652974	0.666055
N68	N	0.987443	-0.709154	0.632083
C69	C	1.240007	-0.368198	0.838276
N70	N	1.281624	-0.312018	0.872246
H71	H	0.835686	-0.387873	0.469429
C72	C	0.847306	-0.652902	0.272573
N73	N	0.881243	-0.709000	0.230900
C74	C	1.176227	-0.908443	0.234689
N75	N	1.161917	-0.877915	0.172263
C76	C	1.023915	-1.113192	0.276946
N77	N	1.003169	-1.144735	0.216614
C78	C	1.029010	-0.909519	0.272929
N79	N	1.011794	-0.879991	0.210973
C80	C	0.422406	-0.368581	0.483839
N81	N	0.388463	-0.312495	0.525514
H82	H	1.225678	-0.387539	0.930685
C83	C	1.176303	-1.111474	0.234290
N84	N	1.162205	-1.141557	0.171676
H85	H	1.256218	-1.102275	0.331287
C86	C	1.240051	-0.368102	1.091130
N87	N	1.281666	-0.311928	1.125108
H88	H	0.582839	-0.387909	0.469453
H89	H	1.004379	-0.918092	0.396242
H90	H	0.686867	-0.633565	0.286956
H91	H	1.043477	-0.633449	1.079352
H92	H	1.043434	-0.633534	0.826506
H93	H	1.256746	-0.919576	0.331593
C94	C	1.239421	-1.109498	0.484870
N95	N	1.301214	-1.138511	0.503136
C96	C	1.099215	-0.908992	0.523808
N97	N	1.055763	-0.879326	0.571161
C98	C	1.100472	-1.111053	0.523937
N99	N	1.057611	-1.141237	0.571635
H100	H	1.006411	-1.100319	0.401345
