data_functionalizedCrystal
_audit_creation_method	'MofGen! by Chris Wilmer'
_symmetry_space_group_name_H-M	'P1'
_symmetry_Int_Tables_number	1
_symmetry_cell_setting	triclinic
loop_
_symmetry_equiv_pos_as_xyz
  x,y,z
_cell_length_a	31.640172
_cell_length_b	31.640172
_cell_length_c	17.917603
_cell_angle_alpha	63.034444
_cell_angle_beta	90.006769
_cell_angle_gamma	60.004780
loop_
_atom_site_label
_atom_site_type_symbol
_atom_site_fract_x
_atom_site_fract_y
_atom_site_fract_z
Zr1	Zr	0.409659	0.457702	-0.093764
O2	O	0.345122	0.539990	-0.207987
O3	O	0.429435	0.371337	-0.058750
O4	O	0.433288	0.451813	-0.207969
O5	O	0.338239	0.465581	0.058939
O6	O	0.502845	0.451805	-0.207953
O7	O	0.341269	0.459514	-0.058768
O8	O	0.495952	0.307849	0.058972
O9	O	0.345132	0.609537	-0.207986
O10	O	0.489789	0.408364	-0.043804
O11	O	0.435618	0.412898	0.044028
O12	O	0.440155	0.507648	-0.131657
O13	O	0.385984	0.512181	-0.043825
Zr14	Zr	0.515761	0.467365	0.093991
Zr15	Zr	0.520594	0.457689	-0.093739
Zr16	Zr	0.404827	0.467378	0.093966
Zr17	Zr	0.409674	0.568622	-0.093762
Zr18	Zr	0.515746	0.356445	0.093989
O19	O	0.495986	0.553730	0.058976
O20	O	0.502857	0.539972	-0.207951
O21	O	0.338251	0.553748	0.058941
O22	O	0.580299	0.385078	0.208213
O23	O	0.587170	0.371319	-0.058715
O24	O	0.422564	0.385096	0.208178
O25	O	0.587182	0.459486	-0.058713
O26	O	0.492132	0.473255	0.208195
O27	O	0.422576	0.473262	0.208179
O28	O	0.584152	0.465553	0.058995
O29	O	0.433310	0.609527	-0.207966
O30	O	0.492111	0.315540	0.208192
O31	O	0.580289	0.315530	0.208212
O32	O	0.584130	0.307839	0.058992
O33	O	0.341290	0.617229	-0.058765
O34	O	0.429469	0.617219	-0.058745
O35	O	0.485266	0.417420	0.131884
O36	O	0.539437	0.412886	0.044052
O37	O	0.489803	0.512169	-0.043802
O38	O	0.435632	0.516703	0.044030
C39	C	0.462691	0.323789	0.000110
C40	C	0.462685	0.276701	0.000110
C41	C	0.323948	0.462550	0.000082
C42	C	0.276853	0.462555	0.000071
C43	C	0.490997	-0.017707	-0.045726
C44	C	0.491008	-0.194703	-0.045726
O45	O	0.515074	-0.219619	-0.084686
N46	N	0.462731	-0.214466	0.000120
C47	C	0.434451	-0.189979	0.045974
O48	O	0.410404	-0.210853	0.084976
C49	C	0.434444	-0.012987	0.045978
C50	C	0.462719	0.006777	0.000122
C51	C	0.519270	0.002057	-0.091578
C52	C	0.519265	0.046305	-0.091581
C53	C	0.490987	0.070790	-0.045733
C54	C	0.462714	0.051026	0.000118
C55	C	0.406168	0.011496	0.091836
C56	C	0.406170	0.055746	0.091835
C57	C	0.434445	0.075510	0.045979
C58	C	0.434430	0.119759	0.045962
N59	N	0.462707	0.139521	0.000117
C60	C	0.490986	0.115037	-0.045731
C61	C	0.434456	-0.282902	0.045967
C62	C	0.434458	-0.327149	0.045965
C63	C	0.491015	-0.331870	-0.045734
C64	C	0.491010	-0.287620	-0.045736
C65	C	0.462734	-0.263139	0.000121
C66	C	0.490972	0.207962	-0.045736
C67	C	0.490963	0.252216	-0.045738
C68	C	0.434408	0.256932	0.045963
C69	C	0.434415	0.212684	0.045962
C70	C	0.462701	0.188198	0.000111
O71	O	0.410381	0.144696	0.084910
O72	O	0.515038	0.135911	-0.084711
C73	C	0.491002	-0.061956	-0.045723
C74	C	0.462729	-0.081719	0.000129
C75	C	0.434451	-0.057235	0.045977
C76	C	0.462730	-0.125967	0.000127
C77	C	0.491008	-0.150451	-0.045721
C78	C	0.519285	-0.130689	-0.091567
C79	C	0.519280	-0.086440	-0.091571
C80	C	0.406174	-0.076998	0.091822
C81	C	0.406181	-0.121246	0.091821
C82	C	0.434459	-0.145730	0.045973
C83	C	0.010754	0.410704	0.045990
C84	C	-0.166232	0.410695	0.046007
O85	O	-0.167084	0.366621	0.085040
N86	N	-0.214270	0.462519	0.000147
C87	C	-0.218061	0.514350	-0.045716
O88	O	-0.262981	0.558430	-0.084715
C89	C	-0.041076	0.514359	-0.045727
C90	C	0.006962	0.462531	0.000128
C91	C	0.058789	0.358880	0.091842
C92	C	0.103033	0.358883	0.091833
C93	C	0.099241	0.410710	0.045972
C94	C	0.051205	0.462533	0.000119
C95	C	-0.044867	0.566189	-0.091584
C96	C	-0.000616	0.566187	-0.091581
C97	C	0.047422	0.514359	-0.045726
C98	C	0.091657	0.514363	-0.045751
N99	N	0.139695	0.462538	0.000109
C100	C	0.143487	0.410712	0.045971
C101	C	-0.310978	0.514341	-0.045708
C102	C	-0.355224	0.514339	-0.045706
C103	C	-0.303392	0.410684	0.046018
C104	C	-0.259146	0.410686	0.046011
C105	C	-0.262940	0.462517	0.000152
C106	C	0.236400	0.410721	0.045948
C107	C	0.280645	0.410728	0.045933
C108	C	0.228809	0.514383	-0.045787
C109	C	0.184568	0.514376	-0.045776
C110	C	0.188366	0.462541	0.000099
O111	O	0.092548	0.558414	-0.084755
O112	O	0.188411	0.366639	0.084980
C113	C	-0.033490	0.410701	0.045998
C114	C	-0.081525	0.462525	0.000146
C115	C	-0.085317	0.514352	-0.045716
C116	C	-0.125771	0.462523	0.000147
C117	C	-0.121979	0.410697	0.046008
C118	C	-0.073941	0.358872	0.091868
C119	C	-0.029698	0.358875	0.091860
C120	C	-0.133355	0.566176	-0.091576
C121	C	-0.177597	0.566169	-0.091564
C122	C	-0.173805	0.514343	-0.045703
C123	C	0.601473	0.462518	0.000144
C124	C	0.648568	0.462512	0.000155
C125	C	0.468755	0.450430	-0.234708
C126	C	0.470807	0.446322	-0.314405
C127	C	0.462729	0.601278	0.000116
C128	C	0.462736	0.648367	0.000117
C129	C	0.474565	0.438819	-0.460336
C130	C	0.450857	0.486246	-0.539440
C131	C	0.452948	0.482071	-0.620642
C132	C	0.472474	0.442993	-0.379126
C133	C	0.456665	0.474637	0.234935
C134	C	0.454614	0.478745	0.314631
C135	C	0.601454	0.323773	0.000142
C136	C	0.648542	0.276679	0.000152
C137	C	0.456646	0.335893	0.234932
C138	C	0.454588	0.292912	0.314628
C139	C	0.595409	0.335877	0.234963
C140	C	0.640446	0.292891	0.314669
C141	C	0.330012	0.589191	-0.234737
C142	C	0.284975	0.632177	-0.314443
C143	C	0.323967	0.601294	0.000084
C144	C	0.276878	0.648388	0.000075
C145	C	0.468774	0.589175	-0.234706
C146	C	0.470832	0.632155	-0.314401
C147	C	0.644740	0.252203	-0.045711
C148	C	0.688980	0.207958	-0.045720
C149	C	0.737023	0.188188	0.000140
C150	C	0.740824	0.212669	0.046005
C151	C	0.696584	0.256916	0.046007
C152	C	0.479537	0.275089	0.397921
C153	C	0.477602	0.234710	0.472810
C154	C	0.450719	0.212153	0.464405
C155	C	0.425767	0.229980	0.381102
C156	C	0.427700	0.270361	0.306215
C157	C	0.689877	0.270337	0.306253
C158	C	0.732198	0.229953	0.381138
C159	C	0.725087	0.212120	0.464439
C160	C	0.675651	0.234677	0.472854
C161	C	0.633331	0.275064	0.397970
C162	C	0.235544	0.654735	-0.306026
C163	C	0.193223	0.695133	-0.380912
C164	C	0.200334	0.712969	-0.464213
C165	C	0.249770	0.690409	-0.472628
C166	C	0.292090	0.650014	-0.397743
C167	C	0.280681	0.672869	0.045930
C168	C	0.236441	0.717124	0.045918
C169	C	0.188399	0.736896	0.000055
C170	C	0.184597	0.712413	-0.045806
C171	C	0.228837	0.668161	-0.045798
C172	C	0.497719	0.654700	-0.305967
C173	C	0.499663	0.695080	-0.380843
C174	C	0.474716	0.712917	-0.464151
C175	C	0.447829	0.690368	-0.472583
C176	C	0.445888	0.649986	-0.397709
H177	H	0.513987	0.268307	-0.083083
O178	O	0.770735	0.168551	0.545204
H179	H	0.794107	0.185526	0.545153
H180	H	0.319795	0.656775	0.083283
H181	H	0.428988	0.529985	-0.546180
O182	O	0.227870	0.635502	-0.216184
H183	H	0.206200	0.673038	-0.208569
O184	O	0.240546	0.743520	0.095396
H185	H	0.281386	0.722326	0.127302
O186	O	0.257432	0.709650	-0.562479
H187	H	0.298914	0.687183	-0.555762
H188	H	0.542290	0.062393	-0.128918
H189	H	0.449149	0.179273	0.525390
O190	O	0.154683	0.756537	-0.544974
H191	H	0.167928	0.765155	-0.604318
H192	H	0.772447	0.211590	0.374271
O193	O	0.503528	0.380887	-0.451415
H194	H	0.544245	0.356752	-0.415082
H195	H	0.695676	0.284851	0.238432
O196	O	0.140683	0.784610	0.000078
H197	H	0.151403	0.798299	0.039688
H198	H	0.779946	0.196566	0.083342
H199	H	0.514039	-0.351812	-0.083066
O200	O	0.528663	0.719395	-0.371730
H201	H	0.525830	0.750467	-0.437786
H202	H	0.145475	0.728518	-0.083146
H203	H	0.225734	0.648230	-0.083137
H204	H	0.518034	0.640184	-0.238140
O205	O	0.476803	0.756479	-0.544906
H206	H	0.499686	0.769162	-0.525037
H207	H	0.605626	0.268298	-0.083067
H208	H	0.685875	0.188031	-0.083068
O209	O	0.504521	0.215486	0.562648
H210	H	0.498658	0.183622	0.613317
H211	H	0.423992	0.631634	-0.404588
H212	H	0.773042	0.152159	0.000132
H213	H	0.699687	0.276840	0.083360
O214	O	0.667984	0.215433	0.562702
H215	H	0.705719	0.183554	0.613352
O216	O	0.508531	0.299417	0.406998
H217	H	0.525547	0.280239	0.477504
O218	O	0.580015	0.299376	0.407052
H219	H	0.582186	0.280180	0.477559
H220	H	0.152974	0.713495	-0.374043
O221	O	0.420917	0.709614	-0.562439
H222	H	0.426780	0.741487	-0.613079
H223	H	0.514006	0.188030	-0.083071
H224	H	0.411385	0.196597	0.083290
H225	H	0.542300	-0.017876	-0.128912
O226	O	0.345405	0.625676	-0.406825
H227	H	0.343234	0.644862	-0.477332
H228	H	0.514034	-0.271531	-0.083075
H229	H	0.411429	-0.262974	0.083312
O230	O	0.403940	-0.348444	0.095385
H231	H	0.384276	-0.323978	0.127259
H232	H	-0.216710	0.608377	-0.128914
H233	H	0.383144	-0.004588	0.129178
H234	H	-0.300311	0.368484	0.083355
O235	O	0.375678	0.082155	0.141297
H236	H	0.334716	0.100952	0.114797
O237	O	0.403939	0.283315	0.095466
H238	H	0.408704	0.317390	0.087783
O239	O	0.396790	0.205632	0.372040
H240	H	0.399651	0.174549	0.438113
O241	O	0.400842	0.289489	0.216407
H242	H	0.359392	0.309235	0.208732
O243	O	0.549777	-0.065125	-0.141029
H244	H	0.590737	-0.100901	-0.114516
O245	O	0.549785	-0.157099	-0.141022
H246	H	0.545036	-0.191190	-0.133307
H247	H	0.383151	-0.137330	0.129160
H248	H	0.319759	0.368522	0.083276
O249	O	0.375668	-0.050587	0.141267
H250	H	0.356005	-0.071764	0.173136
H251	H	-0.314076	0.556550	-0.083057
H252	H	0.142144	0.316679	0.129170
O253	O	0.240499	0.354814	0.095414
H254	H	0.281338	0.318783	0.127284
H255	H	-0.083975	0.608393	-0.128924
O256	O	0.062885	0.302977	0.141300
H257	H	0.103724	0.266946	0.173171
H258	H	-0.220034	0.368484	0.083358
H259	H	-0.003712	0.608395	-0.128915
O260	O	-0.407035	0.570238	-0.095176
H261	H	-0.412215	0.597586	-0.068675
O262	O	0.132753	0.570274	-0.095234
H263	H	0.137551	0.606313	-0.127123
H264	H	0.225730	0.556579	-0.083130
H265	H	0.009413	0.316671	0.129202
O266	O	-0.069854	0.302971	0.141336
H267	H	-0.108694	0.311683	0.133637
H268	H	-0.136451	0.608381	-0.128924
