data_functionalizedCrystal
_audit_creation_method	'MofGen! by Chris Wilmer'
_symmetry_space_group_name_H-M	'P1'
_symmetry_Int_Tables_number	1
_symmetry_cell_setting	triclinic
loop_
_symmetry_equiv_pos_as_xyz
  x,y,z
_cell_length_a	27.731994
_cell_length_b	26.809956
_cell_length_c	15.944551
_cell_angle_alpha	89.996609
_cell_angle_beta	83.059636
_cell_angle_gamma	90.002666
loop_
_atom_site_label
_atom_site_type_symbol
_atom_site_fract_x
_atom_site_fract_y
_atom_site_fract_z
O1	O	0.641380	0.041410	0.099716
O2	O	0.974713	0.374743	0.433049
O3	O	1.308047	0.708076	0.766382
O4	O	0.500649	0.041426	0.114960
O5	O	0.833982	0.374760	0.448293
O6	O	1.167316	0.708093	0.781627
O7	O	0.574858	0.041413	-0.014989
O8	O	0.908191	0.374746	0.318345
O9	O	1.241524	0.708080	0.651678
O10	O	0.567171	0.041423	0.229664
O11	O	0.900505	0.374756	0.562998
O12	O	1.233838	0.708090	0.896331
O13	O	0.574844	-0.041546	-0.014969
O14	O	0.908177	0.291787	0.318365
O15	O	1.241510	0.625120	0.651698
O16	O	0.500635	-0.041533	0.114980
O17	O	0.833968	0.291800	0.448313
O18	O	1.167302	0.625134	0.781646
O19	O	0.641366	-0.041550	0.099736
O20	O	0.974699	0.291784	0.433069
O21	O	1.308033	0.625117	0.766402
Zn22	Zn	0.570998	-0.054713	0.107361
Zn23	Zn	0.904332	0.278621	0.440694
Zn24	Zn	1.237665	0.611954	0.774028
Zn25	Zn	0.571017	0.054590	0.107335
Zn26	Zn	0.904350	0.387923	0.440668
Zn27	Zn	1.237683	0.721256	0.774001
O28	O	0.567157	-0.041536	0.229684
O29	O	0.900491	0.291797	0.563017
O30	O	1.233824	0.625130	0.896351
C31	C	0.482633	-0.000051	0.114657
C32	C	0.815966	0.333282	0.447990
C33	C	1.149300	0.666615	0.781324
C34	C	0.428973	-0.000045	0.113715
C35	C	0.762306	0.333288	0.447048
C36	C	1.095639	0.666622	0.780381
N37	N	0.570989	-0.129309	0.107378
N38	N	0.904322	0.204025	0.440711
N39	N	1.237656	0.537358	0.774045
C40	C	0.096221	-0.045286	0.107790
C41	C	0.429554	0.288048	0.441123
C42	C	0.762888	0.621381	0.774457
C43	C	-0.105453	-0.045291	0.104208
C44	C	0.227881	0.288042	0.437541
C45	C	0.561214	0.621375	0.770874
O46	O	-0.131534	-0.083750	0.103718
O47	O	0.201799	0.249583	0.437051
O48	O	0.535133	0.582917	0.770384
N49	N	-0.130662	-0.000070	0.103752
N50	N	0.202671	0.333263	0.437085
N51	N	0.536005	0.666596	0.770419
C52	C	-0.105449	0.045155	0.104186
C53	C	0.227884	0.378489	0.437520
C54	C	0.561218	0.711822	0.770853
O55	O	-0.131518	0.083619	0.103708
O56	O	0.201816	0.416952	0.437041
O57	O	0.535149	0.750285	0.770375
C58	C	0.096224	0.045161	0.107763
C59	C	0.429557	0.378494	0.441096
C60	C	0.762891	0.711827	0.774429
C61	C	0.121430	-0.000063	0.108227
C62	C	0.454763	0.333270	0.441560
C63	C	0.788097	0.666603	0.774894
C64	C	0.121427	-0.090506	0.108253
C65	C	0.454760	0.242828	0.441587
C66	C	0.788094	0.576161	0.774920
C67	C	0.171842	-0.090504	0.109153
C68	C	0.505175	0.242829	0.442487
C69	C	0.838509	0.576163	0.775820
C70	C	0.197051	-0.045282	0.109590
C71	C	0.530384	0.288052	0.442924
C72	C	0.863718	0.621385	0.776257
C73	C	0.171845	-0.000061	0.109127
C74	C	0.505178	0.333272	0.442460
C75	C	0.838512	0.666605	0.775794
C76	C	0.121436	0.090386	0.108191
C77	C	0.454770	0.423719	0.441524
C78	C	0.788103	0.757053	0.774858
C79	C	0.171858	0.090383	0.109083
C80	C	0.505191	0.423716	0.442416
C81	C	0.838525	0.757050	0.775750
C82	C	0.197064	0.045159	0.109547
C83	C	0.530397	0.378493	0.442881
C84	C	0.863731	0.711826	0.776214
C85	C	0.247469	0.045163	0.110464
C86	C	0.580803	0.378496	0.443797
C87	C	0.914136	0.711829	0.777131
N88	N	0.272678	-0.000058	0.110920
N89	N	0.606012	0.333275	0.444253
N90	N	0.939345	0.666608	0.777586
C91	C	0.247469	-0.045281	0.110483
C92	C	0.580803	0.288053	0.443816
C93	C	0.914136	0.621386	0.777150
C94	C	-0.211331	0.045149	0.102310
C95	C	0.122003	0.378483	0.435644
C96	C	0.455336	0.711816	0.768977
C97	C	-0.261749	0.045148	0.101418
C98	C	0.071585	0.378482	0.434751
C99	C	0.404918	0.711815	0.768085
C100	C	-0.261749	-0.045299	0.101438
C101	C	0.071585	0.288035	0.434771
C102	C	0.404918	0.621368	0.768104
C103	C	-0.211330	-0.045297	0.102336
C104	C	0.122003	0.288036	0.435670
C105	C	0.455337	0.621370	0.769003
C106	C	-0.186121	-0.000072	0.102766
C107	C	0.147212	0.333262	0.436099
C108	C	0.480545	0.666595	0.769433
C109	C	0.353344	-0.045273	0.112374
C110	C	0.686678	0.288060	0.445707
C111	C	1.020011	0.621394	0.779041
C112	C	0.403764	-0.045267	0.113278
C113	C	0.737097	0.288066	0.446611
C114	C	1.070430	0.621400	0.779944
C115	C	0.403760	0.045179	0.113253
C116	C	0.737093	0.378513	0.446587
C117	C	1.070426	0.711846	0.779920
C118	C	0.353344	0.045174	0.112354
C119	C	0.686678	0.378507	0.445688
C120	C	1.020011	0.711840	0.779021
C121	C	0.328138	-0.000056	0.111912
C122	C	0.661472	0.333277	0.445245
C123	C	0.994805	0.666610	0.778578
O124	O	0.273582	0.083601	0.110945
O125	O	0.606916	0.416935	0.444279
O126	O	0.940249	0.750268	0.777612
O127	O	0.273548	-0.083738	0.110943
O128	O	0.606881	0.249595	0.444276
O129	O	0.940215	0.582929	0.777609
C130	C	0.045806	-0.045287	0.106890
C131	C	0.379139	0.288046	0.440223
C132	C	0.712473	0.621379	0.773557
C133	C	0.020600	-0.000067	0.106427
C134	C	0.353933	0.333266	0.439760
C135	C	0.687267	0.666600	0.773093
C136	C	0.045809	0.045155	0.106863
C137	C	0.379142	0.378488	0.440197
C138	C	0.712476	0.711822	0.773530
C139	C	-0.029818	-0.000068	0.105534
C140	C	0.303515	0.333265	0.438867
C141	C	0.636848	0.666598	0.772201
C142	C	-0.055027	-0.045291	0.105097
C143	C	0.278306	0.288043	0.438431
C144	C	0.611639	0.621376	0.771764
C145	C	-0.029818	-0.090512	0.105553
C146	C	0.303515	0.242822	0.438886
C147	C	0.636848	0.576155	0.772220
C148	C	0.020597	-0.090510	0.106453
C149	C	0.353930	0.242824	0.439786
C150	C	0.687263	0.576157	0.773120
C151	C	0.020600	0.090376	0.106408
C152	C	0.353933	0.423709	0.439741
C153	C	0.687267	0.757043	0.773074
C154	C	-0.029815	0.090371	0.105509
C155	C	0.303518	0.423704	0.438842
C156	C	0.636851	0.757037	0.772175
C157	C	-0.055024	0.045148	0.105072
C158	C	0.278309	0.378482	0.438405
C159	C	0.611642	0.711815	0.771738
C160	C	0.603872	-0.473941	0.049808
C161	C	0.937205	-0.140607	0.383141
C162	C	1.270539	0.192726	0.716474
C163	C	0.603884	-0.682818	0.049795
C164	C	0.937217	-0.349485	0.383128
C165	C	1.270550	-0.016152	0.716461
O166	O	0.631822	-0.709827	0.000852
O167	O	0.965155	-0.376494	0.334185
O168	O	1.298489	-0.043161	0.667518
N169	N	0.571019	-0.708936	0.107316
N170	N	0.904353	-0.375603	0.440650
N171	N	1.237686	-0.042269	0.773983
C172	C	0.538148	-0.682831	0.164841
C173	C	0.871481	-0.349497	0.498175
C174	C	1.204814	-0.016164	0.831508
O175	O	0.510192	-0.709838	0.213761
O176	O	0.843525	-0.376505	0.547094
O177	O	1.176858	-0.043171	0.880427
C178	C	0.538134	-0.473954	0.164850
C179	C	0.871468	-0.140621	0.498183
C180	C	1.204801	0.192713	0.831516
C181	C	0.571004	-0.447839	0.107330
C182	C	0.904337	-0.114506	0.440663
C183	C	1.237671	0.218827	0.773997
C184	C	0.636739	-0.447826	-0.007708
C185	C	0.970072	-0.114493	0.325626
C186	C	1.303405	0.218841	0.658959
C187	C	0.636737	-0.395610	-0.007701
C188	C	0.970071	-0.062276	0.325632
C189	C	1.303404	0.271057	0.658966
C190	C	0.603869	-0.369508	0.049821
C191	C	0.937203	-0.036175	0.383155
C192	C	1.270536	0.297159	0.716488
C193	C	0.571003	-0.395623	0.107337
C194	C	0.904336	-0.062290	0.440670
C195	C	1.237669	0.271044	0.774004
C196	C	0.505261	-0.447850	0.222370
C197	C	0.838594	-0.114516	0.555703
C198	C	1.171928	0.218817	0.889037
C199	C	0.505260	-0.395627	0.222365
C200	C	0.838593	-0.062294	0.555699
C201	C	1.171926	0.271039	0.889032
C202	C	0.538129	-0.369513	0.164846
C203	C	0.871463	-0.036179	0.498179
C204	C	1.204796	0.297154	0.831513
C205	C	0.538133	-0.317305	0.164866
C206	C	0.871466	0.016028	0.498199
C207	C	1.204800	0.349362	0.831533
N208	N	0.570997	-0.291188	0.107345
N209	N	0.904331	0.042146	0.440678
N210	N	1.237664	0.375479	0.774011
C211	C	0.603865	-0.317289	0.049822
C212	C	0.937199	0.016044	0.383156
C213	C	1.270532	0.349377	0.716489
C214	C	0.538158	-0.792494	0.164834
C215	C	0.871491	-0.459161	0.498167
C216	C	1.204824	-0.125827	0.831501
C217	C	0.538162	-0.844713	0.164833
C218	C	0.871495	-0.511380	0.498166
C219	C	1.204828	-0.178046	0.831500
C220	C	0.603897	-0.844697	0.049785
C221	C	0.937230	-0.511364	0.383119
C222	C	1.270564	-0.178030	0.716452
C223	C	0.603895	-0.792477	0.049791
C224	C	0.937228	-0.459144	0.383124
C225	C	1.270562	-0.125811	0.716457
C226	C	0.571022	-0.766377	0.107313
C227	C	0.904355	-0.433043	0.440646
C228	C	1.237689	-0.099710	0.773979
C229	C	0.603860	-0.207631	0.049842
C230	C	0.937194	0.125702	0.383175
C231	C	1.270527	0.459035	0.716508
C232	C	0.603857	-0.155410	0.049856
C233	C	0.937191	0.177923	0.383189
C234	C	1.270524	0.511256	0.716522
C235	C	0.538120	-0.155431	0.164900
C236	C	0.871454	0.177903	0.498234
C237	C	1.204787	0.511236	0.831567
C238	C	0.538125	-0.207647	0.164889
C239	C	0.871458	0.125686	0.498223
C240	C	1.204792	0.459020	0.831556
C241	C	0.570997	-0.233746	0.107353
C242	C	0.904330	0.099587	0.440686
C243	C	1.237663	0.432921	0.774020
O244	O	0.510206	-0.290264	0.213777
O245	O	0.843539	0.043069	0.547111
O246	O	1.176872	0.376403	0.880444
O247	O	0.631810	-0.290273	0.000898
O248	O	0.965144	0.043060	0.334231
O249	O	1.298477	0.376394	0.667564
C250	C	0.603874	-0.526157	0.049801
C251	C	0.937207	-0.192824	0.383134
C252	C	1.270540	0.140510	0.716467
C253	C	0.571007	-0.552272	0.107316
C254	C	0.904340	-0.218939	0.440650
C255	C	1.237674	0.114395	0.773983
C256	C	0.538139	-0.526170	0.164839
C257	C	0.871472	-0.192837	0.498172
C258	C	1.204806	0.140496	0.831505
C259	C	0.571011	-0.604491	0.107315
C260	C	0.904344	-0.271157	0.440649
C261	C	1.237677	0.062176	0.773982
C262	C	0.603879	-0.630592	0.049793
C263	C	0.937212	-0.297259	0.383126
C264	C	1.270545	0.036074	0.716460
C265	C	0.636743	-0.604475	-0.007728
C266	C	0.970076	-0.271141	0.325605
C267	C	1.303410	0.062192	0.658938
C268	C	0.636742	-0.552259	-0.007721
C269	C	0.970075	-0.218925	0.325612
C270	C	1.303408	0.114408	0.658945
C271	C	0.505275	-0.552288	0.222360
C272	C	0.838608	-0.218954	0.555693
C273	C	1.171941	0.114379	0.889027
C274	C	0.505279	-0.604504	0.222349
C275	C	0.838612	-0.271171	0.555682
C276	C	1.171946	0.062163	0.889016
C277	C	0.538147	-0.630606	0.164827
C278	C	0.871480	-0.297272	0.498160
C279	C	1.204814	0.036061	0.831493
C280	C	0.659382	-0.000071	0.100039
C281	C	0.992715	0.333262	0.433372
C282	C	1.326049	0.666596	0.766705
C283	C	0.713042	-0.000074	0.100981
C284	C	1.046376	0.333259	0.434314
C285	C	1.379709	0.666593	0.767648
C286	C	0.574531	-0.000067	-0.046268
C287	C	0.907865	0.333267	0.287065
C288	C	1.241198	0.666600	0.620398
C289	C	0.573575	-0.000067	-0.139501
C290	C	0.906908	0.333267	0.193832
C291	C	1.240242	0.666600	0.527165
N292	N	0.571030	0.129186	0.107311
N293	N	0.904363	0.462519	0.440644
N294	N	1.237696	0.795852	0.773977
C295	C	0.525290	-0.000054	-0.353710
C296	C	0.858624	0.333279	-0.020377
C297	C	1.191957	0.666612	0.312956
C298	C	0.547705	-0.040961	-0.415019
C299	C	0.881038	0.292373	-0.081685
C300	C	1.214372	0.625706	0.251648
C301	C	0.571844	-0.000063	-0.310204
C302	C	0.905178	0.333271	0.023129
C303	C	1.238511	0.666604	0.356463
C304	C	0.547730	0.040831	-0.415022
C305	C	0.881063	0.374164	-0.081689
C306	C	1.214397	0.707497	0.251645
C307	C	0.570169	-0.000057	-0.475094
C308	C	0.903503	0.333277	-0.141761
C309	C	1.236836	0.666610	0.191572
C310	C	0.594272	-0.041003	-0.370284
C311	C	0.927605	0.292330	-0.036951
C312	C	1.260939	0.625664	0.296382
C313	C	0.594290	0.040825	-0.370281
C314	C	0.927623	0.374158	-0.036948
C315	C	1.260957	0.707492	0.296386
C316	C	0.616739	-0.000092	-0.431572
C317	C	0.950072	0.333242	-0.098239
C318	C	1.283405	0.666575	0.235094
C319	C	0.572808	-0.000067	-0.215215
C320	C	0.906141	0.333267	0.118119
C321	C	1.239475	0.666600	0.451452
C322	C	0.569209	-0.000056	-0.570083
C323	C	0.902542	0.333277	-0.236749
C324	C	1.235876	0.666610	0.096584
C325	C	0.567484	-0.000056	0.260964
C326	C	0.900817	0.333278	0.594297
C327	C	1.234150	0.666611	0.927631
C328	C	0.568440	-0.000052	0.354197
C329	C	0.901773	0.333281	0.687530
C330	C	1.235107	0.666615	1.020864
H331	H	0.424284	-0.082096	0.113659
H332	H	0.757617	0.251238	0.446992
H333	H	1.090950	0.584571	0.780325
H334	H	0.663504	-0.469073	-0.054553
H335	H	0.996837	-0.135740	0.278780
H336	H	1.330170	0.197593	0.612113
F337	F	0.503146	-0.235439	0.226118
F338	F	0.836479	0.097894	0.559451
F339	F	1.169813	0.431227	0.892784
F340	F	0.521990	0.086030	-0.440947
F341	F	0.855323	0.419363	-0.107614
F342	F	1.188657	0.752697	0.225719
H343	H	0.332827	-0.082104	0.112021
H344	H	0.666160	0.251229	0.445355
H345	H	0.999494	0.584563	0.778688
H346	H	-0.050334	0.127200	0.105137
H347	H	0.282999	0.460533	0.438471
H348	H	0.616333	0.793867	0.771804
H349	H	0.528009	-0.075539	-0.434855
H350	H	0.861342	0.257794	-0.101521
H351	H	1.194675	0.591127	0.231812
H352	H	0.655415	-0.000119	-0.465250
H353	H	0.988748	0.333214	-0.131916
H354	H	1.322081	0.666547	0.201417
H355	H	0.486648	-0.000090	-0.319884
H356	H	0.819982	0.333243	0.013449
H357	H	1.153315	0.666576	0.346782
H358	H	0.192360	-0.127330	0.109526
H359	H	0.525694	0.206003	0.442860
H360	H	0.859027	0.539337	0.776193
H361	H	-0.282268	0.081974	0.101053
H362	H	0.051065	0.415308	0.434387
H363	H	0.384399	0.748641	0.767720
F364	F	0.619981	-0.086255	-0.344493
F365	F	0.953314	0.247078	-0.011160
F366	F	1.286648	0.580411	0.322173
F367	F	0.326517	0.093306	0.111874
F368	F	0.659850	0.426639	0.445207
F369	F	0.993183	0.759973	0.778540
F370	F	0.430598	0.093306	0.113716
F371	F	0.763931	0.426639	0.447049
F372	F	1.097265	0.759972	0.780383
H373	H	0.613970	0.075405	-0.350423
H374	H	0.947303	0.408739	-0.017090
H375	H	1.280636	0.742072	0.316244
F376	F	0.638878	-0.764689	-0.011430
F377	F	0.972212	-0.431355	0.321904
F378	F	1.305545	-0.098022	0.655237
F379	F	-0.056657	-0.138640	0.105092
F380	F	0.276677	0.194693	0.438425
F381	F	0.610010	0.528026	0.771759
F382	F	0.094605	-0.138642	0.107791
F383	F	0.427938	0.194692	0.441124
F384	F	0.761272	0.528025	0.774457
H385	H	-0.190811	-0.082122	0.102715
H386	H	0.142522	0.251211	0.436048
H387	H	0.475856	0.584544	0.769382
H388	H	-0.282283	-0.082120	0.101084
H389	H	0.051051	0.251213	0.434417
H390	H	0.384384	0.584546	0.767750
H391	H	0.511361	-0.134171	0.211737
H392	H	0.844694	0.199163	0.545070
H393	H	1.178028	0.532496	0.878403
H394	H	-0.190810	0.081979	0.102660
H395	H	0.142523	0.415313	0.435993
H396	H	0.475857	0.748646	0.769327
F397	F	0.047423	0.138511	0.106871
F398	F	0.380756	0.471844	0.440205
F399	F	0.714089	0.805177	0.773538
F400	F	0.047417	-0.138644	0.106947
F401	F	0.380750	0.194690	0.440280
F402	F	0.714083	0.528023	0.773613
H403	H	0.630627	-0.228875	0.002989
H404	H	0.963960	0.104458	0.336323
H405	H	1.297293	0.437792	0.669656
F406	F	0.470295	-0.632292	0.283577
F407	F	0.803628	-0.298959	0.616911
F408	F	1.136961	0.034374	0.950244
F409	F	0.198684	0.138520	0.109538
F410	F	0.532018	0.471853	0.442871
F411	F	0.865351	0.805186	0.776205
F412	F	0.094621	0.138520	0.107695
F413	F	0.427955	0.471854	0.441028
F414	F	0.761288	0.805187	0.774362
H415	H	0.630625	-0.134149	0.003016
H416	H	0.963959	0.199184	0.336350
H417	H	1.297292	0.532517	0.669683
F418	F	0.638877	-0.872486	-0.011434
F419	F	0.972211	-0.539152	0.321899
F420	F	1.305544	-0.205819	0.655233
F421	F	0.671719	-0.367821	-0.068924
F422	F	1.005052	-0.034488	0.264409
F423	F	1.338386	0.298845	0.597742
H424	H	0.511401	-0.865972	0.211679
H425	H	0.844735	-0.532639	0.545013
H426	H	1.178068	-0.199305	0.878346
F427	F	0.503169	-0.764721	0.226061
F428	F	0.836502	-0.431388	0.559395
F429	F	1.169835	-0.098054	0.892728
F430	F	0.470276	-0.475634	0.283589
F431	F	0.803609	-0.142300	0.616922
F432	F	1.136943	0.191033	0.950256
F433	F	0.470269	-0.367853	0.283588
F434	F	0.803603	-0.034519	0.616922
F435	F	1.136936	0.298814	0.950255
F436	F	0.671726	-0.524471	-0.068942
F437	F	1.005059	-0.191138	0.264391
F438	F	1.338392	0.142195	0.597724
F439	F	0.671725	-0.632263	-0.068945
F440	F	1.005059	-0.298930	0.264388
F441	F	1.338392	0.034404	0.597721
H442	H	0.478509	-0.531040	0.269201
H443	H	0.811842	-0.197707	0.602534
H444	H	1.145176	0.135627	0.935867
