data_functionalizedCrystal
_audit_creation_method	'MofGen! by Chris Wilmer'
_symmetry_space_group_name_H-M	'P1'
_symmetry_Int_Tables_number	1
_symmetry_cell_setting	triclinic
loop_
_symmetry_equiv_pos_as_xyz
  x,y,z
_cell_length_a	19.121063
_cell_length_b	17.077404
_cell_length_c	17.077396
_cell_angle_alpha	89.980499
_cell_angle_beta	87.591200
_cell_angle_gamma	87.530787
loop_
_atom_site_label
_atom_site_type_symbol
_atom_site_fract_x
_atom_site_fract_y
_atom_site_fract_z
Zn1	Zn	-0.279610	-1.186697	0.457152
Zn2	Zn	-0.397067	-1.180993	0.331476
Zn3	Zn	-0.279634	-1.055428	0.325901
Zn4	Zn	-0.397025	-1.049788	0.462698
O5	O	-0.338334	-1.118227	0.394307
O6	O	-0.295198	-1.295787	0.440493
O7	O	-0.381517	-1.164310	0.220891
O8	O	-0.181347	-1.077589	0.338657
O9	O	-0.381493	-1.291597	0.348160
O10	O	-0.181328	-1.174032	0.435086
O11	O	-0.295240	-1.072058	0.216795
O12	O	-0.295199	-0.944833	0.344035
O13	O	-0.381422	-1.067976	0.571808
O14	O	-0.381446	-0.940690	0.444539
O15	O	-0.295157	-1.168563	0.567733
O16	O	-0.495346	-1.158841	0.353538
O17	O	-0.495315	-1.062445	0.449946
C18	C	-0.338321	-0.914279	0.394284
C19	C	-0.338333	-0.827029	0.394294
C20	C	-0.520815	-1.109434	0.402966
C21	C	-0.598881	-1.105744	0.406696
C22	C	-0.338282	-1.118277	0.599049
C23	C	-0.338260	-1.118298	0.686297
C24	C	-0.635549	-1.154237	0.358296
C25	C	-0.708900	-1.150772	0.361809
C26	C	-0.745582	-1.098808	0.413719
C27	C	-0.708908	-1.050312	0.462125
C28	C	-0.635558	-1.053782	0.458615
C29	C	-0.967052	-1.085821	0.426830
C30	C	-1.040407	-1.082353	0.430334
C31	C	-1.040393	-1.182814	0.330019
C32	C	-0.967042	-1.186276	0.326511
C33	C	-0.930375	-1.137783	0.374919
C34	C	-0.820559	-1.095262	0.417310
C35	C	-0.855399	-1.141333	0.371332
C36	C	-0.155141	-1.127075	0.385631
C37	C	-0.077075	-1.130846	0.381934
C38	C	-0.338347	-1.322970	0.394329
C39	C	-0.338353	-1.410220	0.394339
C40	C	-0.383309	-0.783899	0.446550
C41	C	-0.383311	-0.701918	0.446562
C42	C	-0.338339	-0.663069	0.394315
C43	C	-0.293358	-0.706206	0.342057
C44	C	-0.293353	-0.788185	0.342049
C45	C	-0.293371	-0.535335	0.342077
C46	C	-0.293377	-0.453350	0.342084
C47	C	-0.383329	-0.449068	0.446590
C48	C	-0.383324	-0.531047	0.446582
C49	C	-0.338344	-0.574178	0.394323
C50	C	-0.338335	-1.118224	0.190359
C51	C	-0.338159	-1.118365	0.103101
C52	C	-0.293338	-1.170675	0.725167
C53	C	-0.293315	-1.170686	0.807146
C54	C	-0.338217	-1.118322	0.850255
C55	C	-0.383141	-1.065939	0.811380
C56	C	-0.383160	-1.065925	0.729402
C57	C	-0.383099	-1.065973	0.982248
C58	C	-0.383081	-1.065987	1.064232
C59	C	-0.293254	-1.170733	1.059992
C60	C	-0.293273	-1.170720	0.978014
C61	C	-0.338198	-1.118337	0.939145
H62	H	-0.605687	-1.196548	0.316022
N63	N	-0.428913	-1.012469	1.108271
N64	N	-0.424211	-0.940264	1.098882
H65	H	-0.456569	-0.902458	1.129990
H66	H	-0.738752	-1.190260	0.322396
H67	H	-0.825531	-1.183645	0.329069
H68	H	-0.937177	-1.228589	0.284241
H69	H	-0.256673	-1.213384	1.091644
H70	H	-0.850433	-1.052952	0.459574
N71	N	-0.247442	-1.224201	0.846853
N72	N	-0.272150	-1.273032	0.893777
H73	H	-0.239750	-1.310829	0.921821
N74	N	-1.077859	-1.232338	0.280579
N75	N	-1.143349	-1.229235	0.283716
H76	H	-1.169810	-1.264215	0.248798
N77	N	-0.247400	-0.832233	0.288674
N78	N	-0.207246	-0.797540	0.242031
H79	H	-0.174786	-0.828647	0.204336
H80	H	-0.419670	-1.023306	0.950603
H81	H	-0.738781	-1.008005	0.504395
N82	N	-0.247410	-1.224220	0.933991
N83	N	-0.207304	-1.270986	0.968702
H84	H	-0.174912	-1.308772	0.937611
N85	N	-0.429258	-0.823565	0.499918
N86	N	-0.469412	-0.785042	0.546571
H87	H	-0.501865	-0.813054	0.584265
H88	H	-0.419733	-1.023267	0.697755
N89	N	-1.077867	-1.029259	0.483360
N90	N	-1.045121	-0.985963	0.526574
H91	H	-1.071577	-0.948464	0.564019
N92	N	-0.929614	-1.036283	0.476281
N93	N	-0.962377	-0.989890	0.522623
H94	H	-0.935935	-0.954900	0.557550
N95	N	-0.598111	-1.004247	0.508065
N96	N	-0.630869	-0.957855	0.554412
H97	H	-0.604423	-0.922871	0.589342
H98	H	-0.419948	-0.562675	0.489122
H99	H	-0.419952	-0.413947	0.489143
H100	H	-0.256738	-0.674569	0.299520
N101	N	-0.429253	-0.657874	0.499950
N102	N	-0.469404	-0.692569	0.546593
H103	H	-0.501852	-0.661464	0.584303
H104	H	-0.256748	-0.421722	0.299549
H105	H	-0.419699	-1.023301	0.846485
H106	H	-0.256737	-0.570450	0.299529
N107	N	-0.247471	-1.224175	0.681148
N108	N	-0.207365	-1.270935	0.715867
H109	H	-0.174968	-1.308720	0.684782
