data_functionalizedCrystal
_audit_creation_method	'MofGen! by Chris Wilmer'
_symmetry_space_group_name_H-M	'P1'
_symmetry_Int_Tables_number	1
_symmetry_cell_setting	triclinic
loop_
_symmetry_equiv_pos_as_xyz
  x,y,z
_cell_length_a	12.759401
_cell_length_b	19.076808
_cell_length_c	12.759393
_cell_angle_alpha	92.335254
_cell_angle_beta	90.018496
_cell_angle_gamma	92.323712
loop_
_atom_site_label
_atom_site_type_symbol
_atom_site_fract_x
_atom_site_fract_y
_atom_site_fract_z
Zn1	Zn	1.589374	-0.280174	0.577138
Zn2	Zn	1.582176	-0.397897	0.394381
Zn3	Zn	1.413674	-0.280210	0.401475
Zn4	Zn	1.406575	-0.397843	0.570025
O5	O	1.497950	-0.339031	0.485755
O6	O	1.735440	-0.295797	0.552902
O7	O	1.559782	-0.382323	0.248298
O8	O	1.442965	-0.181709	0.430723
O9	O	1.730151	-0.382288	0.418631
O10	O	1.572051	-0.181682	0.559781
O11	O	1.435984	-0.295860	0.253511
O12	O	1.265712	-0.295807	0.423826
O13	O	1.430866	-0.382195	0.717992
O14	O	1.260496	-0.382231	0.547659
O15	O	1.565167	-0.295745	0.723218
O16	O	1.552898	-0.496387	0.411735
O17	O	1.423885	-0.496347	0.540780
C18	C	1.224983	-0.339018	0.485741
C19	C	1.108206	-0.339029	0.485759
C20	C	1.050651	-0.384102	0.550124
C21	C	0.940927	-0.384111	0.550135
C22	C	0.946321	-0.293972	0.421408
C23	C	1.056044	-0.293960	0.421403
C24	C	1.047536	-0.436145	0.624440
C25	C	0.937811	-0.436154	0.624451
C26	C	1.486869	-0.521906	0.474739
C27	C	1.482224	-0.600140	0.470061
C28	C	1.547200	-0.636821	0.535112
C29	C	1.542832	-0.710330	0.530719
C30	C	1.473493	-0.747159	0.461269
C31	C	1.408509	-0.710473	0.396215
C32	C	1.412873	-0.636965	0.400614
C33	C	1.453236	-0.967013	0.440905
C34	C	1.448879	-1.040527	0.436508
C35	C	1.583201	-1.040379	0.571014
C36	C	1.587563	-0.966869	0.575403
C37	C	1.522576	-0.930190	0.510353
N38	N	1.469028	-0.822297	0.456774
N39	N	1.527036	-0.855053	0.514854
C40	C	1.771982	-0.339044	0.485769
C41	C	1.888758	-0.339050	0.485775
C42	C	1.498028	-0.338960	0.759792
C43	C	1.498061	-0.338930	0.876571
C44	C	1.509103	-0.155442	0.496837
C45	C	1.513855	-0.077207	0.501559
C46	C	1.497936	-0.339051	0.212786
C47	C	1.498118	-0.338883	0.096020
C48	C	1.568001	-0.293910	0.934156
C49	C	1.568028	-0.293885	1.043882
C50	C	1.428170	-0.383904	1.038427
C51	C	1.428139	-0.383925	0.928704
C52	C	1.648750	-0.241941	0.937306
C53	C	1.648777	-0.241915	1.047031
H54	H	0.904986	-0.416696	0.702973
C55	C	1.623462	-0.596316	0.611521
H56	H	1.661522	-0.628692	0.649643
H57	H	1.670969	-0.567628	0.573103
H58	H	1.584930	-0.567647	0.658978
C59	C	0.888944	-0.244401	0.350617
H60	H	0.938940	-0.217552	0.312289
H61	H	0.844495	-0.271290	0.303157
H62	H	0.848013	-0.213766	0.392741
C63	C	1.623765	-0.168309	0.901526
H64	H	1.613500	-0.138013	0.961270
H65	H	1.680539	-0.150206	0.861262
H66	H	1.561821	-0.171284	0.859984
H67	H	1.392410	-1.070510	0.379953
C68	C	0.893116	-0.509774	0.590391
H69	H	0.949193	-0.540042	0.576366
H70	H	0.850683	-0.527935	0.644945
H71	H	0.851910	-0.506760	0.528834
C72	C	1.088996	-0.416502	0.735586
H73	H	1.031589	-0.408425	0.781299
H74	H	1.128112	-0.453827	0.760279
H75	H	1.132854	-0.375124	0.733749
H76	H	1.102901	-0.257253	0.368999
C77	C	1.654678	-1.080724	0.642568
H78	H	1.696603	-1.048262	0.684554
H79	H	1.612765	-1.109401	0.686594
H80	H	1.698781	-1.109390	0.600695
H81	H	1.359961	-0.607101	0.347645
H82	H	1.724844	-0.261482	0.902095
C83	C	1.614309	-0.750676	0.602272
H84	H	1.656239	-0.718214	0.644254
H85	H	1.572396	-0.779351	0.646302
H86	H	1.658407	-0.779345	0.560398
H87	H	1.078432	-0.487901	0.592044
H88	H	1.400323	-0.937155	0.387937
C89	C	1.351265	-0.433399	1.095772
H90	H	1.309602	-0.460211	1.045759
H91	H	1.389598	-0.464061	1.136726
H92	H	1.307132	-0.406456	1.140197
H93	H	1.622784	-0.190122	1.084193
C94	C	1.757499	-0.261654	1.086081
H95	H	1.802191	-0.269795	1.027681
H96	H	1.786825	-0.224344	1.129702
H97	H	1.750548	-0.303016	1.124938
C98	C	1.663854	-0.926363	0.651781
H99	H	1.701927	-0.958737	0.689894
H100	H	1.711346	-0.897687	0.613327
H101	H	1.625354	-0.897682	0.699250
C102	C	1.332240	-0.750982	0.319819
H103	H	1.338954	-0.800015	0.326506
H104	H	1.262353	-0.738971	0.335849
H105	H	1.348378	-0.738959	0.249959
C106	C	1.351186	-0.433433	0.865365
H107	H	1.309553	-0.460228	0.912130
H108	H	1.307044	-0.406503	0.824195
H109	H	1.389489	-0.464121	0.820703
