data_functionalizedCrystal
_audit_creation_method	'MofGen! by Chris Wilmer'
_symmetry_space_group_name_H-M	'P1'
_symmetry_Int_Tables_number	1
_symmetry_cell_setting	triclinic
loop_
_symmetry_equiv_pos_as_xyz
  x,y,z
_cell_length_a	25.639242
_cell_length_b	25.639240
_cell_length_c	25.639233
_cell_angle_alpha	90.014416
_cell_angle_beta	90.023596
_cell_angle_gamma	90.032449
loop_
_atom_site_label
_atom_site_type_symbol
_atom_site_fract_x
_atom_site_fract_y
_atom_site_fract_z
Zn1	Zn	-0.799230	0.208284	-0.295778
Zn2	Zn	-0.465896	0.541617	0.037555
Zn3	Zn	-0.132563	0.874950	0.370889
Zn4	Zn	-0.799155	0.295703	-0.208349
Zn5	Zn	-0.465822	0.629036	0.124984
Zn6	Zn	-0.132488	0.962369	0.458318
Zn7	Zn	-0.711806	0.208275	-0.208340
Zn8	Zn	-0.378473	0.541609	0.124994
Zn9	Zn	-0.045139	0.874942	0.458327
Zn10	Zn	-0.711753	0.295682	-0.295737
Zn11	Zn	-0.378420	0.629016	0.037597
Zn12	Zn	-0.045086	0.962349	0.370930
O13	O	-0.755486	0.251986	-0.252051
O14	O	-0.422153	0.585319	0.081283
O15	O	-0.088819	0.918653	0.414616
O16	O	-0.872385	0.219892	-0.284201
O17	O	-0.539052	0.553225	0.049132
O18	O	-0.205718	0.886559	0.382465
O19	O	-0.787559	0.284110	-0.135182
O20	O	-0.454226	0.617443	0.198151
O21	O	-0.120892	0.950777	0.531484
O22	O	-0.723456	0.135111	-0.219952
O23	O	-0.390123	0.468445	0.113381
O24	O	-0.056790	0.801778	0.446714
O25	O	-0.872330	0.284118	-0.219968
O26	O	-0.538997	0.617452	0.113366
O27	O	-0.205663	0.950785	0.446699
O28	O	-0.787686	0.135117	-0.284193
O29	O	-0.454353	0.468451	0.049141
O30	O	-0.121019	0.801784	0.382474
O31	O	-0.723384	0.219878	-0.135176
O32	O	-0.390051	0.553211	0.198158
O33	O	-0.056717	0.886544	0.531491
O34	O	-0.638634	0.219858	-0.219912
O35	O	-0.305300	0.553191	0.113421
O36	O	0.028033	0.886525	0.446755
O37	O	-0.723366	0.284084	-0.368907
O38	O	-0.390033	0.617417	-0.035574
O39	O	-0.056699	0.950751	0.297759
O40	O	-0.638595	0.284076	-0.284122
O41	O	-0.305261	0.617409	0.049211
O42	O	0.028072	0.950742	0.382545
O43	O	-0.787635	0.219872	-0.368938
O44	O	-0.454301	0.553206	-0.035604
O45	O	-0.120968	0.886539	0.297729
O46	O	-0.787508	0.368865	-0.219928
O47	O	-0.454174	0.702198	0.113406
O48	O	-0.120841	1.035532	0.446739
O49	O	-0.723294	0.368850	-0.284131
O50	O	-0.389960	0.702184	0.049202
O51	O	-0.056627	1.035517	0.382536
C52	C	-0.619643	0.251964	-0.252012
C53	C	-0.286310	0.585298	0.081321
C54	C	0.047023	0.918631	0.414655
C55	C	-0.561529	0.251967	-0.252008
C56	C	-0.228196	0.585301	0.081326
C57	C	0.105137	0.918634	0.414659
C58	C	-0.201155	0.285475	-0.285439
C59	C	0.132178	0.618808	0.047894
C60	C	0.465512	0.952142	0.381227
C61	C	-0.146551	0.285478	-0.285446
C62	C	0.186783	0.618811	0.047887
C63	C	0.520116	0.952145	0.381220
O64	O	-0.118304	0.313944	-0.313848
O65	O	0.215029	0.647277	0.019485
O66	O	0.548363	0.980611	0.352819
N67	N	-0.119247	0.251995	-0.252069
N68	N	0.214087	0.585328	0.081264
N69	N	0.547420	0.918662	0.414598
C70	C	-0.146550	0.218503	-0.218686
C71	C	0.186783	0.551837	0.114647
C72	C	0.520116	0.885170	0.447980
O73	O	-0.118312	0.190023	-0.190297
O74	O	0.215021	0.523357	0.143036
O75	O	0.548354	0.856690	0.476369
C76	C	-0.201154	0.218498	-0.218683
C77	C	0.132180	0.551832	0.114651
C78	C	0.465513	0.885165	0.447984
C79	C	-0.228454	0.251987	-0.252058
C80	C	0.104879	0.585320	0.081275
C81	C	0.438212	0.918654	0.414608
C82	C	-0.228456	0.318961	-0.318813
C83	C	0.104878	0.652294	0.014520
C84	C	0.438211	0.985628	0.347854
C85	C	-0.283056	0.318959	-0.318805
C86	C	0.050277	0.652292	0.014528
C87	C	0.383610	0.985625	0.347862
C88	C	-0.310356	0.285471	-0.285424
C89	C	0.022977	0.618804	0.047909
C90	C	0.356311	0.952137	0.381243
C91	C	-0.283055	0.251985	-0.252051
C92	C	0.050278	0.585318	0.081283
C93	C	0.383612	0.918652	0.414616
C94	C	-0.228456	0.185004	-0.185303
C95	C	0.104877	0.518338	0.148030
C96	C	0.438211	0.851671	0.481364
C97	C	-0.283063	0.185002	-0.185302
C98	C	0.050270	0.518335	0.148031
C99	C	0.383604	0.851669	0.481364
C100	C	-0.310364	0.218491	-0.218678
C101	C	0.022969	0.551824	0.114655
C102	C	0.356303	0.885158	0.447989
C103	C	-0.364955	0.218495	-0.218662
C104	C	-0.031622	0.551828	0.114672
C105	C	0.301712	0.885162	0.448005
N106	N	-0.392259	0.251978	-0.252039
N107	N	-0.058926	0.585311	0.081294
N108	N	0.274408	0.918645	0.414628
C109	C	-0.364959	0.285466	-0.285420
C110	C	-0.031626	0.618799	0.047913
C111	C	0.301707	0.952132	0.381247
C112	C	-0.031880	0.218516	-0.218698
C113	C	0.301454	0.551849	0.114636
C114	C	0.634787	0.885182	0.447969
C115	C	0.022723	0.218523	-0.218699
C116	C	0.356056	0.551856	0.114635
C117	C	0.689389	0.885189	0.447968
C118	C	0.022719	0.285497	-0.285459
C119	C	0.356052	0.618830	0.047874
C120	C	0.689385	0.952164	0.381207
C121	C	-0.031885	0.285492	-0.285455
C122	C	0.301449	0.618825	0.047878
C123	C	0.634782	0.952159	0.381211
C124	C	-0.059183	0.251999	-0.252075
C125	C	0.274150	0.585332	0.081258
C126	C	0.607483	0.918665	0.414592
C127	C	-0.479624	0.285459	-0.285401
C128	C	-0.146291	0.618792	0.047932
C129	C	0.187042	0.952126	0.381266
C130	C	-0.534230	0.285455	-0.285389
C131	C	-0.200896	0.618789	0.047944
C132	C	0.132437	0.952122	0.381278
C133	C	-0.534221	0.218480	-0.218630
C134	C	-0.200888	0.551813	0.114703
C135	C	0.132446	0.885146	0.448036
C136	C	-0.479620	0.218485	-0.218640
C137	C	-0.146287	0.551818	0.114693
C138	C	0.187046	0.885152	0.448026
C139	C	-0.452323	0.251976	-0.252030
C140	C	-0.118990	0.585310	0.081303
C141	C	0.214343	0.918643	0.414637
O142	O	-0.393236	0.190042	-0.190276
O143	O	-0.059903	0.523375	0.143057
O144	O	0.273430	0.856708	0.476391
O145	O	-0.393204	0.313936	-0.313809
O146	O	-0.059871	0.647270	0.019524
O147	O	0.273463	0.980603	0.352857
C148	C	-0.755401	0.387829	-0.252037
C149	C	-0.422068	0.721162	0.081296
C150	C	-0.088734	1.054495	0.414630
C151	C	-0.755412	0.445943	-0.252049
C152	C	-0.422079	0.779276	0.081285
C153	C	-0.088746	1.112609	0.414618
C154	C	-0.755503	0.251977	-0.388424
C155	C	-0.422169	0.585310	-0.055091
C156	C	-0.088836	0.918643	0.278243
C157	C	-0.755510	0.251973	-0.446538
C158	C	-0.422177	0.585306	-0.113205
C159	C	-0.088843	0.918640	0.220129
C160	C	0.108141	0.252006	-0.252084
C161	C	0.441474	0.585339	0.081250
C162	C	0.774808	0.918673	0.414583
C163	C	0.050027	0.252009	-0.252082
C164	C	0.383360	0.585342	0.081251
C165	C	0.716694	0.918676	0.414585
C166	C	-0.788886	0.697088	-0.285530
C167	C	-0.455552	1.030421	0.047804
C168	C	-0.122219	1.363755	0.381137
C169	C	-0.788875	0.642484	-0.285526
C170	C	-0.455542	0.975817	0.047807
C171	C	-0.122208	1.309150	0.381140
O172	O	-0.817298	0.614206	-0.313978
O173	O	-0.483964	0.947540	0.019355
O174	O	-0.150631	1.280873	0.352688
N175	N	-0.755454	0.615216	-0.252053
N176	N	-0.422121	0.948550	0.081280
N177	N	-0.088787	1.281883	0.414613
C178	C	-0.722045	0.642556	-0.218578
C179	C	-0.388711	0.975890	0.114756
C180	C	-0.055378	1.309223	0.448089
O181	O	-0.693617	0.614350	-0.190106
O182	O	-0.360283	0.947683	0.143228
O183	O	-0.026950	1.281016	0.476561
C184	C	-0.722058	0.697160	-0.218579
C185	C	-0.388725	1.030493	0.114755
C186	C	-0.055392	1.363826	0.448088
C187	C	-0.755478	0.724424	-0.252058
C188	C	-0.422145	1.057757	0.081276
C189	C	-0.088811	1.391091	0.414609
C190	C	-0.822303	0.724352	-0.319005
C191	C	-0.488970	1.057686	0.014328
C192	C	-0.155636	1.391019	0.347661
C193	C	-0.822313	0.778953	-0.319009
C194	C	-0.488980	1.112286	0.014324
C195	C	-0.155646	1.445620	0.347657
C196	C	-0.788905	0.806289	-0.285537
C197	C	-0.455572	1.139622	0.047796
C198	C	-0.122239	1.472956	0.381129
C199	C	-0.755488	0.779025	-0.252061
C200	C	-0.422155	1.112358	0.081272
C201	C	-0.088821	1.445691	0.414605
C202	C	-0.688652	0.724499	-0.185101
C203	C	-0.355319	1.057832	0.148233
C204	C	-0.021986	1.391165	0.481566
C205	C	-0.688669	0.779106	-0.185104
C206	C	-0.355336	1.112439	0.148229
C207	C	-0.022002	1.445772	0.481562
C208	C	-0.722089	0.806370	-0.218583
C209	C	-0.388755	1.139703	0.114750
C210	C	-0.055422	1.473037	0.448083
C211	C	-0.722090	0.860961	-0.218593
C212	C	-0.388757	1.194295	0.114740
C213	C	-0.055423	1.527628	0.448073
N214	N	-0.755511	0.888229	-0.252066
N215	N	-0.422178	1.221562	0.081267
N216	N	-0.088845	1.554895	0.414600
C217	C	-0.788919	0.860892	-0.285538
C218	C	-0.455586	1.194226	0.047795
C219	C	-0.122252	1.527559	0.381128
C220	C	-0.722019	0.527886	-0.218577
C221	C	-0.388686	0.861219	0.114756
C222	C	-0.055353	1.194552	0.448089
C223	C	-0.722003	0.473283	-0.218578
C224	C	-0.388669	0.806617	0.114755
C225	C	-0.055336	1.139950	0.448088
C226	C	-0.788834	0.473215	-0.285527
C227	C	-0.455501	0.806548	0.047807
C228	C	-0.122167	1.139881	0.381140
C229	C	-0.788848	0.527818	-0.285528
C230	C	-0.455514	0.861151	0.047806
C231	C	-0.122181	1.194484	0.381139
C232	C	-0.755441	0.555153	-0.252050
C233	C	-0.422107	0.888486	0.081283
C234	C	-0.088774	1.221820	0.414616
C235	C	-0.788937	0.975557	-0.285544
C236	C	-0.455603	1.308891	0.047789
C237	C	-0.122270	1.642224	0.381122
C238	C	-0.788942	1.030163	-0.285547
C239	C	-0.455609	1.363496	0.047787
C240	C	-0.122275	1.696830	0.381120
C241	C	-0.722113	1.030227	-0.218597
C242	C	-0.388779	1.363560	0.114737
C243	C	-0.055446	1.696894	0.448070
C244	C	-0.722105	0.975626	-0.218596
C245	C	-0.388772	1.308960	0.114737
C246	C	-0.055439	1.642293	0.448071
C247	C	-0.755521	0.948293	-0.252072
C248	C	-0.422188	1.281626	0.081262
C249	C	-0.088855	1.614960	0.414595
O250	O	-0.693683	0.889273	-0.190154
O251	O	-0.360350	1.222607	0.143179
O252	O	-0.027017	1.555940	0.476512
O253	O	-0.817347	0.889106	-0.314001
O254	O	-0.484014	1.222439	0.019333
O255	O	-0.150680	1.555773	0.352666
C256	C	-0.755562	1.115613	-0.252073
C257	C	-0.422229	1.448946	0.081260
C258	C	-0.088895	1.782280	0.414594
C259	C	-0.755534	1.057499	-0.252075
C260	C	-0.422201	1.390832	0.081259
C261	C	-0.088868	1.724166	0.414592
C262	C	-0.789017	0.218439	-0.806923
C263	C	-0.455684	0.551772	-0.473589
C264	C	-0.122350	0.885105	-0.140256
C265	C	-0.789024	0.218424	-0.861527
C266	C	-0.455690	0.551758	-0.528194
C267	C	-0.122357	0.885091	-0.194860
O268	O	-0.817470	0.189974	-0.889782
O269	O	-0.484137	0.523307	-0.556449
O270	O	-0.150804	0.856641	-0.223115
N271	N	-0.755568	0.251850	-0.888821
N272	N	-0.422234	0.585184	-0.555487
N273	N	-0.088901	0.918517	-0.222154
C274	C	-0.722099	0.285289	-0.861507
C275	C	-0.388766	0.618623	-0.528174
C276	C	-0.055433	0.951956	-0.194840
O277	O	-0.693643	0.313719	-0.889736
O278	O	-0.360309	0.647052	-0.556403
O279	O	-0.026976	0.980386	-0.223070
C280	C	-0.722091	0.285301	-0.806904
C281	C	-0.388757	0.618634	-0.473570
C282	C	-0.055424	0.951967	-0.140237
C283	C	-0.755552	0.251876	-0.779613
C284	C	-0.422219	0.585210	-0.446280
C285	C	-0.088886	0.918543	-0.112946
C286	C	-0.822476	0.185016	-0.779632
C287	C	-0.489143	0.518350	-0.446298
C288	C	-0.155809	0.851683	-0.112965
C289	C	-0.822470	0.185032	-0.725031
C290	C	-0.489137	0.518365	-0.391698
C291	C	-0.155803	0.851698	-0.058364
C292	C	-0.789005	0.218469	-0.697721
C293	C	-0.455672	0.551803	-0.364388
C294	C	-0.122339	0.885136	-0.031055
C295	C	-0.755547	0.251891	-0.725012
C296	C	-0.422213	0.585225	-0.391679
C297	C	-0.088880	0.918558	-0.058346
C298	C	-0.688620	0.318737	-0.779591
C299	C	-0.355287	0.652070	-0.446258
C300	C	-0.021953	0.985403	-0.112925
C301	C	-0.688614	0.318745	-0.724984
C302	C	-0.355281	0.652078	-0.391651
C303	C	-0.021947	0.985412	-0.058318
C304	C	-0.722076	0.285320	-0.697693
C305	C	-0.388742	0.618654	-0.364360
C306	C	-0.055409	0.951987	-0.031027
C307	C	-0.722076	0.285344	-0.643102
C308	C	-0.388743	0.618678	-0.309769
C309	C	-0.055409	0.952011	0.023565
N310	N	-0.755532	0.251918	-0.615808
N311	N	-0.422199	0.585252	-0.282475
N312	N	-0.088865	0.918585	0.050858
C313	C	-0.788997	0.218481	-0.643118
C314	C	-0.455663	0.551814	-0.309785
C315	C	-0.122330	0.885147	0.023549
C316	C	-0.722119	0.285262	-0.976178
C317	C	-0.388786	0.618595	-0.642844
C318	C	-0.055453	0.951929	-0.309511
C319	C	-0.722130	0.285254	-1.030780
C320	C	-0.388797	0.618587	-0.697447
C321	C	-0.055464	0.951920	-0.364113
C322	C	-0.789054	0.218388	-1.030796
C323	C	-0.455721	0.551721	-0.697463
C324	C	-0.122387	0.885054	-0.364130
C325	C	-0.789045	0.218399	-0.976193
C326	C	-0.455712	0.551733	-0.642860
C327	C	-0.122379	0.885066	-0.309526
C328	C	-0.755575	0.251836	-0.948884
C329	C	-0.422242	0.585169	-0.615551
C330	C	-0.088909	0.918503	-0.282217
C331	C	-0.788982	0.218516	-0.528453
C332	C	-0.455649	0.551849	-0.195120
C333	C	-0.122315	0.885182	0.138214
C334	C	-0.788975	0.218535	-0.473848
C335	C	-0.455641	0.551869	-0.140514
C336	C	-0.122308	0.885202	0.192819
C337	C	-0.722049	0.285399	-0.473836
C338	C	-0.388716	0.618732	-0.140503
C339	C	-0.055383	0.952066	0.192830
C340	C	-0.722058	0.285382	-0.528437
C341	C	-0.388725	0.618715	-0.195104
C342	C	-0.055392	0.952048	0.138230
C343	C	-0.755526	0.251936	-0.555744
C344	C	-0.422193	0.585269	-0.222411
C345	C	-0.088860	0.918602	0.110923
O346	O	-0.693642	0.313779	-0.614812
O347	O	-0.360309	0.647112	-0.281479
O348	O	-0.026976	0.980445	0.051854
O349	O	-0.817444	0.190051	-0.614882
O350	O	-0.484110	0.523384	-0.281549
O351	O	-0.150777	0.856717	0.051785
C352	C	-0.755499	0.251957	-0.116208
C353	C	-0.422166	0.585291	0.217125
C354	C	-0.088833	0.918624	0.550458
C355	C	-0.755593	0.251814	-0.058095
C356	C	-0.422260	0.585147	0.275239
C357	C	-0.088927	0.918481	0.608572
H358	H	-0.305287	0.157724	-0.158122
H359	H	0.028047	0.491057	0.175211
H360	H	0.361380	0.824391	0.508544
H361	H	-0.694887	0.953427	-0.191340
H362	H	-0.361553	1.286761	0.141993
H363	H	-0.028220	1.620094	0.475327
H364	H	-0.661465	0.801359	-0.157842
H365	H	-0.328132	1.134692	0.175491
H366	H	0.005202	1.468026	0.508825
C367	C	-0.825586	0.443138	-0.322341
C368	C	-0.492253	0.776471	0.010992
C369	C	-0.158920	1.109804	0.344325
H370	H	-0.820793	0.406714	-0.317539
H371	H	-0.487460	0.740047	0.015794
H372	H	-0.154127	1.073381	0.349128
H373	H	-0.817917	0.452078	-0.357465
H374	H	-0.484584	0.785411	-0.024131
H375	H	-0.151251	1.118745	0.309202
H376	H	-0.860725	0.452060	-0.314723
H377	H	-0.527391	0.785393	0.018611
H378	H	-0.194058	1.118726	0.351944
C379	C	-0.685371	1.060304	-0.181777
C380	C	-0.352037	1.393637	0.151556
C381	C	-0.018704	1.726970	0.484889
H382	H	-0.690171	1.096727	-0.186572
H383	H	-0.356837	1.430061	0.146761
H384	H	-0.023504	1.763394	0.480094
H385	H	-0.650231	1.051385	-0.189383
H386	H	-0.316898	1.384718	0.143951
H387	H	0.016435	1.718051	0.477284
H388	H	-0.693053	1.051360	-0.146655
H389	H	-0.359720	1.384694	0.186679
H390	H	-0.026386	1.718027	0.520012
C391	C	-0.825781	0.181764	-0.443831
C392	C	-0.492448	0.515097	-0.110497
C393	C	-0.159114	0.848431	0.222836
H394	H	-0.845707	0.161844	-0.467919
H395	H	-0.512374	0.495178	-0.134585
H396	H	-0.179040	0.828511	0.198748
H397	H	-0.848547	0.201770	-0.422536
H398	H	-0.515213	0.535104	-0.089202
H399	H	-0.181880	0.868437	0.244131
H400	H	-0.805791	0.158983	-0.422525
H401	H	-0.472457	0.492316	-0.089192
H402	H	-0.139124	0.825650	0.244141
H403	H	-0.054103	0.191242	-0.191512
H404	H	0.279230	0.524575	0.141822
H405	H	0.612564	0.857908	0.475155
H406	H	-0.206234	0.346231	-0.345999
H407	H	0.127099	0.679564	-0.012665
H408	H	0.460432	1.012898	0.320668
C409	C	-0.859271	0.148259	-0.695016
C410	C	-0.525938	0.481593	-0.361682
C411	C	-0.192605	0.814926	-0.028349
H412	H	-0.854481	0.153053	-0.658583
H413	H	-0.521148	0.486386	-0.325250
H414	H	-0.187814	0.819720	0.008084
H415	H	-0.851643	0.113129	-0.703968
H416	H	-0.518309	0.446462	-0.370635
H417	H	-0.184976	0.779796	-0.037301
H418	H	-0.894399	0.155916	-0.703975
H419	H	-0.561065	0.489249	-0.370642
H420	H	-0.227732	0.822583	-0.037309
C421	C	-0.825800	0.181730	-0.558483
C422	C	-0.492467	0.515063	-0.225150
C423	C	-0.159133	0.848397	0.108184
H424	H	-0.845727	0.161833	-0.534403
H425	H	-0.512394	0.495167	-0.201070
H426	H	-0.179060	0.828500	0.132264
H427	H	-0.805826	0.158936	-0.579779
H428	H	-0.472492	0.492269	-0.246446
H429	H	-0.139159	0.825603	0.086887
H430	H	-0.848572	0.201733	-0.579788
H431	H	-0.515239	0.535066	-0.246455
H432	H	-0.181905	0.868399	0.086879
H433	H	-0.816292	0.191181	-0.953976
H434	H	-0.482959	0.524514	-0.620643
H435	H	-0.149626	0.857848	-0.287310
H436	H	-0.556458	0.191216	-0.191451
H437	H	-0.223125	0.524550	0.141883
H438	H	0.110209	0.857883	0.475216
H439	H	-0.661352	0.345968	-0.702752
H440	H	-0.328019	0.679302	-0.369419
H441	H	0.005314	1.012635	-0.036086
H442	H	-0.305280	0.346228	-0.345984
H443	H	0.028053	0.679561	-0.012651
H444	H	0.361387	1.012895	0.320682
H445	H	-0.849727	0.157785	-0.801861
H446	H	-0.516394	0.491118	-0.468528
H447	H	-0.183060	0.824451	-0.135195
H448	H	-0.816302	0.191160	-1.053042
H449	H	-0.482968	0.524493	-0.719708
H450	H	-0.149635	0.857827	-0.386375
H451	H	-0.457391	0.191217	-0.191462
H452	H	-0.124057	0.524550	0.141871
H453	H	0.209276	0.857883	0.475205
C454	C	-0.651815	0.355506	-0.809602
C455	C	-0.318481	0.688839	-0.476269
C456	C	0.014852	1.022172	-0.142935
H457	H	-0.656610	0.350719	-0.846035
H458	H	-0.323276	0.684052	-0.512701
H459	H	0.010057	1.017386	-0.179368
H460	H	-0.616690	0.347850	-0.800641
H461	H	-0.283357	0.681184	-0.467307
H462	H	0.049976	1.014517	-0.133974
H463	H	-0.659445	0.390639	-0.800649
H464	H	-0.326111	0.723972	-0.467316
H465	H	0.007222	1.057305	-0.133983
H466	H	-0.694888	0.312477	-1.052996
H467	H	-0.361555	0.645810	-0.719662
H468	H	-0.028221	0.979144	-0.386329
C469	C	-0.825708	1.060151	-0.322372
C470	C	-0.492374	1.393484	0.010961
C471	C	-0.159041	1.726817	0.344295
H472	H	-0.845606	1.036047	-0.342301
H473	H	-0.512273	1.369380	-0.008968
H474	H	-0.178939	1.702713	0.324366
H475	H	-0.805699	1.081460	-0.345134
H476	H	-0.472366	1.414794	-0.011801
H477	H	-0.139033	1.748127	0.321533
H478	H	-0.848509	1.081439	-0.302394
H479	H	-0.515175	1.414772	0.030939
H480	H	-0.181842	1.748106	0.364273
C481	C	-0.685262	0.557950	-0.181757
C482	C	-0.351928	0.891283	0.151576
C483	C	-0.018595	1.224617	0.484909
H484	H	-0.665354	0.533887	-0.161828
H485	H	-0.332021	0.867220	0.171505
H486	H	0.001313	1.200553	0.504839
H487	H	-0.705277	0.579243	-0.158996
H488	H	-0.371943	0.912576	0.174338
H489	H	-0.038610	1.245909	0.507671
H490	H	-0.662469	0.579261	-0.201738
H491	H	-0.329136	0.912594	0.131596
H492	H	0.004197	1.245927	0.464929
H493	H	-0.694805	0.312625	-0.451591
H494	H	-0.361471	0.645958	-0.118258
H495	H	-0.028138	0.979291	0.215076
C496	C	-0.685312	0.322057	-0.946143
C497	C	-0.351978	0.655390	-0.612809
C498	C	-0.018645	0.988723	-0.279476
H499	H	-0.665395	0.341965	-0.970222
H500	H	-0.332062	0.675298	-0.636889
H501	H	0.001271	1.008632	-0.303555
H502	H	-0.662537	0.302067	-0.924833
H503	H	-0.329204	0.635401	-0.591499
H504	H	0.004129	0.968734	-0.258166
H505	H	-0.705300	0.344847	-0.924851
H506	H	-0.371967	0.678181	-0.591518
H507	H	-0.038634	1.011514	-0.258185
H508	H	-0.694816	0.312603	-0.550658
H509	H	-0.361482	0.645937	-0.217325
H510	H	-0.028149	0.979270	0.116008
H511	H	-0.054109	0.312761	-0.312634
H512	H	0.279224	0.646094	0.020700
H513	H	0.612557	0.979427	0.354033
C514	C	-0.859080	0.808937	-0.355831
C515	C	-0.525747	1.142270	-0.022498
C516	C	-0.192414	1.475604	0.310836
H517	H	-0.878976	0.784830	-0.375758
H518	H	-0.545643	1.118163	-0.042425
H519	H	-0.212310	1.451496	0.290908
H520	H	-0.839076	0.830249	-0.378594
H521	H	-0.505743	1.163582	-0.045261
H522	H	-0.172409	1.496915	0.288072
H523	H	-0.881883	0.830223	-0.335852
H524	H	-0.548550	1.163556	-0.002519
H525	H	-0.215217	1.496889	0.330814
C526	C	0.052750	0.181686	-0.181986
C527	C	0.386084	0.515020	0.151347
C528	C	0.719417	0.848353	0.484681
H529	H	0.089181	0.186482	-0.186766
H530	H	0.422514	0.519815	0.146568
H531	H	0.755848	0.853149	0.479901
H532	H	0.043775	0.146570	-0.189701
H533	H	0.377108	0.479903	0.143633
H534	H	0.710441	0.813237	0.476966
H535	H	0.043824	0.189287	-0.146840
H536	H	0.377158	0.522620	0.186494
H537	H	0.710491	0.855954	0.519827
C538	C	-0.564258	0.322292	-0.322106
C539	C	-0.230924	0.655626	0.011227
C540	C	0.102409	0.988959	0.344561
H541	H	-0.540176	0.342232	-0.341991
H542	H	-0.206842	0.675565	-0.008658
H543	H	0.126491	1.008898	0.324676
H544	H	-0.585537	0.345044	-0.302066
H545	H	-0.252203	0.678377	0.031267
H546	H	0.081130	1.011711	0.364600
H547	H	-0.585580	0.302321	-0.344921
H548	H	-0.252247	0.635654	-0.011588
H549	H	0.081087	0.968988	0.321745
C550	C	-0.859051	0.694291	-0.355832
C551	C	-0.525718	1.027624	-0.022498
C552	C	-0.192384	1.360958	0.310835
H553	H	-0.878949	0.718356	-0.375768
H554	H	-0.545615	1.051690	-0.042435
H555	H	-0.212282	1.385023	0.290898
H556	H	-0.881845	0.672974	-0.335865
H557	H	-0.548512	1.006308	-0.002531
H558	H	-0.215179	1.339641	0.330802
H559	H	-0.839025	0.673004	-0.378594
H560	H	-0.505692	1.006338	-0.045261
H561	H	-0.172358	1.339671	0.288073
C562	C	-0.449605	0.322283	-0.322145
C563	C	-0.116272	0.655616	0.011189
C564	C	0.217061	0.988949	0.344522
H565	H	-0.473691	0.342220	-0.342019
H566	H	-0.140358	0.675554	-0.008686
H567	H	0.192975	1.008887	0.324647
H568	H	-0.428336	0.302305	-0.344960
H569	H	-0.095003	0.635638	-0.011627
H570	H	0.238331	0.968972	0.321706
H571	H	-0.428274	0.345045	-0.302122
H572	H	-0.094941	0.678378	0.031211
H573	H	0.238392	1.011712	0.364544
C574	C	0.052755	0.322329	-0.322183
C575	C	0.386089	0.655662	0.011150
C576	C	0.719422	0.988996	0.344484
H577	H	0.089184	0.317529	-0.317407
H578	H	0.422518	0.650862	0.015927
H579	H	0.755851	0.984195	0.349260
H580	H	0.043832	0.357448	-0.314474
H581	H	0.377166	0.690782	0.018859
H582	H	0.710499	1.024115	0.352192
H583	H	0.043786	0.314722	-0.357326
H584	H	0.377119	0.648056	-0.023993
H585	H	0.710453	0.981389	0.309340
H586	H	-0.816148	0.953309	-0.312802
H587	H	-0.482814	1.286642	0.020531
H588	H	-0.149481	1.619975	0.353864
C589	C	-0.825614	0.557804	-0.322349
C590	C	-0.492280	0.891137	0.010984
C591	C	-0.158947	1.224471	0.344318
H592	H	-0.845509	0.533698	-0.342279
H593	H	-0.512175	0.867032	-0.008946
H594	H	-0.178842	1.200365	0.324387
H595	H	-0.805608	0.579117	-0.345110
H596	H	-0.472275	0.912451	-0.011776
H597	H	-0.138941	1.245784	0.321557
H598	H	-0.848418	0.579088	-0.302370
H599	H	-0.515084	0.912421	0.030963
H600	H	-0.181751	1.245754	0.364297
H601	H	-0.694784	0.451089	-0.191323
H602	H	-0.361450	0.784422	0.142011
H603	H	-0.028117	1.117755	0.475344
C604	C	-0.198437	0.148162	-0.148593
C605	C	0.134897	0.481495	0.184740
C606	C	0.468230	0.814828	0.518073
H607	H	-0.222523	0.128215	-0.128721
H608	H	0.110810	0.461548	0.204613
H609	H	0.444143	0.794882	0.537946
H610	H	-0.177112	0.168120	-0.125774
H611	H	0.156221	0.501454	0.207559
H612	H	0.489555	0.834787	0.540892
H613	H	-0.177161	0.125409	-0.168641
H614	H	0.156172	0.458742	0.164693
H615	H	0.489505	0.792076	0.498026
H616	H	-0.661439	0.702308	-0.157839
H617	H	-0.328106	1.035641	0.175494
H618	H	0.005227	1.368974	0.508828
