data_functionalizedCrystal
_audit_creation_method	'MofGen! by Chris Wilmer'
_symmetry_space_group_name_H-M	'P1'
_symmetry_Int_Tables_number	1
_symmetry_cell_setting	triclinic
loop_
_symmetry_equiv_pos_as_xyz
  x,y,z
_cell_length_a	13.897449
_cell_length_b	13.897448
_cell_length_c	16.625539
_cell_angle_alpha	90.024962
_cell_angle_beta	90.019431
_cell_angle_gamma	90.020848
loop_
_atom_site_label
_atom_site_type_symbol
_atom_site_fract_x
_atom_site_fract_y
_atom_site_fract_z
Zn1	Zn	-1.474678	0.383980	-0.455904
Zn2	Zn	-1.141344	0.717314	-0.122570
Zn3	Zn	-0.808011	1.050647	0.210763
Zn4	Zn	-1.474570	0.545293	-0.321079
Zn5	Zn	-1.141237	0.878627	0.012255
Zn6	Zn	-0.807903	1.211960	0.345588
Zn7	Zn	-1.313370	0.384018	-0.321087
Zn8	Zn	-0.980037	0.717351	0.012247
Zn9	Zn	-0.646704	1.050684	0.345580
Zn10	Zn	-1.313343	0.545239	-0.455871
Zn11	Zn	-0.980010	0.878572	-0.122538
Zn12	Zn	-0.646677	1.211905	0.210795
O13	O	-1.393990	0.464632	-0.388485
O14	O	-1.060657	0.797966	-0.055152
O15	O	-0.727324	1.131299	0.278182
O16	O	-1.609645	0.405386	-0.438029
O17	O	-1.276312	0.738719	-0.104696
O18	O	-0.942978	1.072053	0.228638
O19	O	-1.453153	0.523938	-0.208247
O20	O	-1.119820	0.857272	0.125086
O21	O	-0.786486	1.190605	0.458419
O22	O	-1.334825	0.249031	-0.338988
O23	O	-1.001491	0.582364	-0.005654
O24	O	-0.668158	0.915698	0.327679
O25	O	-1.609566	0.523902	-0.338974
O26	O	-1.276233	0.857235	-0.005640
O27	O	-0.942899	1.190569	0.327693
O28	O	-1.453336	0.249004	-0.438037
O29	O	-1.120003	0.582337	-0.104703
O30	O	-0.786670	0.915670	0.228630
O31	O	-1.334720	0.405450	-0.208253
O32	O	-1.001387	0.738783	0.125080
O33	O	-0.668054	1.072116	0.458413
O34	O	-1.178385	0.405397	-0.338956
O35	O	-0.845052	0.738730	-0.005623
O36	O	-0.511719	1.072063	0.327711
O37	O	-1.334778	0.523809	-0.568708
O38	O	-1.001445	0.857142	-0.235375
O39	O	-0.668112	1.190475	0.097959
O40	O	-1.178365	0.523845	-0.437982
O41	O	-0.845032	0.857178	-0.104648
O42	O	-0.511699	1.190512	0.228685
O43	O	-1.453310	0.405333	-0.568732
O44	O	-1.119977	0.738666	-0.235398
O45	O	-0.786643	1.072000	0.097935
O46	O	-1.453127	0.680268	-0.338942
O47	O	-1.119793	1.013601	-0.005609
O48	O	-0.786460	1.346934	0.327724
O49	O	-1.334674	0.680227	-0.437974
O50	O	-1.001341	1.013561	-0.104640
O51	O	-0.668007	1.346894	0.228693
C52	C	-1.393912	0.715247	-0.388471
C53	C	-1.060578	1.048580	-0.055138
C54	C	-0.727245	1.381913	0.278195
C55	C	-1.393966	0.822461	-0.388492
C56	C	-1.060633	1.155794	-0.055159
C57	C	-0.727300	1.489127	0.278174
C58	C	-1.143376	0.464620	-0.388467
C59	C	-0.810043	0.797953	-0.055133
C60	C	-0.476709	1.131286	0.278200
C61	C	-1.036162	0.464637	-0.388478
C62	C	-0.702829	0.797971	-0.055145
C63	C	-0.369495	1.131304	0.278189
C64	C	-1.394053	0.464561	-0.598794
C65	C	-1.060720	0.797894	-0.265461
C66	C	-0.727386	1.131227	0.067873
C67	C	-1.394080	0.464530	-0.688415
C68	C	-1.060746	0.797863	-0.355082
C69	C	-0.727413	1.131197	-0.021749
C70	C	-1.645583	0.464646	-0.388504
C71	C	-1.312250	0.797979	-0.055171
C72	C	-0.978917	1.131313	0.278163
C73	C	-1.752797	0.464652	-0.388512
C74	C	-1.419464	0.797985	-0.055179
C75	C	-1.086131	1.131319	0.278155
C76	C	-0.839867	0.464641	-0.388499
C77	C	-0.506534	0.797974	-0.055166
C78	C	-0.173200	1.131307	0.278168
C79	C	-0.949099	0.464636	-0.388485
C80	C	-0.615766	0.797969	-0.055152
C81	C	-0.282433	1.131303	0.278182
C82	C	-1.394061	1.018756	-0.388550
C83	C	-1.060728	1.352089	-0.055217
C84	C	-0.727395	1.685422	0.278116
C85	C	-1.394006	0.909523	-0.388520
C86	C	-1.060672	1.242857	-0.055187
C87	C	-0.727339	1.576190	0.278146
C88	C	-1.394087	1.213039	-0.388526
C89	C	-1.060754	1.546373	-0.055193
C90	C	-0.727421	1.879706	0.278141
C91	C	-1.394108	1.105825	-0.388568
C92	C	-1.060774	1.439159	-0.055235
C93	C	-0.727441	1.772492	0.278099
C94	C	-1.394124	0.464422	-1.016591
C95	C	-1.060791	0.797755	-0.683258
C96	C	-0.727458	1.131089	-0.349924
C97	C	-1.394109	0.464455	-0.925283
C98	C	-1.060776	0.797788	-0.591949
C99	C	-0.727443	1.131122	-0.258616
C100	C	-1.394102	0.464477	-0.852506
C101	C	-1.060769	0.797810	-0.519173
C102	C	-0.727436	1.131143	-0.185839
C103	C	-1.394086	0.464508	-0.761192
C104	C	-1.060753	0.797842	-0.427858
C105	C	-0.727420	1.131175	-0.094525
C106	C	-1.393983	0.464634	-0.178994
C107	C	-1.060650	0.797968	0.154339
C108	C	-0.727317	1.131301	0.487672
C109	C	-1.394144	0.464393	-0.089374
C110	C	-1.060810	0.797727	0.243960
C111	C	-0.727477	1.131060	0.577293
