data_functionalizedCrystal
_audit_creation_method	'MofGen! by Chris Wilmer'
_symmetry_space_group_name_H-M	'P1'
_symmetry_Int_Tables_number	1
_symmetry_cell_setting	triclinic
loop_
_symmetry_equiv_pos_as_xyz
  x,y,z
_cell_length_a	10.489741
_cell_length_b	10.489741
_cell_length_c	14.048226
_cell_angle_alpha	89.993872
_cell_angle_beta	89.996252
_cell_angle_gamma	84.539174
loop_
_atom_site_label
_atom_site_type_symbol
_atom_site_fract_x
_atom_site_fract_y
_atom_site_fract_z
O1	O	1.694057	0.179971	-0.079101
O2	O	2.194057	0.679971	0.420899
O3	O	1.322861	0.196864	-0.079116
O4	O	1.822861	0.696864	0.420884
O5	O	1.516906	0.002819	-0.079103
O6	O	2.016906	0.502819	0.420897
O7	O	1.500013	0.374015	-0.079115
O8	O	2.000013	0.874015	0.420885
O9	O	1.516882	0.002808	0.079219
O10	O	2.016882	0.502808	0.579219
O11	O	1.322838	0.196852	0.079205
O12	O	1.822838	0.696852	0.579205
O13	O	1.694033	0.179959	0.079220
O14	O	2.194033	0.679959	0.579220
Zn15	Zn	1.508432	0.188404	0.104350
Zn16	Zn	2.008432	0.688404	0.604350
Zn17	Zn	1.508463	0.188419	-0.104245
Zn18	Zn	2.008463	0.688419	0.395755
O19	O	1.499989	0.374003	0.079207
O20	O	1.999989	0.874003	0.579207
C21	C	1.275318	0.195582	0.000043
C22	C	1.775318	0.695582	0.500043
C23	C	1.133688	0.191765	0.000037
C24	C	1.633688	0.691765	0.500037
C25	C	1.065548	0.068300	0.000050
C26	C	1.565548	0.568300	0.500050
C27	C	0.973433	0.126629	-0.078010
C28	C	1.473433	0.626629	0.421990
C29	C	0.973444	0.126647	0.078082
C30	C	1.473444	0.626647	0.578082
C31	C	1.043439	0.250145	-0.078088
C32	C	1.543439	0.750145	0.421912
C33	C	1.043459	0.250145	0.078075
C34	C	1.543459	0.750145	0.578075
C35	C	0.951371	0.308564	-0.000005
C36	C	1.451371	0.808564	0.499995
C37	C	1.515618	-0.044718	0.000057
C38	C	2.015618	0.455282	0.500057
C39	C	1.511801	-0.186348	0.000056
C40	C	2.011801	0.313652	0.500056
C41	C	1.388336	-0.254488	0.000044
C42	C	1.888336	0.245512	0.500044
C43	C	1.446648	-0.346616	0.078107
C44	C	1.946648	0.153384	0.578107
C45	C	1.446700	-0.346579	-0.077986
C46	C	1.946700	0.153421	0.422014
C47	C	1.570163	-0.276611	0.078183
C48	C	2.070163	0.223389	0.578183
C49	C	1.570199	-0.276564	-0.077980
C50	C	2.070199	0.223436	0.422020
C51	C	1.628600	-0.368665	0.000102
C52	C	2.128600	0.131335	0.500102
C53	C	1.741577	0.181241	0.000059
C54	C	2.241577	0.681241	0.500059
C55	C	1.883206	0.185058	0.000059
C56	C	2.383206	0.685058	0.500059
C57	C	1.501277	0.421541	0.000045
C58	C	2.001277	0.921541	0.500045
C59	C	1.505094	0.563170	0.000040
C60	C	2.005094	1.063170	0.500040
N61	N	1.508420	0.188392	0.246710
N62	N	2.008420	0.688392	0.746710
N63	N	1.508485	0.188420	-0.246606
N64	N	2.008485	0.688420	0.253394
C65	C	1.594370	0.102505	0.296534
C66	C	2.094370	0.602505	0.796534
C67	C	1.594379	0.102505	0.396192
C68	C	2.094379	0.602505	0.896192
C69	C	1.508442	0.188398	0.446024
C70	C	2.008442	0.688398	0.946024
C71	C	1.422483	0.274289	0.396193
C72	C	1.922483	0.774289	0.896193
C73	C	1.422469	0.274282	0.296537
C74	C	1.922469	0.774282	0.796537
C75	C	1.422520	0.274299	0.603907
C76	C	1.922520	0.774299	1.103907
C77	C	1.422535	0.274307	0.703570
C78	C	1.922535	0.774307	1.203570
C79	C	1.594429	0.102521	0.703562
C80	C	2.094429	0.602521	1.203562
C81	C	1.594416	0.102514	0.603906
C82	C	2.094416	0.602514	1.103906
C83	C	1.508457	0.188407	0.554082
C84	C	2.008457	0.688407	1.054082
H85	H	0.942456	0.074379	0.144077
H86	H	1.442456	0.574379	0.644077
H87	H	1.664355	0.032567	0.255968
H88	H	2.164355	0.532567	0.755968
H89	H	1.664398	0.032580	0.563333
H90	H	2.164398	0.532580	1.063333
H91	H	0.942429	0.074394	-0.144003
H92	H	1.442429	0.574394	0.355997
H93	H	1.352519	0.344238	0.563344
H94	H	1.852519	0.844238	1.063344
H95	H	1.730204	-0.418089	0.000150
H96	H	2.230204	0.081911	0.500150
H97	H	1.622349	-0.245783	0.144253
H98	H	2.122349	0.254217	0.644253
H99	H	1.352505	0.344221	0.436772
H100	H	1.852505	0.844221	0.936772
H101	H	1.664419	0.032584	0.744135
H102	H	2.164419	0.532584	1.244135
H103	H	1.394397	-0.377633	0.144099
H104	H	1.894397	0.122367	0.644099
H105	H	1.352478	0.344218	0.255971
H106	H	1.852478	0.844218	0.755971
H107	H	1.115238	-0.033196	-0.000044
H108	H	1.615238	0.466804	0.499956
H109	H	1.352555	0.344249	0.744138
H110	H	1.852555	0.844249	1.244138
H111	H	1.074276	0.302349	-0.144156
H112	H	1.574276	0.802349	0.355844
H113	H	1.664365	0.032569	0.436758
H114	H	2.164365	0.532569	0.936758
H115	H	1.074495	0.302338	0.144070
H116	H	1.574495	0.802338	0.644070
H117	H	0.901947	0.410168	-0.000051
H118	H	1.401947	0.910168	0.499949
H119	H	1.286824	-0.204837	0.000118
H120	H	1.786824	0.295163	0.500118
H121	H	1.622405	-0.245515	-0.143976
H122	H	2.122405	0.254485	0.356024
H123	H	1.394454	-0.377538	-0.143988
H124	H	1.894454	0.122462	0.356012
