data_functionalizedCrystal
_audit_creation_method	'MofGen! by Chris Wilmer'
_symmetry_space_group_name_H-M	'P1'
_symmetry_Int_Tables_number	1
_symmetry_cell_setting	triclinic
loop_
_symmetry_equiv_pos_as_xyz
  x,y,z
_cell_length_a	13.897449
_cell_length_b	12.759400
_cell_length_c	12.759393
_cell_angle_alpha	89.968436
_cell_angle_beta	90.020530
_cell_angle_gamma	89.984036
loop_
_atom_site_label
_atom_site_type_symbol
_atom_site_fract_x
_atom_site_fract_y
_atom_site_fract_z
Zn1	Zn	1.474721	0.418168	0.594038
Zn2	Zn	1.974721	0.918168	1.094038
Zn3	Zn	1.474624	0.593887	0.418359
Zn4	Zn	1.974624	1.093887	0.918359
Zn5	Zn	1.313411	0.418227	0.418372
Zn6	Zn	1.813411	0.918227	0.918372
Zn7	Zn	1.313400	0.593810	0.593994
Zn8	Zn	1.813400	1.093810	1.093994
O9	O	1.394039	0.506023	0.506191
O10	O	1.894039	1.006023	1.006191
O11	O	1.609690	0.441486	0.570747
O12	O	2.109690	0.941486	1.070747
O13	O	1.453202	0.570642	0.271339
O14	O	1.953202	1.070642	0.771339
O15	O	1.334854	0.271198	0.441698
O16	O	1.834854	0.771198	0.941698
O17	O	1.609618	0.570586	0.441676
O18	O	2.109618	1.070586	0.941676
O19	O	1.453368	0.271155	0.570760
O20	O	1.953368	0.771155	1.070760
O21	O	1.334760	0.441585	0.271349
O22	O	1.834760	0.941585	0.771349
O23	O	1.178428	0.441510	0.441655
O24	O	1.678428	0.941510	0.941655
O25	O	1.334836	0.570454	0.741021
O26	O	1.834836	1.070454	1.241021
O27	O	1.178420	0.570510	0.570684
O28	O	1.678420	1.070510	1.070684
O29	O	1.453358	0.441411	0.741054
O30	O	1.953358	0.941411	1.241054
O31	O	1.453192	0.740898	0.441633
O32	O	1.953192	1.240898	0.941633
O33	O	1.334742	0.740841	0.570671
O34	O	1.834742	1.240841	1.070671
C35	C	1.143425	0.506009	0.506167
C36	C	1.643425	1.006009	1.006167
C37	C	1.036211	0.506028	0.506181
C38	C	1.536211	1.006028	1.006181
C39	C	1.394106	0.505917	0.780224
C40	C	1.894106	1.005917	1.280224
C41	C	1.394135	0.505872	0.897001
C42	C	1.894135	1.005872	1.397001
C43	C	1.393982	0.778991	0.506169
C44	C	1.893982	1.278991	1.006169
C45	C	1.394045	0.895767	0.506194
C46	C	1.894045	1.395767	1.006194
C47	C	0.839915	0.506032	0.506209
C48	C	1.339915	1.006032	1.006209
C49	C	0.949148	0.506027	0.506191
C50	C	1.449148	1.006027	1.006191
C51	C	1.645632	0.506038	0.506215
C52	C	2.145632	1.006038	1.006215
C53	C	1.752846	0.506044	0.506226
C54	C	2.252846	1.006044	1.006226
C55	C	1.394123	0.231990	0.506236
C56	C	1.894123	0.731990	1.006236
C57	C	1.394158	0.115213	0.506255
C58	C	1.894158	0.615213	1.006255
C59	C	1.455791	0.950624	0.439078
C60	C	1.955791	1.450624	0.939078
C61	C	1.455850	1.060348	0.439111
C62	C	1.955850	1.560348	0.939111
C63	C	1.332410	1.060349	0.573378
C64	C	1.832410	1.560349	1.073378
C65	C	1.332356	0.950627	0.573350
C66	C	1.832356	1.450627	1.073350
C67	C	1.527055	0.950624	0.361557
C68	C	2.027055	1.450624	0.861557
C69	C	1.527114	1.060348	0.361589
C70	C	2.027114	1.560348	0.861589
C71	C	1.394027	0.506053	0.233223
C72	C	1.894027	1.006053	0.733223
C73	C	1.394185	0.505802	0.116447
C74	C	1.894185	1.005802	0.616447
C75	C	1.455858	0.438673	0.951882
C76	C	1.955858	0.938673	1.451882
C77	C	1.455881	0.438635	1.061606
C78	C	1.955881	0.938635	1.561606
C79	C	1.332456	0.573004	1.061559
C80	C	1.832456	1.073004	1.561559
C81	C	1.332429	0.573036	0.951836
C82	C	1.832429	1.073036	1.451836
C83	C	1.527119	0.361099	0.951910
C84	C	2.027119	0.861099	1.451910
C85	C	1.527142	0.361061	1.061634
C86	C	2.027142	0.861061	1.561634
H87	H	1.282087	0.905963	0.628011
H88	H	1.782087	1.405963	1.128011
H89	H	1.282186	1.105029	0.628055
H90	H	1.782186	1.605029	1.128055
N91	N	1.265891	0.645429	1.120703
N92	N	1.765891	1.145429	1.620703
H93	H	1.275266	0.635207	1.198540
H94	H	1.775266	1.135207	1.698540
H95	H	1.280862	0.720476	1.101516
H96	H	1.780862	1.220476	1.601516
H97	H	1.507157	1.090211	0.280208
H98	H	2.007157	1.590211	0.780208
H99	H	1.601737	0.920765	0.383411
H100	H	2.101737	1.420765	0.883411
H101	H	1.598064	0.390266	0.917876
H102	H	2.098064	0.890266	1.417876
H103	H	1.507133	0.279735	0.922153
H104	H	2.007133	0.779735	1.422153
N105	N	1.265820	0.645491	0.892663
N106	N	1.765820	1.145491	1.392663
H107	H	1.280757	0.720560	0.911736
H108	H	1.780757	1.220560	1.411736
H109	H	1.275174	0.635238	0.814849
H110	H	1.775174	1.135238	1.314849
H111	H	1.500413	0.283752	1.095681
H112	H	2.000413	0.783752	1.595681
N113	N	1.626089	0.389950	1.101091
N114	N	2.126089	0.889950	1.601091
H115	H	1.626145	0.389934	1.180248
H116	H	2.126145	0.889934	1.680248
H117	H	1.674535	0.337205	1.074673
H118	H	2.174535	0.837205	1.574673
N119	N	1.491646	0.905642	0.259132
N120	N	1.991646	1.405642	0.759132
H121	H	1.423634	0.930135	0.245702
H122	H	1.923634	1.430135	0.745702
H123	H	1.534745	0.930089	0.200284
H124	H	2.034745	1.430089	0.700284
N125	N	1.621138	1.105323	0.400235
N126	N	2.121138	1.605323	0.900235
H127	H	1.666523	1.046352	0.418891
H128	H	2.166523	1.546352	0.918891
H129	H	1.650781	1.149902	0.343346
H130	H	2.150781	1.649902	0.843346
