data_functionalizedCrystal
_audit_creation_method	'MofGen! by Chris Wilmer'
_symmetry_space_group_name_H-M	'P1'
_symmetry_Int_Tables_number	1
_symmetry_cell_setting	triclinic
loop_
_symmetry_equiv_pos_as_xyz
  x,y,z
_cell_length_a	18.050589
_cell_length_b	11.169417
_cell_length_c	11.169409
_cell_angle_alpha	90.022388
_cell_angle_beta	89.967208
_cell_angle_gamma	89.973557
loop_
_atom_site_label
_atom_site_type_symbol
_atom_site_fract_x
_atom_site_fract_y
_atom_site_fract_z
Zn1	Zn	-0.295635	-1.834822	-0.678597
Zn2	Zn	0.204365	-1.334822	-0.178597
Zn3	Zn	-0.419850	-1.834646	-0.477912
Zn4	Zn	0.080150	-1.334646	0.022088
Zn5	Zn	-0.295674	-1.634105	-0.477925
Zn6	Zn	0.204326	-1.134105	0.022075
Zn7	Zn	-0.419784	-1.634053	-0.678550
Zn8	Zn	0.080216	-1.134053	-0.178550
O9	O	-0.357736	-1.734407	-0.578246
O10	O	0.142264	-1.234407	-0.078246
O11	O	-0.312123	-2.002748	-0.651990
O12	O	0.187877	-1.502748	-0.151990
O13	O	-0.403422	-1.807992	-0.309964
O14	O	0.096578	-1.307992	0.190036
O15	O	-0.191745	-1.660826	-0.504569
O16	O	0.308255	-1.160826	-0.004569
O17	O	-0.403384	-2.002619	-0.504547
O18	O	0.096616	-1.502619	-0.004547
O19	O	-0.191716	-1.808292	-0.652002
O20	O	0.308284	-1.308292	-0.152002
O21	O	-0.312191	-1.660656	-0.309973
O22	O	0.187809	-1.160656	0.190027
O23	O	-0.312127	-1.466149	-0.504524
O24	O	0.187873	-0.966149	-0.004524
O25	O	-0.403271	-1.660737	-0.846506
O26	O	0.096729	-1.160737	-0.346506
O27	O	-0.403309	-1.466110	-0.651923
O28	O	0.096691	-0.966110	-0.151923
O29	O	-0.312059	-1.808241	-0.846540
O30	O	0.187941	-1.308241	-0.346540
O31	O	-0.523766	-1.807941	-0.504502
O32	O	-0.023766	-1.307941	-0.004502
O33	O	-0.523717	-1.660566	-0.651910
O34	O	-0.023717	-1.160566	-0.151910
C35	C	-0.357716	-1.422582	-0.578221
C36	C	0.142284	-0.922582	-0.078221
C37	C	-0.357725	-1.289182	-0.578238
C38	C	0.142275	-0.789182	-0.078238
C39	C	-0.550688	-1.734262	-0.578226
C40	C	-0.050688	-1.234262	-0.078226
C41	C	-0.633234	-1.734309	-0.578258
C42	C	-0.133234	-1.234309	-0.078258
C43	C	-0.832685	-1.654246	-0.658390
C44	C	-0.332685	-1.154246	-0.158390
C45	C	-0.882136	-1.624981	-0.548874
C46	C	-0.382136	-1.124981	-0.048874
C47	C	-0.784364	-1.734427	-0.578273
C48	C	-0.284364	-1.234427	-0.078273
C49	C	-0.881995	-1.763751	-0.687802
C50	C	-0.381995	-1.263751	-0.187802
C51	C	-0.930349	-1.734539	-0.578298
C52	C	-0.430349	-1.234539	-0.078298
C53	C	-0.832727	-1.705105	-0.468699
C54	C	-0.332727	-1.205105	0.031301
C55	C	-0.832583	-1.843926	-0.607701
C56	C	-0.332583	-1.343926	-0.107701
C57	C	-0.882011	-1.814703	-0.498109
C58	C	-0.382011	-1.314703	0.001891
C59	C	-0.700266	-1.734360	-0.578261
C60	C	-0.200266	-1.234360	-0.078261
C61	C	-1.014446	-1.734607	-0.578298
C62	C	-0.514446	-1.234607	-0.078298
C63	C	-0.164030	-1.734585	-0.578292
C64	C	0.335970	-1.234585	-0.078292
C65	C	-0.081484	-1.734661	-0.578312
C66	C	0.418516	-1.234661	-0.078312
C67	C	-0.357653	-1.734503	-0.891289
C68	C	0.142347	-1.234503	-0.391289
C69	C	-0.357618	-1.734544	-1.024689
C70	C	0.142382	-1.234544	-0.524689
C71	C	-0.357749	-1.047449	-0.578264
C72	C	0.142251	-0.547449	-0.078264
C73	C	-0.357737	-1.180849	-0.578251
C74	C	0.142263	-0.680849	-0.078251
C75	C	-0.357764	-1.734380	-0.266421
C76	C	0.142236	-1.234380	0.233579
C77	C	-0.357590	-1.734571	-0.133022
C78	C	0.142410	-1.234571	0.366978
H79	H	-0.811026	-1.586339	-0.726047
H80	H	-0.311026	-1.086339	-0.226047
Cl81	Cl	-0.915241	-1.919469	-0.393407
Cl82	Cl	-0.415241	-1.419469	0.106593
Cl83	Cl	-0.915739	-1.482089	-0.510447
Cl84	Cl	-0.415739	-0.982089	-0.010447
Cl85	Cl	-0.799457	-1.666718	-0.325663
Cl86	Cl	-0.299457	-1.166718	0.174337
H87	H	-0.810802	-1.936452	-0.632621
H88	H	-0.310802	-1.436452	-0.132621
H89	H	-0.903637	-1.788509	-0.780419
H90	H	-0.403637	-1.288509	-0.280419
