data_functionalizedCrystal
_audit_creation_method	'MofGen! by Chris Wilmer'
_symmetry_space_group_name_H-M	'P1'
_symmetry_Int_Tables_number	1
_symmetry_cell_setting	triclinic
loop_
_symmetry_equiv_pos_as_xyz
  x,y,z
_cell_length_a	14.908993
_cell_length_b	13.897448
_cell_length_c	14.908308
_cell_angle_alpha	86.732812
_cell_angle_beta	83.629285
_cell_angle_gamma	93.319251
loop_
_atom_site_label
_atom_site_type_symbol
_atom_site_fract_x
_atom_site_fract_y
_atom_site_fract_z
Zn1	Zn	1.354253	-0.327027	0.432047
Zn2	Zn	1.362897	-0.478473	0.280695
Zn3	Zn	1.211626	-0.327073	0.289425
Zn4	Zn	1.202869	-0.498166	0.440725
O5	O	1.282911	-0.407685	0.360723
O6	O	1.482062	-0.338856	0.404684
O7	O	1.350113	-0.450167	0.155192
O8	O	1.230594	-0.192084	0.308366
O9	O	1.488413	-0.450122	0.293486
O10	O	1.335381	-0.192050	0.413150
O11	O	1.238975	-0.338934	0.161606
O12	O	1.083803	-0.358030	0.316782
O13	O	1.215668	-0.483686	0.566235
O14	O	1.077369	-0.483731	0.427941
O15	O	1.326889	-0.357952	0.559859
O16	O	1.341622	-0.616068	0.301901
O17	O	1.224050	-0.630537	0.419475
C18	C	1.047744	-0.423023	0.374251
C19	C	0.947137	-0.429610	0.380060
C20	C	0.764724	-0.310919	0.275386
C21	C	0.670195	-0.317104	0.280841
C22	C	0.663548	-0.448169	0.396419
C23	C	0.758077	-0.441984	0.390964
C24	C	0.808662	-0.373355	0.330447
C25	C	0.903192	-0.367166	0.324997
C26	C	0.896544	-0.498235	0.440570
C27	C	0.802015	-0.504421	0.446025
C28	C	1.282847	-0.658302	0.360701
C29	C	1.282900	-0.765513	0.360717
C30	C	1.282992	-0.961806	0.360768
C31	C	1.282938	-0.852575	0.360742
C32	C	1.518998	-0.392287	0.347143
C33	C	1.619603	-0.385726	0.341356
C34	C	1.269337	-0.423011	0.596807
C35	C	1.263553	-0.429542	0.697413
C36	C	1.283000	-0.156089	0.360764
C37	C	1.283037	-0.048874	0.360781
C38	C	1.296485	-0.392346	0.125554
C39	C	1.302445	-0.385531	0.024940
C40	C	1.368495	-0.310864	0.879823
C41	C	1.363063	-0.316997	0.974350
C42	C	1.247252	-0.447935	0.980996
C43	C	1.252685	-0.441802	0.886469
C44	C	1.313309	-0.373266	0.835885
C45	C	1.318745	-0.367138	0.741356
C46	C	1.202930	-0.498071	0.748004
C47	C	1.197498	-0.504204	0.842532
H48	H	0.944377	-0.311280	0.275726
H49	H	0.805910	-0.255028	0.226121
H50	H	0.622346	-0.504051	0.445681
H51	H	0.932328	-0.549071	0.485409
H52	H	1.417863	-0.255063	0.838636
H53	H	1.407999	-0.266181	1.010120
H54	H	1.148138	-0.560002	0.883730
C55	C	0.686264	-0.186926	0.166056
C56	C	0.621897	-0.248467	0.220321
H57	H	0.656444	-0.144549	0.128697
H58	H	0.725110	-0.224235	0.129242
H59	H	0.720879	-0.150247	0.203432
H60	H	0.587286	-0.285152	0.182945
H61	H	0.583035	-0.211155	0.257139
C62	C	1.159832	-0.546815	0.606054
C63	C	1.142263	-0.566667	0.699707
H64	H	1.122377	-0.589162	0.576239
H65	H	1.221526	-0.555959	0.587069
H66	H	1.147491	-0.481863	0.591340
H67	H	1.154610	-0.631618	0.714421
H68	H	1.080554	-0.557532	0.718698
C69	C	0.764120	-0.563478	0.600898
C70	C	0.746404	-0.579845	0.512550
H71	H	0.729792	-0.610043	0.641969
H72	H	0.747876	-0.500572	0.615122
H73	H	0.826709	-0.568735	0.605519
H74	H	0.683817	-0.574580	0.507927
H75	H	0.762643	-0.642766	0.498322
C76	C	1.187487	-0.515444	1.128857
C77	C	1.180604	-0.523251	1.036609
H78	H	1.146340	-0.561942	1.163188
H79	H	1.173381	-0.452503	1.145100
H80	H	1.247407	-0.526609	1.140844
H81	H	1.120686	-0.512079	1.024620
H82	H	1.194704	-0.586208	1.020360
H83	H	1.368110	-0.311333	0.700172
