data_functionalizedCrystal
_audit_creation_method	'MofGen! by Chris Wilmer'
_symmetry_space_group_name_H-M	'P1'
_symmetry_Int_Tables_number	1
_symmetry_cell_setting	triclinic
loop_
_symmetry_equiv_pos_as_xyz
  x,y,z
_cell_length_a	19.805405
_cell_length_b	17.077404
_cell_length_c	17.077396
_cell_angle_alpha	89.980499
_cell_angle_beta	89.968350
_cell_angle_gamma	90.026635
loop_
_atom_site_label
_atom_site_type_symbol
_atom_site_fract_x
_atom_site_fract_y
_atom_site_fract_z
Zn1	Zn	-0.269459	1.200035	-0.443825
Zn2	Zn	0.230541	1.700035	0.056175
Zn3	Zn	-0.382652	1.199934	-0.312552
Zn4	Zn	0.117348	1.699934	0.187448
Zn5	Zn	-0.269483	1.068767	-0.312573
Zn6	Zn	0.230517	1.568767	0.187427
Zn7	Zn	-0.382612	1.068727	-0.443776
Zn8	Zn	0.117388	1.568727	0.056224
O9	O	-0.326052	1.134366	-0.378182
O10	O	0.173948	1.634366	0.121818
O11	O	-0.284481	1.309869	-0.426424
O12	O	0.215519	1.809869	0.073576
O13	O	-0.367667	1.182509	-0.202708
O14	O	0.132333	1.682509	0.297292
O15	O	-0.174763	1.086239	-0.330014
O16	O	0.325237	1.586239	0.169986
O17	O	-0.367644	1.309795	-0.329978
O18	O	0.132356	1.809795	0.170022
O19	O	-0.174746	1.182681	-0.426444
O20	O	0.325254	1.682681	0.073556
O21	O	-0.284522	1.086141	-0.202724
O22	O	0.215478	1.586141	0.297276
O23	O	-0.284483	0.958915	-0.329966
O24	O	0.215517	1.458915	0.170034
O25	O	-0.367575	1.086171	-0.553629
O26	O	0.132425	1.586171	-0.053629
O27	O	-0.367598	0.958886	-0.426360
O28	O	0.132402	1.458886	0.073640
O29	O	-0.284442	1.182643	-0.553666
O30	O	0.215558	1.682643	-0.053666
O31	O	-0.477363	1.182470	-0.329930
O32	O	0.022637	1.682470	0.170070
O33	O	-0.477334	1.086073	-0.426339
O34	O	0.022666	1.586073	0.073661
C35	C	-0.326039	0.930418	-0.378160
C36	C	0.173961	1.430418	0.121840
C37	C	-0.326050	0.843168	-0.378169
C38	C	0.173950	1.343168	0.121831
C39	C	-0.369394	0.802183	-0.428281
C40	C	0.130606	1.302183	0.071719
C41	C	-0.369395	0.720203	-0.428294
C42	C	0.130605	1.220203	0.071706
C43	C	-0.326056	0.679209	-0.378190
C44	C	0.173944	1.179209	0.121810
C45	C	-0.282708	0.720200	-0.328076
C46	C	0.217292	1.220200	0.171924
C47	C	-0.282703	0.802179	-0.328068
C48	C	0.217297	1.302179	0.171932
C49	C	-0.282721	0.549330	-0.328095
C50	C	0.217279	1.049330	0.171905
C51	C	-0.282726	0.467345	-0.328102
C52	C	0.217274	0.967345	0.171898
C53	C	-0.369413	0.467354	-0.428321
C54	C	0.130587	0.967354	0.071679
C55	C	-0.369409	0.549333	-0.428313
C56	C	0.130591	1.049333	0.071687
C57	C	-0.326061	0.590318	-0.378197
C58	C	0.173939	1.090318	0.121803
C59	C	-0.501908	1.134278	-0.378144
C60	C	-0.001908	1.634278	0.121856
C61	C	-0.577140	1.134312	-0.378154
C62	C	-0.077140	1.634312	0.121846
C63	C	-0.612477	1.184555	-0.328006
C64	C	-0.112477	1.684555	0.171994
C65	C	-0.683165	1.184588	-0.328023
C66	C	-0.183165	1.684588	0.171977
C67	C	-0.718515	1.134374	-0.378185
C68	C	-0.218515	1.634374	0.121815
C69	C	-0.683173	1.084129	-0.428338
C70	C	-0.183173	1.584129	0.071662
C71	C	-0.612486	1.084100	-0.428324
C72	C	-0.112486	1.584100	0.071676
C73	C	-0.968246	1.084245	-0.428397
C74	C	-0.468246	1.584245	0.071603
C75	C	-1.038938	1.084276	-0.428405
C76	C	-0.538938	1.584276	0.071595
C77	C	-1.038925	1.184733	-0.328095
C78	C	-0.538925	1.684733	0.171905
C79	C	-0.968238	1.184704	-0.328081
C80	C	-0.468238	1.684704	0.171919
C81	C	-0.932902	1.134462	-0.378237
C82	C	-0.432902	1.634462	0.121763
C83	C	-0.856254	1.134427	-0.378219
C84	C	-0.356254	1.634427	0.121781
C85	C	-0.795162	1.134404	-0.378200
C86	C	-0.295162	1.634404	0.121800
C87	C	-0.149509	1.134476	-0.378237
C88	C	0.350491	1.634476	0.121763
C89	C	-0.074277	1.134523	-0.378261
C90	C	0.425723	1.634523	0.121739
C91	C	-0.326002	1.134414	-0.582926
C92	C	0.173998	1.634414	-0.082926
C93	C	-0.325980	1.134434	-0.670176
C94	C	0.174020	1.634434	-0.170176
C95	C	-0.326064	1.339110	-0.378204
C96	C	0.173936	1.839110	0.121796
C97	C	-0.326070	1.426360	-0.378213
C98	C	0.173930	1.926360	0.121787
C99	C	-0.282690	1.184668	-0.711186
C100	C	0.217310	1.684668	-0.211186
C101	C	-0.282667	1.184678	-0.793167
C102	C	0.217333	1.684678	-0.293167
C103	C	-0.325939	1.134456	-0.834135
C104	C	0.174061	1.634456	-0.334135
C105	C	-0.369232	1.084216	-0.793119
C106	C	0.130768	1.584216	-0.293119
C107	C	-0.369251	1.084203	-0.711140
C108	C	0.130749	1.584203	-0.211140
C109	C	-0.369191	1.084248	-0.963989
C110	C	0.130809	1.584248	-0.463989
C111	C	-0.369174	1.084261	-1.045974
C112	C	0.130826	1.584261	-0.545974
C113	C	-0.282608	1.184722	-1.046016
C114	C	0.217392	1.684722	-0.546016
C115	C	-0.282626	1.184709	-0.964037
C116	C	0.217374	1.684709	-0.464037
C117	C	-0.325920	1.134470	-0.923026
C118	C	0.174080	1.634470	-0.423026
C119	C	-0.326052	1.134364	-0.174234
C120	C	0.173948	1.634364	0.325766
C121	C	-0.325883	1.134496	-0.086984
C122	C	0.174117	1.634496	0.413016
H123	H	-0.247428	0.433970	-0.287312
H124	H	0.252572	0.933970	0.212688
O125	O	-0.411489	0.427634	-0.477114
O126	O	0.088511	0.927634	0.022886
C127	C	-0.396778	0.447697	-0.555381
C128	C	0.103222	0.947697	-0.055381
H129	H	-0.370755	0.507231	-0.557057
H130	H	0.129245	1.007231	-0.057057
H131	H	-0.445669	0.450499	-0.590468
H132	H	0.054331	0.950499	-0.090468
H133	H	-0.362016	0.401586	-0.581906
H134	H	0.137984	0.901586	-0.081906
H135	H	-0.939481	1.043334	-0.469234
H136	H	-0.439481	1.543334	0.030766
H137	H	-0.247417	1.225586	-0.826554
H138	H	0.252583	1.725586	-0.326554
O139	O	-0.717585	1.035460	-0.477105
O140	O	-0.217585	1.535460	0.022895
C141	C	-0.758400	1.080138	-0.527865
C142	C	-0.258400	1.580138	-0.027865
H143	H	-0.768965	1.139647	-0.500236
H144	H	-0.268965	1.639647	-0.000236
H145	H	-0.808123	1.048178	-0.538363
H146	H	-0.308123	1.548178	-0.038363
H147	H	-0.731117	1.088718	-0.586041
H148	H	-0.231117	1.588718	-0.086041
H149	H	-0.583715	1.043188	-0.469161
H150	H	-0.083715	1.543188	0.030839
H151	H	-0.711933	1.225500	-0.287187
H152	H	-0.211933	1.725500	0.212813
O153	O	-0.240597	0.589022	-0.279334
O154	O	0.259403	1.089022	0.220666
C155	C	-0.202337	0.535263	-0.235121
C156	C	0.297663	1.035263	0.264879
H157	H	-0.230058	0.476809	-0.232359
H158	H	0.269942	0.976809	0.267641
H159	H	-0.195057	0.558923	-0.173284
H160	H	0.304943	1.058923	0.326716
H161	H	-0.150959	0.526586	-0.263968
H162	H	0.349041	1.026586	0.236032
H163	H	-0.404408	1.043364	-1.079328
H164	H	0.095592	1.543364	-0.579328
H165	H	-1.067704	1.225645	-0.287259
H166	H	-0.567704	1.725645	0.212741
O167	O	-0.933825	1.233520	-0.279464
O168	O	-0.433825	1.733520	0.220536
C169	C	-0.892886	1.284188	-0.324197
C170	C	-0.392886	1.784188	0.175803
H171	H	-0.882281	1.256463	-0.383657
H172	H	-0.382281	1.756463	0.116343
H173	H	-0.843190	1.294705	-0.292225
H174	H	-0.343190	1.794705	0.207775
H175	H	-0.920081	1.342367	-0.332880
H176	H	-0.420081	1.842367	0.167120
H177	H	-1.067719	1.043386	-0.469259
H178	H	-0.567719	1.543386	0.030741
H179	H	-0.404688	0.835555	-0.469079
H180	H	0.095312	1.335555	0.030921
H181	H	-0.247454	1.225567	-0.677836
H182	H	0.252546	1.725567	-0.177836
O183	O	-0.411322	1.035433	-0.924272
O184	O	0.088678	1.535433	-0.424272
C185	C	-0.449507	0.991104	-0.978009
C186	C	0.050493	1.491104	-0.478009
H187	H	-0.451824	1.023256	-1.036456
H188	H	0.048176	1.523256	-0.536456
H189	H	-0.502846	0.982717	-0.954310
H190	H	-0.002846	1.482717	-0.454310
H191	H	-0.424732	0.931492	-0.986713
H192	H	0.075268	1.431492	-0.486713
H193	H	-0.247417	0.686816	-0.287284
H194	H	0.252583	1.186816	0.212716
H195	H	-0.404691	0.686837	-0.469099
H196	H	0.095309	1.186837	0.030901
H197	H	-0.247394	1.225609	-0.930683
H198	H	0.252606	1.725609	-0.430683
O199	O	-0.411413	0.589241	-0.477023
O200	O	0.088587	1.089241	0.022977
C201	C	-0.372926	0.636684	-0.527810
C202	C	0.127074	1.136684	-0.027810
H203	H	-0.321602	0.648974	-0.500230
H204	H	0.178398	1.148974	-0.000230
H205	H	-0.400501	0.694326	-0.538266
H206	H	0.099499	1.194326	-0.038266
H207	H	-0.365555	0.605119	-0.586001
H208	H	0.134445	1.105119	-0.086001
O209	O	-0.411361	1.035469	-0.832828
O210	O	0.088639	1.535469	-0.332828
C211	C	-0.478827	1.052590	-0.812790
C212	C	0.021173	1.552590	-0.312790
H213	H	-0.480245	1.082754	-0.753272
H214	H	0.019755	1.582754	-0.253272
H215	H	-0.509173	0.995919	-0.809966
H216	H	-0.009173	1.495919	-0.309966
H217	H	-0.501616	1.092942	-0.858927
H218	H	-0.001616	1.592942	-0.358927
O219	O	-0.240564	1.233441	-1.085970
O220	O	0.259436	1.733441	-0.585970
C221	C	-0.249830	1.222693	-1.167112
C222	C	0.250170	1.722693	-0.667112
H223	H	-0.271996	1.162104	-1.178288
H224	H	0.228004	1.662104	-0.678288
H225	H	-0.199120	1.228045	-1.198280
H226	H	0.300880	1.728045	-0.698280
H227	H	-0.285865	1.269238	-1.190382
H228	H	0.214135	1.769238	-0.690382
O229	O	-0.411212	1.035324	-0.671270
O230	O	0.088788	1.535324	-0.171270
C231	C	-0.372689	0.984649	-0.623838
C232	C	0.127311	1.484649	-0.123838
H233	H	-0.319373	0.979837	-0.648556
H234	H	0.180627	1.479837	-0.148556
H235	H	-0.397167	0.924225	-0.622895
H236	H	0.102833	1.424225	-0.122895
H237	H	-0.370377	1.008907	-0.561712
H238	H	0.129623	1.508907	-0.061712
O239	O	-0.240582	0.841873	-0.279311
O240	O	0.259418	1.341873	0.220689
C241	C	-0.202320	0.788113	-0.235100
C242	C	0.297680	1.288113	0.264900
H243	H	-0.230043	0.729661	-0.232331
H244	H	0.269957	1.229661	0.267669
H245	H	-0.195033	0.811776	-0.173266
H246	H	0.304967	1.311776	0.326734
H247	H	-0.150945	0.779433	-0.263953
H248	H	0.349055	1.279433	0.236047
H249	H	-0.583699	1.225441	-0.287155
H250	H	-0.083699	1.725441	0.212845
