data_functionalizedCrystal
_audit_creation_method	'MofGen! by Chris Wilmer'
_symmetry_space_group_name_H-M	'P1'
_symmetry_Int_Tables_number	1
_symmetry_cell_setting	triclinic
loop_
_symmetry_equiv_pos_as_xyz
  x,y,z
_cell_length_a	14.853569
_cell_length_b	14.853567
_cell_length_c	9.130313
_cell_angle_alpha	89.999276
_cell_angle_beta	89.998450
_cell_angle_gamma	83.635248
loop_
_atom_site_label
_atom_site_type_symbol
_atom_site_fract_x
_atom_site_fract_y
_atom_site_fract_z
O1	O	1.196363	0.117711	-0.121720
O2	O	1.696363	0.617711	0.378280
O3	O	0.933903	0.131731	-0.121736
O4	O	1.433903	0.631731	0.378264
O5	O	1.072144	-0.006509	-0.121732
O6	O	1.572144	0.493491	0.378268
O7	O	1.058122	0.255950	-0.121724
O8	O	1.558122	0.755950	0.378276
O9	O	1.072134	-0.006513	0.121867
O10	O	1.572134	0.493487	0.621867
O11	O	0.933894	0.131727	0.121863
O12	O	1.433894	0.631727	0.621863
O13	O	1.196353	0.117707	0.121879
O14	O	1.696353	0.617707	0.621879
Cu15	Cu	1.065123	0.124716	0.144114
Cu16	Cu	1.565123	0.624716	0.644114
Cu17	Cu	1.065134	0.124721	-0.143970
Cu18	Cu	1.565134	0.624721	0.356030
O19	O	1.058113	0.255946	0.121875
O20	O	1.558113	0.755946	0.621875
C21	C	0.900310	0.131093	0.000061
C22	C	1.400310	0.631093	0.500061
C23	C	0.800226	0.129189	0.000055
C24	C	1.300226	0.629189	0.500055
C25	C	1.071504	-0.040100	0.000063
C26	C	1.571504	0.459900	0.500063
C27	C	1.069600	-0.140183	0.000051
C28	C	1.569600	0.359817	0.500051
C29	C	0.763850	0.046178	0.000047
C30	C	1.263850	0.546178	0.500047
C31	C	0.742560	0.210410	0.000068
C32	C	1.242560	0.710410	0.500068
C33	C	0.648526	0.208624	0.000070
C34	C	1.148526	0.708624	0.500070
C35	C	0.612150	0.125613	0.000062
C36	C	1.112150	0.625613	0.500062
C37	C	0.669807	0.044389	0.000053
C38	C	1.169807	0.544389	0.500053
C39	C	0.590862	0.289847	0.000094
C40	C	1.090862	0.789847	0.500094
C41	C	0.496821	0.288064	0.000097
C42	C	0.996821	0.788064	0.500097
C43	C	0.460443	0.205052	0.000079
C44	C	0.960443	0.705052	0.500079
C45	C	0.518107	0.123824	0.000068
C46	C	1.018107	0.623824	0.500068
C47	C	0.481730	0.040813	0.000061
C48	C	0.981730	0.540813	0.500061
C49	C	0.539393	-0.040415	0.000039
C50	C	1.039393	0.459585	0.500039
C51	C	0.633429	-0.038623	0.000035
C52	C	1.133429	0.461377	0.500035
C53	C	0.366407	0.203259	0.000084
C54	C	0.866407	0.703259	0.500084
C55	C	0.387688	0.039024	0.000067
C56	C	0.887688	0.539024	0.500067
C57	C	0.979434	-0.552718	0.000073
C58	C	1.479434	-0.052718	0.500073
C59	C	1.143667	-0.573998	0.000083
C60	C	1.643667	-0.073998	0.500083
C61	C	1.145457	-0.479964	0.000074
C62	C	1.645457	0.020036	0.500074
C63	C	1.064234	-0.422303	0.000067
C64	C	1.564234	0.077697	0.500067
C65	C	0.981222	-0.458675	0.000069
C66	C	1.481222	0.041325	0.500069
C67	C	1.228468	-0.443585	0.000088
C68	C	1.728468	0.056415	0.500088
C69	C	1.230262	-0.349545	0.000081
C70	C	1.730262	0.150455	0.500081
C71	C	1.149038	-0.291882	0.000063
C72	C	1.649038	0.208118	0.500063
C73	C	1.066022	-0.328260	0.000063
C74	C	1.566022	0.171740	0.500063
C75	C	0.984800	-0.270599	0.000056
C76	C	1.484800	0.229401	0.500056
C77	C	0.901783	-0.306974	0.000046
C78	C	1.401783	0.193026	0.500046
C79	C	0.899998	-0.401012	0.000051
C80	C	1.399998	0.098988	0.500051
C81	C	1.150822	-0.197845	0.000058
C82	C	1.650822	0.302155	0.500058
C83	C	0.986587	-0.176556	0.000052
C84	C	1.486587	0.323444	0.500052
C85	C	1.229947	0.118344	0.000079
C86	C	1.729947	0.618344	0.500079
C87	C	1.330030	0.120249	0.000076
C88	C	1.830030	0.620249	0.500076
C89	C	1.058753	0.289537	0.000077
C90	C	1.558753	0.789537	0.500077
C91	C	1.060657	0.389621	0.000080
C92	C	1.560657	0.889621	0.500080
N93	N	1.065121	0.124712	0.346736
N94	N	1.565121	0.624712	0.846736
N95	N	1.065142	0.124718	-0.346593
N96	N	1.565142	0.624718	0.153407
C97	C	1.126355	0.063526	0.423390
C98	C	1.626355	0.563526	0.923390
C99	C	1.126363	0.063526	0.576727
C100	C	1.626363	0.563526	1.076727
C101	C	1.003902	0.185908	0.576743
C102	C	1.503902	0.685908	1.076743
C103	C	1.003890	0.185902	0.423409
C104	C	1.503890	0.685902	0.923409
H105	H	0.358078	-0.028574	0.000052
H106	H	0.858078	0.471426	0.500052
H107	H	0.319463	0.269395	0.000114
H108	H	0.819463	0.769395	0.500114
H109	H	0.509763	-0.108003	0.000024
H110	H	1.009763	0.391997	0.500024
H111	H	0.954022	0.235728	0.360993
H112	H	1.454022	0.735728	0.860993
H113	H	0.835651	-0.260014	0.000050
H114	H	1.335651	0.239986	0.500050
H115	H	0.680385	-0.104755	0.000020
H116	H	1.180385	0.395245	0.500020
H117	H	0.810802	-0.019956	0.000024
H118	H	1.310802	0.480044	0.500024
H119	H	1.176224	0.013701	0.639134
H120	H	1.676224	0.513701	1.139134
Cl121	Cl	0.795644	-0.446748	0.000034
Cl122	Cl	1.295644	0.053252	0.500034
H123	H	0.772184	0.277994	0.000085
H124	H	1.272184	0.777994	0.500085
Cl125	Cl	1.203328	-0.013402	0.327008
Cl126	Cl	1.703328	0.486598	0.827008
Cl127	Cl	1.255177	-0.152118	0.000098
Cl128	Cl	1.755177	0.347882	0.500098
H129	H	0.920445	-0.129613	0.000040
H130	H	1.420445	0.370387	0.500040
H131	H	0.911844	-0.582339	0.000058
H132	H	1.411844	-0.082339	0.500058
H133	H	0.620487	0.357430	0.000110
H134	H	1.120487	0.857430	0.500110
Cl135	Cl	0.926933	0.262832	0.673138
Cl136	Cl	1.426933	0.762832	1.173138
H137	H	0.449880	0.354205	0.000112
H138	H	0.949880	0.854205	0.500112
Cl139	Cl	1.245769	-0.646486	0.000116
Cl140	Cl	1.745769	-0.146486	0.500116
H141	H	1.294595	-0.490539	0.000107
H142	H	1.794595	0.009461	0.500107
Cl143	Cl	1.334623	-0.303824	0.000070
Cl144	Cl	1.834623	0.196176	0.500070
