data_functionalizedCrystal
_audit_creation_method	'MofGen! by Chris Wilmer'
_symmetry_space_group_name_H-M	'P1'
_symmetry_Int_Tables_number	1
_symmetry_cell_setting	triclinic
loop_
_symmetry_equiv_pos_as_xyz
  x,y,z
_cell_length_a	18.215407
_cell_length_b	14.908178
_cell_length_c	18.215399
_cell_angle_alpha	86.674478
_cell_angle_beta	89.983101
_cell_angle_gamma	93.311509
loop_
_atom_site_label
_atom_site_type_symbol
_atom_site_fract_x
_atom_site_fract_y
_atom_site_fract_z
Zn1	Zn	1.108197	-0.359256	-0.399140
Zn2	Zn	1.608197	0.140744	0.100860
Zn3	Zn	1.101018	-0.510136	-0.268968
Zn4	Zn	1.601018	-0.010136	0.231032
Zn5	Zn	0.985128	-0.359278	-0.276093
Zn6	Zn	1.485128	0.140722	0.223907
Zn7	Zn	0.978011	-0.510078	-0.392002
Zn8	Zn	1.478011	-0.010078	0.107998
O9	O	1.043088	-0.434687	-0.334051
O10	O	1.543088	0.065313	0.165949
O11	O	1.210228	-0.379286	-0.381878
O12	O	1.710228	0.120714	0.118122
O13	O	1.085619	-0.490158	-0.166928
O14	O	1.585619	0.009842	0.333072
O15	O	1.007437	-0.233021	-0.298384
O16	O	1.507437	0.266979	0.201616
O17	O	1.204954	-0.490137	-0.286242
O18	O	1.704954	0.009863	0.213758
O19	O	1.097855	-0.233005	-0.388786
O20	O	1.597855	0.266995	0.111214
O21	O	1.000476	-0.379323	-0.172162
O22	O	1.500476	0.120677	0.327838
O23	O	0.881201	-0.379267	-0.291463
O24	O	1.381201	0.120733	0.208537
O25	O	0.995306	-0.490038	-0.495935
O26	O	1.495306	0.009962	0.004065
O27	O	0.875971	-0.490059	-0.376621
O28	O	1.375971	0.009941	0.123379
O29	O	1.090953	-0.379230	-0.501179
O30	O	1.590953	0.120770	-0.001179
O31	O	1.078718	-0.636383	-0.279320
O32	O	1.578718	-0.136383	0.220680
O33	O	0.988345	-0.636340	-0.369713
O34	O	1.488345	-0.136340	0.130287
C35	C	0.851883	-0.434659	-0.334041
C36	C	1.351883	0.065341	0.165959
C37	C	0.770084	-0.434669	-0.334053
C38	C	1.270084	0.065331	0.165947
C39	C	0.502318	-0.492471	-0.378324
C40	C	1.002318	0.007529	0.121676
C41	C	0.579177	-0.492464	-0.378321
C42	C	1.079177	0.007536	0.121679
C43	C	0.584600	-0.376923	-0.289790
C44	C	1.084600	0.123077	0.210210
C45	C	0.507742	-0.376936	-0.289790
C46	C	1.007742	0.123064	0.210210
C47	C	0.466603	-0.434709	-0.334061
C48	C	0.966603	0.065291	0.165939
C49	C	0.620320	-0.434688	-0.334058
C50	C	1.120320	0.065312	0.165942
C51	C	0.703654	-0.434679	-0.334054
C52	C	1.203654	0.065321	0.165946
C53	C	0.383263	-0.434719	-0.334064
C54	C	0.883263	0.065281	0.165936
C55	C	1.032000	-0.669097	-0.322985
C56	C	1.532000	-0.169097	0.177015
C57	C	1.027323	-0.769379	-0.318276
C58	C	1.527323	-0.269379	0.181724
C59	C	1.112617	-0.957653	-0.403663
C60	C	1.612617	-0.457653	0.096337
C61	C	1.108225	-1.051877	-0.399241
C62	C	1.608225	-0.551877	0.100759
C63	C	1.014146	-1.052052	-0.305013
C64	C	1.514146	-0.552052	0.194987
C65	C	1.018538	-0.957828	-0.309435
C66	C	1.518538	-0.457828	0.190565
C67	C	1.067775	-0.910632	-0.358761
C68	C	1.567775	-0.410632	0.141239
C69	C	1.072170	-0.816407	-0.363180
C70	C	1.572170	-0.316407	0.136820
C71	C	0.978087	-0.816584	-0.268956
C72	C	1.478087	-0.316584	0.231044
C73	C	0.973696	-0.910808	-0.264533
C74	C	1.473696	-0.410808	0.235467
C75	C	1.235040	-0.434715	-0.334061
C76	C	1.735040	0.065285	0.165939
C77	C	1.316838	-0.434728	-0.334066
C78	C	1.816838	0.065272	0.165934
C79	C	1.043136	-0.434625	-0.526007
C80	C	1.543136	0.065375	-0.026007
C81	C	1.043157	-0.434598	-0.607807
C82	C	1.543157	0.065402	-0.107807
C83	C	1.054240	-0.199361	-0.345176
C84	C	1.554240	0.300639	0.154824
C85	C	1.058993	-0.099079	-0.349917
C86	C	1.558993	0.400921	0.150083
C87	C	1.092979	-0.376847	-0.798735
C88	C	1.592979	0.123153	-0.298735
C89	C	1.092989	-0.376820	-0.875595
C90	C	1.592989	0.123180	-0.375595
C91	C	0.993392	-0.492211	-0.870123
C92	C	1.493392	0.007789	-0.370123
C93	C	0.993379	-0.492232	-0.793265
C94	C	1.493379	0.007768	-0.293265
C95	C	1.043177	-0.434551	-0.757573
C96	C	1.543177	0.065449	-0.257573
C97	C	1.043200	-0.434504	-0.911291
C98	C	1.543200	0.065496	-0.411291
C99	C	1.043210	-0.434476	-0.994626
C100	C	1.543210	0.065524	-0.494626
C101	C	1.043166	-0.434578	-0.674232
C102	C	1.543166	0.065422	-0.174232
C103	C	1.043086	-0.434684	-0.142845
C104	C	1.543086	0.065316	0.357155
C105	C	1.043220	-0.434456	-0.061057
C106	C	1.543220	0.065544	0.438943
H107	H	0.618104	-0.329885	-0.253747
H108	H	1.118104	0.170115	0.246253
H109	H	1.152713	-0.919225	-0.443822
H110	H	1.652713	-0.419225	0.056178
H111	H	0.478662	-0.329897	-0.253742
H112	H	0.978662	0.170103	0.246258
H113	H	1.112264	-0.777980	-0.403341
H114	H	1.612264	-0.277980	0.096659
H115	H	0.608252	-0.539501	-0.414363
H116	H	1.108252	-0.039501	0.085637
H117	H	1.133526	-0.329877	-0.769677
H118	H	1.633526	0.170123	-0.269677
H119	H	1.144736	-1.090157	-0.435809
H120	H	1.644736	-0.590157	0.064191
H121	H	0.974056	-1.090495	-0.264857
H122	H	1.474056	-0.590495	0.235143
H123	H	0.952850	-0.539174	-0.899193
H124	H	1.452850	-0.039174	-0.399193
H125	H	0.933606	-0.949248	-0.224375
H126	H	1.433606	-0.449248	0.275625
H127	H	0.468824	-0.539514	-0.414372
H128	H	0.968824	-0.039514	0.085628
H129	H	1.133542	-0.329830	-0.909107
H130	H	1.633542	0.170170	-0.409107
H131	H	0.952819	-0.539221	-0.759749
H132	H	1.452819	-0.039221	-0.259749
H133	H	0.941576	-0.778289	-0.232391
H134	H	1.441576	-0.278289	0.267609
