data_functionalizedCrystal
_audit_creation_method	'MofGen! by Chris Wilmer'
_symmetry_space_group_name_H-M	'P1'
_symmetry_Int_Tables_number	1
_symmetry_cell_setting	triclinic
loop_
_symmetry_equiv_pos_as_xyz
  x,y,z
_cell_length_a	27.731994
_cell_length_b	27.732048
_cell_length_c	26.210047
_cell_angle_alpha	90.024710
_cell_angle_beta	89.985111
_cell_angle_gamma	97.368405
loop_
_atom_site_label
_atom_site_type_symbol
_atom_site_fract_x
_atom_site_fract_y
_atom_site_fract_z
O1	O	0.640955	-0.057401	-0.042362
O2	O	0.974288	0.275932	0.290972
O3	O	1.307621	0.609265	0.624305
O4	O	0.500157	-0.066174	-0.042379
O5	O	0.833491	0.267159	0.290954
O6	O	1.166824	0.600492	0.624287
O7	O	0.574929	0.008610	-0.042360
O8	O	0.908262	0.341943	0.290973
O9	O	1.241596	0.675276	0.624306
O10	O	0.566183	-0.132185	-0.042381
O11	O	0.899517	0.201148	0.290953
O12	O	1.232850	0.534481	0.624286
O13	O	0.574902	0.008630	0.042498
O14	O	0.908235	0.341964	0.375831
O15	O	1.241569	0.675297	0.709164
O16	O	0.500130	-0.066154	0.042479
O17	O	0.833464	0.267180	0.375812
O18	O	1.166797	0.600513	0.709145
O19	O	0.640928	-0.057381	0.042496
O20	O	0.974261	0.275953	0.375830
O21	O	1.307594	0.609286	0.709163
Cu22	Cu	0.570527	-0.061765	0.050236
Cu23	Cu	0.903860	0.271568	0.383569
Cu24	Cu	1.237193	0.604901	0.716902
Cu25	Cu	0.570559	-0.061790	-0.050119
Cu26	Cu	0.903892	0.271544	0.283215
Cu27	Cu	1.237225	0.604877	0.616548
O28	O	0.566156	-0.132165	0.042477
O29	O	0.899489	0.201169	0.375811
O30	O	1.232823	0.534502	0.709144
C31	C	0.482137	-0.065984	0.000047
C32	C	0.815470	0.267349	0.333381
C33	C	1.148803	0.600683	0.666714
C34	C	0.428480	-0.065442	0.000041
C35	C	0.761814	0.267892	0.333374
C36	C	1.095147	0.601225	0.666708
C37	C	0.095747	-0.062015	0.046317
C38	C	0.429080	0.271319	0.379651
C39	C	0.762414	0.604652	0.712984
C40	C	-0.105911	-0.059953	0.046324
C41	C	0.227422	0.273380	0.379657
C42	C	0.560756	0.606714	0.712990
O43	O	-0.131996	-0.059656	0.085663
O44	O	0.201337	0.273677	0.418996
O45	O	0.534670	0.607011	0.752329
N46	N	-0.131111	-0.059708	0.000067
N47	N	0.202222	0.273625	0.333401
N48	N	0.535555	0.606959	0.666734
C49	C	-0.105893	-0.059976	-0.046193
C50	C	0.227440	0.273358	0.287140
C51	C	0.560773	0.606691	0.620473
O52	O	-0.131954	-0.059715	-0.085537
O53	O	0.201379	0.273618	0.247796
O54	O	0.534713	0.606952	0.581130
C55	C	0.095764	-0.062034	-0.046199
C56	C	0.429098	0.271300	0.287134
C57	C	0.762431	0.604633	0.620468
C58	C	0.120961	-0.062283	0.000060
C59	C	0.454295	0.271050	0.333393
C60	C	0.787628	0.604383	0.666727
C61	C	0.120944	-0.062264	0.092573
C62	C	0.454277	0.271070	0.425906
C63	C	0.787611	0.604403	0.759239
C64	C	0.171355	-0.062782	0.092571
C65	C	0.504688	0.270552	0.425904
C66	C	0.838022	0.603885	0.759237
C67	C	0.196569	-0.063051	0.046313
C68	C	0.529903	0.270283	0.379647
C69	C	0.863236	0.603616	0.712980
C70	C	0.171372	-0.062801	0.000058
C71	C	0.504706	0.270532	0.333391
C72	C	0.838039	0.603865	0.666725
C73	C	0.120982	-0.062298	-0.092459
C74	C	0.454315	0.271036	0.240874
C75	C	0.787649	0.604369	0.574207
C76	C	0.171400	-0.062811	-0.092457
C77	C	0.504733	0.270522	0.240877
C78	C	0.838067	0.603856	0.574210
C79	C	0.196597	-0.063061	-0.046197
C80	C	0.529930	0.270273	0.287136
C81	C	0.863263	0.603606	0.620469
C82	C	0.246998	-0.063588	-0.046201
C83	C	0.580331	0.269745	0.287132
C84	C	0.913664	0.603078	0.620466
N85	N	0.272198	-0.063833	0.000055
N86	N	0.605531	0.269500	0.333388
N87	N	0.938865	0.602833	0.666722
C88	C	0.246984	-0.063564	0.046312
C89	C	0.580317	0.269769	0.379646
C90	C	0.913650	0.603102	0.712979
C91	C	-0.211767	-0.058896	-0.046187
C92	C	0.121567	0.274437	0.287146
C93	C	0.454900	0.607771	0.620479
C94	C	-0.262181	-0.058382	-0.046186
C95	C	0.071152	0.274951	0.287147
C96	C	0.404486	0.608284	0.620481
C97	C	-0.262195	-0.058359	0.046331
C98	C	0.071138	0.274975	0.379665
C99	C	0.404471	0.608308	0.712998
C100	C	-0.211780	-0.058876	0.046329
C101	C	0.121553	0.274457	0.379663
C102	C	0.454886	0.607791	0.712996
C103	C	-0.186566	-0.059141	0.000069
C104	C	0.146767	0.274193	0.333402
C105	C	0.480100	0.607526	0.666736
C106	C	0.352851	-0.064653	0.046305
C107	C	0.686184	0.268681	0.379638
C108	C	1.019517	0.602014	0.712971
C109	C	0.403266	-0.065173	0.046298
C110	C	0.736599	0.268161	0.379632
C111	C	1.069933	0.601494	0.712965
C112	C	0.403276	-0.065194	-0.046218
C113	C	0.736610	0.268140	0.287115
C114	C	1.069943	0.601473	0.620448
C115	C	0.352865	-0.064676	-0.046213
C116	C	0.686198	0.268657	0.287121
C117	C	1.019532	0.601991	0.620454
C118	C	0.327654	-0.064404	0.000053
C119	C	0.660987	0.268929	0.333386
C120	C	0.994320	0.602263	0.666720
O121	O	0.273115	-0.063880	-0.085520
O122	O	0.606448	0.269453	0.247814
O123	O	0.939781	0.602787	0.581147
O124	O	0.273054	-0.063814	0.085650
O125	O	0.606388	0.269519	0.418983
O126	O	0.939721	0.602853	0.752316
C127	C	0.045336	-0.061497	0.046319
C128	C	0.378669	0.271837	0.379653
C129	C	0.712003	0.605170	0.712986
C130	C	0.020139	-0.061247	0.000064
C131	C	0.353472	0.272086	0.333397
C132	C	0.686806	0.605419	0.666731
C133	C	0.045353	-0.061516	-0.046193
C134	C	0.378687	0.271817	0.287140
C135	C	0.712020	0.605150	0.620473
C136	C	-0.030275	-0.060734	0.000065
C137	C	0.303058	0.272600	0.333399
C138	C	0.636391	0.605933	0.666732
C139	C	-0.055490	-0.060465	0.046323
C140	C	0.277844	0.272868	0.379656
C141	C	0.611177	0.606202	0.712989
C142	C	-0.030290	-0.060710	0.092579
C143	C	0.303044	0.272624	0.425912
C144	C	0.636377	0.605957	0.759245
C145	C	0.020122	-0.061228	0.092577
C146	C	0.353455	0.272106	0.425910
C147	C	0.686788	0.605439	0.759243
C148	C	0.020153	-0.061271	-0.092449
C149	C	0.353486	0.272062	0.240884
C150	C	0.686820	0.605395	0.574217
C151	C	-0.030258	-0.060754	-0.092443
C152	C	0.303075	0.272579	0.240890
C153	C	0.636409	0.605913	0.574223
C154	C	-0.055472	-0.060485	-0.046186
C155	C	0.277861	0.272848	0.287147
C156	C	0.611194	0.606182	0.620481
C157	C	0.574732	0.026627	0.000070
C158	C	0.908065	0.359960	0.333403
C159	C	1.241398	0.693294	0.666737
C160	C	0.574179	0.080282	0.000074
C161	C	0.907512	0.413615	0.333408
C162	C	1.240846	0.746948	0.666741
C163	C	0.658949	-0.057571	0.000068
C164	C	0.992282	0.275762	0.333402
C165	C	1.325615	0.609096	0.666735
C166	C	0.712605	-0.058113	0.000071
C167	C	1.045938	0.275220	0.333405
C168	C	1.379272	0.608553	0.666738
C169	C	0.566353	-0.150182	0.000046
C170	C	0.899687	0.183151	0.333379
C171	C	1.233020	0.516485	0.666712
C172	C	0.566906	-0.203837	0.000038
C173	C	0.900239	0.129497	0.333372
C174	C	1.233573	0.462830	0.666705
N175	N	0.570507	-0.061748	0.120820
N176	N	0.903841	0.271585	0.454153
N177	N	1.237174	0.604919	0.787486
C178	C	0.614884	0.419105	0.000053
C179	C	0.948217	0.752438	0.333387
C180	C	1.281551	1.085771	0.666720
C181	C	0.612833	0.620764	0.000046
C182	C	0.946166	0.954097	0.333379
C183	C	1.279499	1.287431	0.666712
O184	O	0.650055	0.652027	0.000028
O185	O	0.983388	0.985360	0.333362
O186	O	1.316721	1.318693	0.666695
N187	N	0.568496	0.639879	0.000041
N188	N	0.901830	0.973212	0.333374
N189	N	1.235163	1.306546	0.666707
C190	C	0.524670	0.608576	0.000034
C191	C	0.858003	0.941909	0.333367
C192	C	1.191336	1.275243	0.666701
O193	O	0.486912	0.629462	0.000024
O194	O	0.820245	0.962795	0.333358
O195	O	1.153578	1.296128	0.666691
C196	C	0.526721	0.406918	0.000038
C197	C	0.860055	0.740251	0.333371
C198	C	1.193388	1.073584	0.666704
C199	C	0.571060	0.387806	0.000048
C200	C	0.904394	0.721139	0.333381
C201	C	1.237727	1.054472	0.666715
C202	C	0.659220	0.399992	0.000063
C203	C	0.992553	0.733325	0.333396
C204	C	1.325886	1.066659	0.666730
C205	C	0.659732	0.349580	0.000068
C206	C	0.993065	0.682914	0.333401
C207	C	1.326398	1.016247	0.666734
C208	C	0.615908	0.318281	0.000062
C209	C	0.949242	0.651614	0.333396
C210	C	1.282575	0.984948	0.666729
C211	C	0.571573	0.337394	0.000053
C212	C	0.904906	0.670727	0.333386
C213	C	1.238239	1.004060	0.666719
C214	C	0.482895	0.375615	0.000028
C215	C	0.816228	0.708949	0.333361
C216	C	1.149562	1.042282	0.666694
C217	C	0.483412	0.325198	0.000027
C218	C	0.816745	0.658532	0.333361
C219	C	1.150079	0.991865	0.666694
C220	C	0.527751	0.306086	0.000037
C221	C	0.861084	0.639419	0.333371
C222	C	1.194418	0.972753	0.666704
C223	C	0.528262	0.255683	0.000052
C224	C	0.861595	0.589016	0.333386
C225	C	1.194928	0.922349	0.666719
N226	N	0.572598	0.236568	0.000057
N227	N	0.905931	0.569901	0.333391
N228	N	1.239265	0.903234	0.666724
C229	C	0.616421	0.267867	0.000062
C230	C	0.949755	0.601200	0.333396
C231	C	1.283088	0.934533	0.666729
C232	C	0.523596	0.714450	0.000033
C233	C	0.856929	1.047783	0.333366
C234	C	1.190262	1.381116	0.666700
C235	C	0.523083	0.764864	0.000033
C236	C	0.856416	1.098197	0.333366
C237	C	1.189749	1.431531	0.666700
C238	C	0.611246	0.777049	0.000044
C239	C	0.944579	1.110382	0.333377
C240	C	1.277913	1.443715	0.666711
C241	C	0.611759	0.726633	0.000048
C242	C	0.945092	1.059967	0.333381
C243	C	1.278425	1.393300	0.666714
C244	C	0.567932	0.695335	0.000038
C245	C	0.901265	1.028668	0.333372
C246	C	1.234599	1.362001	0.666705
C247	C	0.617494	0.161998	0.000073
C248	C	0.950827	0.495331	0.333406
C249	C	1.284161	0.828664	0.666739
C250	C	0.618002	0.111581	0.000079
C251	C	0.951336	0.444914	0.333413
C252	C	1.284669	0.778248	0.666746
C253	C	0.529839	0.099401	0.000066
C254	C	0.863173	0.432734	0.333399
C255	C	1.196506	0.766067	0.666733
C256	C	0.529331	0.149813	0.000062
C257	C	0.862664	0.483146	0.333395
C258	C	1.195997	0.816480	0.666729
C259	C	0.573162	0.181111	0.000063
C260	C	0.906495	0.514444	0.333397
C261	C	1.239829	0.847778	0.666730
O262	O	0.491060	0.224391	0.000064
O263	O	0.824393	0.557725	0.333397
O264	O	1.157727	0.891058	0.666731
O265	O	0.654174	0.246971	0.000061
O266	O	0.987507	0.580305	0.333394
O267	O	1.320841	0.913638	0.666728
C268	C	0.614372	0.469517	0.000049
C269	C	0.947705	0.802850	0.333382
C270	C	1.281038	1.136183	0.666715
C271	C	0.570036	0.488629	0.000039
C272	C	0.903369	0.821963	0.333372
C273	C	1.236703	1.155296	0.666706
C274	C	0.526213	0.457330	0.000034
C275	C	0.859546	0.790663	0.333367
C276	C	1.192879	1.123997	0.666700
C277	C	0.569523	0.539044	0.000039
C278	C	0.902856	0.872377	0.333372
C279	C	1.236190	1.205710	0.666706
C280	C	0.613346	0.570343	0.000044
C281	C	0.946680	0.903676	0.333377
C282	C	1.280013	1.237009	0.666711
C283	C	0.657683	0.551228	0.000049
C284	C	0.991016	0.884561	0.333382
C285	C	1.324349	1.217894	0.666716
C286	C	0.658195	0.500816	0.000054
C287	C	0.991528	0.834149	0.333387
C288	C	1.324862	1.167482	0.666720
C289	C	0.481876	0.476445	0.000029
C290	C	0.815209	0.809778	0.333362
C291	C	1.148543	1.143112	0.666695
C292	C	0.481367	0.526858	0.000025
C293	C	0.814701	0.860191	0.333358
C294	C	1.148034	1.193524	0.666691
C295	C	0.525191	0.558157	0.000030
C296	C	0.858524	0.891490	0.333363
C297	C	1.191857	1.224823	0.666696
N298	N	0.570581	-0.061803	-0.120703
N299	N	0.903915	0.271530	0.212631
N300	N	1.237248	0.604863	0.545964
C301	C	0.541454	-0.032657	0.526798
C302	C	0.874787	0.300676	0.860131
C303	C	1.208120	0.634010	1.193464
C304	C	0.541432	-0.032645	0.313139
C305	C	0.874766	0.300688	0.646472
C306	C	1.208099	0.634022	0.979806
O307	O	0.516700	-0.007872	0.285530
O308	O	0.850033	0.325461	0.618863
O309	O	1.183367	0.658795	0.952196
N310	N	0.570526	-0.061754	0.286403
N311	N	0.903859	0.271579	0.619737
N312	N	1.237192	0.604912	0.953070
C313	C	0.599629	-0.090867	0.313086
C314	C	0.932962	0.242467	0.646419
C315	C	1.266296	0.575800	0.979752
O316	O	0.624378	-0.115622	0.285443
O317	O	0.957711	0.217711	0.618776
O318	O	1.291044	0.551045	0.952109
C319	C	0.599652	-0.090876	0.526743
C320	C	0.932986	0.242458	0.860077
C321	C	1.266319	0.575791	1.193410
C322	C	0.570554	-0.061768	0.553476
C323	C	0.903887	0.271565	0.886810
C324	C	1.237220	0.604899	1.220143
C325	C	0.512358	-0.003551	0.553531
C326	C	0.845691	0.329782	0.886864
C327	C	1.179024	0.663115	1.220197
C328	C	0.512361	-0.003557	0.606942
C329	C	0.845695	0.329777	0.940276
C330	C	1.179028	0.663110	1.273609
C331	C	0.541461	-0.032668	0.633621
C332	C	0.874794	0.300666	0.966954
C333	C	1.208128	0.633999	1.300287
C334	C	0.570557	-0.061773	0.606888
C335	C	0.903890	0.271560	0.940221
C336	C	1.237224	0.604893	1.273554
C337	C	0.628758	-0.119985	0.553424
C338	C	0.962091	0.213348	0.886758
C339	C	1.295424	0.546682	1.220091
C340	C	0.628762	-0.119984	0.606842
C341	C	0.962095	0.213350	0.940176
C342	C	1.295429	0.546683	1.273509
C343	C	0.599663	-0.090876	0.633575
C344	C	0.932996	0.242457	0.966909
C345	C	1.266330	0.575791	1.300242
C346	C	0.599661	-0.090890	0.686978
C347	C	0.932994	0.242444	1.020311
C348	C	1.266327	0.575777	1.353644
N349	N	0.570567	-0.061780	0.713713
N350	N	0.903901	0.271553	1.047047
N351	N	1.237234	0.604886	1.380380
C352	C	0.541468	-0.032669	0.687035
C353	C	0.874801	0.300664	1.020368
C354	C	1.208134	0.633997	1.353701
C355	C	0.599614	-0.090860	0.200912
C356	C	0.932947	0.242473	0.534246
C357	C	1.266280	0.575806	0.867579
C358	C	0.599607	-0.090859	0.147498
C359	C	0.932941	0.242474	0.480831
C360	C	1.266274	0.575808	0.814165
C361	C	0.541411	-0.032636	0.147555
C362	C	0.874745	0.300697	0.480889
C363	C	1.208078	0.634030	0.814222
C364	C	0.541416	-0.032641	0.200970
C365	C	0.874749	0.300692	0.534304
C366	C	1.208082	0.634026	0.867637
C367	C	0.570520	-0.061751	0.227648
C368	C	0.903854	0.271582	0.560981
C369	C	1.237187	0.604916	0.894315
C370	C	0.541477	-0.032683	0.799203
C371	C	0.874810	0.300650	1.132536
C372	C	1.208144	0.633984	1.465869
C373	C	0.541482	-0.032692	0.852619
C374	C	0.874815	0.300641	1.185952
C375	C	1.208148	0.633974	1.519286
C376	C	0.599679	-0.090913	0.852557
C377	C	0.933013	0.242421	1.185890
C378	C	1.266346	0.575754	1.519224
C379	C	0.599673	-0.090905	0.799145
C380	C	0.933006	0.242428	1.132479
C381	C	1.266339	0.575761	1.465812
C382	C	0.570570	-0.061787	0.772470
C383	C	0.903904	0.271547	1.105803
C384	C	1.237237	0.604880	1.439136
O385	O	0.624384	-0.115646	0.714620
O386	O	0.957717	0.217688	1.047953
O387	O	1.291051	0.551021	1.381287
O388	O	0.516730	-0.007909	0.714687
O389	O	0.850064	0.325424	1.048020
O390	O	1.183397	0.658757	1.381354
C391	C	0.541450	-0.032652	0.473386
C392	C	0.874784	0.300682	0.806720
C393	C	1.208117	0.634015	1.140053
C394	C	0.570546	-0.061757	0.446653
C395	C	0.903880	0.271576	0.779987
C396	C	1.237213	0.604909	1.113320
C397	C	0.599646	-0.090868	0.473332
C398	C	0.932979	0.242465	0.806665
C399	C	1.266313	0.575798	1.139998
C400	C	0.570540	-0.061756	0.393239
C401	C	0.903873	0.271577	0.726572
C402	C	1.237206	0.604911	1.059906
C403	C	0.541440	-0.032645	0.366561
C404	C	0.874773	0.300688	0.699894
C405	C	1.208107	0.634022	1.033227
C406	C	0.512347	-0.003535	0.393296
C407	C	0.845680	0.329798	0.726630
C408	C	1.179013	0.663131	1.059963
C409	C	0.512350	-0.003541	0.446708
C410	C	0.845684	0.329793	0.780041
C411	C	1.179017	0.663126	1.113375
C412	C	0.628739	-0.119978	0.446596
C413	C	0.962073	0.213355	0.779929
C414	C	1.295406	0.546689	1.113263
C415	C	0.628733	-0.119971	0.393184
C416	C	0.962066	0.213363	0.726518
C417	C	1.295400	0.546696	1.059851
C418	C	0.599633	-0.090860	0.366506
C419	C	0.932966	0.242474	0.699839
C420	C	1.266300	0.575807	1.033173
H421	H	-0.050828	-0.060493	0.130243
H422	H	0.282505	0.272840	0.463576
H423	H	0.615838	0.606173	0.796910
H424	H	0.040678	-0.061489	-0.130118
H425	H	0.374011	0.271844	0.203215
H426	H	0.707344	0.605178	0.536548
Br427	Br	0.718703	0.442461	0.000069
Br428	Br	1.052036	0.775795	0.333403
Br429	Br	1.385369	1.109128	0.666736
Br430	Br	0.437506	-0.065556	-0.108993
Br431	Br	0.770839	0.267777	0.224340
Br432	Br	1.104172	0.601110	0.557674
H433	H	0.517779	-0.008972	0.777490
H434	H	0.851112	0.324362	1.110823
H435	H	1.184446	0.657695	1.444156
H436	H	0.494160	0.073908	0.000064
H437	H	0.827493	0.407241	0.333397
H438	H	1.160826	0.740575	0.666730
H439	H	0.654110	0.096023	0.000089
H440	H	0.987444	0.429356	0.333422
H441	H	1.320777	0.762690	0.666756
Br442	Br	-0.064448	-0.060419	-0.155230
Br443	Br	0.268885	0.272914	0.178103
Br444	Br	0.602219	0.606247	0.511437
Br445	Br	0.671935	0.700701	0.000063
Br446	Br	1.005268	1.034034	0.333396
Br447	Br	1.338602	1.367368	0.666729
Br448	Br	0.676980	0.204466	0.000074
Br449	Br	1.010313	0.537799	0.333408
Br450	Br	1.343646	0.871132	0.666741
Br451	Br	0.421187	0.552788	0.000015
Br452	Br	0.754520	0.886122	0.333348
Br453	Br	1.087854	1.219455	0.666681
H454	H	0.695837	0.334024	0.000074
H455	H	1.029171	0.667358	0.333407
H456	H	1.362504	1.000691	0.666740
Br457	Br	0.670720	0.819536	0.000050
Br458	Br	1.004054	1.152869	0.333383
Br459	Br	1.337387	1.486202	0.666716
Br460	Br	0.462906	0.790795	0.000031
Br461	Br	0.796239	1.124129	0.333365
Br462	Br	1.129572	1.457462	0.666698
Br463	Br	-0.177555	-0.059256	-0.108976
Br464	Br	0.155778	0.274078	0.224358
Br465	Br	0.489112	0.607411	0.557691
H466	H	0.493226	0.165375	0.000068
H467	H	0.826559	0.498708	0.333401
H468	H	1.159893	0.832041	0.666734
H469	H	0.652454	-0.143687	0.531668
H470	H	0.985788	0.189647	0.865001
H471	H	1.319121	0.522980	1.198334
H472	H	0.488655	0.020162	0.468469
H473	H	0.821988	0.353495	0.801802
H474	H	1.155322	0.686828	1.135136
Br475	Br	0.472852	0.035969	0.357079
Br476	Br	0.806185	0.369303	0.690413
Br477	Br	1.139519	0.702636	1.023746
H478	H	0.040632	-0.061431	0.130246
H479	H	0.373966	0.271902	0.463579
H480	H	0.707299	0.605236	0.796912
H481	H	0.488661	0.020157	0.531815
H482	H	0.821994	0.353490	0.865148
H483	H	1.155328	0.686824	1.198481
Br484	Br	0.472869	0.035950	0.643214
Br485	Br	0.806203	0.369284	0.976548
Br486	Br	1.139536	0.702617	1.309881
H487	H	0.517721	-0.008939	0.222733
H488	H	0.851054	0.324394	0.556066
H489	H	1.184387	0.657728	0.889400
H490	H	0.694301	0.485260	0.000062
H491	H	1.027634	0.818593	0.333395
H492	H	1.360967	1.151926	0.666729
Br493	Br	0.717157	0.593715	0.000060
Br494	Br	1.050490	0.927048	0.333393
Br495	Br	1.383823	1.260382	0.666727
H496	H	0.487905	0.688970	0.000026
H497	H	0.821238	1.022303	0.333359
H498	H	1.154571	1.355637	0.666692
Br499	Br	0.423929	0.282724	0.000012
Br500	Br	0.757263	0.616057	0.333346
Br501	Br	1.090596	0.949390	0.666679
Br502	Br	0.639088	-0.130376	0.111224
Br503	Br	0.972421	0.202957	0.444558
Br504	Br	1.305755	0.536291	0.777891
H505	H	0.446789	0.391167	0.000016
H506	H	0.780123	0.724501	0.333349
H507	H	1.113456	1.057834	0.666683
Br508	Br	0.422395	0.433975	0.000019
Br509	Br	0.755728	0.767308	0.333352
Br510	Br	1.089062	1.100641	0.666686
Br511	Br	0.668220	-0.159486	0.356911
Br512	Br	1.001554	0.173848	0.690244
Br513	Br	1.334887	0.507181	1.023577
H514	H	0.100476	-0.062094	-0.130128
H515	H	0.433809	0.271240	0.203205
H516	H	0.767142	0.604573	0.536538
Br517	Br	0.205543	-0.063118	0.155354
Br518	Br	0.538876	0.270215	0.488688
Br519	Br	0.872210	0.603548	0.822021
Br520	Br	0.668236	-0.159490	0.482794
Br521	Br	1.001569	0.173843	0.816127
Br522	Br	1.334902	0.507176	1.149461
H523	H	0.517784	-0.008989	0.874382
H524	H	0.851117	0.324344	1.207716
H525	H	1.184450	0.657677	1.541049
H526	H	0.517716	-0.008934	0.125825
H527	H	0.851049	0.324399	0.459158
H528	H	1.184383	0.657732	0.792491
H529	H	0.623316	-0.114567	0.222628
H530	H	0.956649	0.218767	0.555962
H531	H	1.289982	0.552100	0.889295
Br532	Br	0.668266	-0.159490	0.643044
Br533	Br	1.001600	0.173843	0.976378
Br534	Br	1.334933	0.507177	1.309711
Br535	Br	0.205616	-0.063168	-0.155242
Br536	Br	0.538950	0.270166	0.178091
Br537	Br	0.872283	0.603499	0.511424
H538	H	0.623360	-0.114614	0.777378
H539	H	0.956694	0.218719	1.110712
H540	H	1.290027	0.552053	1.444045
H541	H	0.423779	-0.065378	0.083970
H542	H	0.757112	0.267956	0.417303
H543	H	1.090445	0.601289	0.750636
Br544	Br	0.318643	-0.064282	0.109094
Br545	Br	0.651977	0.269052	0.442427
Br546	Br	0.985310	0.602385	0.775761
H547	H	0.100420	-0.062044	0.130243
H548	H	0.433753	0.271290	0.463576
H549	H	0.767087	0.604623	0.796910
H550	H	-0.191269	-0.059080	0.083998
H551	H	0.142065	0.274254	0.417331
H552	H	0.475398	0.607587	0.750664
H553	H	0.623370	-0.114615	0.874288
H554	H	0.956704	0.218718	1.207622
H555	H	1.290037	0.552051	1.540955
H556	H	-0.282693	-0.058187	-0.083855
H557	H	0.050640	0.275147	0.249479
H558	H	0.383974	0.608480	0.582812
Br559	Br	-0.296424	-0.057994	0.109109
Br560	Br	0.036909	0.275340	0.442442
Br561	Br	0.370243	0.608673	0.775775
H562	H	0.332348	-0.064481	-0.083880
H563	H	0.665681	0.268853	0.249453
H564	H	0.999014	0.602186	0.582786
