data_functionalizedCrystal
_audit_creation_method	'MofGen! by Chris Wilmer'
_symmetry_space_group_name_H-M	'P1'
_symmetry_Int_Tables_number	1
_symmetry_cell_setting	triclinic
loop_
_symmetry_equiv_pos_as_xyz
  x,y,z
_cell_length_a	12.759401
_cell_length_b	12.759399
_cell_length_c	12.759393
_cell_angle_alpha	89.969730
_cell_angle_beta	89.980677
_cell_angle_gamma	90.014202
loop_
_atom_site_label
_atom_site_type_symbol
_atom_site_fract_x
_atom_site_fract_y
_atom_site_fract_z
Zn1	Zn	1.606258	-0.418248	-0.593985
Zn2	Zn	2.106258	0.081752	-0.093985
Zn3	Zn	1.606150	-0.593961	-0.418304
Zn4	Zn	2.106150	-0.093961	0.081696
Zn5	Zn	1.430559	-0.418294	-0.418324
Zn6	Zn	1.930559	0.081706	0.081676
Zn7	Zn	1.430548	-0.593882	-0.593945
Zn8	Zn	1.930548	-0.093882	-0.093945
O9	O	1.518379	-0.506096	-0.506140
O10	O	2.018379	-0.006096	-0.006140
O11	O	1.753265	-0.441570	-0.570689
O12	O	2.253265	0.058430	-0.070689
O13	O	1.582816	-0.570711	-0.271286
O14	O	2.082816	-0.070711	0.228714
O15	O	1.453916	-0.271267	-0.441651
O16	O	1.953916	0.228733	0.058349
O17	O	1.753185	-0.570666	-0.441617
O18	O	2.253185	-0.070666	0.058383
O19	O	1.583001	-0.271233	-0.570709
O20	O	2.083001	0.228767	-0.070709
O21	O	1.453810	-0.441649	-0.271300
O22	O	1.953810	0.058351	0.228700
O23	O	1.283536	-0.441573	-0.441612
O24	O	1.783536	0.058427	0.058388
O25	O	1.453897	-0.570532	-0.740971
O26	O	1.953897	-0.070532	-0.240971
O27	O	1.283528	-0.570577	-0.570640
O28	O	1.783528	-0.070577	-0.070640
O29	O	1.582991	-0.441494	-0.741001
O30	O	2.082991	0.058506	-0.241001
O31	O	1.582806	-0.740972	-0.441578
O32	O	2.082806	-0.240972	0.058422
O33	O	1.453792	-0.740914	-0.570620
O34	O	1.953792	-0.240914	-0.070620
C35	C	1.245411	-0.506072	-0.506124
C36	C	1.745411	-0.006072	-0.006124
C37	C	1.128635	-0.506087	-0.506142
C38	C	1.628635	-0.006087	-0.006142
C39	C	0.964078	-0.439012	-0.573461
C40	C	1.464078	0.060988	-0.073461
C41	C	1.073802	-0.438992	-0.573454
C42	C	1.573802	0.061008	-0.073454
C43	C	1.073738	-0.573214	-0.438841
C44	C	1.573738	-0.073214	0.061159
C45	C	0.964016	-0.573240	-0.438854
C46	C	1.464016	-0.073240	0.061146
C47	C	1.518314	-0.779064	-0.506116
C48	C	2.018314	-0.279064	-0.006116
C49	C	1.518383	-0.895840	-0.506141
C50	C	2.018383	-0.395840	-0.006141
C51	C	1.585637	-0.950698	-0.439024
C52	C	2.085637	-0.450698	0.060976
C53	C	1.585704	-1.060422	-0.439060
C54	C	2.085704	-0.560422	0.060940
C55	C	1.451254	-1.060422	-0.573330
C56	C	1.951254	-0.560422	-0.073330
C57	C	1.451193	-0.950699	-0.573299
C58	C	1.951193	-0.450699	-0.073299
C59	C	1.792412	-0.506122	-0.506156
C60	C	2.292412	-0.006122	-0.006156
C61	C	1.909188	-0.506133	-0.506162
C62	C	2.409188	-0.006133	-0.006162
C63	C	1.518455	-0.505999	-0.780173
C64	C	2.018455	-0.005999	-0.280173
C65	C	1.518487	-0.505957	-0.896950
C66	C	2.018487	-0.005957	-0.396950
C67	C	1.518472	-0.232063	-0.506186
C68	C	2.018472	0.267937	-0.006186
C69	C	1.518512	-0.115286	-0.506207
C70	C	2.018512	0.384714	-0.006207
C71	C	1.585688	-0.573081	-1.061540
C72	C	2.085688	-0.073081	-0.561540
C73	C	1.585663	-0.573131	-0.951816
C74	C	2.085663	-0.073131	-0.451816
C75	C	1.451325	-0.438736	-0.951814
C76	C	1.951325	0.061264	-0.451814
C77	C	1.451346	-0.438693	-1.061536
C78	C	1.951346	0.061307	-0.561536
C79	C	1.518363	-0.506118	-0.233172
C80	C	2.018363	-0.006118	0.266828
C81	C	1.518534	-0.505864	-0.116396
C82	C	2.018534	-0.005864	0.383604
H83	H	0.919441	-0.384369	-0.628268
H84	H	1.419441	0.115631	-0.128268
Br85	Br	1.360181	-0.347482	-1.135991
Br86	Br	1.860181	0.152518	-0.635991
Br87	Br	0.889516	-0.664341	-0.347515
Br88	Br	1.389516	-0.164341	0.152485
H89	H	1.118488	-0.384337	-0.628257
H90	H	1.618488	0.115663	-0.128257
H91	H	1.640348	-0.906034	-0.384341
H92	H	2.140348	-0.406034	0.115659
Br93	Br	1.676801	-0.664363	-0.877371
Br94	Br	2.176801	-0.164363	-0.377371
H95	H	1.396625	-0.384047	-0.907133
H96	H	1.896625	0.115953	-0.407133
H97	H	1.640471	-1.105082	-0.384409
H98	H	2.140471	-0.605082	0.115591
H99	H	1.396549	-1.105101	-0.628007
H100	H	1.896549	-0.605101	-0.128007
H101	H	1.396426	-0.906032	-0.627958
H102	H	1.896426	-0.406032	-0.127958
H103	H	1.640396	-0.627778	-1.106204
H104	H	2.140396	-0.127778	-0.606204
H105	H	1.118391	-0.627849	-0.384038
H106	H	1.618391	-0.127849	0.115962
