data_functionalizedCrystal
_audit_creation_method	'MofGen! by Chris Wilmer'
_symmetry_space_group_name_H-M	'P1'
_symmetry_Int_Tables_number	1
_symmetry_cell_setting	triclinic
loop_
_symmetry_equiv_pos_as_xyz
  x,y,z
_cell_length_a	17.699083
_cell_length_b	17.699091
_cell_length_c	16.776229
_cell_angle_alpha	89.993740
_cell_angle_beta	90.005254
_cell_angle_gamma	83.284545
loop_
_atom_site_label
_atom_site_type_symbol
_atom_site_fract_x
_atom_site_fract_y
_atom_site_fract_z
O1	O	-1.004074	-0.095714	0.066167
O2	O	-0.783696	-0.108167	0.066194
O3	O	-0.900109	0.008248	0.066177
O4	O	-0.887662	-0.212129	0.066184
O5	O	-0.900107	0.008259	-0.066400
O6	O	-0.783694	-0.108156	-0.066382
O7	O	-1.004072	-0.095704	-0.066410
Zn8	Zn	-0.893883	-0.101928	-0.087446
Zn9	Zn	-0.893886	-0.101942	0.087230
O10	O	-0.887660	-0.212119	-0.066392
C11	C	-0.755498	-0.107715	-0.000091
C12	C	-0.671480	-0.106377	-0.000080
C13	C	-0.899661	0.036450	-0.000111
C14	C	-0.898320	0.120468	-0.000108
C15	C	-0.622861	-0.174710	-0.000078
C16	C	-0.543918	-0.173448	-0.000087
C17	C	-0.513595	-0.103851	-0.000094
C18	C	-0.562220	-0.035513	-0.000099
C19	C	-0.641162	-0.036776	-0.000095
C20	C	-0.243857	-0.030418	-0.000116
C21	C	-0.164909	-0.029160	-0.000118
C22	C	-0.146613	-0.167089	-0.000109
C23	C	-0.225555	-0.168352	-0.000105
C24	C	-0.274173	-0.100014	-0.000114
C25	C	-0.359772	-0.101384	-0.000105
C26	C	-0.427997	-0.102481	-0.000097
C27	C	-0.032270	-0.096155	-0.000122
C28	C	-0.116289	-0.097494	-0.000121
C29	C	-0.897693	0.159930	0.072160
C30	C	-0.896428	0.238873	0.072161
C31	C	-0.895796	0.278353	-0.000108
C32	C	-0.896421	0.238886	-0.072382
C33	C	-0.897680	0.159944	-0.072381
C34	C	-0.891341	0.557251	-0.072385
C35	C	-0.890084	0.636199	-0.072380
C36	C	-0.890089	0.636180	0.072156
C37	C	-0.891348	0.557238	0.072157
C38	C	-0.891969	0.517777	-0.000116
C39	C	-0.893339	0.432178	-0.000116
C40	C	-0.894431	0.363952	-0.000109
C41	C	-0.888109	0.759679	-0.000106
C42	C	-0.889451	0.675662	-0.000111
N43	N	-0.893888	-0.101946	0.206441
N44	N	-0.893887	-0.101919	-0.206657
C45	C	-0.945531	-0.050498	0.248150
C46	C	-0.945534	-0.050497	0.331602
C47	C	-0.893890	-0.101939	0.373344
C48	C	-0.842244	-0.153392	0.331629
C49	C	-0.842246	-0.153397	0.248178
C50	C	-0.842238	-0.153374	0.668176
C51	C	-0.842240	-0.153363	0.751632
C52	C	-0.945527	-0.050473	0.751600
C53	C	-0.945528	-0.050478	0.668150
C54	C	-0.893886	-0.101933	0.626442
C55	C	-0.893884	-0.101936	0.535953
C56	C	-0.893887	-0.101933	0.463831
H57	H	-0.504335	-0.229091	-0.000084
H58	H	-0.107018	-0.222733	-0.000106
O59	O	-0.135363	0.038403	-0.000235
C60	C	-0.056892	0.119891	-0.068954
C61	C	-0.090289	0.043349	-0.068913
H62	H	-0.020456	0.123922	-0.124483
H63	H	-0.020337	0.123940	-0.013509
H64	H	-0.105213	0.168505	-0.068923
H65	H	-0.042017	-0.005309	-0.068972
H66	H	-0.126865	0.039366	-0.124353
O67	O	-0.254883	-0.236024	-0.000134
C68	C	-0.228401	-0.372703	-0.000085
C69	C	-0.195087	-0.296118	-0.000066
H70	H	-0.180073	-0.421309	-0.000013
H71	H	-0.264882	-0.376788	-0.055580
H72	H	-0.264922	-0.376706	0.055386
H73	H	-0.158533	-0.292063	-0.055500
H74	H	-0.158650	-0.292066	0.055465
H75	H	-0.283433	0.025227	-0.000124
O76	O	-0.895706	0.277306	-0.142532
C77	C	-0.828726	0.357718	-0.226433
C78	C	-0.829443	0.314257	-0.146950
H79	H	-0.775150	0.387590	-0.230037
H80	H	-0.881049	0.401743	-0.230061
H81	H	-0.829428	0.315943	-0.278073
H82	H	-0.828715	0.355974	-0.095264
H83	H	-0.777125	0.270221	-0.143391
H84	H	-0.987579	-0.008578	0.785568
H85	H	-0.987579	-0.008587	0.634166
H86	H	-0.680748	0.018868	-0.000096
O87	O	-0.889328	0.674496	-0.142609
C88	C	-0.823402	0.689935	-0.266150
C89	C	-0.824156	0.646520	-0.186643
H90	H	-0.770725	0.667323	-0.301782
H91	H	-0.822349	0.753139	-0.253785
H92	H	-0.876615	0.681451	-0.301771
H93	H	-0.770954	0.654942	-0.150983
H94	H	-0.825249	0.583332	-0.199065
O95	O	-0.791967	-0.203279	0.627707
C96	C	-0.660233	-0.247594	0.602243
C97	C	-0.717084	-0.191019	0.648111
H98	H	-0.599677	-0.237713	0.618735
H99	H	-0.669033	-0.238774	0.535417
H100	H	-0.669907	-0.308225	0.618661
H101	H	-0.707444	-0.130366	0.631760
H102	H	-0.708270	-0.199906	0.714925
O103	O	-0.891926	0.519000	0.142430
C104	C	-0.891837	0.527320	0.285796
C105	C	-0.891168	0.570715	0.206269
H106	H	-0.891240	0.569115	0.337430
H107	H	-0.839467	0.483358	0.289469
H108	H	-0.945361	0.497361	0.289360
H109	H	-0.837679	0.600720	0.202652
H110	H	-0.943574	0.614635	0.202630
H111	H	-0.898212	0.127791	0.131010
H112	H	-0.800183	-0.195257	0.785617
O113	O	-0.792180	-0.203394	0.372262
C114	C	-0.775680	-0.306795	0.466468
C115	C	-0.832464	-0.250200	0.420516
H116	H	-0.808228	-0.344663	0.505479
H117	H	-0.738013	-0.274123	0.505586
H118	H	-0.738755	-0.343534	0.422305
H119	H	-0.869440	-0.213447	0.464621
H120	H	-0.870079	-0.282919	0.381386
H121	H	-0.537526	0.021154	-0.000115
H122	H	-0.800194	-0.195291	0.214219
O123	O	-0.898313	0.121728	-0.142654
C124	C	-0.898103	0.130063	-0.286020
C125	C	-0.897414	0.173438	-0.206492
H126	H	-0.897361	0.171850	-0.337654
H127	H	-0.951646	0.100142	-0.289706
H128	H	-0.845753	0.086069	-0.289570
H129	H	-0.949728	0.217469	-0.202888
H130	H	-0.843837	0.203307	-0.202839
H131	H	-0.895921	0.271000	0.131009
O132	O	-0.652187	-0.242383	-0.000106
C133	C	-0.625698	-0.379062	-0.000053
C134	C	-0.592388	-0.302474	-0.000037
H135	H	-0.577367	-0.427665	0.000019
H136	H	-0.662179	-0.383150	-0.055547
H137	H	-0.662216	-0.383065	0.055419
H138	H	-0.555835	-0.298418	-0.055472
H139	H	-0.555950	-0.298418	0.055493
O140	O	-0.995768	-0.000494	0.207730
C141	C	-1.098183	0.101598	0.216516
C142	C	-1.041341	0.044996	0.262388
H143	H	-1.135033	0.138402	0.260687
H144	H	-1.135916	0.068932	0.177468
H145	H	-1.065639	0.139401	0.177423
H146	H	-1.073823	0.007179	0.301524
H147	H	-1.003610	0.077710	0.301385
O148	O	-0.995466	-0.000236	0.372056
C149	C	-1.011492	0.103599	0.465734
C150	C	-0.954942	0.046544	0.420083
H151	H	-0.978751	0.141447	0.504562
H152	H	-1.049372	0.071314	0.505007
H153	H	-1.048225	0.140312	0.421377
H154	H	-0.918158	0.009817	0.464383
H155	H	-0.917115	0.078876	0.380798
H156	H	-0.891862	0.525133	-0.131235
H157	H	-0.889580	0.668319	0.131005
