data_functionalizedCrystal
_audit_creation_method	'MofGen! by Chris Wilmer'
_symmetry_space_group_name_H-M	'P1'
_symmetry_Int_Tables_number	1
_symmetry_cell_setting	triclinic
loop_
_symmetry_equiv_pos_as_xyz
  x,y,z
_cell_length_a	42.774386
_cell_length_b	42.790065
_cell_length_c	42.784893
_cell_angle_alpha	89.994872
_cell_angle_beta	120.002899
_cell_angle_gamma	60.012083
loop_
_atom_site_label
_atom_site_type_symbol
_atom_site_fract_x
_atom_site_fract_y
_atom_site_fract_z
O1	O	0.223833	0.266329	0.009303
O2	O	0.159802	0.220890	-0.009251
O3	O	0.223821	0.220888	0.054753
O4	O	0.159814	0.266332	-0.054701
O5	O	0.275805	0.168916	0.054753
O6	O	0.211786	0.168919	-0.009251
O7	O	0.275817	0.214358	0.009303
Cu8	Cu	0.248548	0.186893	0.000026
Cu9	Cu	0.187071	0.248355	0.000026
O10	O	0.211798	0.214360	-0.054701
C11	C	0.384342	0.356123	0.028195
C12	C	0.365715	0.393729	0.028461
C13	C	0.440957	0.356122	0.028198
C14	C	0.422244	0.393728	0.028464
C15	C	0.384359	0.412707	0.028198
C16	C	0.422228	0.337230	0.028460
C17	C	0.339495	0.264470	0.017940
C18	C	0.318773	0.246535	0.015040
C19	C	0.280038	0.265870	0.013585
C20	C	0.257562	0.246429	0.010434
C21	C	0.262029	0.303141	0.015032
C22	C	0.282755	0.321071	0.017937
C23	C	0.321490	0.301733	0.019391
C24	C	0.282443	0.549160	0.017954
C25	C	0.261611	0.587802	0.015058
C26	C	0.279503	0.607187	0.013604
C27	C	0.256916	0.649086	0.010459
C28	C	0.318235	0.587926	0.015051
C29	C	0.339071	0.549284	0.017954
C30	C	0.321168	0.529903	0.019403
C31	C	0.567207	0.264465	0.017953
C32	C	0.602963	0.246531	0.015052
C33	C	0.620909	0.265865	0.013600
C34	C	0.659676	0.246422	0.010452
C35	C	0.603095	0.303134	0.015045
C36	C	0.567338	0.321067	0.017945
C37	C	0.549399	0.301727	0.019402
C38	C	0.343959	0.321180	0.022537
C39	C	0.361870	0.336680	0.025046
C40	C	0.479725	0.336677	0.025053
C41	C	0.510628	0.321177	0.022546
C42	C	0.361768	0.454605	0.025053
C43	C	0.343761	0.488003	0.022547
C44	C	-0.005316	0.079114	-0.028112
C45	C	0.013399	0.041507	-0.028376
C46	C	0.051295	0.079115	-0.028115
C47	C	0.069923	0.041508	-0.028378
C48	C	0.051283	0.022529	-0.028112
C49	C	0.013410	0.098007	-0.028379
C50	C	-0.131563	0.170770	-0.017864
C51	C	-0.167321	0.188706	-0.014966
C52	C	-0.185264	0.169370	-0.013509
C53	C	-0.224030	0.188812	-0.010360
C54	C	-0.167448	0.132099	-0.014954
C55	C	-0.131697	0.114168	-0.017857
C56	C	-0.113754	0.133505	-0.019312
C57	C	0.096073	-0.113926	-0.017859
C58	C	0.116781	-0.152569	-0.014961
C59	C	0.155515	-0.171955	-0.013506
C60	C	0.177975	-0.213854	-0.010358
C61	C	0.173537	-0.152693	-0.014954
C62	C	0.152825	-0.114051	-0.017859
C63	C	0.114092	-0.094670	-0.019309
C64	C	0.096132	0.170774	-0.017875
C65	C	0.116855	0.188709	-0.014975
C66	C	0.155589	0.169374	-0.013522
C67	C	0.178062	0.188817	-0.010375
C68	C	0.173599	0.132104	-0.014965
C69	C	0.152876	0.114171	-0.017864
C70	C	0.114139	0.133511	-0.019322
C71	C	-0.074984	0.114058	-0.022456
C72	C	-0.044082	0.098558	-0.024964
C73	C	0.073764	0.098560	-0.024971
C74	C	0.091673	0.114061	-0.022465
C75	C	0.073739	-0.019370	-0.024964
C76	C	0.091638	-0.052769	-0.022456
C77	C	0.051111	0.356130	-0.361561
C78	C	0.013231	0.393737	-0.380459
C79	C	0.051111	0.356131	-0.304963
C80	C	0.013230	0.393738	-0.323946
C81	C	-0.005488	0.412716	-0.361562
C82	C	0.069744	0.337238	-0.323945
C83	C	0.153041	0.264472	-0.396119
C84	C	0.173880	0.246536	-0.413933
C85	C	0.155995	0.265871	-0.451208
C86	C	0.178592	0.246428	-0.470523
C87	C	0.117268	0.303143	-0.470670
C88	C	0.096429	0.321074	-0.452858
C89	C	0.114318	0.301737	-0.415581
C90	C	-0.131726	0.549170	-0.453243
C91	C	-0.167480	0.587813	-0.471184
C92	C	-0.185415	0.607199	-0.451846
C93	C	-0.224177	0.649099	-0.471292
C94	C	-0.167596	0.587939	-0.414566
C95	C	-0.131849	0.549296	-0.396628
C96	C	-0.113914	0.529914	-0.415971
C97	C	0.153040	0.264474	-0.168474
C98	C	0.173881	0.246540	-0.129820
C99	C	0.155995	0.265876	-0.110431
C100	C	0.178592	0.246433	-0.068519
C101	C	0.117272	0.303145	-0.129695
C102	C	0.096434	0.321078	-0.168348
C103	C	0.114319	0.301737	-0.187735
C104	C	0.091721	0.321185	-0.396268
C105	C	0.073708	0.336686	-0.380874
C106	C	0.073707	0.336687	-0.263053
C107	C	0.091719	0.321186	-0.229646
C108	C	-0.044250	0.454615	-0.381012
C109	C	-0.075148	0.488013	-0.396516
O110	O	0.763272	0.168913	-0.009231
O111	O	0.672363	0.214350	0.009325
O112	O	0.672353	0.214356	-0.054679
O113	O	0.763282	0.168906	0.054774
O114	O	0.672368	0.266326	-0.054676
O115	O	0.672379	0.266320	0.009329
O116	O	0.763287	0.220883	-0.009227
Cu117	Cu	0.717834	0.248347	0.000051
Cu118	Cu	0.717816	0.186886	0.000047
O119	O	0.763298	0.220877	0.054778
O120	O	0.211703	0.772330	-0.009230
O121	O	0.275698	0.662903	0.009326
O122	O	0.211691	0.726883	-0.054678
O123	O	0.275710	0.708350	0.054775
O124	O	0.159697	0.726882	-0.054673
O125	O	0.223704	0.662902	0.009331
O126	O	0.159710	0.772329	-0.009224
Cu127	Cu	0.186959	0.717615	0.000054
Cu128	Cu	0.248448	0.717616	0.000048
O129	O	0.223717	0.708349	0.054780
O130	O	-0.327768	0.772341	-0.496842
O131	O	-0.236867	0.662916	-0.451388
O132	O	-0.236849	0.726898	-0.451385
O133	O	-0.327786	0.708359	-0.496845
O134	O	-0.236848	0.726897	-0.503369
O135	O	-0.236866	0.662915	-0.503371
O136	O	-0.327767	0.772340	-0.548826
Cu137	Cu	-0.282316	0.717627	-0.530845
Cu138	Cu	-0.282318	0.717629	-0.469369
O139	O	-0.327785	0.708358	-0.548828
O140	O	0.223822	0.220887	-0.548569
O141	O	0.159817	0.266329	-0.503117
O142	O	0.223835	0.266327	-0.503113
O143	O	0.159804	0.220888	-0.548573
O144	O	0.275820	0.214355	-0.451129
O145	O	0.211802	0.214357	-0.451133
O146	O	0.275807	0.168915	-0.496584
Cu147	Cu	0.248551	0.186890	-0.469112
Cu148	Cu	0.187073	0.248353	-0.530590
O149	O	0.211789	0.168916	-0.496588
C150	C	0.440865	0.022774	0.361614
C151	C	0.422146	0.041753	0.380511
C152	C	0.384266	0.079360	0.305015
C153	C	0.365633	0.098252	0.323997
C154	C	0.384266	0.079360	0.361613
C155	C	0.422146	0.041753	0.323998
C156	C	0.567103	-0.113680	0.396176
C157	C	0.602857	-0.152322	0.413991
C158	C	0.620792	-0.171707	0.451266
C159	C	0.659554	-0.213608	0.470582
C160	C	0.602973	-0.152447	0.470727
C161	C	0.567226	-0.113806	0.452914
C162	C	0.549291	-0.094422	0.415637
C163	C	0.339455	0.113913	0.453291
C164	C	0.318742	0.131723	0.471231
C165	C	0.280012	0.168988	0.451892
C166	C	0.257548	0.188300	0.471337
C167	C	0.261998	0.188444	0.414612
C168	C	0.282714	0.170637	0.396675
C169	C	0.321444	0.133367	0.416019
C170	C	0.339454	0.113913	0.168527
C171	C	0.318738	0.131722	0.129873
C172	C	0.280008	0.168989	0.110483
C173	C	0.257543	0.188299	0.068571
C174	C	0.261994	0.188443	0.129746
C175	C	0.282710	0.170632	0.168399
C176	C	0.321443	0.133368	0.187787
C177	C	0.510525	-0.052523	0.396323
C178	C	0.479627	-0.019125	0.380928
C179	C	0.361804	0.098669	0.263105
C180	C	0.343901	0.114060	0.229699
C181	C	0.361805	0.098668	0.381062
C182	C	0.343902	0.114060	0.396565
C183	C	0.384293	0.412500	-0.361525
C184	C	0.365645	0.393525	-0.380423
C185	C	0.440900	0.355910	-0.304930
C186	C	0.422166	0.337021	-0.323914
C187	C	0.384275	0.355918	-0.361528
C188	C	0.422185	0.393518	-0.323911
C189	C	0.339512	0.548953	-0.396076
C190	C	0.318804	0.587596	-0.413888
C191	C	0.280062	0.606985	-0.451161
C192	C	0.257603	0.648886	-0.470473
C193	C	0.262033	0.587727	-0.470623
C194	C	0.282744	0.549086	-0.452813
C195	C	0.321485	0.529699	-0.415538
C196	C	0.282293	0.321378	-0.453206
C197	C	0.261441	0.303571	-0.471147
C198	C	0.279320	0.266306	-0.451811
C199	C	0.256711	0.246997	-0.471257
C200	C	0.318058	0.246846	-0.414532
C201	C	0.338913	0.264650	-0.396595
C202	C	0.321024	0.301920	-0.415936
C203	C	0.567192	0.321341	-0.168445
C204	C	0.602955	0.303528	-0.129793
C205	C	0.620887	0.266261	-0.110405
C206	C	0.659663	0.246945	-0.068495
C207	C	0.603053	0.246810	-0.129670
C208	C	0.567289	0.264624	-0.168321
C209	C	0.549364	0.301890	-0.187707
C210	C	0.343938	0.487799	-0.396228
C211	C	0.361837	0.454400	-0.380835
C212	C	0.479676	0.336597	-0.263022
C213	C	0.510585	0.321202	-0.229617
C214	C	0.361663	0.336612	-0.380978
C215	C	0.343639	0.321224	-0.396482
C216	C	1.051373	0.079072	0.361627
C217	C	1.070005	0.041464	0.380521
C218	C	0.994750	0.079078	0.305029
C219	C	1.013467	0.041470	0.324009
C220	C	1.051359	0.022488	0.361623
C221	C	1.013482	0.097968	0.324013
C222	C	1.096221	0.170725	0.396194
C223	C	1.116946	0.188659	0.414010
C224	C	1.155687	0.169320	0.451283
C225	C	1.178164	0.188761	0.470599
C226	C	1.173700	0.132047	0.470741
C227	C	1.152973	0.114118	0.452927
C228	C	1.114231	0.133459	0.415652
C229	C	1.153291	-0.113974	0.453289
C230	C	1.174126	-0.152618	0.471225
C231	C	1.156231	-0.172002	0.451885
C232	C	1.178821	-0.213903	0.471327
C233	C	1.117493	-0.152737	0.414607
C234	C	1.096654	-0.114093	0.396674
C235	C	1.114560	-0.094714	0.416019
C236	C	0.868475	0.170750	0.168547
C237	C	0.832711	0.188688	0.129895
C238	C	0.814763	0.169355	0.110504
C239	C	0.775987	0.188803	0.068594
C240	C	0.832581	0.132084	0.129765
C241	C	0.868344	0.114147	0.168416
C242	C	0.886286	0.133485	0.187805
C243	C	1.091761	0.114013	0.396337
C244	C	1.073848	0.098514	0.380942
C245	C	0.955974	0.098527	0.263120
C246	C	0.925065	0.114031	0.229715
C247	C	1.073953	-0.019413	0.381068
C248	C	1.091962	-0.052812	0.396569
C249	C	-0.005408	0.745729	-0.361533
C250	C	0.013313	0.745992	-0.380432
C251	C	0.051206	0.745734	-0.304936
C252	C	0.069841	0.745997	-0.323921
C253	C	0.051202	0.745730	-0.361537
C254	C	0.013317	0.745996	-0.323917
C255	C	-0.131678	0.735479	-0.396085
C256	C	-0.167441	0.732581	-0.413897
C257	C	-0.185383	0.731124	-0.451172
C258	C	-0.224156	0.727974	-0.470484
C259	C	-0.167562	0.732568	-0.470634
C260	C	-0.131805	0.735472	-0.452824
C261	C	-0.113863	0.736927	-0.415547
C262	C	0.096010	0.735479	-0.453221
C263	C	0.116724	0.732581	-0.471163
C264	C	0.155462	0.731127	-0.451827
C265	C	0.177928	0.727980	-0.471275
C266	C	0.173483	0.732576	-0.414547
C267	C	0.152766	0.735481	-0.396608
C268	C	0.114028	0.736929	-0.415950
C269	C	0.096031	0.735501	-0.168446
C270	C	0.116753	0.732602	-0.129793
C271	C	0.155491	0.731151	-0.110405
C272	C	0.177962	0.728006	-0.068494
C273	C	0.173508	0.732593	-0.129671
C274	C	0.152787	0.735490	-0.168323
C275	C	0.114045	0.736947	-0.187709
C276	C	-0.075087	0.740072	-0.396236
C277	C	-0.044180	0.742580	-0.380844
C278	C	0.073673	0.742592	-0.263027
C279	C	0.091581	0.740088	-0.229620
C280	C	0.073664	0.742582	-0.380988
C281	C	0.091568	0.740075	-0.396494
O282	O	0.159877	0.772132	-0.548510
O283	O	0.223867	0.662706	-0.503066
O284	O	0.159878	0.726686	-0.503052
O285	O	0.223866	0.708152	-0.548524
O286	O	0.211886	0.726681	-0.451069
O287	O	0.275875	0.662700	-0.451083
O288	O	0.211885	0.772127	-0.496527
Cu289	Cu	0.248629	0.717413	-0.469059
Cu290	Cu	0.187123	0.717420	-0.530535
O291	O	0.275874	0.708147	-0.496541
C292	C	0.384453	0.689502	0.361639
C293	C	0.422342	0.689240	0.380534
C294	C	0.384448	0.689497	0.305038
C295	C	0.422337	0.689235	0.324019
C296	C	0.441063	0.689503	0.361634
C297	C	0.365814	0.689234	0.324023
C298	C	0.282513	0.699747	0.396209
C299	C	0.261673	0.702645	0.414026
C300	C	0.279566	0.704102	0.451301
C301	C	0.256968	0.707251	0.470618
C302	C	0.318301	0.702659	0.470759
C303	C	0.339140	0.699756	0.452944
C304	C	0.321244	0.698300	0.415667
C305	C	0.567337	0.699757	0.453305
C306	C	0.603100	0.702655	0.471242
C307	C	0.621038	0.704110	0.451901
C308	C	0.659810	0.707258	0.471344
C309	C	0.603211	0.702661	0.414621
C310	C	0.567454	0.699756	0.396687
C311	C	0.549517	0.698306	0.416033
C312	C	0.282493	0.699730	0.168553
C313	C	0.261645	0.702628	0.129899
C314	C	0.279533	0.704081	0.110507
C315	C	0.256930	0.707225	0.068596
C316	C	0.318265	0.702639	0.129769
C317	C	0.339109	0.699742	0.168421
C318	C	0.321221	0.698285	0.187811
C319	C	0.343842	0.695157	0.396352
C320	C	0.361855	0.692649	0.380955
C321	C	0.361845	0.692640	0.263129
C322	C	0.343828	0.695144	0.229722
C323	C	0.479835	0.692651	0.381080
C324	C	0.510742	0.695159	0.396582
H325	H	0.268090	0.351415	0.019116
O326	O	0.440995	0.688799	0.305825
C327	C	0.441205	0.721584	0.303933
H328	H	0.414400	0.744920	0.306402
H329	H	0.434548	0.732304	0.275442
H330	H	0.474835	0.714038	0.328424
H331	H	0.552505	-0.097901	0.365825
H332	H	0.229901	0.319418	-0.501497
H333	H	0.230137	0.703820	0.398181
O334	O	0.376768	0.698285	0.187186
C335	C	0.411319	0.663726	0.218249
H336	H	0.396795	0.652327	0.227000
H337	H	0.433280	0.669085	0.243442
H338	H	0.431821	0.641820	0.209424
H339	H	0.617820	0.703840	0.398875
O340	O	0.170295	0.077989	-0.019323
C341	C	0.139203	0.078009	-0.053892
H342	H	0.104531	0.103924	-0.065294
H343	H	0.141317	0.050703	-0.048532
H344	H	0.146621	0.079416	-0.075803
O345	O	0.099956	0.321933	-0.506851
C346	C	0.131129	0.325330	-0.506764
H347	H	0.155455	0.323119	-0.476848
H348	H	0.113317	0.354214	-0.527996
H349	H	0.149822	0.301404	-0.515376
H350	H	0.332619	0.216501	-0.398790
H351	H	0.332807	0.603709	0.013872
H352	H	0.437918	0.408964	0.028888
O353	O	0.550180	0.698370	0.360469
C354	C	0.573685	0.700264	0.347245
H355	H	0.590324	0.714350	0.363909
H356	H	0.549838	0.717860	0.315487
H357	H	0.599897	0.670117	0.351646
H358	H	0.064897	0.351418	-0.468706
H359	H	0.205140	0.116361	-0.013781
O360	O	0.336259	0.112864	0.507462
C361	C	0.346774	0.133553	0.531625
H362	H	0.351472	0.152722	0.518615
H363	H	0.378611	0.112725	0.560926
H364	H	0.318743	0.151941	0.534874
O365	O	0.106300	0.023269	-0.028872
C366	C	0.118787	-0.014058	-0.029061
H367	H	0.105395	-0.023408	-0.016707
H368	H	0.156384	-0.034573	-0.010931
H369	H	0.104682	-0.014376	-0.059698
H370	H	0.617361	-0.168002	0.398144
H371	H	-0.002439	0.408970	-0.411368
H372	H	0.437855	0.408757	-0.308668
O373	O	0.336339	0.606301	-0.395023
C374	C	0.346845	0.619952	-0.415723
H375	H	0.351520	0.602258	-0.434903
H376	H	0.378693	0.617412	-0.394893
H377	H	0.318819	0.651225	-0.434109
O378	O	0.329396	0.688792	0.305802
C379	C	0.294508	0.721571	0.272801
H380	H	0.300437	0.744913	0.276260
H381	H	0.261943	0.732286	0.268727
H382	H	0.292931	0.714019	0.246731
H383	H	0.205052	0.731411	-0.113884
O384	O	0.440969	0.688757	0.417397
C385	C	0.416310	0.688580	0.430084
H386	H	0.381209	0.700925	0.404343
H387	H	0.415253	0.706717	0.449536
H388	H	0.432526	0.657956	0.446633
O389	O	0.058809	0.357274	-0.187009
C390	C	0.047496	0.370498	-0.161607
H391	H	0.063042	0.345001	-0.137257
H392	H	0.010014	0.388698	-0.177617
H393	H	0.060283	0.388488	-0.149405
O394	O	-0.005416	0.411855	-0.305717
C395	C	0.019251	0.387033	-0.268370
H396	H	0.038425	0.356116	-0.267196
H397	H	-0.004112	0.391558	-0.260403
H398	H	0.043386	0.393355	-0.247312
H399	H	0.230075	0.603481	0.013878
H400	H	0.102106	-0.168248	-0.013781
H401	H	0.332831	0.703819	0.113978
H402	H	0.437815	0.026515	0.411418
H403	H	0.267865	0.533381	0.019136
H404	H	0.437806	0.026511	0.308755
O405	O	0.620406	0.210612	-0.110893
C406	C	0.597003	0.197262	-0.136188
H407	H	0.562660	0.222692	-0.160569
H408	H	0.593821	0.179053	-0.120092
H409	H	0.615605	0.179247	-0.148358
H410	H	0.552598	0.351685	-0.184227
O411	O	1.058595	0.189454	0.359984
C412	C	1.044157	0.165640	0.348434
H413	H	1.073316	0.134450	0.365956
H414	H	1.029813	0.170131	0.316769
H415	H	1.017668	0.173081	0.353238
O416	O	-0.005295	0.746439	-0.417284
C417	C	0.025615	0.713643	-0.419359
H418	H	0.060508	0.702362	-0.393947
H419	H	0.021794	0.721399	-0.447124
H420	H	0.019537	0.690650	-0.418682
H421	H	1.100493	0.026227	0.411428
O422	O	0.335740	0.704006	0.506990
C423	C	0.378859	0.670426	0.531982
H424	H	0.382559	0.646643	0.518939
H425	H	0.384977	0.661302	0.560624
H426	H	0.403906	0.676180	0.536594
H427	H	0.102188	0.219054	-0.013799
O428	O	0.170237	0.736883	-0.187091
C429	C	0.143636	0.739761	-0.225366
H430	H	0.124023	0.728139	-0.227510
H431	H	0.165542	0.722430	-0.235133
H432	H	0.119832	0.771040	-0.244404
H433	H	0.230492	0.318880	0.013849
O434	O	0.106224	0.746490	-0.305794
C435	C	0.118718	0.746678	-0.330638
H436	H	0.105320	0.734327	-0.353379
H437	H	0.156314	0.728551	-0.313568
H438	H	0.104622	0.777306	-0.345057
H439	H	0.064487	0.736685	-0.184228
H440	H	0.335229	0.408965	0.028884
H441	H	0.552599	0.248717	0.019135
O442	O	0.885714	0.077921	0.187125
C443	C	0.930571	0.053771	0.200768
H444	H	0.936728	0.066790	0.183063
H445	H	0.939032	0.024481	0.198224
H446	H	0.952228	0.050513	0.232049
H447	H	0.617471	0.319370	-0.114108
H448	H	-0.002255	0.128907	-0.028807
O449	O	0.265147	0.189582	0.360457
C450	C	0.226528	0.226296	0.347235
H451	H	0.212471	0.226263	0.363900
H452	H	0.201006	0.234210	0.315477
H453	H	0.234878	0.248103	0.351636
H454	H	0.370606	0.533604	0.019134
O455	O	-0.114319	0.736909	-0.359881
C456	C	-0.137709	0.735004	-0.346520
H457	H	-0.172055	0.744954	-0.371953
H458	H	-0.140886	0.754279	-0.328311
H459	H	-0.119101	0.704241	-0.328493
H460	H	0.617580	-0.168232	0.501077
H461	H	0.102709	0.318889	-0.113906
H462	H	0.371056	0.533171	-0.365726
O463	O	0.440789	0.300180	-0.305731
C464	C	0.409882	0.298084	-0.303840
H465	H	0.384078	0.327346	-0.306296
H466	H	0.427653	0.276245	-0.275355
H467	H	0.392923	0.288965	-0.328338
H468	H	1.102919	-0.168519	0.398861
O469	O	-0.114074	0.189517	-0.019215
C470	C	-0.069205	0.168752	0.011990
H471	H	-0.063115	0.149650	0.035856
H472	H	-0.060629	0.189525	0.022989
H473	H	-0.047591	0.150289	0.002358
O474	O	0.376525	0.245701	-0.360379
C475	C	0.387845	0.208987	-0.347159
H476	H	0.357082	0.209023	-0.363823
H477	H	0.402009	0.201070	-0.315400
H478	H	0.413596	0.187181	-0.351564
O479	O	0.549948	-0.095062	0.471822
C480	C	0.553441	-0.063996	0.475295
H481	H	0.581088	-0.069516	0.473021
H482	H	0.561198	-0.060686	0.504237
H483	H	0.520863	-0.036664	0.451436
O484	O	1.099402	0.224857	0.395049
C485	C	1.060760	0.238085	0.358335
H486	H	1.061904	0.212590	0.349530
H487	H	1.058561	0.256288	0.336865
H488	H	1.030566	0.256072	0.358920
O489	O	0.099252	0.731099	-0.507346
C490	C	0.097722	0.698932	-0.508087
H491	H	0.123166	0.676754	-0.478138
H492	H	0.105464	0.685981	-0.528659
H493	H	0.063299	0.708048	-0.518062
O494	O	0.106095	0.300371	-0.305823
C495	C	0.118615	0.287695	-0.330650
H496	H	0.088860	0.305693	-0.361577
H497	H	0.131103	0.256377	-0.326126
H498	H	0.146004	0.290763	-0.324324
H499	H	1.065114	-0.098411	0.366323
O500	O	0.620346	0.704134	0.507426
C501	C	0.587393	0.736300	0.508172
H502	H	0.560699	0.758480	0.478225
H503	H	0.602767	0.749248	0.528745
H504	H	0.572067	0.727183	0.518149
O505	O	0.440874	0.300361	0.028992
C506	C	0.416198	0.287685	0.029153
H507	H	0.397015	0.305688	0.040895
H508	H	0.439556	0.256369	0.047993
H509	H	0.392071	0.290746	-0.001296
O510	O	0.211482	0.210330	-0.111169
C511	C	0.222804	0.197112	-0.136567
H512	H	0.192046	0.213775	-0.167287
H513	H	0.236953	0.165363	-0.130328
H514	H	0.248569	0.201507	-0.132625
H515	H	-0.181985	0.603491	-0.501536
H516	H	0.997791	0.026235	0.308764
O517	O	0.336302	0.112774	0.111221
C518	C	0.374921	0.076061	0.136620
H519	H	0.388982	0.076097	0.167339
H520	H	0.400441	0.068144	0.130377
H521	H	0.366570	0.054254	0.132680
O522	O	0.099311	0.731132	-0.111045
C523	C	0.130398	0.696583	-0.079970
H524	H	0.154794	0.674470	-0.085491
H525	H	0.112514	0.685520	-0.076660
H526	H	0.149025	0.701819	-0.052631
H527	H	0.371035	0.248720	0.019125
O528	O	0.549903	0.245770	-0.187034
C529	C	0.505045	0.266463	-0.200677
H530	H	0.498899	0.285631	-0.182970
H531	H	0.496569	0.245639	-0.198137
H532	H	0.483393	0.284853	-0.231957
H533	H	1.167871	-0.098197	0.469043
O534	O	-0.005443	0.746526	-0.305795
C535	C	-0.042960	0.746685	-0.330621
H536	H	-0.055882	0.758425	-0.361548
H537	H	-0.069763	0.765517	-0.326099
H538	H	-0.033571	0.716243	-0.324293
O539	O	0.377048	0.077697	0.187389
C540	C	0.369918	0.053613	0.201031
H541	H	0.341449	0.071540	0.203860
H542	H	0.401173	0.031807	0.230200
H543	H	0.361366	0.038016	0.180068
O544	O	0.377089	0.077720	0.472144
C545	C	0.388543	0.064366	0.508890
H546	H	0.373061	0.089793	0.517793
H547	H	0.426036	0.046165	0.530283
H548	H	0.375795	0.046341	0.508308
H549	H	-0.182174	0.731384	-0.500984
H550	H	0.230108	0.703804	0.114218
O551	O	-0.185093	0.606793	-0.395837
C552	C	-0.229957	0.620431	-0.416604
H553	H	-0.243325	0.623262	-0.447900
H554	H	-0.249683	0.649589	-0.414517
H555	H	-0.233143	0.599470	-0.404188
O556	O	0.329302	0.135129	0.305867
C557	C	0.339186	0.158399	0.326336
H558	H	0.368222	0.140068	0.357404
H559	H	0.309102	0.181408	0.325222
H560	H	0.348225	0.172539	0.312937
H561	H	0.997820	0.128868	0.308776
H562	H	0.370678	0.698579	0.468790
O563	O	0.224334	0.224617	0.395817
C564	C	0.189849	0.224530	0.392419
H565	H	0.197650	0.194623	0.394627
H566	H	0.157534	0.245760	0.363528
H567	H	0.186479	0.233137	0.416353
O568	O	0.815444	0.224900	0.111247
C569	C	0.838958	0.238115	0.136648
H570	H	0.855597	0.221447	0.167367
H571	H	0.815118	0.269863	0.130413
H572	H	0.865171	0.233722	0.132702
H573	H	0.552837	0.351412	0.019123
O574	O	-0.005373	0.023394	-0.028912
C575	C	-0.042913	0.048231	-0.029118
H576	H	-0.039887	0.070941	-0.016719
H577	H	-0.045347	0.031159	-0.011035
H578	H	-0.073859	0.062678	-0.059765
O579	O	0.224326	0.224618	0.110919
C580	C	0.191336	0.225421	0.111632
H581	H	0.199093	0.195483	0.116197
H582	H	0.157851	0.245945	0.083266
H583	H	0.190387	0.235485	0.136008
O584	O	0.265190	0.189487	0.187113
C585	C	0.254678	0.168791	0.200760
H586	H	0.249987	0.149622	0.183053
H587	H	0.222838	0.189613	0.198222
H588	H	0.282708	0.150402	0.232039
H589	H	-0.117345	0.533616	-0.366276
O590	O	0.885873	0.189540	0.187417
C591	C	0.882400	0.192932	0.218501
H592	H	0.854688	0.190724	0.212909
H593	H	0.874753	0.221813	0.221925
H594	H	0.914950	0.169002	0.245805
H595	H	0.167610	0.248724	-0.365768
O596	O	0.620228	0.210320	0.013672
C597	C	0.596719	0.197102	0.015570
H598	H	0.580085	0.213767	0.029655
H599	H	0.620561	0.165354	0.033177
H600	H	0.570502	0.201496	-0.014584
O601	O	0.329217	0.411742	-0.417267
C602	C	0.294336	0.444720	-0.419345
H603	H	0.300288	0.441251	-0.390064
H604	H	0.261771	0.448780	-0.441168
H605	H	0.292742	0.470795	-0.428484
H606	H	0.230491	0.603516	-0.500971
H607	H	0.333435	0.216192	0.013857
H608	H	0.268063	0.533409	-0.468661
O609	O	0.264873	0.357573	-0.472055
C610	C	0.226210	0.370932	-0.508799
H611	H	0.227246	0.345508	-0.517707
H612	H	0.224096	0.389139	-0.530192
H613	H	0.196024	0.388953	-0.508210
O614	O	1.211300	0.113320	0.506963
C615	C	1.204188	0.134075	0.531060
H616	H	1.175723	0.165363	0.513134
H617	H	1.235451	0.131987	0.552873
H618	H	1.195641	0.121656	0.546660
H619	H	1.167640	0.083772	0.468772
O620	O	0.265044	0.698341	0.187326
C621	C	0.226393	0.700231	0.162039
H622	H	0.212232	0.714315	0.131282
H623	H	0.200957	0.717825	0.168367
H624	H	0.234734	0.670082	0.166022
H625	H	1.205666	-0.168300	0.501576
H626	H	-0.117297	0.736648	-0.468673
H627	H	0.064591	0.186523	-0.019062
O628	O	-0.184814	0.731240	-0.395031
C629	C	-0.229673	0.762434	-0.415729
H630	H	-0.235831	0.786289	-0.434908
H631	H	-0.238139	0.773440	-0.394897
H632	H	-0.251325	0.752799	-0.434117
H633	H	0.817967	0.116342	0.113974
H634	H	0.064467	0.736661	-0.468973
H635	H	0.205022	0.731398	-0.398805
H636	H	0.167440	0.736662	-0.366257
O637	O	-0.114374	0.530395	-0.472093
C638	C	-0.137760	0.555680	-0.508839
H639	H	-0.172102	0.580060	-0.517745
H640	H	-0.140947	0.539588	-0.530231
H641	H	-0.119143	0.567839	-0.508253
O642	O	0.265081	0.698319	0.360005
C643	C	0.226422	0.700224	0.346649
H644	H	0.227471	0.690272	0.372085
H645	H	0.224301	0.680951	0.328439
H646	H	0.196233	0.730987	0.328625
H647	H	0.552737	0.698574	0.469060
H648	H	0.617707	0.318878	0.013861
O649	O	0.170346	0.245738	-0.187367
C650	C	0.143655	0.269560	-0.225611
H651	H	0.108877	0.291912	-0.234021
H652	H	0.142149	0.251526	-0.245225
H653	H	0.158357	0.284503	-0.228511
O654	O	-0.184557	0.224901	-0.013546
C655	C	-0.161060	0.238126	-0.015461
H656	H	-0.126754	0.212629	-0.005508
H657	H	-0.157788	0.256324	0.003813
H658	H	-0.179637	0.256117	-0.046235
H659	H	-0.117196	0.083823	-0.019035
O660	O	-0.184953	0.113375	-0.013589
C661	C	-0.229816	0.134134	-0.044805
H662	H	-0.243177	0.165422	-0.055338
H663	H	-0.249548	0.132047	-0.035367
H664	H	-0.232999	0.121719	-0.068951
O665	O	0.058404	-0.095098	-0.019340
C666	C	0.025401	-0.095802	-0.051518
H667	H	0.033158	-0.100373	-0.073704
H668	H	-0.008076	-0.067438	-0.064467
H669	H	0.024433	-0.120163	-0.042401
O670	O	0.211191	-0.171494	-0.013496
C671	C	0.244201	-0.170806	0.018690
H672	H	0.228031	-0.145635	0.027547
H673	H	0.264774	-0.167583	0.011197
H674	H	0.266493	-0.198644	0.043353
O675	O	0.170263	-0.095281	-0.019284
C676	C	0.143684	-0.057022	-0.022144
H677	H	0.108862	-0.048506	-0.034568
H678	H	0.142275	-0.037491	-0.041677
H679	H	0.158424	-0.054130	0.007499
H680	H	0.205411	0.216191	-0.398085
