data_functionalizedCrystal
_audit_creation_method	'MofGen! by Chris Wilmer'
_symmetry_space_group_name_H-M	'P1'
_symmetry_Int_Tables_number	1
_symmetry_cell_setting	triclinic
loop_
_symmetry_equiv_pos_as_xyz
  x,y,z
_cell_length_a	20.919309
_cell_length_b	20.919309
_cell_length_c	23.196401
_cell_angle_alpha	57.448769
_cell_angle_beta	90.012197
_cell_angle_gamma	60.099716
loop_
_atom_site_label
_atom_site_type_symbol
_atom_site_fract_x
_atom_site_fract_y
_atom_site_fract_z
Zr1	Zr	0.668055	0.648694	-0.074982
O2	O	0.567391	0.790105	-0.175526
O3	O	0.695170	0.513018	-0.041051
O4	O	0.700536	0.646164	-0.165805
O5	O	0.562051	0.656955	0.044100
O6	O	0.809821	0.637646	-0.161673
O7	O	0.562025	0.656958	-0.050772
O8	O	0.800222	0.399471	0.061489
O9	O	0.571650	0.895129	-0.179062
O10	O	0.792815	0.560343	-0.027251
O11	O	0.711276	0.566697	0.040467
O12	O	0.717594	0.723460	-0.106415
O13	O	0.636055	0.729814	-0.038697
Zr14	Zr	0.842394	0.635103	0.082920
Zr15	Zr	0.842352	0.635109	-0.068391
Zr16	Zr	0.668096	0.648689	0.076329
Zr17	Zr	0.674847	0.816196	-0.080621
Zr18	Zr	0.835601	0.467601	0.088559
O19	O	0.815279	0.770779	0.048989
O20	O	0.815220	0.770788	-0.166155
O21	O	0.567450	0.790096	0.039618
O22	O	0.943057	0.493693	0.183464
O23	O	0.942998	0.493701	-0.031680
O24	O	0.695229	0.513010	0.174093
O25	O	0.948397	0.626843	-0.036162
O26	O	0.809913	0.637633	0.173743
O27	O	0.700628	0.646151	0.169611
O28	O	0.948423	0.626839	0.058710
O29	O	0.710193	0.884330	-0.173823
O30	O	0.800255	0.399467	0.181761
O31	O	0.938798	0.388668	0.187000
O32	O	0.938765	0.388673	0.066728
O33	O	0.571683	0.895125	-0.058790
O34	O	0.710226	0.884326	-0.053551
O35	O	0.792854	0.560337	0.114353
O36	O	0.874393	0.553983	0.046635
O37	O	0.799172	0.717100	-0.032529
O38	O	0.717633	0.723454	0.035190
C39	C	0.746728	0.432379	0.011023
C40	C	0.743845	0.361270	0.013416
C41	C	0.785050	0.324546	-0.020807
C42	C	0.782343	0.257727	-0.018551
C43	C	0.738425	0.227638	0.017925
C44	C	0.697218	0.264365	0.052153
C45	C	0.699930	0.331178	0.049901
C46	C	0.728110	0.026067	0.026498
C47	C	0.725398	-0.040749	0.028745
C48	C	0.810525	-0.047383	-0.041958
C49	C	0.813229	0.019436	-0.044211
C50	C	0.772026	0.056153	-0.009979
C51	C	0.735654	0.159340	0.020230
C52	C	0.774802	0.124444	-0.012280
C53	C	0.537205	0.658892	-0.004275
C54	C	0.463211	0.664660	-0.007073
C55	C	0.467711	0.582226	0.032931
C56	C	0.398183	0.587651	0.030301
C57	C	0.324156	0.675510	-0.012339
C58	C	0.319658	0.757950	-0.052344
C59	C	0.389185	0.752524	-0.049709
C60	C	0.112266	0.696152	-0.022359
C61	C	0.042737	0.701571	-0.024993
C62	C	0.121268	0.531271	0.057653
C63	C	0.190792	0.525854	0.060281
C64	C	0.186288	0.608293	0.020279
C65	C	0.253087	0.681057	-0.015031
C66	C	0.257357	0.602745	0.022975
C67	C	0.973244	0.624905	0.012213
C68	C	1.047238	0.619138	0.015011
C69	C	0.755172	0.641906	-0.185297
C70	C	0.755155	0.641908	-0.249533
C71	C	0.763720	0.851418	-0.003084
C72	C	0.766604	0.922527	-0.005478
C73	C	0.715894	0.727051	-0.321028
C74	C	0.715914	0.727051	-0.381383
C75	C	0.755185	0.641904	-0.370238
C76	C	0.794454	0.556750	-0.298730
C77	C	0.794439	0.556752	-0.238377
C78	C	0.746595	0.579684	-0.435673
C79	C	0.746604	0.579686	-0.496026
C80	C	0.755236	0.641893	-0.556383
C81	C	0.763842	0.704115	-0.556388
C82	C	0.763827	0.704117	-0.496035
C83	C	0.755206	0.641892	-0.435675
C84	C	0.715996	0.727041	-0.693325
C85	C	0.716022	0.727037	-0.753679
C86	C	0.794557	0.556734	-0.671024
C87	C	0.794536	0.556740	-0.610672
C88	C	0.755251	0.641896	-0.621827
C89	C	0.755276	0.641891	0.193236
C90	C	0.755294	0.641889	0.257471
C91	C	0.964748	0.415386	0.019266
C92	C	1.035858	0.338509	0.024458
C93	C	0.746780	0.432372	0.200289
C94	C	0.743914	0.361261	0.266918
C95	C	0.964800	0.415378	0.208533
C96	C	1.035928	0.338499	0.277960
C97	C	0.545649	0.868419	-0.200595
C98	C	0.474521	0.945298	-0.270022
C99	C	0.545701	0.868412	-0.011328
C100	C	0.474591	0.945288	-0.016520
C101	C	0.763668	0.851425	-0.192351
C102	C	0.766534	0.922537	-0.258980
C103	C	1.026669	0.305727	-0.011678
C104	C	1.093479	0.233503	-0.006814
C105	C	1.169476	0.194058	0.034190
C106	C	1.178663	0.226847	0.070327
C107	C	1.111855	0.299074	0.065459
C108	C	0.785151	0.324546	0.336782
C109	C	0.782456	0.257739	0.399393
C110	C	0.738527	0.227643	0.392138
C111	C	0.697285	0.264364	0.322267
C112	C	0.699977	0.331175	0.259657
C113	C	1.111900	0.299079	0.275216
C114	C	1.178739	0.226852	0.340444
C115	C	1.169604	0.194042	0.408416
C116	C	1.093624	0.233470	0.411158
C117	C	1.026787	0.305700	0.345931
C118	C	0.398549	0.984727	-0.267278
C119	C	0.331711	1.056974	-0.332507
C120	C	0.340846	1.089788	-0.400479
C121	C	0.416826	1.050355	-0.403221
C122	C	0.483662	0.978114	-0.337993
C123	C	0.483780	0.978077	0.019609
C124	C	0.416971	1.050319	0.014728
C125	C	0.340974	1.089767	-0.026278
C126	C	0.331786	1.056975	-0.062412
C127	C	0.398595	0.984738	-0.057535
C128	C	0.810470	0.952611	-0.251702
C129	C	0.813178	1.019418	-0.314300
C130	C	0.771946	1.056154	-0.384177
C131	C	0.728009	1.026073	-0.391454
C132	C	0.725305	0.959262	-0.328855
H133	H	0.815896	0.227826	-0.046418
N134	N	0.834672	0.469765	-0.659644
N135	N	0.834683	0.469772	-0.713534
H136	H	0.863017	0.408348	-0.705499
H137	H	0.736342	0.173240	0.443125
N138	N	1.084297	0.199932	0.480592
N139	N	1.046534	0.165459	0.498486
H140	H	1.039947	0.141766	0.547526
H141	H	0.844047	0.922711	-0.194811
H142	H	1.119347	0.325756	0.094890
N143	N	0.561398	0.937813	0.061492
N144	N	0.584244	0.988411	0.044837
H145	H	0.639061	0.959983	0.074416
N146	N	0.824607	0.220216	0.470759
N147	N	0.877352	0.133820	0.517565
H148	H	0.907124	0.107318	0.567966
H149	H	0.424254	1.077081	-0.458572
H150	H	0.694439	1.055993	-0.448355
N151	N	0.834633	0.469775	-0.537633
N152	N	0.889944	0.447147	-0.492954
H153	H	0.918266	0.385724	-0.441368
N154	N	1.237889	0.120247	0.475035
N155	N	1.284904	0.041792	0.489857
H156	H	1.333134	-0.010330	0.536905
H157	H	0.689525	0.934784	-0.334792
H158	H	0.401855	0.520525	0.062878
H159	H	0.820809	0.349045	-0.050514
N160	N	0.949190	0.345952	0.348753
N161	N	0.941054	0.316640	0.409451
H162	H	0.886252	0.345065	0.411450
N163	N	0.652420	0.233606	0.314876
N164	N	0.650034	0.173948	0.370789
H165	H	0.618352	0.152219	0.365572
H166	H	0.826430	0.487422	-0.289659
N167	N	0.686011	0.063612	0.061432
N168	N	0.722760	0.053292	0.111740
H169	H	0.693019	0.079825	0.136404
H170	H	0.424467	1.077006	0.044157
H171	H	0.391096	0.958015	-0.211938
N172	N	0.254113	1.097214	-0.329676
N173	N	0.231284	1.046602	-0.297211
H174	H	0.176483	1.075015	-0.295207
N175	N	0.858104	0.050149	-0.081465
N176	N	0.894899	0.017344	-0.112012
H177	H	0.926595	0.039032	-0.138322
H178	H	0.739592	0.529025	-0.496018
N179	N	0.819649	0.155198	-0.049543
N180	N	0.785892	0.240119	-0.102365
H181	H	0.817562	0.261849	-0.128685
H182	H	0.286416	1.148612	-0.453586
N183	N	0.561259	0.937851	-0.340815
N184	N	0.569395	0.967163	-0.401513
H185	H	0.624197	0.938732	-0.403512
H186	H	0.192807	0.752592	-0.049748
H187	H	1.240599	0.194757	0.338198
N188	N	0.657848	0.368663	0.188300
N189	N	0.618633	0.341775	0.181841
H190	H	0.588876	0.368249	0.131446
N191	N	0.266409	0.436109	0.103850
N192	N	0.313973	0.414086	0.154957
H193	H	0.367379	0.350703	0.185727
N194	N	1.121257	0.332568	0.205796
N195	N	1.189102	0.297353	0.203370
H196	H	1.195717	0.321002	0.154344
N197	N	0.272743	1.163556	-0.031251
N198	N	0.280968	1.192817	0.001016
H199	H	0.232783	1.244930	-0.002492
N200	N	0.254149	1.097287	-0.104296
N201	N	0.194513	1.161779	-0.108636
H202	H	0.139679	1.190249	-0.138214
N203	N	1.256288	0.186549	0.112224
N204	N	1.264493	0.215813	0.144495
H205	H	1.319317	0.187347	0.174090
N206	N	0.737762	0.516146	-0.374030
N207	N	0.680644	0.547367	-0.355524
H208	H	0.674405	0.502494	-0.311990
N209	N	1.084069	0.200031	-0.043734
N210	N	1.016207	0.235255	-0.080333
H211	H	1.009558	0.211617	-0.106408
N212	N	0.244036	0.847688	-0.095901
N213	N	0.196473	0.869712	-0.147009
H214	H	0.143063	0.933091	-0.177774
N215	N	0.389187	0.951259	-0.094446
N216	N	0.321325	0.986493	-0.131053
H217	H	0.314675	0.962853	-0.157126
N218	N	0.858065	1.050125	-0.306844
N219	N	0.894867	1.017321	-0.244448
H220	H	0.926569	1.039005	-0.239179
N221	N	0.690777	0.128627	0.057479
N222	N	0.653980	0.161427	0.088029
H223	H	0.622285	0.139735	0.114337
H224	H	0.820923	0.349043	0.342703
N225	N	0.834529	0.469786	-0.165337
N226	N	0.834504	0.469801	-0.111458
H227	H	0.862815	0.408381	-0.059871
N228	N	0.774710	1.124393	-0.448122
N229	N	0.801650	1.107329	-0.490017
H230	H	0.803605	1.155523	-0.535176
N231	N	0.107656	0.780362	-0.063241
N232	N	0.137678	0.796337	-0.111413
H233	H	0.134422	0.855815	-0.140292
H234	H	0.844072	-0.077286	-0.069827
H235	H	0.661463	0.239856	0.081857
N236	N	0.657826	0.368691	0.084855
N237	N	0.584269	0.411824	0.065092
H238	H	0.554533	0.438315	0.089782
H239	H	0.689631	-0.065243	0.058448
N240	N	0.675787	0.814023	-0.332409
N241	N	0.675782	0.814018	-0.278520
H242	H	0.647459	0.875442	-0.286555
H243	H	0.527984	0.510681	0.067656
H244	H	0.124926	0.464154	0.090221
H245	H	-0.017540	0.773120	-0.059719
H246	H	0.385516	0.819651	-0.082276
H247	H	0.683942	0.796386	-0.439605
N248	N	0.332976	0.513010	0.066518
N249	N	0.380519	0.491003	0.036781
H250	H	0.433932	0.427628	0.067531
H251	H	1.223869	0.135246	0.038149
H252	H	0.770867	0.754773	-0.605533
N253	N	0.772618	0.767676	-0.496048
N254	N	0.780321	0.823220	-0.549939
H255	H	0.786531	0.868108	-0.549949
H256	H	0.684054	0.796372	-0.811895
N257	N	0.675887	0.814028	-0.704725
N258	N	0.640854	0.890044	-0.768569
H259	H	0.612534	0.951479	-0.776623
N260	N	0.949044	0.345999	-0.053553
N261	N	0.926191	0.295410	-0.036911
H262	H	0.871369	0.323850	-0.066488
