data_functionalizedCrystal
_audit_creation_method	'MofGen! by Chris Wilmer'
_symmetry_space_group_name_H-M	'P1'
_symmetry_Int_Tables_number	1
_symmetry_cell_setting	triclinic
loop_
_symmetry_equiv_pos_as_xyz
  x,y,z
_cell_length_a	16.793024
_cell_length_b	16.793047
_cell_length_c	33.586455
_cell_angle_alpha	113.253857
_cell_angle_beta	66.219990
_cell_angle_gamma	112.758327
loop_
_atom_site_label
_atom_site_type_symbol
_atom_site_fract_x
_atom_site_fract_y
_atom_site_fract_z
O1	O	0.005016	-0.570216	-0.583573
O2	O	-0.034529	-0.474528	-0.453458
O3	O	0.114723	-0.474535	-0.528082
O4	O	-0.144235	-0.570209	-0.508949
O5	O	0.108729	-0.346329	-0.530229
O6	O	-0.040523	-0.346322	-0.455605
O7	O	-0.000977	-0.442010	-0.585721
Zn8	Zn	-0.021701	-0.373810	-0.521004
Zn9	Zn	-0.013805	-0.542728	-0.518175
O10	O	-0.150229	-0.442003	-0.511097
C11	C	0.005100	-0.790970	-0.238461
C12	C	-0.040584	-0.395375	-0.435637
C13	C	-0.044693	-0.353446	-0.386631
C14	C	-0.039275	-0.401741	-0.363054
C15	C	-0.040566	-0.125547	-0.300731
C16	C	-0.044689	-0.223451	-0.321635
C17	C	-0.039266	-0.270752	-0.297563
C18	C	0.005118	-0.521142	-0.103554
C19	C	-0.046224	-0.263935	-0.366370
C20	C	-0.036476	-0.360146	-0.318399
C21	C	-0.030850	-0.408530	-0.294565
C22	C	-0.028014	-0.367522	-0.249895
C23	C	-0.030804	-0.278128	-0.229058
C24	C	-0.036430	-0.229743	-0.252892
C25	C	-0.027971	-0.237122	-0.184383
C26	C	-0.022345	-0.285507	-0.160550
C27	C	-0.019555	-0.374900	-0.181386
C28	C	-0.022391	-0.415909	-0.226057
C29	C	-0.019601	-0.505302	-0.246894
C30	C	-0.013975	-0.553687	-0.223060
C31	C	-0.011142	-0.512684	-0.178391
C32	C	-0.013932	-0.423291	-0.157554
C33	C	-0.005516	-0.561069	-0.154557
C34	C	-0.002726	-0.650463	-0.175394
C35	C	-0.005562	-0.691471	-0.220064
C36	C	-0.011185	-0.643081	-0.243897
C37	C	-0.022434	-0.546309	-0.291568
C38	C	-0.019644	-0.635702	-0.312405
C39	C	-0.014021	-0.684089	-0.288567
C40	C	-0.022480	-0.676711	-0.357076
C41	C	-0.028106	-0.628326	-0.380910
C42	C	-0.030896	-0.538933	-0.360073
C43	C	-0.028060	-0.497924	-0.315402
C44	C	-0.036522	-0.490548	-0.383907
C45	C	0.815184	-0.521162	-0.508596
C46	C	0.415541	-0.125553	-0.528781
C47	C	0.375032	-0.223457	-0.531493
C48	C	0.423813	-0.270761	-0.529101
C49	C	0.149318	-0.395376	-0.530584
C50	C	0.246774	-0.353455	-0.532364
C51	C	0.294574	-0.401748	-0.529976
C52	C	0.548961	-0.790984	-0.510398
C53	C	0.286104	-0.263940	-0.532530
C54	C	0.383336	-0.360149	-0.528302
C55	C	0.432207	-0.407971	-0.525810
C56	C	0.392316	-0.497392	-0.524993
C57	C	0.303554	-0.538991	-0.526667
C58	C	0.254683	-0.491169	-0.529159
C59	C	0.263666	-0.628421	-0.525851
C60	C	0.312537	-0.676243	-0.523359
C61	C	0.401299	-0.634644	-0.521685
C62	C	0.441190	-0.545223	-0.522502
C63	C	0.529952	-0.503624	-0.520828
C64	C	0.578823	-0.551446	-0.518336
C65	C	0.538939	-0.640864	-0.517520
C66	C	0.450177	-0.682463	-0.519194
C67	C	0.587810	-0.688687	-0.515028
C68	C	0.676572	-0.647088	-0.513354
C69	C	0.716463	-0.557666	-0.514172
C70	C	0.667586	-0.509847	-0.516662
C71	C	0.569840	-0.414195	-0.521644
C72	C	0.658602	-0.372596	-0.519970
C73	C	0.707476	-0.420426	-0.517480
C74	C	0.698493	-0.283174	-0.520788
C75	C	0.649622	-0.235352	-0.523280
C76	C	0.560860	-0.276951	-0.524954
C77	C	0.520969	-0.366372	-0.524136
C78	C	0.511989	-0.229129	-0.527446
C79	C	-0.040530	-0.395407	-0.935652
C80	C	0.005063	-0.791004	-0.738448
C81	C	0.009186	-0.693099	-0.717543
C82	C	0.003779	-0.645796	-0.741620
C83	C	0.005077	-0.521171	-0.603544
C84	C	0.009198	-0.563096	-0.652550
C85	C	0.003786	-0.514804	-0.676131
C86	C	-0.040516	-0.125574	-0.800747
C87	C	0.010719	-0.652613	-0.672809
C88	C	0.000994	-0.556406	-0.720789
C89	C	-0.004621	-0.508585	-0.744908
C90	C	-0.007444	-0.419162	-0.724369
C91	C	-0.004651	-0.377560	-0.679711
C92	C	0.000964	-0.425381	-0.655592
C93	C	-0.007471	-0.288129	-0.659174
C94	C	-0.013086	-0.240308	-0.683293
C95	C	-0.015878	-0.281910	-0.727951
C96	C	-0.013056	-0.371333	-0.748490
C97	C	-0.015848	-0.412935	-0.793148
C98	C	-0.021463	-0.365114	-0.817267
C99	C	-0.024282	-0.275694	-0.796731
C100	C	-0.021490	-0.234092	-0.752073
C101	C	-0.029897	-0.227873	-0.820850
C102	C	-0.032690	-0.269476	-0.865508
C103	C	-0.029867	-0.358899	-0.886047
C104	C	-0.024255	-0.406717	-0.861925
C105	C	-0.013028	-0.502367	-0.813685
C106	C	-0.015821	-0.543969	-0.858343
C107	C	-0.021433	-0.496140	-0.882464
C108	C	-0.012998	-0.633392	-0.878882
C109	C	-0.007383	-0.681213	-0.854763
C110	C	-0.004591	-0.639611	-0.810105
C111	C	-0.007414	-0.550188	-0.789566
C112	C	0.001024	-0.687432	-0.785986
O113	O	-0.000965	0.173549	-0.277957
O114	O	-0.040516	-0.085616	-0.325254
O115	O	0.108737	0.059592	-0.327284
O116	O	-0.150219	0.028341	-0.275927
O117	O	0.114753	0.055151	-0.263265
O118	O	-0.034500	-0.090057	-0.261234
O119	O	0.005051	0.169108	-0.213937
Zn120	Zn	-0.013769	0.038820	-0.227421
Zn121	Zn	-0.021696	0.044672	-0.311770
O122	O	-0.144202	0.023900	-0.211907
O123	O	-0.034458	-0.474571	0.046517
O124	O	0.005076	-0.570190	-0.083599
O125	O	-0.144170	-0.570237	-0.008972
O126	O	0.114787	-0.474523	-0.028110
O127	O	-0.150200	-0.442024	-0.011093
O128	O	-0.000954	-0.441976	-0.085720
O129	O	-0.040488	-0.346357	0.044396
Zn130	Zn	-0.021679	-0.373810	-0.020999
Zn131	Zn	-0.013734	-0.542737	-0.018204
O132	O	0.108757	-0.346309	-0.030231
C133	C	-0.850734	0.086244	-0.289716
C134	C	-0.450996	0.035117	-0.097351
C135	C	-0.410501	0.028587	-0.146852
C136	C	-0.459292	0.034683	-0.169840
C137	C	-0.184802	0.024283	-0.235878
C138	C	-0.282257	0.023363	-0.213592
C139	C	-0.330068	0.029423	-0.237088
C140	C	-0.584541	0.075410	-0.428242
C141	C	-0.321573	0.024104	-0.168302
C142	C	-0.418828	0.035176	-0.215083
C143	C	-0.467711	0.041476	-0.238329
C144	C	-0.427833	0.042022	-0.283580
C145	C	-0.339073	0.036269	-0.305586
C146	C	-0.290190	0.029970	-0.282340
C147	C	-0.299198	0.036812	-0.350842
C148	C	-0.348081	0.043111	-0.374088
C149	C	-0.436841	0.048864	-0.352082
C150	C	-0.476719	0.048318	-0.306830
C151	C	-0.565480	0.054071	-0.284825
C152	C	-0.614362	0.060370	-0.308071
C153	C	-0.574491	0.060913	-0.353321
C154	C	-0.485730	0.055160	-0.375326
C155	C	-0.623374	0.067212	-0.376567
C156	C	-0.712134	0.072965	-0.354561
C157	C	-0.752012	0.072419	-0.309309
C158	C	-0.703123	0.066123	-0.286065
C159	C	-0.605355	0.053528	-0.239569
C160	C	-0.694115	0.059281	-0.217564
C161	C	-0.743001	0.065577	-0.240813
C162	C	-0.733993	0.058735	-0.172312
C163	C	-0.685110	0.052436	-0.149066
C164	C	-0.596350	0.046683	-0.171072
C165	C	-0.556472	0.047229	-0.216323
C166	C	-0.547467	0.040383	-0.147826
O167	O	0.585213	0.169090	-0.504004
O168	O	0.494056	-0.090076	-0.525516
O169	O	0.488081	0.055124	-0.449918
O170	O	0.591189	0.023889	-0.579602
O171	O	0.359978	0.059584	-0.452885
O172	O	0.365953	-0.085616	-0.528483
O173	O	0.457110	0.173550	-0.506971
Zn174	Zn	0.391193	0.044675	-0.518198
Zn175	Zn	0.559974	0.038798	-0.514289
O176	O	0.463086	0.028349	-0.582569
C177	C	0.815354	-0.521094	-0.008709
C178	C	0.415547	-0.125494	-0.028771
C179	C	0.375059	-0.223405	-0.031498
C180	C	0.423859	-0.270708	-0.029121
C181	C	0.149365	-0.395355	-0.030599
C182	C	0.246820	-0.353421	-0.032381
C183	C	0.294640	-0.401713	-0.030008
C184	C	0.549171	-0.790955	-0.010537
C185	C	0.286131	-0.263897	-0.032533
C186	C	0.383402	-0.360104	-0.028335
C187	C	0.432293	-0.407926	-0.025859
C188	C	0.392422	-0.497356	-0.025055
C189	C	0.303660	-0.538965	-0.026727
C190	C	0.254769	-0.491143	-0.029204
C191	C	0.263791	-0.628403	-0.025925
C192	C	0.312683	-0.676224	-0.023448
C193	C	0.401445	-0.634615	-0.021775
C194	C	0.441316	-0.545185	-0.022579
C195	C	0.530078	-0.503576	-0.020906
C196	C	0.578969	-0.551398	-0.018429
C197	C	0.539104	-0.640825	-0.017627
C198	C	0.450342	-0.682434	-0.019300
C199	C	0.587995	-0.688646	-0.015150
C200	C	0.676757	-0.647037	-0.013477
C201	C	0.716628	-0.557607	-0.014281
C202	C	0.667731	-0.509789	-0.016757
C203	C	0.569946	-0.414138	-0.021709
C204	C	0.658708	-0.372530	-0.020036
C205	C	0.707602	-0.420359	-0.017561
C206	C	0.698579	-0.283100	-0.020840
C207	C	0.649688	-0.235278	-0.023317
C208	C	0.560926	-0.276887	-0.024990
C209	C	0.521055	-0.366317	-0.024186
C210	C	0.512035	-0.229066	-0.027467
O211	O	-0.620614	0.089309	0.052274
O212	O	-0.529507	0.043784	-0.078544
O213	O	-0.523494	0.194833	-0.006033
O214	O	-0.626628	-0.061740	-0.020236
O215	O	-0.395386	0.185419	-0.005549
O216	O	-0.401400	0.034370	-0.078059
O217	O	-0.492507	0.079895	0.052758
Zn218	Zn	-0.426614	0.055638	-0.012574
Zn219	Zn	-0.595401	0.068041	-0.013212
O220	O	-0.498521	-0.071154	-0.019752
C221	C	-0.437537	0.048335	0.402491
C222	C	-0.837226	0.099430	0.210091
C223	C	-0.739773	0.100339	0.187806
C224	C	-0.691967	0.094287	0.211308
C225	C	-0.571027	0.088563	0.071568
C226	C	-0.611521	0.095108	0.121070
C227	C	-0.562739	0.089011	0.144061
C228	C	-0.171338	0.037467	0.263967
C229	C	-0.700452	0.099593	0.142516
C230	C	-0.603213	0.088528	0.189308
C231	C	-0.554892	0.082255	0.212848
C232	C	-0.466098	0.076466	0.191141
C233	C	-0.425624	0.076949	0.145894
C234	C	-0.473945	0.083222	0.122354
C235	C	-0.336822	0.071163	0.124188
C236	C	-0.288502	0.064890	0.147728
C237	C	-0.328975	0.064407	0.192975
C238	C	-0.417770	0.070196	0.214682
C239	C	-0.458244	0.069713	0.259929
C240	C	-0.409923	0.063441	0.283469
C241	C	-0.321132	0.057655	0.261765
C242	C	-0.280658	0.058138	0.216518
C243	C	-0.272811	0.051382	0.285305
C244	C	-0.313285	0.050899	0.330552
C245	C	-0.402079	0.056688	0.352259
C246	C	-0.450397	0.062957	0.328716
C247	C	-0.547046	0.075500	0.281635
C248	C	-0.587520	0.075016	0.326882
C249	C	-0.539191	0.068747	0.350423
C250	C	-0.676314	0.080806	0.348589
C251	C	-0.724634	0.087078	0.325049
C252	C	-0.684160	0.087561	0.279802
C253	C	-0.595366	0.081772	0.258095
C254	C	-0.732481	0.093834	0.256262
O255	O	-0.040608	-1.085661	-0.825229
O256	O	-0.001018	-0.826491	-0.777938
O257	O	-0.150287	-0.971682	-0.775894
O258	O	0.108661	-0.940470	-0.827272
O259	O	-0.144253	-0.976123	-0.711878
O260	O	0.005016	-0.830932	-0.713922
O261	O	-0.034575	-1.090102	-0.761213
Zn262	Zn	-0.013821	-0.961222	-0.727403
Zn263	Zn	-0.021771	-0.955371	-0.811747
O264	O	0.114695	-0.944911	-0.763256
O265	O	-0.049204	-0.216238	-0.390138
C266	C	0.023934	-0.087413	-0.419426
C267	C	0.027428	-0.141358	-0.392509
H268	H	0.085873	-0.026851	-0.421343
H269	H	0.023187	-0.132201	-0.455182
H270	H	-0.039891	-0.063219	-0.401649
H271	H	0.091245	-0.165561	-0.410246
H272	H	0.028125	-0.096536	-0.356753
H273	H	-0.281187	0.020914	-0.148901
O274	O	-0.297336	0.071797	0.080079
C275	C	-0.250999	0.153159	0.025724
C276	C	-0.295720	0.152564	0.075696
H277	H	-0.249695	0.218445	0.022162
H278	H	-0.178912	0.147985	0.014190
H279	H	-0.291343	0.093448	0.003818
H280	H	-0.255449	0.212268	0.097636
H281	H	-0.367814	0.157694	0.087194
O282	O	0.013689	-0.700230	-0.648998
C283	C	-0.059461	-0.756811	-0.583591
C284	C	-0.062943	-0.702884	-0.610521
H285	H	-0.121400	-0.758958	-0.552472
H286	H	-0.058724	-0.828348	-0.605992
H287	H	0.004365	-0.722992	-0.572359
H288	H	-0.126760	-0.736625	-0.621758
H289	H	-0.063630	-0.631349	-0.588103
O290	O	0.785104	-0.242427	-0.019130
C291	C	0.884688	-0.121228	0.021396
C292	C	0.786661	-0.167216	0.019517
H293	H	0.885981	-0.060401	0.052634
H294	H	0.912928	-0.170916	0.023343
H295	H	0.927737	-0.098289	-0.010423
H296	H	0.743540	-0.190156	0.051328
H297	H	0.758493	-0.117498	0.017546
O298	O	0.785052	-0.242454	-0.519140
C299	C	0.908025	-0.106915	-0.518579
C300	C	0.809989	-0.152916	-0.520440
H301	H	0.928224	-0.034522	-0.519639
H302	H	0.913387	-0.107122	-0.485849
H303	H	0.955068	-0.145076	-0.548908
H304	H	0.762887	-0.114792	-0.490135
H305	H	0.804701	-0.152720	-0.553190
H306	H	0.182115	-0.525189	-0.530531
H307	H	-0.815575	0.070280	-0.222817
H308	H	-0.038719	-0.156659	-0.235851
H309	H	-0.746339	0.088530	-0.372795
H310	H	0.003251	-0.391359	-0.619081
O311	O	-0.820543	0.064396	-0.150772
C312	C	-0.943484	0.068910	-0.081325
C313	C	-0.845463	0.062493	-0.105664
H314	H	-0.963668	0.067354	-0.044854
H315	H	-0.948825	0.134522	-0.081362
H316	H	-0.990552	0.009533	-0.099757
H317	H	-0.798335	0.121821	-0.087251
H318	H	-0.840196	-0.003156	-0.105632
H319	H	-0.440845	0.083623	0.085362
O320	O	-0.309322	0.043527	-0.418245
C321	C	-0.315586	-0.029765	-0.495151
C322	C	-0.359583	-0.030336	-0.445159
H323	H	-0.356192	-0.089488	-0.516927
H324	H	-0.314502	0.035521	-0.498622
H325	H	-0.243443	-0.034937	-0.506917
H326	H	-0.431743	-0.025199	-0.433360
H327	H	-0.360596	-0.095620	-0.441717
O328	O	0.273657	-0.763415	-0.022610
C329	C	0.152486	-0.867171	0.016450
C330	C	0.196576	-0.768395	0.015548
H331	H	0.090169	-0.871229	0.047303
H332	H	0.131783	-0.909098	-0.015764
H333	H	0.202913	-0.894309	0.018493
H334	H	0.146197	-0.741176	0.013522
H335	H	0.217299	-0.726531	0.047762
O336	O	-0.723944	0.051777	-0.104943
C337	C	-0.769370	-0.029717	-0.050754
C338	C	-0.725355	-0.029078	-0.100736
H339	H	-0.770543	-0.095090	-0.047339
H340	H	-0.728736	0.029902	-0.028953
H341	H	-0.841484	-0.024455	-0.038973
H342	H	-0.653245	-0.034369	-0.112559
H343	H	-0.766057	-0.088688	-0.122508
H344	H	0.012418	-0.684570	-0.156900
O345	O	0.237853	-0.216284	-0.033688
C346	C	0.106262	-0.159736	0.003281
C347	C	0.160865	-0.213657	0.004647
H348	H	0.043996	-0.157611	0.034266
H349	H	0.150094	-0.088192	0.003398
H350	H	0.084243	-0.193545	-0.028856
H351	H	0.182894	-0.179925	0.036779
H352	H	0.117000	-0.285200	0.004506
H353	H	-0.005085	-0.754331	-0.871556
H354	H	-0.020209	-0.749804	-0.374113
H355	H	-0.215904	0.060157	0.129977
H356	H	-0.047834	-0.232081	-0.882358
O357	O	0.717703	-0.691511	-0.004745
C358	C	0.852730	-0.689327	0.005384
C359	C	0.806461	-0.638854	-0.004499
H360	H	0.924505	-0.646783	0.005577
H361	H	0.812883	-0.702367	0.039878
H362	H	0.855071	-0.756236	-0.022022
H363	H	0.804110	-0.571917	0.022879
H364	H	0.846324	-0.625885	-0.039006
O365	O	0.168189	-0.531853	-0.030814
C366	C	0.045279	-0.667447	-0.031447
C367	C	0.143331	-0.621448	-0.029613
H368	H	0.025157	-0.739898	-0.030486
H369	H	-0.001844	-0.629416	-0.001094
H370	H	0.039955	-0.667093	-0.064156
H371	H	0.148743	-0.621791	0.003076
H372	H	0.190408	-0.659493	-0.059988
O373	O	-0.194091	0.052377	0.195275
C374	C	-0.094157	-0.031500	0.133710
C375	C	-0.192227	-0.025072	0.157715
H376	H	-0.092619	-0.094123	0.103344
H377	H	-0.050791	0.030877	0.121619
H378	H	-0.066460	-0.036040	0.158421
H379	H	-0.220004	-0.020560	0.133030
H380	H	-0.235530	-0.087449	0.169814
H381	H	-0.030255	-0.164038	-0.167345
H382	H	0.417746	-0.755558	-0.018645
O383	O	-0.715939	0.080310	0.392716
C384	C	-0.849785	0.086312	0.456913
C385	C	-0.805024	0.086869	0.406937
H386	H	-0.921811	0.091633	0.468429
H387	H	-0.851257	0.020987	0.460505
H388	H	-0.809389	0.145971	0.478813
H389	H	-0.845383	0.027253	0.385006
H390	H	-0.803539	0.152233	0.403381
O391	O	-0.203663	0.024240	-0.303871
C392	C	-0.104091	-0.059562	-0.365787
C393	C	-0.202123	-0.053174	-0.341454
H394	H	-0.102815	-0.122157	-0.396173
H395	H	-0.060997	0.002843	-0.377894
H396	H	-0.075890	-0.064129	-0.341285
H397	H	-0.230405	-0.048636	-0.365931
H398	H	-0.245154	-0.115580	-0.329340
H399	H	-0.580066	0.039960	-0.110823
H400	H	-0.023809	-0.160979	-0.735279
H401	H	0.191099	-0.662437	-0.527221
H402	H	-0.226632	0.032105	-0.368836
H403	H	0.191224	-0.662427	-0.027294
H404	H	-0.453130	0.055597	-0.412328
O405	O	-0.039284	-0.530680	-0.427476
C406	C	-0.038600	-0.665636	-0.490217
C407	C	-0.035507	-0.620309	-0.440868
H408	H	-0.035529	-0.738102	-0.501063
H409	H	-0.104054	-0.665156	-0.492790
H410	H	0.021562	-0.627176	-0.513345
H411	H	-0.095624	-0.658733	-0.417711
H412	H	0.029984	-0.620777	-0.438332
H413	H	-0.005182	-0.254109	-0.622664
O414	O	0.794161	-0.379625	-0.015912
C415	C	0.917116	-0.244070	-0.015337
C416	C	0.819079	-0.290079	-0.017196
H417	H	0.937298	-0.171670	-0.016384
H418	H	0.922489	-0.244296	0.017387
H419	H	0.964163	-0.282212	-0.045673
H420	H	0.771972	-0.251973	0.013117
H421	H	0.813779	-0.289863	-0.049939
O422	O	0.688461	-0.147991	-0.024016
C423	C	0.682064	0.005955	0.012711
C424	C	0.638085	-0.092857	0.013561
H425	H	0.641343	0.050557	0.043083
H426	H	0.754187	0.027661	0.014370
H427	H	0.683190	0.012788	-0.019973
H428	H	0.636894	-0.099764	0.046240
H429	H	0.565986	-0.114518	0.011877
O430	O	-0.015719	-0.153043	-0.663328
C431	C	0.055684	0.000945	-0.665426
C432	C	0.058768	-0.097847	-0.688087
H433	H	0.115910	0.045601	-0.685429
H434	H	-0.009724	0.007857	-0.664838
H435	H	0.058614	0.022519	-0.629211
H436	H	0.055874	-0.119486	-0.724311
H437	H	0.124172	-0.104704	-0.688640
O438	O	-0.015740	-0.674113	-0.922434
C439	C	-0.015038	-0.809651	-0.984825
C440	C	-0.011947	-0.763651	-0.935497
H441	H	-0.011953	-0.882044	-0.995405
H442	H	-0.080496	-0.809444	-0.987511
H443	H	0.045118	-0.771489	-1.008088
H444	H	-0.072057	-0.801776	-0.912204
H445	H	0.053550	-0.763847	-0.932848
H446	H	-0.011748	-0.757184	-0.305606
O447	O	-0.748488	0.103507	0.119332
C448	C	-0.759392	0.185219	0.077559
C449	C	-0.704892	0.180886	0.103795
H450	H	-0.724177	0.247784	0.064998
H451	H	-0.764112	0.122606	0.047340
H452	H	-0.830281	0.188501	0.100946
H453	H	-0.633978	0.177633	0.080445
H454	H	-0.700247	0.243497	0.134018
H455	H	0.544632	-0.155941	-0.028119
H456	H	-0.275840	0.035205	0.347100
O457	O	-0.578821	0.068242	0.394550
C458	C	-0.712667	0.074235	0.458747
C459	C	-0.667908	0.074798	0.408772
H460	H	-0.784695	0.079554	0.470263
H461	H	-0.714136	0.008910	0.462337
H462	H	-0.672273	0.133895	0.480648
H463	H	-0.708266	0.015183	0.386840
H464	H	-0.666426	0.140162	0.405217
O465	O	-0.030880	-0.668464	-0.424477
C466	C	-0.030222	-0.803431	-0.487212
C467	C	-0.027107	-0.758093	-0.437866
H468	H	-0.027153	-0.875897	-0.498056
H469	H	-0.095681	-0.802950	-0.489778
H470	H	0.029933	-0.764979	-0.510346
H471	H	-0.087216	-0.796510	-0.414703
H472	H	0.038391	-0.758563	-0.435337
O473	O	-0.811210	0.092860	0.346182
C474	C	-0.915431	0.180480	0.369864
C475	C	-0.817360	0.174028	0.345914
H476	H	-0.920432	0.246109	0.369664
H477	H	-0.962292	0.121120	0.351301
H478	H	-0.936161	0.179012	0.406391
H479	H	-0.796546	0.175522	0.309388
H480	H	-0.770556	0.233385	0.364512
H481	H	-0.020027	-0.251971	-0.124027
H482	H	-0.805083	0.098565	0.274011
O483	O	0.238029	-0.216330	-0.533856
C484	C	0.227278	-0.132228	-0.574481
C485	C	0.281799	-0.186148	-0.573047
H486	H	0.262654	-0.107795	-0.606158
H487	H	0.156446	-0.177090	-0.575284
H488	H	0.222400	-0.071822	-0.543037
H489	H	0.286749	-0.246557	-0.604484
H490	H	0.352601	-0.141224	-0.572220
O491	O	0.717250	-0.691678	-0.504529
C492	C	0.714020	-0.758086	-0.451879
C493	C	0.667843	-0.707645	-0.461840
H494	H	0.674104	-0.770994	-0.417361
H495	H	0.716419	-0.825050	-0.479233
H496	H	0.785769	-0.715494	-0.451657
H497	H	0.596075	-0.750162	-0.462054
H498	H	0.665515	-0.640674	-0.434484
H499	H	0.279916	-0.749353	-0.522691
H500	H	0.780052	-0.386407	-0.516111
H501	H	-0.011621	-0.389765	-0.121028
O502	O	0.688483	-0.148157	-0.524133
C503	C	0.733979	-0.040982	-0.565489
C504	C	0.689922	-0.139756	-0.564579
H505	H	0.735174	-0.034161	-0.598191
H506	H	0.693360	0.003734	-0.535130
H507	H	0.806087	-0.019406	-0.563832
H508	H	0.617818	-0.161416	-0.566251
H509	H	0.730609	-0.184414	-0.594935
H510	H	0.417564	-0.755580	-0.518528
H511	H	0.544602	-0.156012	-0.528109
H512	H	-0.023718	-0.530163	-0.918978
H513	H	0.003321	-0.760550	-0.802778
