data_functionalizedCrystal
_audit_creation_method	'MofGen! by Chris Wilmer'
_symmetry_space_group_name_H-M	'P1'
_symmetry_Int_Tables_number	1
_symmetry_cell_setting	triclinic
loop_
_symmetry_equiv_pos_as_xyz
  x,y,z
_cell_length_a	9.065218
_cell_length_b	14.971486
_cell_length_c	13.448316
_cell_angle_alpha	90.006811
_cell_angle_beta	89.993196
_cell_angle_gamma	95.684993
loop_
_atom_site_label
_atom_site_type_symbol
_atom_site_fract_x
_atom_site_fract_y
_atom_site_fract_z
O1	O	1.957746	-0.131156	-0.082695
O2	O	1.528243	-0.141913	-0.082697
O3	O	1.754507	-0.006420	-0.082689
O4	O	1.731483	-0.266649	-0.082703
O5	O	1.754478	-0.006412	0.082695
O6	O	1.528215	-0.141905	0.082687
O7	O	1.957718	-0.131147	0.082689
Cu8	Cu	1.742964	-0.136525	0.097789
Cu9	Cu	1.742997	-0.136535	-0.097797
O10	O	1.731455	-0.266640	0.082681
C11	C	1.753463	0.026916	0.000003
C12	C	1.750377	0.126237	0.000002
C13	C	1.473263	-0.140875	-0.000005
C14	C	1.309483	-0.137784	-0.000005
C15	C	1.732498	-0.299977	-0.000013
C16	C	1.735584	-0.399297	-0.000019
C17	C	2.012698	-0.132185	-0.000005
C18	C	2.176478	-0.135277	-0.000011
N19	N	1.742951	-0.136517	0.235353
C20	C	1.883301	0.182471	0.000003
C21	C	1.880393	0.275792	-0.000007
C22	C	1.744560	0.312877	-0.000011
C23	C	1.611626	0.256635	-0.000015
C24	C	1.614535	0.163316	-0.000012
C25	C	1.605571	0.451143	-0.000019
C26	C	1.602660	0.544468	-0.000020
C27	C	1.871428	0.563619	-0.000013
C28	C	1.874338	0.470300	-0.000010
C29	C	1.741403	0.414064	-0.000013
N30	N	1.743022	-0.136536	-0.235361
C31	C	1.843171	-0.076546	0.287397
C32	C	1.843181	-0.076546	0.391500
C33	C	1.742975	-0.136521	0.443558
C34	C	1.642744	-0.196495	0.391507
C35	C	1.642729	-0.196491	0.287405
C36	C	1.642785	-0.196501	0.608487
C37	C	1.642802	-0.196507	0.712595
C38	C	1.843237	-0.076556	0.712582
C39	C	1.843222	-0.076552	0.608480
C40	C	1.742992	-0.136527	0.556436
H41	H	1.993912	0.152285	0.000013
H42	H	1.506295	0.117530	-0.000013
H43	H	1.497321	0.405358	-0.000023
H44	H	1.561147	-0.245325	0.433898
H45	H	1.988633	0.321575	-0.000004
C46	C	2.017658	0.625480	-0.000019
N47	N	2.127793	0.672078	-0.000021
H48	H	1.561162	-0.245337	0.566116
C49	C	1.532562	-0.262478	0.769856
N50	N	1.449526	-0.312167	0.812986
C51	C	2.023761	0.429509	-0.000001
N52	N	2.136309	0.398786	0.000003
H53	H	1.501028	0.286837	-0.000025
C54	C	1.453237	0.585259	-0.000037
N55	N	1.340690	0.615983	-0.000053
C56	C	1.953407	-0.010567	0.230143
N57	N	2.036434	0.039134	0.187023
C58	C	1.953453	-0.010576	0.551219
N59	N	2.036476	0.039121	0.508090
C60	C	1.953485	-0.010579	0.769832
N61	N	2.036524	0.039111	0.812957
C62	C	1.532490	-0.262471	0.230158
N63	N	1.449456	-0.312170	0.187040
H64	H	1.924787	-0.027712	0.433874
