data_functionalizedCrystal
_audit_creation_method	'MofGen! by Chris Wilmer'
_symmetry_space_group_name_H-M	'P1'
_symmetry_Int_Tables_number	1
_symmetry_cell_setting	triclinic
loop_
_symmetry_equiv_pos_as_xyz
  x,y,z
_cell_length_a	10.723024
_cell_length_b	14.421503
_cell_length_c	10.723023
_cell_angle_alpha	89.994659
_cell_angle_beta	95.532291
_cell_angle_gamma	89.991970
loop_
_atom_site_label
_atom_site_type_symbol
_atom_site_fract_x
_atom_site_fract_y
_atom_site_fract_z
O1	O	-1.657195	0.077117	0.175010
O2	O	-1.294043	0.077117	0.191763
O3	O	-1.483996	0.077113	0.001811
O4	O	-1.467242	0.077121	0.364963
O5	O	-1.483965	-0.077110	0.001839
O6	O	-1.294012	-0.077106	0.191792
O7	O	-1.657164	-0.077106	0.175038
Cu8	Cu	-1.475585	-0.091188	0.183418
Cu9	Cu	-1.475622	0.091199	0.183384
O10	O	-1.467211	-0.077103	0.364991
C11	C	-1.247528	0.000005	0.190558
C12	C	-1.108973	0.000005	0.186911
C13	C	-1.033991	0.000007	0.293198
C14	C	-0.890787	0.000007	0.289431
N15	N	-1.475568	-0.219470	0.183440
C16	C	-1.387717	-0.469121	0.271235
C17	C	-1.500686	-0.530924	0.296421
C18	C	-1.475598	-0.408631	0.183411
C19	C	-1.362659	-0.530923	0.158254
C20	C	-1.475617	-0.591352	0.183385
C21	C	-1.588624	-0.469072	0.208654
C22	C	-1.450522	-0.469066	0.070437
C23	C	-1.563572	-0.530840	0.095576
C24	C	-1.475585	-0.303370	0.183429
C25	C	-1.475643	-0.696611	0.183366
C26	C	-0.703679	0.000005	0.176243
C27	C	-0.842234	0.000005	0.179891
C28	C	-1.482762	0.000002	-0.044675
C29	C	-1.479114	0.000005	-0.183229
N30	N	-1.475649	0.219480	0.183352
C31	C	-1.477505	0.079899	-0.245010
C32	C	-1.473735	0.079904	-0.388213
C33	C	-1.468445	0.000010	0.411477
C34	C	-1.472093	0.000013	0.550031
H35	H	-1.067152	0.000027	0.093125
H36	H	-1.637979	-0.557770	0.021292
H37	H	-1.075812	0.000005	0.386984
H38	H	-0.906659	0.000009	0.088896
H39	H	-1.473483	-0.068390	-0.396848
N40	N	-1.289366	-0.433227	0.369680
H41	H	-1.308483	-0.455733	0.454979
H42	H	-1.289549	-0.363202	0.368356
N43	N	-1.715180	-0.433240	0.236970
H44	H	-1.705265	-0.394260	0.315547
H45	H	-1.772442	-0.487315	0.249687
N46	N	-1.422370	-0.433046	-0.056064
H47	H	-1.336986	-0.455505	-0.074983
H48	H	-1.423460	-0.363022	-0.055264
H49	H	-1.267140	-0.558093	0.136988
H50	H	-1.478912	0.148295	-0.191884
H51	H	-0.826354	0.000013	0.380421
H52	H	-1.472357	0.148304	-0.441343
H53	H	-1.521914	-0.558094	0.391949
N54	N	-1.477249	-0.090601	-0.253580
H55	H	-1.398606	-0.094299	-0.298149
H56	H	-1.553105	-0.094236	-0.316986
