data_functionalizedCrystal
_audit_creation_method	'MofGen! by Chris Wilmer'
_symmetry_space_group_name_H-M	'P1'
_symmetry_Int_Tables_number	1
_symmetry_cell_setting	triclinic
loop_
_symmetry_equiv_pos_as_xyz
  x,y,z
_cell_length_a	23.532407
_cell_length_b	14.519709
_cell_length_c	13.596369
_cell_angle_alpha	90.006934
_cell_angle_beta	89.999993
_cell_angle_gamma	83.264411
loop_
_atom_site_label
_atom_site_type_symbol
_atom_site_fract_x
_atom_site_fract_y
_atom_site_fract_z
O1	O	-0.755765	-0.111951	-0.081671
O2	O	-0.589975	-0.128149	-0.081700
O3	O	-0.677266	0.014241	-0.081676
O4	O	-0.668474	-0.254340	-0.081695
O5	O	-0.677257	0.014248	0.081907
O6	O	-0.589966	-0.128142	0.081883
O7	O	-0.755756	-0.111943	0.081912
Zn8	Zn	-0.672860	-0.120041	0.107870
Zn9	Zn	-0.672871	-0.120051	-0.107658
O10	O	-0.668466	-0.254333	0.081888
C11	C	-0.568753	-0.127733	0.000088
C12	C	-0.505530	-0.126493	0.000077
C13	C	-0.776979	-0.112360	0.000122
C14	C	-0.840201	-0.113600	0.000127
C15	C	-0.106772	-0.202977	0.000116
C16	C	-0.047367	-0.201825	0.000122
O17	O	-0.010942	-0.272727	0.000153
N18	N	-0.024358	-0.117175	0.000127
C19	C	-0.060759	-0.033671	0.000135
O20	O	-0.035734	0.038437	0.000140
C21	C	-0.120164	-0.034824	0.000136
C22	C	-0.143168	-0.119480	0.000121
C23	C	-0.129777	-0.287626	0.000103
C24	C	-0.189179	-0.288778	0.000095
C25	C	-0.225575	-0.205281	0.000100
C26	C	-0.202570	-0.120631	0.000114
C27	C	-0.156563	0.048679	0.000151
C28	C	-0.215971	0.047519	0.000153
C29	C	-0.238976	-0.037137	0.000139
C30	C	-0.298367	-0.038286	0.000111
N31	N	-0.321375	-0.122936	0.000107
C32	C	-0.284979	-0.206434	0.000101
C33	C	0.063994	-0.031256	0.000135
C34	C	0.123397	-0.030102	0.000127
C35	C	0.136786	-0.198257	0.000116
C36	C	0.077382	-0.199410	0.000117
C37	C	0.040986	-0.115906	0.000130
C38	C	-0.409727	-0.208846	0.000084
C39	C	-0.469134	-0.209990	0.000072
C40	C	-0.482517	-0.041836	0.000088
C41	C	-0.423115	-0.040691	0.000095
C42	C	-0.386721	-0.124204	0.000096
O43	O	-0.334827	0.032579	0.000084
O44	O	-0.310012	-0.278529	0.000109
C45	C	-0.676852	0.048599	0.000116
C46	C	-0.675624	0.150966	0.000116
C47	C	-0.668880	-0.288692	0.000094
C48	C	-0.670107	-0.391058	0.000087
N49	N	-0.672856	-0.120034	0.254962
C50	C	-0.671104	0.525808	0.000090
C51	C	-0.672359	0.421515	0.000097
C52	C	-0.673364	0.338390	0.000104
C53	C	-0.674619	0.234091	0.000110
N54	N	-0.672880	-0.120051	-0.254750
C55	C	-0.672871	-0.120052	0.656253
C56	C	-0.672865	-0.120050	0.544601
C57	C	-0.672864	-0.120044	0.455611
C58	C	-0.672858	-0.120040	0.343952
H59	H	-0.487861	-0.278930	0.000059
C60	C	-0.397810	0.052434	0.000098
N61	N	-0.378753	0.122578	0.000109
C62	C	-0.131272	0.141809	0.000187
N63	N	-0.112224	0.211960	0.000221
H64	H	0.166431	-0.266245	0.000116
C65	C	-0.089750	-0.379489	0.000100
N66	N	-0.059604	-0.448686	0.000093
C67	C	-0.522564	0.050007	0.000105
N68	N	-0.552729	0.119183	0.000129
H69	H	0.142122	0.038834	0.000123
C70	C	0.023963	0.060611	0.000133
N71	N	-0.006185	0.129805	0.000132
H72	H	0.058656	-0.268344	0.000111
H73	H	-0.207903	-0.357714	0.000083
H74	H	-0.245602	0.115519	0.000165
H75	H	-0.380101	-0.276850	0.000088
