data_functionalizedCrystal
_audit_creation_method	'MofGen! by Chris Wilmer'
_symmetry_space_group_name_H-M	'P1'
_symmetry_Int_Tables_number	1
_symmetry_cell_setting	triclinic
loop_
_symmetry_equiv_pos_as_xyz
  x,y,z
_cell_length_a	17.699083
_cell_length_b	14.044220
_cell_length_c	16.176319
_cell_angle_alpha	89.992517
_cell_angle_beta	89.998611
_cell_angle_gamma	88.235946
loop_
_atom_site_label
_atom_site_type_symbol
_atom_site_fract_x
_atom_site_fract_y
_atom_site_fract_z
O1	O	1.012346	0.119850	-0.068632
O2	O	0.793044	0.135443	-0.068659
O3	O	0.899403	-0.010330	-0.068638
O4	O	0.905987	0.265624	-0.068653
O5	O	0.899387	-0.010340	0.068855
O6	O	0.793027	0.135434	0.068834
O7	O	1.012330	0.119841	0.068861
Cu8	Cu	0.902677	0.127637	0.081402
Cu9	Cu	0.902696	0.127648	-0.081200
O10	O	0.905970	0.265614	0.068840
C11	C	0.764800	0.134880	0.000084
C12	C	0.680666	0.133204	0.000074
C13	C	0.637948	0.218769	0.000069
C14	C	0.558895	0.217189	0.000080
C15	C	0.522563	0.130041	0.000089
C16	C	0.565287	0.044469	0.000096
C17	C	0.644338	0.046050	0.000092
C18	C	0.246484	0.038089	0.000117
C19	C	0.167427	0.036514	0.000120
C20	C	0.161041	0.209227	0.000106
C21	C	0.240092	0.210809	0.000101
C22	C	0.282809	0.125237	0.000112
C23	C	0.368527	0.126952	0.000102
C24	C	0.436847	0.128325	0.000094
C25	C	0.896513	-0.045643	0.000109
C26	C	0.887917	-0.150849	0.000109
C27	C	0.872202	-0.343474	0.000095
C28	C	0.933168	-0.401248	0.000100
C29	C	0.924424	-0.508431	0.000092
C30	C	0.880945	-0.236281	0.000102
C31	C	1.040574	0.120404	0.000116
C32	C	1.124707	0.122081	0.000121
C33	C	0.908860	0.300927	0.000091
C34	C	0.917456	0.406133	0.000086
N35	N	0.902668	0.127628	0.195767
N36	N	0.902710	0.127648	-0.195565
C37	C	0.949782	0.063106	0.239041
C38	C	0.949786	0.063105	0.325588
C39	C	0.902679	0.127632	0.368860
C40	C	0.855561	0.192157	0.325580
C41	C	0.855554	0.192153	0.239034
C42	C	0.855588	0.192175	0.674608
C43	C	0.855600	0.192176	0.761160
C44	C	0.949820	0.063127	0.761161
C45	C	0.949813	0.063123	0.674616
C46	C	0.902692	0.127644	0.631344
C47	C	0.902687	0.127643	0.537500
C48	C	0.902687	0.127638	0.462702
H49	H	0.281255	-0.031590	0.000127
H50	H	0.991930	-0.370212	0.000052
H51	H	0.813445	-0.374508	0.000085
O52	O	0.995631	0.000403	0.367495
C53	C	1.037201	-0.056557	0.310744
H54	H	1.040661	-0.017704	0.249044
H55	H	1.007892	-0.126933	0.301558
C56	C	1.113276	-0.123911	0.420290
C57	C	1.117531	-0.076188	0.344511
H58	H	1.162826	-0.136025	0.441119
H59	H	1.085268	-0.085539	0.458525
H60	H	1.088848	-0.182553	0.412624
H61	H	1.141949	-0.017543	0.352179
H62	H	1.145545	-0.114551	0.306277
H63	H	0.679119	-0.023626	0.000095
H64	H	0.535699	-0.026488	0.000116
O65	O	0.995418	0.000347	0.196938
C66	C	0.950913	-0.058073	0.146933
H67	H	0.894261	-0.020199	0.133949
H68	H	0.941013	-0.128079	0.180332
C69	C	1.061780	-0.125002	0.080679
C70	C	0.992202	-0.078481	0.064727
H71	H	1.087249	-0.137595	0.029972
H72	H	1.091764	-0.085647	0.114370
H73	H	1.053520	-0.183335	0.108514
H74	H	1.000463	-0.020144	0.036902
H75	H	0.962220	-0.117828	0.031029
H76	H	0.667523	0.289735	0.000061
O77	O	0.995593	0.000350	0.632711
C78	C	1.037192	-0.056586	0.689465
H79	H	1.006101	-0.057605	0.751163
H80	H	1.095486	-0.025903	0.698655
C81	C	1.084071	-0.157602	0.579923
C82	C	1.045882	-0.158860	0.655700
H83	H	1.089435	-0.220688	0.559094
H84	H	1.056048	-0.119242	0.541686
H85	H	1.132646	-0.132028	0.587592
H86	H	0.997305	-0.184422	0.648028
H87	H	1.073897	-0.197227	0.693935
O88	O	0.275295	0.295525	-0.000020
C89	C	0.254043	0.347668	-0.071242
H90	H	0.197557	0.321961	-0.094977
H91	H	0.298976	0.336593	-0.121107
C92	C	0.315815	0.485886	-0.020466
C93	C	0.246434	0.454318	-0.049614
H94	H	0.311124	0.551673	-0.007127
H95	H	0.330135	0.450756	0.027516
H96	H	0.353252	0.476649	-0.062026
H97	H	0.209001	0.463544	-0.008051
H98	H	0.232107	0.489452	-0.097589
O99	O	0.132098	-0.048123	-0.000012
C100	C	0.086549	-0.054195	-0.071209
H101	H	0.108562	-0.004717	-0.120988
H102	H	0.025781	-0.032185	-0.055113
C103	C	0.062110	-0.218164	-0.042343
C104	C	0.089151	-0.157401	-0.103485
H105	H	0.063711	-0.281827	-0.062251
H106	H	0.092795	-0.214073	0.005626
H107	H	0.011472	-0.199811	-0.028935
H108	H	0.139791	-0.175746	-0.116885
H109	H	0.058474	-0.161497	-0.151457
O110	O	0.809763	0.254890	0.803067
C111	C	0.768182	0.311852	0.746317
H112	H	0.764700	0.272996	0.684629
H113	H	0.797494	0.382224	0.737099
C114	C	0.692144	0.379223	0.855874
C115	C	0.687862	0.331496	0.780110
H116	H	0.642600	0.391345	0.876720
H117	H	0.720159	0.340850	0.894109
H118	H	0.716574	0.437861	0.848182
H119	H	0.663441	0.272855	0.787805
H120	H	0.659841	0.369860	0.741878
O121	O	0.809931	0.254901	0.632494
C122	C	0.854403	0.313322	0.582438
H123	H	0.911066	0.275473	0.569461
H124	H	0.864284	0.383352	0.615790
C125	C	0.743500	0.380151	0.516177
C126	C	0.813091	0.333661	0.500232
H127	H	0.718015	0.392701	0.465469
H128	H	0.713537	0.340795	0.549902
H129	H	0.751744	0.438504	0.543972
H130	H	0.804845	0.275304	0.472447
H131	H	0.843051	0.373008	0.466500
H132	H	0.817202	0.244692	0.360817
O133	O	0.119430	0.292267	0.000139
C134	C	0.041867	0.272192	0.000128
H135	H	0.033814	0.197759	0.026168
H136	H	0.019279	0.275837	-0.065833
C137	C	0.008420	0.437304	0.022059
C138	C	-0.001471	0.345888	0.054049
H139	H	-0.018314	0.482765	0.055316
H140	H	0.060676	0.450831	0.022064
H141	H	-0.010403	0.440329	-0.032908
H142	H	0.017361	0.342861	0.109010
H143	H	-0.053725	0.332362	0.054055
O144	O	0.809768	0.254923	0.197124
C145	C	0.768178	0.311863	0.253872
H146	H	0.799282	0.312890	0.315561
H147	H	0.709888	0.281176	0.263090
C148	C	0.721272	0.412864	0.144313
C149	C	0.759477	0.414132	0.220078
H150	H	0.715901	0.475948	0.123466
H151	H	0.749289	0.374501	0.106079
H152	H	0.672701	0.387287	0.152005
H153	H	0.808051	0.439697	0.212383
H154	H	0.731468	0.452502	0.258309
H155	H	0.524117	0.286865	0.000075
H156	H	0.988186	0.010587	0.796403
