data_functionalizedCrystal
_audit_creation_method	'MofGen! by Chris Wilmer'
_symmetry_space_group_name_H-M	'P1'
_symmetry_Int_Tables_number	1
_symmetry_cell_setting	triclinic
loop_
_symmetry_equiv_pos_as_xyz
  x,y,z
_cell_length_a	16.109301
_cell_length_b	16.992695
_cell_length_c	14.586319
_cell_angle_alpha	89.995905
_cell_angle_beta	89.999213
_cell_angle_gamma	87.064852
loop_
_atom_site_label
_atom_site_type_symbol
_atom_site_fract_x
_atom_site_fract_y
_atom_site_fract_z
O1	O	1.109856	0.100784	-0.076183
O2	O	1.609856	0.600784	0.423817
O3	O	0.868631	0.113326	-0.076198
O4	O	1.368631	0.613326	0.423802
O5	O	0.988277	-0.007087	-0.076183
O6	O	1.488277	0.492913	0.423817
O7	O	0.990211	0.221197	-0.076198
O8	O	1.490211	0.721197	0.423802
O9	O	0.988268	-0.007089	0.076298
O10	O	1.488268	0.492911	0.576298
O11	O	0.868622	0.113324	0.076283
O12	O	1.368622	0.613324	0.576283
O13	O	1.109847	0.100782	0.076298
O14	O	1.609847	0.600782	0.576298
Cu15	Cu	0.989234	0.107053	0.090213
Cu16	Cu	1.489234	0.607053	0.590213
Cu17	Cu	0.989244	0.107055	-0.090113
Cu18	Cu	1.489244	0.607055	0.409887
O19	O	0.990202	0.221196	0.076283
O20	O	1.490202	0.721196	0.576283
C21	C	0.837618	0.112817	0.000041
C22	C	1.337618	0.612817	0.500041
C23	C	0.745221	0.111294	0.000035
C24	C	1.245221	0.611294	0.500035
C25	C	0.527480	0.179203	0.000042
C26	C	1.027480	0.679203	0.500042
C27	C	0.440664	0.177766	0.000048
C28	C	0.940664	0.677766	0.500048
C29	C	0.451005	0.034899	0.000053
C30	C	0.951005	0.534899	0.500053
C31	C	0.537819	0.036337	0.000054
C32	C	1.037819	0.536337	0.500054
C33	C	0.576055	0.108492	0.000043
C34	C	1.076055	0.608492	0.500043
C35	C	0.402424	0.105616	0.000049
C36	C	0.902424	0.605616	0.500049
C37	C	0.308294	0.104057	0.000055
C38	C	0.808294	0.604057	0.500055
C39	C	0.670191	0.110051	0.000039
C40	C	1.170191	0.610051	0.500039
C41	C	0.985784	-0.036300	0.000057
C42	C	1.485784	0.463700	0.500057
C43	C	0.978361	-0.123343	0.000056
C44	C	1.478361	0.376657	0.500056
C45	C	1.049987	-0.173601	0.000062
C46	C	1.549987	0.326399	0.500062
C47	C	1.043007	-0.255386	0.000052
C48	C	1.543007	0.244614	0.500052
C49	C	0.964400	-0.286911	0.000045
C50	C	1.464400	0.213089	0.500045
C51	C	0.892768	-0.236645	0.000037
C52	C	1.392768	0.263355	0.500037
C53	C	0.899749	-0.154862	0.000039
C54	C	1.399749	0.345138	0.500039
C55	C	0.935467	-0.530501	0.000030
C56	C	1.435467	-0.030501	0.500030
C57	C	0.928491	-0.612291	0.000030
C58	C	1.428491	-0.112291	0.500030
C59	C	1.078731	-0.631026	0.000045
C60	C	1.578731	-0.131026	0.500045
C61	C	1.085704	-0.549240	0.000053
C62	C	1.585704	-0.049240	0.500053
C63	C	1.014073	-0.498982	0.000040
C64	C	1.514073	0.001018	0.500040
N65	N	0.957263	-0.370508	0.000038
N66	N	1.457263	0.129492	0.500038
N67	N	1.021210	-0.415387	0.000040
N68	N	1.521210	0.084613	0.500040
C69	C	1.140860	0.101291	0.000057
C70	C	1.640860	0.601291	0.500057
C71	C	1.233257	0.102814	0.000057
C72	C	1.733257	0.602814	0.500057
C73	C	0.992694	0.250408	0.000041
C74	C	1.492694	0.750408	0.500041
C75	C	1.000118	0.337451	0.000036
C76	C	1.500118	0.837451	0.500036
N77	N	0.989232	0.107051	0.217045
N78	N	1.489232	0.607051	0.717045
N79	N	0.989252	0.107051	-0.216945
N80	N	1.489252	0.607051	0.283055
C81	C	1.042231	0.053750	0.452058
C82	C	1.542231	0.553750	0.952058
C83	C	1.042233	0.053748	0.548039
C84	C	1.542233	0.553748	1.048039
C85	C	0.936247	0.160355	0.548036
C86	C	1.436247	0.660355	1.048036
C87	C	0.936241	0.160352	0.452056
C88	C	1.436241	0.660352	0.952056
C89	C	0.989238	0.107051	0.404070
C90	C	1.489238	0.607051	0.904070
C91	C	0.989246	0.107051	0.596030
C92	C	1.489246	0.607051	1.096030
C93	C	0.989248	0.107050	0.700098
C94	C	1.489248	0.607050	1.200098
C95	C	0.989235	0.107051	0.299996
C96	C	1.489235	0.607051	0.799996
H97	H	0.577371	-0.021248	0.000057
H98	H	1.077371	0.478752	0.500057
H99	H	0.828765	-0.262319	0.000024
H100	H	1.328765	0.237681	0.500024
F101	F	0.388970	0.253027	0.000048
F102	F	0.888970	0.753027	0.500048
H103	H	1.137048	-0.671954	0.000053
H104	H	1.637048	-0.171954	0.500053
H105	H	1.113997	-0.147941	0.000074
H106	H	1.613997	0.352059	0.500074
F107	F	0.568170	0.255996	0.000035
F108	F	1.068170	0.755996	0.500035
F109	F	0.410304	-0.041888	0.000060
F110	F	0.910304	0.458112	0.500060
F111	F	0.859229	-0.477023	0.000014
F112	F	1.359229	0.022977	0.500014
H113	H	0.893084	0.203757	0.412982
H114	H	1.393084	0.703757	0.912982
H115	H	0.841423	-0.113942	0.000035
H116	H	1.341423	0.386058	0.500035
H117	H	1.101332	-0.296304	0.000059
H118	H	1.601332	0.203696	0.500059
H119	H	1.149714	-0.523580	0.000059
H120	H	1.649714	-0.023580	0.500059
H121	H	0.864477	-0.637954	0.000039
H122	H	1.364477	-0.137954	0.500039
F123	F	1.098633	-0.002981	0.400991
F124	F	1.598633	0.497019	0.900991
H125	H	1.085384	0.010345	0.587108
H126	H	1.585384	0.510345	1.087108
F127	F	0.879849	0.217081	0.599112
F128	F	1.379849	0.717081	1.099112
