data_functionalizedCrystal
_audit_creation_method	'MofGen! by Chris Wilmer'
_symmetry_space_group_name_H-M	'P1'
_symmetry_Int_Tables_number	1
_symmetry_cell_setting	triclinic
loop_
_symmetry_equiv_pos_as_xyz
  x,y,z
_cell_length_a	21.395362
_cell_length_b	12.759394
_cell_length_c	21.395355
_cell_angle_alpha	90.012883
_cell_angle_beta	90.043940
_cell_angle_gamma	90.029736
loop_
_atom_site_label
_atom_site_type_symbol
_atom_site_fract_x
_atom_site_fract_y
_atom_site_fract_z
Zn1	Zn	0.957933	-0.417943	0.354610
Zn2	Zn	0.957866	-0.593608	0.249843
Zn3	Zn	0.853148	-0.417992	0.249811
Zn4	Zn	0.853148	-0.593629	0.354548
O5	O	0.905524	-0.505793	0.302203
O6	O	1.045602	-0.441216	0.340752
O7	O	0.943947	-0.570323	0.162161
O8	O	0.867076	-0.270964	0.263726
O9	O	1.045553	-0.570276	0.263780
O10	O	0.944061	-0.270928	0.340721
O11	O	0.867011	-0.441299	0.162138
O12	O	0.765470	-0.441320	0.263666
O13	O	0.867076	-0.570313	0.442234
O14	O	0.765470	-0.570360	0.340615
O15	O	0.944061	-0.441237	0.442280
O16	O	0.943947	-0.740631	0.263719
O17	O	0.867011	-0.740647	0.340645
C18	C	0.742736	-0.505848	0.302130
C19	C	0.673095	-0.505897	0.302114
C20	C	0.640398	-0.573178	0.342122
C21	C	0.574963	-0.573152	0.342150
C22	C	0.542226	-0.505857	0.302159
C23	C	0.574931	-0.438564	0.262148
C24	C	0.640365	-0.438584	0.262126
C25	C	0.438500	-0.497393	0.245753
C26	C	0.373067	-0.497380	0.245774
C27	C	0.340406	-0.505788	0.302228
C28	C	0.373185	-0.514231	0.358662
C29	C	0.438619	-0.514252	0.358640
C30	C	0.471274	-0.505827	0.302179
C31	C	0.236756	-0.573044	0.342269
C32	C	0.171320	-0.573011	0.342298
C33	C	0.171290	-0.438429	0.262291
C34	C	0.236725	-0.438456	0.262268
C35	C	0.269454	-0.505770	0.302256
C36	C	0.905489	-0.778760	0.302193
C37	C	0.905531	-0.895537	0.302209
C38	C	0.985636	-0.895341	0.382444
C39	C	1.025708	-0.950104	0.422567
C40	C	1.025745	-1.059826	0.422580
C41	C	0.985705	-1.114787	0.382468
C42	C	0.945633	-1.060024	0.342346
C43	C	0.945601	-0.950300	0.342336
C44	C	0.865526	-1.060220	0.262115
C45	C	0.865491	-0.950498	0.262097
C46	C	0.825485	-1.115181	0.222003
C47	C	0.785415	-1.060418	0.181877
C48	C	0.785380	-0.950690	0.181865
C49	C	0.825419	-0.895735	0.221975
C50	C	1.068947	-0.505738	0.302276
C51	C	1.138588	-0.505714	0.302308
C52	C	0.905576	-0.505772	0.465626
C53	C	0.905598	-0.505762	0.535268
C54	C	0.905576	-0.231759	0.302227
C55	C	0.905598	-0.114983	0.302237
C56	C	0.905508	-0.505738	0.139415
C57	C	0.905607	-0.505451	0.069775
C58	C	0.945682	-0.438550	0.568006
C59	C	0.945681	-0.438505	0.633441
C60	C	0.905603	-0.505691	0.666136
C61	C	0.865510	-0.572908	0.633390
C62	C	0.865508	-0.572944	0.567956
C63	C	0.900643	-0.600292	0.769806
C64	C	0.900650	-0.600258	0.835239
C65	C	0.905607	-0.505580	0.867957
C66	C	0.910569	-0.410933	0.835234
C67	C	0.910567	-0.410968	0.769800
C68	C	0.905601	-0.505659	0.737089
C69	C	0.945692	-0.438313	0.971648
C70	C	0.945687	-0.438266	1.037084
C71	C	0.865519	-0.572679	1.037032
C72	C	0.865521	-0.572716	0.971597
C73	C	0.905611	-0.505535	0.938908
H74	H	0.346594	-0.521076	0.404632
C75	C	0.915853	-0.308032	0.870662
C76	C	0.865575	-0.243129	0.854682
C77	C	0.870427	-0.148325	0.887299
H78	H	0.915116	-0.321399	0.914329
H79	H	0.953987	-0.274370	0.859951
H80	H	0.827452	-0.276783	0.865397
H81	H	0.866302	-0.229732	0.811020
H82	H	0.908560	-0.114664	0.876588
H83	H	0.869691	-0.161703	0.930965
H84	H	0.836318	-0.104274	0.876457
C85	C	0.825409	-1.234308	0.221947
C86	C	0.781757	-1.270715	0.178244
C87	C	0.781664	-1.380449	0.178178
H88	H	0.865816	-1.259196	0.211137
H89	H	0.814536	-1.259161	0.262359
H90	H	0.792633	-1.245873	0.137841
H91	H	0.741344	-1.245856	0.189043
H92	H	0.770791	-1.405302	0.218590
H93	H	0.822073	-1.405327	0.167369
H94	H	0.752043	-1.405166	0.148530
C95	C	0.272328	-0.646245	0.385584
C96	C	0.309811	-0.713533	0.350027
C97	C	0.342579	-0.780988	0.389908
H98	H	0.297954	-0.606254	0.412927
H99	H	0.243499	-0.686367	0.409408
H100	H	0.338636	-0.673415	0.326214
H101	H	0.284200	-0.753546	0.322686
H102	H	0.313750	-0.821110	0.413732
H103	H	0.368202	-0.740988	0.417248
H104	H	0.368010	-0.826657	0.365788
C105	C	1.069312	-1.119100	0.466172
C106	C	1.104377	-1.047491	0.501291
C107	C	1.144520	-1.102055	0.541450
H108	H	1.045410	-1.161926	0.493499
H109	H	1.096671	-1.161853	0.442259
H110	H	1.077022	-1.004756	0.525202
H111	H	1.128292	-1.004662	0.473980
H112	H	1.171878	-1.144808	0.517537
H113	H	1.120612	-1.144879	0.568773
H114	H	1.168320	-1.053477	0.565279
H115	H	0.825397	-0.806394	0.221966
H116	H	0.548273	-0.383770	0.229589
H117	H	0.985615	-0.806000	0.382432
H118	H	0.465088	-0.490542	0.199779
C119	C	0.135736	-0.646122	0.385636
C120	C	0.098087	-0.713334	0.350102
C121	C	0.065292	-0.780689	0.390004
H122	H	0.164530	-0.686314	0.409461
H123	H	0.110223	-0.606022	0.412978
H124	H	0.123598	-0.753430	0.322771
H125	H	0.069282	-0.673171	0.326279
H126	H	0.039779	-0.740589	0.417346
H127	H	0.094090	-0.820873	0.413827
H128	H	0.039739	-0.826293	0.365901
C129	C	0.822091	-0.645989	0.532327
C130	C	0.857556	-0.713319	0.494783
C131	C	0.817583	-0.780615	0.461944
H132	H	0.798204	-0.686098	0.561095
H133	H	0.794810	-0.605852	0.506740
H134	H	0.884826	-0.753453	0.520368
H135	H	0.881442	-0.673240	0.466003
H136	H	0.790302	-0.740478	0.436357
H137	H	0.793698	-0.820717	0.490717
H138	H	0.841640	-0.826300	0.436463
H139	H	0.896440	-0.677371	0.743172
H140	H	1.058307	-0.905346	0.455227
C141	C	0.989159	-0.365685	0.532403
C142	C	0.980581	-0.380102	0.468091
C143	C	1.020617	-0.312991	0.435273
H144	H	0.980025	-0.295061	0.543053
H145	H	1.031274	-0.381023	0.543112
H146	H	0.938475	-0.364757	0.457386
H147	H	0.989720	-0.450712	0.457423
H148	H	1.062732	-0.328328	0.445982
H149	H	1.011480	-0.242371	0.445928
H150	H	1.014807	-0.322770	0.391634
H151	H	0.752815	-1.105176	0.149224
H152	H	0.346383	-0.490512	0.199822
H153	H	0.752746	-0.906107	0.149195
C154	C	0.675755	-0.365499	0.218614
C155	C	0.633085	-0.306573	0.183587
C156	C	0.665665	-0.239249	0.143490
H157	H	0.701332	-0.319699	0.242548
H158	H	0.701218	-0.405611	0.191231
H159	H	0.607633	-0.266464	0.210967
H160	H	0.607506	-0.352345	0.159640
H161	H	0.691127	-0.279360	0.116106
H162	H	0.691240	-0.193456	0.167429
H163	H	0.636718	-0.199266	0.119715
H164	H	0.465306	-0.521123	0.404590
H165	H	0.896613	-0.677326	0.861876
H166	H	0.985733	-1.204128	0.382488
H167	H	0.144636	-0.383631	0.229733
C168	C	0.989275	-0.365491	0.668883
C169	C	1.024393	-0.306682	0.626250
C170	C	1.064563	-0.239424	0.658873
H171	H	0.965390	-0.319614	0.694392
H172	H	1.016598	-0.405644	0.694416
H173	H	0.997073	-0.266532	0.600728
H174	H	1.048290	-0.352532	0.600739
H175	H	1.091887	-0.279577	0.684407
H176	H	1.040673	-0.193553	0.684382
H177	H	1.088399	-0.199521	0.629953
C178	C	0.989234	-0.365251	0.936265
C179	C	1.024323	-0.306349	0.978945
C180	C	1.064433	-0.239024	0.946376
H181	H	1.016582	-0.405327	0.910761
H182	H	0.965287	-0.319443	0.910731
H183	H	1.048268	-0.352151	1.004469
H184	H	0.996991	-0.266251	1.004451
H185	H	1.040486	-0.193215	0.920842
H186	H	1.091778	-0.279108	0.920873
H187	H	1.088242	-0.199044	0.975329
C188	C	0.272115	-0.365375	0.218757
C189	C	0.229444	-0.306452	0.183728
C190	C	0.262022	-0.239124	0.143633
H191	H	0.297690	-0.319573	0.242692
H192	H	0.297580	-0.405483	0.191374
H193	H	0.203990	-0.266348	0.211107
H194	H	0.203868	-0.352227	0.159780
H195	H	0.287487	-0.279231	0.116250
H196	H	0.287596	-0.193328	0.167573
H197	H	0.233075	-0.199143	0.119857
C198	C	0.989102	-0.365147	1.072661
C199	C	0.953639	-0.297772	1.110178
C200	C	0.993610	-0.230387	1.142953
H201	H	1.016407	-0.405184	1.098265
H202	H	1.012963	-0.325084	1.043836
H203	H	0.929788	-0.337830	1.138999
H204	H	0.926335	-0.257711	1.084589
H205	H	1.017471	-0.190325	1.114128
H206	H	1.020913	-0.270433	1.168553
H207	H	0.969554	-0.184659	1.168407
H208	H	0.914606	-0.333904	0.743160
C209	C	0.822078	-0.645595	1.072634
C210	C	0.830671	-0.631201	1.136947
C211	C	0.790670	-0.698367	1.169766
H212	H	0.779955	-0.630317	1.061956
H213	H	0.831247	-0.716208	1.061955
H214	H	0.821498	-0.560604	1.147621
H215	H	0.872785	-0.646487	1.147643
H216	H	0.799838	-0.768980	1.159086
H217	H	0.748550	-0.683083	1.159083
H218	H	0.796498	-0.688616	1.213405
C219	C	0.821979	-0.645813	0.936161
C220	C	0.786889	-0.704661	0.978796
C221	C	0.746774	-0.772017	0.946177
H222	H	0.794632	-0.605761	0.910611
H223	H	0.845922	-0.691653	0.910668
H224	H	0.762948	-0.658827	1.004278
H225	H	0.814220	-0.744735	1.004348
H226	H	0.770717	-0.817858	0.920684
H227	H	0.719430	-0.731957	0.920628
H228	H	0.722964	-0.811961	0.975100
C229	C	0.821929	-0.645897	0.668771
C230	C	0.786811	-0.704751	0.626092
C231	C	0.746648	-0.771988	0.658661
H232	H	0.845819	-0.691746	0.694318
H233	H	0.794605	-0.605726	0.694263
H234	H	0.814132	-0.744920	0.600611
H235	H	0.762908	-0.658930	0.600543
H236	H	0.719324	-0.731817	0.684152
H237	H	0.770543	-0.817831	0.684207
H238	H	0.722812	-0.811922	0.629708
C239	C	0.675819	-0.646291	0.385609
C240	C	0.633174	-0.705188	0.420664
C241	C	0.665782	-0.772539	0.460738
H242	H	0.701303	-0.692109	0.361657
H243	H	0.701377	-0.606201	0.412976
H244	H	0.607626	-0.745275	0.393300
H245	H	0.607689	-0.659398	0.444629
H246	H	0.691340	-0.732449	0.488105
H247	H	0.691264	-0.818350	0.436780
H248	H	0.636852	-0.812502	0.484531
H249	H	0.548336	-0.627939	0.374731
