data_functionalizedCrystal
_audit_creation_method	'MofGen! by Chris Wilmer'
_symmetry_space_group_name_H-M	'P1'
_symmetry_Int_Tables_number	1
_symmetry_cell_setting	triclinic
loop_
_symmetry_equiv_pos_as_xyz
  x,y,z
_cell_length_a	23.096457
_cell_length_b	16.704486
_cell_length_c	16.704493
_cell_angle_alpha	60.347015
_cell_angle_beta	94.161640
_cell_angle_gamma	57.657450
loop_
_atom_site_label
_atom_site_type_symbol
_atom_site_fract_x
_atom_site_fract_y
_atom_site_fract_z
Zr1	Zr	0.498860	0.947564	-0.174344
O2	O	0.389510	1.128162	-0.315651
O3	O	0.539436	0.766966	-0.121909
O4	O	0.520471	0.947566	-0.302509
O5	O	0.415412	0.947559	-0.002961
O6	O	0.615751	0.947569	-0.302514
O7	O	0.408476	0.947561	-0.135050
O8	O	0.649676	0.624507	0.020546
O9	O	0.381486	1.270621	-0.326021
O10	O	0.619325	0.841250	-0.110565
O11	O	0.553395	0.841247	-0.011984
O12	O	0.531066	1.053881	-0.224618
O13	O	0.465136	1.053878	-0.126037
Zr14	Zr	0.661884	0.947565	0.036316
Zr15	Zr	0.650821	0.947568	-0.174352
Zr16	Zr	0.509923	0.947561	0.036324
Zr17	Zr	0.486063	1.174770	-0.190885
Zr18	Zr	0.674681	0.720359	0.052856
O19	O	0.621308	1.128163	-0.016119
O20	O	0.605578	1.128167	-0.315662
O21	O	0.405240	1.128158	-0.016108
O22	O	0.771234	0.766967	0.177622
O23	O	0.755504	0.766971	-0.121921
O24	O	0.555166	0.766962	0.177633
O25	O	0.745332	0.947570	-0.135068
O26	O	0.640273	0.947563	0.164481
O27	O	0.544993	0.947560	0.164486
O28	O	0.752269	0.947568	-0.002978
O29	O	0.502274	1.270624	-0.326028
O30	O	0.658470	0.624505	0.187999
O31	O	0.779258	0.624508	0.187993
O32	O	0.770465	0.624510	0.020540
O33	O	0.390279	1.270619	-0.158569
O34	O	0.511068	1.270622	-0.158575
O35	O	0.629678	0.841248	0.086589
O36	O	0.695608	0.841251	-0.011992
O37	O	0.607349	1.053882	-0.126044
O38	O	0.541419	1.053879	-0.027464
C39	C	0.596380	0.663365	-0.048325
C40	C	0.601812	0.566910	-0.041303
C41	C	0.490548	0.542645	-0.185100
C42	C	0.495650	0.452022	-0.178508
C43	C	0.617118	0.295040	-0.021532
C44	C	0.612017	0.385663	-0.028124
C45	C	0.548729	0.509465	-0.109910
C46	C	0.543626	0.600089	-0.116497
C47	C	0.665097	0.443107	0.040475
C48	C	0.670198	0.352484	0.047067
C49	C	0.390293	0.947560	-0.069004
C50	C	0.325781	0.947558	-0.069001
C51	C	0.341545	0.836570	-0.009476
C52	C	0.280930	0.836569	-0.009472
C53	C	0.204550	0.947561	-0.069012
C54	C	0.188787	1.058563	-0.128540
C55	C	0.249403	1.058562	-0.128534
N56	N	0.072703	1.030179	-0.158775
N57	N	0.015124	1.030173	-0.158777
C58	C	0.021916	0.947572	-0.069030
N59	N	0.088469	0.864959	0.020720
N60	N	0.146055	0.864961	0.020721
C61	C	0.138817	0.947575	-0.069024
C62	C	-0.028043	0.836575	-0.009495
C63	C	-0.088661	0.836578	-0.009489
C64	C	-0.180804	1.058575	-0.128566
C65	C	-0.120186	1.058569	-0.128563
C66	C	-0.043807	0.947566	-0.069030
C67	C	0.770452	0.947569	-0.069024
C68	C	0.834963	0.947571	-0.069028
C69	C	0.566534	0.947568	-0.332528
C70	C	0.561838	0.947569	-0.421962
C71	C	0.564365	1.231764	-0.089704
C72	C	0.558932	1.328219	-0.096726
C73	C	0.658016	0.947551	-0.590012
C74	C	0.653607	0.947552	-0.674043
C75	C	0.548613	0.947563	-0.674052
C76	C	0.553023	0.947562	-0.590021
C77	C	0.607726	0.947558	-0.548005
C78	C	0.612131	0.947566	-0.463977
C79	C	0.507142	0.947568	-0.463982
C80	C	0.502732	0.947569	-0.548013
C81	C	0.594210	0.947561	0.194499
C82	C	0.598906	0.947560	0.283933
C83	C	0.786459	0.663369	-0.048335
C84	C	0.856403	0.566916	-0.041316
C85	C	0.610217	0.663361	0.215189
C86	C	0.620346	0.566905	0.311644
C87	C	0.800297	0.663366	0.215179
C88	C	0.874937	0.566912	0.311631
C89	C	0.360447	1.231763	-0.353207
C90	C	0.285807	1.328217	-0.449660
C91	C	0.374285	1.231760	-0.089694
C92	C	0.304341	1.328213	-0.096712
C93	C	0.550527	1.231768	-0.353217
C94	C	0.540398	1.328224	-0.449673
C95	C	0.849430	0.521621	-0.089483
C96	C	0.915143	0.431005	-0.082909
C97	C	0.987828	0.385681	-0.028162
C98	C	0.994799	0.430985	0.020006
C99	C	0.929087	0.521605	0.013426
C100	C	0.664922	0.521609	0.408404
C101	C	0.674437	0.430991	0.499042
C102	C	0.639379	0.385665	0.492918
C103	C	0.594797	0.430970	0.396148
C104	C	0.585279	0.521593	0.305512
C105	C	0.944410	0.521617	0.305468
C106	C	1.014547	0.431001	0.396086
C107	C	1.015210	0.385674	0.492867
C108	C	0.945730	0.430978	0.499028
C109	C	0.875594	0.521599	0.408410
C110	C	0.216333	1.373523	-0.443497
C111	C	0.146194	1.464168	-0.534118
C112	C	0.145531	1.509499	-0.630899
C113	C	0.215012	1.464190	-0.637059
C114	C	0.285149	1.373553	-0.546440
C115	C	0.311313	1.373518	-0.048555
C116	C	0.245598	1.464159	-0.055154
C117	C	0.172912	1.509486	-0.109905
C118	C	0.165942	1.464177	-0.158068
C119	C	0.231655	1.373544	-0.151475
C120	C	0.575466	1.373521	-0.443515
C121	C	0.565964	1.464140	-0.534137
C122	C	0.521388	1.509466	-0.630916
C123	C	0.486319	1.464159	-0.637071
C124	C	0.495827	1.373536	-0.546450
H125	H	0.668650	0.194230	0.045045
O126	O	0.252240	1.508317	-0.008448
C127	C	0.178662	1.598012	-0.025977
H128	H	0.132592	1.637683	-0.098371
H129	H	0.174748	1.674230	-0.037396
H130	H	0.169147	1.554655	0.043658
H131	H	0.566256	0.394052	0.391177
O132	O	0.443122	1.508009	-0.731051
C133	C	0.475271	1.411312	-0.734800
H134	H	0.538978	1.334259	-0.675979
H135	H	0.469105	1.445900	-0.815921
H136	H	0.443727	1.375587	-0.715533
O137	O	-0.073214	0.728648	0.048361
C138	C	0.007199	0.630681	0.100922
H139	H	0.035573	0.663224	0.058195
H140	H	0.019869	0.553059	0.103794
H141	H	0.031177	0.596541	0.183278
H142	H	0.712469	0.416095	0.101704
O143	O	0.415779	0.728855	0.048271
C144	C	0.465905	0.752647	0.035540
H145	H	0.433268	0.848035	-0.040902
H146	H	0.516336	0.681754	0.034815
H147	H	0.488644	0.747389	0.102409
H148	H	0.594521	1.501019	-0.529106
O149	O	0.296370	0.728641	0.048374
C150	C	0.376782	0.630668	0.100944
H151	H	0.405162	0.663204	0.058225
H152	H	0.389452	0.553048	0.103814
H153	H	0.400756	0.596529	0.183300
H154	H	0.458196	0.947568	-0.582230
H155	H	0.341715	1.336666	-0.551469
O156	O	0.648660	0.297513	0.580903
C157	C	0.684095	0.192645	0.588413
H158	H	0.673381	0.219999	0.507952
H159	H	0.658736	0.148770	0.622550
H160	H	0.748820	0.124366	0.640809
H161	H	0.819029	0.558466	0.413443
H162	H	0.702552	0.947560	-0.555809
O163	O	1.081974	0.387218	0.389939
C164	C	1.081559	0.483949	0.331055
H165	H	1.019448	0.574598	0.278099
H166	H	1.111568	0.470300	0.282074
H167	H	1.113327	0.485167	0.385374
O168	O	0.114573	1.166348	-0.186505
C169	C	0.073126	1.172975	-0.259194
H170	H	0.115005	1.109991	-0.273732
H171	H	0.030472	1.271145	-0.335059
H172	H	0.040386	1.143151	-0.227572
H173	H	0.693473	0.558503	0.413410
H174	H	1.041329	0.311891	-0.022810
H175	H	0.694559	0.947545	-0.708242
O176	O	0.461683	1.329606	-0.552335
C177	C	0.410704	1.351826	-0.508464
H178	H	0.428702	1.363052	-0.451987
H179	H	0.412654	1.271375	-0.465333
H180	H	0.349535	1.439013	-0.572594
O181	O	0.078636	1.508335	-0.528307
C182	C	0.016583	1.598038	-0.629034
H183	H	0.035033	1.637700	-0.687632
H184	H	-0.034397	1.674261	-0.633627
H185	H	-0.001064	1.554693	-0.647294
O186	O	0.381852	1.329669	0.004638
C187	C	0.373901	1.389087	0.045741
H188	H	0.312518	1.480949	-0.001310
H189	H	0.416350	1.404703	0.041833
H190	H	0.386405	1.329660	0.129935
O191	O	0.046191	0.728831	0.048406
C192	C	0.087632	0.722181	0.121123
H193	H	0.057919	0.818552	0.092479
H194	H	0.148939	0.675206	0.130772
H195	H	0.089548	0.667408	0.198919
H196	H	0.216859	1.336619	-0.364701
O197	O	0.458255	0.947744	-0.423181
C198	C	0.413880	1.053223	-0.431175
H199	H	0.445532	1.088367	-0.437434
H200	H	0.404597	1.029522	-0.359372
H201	H	0.355631	1.127070	-0.503179
H202	H	0.513653	1.583257	-0.704697
H203	H	0.448274	0.479047	-0.239737
O204	O	1.065470	0.386773	0.073189
C205	C	1.121963	0.297096	0.068643
H206	H	1.099560	0.257489	0.052564
H207	H	1.176764	0.220829	0.145810
H208	H	1.135249	0.340450	0.003881
O209	O	0.946476	0.386953	0.593097
C210	C	0.980771	0.409123	0.643154
H211	H	1.019739	0.420442	0.610213
H212	H	1.016488	0.328605	0.729878
H213	H	0.933821	0.496245	0.629849
H214	H	0.088416	1.583301	-0.704679
O215	O	0.429161	0.662946	-0.264565
C216	C	0.455271	0.720060	-0.321983
H217	H	0.518142	0.665487	-0.271130
H218	H	0.418627	0.817003	-0.348834
H219	H	0.450158	0.723875	-0.392411
O220	O	0.717814	0.386775	0.593104
C221	C	0.779785	0.259788	0.654032
H222	H	0.764660	0.221341	0.624761
H223	H	0.791175	0.212841	0.738321
H224	H	0.833630	0.242497	0.648284
O225	O	0.943850	0.565397	0.211514
C226	C	0.986099	0.468644	0.207826
H227	H	1.028663	0.378013	0.290080
H228	H	1.019004	0.482310	0.162564
H229	H	0.944795	0.467371	0.167851
H230	H	0.236561	1.148944	-0.177005
O231	O	0.109045	1.597682	-0.116486
C232	C	0.057405	1.702527	-0.221481
H233	H	0.090501	1.702410	-0.268900
H234	H	0.027988	1.788180	-0.228744
H235	H	0.011971	1.701774	-0.251700
H236	H	0.548984	0.558461	0.226730
H237	H	0.214463	1.501110	-0.715869
H238	H	0.225969	1.336660	-0.190689
H239	H	-0.242993	1.148948	-0.177046
O240	O	1.083414	0.297601	0.580791
C241	C	1.144585	0.267371	0.554583
H242	H	1.125178	0.292356	0.475197
H243	H	1.195955	0.164940	0.615115
H244	H	1.162088	0.320368	0.552246
O245	O	0.665332	0.947341	-0.422972
C246	C	0.714800	0.841841	-0.317816
H247	H	0.684445	0.806744	-0.286384
H248	H	0.730325	0.865494	-0.271420
H249	H	0.769628	0.767976	-0.310612
O250	O	0.495584	0.947395	-0.714874
C251	C	0.533675	0.841918	-0.706883
H252	H	0.593188	0.806760	-0.700597
H253	H	0.498524	0.865627	-0.778698
H254	H	0.540114	0.768079	-0.634894
H255	H	0.106753	1.501097	-0.202646
H256	H	0.934775	0.558474	0.052656
O257	O	0.618705	1.329709	-0.349579
C258	C	0.586530	1.426414	-0.345836
H259	H	0.550269	1.517077	-0.428078
H260	H	0.634799	1.412737	-0.300646
H261	H	0.548504	1.427625	-0.305757
O262	O	0.482241	0.720388	-0.195970
C263	C	0.508359	0.777492	-0.253379
H264	H	0.571227	0.722921	-0.202516
H265	H	0.471711	0.874440	-0.280244
H266	H	0.503258	0.781291	-0.323800
H267	H	0.721726	0.251675	0.113652
H268	H	-0.133026	1.148948	-0.177042
H269	H	0.790251	0.558523	-0.134077
H270	H	0.909452	0.394129	-0.122135
