data_functionalizedCrystal
_audit_creation_method	'MofGen! by Chris Wilmer'
_symmetry_space_group_name_H-M	'P1'
_symmetry_Int_Tables_number	1
_symmetry_cell_setting	triclinic
loop_
_symmetry_equiv_pos_as_xyz
  x,y,z
_cell_length_a	10.654550
_cell_length_b	13.101039
_cell_length_c	10.654551
_cell_angle_alpha	86.602350
_cell_angle_beta	84.485132
_cell_angle_gamma	93.393769
loop_
_atom_site_label
_atom_site_type_symbol
_atom_site_fract_x
_atom_site_fract_y
_atom_site_fract_z
O1	O	1.674697	0.085293	0.169521
O2	O	1.309217	0.085275	0.186328
O3	O	1.500359	0.085285	-0.004815
O4	O	1.483555	0.085283	0.360664
O5	O	1.486645	-0.085146	0.008922
O6	O	1.295503	-0.085155	0.200065
O7	O	1.660983	-0.085138	0.183258
Zn8	Zn	1.476065	-0.112206	0.193843
Zn9	Zn	1.494134	0.112343	0.175743
O10	O	1.469840	-0.085147	0.374401
C11	C	1.255562	0.000058	0.191963
C12	C	1.116118	0.000052	0.188272
N13	N	1.463743	-0.265455	0.206194
C14	C	1.036634	0.000066	0.300812
C15	C	0.905615	0.000084	0.297334
C16	C	0.933577	0.000077	0.068765
C17	C	1.064593	0.000052	0.072245
C18	C	1.020490	0.000074	0.432774
C19	C	0.889470	0.000092	0.429296
C20	C	1.446978	-0.474499	0.223011
C21	C	1.523227	-0.525371	0.146570
C22	C	1.513899	-0.641689	0.155926
C23	C	1.456305	-0.358169	0.213655
C24	C	1.714638	0.000082	0.177623
C25	C	1.854082	0.000095	0.181314
C26	C	1.492268	0.000072	-0.044744
C27	C	1.488576	0.000079	-0.184188
N28	N	1.506467	0.265593	0.163382
C29	C	1.494320	0.092978	-0.257188
C30	C	1.490839	0.092974	-0.388208
C31	C	1.475877	-0.092839	-0.373216
C32	C	1.479348	-0.092833	-0.242198
C33	C	1.502963	0.200256	-0.265845
C34	C	1.499483	0.200251	-0.396865
C35	C	1.477932	0.000068	0.414330
C36	C	1.481624	0.000068	0.553773
H37	H	1.129304	0.000026	-0.019395
H38	H	1.595513	-0.481565	0.074100
C39	C	1.358952	-0.639080	0.311301
C40	C	1.349412	-0.533626	0.320850
H41	H	1.298727	-0.675589	0.371711
H42	H	1.343044	-0.656596	0.228791
H43	H	1.441554	-0.656572	0.326947
H44	H	1.266813	-0.516133	0.305195
H45	H	1.365310	-0.516103	0.403379
C46	C	1.464222	-0.276499	-0.240547
C47	C	1.473041	-0.194951	-0.161956
H48	H	1.460340	-0.339544	-0.191007
H49	H	1.390070	-0.272641	-0.283011
H50	H	1.536290	-0.272624	-0.300910
H51	H	1.400969	-0.198822	-0.101598
H52	H	1.547201	-0.198811	-0.119471
H53	H	1.468361	-0.168485	-0.420464
H54	H	0.891610	0.000093	-0.025701
H55	H	1.410565	0.233544	-0.429116
C56	C	1.318447	0.289559	-0.303698
C57	C	1.390274	0.255851	-0.207836
H58	H	1.248876	0.323873	-0.267881
H59	H	1.369564	0.335302	-0.362727
H60	H	1.288172	0.232357	-0.345483
H61	H	1.420557	0.313054	-0.166056
H62	H	1.339148	0.210105	-0.148784
H63	H	1.044081	-0.071255	0.490134
C64	C	0.979867	0.164658	0.509951
C65	C	1.076628	0.099400	0.481500
H66	H	1.014528	0.225974	0.540037
H67	H	0.939863	0.180626	0.435981
H68	H	0.919600	0.131632	0.573150
H69	H	1.136891	0.132422	0.418295
H70	H	1.116653	0.083432	0.555480
H71	H	0.837878	-0.073487	0.475108
C72	C	1.710267	0.274711	-0.339329
C73	C	1.630227	0.245201	-0.229540
H74	H	1.788832	0.302461	-0.316912
H75	H	1.723906	0.216702	-0.387074
H76	H	1.672351	0.324998	-0.388448
H77	H	1.668139	0.194907	-0.180426
H78	H	1.616591	0.303217	-0.181775
H79	H	0.853477	0.071422	0.473268
H80	H	1.589588	0.241445	-0.446477
