data_functionalizedCrystal
_audit_creation_method	'MofGen! by Chris Wilmer'
_symmetry_space_group_name_H-M	'P1'
_symmetry_Int_Tables_number	1
_symmetry_cell_setting	triclinic
loop_
_symmetry_equiv_pos_as_xyz
  x,y,z
_cell_length_a	17.077404
_cell_length_b	16.625545
_cell_length_c	17.077396
_cell_angle_alpha	89.971947
_cell_angle_beta	90.021444
_cell_angle_gamma	89.977716
loop_
_atom_site_label
_atom_site_type_symbol
_atom_site_fract_x
_atom_site_fract_y
_atom_site_fract_z
Zn1	Zn	1.200048	0.321039	0.443886
Zn2	Zn	1.700048	0.821039	0.943886
Zn3	Zn	1.199953	0.455882	0.312621
Zn4	Zn	1.699953	0.955882	0.812621
Zn5	Zn	1.068780	0.321063	0.312629
Zn6	Zn	1.568780	0.821063	0.812629
Zn7	Zn	1.068746	0.455830	0.443840
Zn8	Zn	1.568746	0.955830	0.943840
O9	O	1.134382	0.388453	0.378244
O10	O	1.634382	0.888453	0.878244
O11	O	1.309883	0.338939	0.426489
O12	O	1.809883	0.838939	0.926489
O13	O	1.182527	0.438030	0.202775
O14	O	1.682527	0.938030	0.702775
O15	O	1.086248	0.208227	0.330063
O16	O	1.586248	0.708227	0.830063
O17	O	1.309812	0.438007	0.330049
O18	O	1.809812	0.938007	0.830049
O19	O	1.182690	0.208210	0.426497
O20	O	1.682690	0.708210	0.926497
O21	O	1.086155	0.338979	0.202781
O22	O	1.586155	0.838979	0.702781
O23	O	0.958929	0.338928	0.330019
O24	O	1.458929	0.838928	0.830019
O25	O	1.086189	0.437917	0.553693
O26	O	1.586189	0.937917	1.053693
O27	O	0.958903	0.437940	0.426419
O28	O	1.458903	0.937940	0.926419
O29	O	1.182656	0.338888	0.553727
O30	O	1.682656	0.838888	1.053727
O31	O	1.182493	0.568707	0.330004
O32	O	1.682493	1.068707	0.830004
O33	O	1.086096	0.568669	0.426411
O34	O	1.586096	1.068669	0.926411
C35	C	0.930434	0.388432	0.378215
C36	C	1.430434	0.888432	0.878215
C37	C	0.843184	0.388442	0.378222
C38	C	1.343184	0.888442	0.878222
C39	C	0.467403	0.336983	0.428569
C40	C	0.967403	0.836983	0.928569
C41	C	0.549384	0.336978	0.428560
C42	C	1.049384	0.836978	0.928560
C43	C	0.590335	0.388470	0.378264
C44	C	1.090335	0.888470	0.878264
C45	C	0.549302	0.439978	0.327978
C46	C	1.049302	0.939978	0.827978
C47	C	0.467323	0.439987	0.327991
C48	C	0.967323	0.939987	0.827991
C49	C	0.720172	0.439954	0.327953
C50	C	1.220172	0.939954	0.827953
C51	C	0.802157	0.439944	0.327938
C52	C	1.302157	0.939944	0.827938
C53	C	0.802233	0.336944	0.428522
C54	C	1.302233	0.836944	0.928522
C55	C	0.720254	0.336953	0.428535
C56	C	1.220254	0.836953	0.928535
C57	C	0.679226	0.388460	0.378248
C58	C	1.179226	0.888460	0.878248
C59	C	1.134302	0.597944	0.378219
C60	C	1.634302	1.097944	0.878219
C61	C	1.134339	0.687565	0.378234
C62	C	1.634339	1.187565	0.878234
C63	C	1.134468	1.015741	0.378328
C64	C	1.634468	1.515741	0.878328
C65	C	1.134429	0.924433	0.378304
C66	C	1.634429	1.424433	0.878304
C67	C	1.134403	0.851656	0.378281
C68	C	1.634403	1.351656	0.878281
C69	C	1.134366	0.760342	0.378258
C70	C	1.634366	1.260342	0.878258
C71	C	1.339126	0.388476	0.378273
C72	C	1.839126	0.888476	0.878273
C73	C	1.426376	0.388486	0.378285
C74	C	1.926376	0.888486	0.878285
C75	C	1.134429	0.388394	0.582988
C76	C	1.634429	0.888394	1.082988
C77	C	1.134449	0.388369	0.670238
C78	C	1.634449	0.888369	1.170238
C79	C	1.134477	1.178145	0.378296
C80	C	1.634477	1.678145	0.878296
C81	C	1.134500	1.088523	0.378341
C82	C	1.634500	1.588523	0.878341
C83	C	1.134380	0.388454	0.174296
C84	C	1.634380	0.888454	0.674296
C85	C	1.134511	0.388253	0.087047
C86	C	1.634511	0.888253	0.587047
C87	C	1.184682	0.336800	0.711247
C88	C	1.684682	0.836800	1.211247
C89	C	1.184691	0.336773	0.793228
C90	C	1.684691	0.836773	1.293228
C91	C	1.134472	0.388320	0.834198
C92	C	1.634472	0.888320	1.334198
C93	C	1.084234	0.439891	0.793183
C94	C	1.584234	0.939891	1.293183
C95	C	1.084221	0.439913	0.711204
C96	C	1.584221	0.939913	1.211204
C97	C	1.084265	0.439843	0.964053
C98	C	1.584265	0.939843	1.464053
C99	C	1.084279	0.439822	1.046038
C100	C	1.584279	0.939822	1.546038
C101	C	1.184736	0.336702	1.046077
C102	C	1.684736	0.836702	1.546077
C103	C	1.184723	0.336724	0.964098
C104	C	1.684723	0.836724	1.464098
C105	C	1.134486	0.388297	0.923089
C106	C	1.634486	0.888297	1.423089
H107	H	0.686913	0.295020	0.469488
H108	H	1.186913	0.795020	0.969488
Br109	Br	0.411641	0.509896	0.259756
Br110	Br	0.911641	1.009896	0.759756
Br111	Br	1.252904	0.266821	0.848880
Br112	Br	1.752904	0.766821	1.348880
Br113	Br	0.857912	0.267034	0.496761
Br114	Br	1.357912	0.767034	0.996761
H115	H	0.434067	0.295047	0.469522
H116	H	0.934067	0.795047	0.969522
H117	H	0.835497	0.481876	0.286984
H118	H	1.335497	0.981876	0.786984
Br119	Br	1.016115	0.509771	1.101640
Br120	Br	1.516115	1.009771	1.601640
Br121	Br	0.664492	0.509869	0.259718
Br122	Br	1.164492	1.009869	0.759718
Br123	Br	0.604878	0.509868	0.259723
Br124	Br	1.104878	1.009868	0.759723
Br125	Br	1.252847	0.266845	0.655653
Br126	Br	1.752847	0.766845	1.155653
Br127	Br	0.605061	0.267086	0.496812
Br128	Br	1.105061	0.767086	0.996812
Br129	Br	1.252886	0.266774	0.908495
Br130	Br	1.752886	0.766774	1.408495
Br131	Br	1.252918	0.266714	1.101730
Br132	Br	1.752918	0.766714	1.601730
Br133	Br	1.016072	0.509844	0.848784
Br134	Br	1.516072	1.009844	1.348784
H135	H	1.043344	0.481826	0.930666
H136	H	1.543344	0.981826	1.430666
H137	H	1.043308	0.481898	0.677815
H138	H	1.543308	0.981898	1.177815
