data_functionalizedCrystal
_audit_creation_method	'MofGen! by Chris Wilmer'
_symmetry_space_group_name_H-M	'P1'
_symmetry_Int_Tables_number	1
_symmetry_cell_setting	triclinic
loop_
_symmetry_equiv_pos_as_xyz
  x,y,z
_cell_length_a	19.188925
_cell_length_b	19.188924
_cell_length_c	18.266242
_cell_angle_alpha	89.991576
_cell_angle_beta	89.990012
_cell_angle_gamma	83.142256
loop_
_atom_site_label
_atom_site_type_symbol
_atom_site_fract_x
_atom_site_fract_y
_atom_site_fract_z
O1	O	0.926150	0.087151	-0.060900
O2	O	1.259483	0.420484	0.272433
O3	O	1.592816	0.753817	0.605767
O4	O	0.722837	0.098889	-0.060898
O5	O	1.056171	0.432222	0.272435
O6	O	1.389504	0.765556	0.605768
O7	O	0.830363	-0.008636	-0.060891
O8	O	1.163696	0.324697	0.272443
O9	O	1.497030	0.658031	0.605776
O10	O	0.818624	0.194676	-0.060908
O11	O	1.151957	0.528009	0.272426
O12	O	1.485290	0.861343	0.605759
O13	O	0.830345	-0.008642	0.060871
O14	O	1.163678	0.324692	0.394205
O15	O	1.497012	0.658025	0.727538
O16	O	0.722819	0.098884	0.060864
O17	O	1.056153	0.432217	0.394197
O18	O	1.389486	0.765550	0.727530
O19	O	0.926131	0.087145	0.060862
O20	O	1.259465	0.420479	0.394195
O21	O	1.592798	0.753812	0.727529
Zn22	Zn	0.824472	0.093014	0.080195
Zn23	Zn	1.157806	0.426347	0.413528
Zn24	Zn	1.491139	0.759680	0.746862
Zn25	Zn	0.824496	0.093021	-0.080232
Zn26	Zn	1.157830	0.426354	0.253102
Zn27	Zn	1.491163	0.759687	0.586435
O28	O	0.818606	0.194671	0.060854
O29	O	1.151939	0.528004	0.394187
O30	O	1.485272	0.861337	0.727521
C31	C	0.696817	0.098507	-0.000017
C32	C	1.030151	0.431840	0.333316
C33	C	1.363484	0.765174	0.666649
C34	C	0.619313	0.097368	-0.000016
C35	C	0.952646	0.430701	0.333317
C36	C	1.285979	0.764034	0.666650
C37	C	0.829975	-0.034650	-0.000009
C38	C	1.163308	0.298683	0.333324
C39	C	1.496641	0.632017	0.666658
C40	C	0.828836	-0.112155	-0.000007
C41	C	1.162169	0.221179	0.333326
C42	C	1.495503	0.554512	0.666660
C43	C	0.057541	0.152832	-0.000023
C44	C	0.390874	0.486165	0.333311
C45	C	0.724208	0.819499	0.666644
C46	C	0.130364	0.153908	-0.000027
C47	C	0.463697	0.487242	0.333307
C48	C	0.797031	0.820575	0.666640
C49	C	0.175300	0.090816	-0.000020
C50	C	0.508633	0.424149	0.333313
C51	C	0.841967	0.757483	0.666647
C52	C	0.147408	0.026642	-0.000028
C53	C	0.480741	0.359976	0.333305
C54	C	0.814074	0.693309	0.666638
C55	C	0.074586	0.025568	-0.000031
C56	C	0.407919	0.358901	0.333302
C57	C	0.741252	0.692234	0.666635
N58	N	0.295972	0.045138	0.041432
N59	N	0.629306	0.378471	0.374766
N60	N	0.962639	0.711805	0.708099
N61	N	0.365150	0.046163	0.041437
N62	N	0.698483	0.379496	0.374770
N63	N	1.031816	0.712830	0.708104
C64	C	0.394709	0.094050	-0.000012
C65	C	0.728043	0.427383	0.333322
C66	C	1.061376	0.760717	0.666655
N67	N	0.352477	0.140884	-0.041456
N68	N	0.685810	0.474217	0.291877
N69	N	1.019144	0.807551	0.625210
N70	N	0.283293	0.139861	-0.041458
N71	N	0.616626	0.473194	0.291876
N72	N	0.949960	0.806527	0.625209
C73	C	0.254264	0.091974	-0.000017
C74	C	0.587598	0.425308	0.333316
C75	C	0.920931	0.758641	0.666650
C76	C	0.501557	0.159387	-0.000013
C77	C	0.834890	0.492720	0.333320
C78	C	1.168223	0.826054	0.666654
C79	C	0.574381	0.160461	-0.000022
C80	C	0.907715	0.493794	0.333312
C81	C	1.241048	0.827127	0.666645
C82	C	0.591424	0.033193	-0.000016
C83	C	0.924757	0.366526	0.333318
C84	C	1.258091	0.699860	0.666651
C85	C	0.518600	0.032121	-0.000015
C86	C	0.851933	0.365454	0.333319
C87	C	1.185267	0.698788	0.666652
C88	C	0.473671	0.095220	-0.000010
C89	C	0.807004	0.428553	0.333324
C90	C	1.140337	0.761887	0.666657
C91	C	0.828314	-0.148551	-0.066380
C92	C	1.161648	0.184783	0.266954
C93	C	1.494981	0.518116	0.600287
C94	C	0.827234	-0.221373	-0.066385
C95	C	1.160568	0.111960	0.266948
C96	C	1.493901	0.445293	0.600281
C97	C	0.826690	-0.257799	-0.000014
C98	C	1.160023	0.075534	0.333319
C99	C	1.493357	0.408867	0.666652
C100	C	0.827208	-0.221394	0.066367
C101	C	1.160541	0.111939	0.399700
C102	C	1.493875	0.445273	0.733034
C103	C	0.828281	-0.148572	0.066371
C104	C	1.161614	0.184762	0.399704
C105	C	1.494947	0.518095	0.733037
N106	N	0.864731	-0.377465	0.049384
N107	N	1.198064	-0.044132	0.382717
N108	N	1.531397	0.289201	0.716050
N109	N	0.863713	-0.446644	0.049376
N110	N	1.197046	-0.113310	0.382709
N111	N	1.530380	0.220023	0.716042
C112	C	0.823456	-0.477208	-0.000021
C113	C	1.156789	-0.143875	0.333312
C114	C	1.490123	0.189458	0.666645
N115	N	0.784264	-0.435982	-0.049421
N116	N	1.117597	-0.102649	0.283912
N117	N	1.450931	0.230684	0.617245
N118	N	0.785285	-0.366798	-0.049415
N119	N	1.118618	-0.033465	0.283918
N120	N	1.451952	0.299868	0.617251
C121	C	0.825526	-0.336763	-0.000011
C122	C	1.158860	-0.003429	0.333322
C123	C	1.492193	0.329904	0.666656
C124	C	0.821763	-0.592567	-0.066405
C125	C	1.155096	-0.259233	0.266929
C126	C	1.488429	0.074100	0.600262
C127	C	0.820678	-0.665390	-0.066407
C128	C	1.154012	-0.332057	0.266926
C129	C	1.487345	0.001277	0.600259
C130	C	0.820659	-0.665410	0.066347
C131	C	1.153992	-0.332077	0.399680
C132	C	1.487325	0.001256	0.733013
C133	C	0.821736	-0.592587	0.066348
C134	C	1.155069	-0.259254	0.399681
C135	C	1.488403	0.074079	0.733014
C136	C	0.822291	-0.556170	-0.000030
C137	C	1.155624	-0.222837	0.333303
C138	C	1.488958	0.110496	0.666637
C139	C	0.952151	0.087528	-0.000021
C140	C	1.285485	0.420861	0.333312
C141	C	1.618818	0.754194	0.666646
C142	C	1.029656	0.088667	-0.000027
C143	C	1.362990	0.422000	0.333307
C144	C	1.696323	0.755333	0.666640
C145	C	0.818994	0.220684	-0.000029
C146	C	1.152327	0.554018	0.333304
C147	C	1.485661	0.887351	0.666638
C148	C	0.820133	0.298189	-0.000036
C149	C	1.153466	0.631522	0.333297
C150	C	1.486800	0.964856	0.666631
N151	N	0.824461	0.093008	0.189682
N152	N	1.157794	0.426342	0.523015
N153	N	1.491128	0.759675	0.856349
N154	N	0.824513	0.093021	-0.189719
N155	N	1.157846	0.426354	0.143615
N156	N	1.491180	0.759687	0.476948
C157	C	0.872089	0.045419	0.227994
C158	C	1.205422	0.378753	0.561328
C159	C	1.538756	0.712086	0.894661
C160	C	0.872094	0.045416	0.304639
C161	C	1.205427	0.378749	0.637973
C162	C	1.538760	0.712083	0.971306
C163	C	0.824477	0.093014	0.342969
C164	C	1.157810	0.426347	0.676302
C165	C	1.491143	0.759680	1.009636
C166	C	0.776840	0.140606	0.304647
C167	C	1.110173	0.473940	0.637981
C168	C	1.443507	0.807273	0.971314
C169	C	0.776832	0.140604	0.228004
C170	C	1.110165	0.473937	0.561337
C171	C	1.443499	0.807270	0.894671
N172	N	0.815399	0.154822	0.463296
N173	N	1.148733	0.488155	0.796629
N174	N	1.482066	0.821488	1.129963
N175	N	0.815411	0.154822	0.536104
N176	N	1.148744	0.488155	0.869438
N177	N	1.482078	0.821489	1.202771
C178	C	0.824496	0.093024	0.573891
C179	C	1.157830	0.426357	0.907225
C180	C	1.491163	0.759691	1.240558
N181	N	0.833583	0.031223	0.536120
N182	N	1.166916	0.364556	0.869453
N183	N	1.500250	0.697890	1.202787
N184	N	0.833575	0.031223	0.463305
N185	N	1.166908	0.364557	0.796638
N186	N	1.500242	0.697890	1.129972
C187	C	0.824480	0.093022	0.426076
C188	C	1.157813	0.426355	0.759409
C189	C	1.491146	0.759688	1.092743
C190	C	0.872132	0.045427	0.695311
C191	C	1.205465	0.378761	1.028644
C192	C	1.538798	0.712094	1.361977
C193	C	0.872131	0.045423	0.771957
C194	C	1.205465	0.378757	1.105290
C195	C	1.538798	0.712090	1.438624
C196	C	0.776881	0.140620	0.771964
C197	C	1.110214	0.473953	1.105297
C198	C	1.443548	0.807286	1.438630
C199	C	0.776878	0.140618	0.695319
C200	C	1.110211	0.473951	1.028652
C201	C	1.443545	0.807284	1.361986
C202	C	0.824507	0.093022	0.656997
C203	C	1.157840	0.426356	0.990330
C204	C	1.491174	0.759689	1.323664
H205	H	0.020963	0.204212	-0.000022
H206	H	0.354297	0.537545	0.333311
H207	H	0.687630	0.870879	0.666644
H208	H	0.464973	0.210766	-0.000011
H209	H	0.798306	0.544099	0.333323
H210	H	1.131640	0.877432	0.666656
C211	C	0.924510	-0.006932	0.653150
C212	C	1.257843	0.326402	0.986484
C213	C	1.591176	0.659735	1.319817
H214	H	0.917690	-0.000112	0.602016
H215	H	1.251023	0.333221	0.935350
H216	H	1.584356	0.666554	1.268683
H217	H	0.917071	-0.053510	0.665722
H218	H	1.250404	0.279823	0.999055
H219	H	1.583738	0.613157	1.332389
H220	H	0.971086	0.000536	0.665696
H221	H	1.304419	0.333869	0.999030
H222	H	1.637753	0.667203	1.332363
H223	H	0.738068	0.179360	0.335859
H224	H	1.071402	0.512693	0.669193
H225	H	1.404735	0.846027	1.002526
C226	C	0.924526	-0.006926	0.814101
C227	C	1.257859	0.326407	1.147434
C228	C	1.591193	0.659741	1.480768
H229	H	0.952893	-0.035265	0.780298
H230	H	1.286227	0.298068	1.113631
H231	H	1.619560	0.631401	1.446965
H232	H	0.899510	-0.035932	0.844013
H233	H	1.232844	0.297401	1.177346
H234	H	1.566177	0.630735	1.510679
H235	H	0.953511	0.018128	0.843986
H236	H	1.286844	0.351462	1.177319
H237	H	1.620177	0.684795	1.510652
C238	C	0.724494	0.192974	0.653173
C239	C	1.057827	0.526307	0.986507
C240	C	1.391161	0.859640	1.319840
H241	H	0.696139	0.221326	0.686976
H242	H	1.029472	0.554659	1.020309
H243	H	1.362806	0.887992	1.353643
H244	H	0.695507	0.167931	0.623286
H245	H	1.028840	0.501264	0.956619
H246	H	1.362174	0.834597	1.289953
H247	H	0.749522	0.221977	0.623264
H248	H	1.082855	0.555310	0.956597
H249	H	1.416188	0.888644	1.289931
H250	H	0.738108	0.179372	0.803171
H251	H	1.071441	0.512705	1.136504
H252	H	1.404774	0.846038	1.469838
H253	H	0.738047	0.179357	0.196809
H254	H	1.071380	0.512690	0.530143
H255	H	1.404714	0.846024	0.863476
H256	H	0.822167	-0.562954	0.120395
H257	H	1.155500	-0.229621	0.453729
H258	H	1.488833	0.103712	0.787062
H259	H	0.597083	0.212714	-0.000025
H260	H	0.930416	0.546047	0.333309
H261	H	1.263749	0.879380	0.666642
H262	H	0.910870	0.006663	0.196795
H263	H	1.244203	0.339996	0.530128
H264	H	1.577536	0.673330	0.863462
H265	H	0.183999	-0.024728	-0.000025
H266	H	0.517333	0.308606	0.333308
H267	H	0.850666	0.641939	0.666642
C268	C	0.043911	-0.045017	-0.000029
C269	C	0.377244	0.288316	0.333304
C270	C	0.710578	0.621650	0.666638
H271	H	0.081101	-0.082440	-0.000022
H272	H	0.414434	0.250893	0.333311
H273	H	0.747767	0.584227	0.666645
H274	H	0.015862	-0.048078	-0.042488
H275	H	0.349195	0.285255	0.290845
H276	H	0.682529	0.618588	0.624179
H277	H	0.015853	-0.048083	0.042439
H278	H	0.349187	0.285251	0.375773
H279	H	0.682520	0.618584	0.709106
H280	H	0.153073	0.206161	-0.000017
H281	H	0.486406	0.539494	0.333317
H282	H	0.819739	0.872828	0.666650
H283	H	0.628010	-0.018178	-0.000016
H284	H	0.961344	0.315155	0.333317
H285	H	1.294677	0.648489	0.666651
H286	H	0.820250	-0.695022	-0.120458
H287	H	1.153583	-0.361689	0.212875
H288	H	1.486917	-0.028355	0.546208
C289	C	0.826688	-0.261421	-0.139398
C290	C	1.160022	0.071912	0.193936
C291	C	1.493355	0.405246	0.527269
H292	H	0.827184	-0.229304	-0.178928
H293	H	1.160517	0.104029	0.154405
H294	H	1.493851	0.437363	0.487738
H295	H	0.785573	-0.284391	-0.142178
H296	H	1.118907	0.048943	0.191155
H297	H	1.452240	0.382276	0.524488
H298	H	0.866991	-0.295269	-0.142134
H299	H	1.200325	0.038064	0.191199
H300	H	1.533658	0.371397	0.524532
C301	C	0.924487	-0.006932	0.346792
C302	C	1.257821	0.326401	0.680125
C303	C	1.591154	0.659734	1.013458
H304	H	0.952854	-0.035276	0.312991
H305	H	1.286187	0.298057	0.646325
H306	H	1.619520	0.631391	0.979658
H307	H	0.899469	-0.035934	0.376706
H308	H	1.232803	0.297399	0.710039
H309	H	1.566136	0.630732	1.043372
H310	H	0.953473	0.018123	0.376674
H311	H	1.286807	0.351456	0.710008
H312	H	1.620140	0.684789	1.043341
H313	H	0.495897	-0.020129	-0.000013
H314	H	0.829230	0.313204	0.333320
H315	H	1.162564	0.646537	0.666653
H316	H	0.828764	-0.118904	-0.120430
H317	H	1.162098	0.214429	0.212904
H318	H	1.495431	0.547763	0.546237
H319	H	0.826763	-0.251056	0.120407
H320	H	1.160096	0.082277	0.453740
H321	H	1.493429	0.415610	0.787073
C322	C	0.828861	-0.108535	0.139384
C323	C	1.162194	0.224798	0.472717
C324	C	1.495528	0.558131	0.806050
H325	H	0.828386	-0.140657	0.178913
H326	H	1.161719	0.192677	0.512246
H327	H	1.495052	0.526010	0.845580
H328	H	0.788576	-0.074674	0.142145
H329	H	1.121909	0.258660	0.475478
H330	H	1.455242	0.591993	0.808811
H331	H	0.869993	-0.085584	0.142142
H332	H	1.203327	0.247749	0.475475
H333	H	1.536660	0.581083	0.808809
C334	C	0.820054	-0.705469	0.139354
C335	C	1.153388	-0.372136	0.472687
C336	C	1.486721	-0.038803	0.806020
H337	H	0.819343	-0.754053	0.129847
H338	H	1.152676	-0.420720	0.463180
H339	H	1.486009	-0.087386	0.796513
H340	H	0.779519	-0.688085	0.166624
H341	H	1.112853	-0.354752	0.499957
H342	H	1.446186	-0.021419	0.833291
H343	H	0.860937	-0.698993	0.166628
H344	H	1.194270	-0.365660	0.499961
H345	H	1.527604	-0.032327	0.833295
H346	H	0.822210	-0.562914	-0.120453
H347	H	1.155544	-0.229580	0.212880
H348	H	1.488877	0.103753	0.546213
