data_functionalizedCrystal
_audit_creation_method	'MofGen! by Chris Wilmer'
_symmetry_space_group_name_H-M	'P1'
_symmetry_Int_Tables_number	1
_symmetry_cell_setting	triclinic
loop_
_symmetry_equiv_pos_as_xyz
  x,y,z
_cell_length_a	16.120530
_cell_length_b	16.120531
_cell_length_c	16.120297
_cell_angle_alpha	95.610581
_cell_angle_beta	89.871860
_cell_angle_gamma	89.826117
loop_
_atom_site_label
_atom_site_type_symbol
_atom_site_fract_x
_atom_site_fract_y
_atom_site_fract_z
Zn1	Zn	1.224939	0.422260	0.554785
Zn2	Zn	1.474939	0.672260	0.804785
Zn3	Zn	1.724939	0.922260	1.054785
Zn4	Zn	1.974939	1.172260	1.304785
Zn5	Zn	1.224819	0.554943	0.422081
Zn6	Zn	1.474819	0.804943	0.672081
Zn7	Zn	1.724819	1.054943	0.922081
Zn8	Zn	1.974819	1.304943	1.172081
Zn9	Zn	1.093680	0.408176	0.408028
Zn10	Zn	1.343680	0.658176	0.658028
Zn11	Zn	1.593680	0.908176	0.908028
Zn12	Zn	1.843680	1.158176	1.158028
Zn13	Zn	1.078817	0.554176	0.554013
Zn14	Zn	1.328817	0.804176	0.804013
Zn15	Zn	1.578817	1.054176	1.054013
Zn16	Zn	1.828817	1.304176	1.304013
O17	O	1.155564	0.484889	0.484727
O18	O	1.405564	0.734889	0.734727
O19	O	1.655564	0.984889	0.984727
O20	O	1.905564	1.234889	1.234727
O21	O	1.340958	0.446077	0.543385
O22	O	1.590958	0.696077	0.793385
O23	O	1.840958	0.946077	1.043385
O24	O	2.090958	1.196077	1.293385
O25	O	1.213594	0.529901	0.303585
O26	O	1.463594	0.779901	0.553585
O27	O	1.713594	1.029901	0.803585
O28	O	1.963594	1.279901	1.053585
O29	O	1.117362	0.293415	0.421938
O30	O	1.367362	0.543415	0.671938
O31	O	1.617362	0.793415	0.921938
O32	O	1.867362	1.043415	1.171938
O33	O	1.340870	0.543558	0.445888
O34	O	1.590870	0.793558	0.695888
O35	O	1.840870	1.043558	0.945888
O36	O	2.090870	1.293558	1.195888
O37	O	1.213797	0.303763	0.529759
O38	O	1.463797	0.553763	0.779759
O39	O	1.713797	0.803763	1.029759
O40	O	1.963797	1.053763	1.279759
O41	O	1.117246	0.422072	0.293260
O42	O	1.367246	0.672072	0.543260
O43	O	1.617246	0.922072	0.793260
O44	O	1.867246	1.172072	1.043260
O45	O	0.975673	0.421328	0.421190
O46	O	1.225673	0.671328	0.671190
O47	O	1.475673	0.921328	0.921190
O48	O	1.725673	1.171328	1.171190
O49	O	1.092030	0.542250	0.670748
O50	O	1.342030	0.792250	0.920748
O51	O	1.592030	1.042250	1.170748
O52	O	1.842030	1.292250	1.420748
O53	O	0.964753	0.528593	0.528444
O54	O	1.214753	0.778593	0.778444
O55	O	1.464753	1.028593	1.028444
O56	O	1.714753	1.278593	1.278444
O57	O	1.199385	0.445332	0.671315
O58	O	1.449385	0.695332	0.921315
O59	O	1.699385	0.945332	1.171315
O60	O	1.949385	1.195332	1.421315
O61	O	1.199181	0.671471	0.445140
O62	O	1.449181	0.921471	0.695140
O63	O	1.699181	1.171471	0.945140
O64	O	1.949181	1.421471	1.195140
O65	O	1.091914	0.670907	0.542070
O66	O	1.341914	0.920907	0.792070
O67	O	1.591914	1.170907	1.042070
O68	O	1.841914	1.420907	1.292070
C69	C	0.940126	0.473350	0.473209
C70	C	1.190126	0.723350	0.723209
C71	C	1.440126	0.973350	0.973209
C72	C	1.690126	1.223350	1.223209
C73	C	0.847959	0.468434	0.468302
C74	C	1.097959	0.718434	0.718302
C75	C	1.347959	0.968434	0.968302
C76	C	1.597959	1.218434	1.218302
C77	C	0.679209	0.459440	0.459350
C78	C	0.929209	0.709440	0.709350
C79	C	1.179209	0.959440	0.959350
C80	C	1.429209	1.209440	1.209350
C81	C	0.632752	0.510402	0.510167
C82	C	0.882752	0.760402	0.760167
C83	C	1.132752	1.010402	1.010167
C84	C	1.382752	1.260402	1.260167
C85	C	0.538854	0.505398	0.505186
C86	C	0.788854	0.755398	0.755186
C87	C	1.038854	1.005398	1.005186
C88	C	1.288854	1.255398	1.255186
C89	C	0.773116	0.464443	0.464330
C90	C	1.023116	0.714443	0.714330
C91	C	1.273116	0.964443	0.964330
C92	C	1.523116	1.214443	1.214330
C93	C	1.143943	0.701432	0.495066
C94	C	1.393943	0.951432	0.745066
C95	C	1.643943	1.201432	0.995066
C96	C	1.893943	1.451432	1.245066
C97	C	1.139046	0.794075	0.499521
C98	C	1.389046	1.044075	0.749521
C99	C	1.639046	1.294075	0.999521
C100	C	1.889046	1.544075	1.249521
C101	C	1.130110	0.963697	0.507672
C102	C	1.380110	1.213697	0.757672
C103	C	1.630110	1.463697	1.007672
C104	C	1.880110	1.713697	1.257672
C105	C	1.181051	1.005240	0.461737
C106	C	1.431051	1.255240	0.711737
C107	C	1.681051	1.505240	0.961737
C108	C	1.931051	1.755240	1.211737
C109	C	1.176079	1.099623	0.466272
C110	C	1.426079	1.349623	0.716272
C111	C	1.676079	1.599623	0.966272
C112	C	1.926079	1.849623	1.216272
C113	C	1.135081	0.869305	0.503138
C114	C	1.385081	1.119305	0.753138
C115	C	1.635081	1.369305	1.003138
C116	C	1.885081	1.619305	1.253138
C117	C	1.371842	0.496474	0.496290
C118	C	1.621842	0.746474	0.746290
C119	C	1.871842	0.996474	0.996290
C120	C	2.121842	1.246474	1.246290
C121	C	1.464007	0.501411	0.501218
C122	C	1.714007	0.751411	0.751218
C123	C	1.964007	1.001411	1.001218
C124	C	2.214007	1.251411	1.251218
C125	C	1.144063	0.495277	0.702119
C126	C	1.394063	0.745277	0.952119
C127	C	1.644063	0.995277	1.202119
C128	C	1.894063	1.245277	1.452119
C129	C	1.139162	0.499703	0.794758
C130	C	1.389162	0.749703	1.044758
C131	C	1.639162	0.999703	1.294758
C132	C	1.889162	1.249703	1.544758
C133	C	1.167222	1.267500	0.474350
C134	C	1.417222	1.517500	0.724350
C135	C	1.667222	1.767500	0.974350
C136	C	1.917222	2.017500	1.224350
C137	C	1.172117	1.174856	0.469885
C138	C	1.422117	1.424856	0.719885
C139	C	1.672117	1.674856	0.969885
C140	C	1.922117	1.924856	1.219885
C141	C	1.167071	0.474484	0.268181
C142	C	1.417071	0.724484	0.518181
C143	C	1.667071	0.974484	0.768181
C144	C	1.917071	1.224484	1.018181
C145	C	1.172145	0.469831	0.175539
C146	C	1.422145	0.719831	0.425539
C147	C	1.672145	0.969831	0.675539
C148	C	1.922145	1.219831	0.925539
C149	C	1.130185	0.507765	0.964369
C150	C	1.380185	0.757765	1.214369
C151	C	1.630185	1.007765	1.464369
C152	C	1.880185	1.257765	1.714369
C153	C	1.181119	0.461772	1.005934
C154	C	1.431119	0.711772	1.255934
C155	C	1.681119	0.961772	1.505934
C156	C	1.931119	1.211772	1.755934
C157	C	1.176124	0.466258	1.100311
C158	C	1.426124	0.716258	1.350311
C159	C	1.676124	0.966258	1.600311
C160	C	1.926124	1.216258	1.850311
C161	C	1.135179	0.503280	0.869983
C162	C	1.385179	0.753280	1.119983
C163	C	1.635179	1.003280	1.369983
C164	C	1.885179	1.253280	1.619983
H165	H	0.648464	0.412057	0.412107
H166	H	0.898464	0.662057	0.662107
H167	H	1.148464	0.912057	0.912107
H168	H	1.398464	1.162057	1.162107
H169	H	1.228397	0.969922	0.419004
H170	H	1.478397	1.219922	0.669004
H171	H	1.728397	1.469922	0.919004
H172	H	1.978397	1.719922	1.169004
H173	H	1.082831	0.550507	0.999661
H174	H	1.332831	0.800507	1.249661
H175	H	1.582831	1.050507	1.499661
H176	H	1.832831	1.300507	1.749661
C177	C	1.066143	1.011407	0.565389
C178	C	1.316143	1.261407	0.815389
C179	C	1.566143	1.511407	1.065389
C180	C	1.816143	1.761407	1.315389
N181	N	1.017959	1.047351	0.608856
N182	N	1.267959	1.297351	0.858856
N183	N	1.517959	1.547351	1.108856
N184	N	1.767959	1.797351	1.358856
C185	C	0.674288	0.574427	0.573990
C186	C	0.924288	0.824427	0.823990
C187	C	1.174288	1.074427	1.073990
C188	C	1.424288	1.324427	1.323990
N189	N	0.705577	0.622652	0.622057
N190	N	0.955577	0.872652	0.872057
N191	N	1.205577	1.122652	1.122057
N192	N	1.455577	1.372652	1.372057
H193	H	1.228476	0.419027	0.970640
H194	H	1.478476	0.669027	1.220640
H195	H	1.728476	0.919027	1.470640
H196	H	1.978476	1.169027	1.720640
