data_functionalizedCrystal
_audit_creation_method	'MofGen! by Chris Wilmer'
_symmetry_space_group_name_H-M	'P1'
_symmetry_Int_Tables_number	1
_symmetry_cell_setting	triclinic
loop_
_symmetry_equiv_pos_as_xyz
  x,y,z
_cell_length_a	14.853569
_cell_length_b	14.044220
_cell_length_c	13.330367
_cell_angle_alpha	89.994700
_cell_angle_beta	89.994419
_cell_angle_gamma	88.412221
loop_
_atom_site_label
_atom_site_type_symbol
_atom_site_fract_x
_atom_site_fract_y
_atom_site_fract_z
O1	O	1.206174	0.123774	-0.083380
O2	O	0.944883	0.138516	-0.083393
O3	O	1.071607	-0.006845	-0.083377
O4	O	1.079451	0.269135	-0.083396
O5	O	1.071586	-0.006848	0.083471
O6	O	0.944863	0.138513	0.083455
O7	O	1.206154	0.123771	0.083467
Cu8	Cu	1.075506	0.131141	0.098695
Cu9	Cu	1.075531	0.131145	-0.098621
O10	O	1.079430	0.269131	0.083451
C11	C	0.911231	0.137846	0.000030
C12	C	0.810989	0.135844	0.000025
C13	C	0.767697	0.048557	0.000028
C14	C	0.760089	0.221249	0.000027
C15	C	0.665906	0.219371	0.000028
C16	C	0.622614	0.132084	0.000031
C17	C	0.673505	0.046675	0.000032
C18	C	0.615009	0.304778	0.000037
C19	C	0.520820	0.302903	0.000039
C20	C	0.477526	0.215615	0.000035
C21	C	0.528423	0.130203	0.000035
C22	C	0.485131	0.042916	0.000038
C23	C	0.536026	-0.042497	0.000031
C24	C	0.630211	-0.040613	0.000027
C25	C	0.383340	0.213730	0.000038
C26	C	0.390939	0.041034	0.000042
C27	C	1.068163	-0.042165	0.000047
C28	C	1.057921	-0.147405	0.000048
C29	C	1.039197	-0.340091	0.000033
C30	C	1.111836	-0.397628	0.000033
C31	C	1.101417	-0.504845	0.000025
C32	C	1.049614	-0.232864	0.000041
C33	C	1.239806	0.124440	0.000043
C34	C	1.340048	0.126443	0.000041
C35	C	1.082874	0.304452	0.000025
C36	C	1.093116	0.409691	0.000018
N37	N	1.075496	0.131138	0.237477
N38	N	1.075547	0.131141	-0.237402
C39	C	1.019413	0.195486	0.710093
C40	C	1.131672	0.066797	0.710075
C41	C	1.131662	0.066794	0.605056
C42	C	1.075527	0.131139	0.552551
C43	C	1.019402	0.195487	0.605065
C44	C	1.187792	0.002455	0.552535
C45	C	1.187784	0.002450	0.447510
C46	C	1.131644	0.066791	0.395004
C47	C	1.075517	0.131140	0.447523
C48	C	1.019382	0.195485	0.395018
C49	C	0.963249	0.259830	0.447536
C50	C	0.963262	0.259828	0.552558
C51	C	1.131631	0.066793	0.289982
C52	C	1.019372	0.195486	0.289990
H53	H	0.795344	0.292315	0.000032
H54	H	0.973707	0.247873	0.752855
O55	O	0.661697	0.398920	0.000039
H56	H	0.735741	0.385876	0.000024
O57	O	0.685112	-0.132725	0.000034
H58	H	0.668876	-0.174488	-0.067972
H59	H	0.917562	0.312216	0.595324
O60	O	1.204575	-0.356216	0.000047
H61	H	1.241724	-0.380481	-0.067959
O62	O	0.946460	-0.381491	0.000044
H63	H	0.952728	-0.460428	0.000052
H64	H	0.973656	0.247880	0.247247
H65	H	0.917548	0.312224	0.404774
O66	O	1.192217	-0.002600	0.766697
H67	H	1.182793	0.008207	0.848549
O68	O	1.248337	-0.066941	0.609160
H69	H	1.238905	-0.056138	0.691011
O70	O	1.248312	-0.066957	0.390867
H71	H	1.287341	-0.111704	0.445022
O72	O	0.465927	0.395020	0.000044
H73	H	0.482182	0.436788	-0.067964
O74	O	0.344245	-0.053112	0.000053
H75	H	0.395460	-0.112183	0.000057
O76	O	0.489330	-0.136643	0.000043
H77	H	0.446603	-0.141627	-0.067958
H78	H	0.341906	0.283272	0.000052
O79	O	0.822580	-0.043567	0.000031
H80	H	0.895348	-0.027600	0.000035
H81	H	1.177338	0.014408	0.247227
