data_functionalizedCrystal
_audit_creation_method	'MofGen! by Chris Wilmer'
_symmetry_space_group_name_H-M	'P1'
_symmetry_Int_Tables_number	1
_symmetry_cell_setting	triclinic
loop_
_symmetry_equiv_pos_as_xyz
  x,y,z
_cell_length_a	15.944551
_cell_length_b	15.944499
_cell_length_c	7.681481
_cell_angle_alpha	95.738148
_cell_angle_beta	84.271608
_cell_angle_gamma	83.488174
loop_
_atom_site_label
_atom_site_type_symbol
_atom_site_fract_x
_atom_site_fract_y
_atom_site_fract_z
O1	O	1.106572	0.116276	0.146233
O2	O	0.862017	0.129635	0.146276
O3	O	0.990995	0.000678	0.146256
O4	O	0.977594	0.245233	0.146253
O5	O	1.006870	-0.015230	-0.146604
O6	O	0.877892	0.113727	-0.146584
O7	O	1.122447	0.100368	-0.146627
Zn8	Zn	1.002690	0.104521	-0.193103
Zn9	Zn	0.981774	0.125481	0.192752
O10	O	0.993469	0.229325	-0.146607
C11	C	0.998384	-0.038571	-0.000169
C12	C	0.996738	-0.131818	-0.000155
C13	C	0.838661	0.121127	-0.000149
C14	C	0.745414	0.119465	-0.000132
C15	C	1.071671	-0.423356	-0.000178
C16	C	1.040547	-0.370174	-0.144573
C17	C	0.990763	-0.467456	-0.000175
C18	C	1.024874	-0.354496	0.144164
C19	C	0.993703	-0.302546	-0.000162
C20	C	0.959622	-0.415509	-0.144689
C21	C	0.943954	-0.399830	0.144178
C22	C	0.912772	-0.346668	-0.000252
C23	C	0.989072	-0.562456	-0.000184
C24	C	0.995389	-0.207548	-0.000166
C25	C	0.530575	0.035557	-0.000165
C26	C	0.461720	0.082364	0.144230
C27	C	0.574690	0.116457	-0.000153
C28	C	0.477394	0.066699	-0.144507
C29	C	0.409779	0.113544	-0.000181
C30	C	0.507057	0.163292	0.144361
C31	C	0.522744	0.147609	-0.144506
C32	C	0.453905	0.194476	-0.000075
C33	C	0.669691	0.118132	-0.000135
C34	C	0.314779	0.111876	-0.000186
C35	C	1.145803	0.108876	-0.000198
C36	C	1.239049	0.110538	-0.000203
C37	C	0.986080	0.268574	-0.000178
C38	C	0.987725	0.361822	-0.000180
N39	N	1.016971	0.090216	-0.456440
N40	N	0.967500	0.139780	0.456089
H41	H	1.138825	-0.456693	-0.000328
C42	C	0.558879	0.184839	-0.309417
H43	H	0.583520	0.234538	-0.274738
H44	H	0.600997	0.144071	-0.376227
H45	H	0.514406	0.198887	-0.379023
C46	C	0.821997	-0.301837	-0.000349
H47	H	0.798961	-0.322918	-0.103009
H48	H	0.787534	-0.312527	0.101256
H49	H	0.823499	-0.242401	0.000606
H50	H	0.420730	0.261690	0.000004
H51	H	1.067480	0.039629	-0.531653
H52	H	0.563910	-0.031573	0.000015
C53	C	1.095715	-0.351983	-0.309487
H54	H	1.152155	-0.378494	-0.309321
H55	H	1.073077	-0.373827	-0.412023
H56	H	1.095964	-0.292399	-0.308833
H57	H	0.520414	0.204122	0.266569
C58	C	0.459209	0.011503	-0.309418
H59	H	0.485725	-0.044933	-0.309225
H60	H	0.399632	0.011259	-0.308810
H61	H	0.481071	0.034122	-0.411959
C62	C	0.899276	0.208121	-0.442325
H63	H	0.900824	0.206557	-0.319365
H64	H	0.910090	0.262543	-0.472454
H65	H	0.844819	0.197415	-0.472458
H66	H	0.932053	-0.442129	-0.266891
H67	H	0.903142	-0.413311	0.266267
H68	H	1.052492	-0.327785	0.266227
H69	H	0.434999	0.054778	0.266307
