data_functionalizedCrystal
_audit_creation_method	'MofGen! by Chris Wilmer'
_symmetry_space_group_name_H-M	'P1'
_symmetry_Int_Tables_number	1
_symmetry_cell_setting	triclinic
loop_
_symmetry_equiv_pos_as_xyz
  x,y,z
_cell_length_a	21.395362
_cell_length_b	19.077068
_cell_length_c	19.077314
_cell_angle_alpha	90.121627
_cell_angle_beta	87.737128
_cell_angle_gamma	92.343691
loop_
_atom_site_label
_atom_site_type_symbol
_atom_site_fract_x
_atom_site_fract_y
_atom_site_fract_z
Zn1	Zn	0.933787	-0.263507	0.408882
Zn2	Zn	0.933369	-0.385736	0.296088
Zn3	Zn	0.833046	-0.268278	0.291352
Zn4	Zn	0.824608	-0.381017	0.413515
O5	O	0.881203	-0.324635	0.352459
O6	O	1.021408	-0.279700	0.393963
O7	O	0.923417	-0.374126	0.197130
O8	O	0.850115	-0.169310	0.303021
O9	O	1.021102	-0.369501	0.311094
O10	O	0.924129	-0.165805	0.389370
O11	O	0.849710	-0.287830	0.193650
O12	O	0.744250	-0.283254	0.307514
O13	O	0.835735	-0.361457	0.511230
O14	O	0.738050	-0.366083	0.397266
O15	O	0.915948	-0.275124	0.507826
O16	O	0.915236	-0.483445	0.315586
O17	O	0.835330	-0.479978	0.401859
C18	C	0.718416	-0.324675	0.352379
C19	C	0.648774	-0.324709	0.352362
C20	C	0.612850	-0.367900	0.399031
C21	C	0.547414	-0.367881	0.399062
C22	C	0.517905	-0.324679	0.352411
C23	C	0.553838	-0.281480	0.305738
C24	C	0.619273	-0.281494	0.305714
C25	C	0.416568	-0.321569	0.288926
C26	C	0.351135	-0.321559	0.288949
C27	C	0.316084	-0.324630	0.352487
C28	C	0.346473	-0.327726	0.416003
C29	C	0.411908	-0.327741	0.415979
C30	C	0.446953	-0.324659	0.352433
C31	C	0.209206	-0.367804	0.399193
C32	C	0.143769	-0.367780	0.399225
C33	C	0.150195	-0.281383	0.305895
C34	C	0.215630	-0.281402	0.305870
C35	C	0.245132	-0.324617	0.352518
C36	C	0.874338	-0.507208	0.359755
C37	C	0.871458	-0.585313	0.362899
C38	C	0.911738	-0.623787	0.319496
C39	C	0.909032	-0.697174	0.322458
C40	C	0.866044	-0.732086	0.368820
C41	C	0.825763	-0.693607	0.412227
C42	C	0.828472	-0.620221	0.409269
C43	C	0.853481	-0.951376	0.382485
C44	C	0.850774	-1.024768	0.385439
C45	C	0.934045	-1.028330	0.295670
C46	C	0.936747	-0.954942	0.292712
C47	C	0.896468	-0.916469	0.336123
N48	N	0.863277	-0.807100	0.371847
N49	N	0.899239	-0.841457	0.333099
C50	C	1.044624	-0.324594	0.352540
C51	C	1.114265	-0.324577	0.352574
C52	C	0.874947	-0.317232	0.535737
C53	C	0.872281	-0.314078	0.613839
C54	C	0.888110	-0.141348	0.345150
C55	C	0.891054	-0.063242	0.342036
C56	C	0.887472	-0.331957	0.169892
C57	C	0.890267	-0.334914	0.091783
C58	C	0.909400	-0.357523	0.652346
C59	C	0.906896	-0.354550	0.725731
C60	C	0.867268	-0.308135	0.760608
C61	C	0.830146	-0.264685	0.722095
C62	C	0.832655	-0.267655	0.648712
C63	C	0.855654	-0.294433	0.979886
C64	C	0.853147	-0.291469	1.053275
C65	C	0.929898	-0.381333	1.056906
C66	C	0.932400	-0.384301	0.983521
C67	C	0.895281	-0.340849	0.945015
N68	N	0.864705	-0.305098	0.835619
N69	N	0.897847	-0.343884	0.870005
H70	H	0.317936	-0.330226	0.467742
N71	N	0.815631	-0.247558	0.938360
H72	H	0.790149	-0.217703	0.971591
H73	H	0.786595	-0.277386	0.909030
N74	N	0.785021	-0.578727	0.456080
H75	H	0.758105	-0.549482	0.426258
H76	H	0.810515	-0.546958	0.487445
N77	N	0.105021	-0.414373	0.449561
H78	H	0.059091	-0.407805	0.442501
H79	H	0.115194	-0.401495	0.499326
H80	H	0.820683	-0.920057	0.417830
H81	H	0.797883	-0.226890	0.750497
N82	N	0.792623	-0.220791	0.607175
H83	H	0.767138	-0.190937	0.640403
H84	H	0.763590	-0.250630	0.577851
N85	N	0.975142	-0.434363	0.945907
H86	H	1.019884	-0.422922	0.958264
H87	H	0.971044	-0.429628	0.893588
N88	N	0.810399	-0.241416	1.090905
H89	H	0.822453	-0.191715	1.076152
H90	H	0.814466	-0.246206	1.143224
H91	H	0.941832	-0.728497	0.287114
H92	H	0.790763	-0.722038	0.449979
N93	N	0.644670	-0.414507	0.449343
H94	H	0.611978	-0.441866	0.478913
H95	H	0.671816	-0.384647	0.480759
H96	H	0.436649	-0.330259	0.467696
N97	N	0.508656	-0.414466	0.449401
H98	H	0.537274	-0.441843	0.478949
H99	H	0.481231	-0.448089	0.422047
H100	H	0.233228	-0.402988	0.437180
N101	N	0.952139	-0.407590	0.614734
H102	H	0.975274	-0.434659	0.650268
H103	H	0.983254	-0.380213	0.583159
H104	H	0.937123	-0.389928	0.757080
N105	N	0.118377	-0.234779	0.255582
H106	H	0.071473	-0.241322	0.262680
H107	H	0.131079	-0.247668	0.205809
H108	H	0.960119	-0.416708	1.088266
N109	N	0.983119	-0.917288	0.242715
H110	H	1.012278	-0.885637	0.270088
H111	H	0.959869	-0.888241	0.208902
H112	H	0.244881	-0.246235	0.267863
H113	H	0.326397	-0.319043	0.237230
H114	H	0.529808	-0.246303	0.267756
N115	N	0.454371	-0.318252	0.220392
H116	H	0.425192	-0.316295	0.180160
H117	H	0.480112	-0.361330	0.215499
H118	H	0.648523	-0.246320	0.267710
H119	H	0.946741	-0.595366	0.281741
H120	H	0.966839	-1.059662	0.260329
H121	H	0.815775	-1.053190	0.423204
