data_functionalizedCrystal
_audit_creation_method	'MofGen! by Chris Wilmer'
_symmetry_space_group_name_H-M	'P1'
_symmetry_Int_Tables_number	1
_symmetry_cell_setting	triclinic
loop_
_symmetry_equiv_pos_as_xyz
  x,y,z
_cell_length_a	18.101398
_cell_length_b	18.101397
_cell_length_c	16.625539
_cell_angle_alpha	89.968146
_cell_angle_beta	89.988670
_cell_angle_gamma	90.016023
loop_
_atom_site_label
_atom_site_type_symbol
_atom_site_fract_x
_atom_site_fract_y
_atom_site_fract_z
Zn1	Zn	1.132187	-0.294916	-0.455691
Zn2	Zn	1.632187	0.205084	0.044309
Zn3	Zn	1.132103	-0.418765	-0.320850
Zn4	Zn	1.632103	0.081235	0.179150
Zn5	Zn	1.008343	-0.294932	-0.320893
Zn6	Zn	1.508343	0.205068	0.179107
Zn7	Zn	1.008320	-0.418711	-0.455661
Zn8	Zn	1.508320	0.081289	0.044339
O9	O	1.070238	-0.356831	-0.388274
O10	O	1.570238	0.143169	0.111726
O11	O	1.235809	-0.311361	-0.437798
O12	O	1.735809	0.188639	0.062202
O13	O	1.115660	-0.402368	-0.208023
O14	O	1.615660	0.097632	0.291977
O15	O	1.024816	-0.191297	-0.338805
O16	O	1.524816	0.308703	0.161195
O17	O	1.235747	-0.402352	-0.338731
O18	O	1.735747	0.097648	0.161269
O19	O	1.115804	-0.191285	-0.437840
O20	O	1.615804	0.308715	0.062160
O21	O	1.024734	-0.311389	-0.208055
O22	O	1.524734	0.188611	0.291945
O23	O	0.904707	-0.311336	-0.338776
O24	O	1.404707	0.188664	0.161224
O25	O	1.024777	-0.402260	-0.568497
O26	O	1.524777	0.097740	-0.068497
O27	O	0.904690	-0.402275	-0.437790
O28	O	1.404690	0.097725	0.062210
O29	O	1.115782	-0.311308	-0.568519
O30	O	1.615782	0.188692	-0.068519
O31	O	1.115638	-0.522391	-0.338702
O32	O	1.615638	-0.022391	0.161298
O33	O	1.024695	-0.522351	-0.437748
O34	O	1.524695	-0.022351	0.062252
C35	C	0.877828	-0.356802	-0.388285
C36	C	1.377828	0.143198	0.111715
C37	C	0.795514	-0.356807	-0.388309
C38	C	1.295514	0.143193	0.111691
C39	C	0.496423	-0.356851	-0.388275
C40	C	0.996423	0.143149	0.111725
C41	C	0.527762	-0.414344	-0.450264
C42	C	1.027762	0.085656	0.049736
C43	C	0.613380	-0.414164	-0.450519
C44	C	1.113380	0.085836	0.049481
C45	C	0.644805	-0.356830	-0.388292
C46	C	1.144805	0.143170	0.111708
C47	C	0.613737	-0.278827	-0.411517
C48	C	1.113737	0.221173	0.088483
C49	C	0.528092	-0.279173	-0.411957
C50	C	1.028092	0.220827	0.088043
C51	C	0.527971	-0.376673	-0.302912
C52	C	1.027971	0.123327	0.197088
C53	C	0.613622	-0.378384	-0.303368
C54	C	1.113622	0.121616	0.196632
C55	C	0.728665	-0.356813	-0.388300
C56	C	1.228665	0.143187	0.111700
C57	C	0.412563	-0.356862	-0.388269
C58	C	0.912563	0.143138	0.111731
C59	C	1.070175	-0.549242	-0.388234
C60	C	1.570175	-0.049242	0.111766
C61	C	1.070215	-0.631556	-0.388245
C62	C	1.570215	-0.131556	0.111755
C63	C	1.070310	-0.930647	-0.388318
C64	C	1.570310	-0.430647	0.111682
C65	C	1.127369	-0.899316	-0.325835
C66	C	1.627369	-0.399316	0.174165
C67	C	1.127567	-0.813697	-0.325996
C68	C	1.627567	-0.313697	0.174004
C69	C	1.070263	-0.782264	-0.388281
C70	C	1.570263	-0.282264	0.111719
C71	C	1.091421	-0.813271	-0.473267
C72	C	1.591421	-0.313271	0.026733
C73	C	1.091863	-0.898916	-0.472927
C74	C	1.591863	-0.398916	0.027073
C75	C	0.991941	-0.899150	-0.366551
C76	C	1.491941	-0.399150	0.133449
C77	C	0.992328	-0.813501	-0.364654
C78	C	1.492328	-0.313501	0.135346
C79	C	1.070235	-0.698405	-0.388265
C80	C	1.570235	-0.198405	0.111735
C81	C	1.070340	-1.014506	-0.388340
C82	C	1.570340	-0.514506	0.111660
C83	C	1.263400	-0.356861	-0.388263
C84	C	1.763400	0.143139	0.111737
C85	C	1.345714	-0.356874	-0.388258
C86	C	1.845714	0.143126	0.111742
C87	C	1.070286	-0.356776	-0.598583
C88	C	1.570286	0.143224	-0.098583
C89	C	1.070307	-0.356752	-0.688204
C90	C	1.570307	0.143248	-0.188204
C91	C	1.070322	-0.163669	-0.388330
C92	C	1.570322	0.336331	0.111670
C93	C	1.070358	-0.081355	-0.388355
C94	C	1.570358	0.418645	0.111645
C95	C	1.070341	-0.356670	-1.016380
C96	C	1.570341	0.143330	-0.516380
C97	C	1.070329	-0.356695	-0.925071
C98	C	1.570329	0.143305	-0.425071
C99	C	1.070324	-0.356712	-0.852295
C100	C	1.570324	0.143288	-0.352295
C101	C	1.070312	-0.356736	-0.760980
C102	C	1.570312	0.143264	-0.260980
C103	C	1.070233	-0.356833	-0.178783
C104	C	1.570233	0.143167	0.321217
C105	C	1.070356	-0.356648	-0.089162
C106	C	1.570356	0.143352	0.410838
H107	H	0.506251	-0.401396	-0.513147
H108	H	1.006251	0.098604	-0.013147
H109	H	0.976374	-0.793242	-0.302111
H110	H	1.476374	-0.293242	0.197889
H111	H	0.634386	-0.472007	-0.435962
H112	H	1.134386	0.027993	0.064038
H113	H	0.635200	-0.261712	-0.473243
H114	H	1.135200	0.238288	0.026757
H115	H	0.633882	-0.401049	-0.513768
H116	H	1.133882	0.098951	-0.013768
H117	H	1.148064	-0.791768	-0.492019
H118	H	1.648064	-0.291768	0.007981
H119	H	1.185103	-0.920788	-0.340070
H120	H	1.685103	-0.420788	0.159930
H121	H	0.635013	-0.339549	-0.254700
H122	H	1.135013	0.160451	0.245300
H123	H	0.972693	-0.920810	-0.305654
H124	H	1.472693	-0.420810	0.194346
H125	H	1.185618	-0.793158	-0.340397
H126	H	1.685618	-0.293158	0.159603
H127	H	0.507157	-0.472376	-0.435870
H128	H	1.007157	0.027624	0.064130
H129	H	1.051133	-0.792908	-0.521074
H130	H	1.551133	-0.292908	-0.021074
H131	H	0.506368	-0.432579	-0.281806
H132	H	1.006368	0.067421	0.218194
H133	H	0.633936	-0.435783	-0.285851
H134	H	1.133936	0.064217	0.214149
H135	H	0.947527	-0.792111	-0.406832
H136	H	1.447527	-0.292111	0.093168
H137	H	1.149147	-0.918839	-0.491367
H138	H	1.649147	-0.418839	0.008633
H139	H	0.508129	-0.262361	-0.474362
H140	H	1.008129	0.237639	0.025638
H141	H	1.052124	-0.919639	-0.521086
H142	H	1.552124	-0.419639	-0.021086
H143	H	0.507704	-0.334795	-0.256724
H144	H	1.007704	0.165205	0.243276
H145	H	0.507361	-0.234801	-0.368878
H146	H	1.007361	0.265199	0.131122
H147	H	0.634092	-0.234829	-0.367775
H148	H	1.134092	0.265171	0.132225
H149	H	0.949427	-0.919412	-0.412061
H150	H	1.449427	-0.419412	0.087939
H151	H	1.114329	-0.792736	-0.262980
H152	H	1.614329	-0.292736	0.237020
H153	H	1.114292	-0.919959	-0.262629
H154	H	1.614292	-0.419959	0.237371
