data_functionalizedCrystal
_audit_creation_method	'MofGen! by Chris Wilmer'
_symmetry_space_group_name_H-M	'P1'
_symmetry_Int_Tables_number	1
_symmetry_cell_setting	triclinic
loop_
_symmetry_equiv_pos_as_xyz
  x,y,z
_cell_length_a	13.897447
_cell_length_b	29.839134
_cell_length_c	13.897441
_cell_angle_alpha	89.964316
_cell_angle_beta	90.029327
_cell_angle_gamma	89.988103
loop_
_atom_site_label
_atom_site_type_symbol
_atom_site_fract_x
_atom_site_fract_y
_atom_site_fract_z
Zn1	Zn	-0.384180	-0.686831	0.545774
Zn2	Zn	0.115820	-0.186831	1.045774
Zn3	Zn	-0.545502	-0.686779	0.384479
Zn4	Zn	-0.045502	-0.186779	0.884479
Zn5	Zn	-0.384201	-0.611701	0.384451
Zn6	Zn	0.115799	-0.111701	0.884451
Zn7	Zn	-0.545414	-0.611690	0.545690
Zn8	Zn	-0.045414	-0.111690	1.045690
O9	O	-0.464824	-0.649250	0.465099
O10	O	0.035176	-0.149250	0.965099
O11	O	-0.405608	-0.749691	0.524426
O12	O	0.094392	-0.249691	1.024426
O13	O	-0.524151	-0.676803	0.249494
O14	O	-0.024151	-0.176803	0.749494
O15	O	-0.249217	-0.621693	0.405874
O16	O	0.250783	-0.121693	0.905874
O17	O	-0.524131	-0.749653	0.405923
O18	O	-0.024131	-0.249653	0.905923
O19	O	-0.249202	-0.676891	0.524398
O20	O	0.250798	-0.176891	1.024398
O21	O	-0.405644	-0.621643	0.249473
O22	O	0.094356	-0.121643	0.749473
O23	O	-0.405558	-0.548832	0.405792
O24	O	0.094442	-0.048832	0.905792
O25	O	-0.523980	-0.621675	0.680683
O26	O	-0.023980	-0.121675	1.180683
O27	O	-0.524000	-0.548824	0.524254
O28	O	-0.024000	-0.048824	1.024254
O29	O	-0.405523	-0.676880	0.680745
O30	O	0.094477	-0.176880	1.180745
O31	O	-0.680472	-0.676792	0.405841
O32	O	-0.180472	-0.176792	0.905841
O33	O	-0.680407	-0.621624	0.524282
O34	O	-0.180407	-0.121624	1.024282
C35	C	-0.464773	-0.532528	0.465011
C36	C	0.035227	-0.032528	0.965011
C37	C	-0.464774	-0.482593	0.464997
C38	C	0.035226	0.017407	0.964997
C39	C	-0.403053	-0.125998	0.403508
C40	C	0.096947	0.374002	0.903508
C41	C	-0.403028	-0.313671	0.403461
C42	C	0.096972	0.186329	0.903461
O43	O	-0.350474	-0.337928	0.351112
O44	O	0.149526	0.162072	0.851112
N45	N	-0.464787	-0.337148	0.465036
N46	N	0.035213	0.162852	0.965036
C47	C	-0.526552	-0.313704	0.526631
C48	C	-0.026552	0.186296	1.026631
O49	O	-0.579074	-0.337979	0.579010
O50	O	-0.079074	0.162021	1.079010
C51	C	-0.526571	-0.126032	0.526681
C52	C	-0.026571	0.373968	1.026681
C53	C	-0.464815	-0.102557	0.465096
C54	C	0.035185	0.397443	0.965096
C55	C	-0.341301	-0.102523	0.341928
C56	C	0.158699	0.397477	0.841928
C57	C	-0.341312	-0.055607	0.341936
C58	C	0.158688	0.444393	0.841936
C59	C	-0.403074	-0.032167	0.403525
C60	C	0.096926	0.467833	0.903525
C61	C	-0.464826	-0.055642	0.465104
C62	C	0.035174	0.444358	0.965104
C63	C	-0.588330	-0.102589	0.588281
C64	C	-0.088330	0.397411	1.088281
C65	C	-0.588328	-0.055668	0.588290
C66	C	-0.088328	0.444332	1.088290
C67	C	-0.526572	-0.032193	0.526704
C68	C	-0.026572	0.467807	1.026704
C69	C	-0.526598	0.014714	0.526701
C70	C	-0.026598	0.514714	1.026701
N71	N	-0.464839	0.038192	0.465127
N72	N	0.035161	0.538192	0.965127
C73	C	-0.403077	0.014751	0.403538
C74	C	0.096923	0.514751	0.903538
C75	C	-0.526539	-0.412235	0.526599
C76	C	-0.026539	0.087765	1.026599
C77	C	-0.526536	-0.459153	0.526585
C78	C	-0.026536	0.040847	1.026585
C79	C	-0.403011	-0.459116	0.403416
C80	C	0.096989	0.040884	0.903416
C81	C	-0.403019	-0.412197	0.403426
C82	C	0.096981	0.087803	0.903426
C83	C	-0.464780	-0.388757	0.465024
C84	C	0.035220	0.111243	0.965024
C85	C	-0.403104	0.113277	0.403560
C86	C	0.096896	0.613277	0.903560
C87	C	-0.403123	0.160197	0.403571
C88	C	0.096877	0.660197	0.903571
C89	C	-0.526644	0.160156	0.526743
C90	C	-0.026644	0.660156	1.026743
C91	C	-0.526630	0.113240	0.526729
C92	C	-0.026630	0.613240	1.026729
C93	C	-0.464852	0.089802	0.465134
C94	C	0.035148	0.589802	0.965134
O95	O	-0.579117	0.039001	0.579030
O96	O	-0.079117	0.539001	1.079030
O97	O	-0.350548	0.039034	0.351182
O98	O	0.149452	0.539034	0.851182
C99	C	-0.403043	-0.172913	0.403499
C100	C	0.096957	0.327087	0.903499
C101	C	-0.464794	-0.196388	0.465079
C102	C	0.035206	0.303612	0.965079
C103	C	-0.526556	-0.172947	0.526667
C104	C	-0.026556	0.327053	1.026667
C105	C	-0.464791	-0.243306	0.465065
C106	C	0.035209	0.256694	0.965065
C107	C	-0.403029	-0.266746	0.403477
C108	C	0.096971	0.233254	0.903477
C109	C	-0.341270	-0.243269	0.341902
C110	C	0.158730	0.256731	0.841902
C111	C	-0.341280	-0.196354	0.341911
C112	C	0.158720	0.303646	0.841911
C113	C	-0.588315	-0.196425	0.588242
C114	C	-0.088315	0.303575	1.088242
C115	C	-0.588300	-0.243340	0.588228
C116	C	-0.088300	0.256660	1.088228
C117	C	-0.526538	-0.266781	0.526639
C118	C	-0.026538	0.233219	1.026639
C119	C	-0.715439	-0.649214	0.465076
C120	C	-0.215439	-0.149214	0.965076
C121	C	-0.822653	-0.649239	0.465099
C122	C	-0.322653	-0.149239	0.965099
C123	C	-0.909722	-0.649261	0.465121
C124	C	-0.409722	-0.149261	0.965121
C125	C	-1.018955	-0.649292	0.465146
C126	C	-0.518955	-0.149292	0.965146
C127	C	-0.213231	-0.649299	0.465142
C128	C	0.286769	-0.149299	0.965142
C129	C	-0.106017	-0.649320	0.465161
C130	C	0.393983	-0.149320	0.965161
C131	C	-0.464739	-0.649282	0.716692
C132	C	0.035261	-0.149282	1.216692
C133	C	-0.464703	-0.649296	0.823906
C134	C	0.035297	-0.149296	1.323906
C135	C	-0.464874	0.233571	0.465171
C136	C	0.035126	0.733571	0.965171
C137	C	-0.464885	0.183637	0.465160
C138	C	0.035115	0.683637	0.965160
C139	C	-0.464840	-0.649244	0.214484
C140	C	0.035160	-0.149244	0.714484
C141	C	-0.464604	-0.649318	0.107271
C142	C	0.035396	-0.149318	0.607271
C143	C	-0.464638	-0.649308	1.020201
C144	C	0.035362	-0.149308	1.520201
C145	C	-0.464677	-0.649300	0.910968
C146	C	0.035323	-0.149300	1.410968
H147	H	-0.576933	0.179250	0.576883
H148	H	-0.076933	0.679250	1.076883
N149	N	-0.274679	-0.127794	0.275486
N150	N	0.225321	0.372206	0.775486
H151	H	-0.313821	-0.147240	0.230707
H152	H	0.186179	0.352760	0.730707
H153	H	-0.230023	-0.147253	0.314808
H154	H	0.269977	0.352747	0.814808
H155	H	-0.290984	-0.262363	0.291751
H156	H	0.209016	0.237637	0.791751
H157	H	-0.290991	-0.177245	0.291762
H158	H	0.209009	0.322755	0.791762
N159	N	-0.336516	0.185516	0.337141
N160	N	0.163484	0.685516	0.837141
H161	H	-0.297389	0.163544	0.298127
H162	H	0.202611	0.663544	0.798127
H163	H	-0.291926	0.204968	0.376481
H164	H	0.208074	0.704968	0.876481
H165	H	-0.352795	0.094199	0.353408
H166	H	0.147205	0.594199	0.853408
N167	N	-0.593171	-0.386957	0.593028
N168	N	-0.093171	0.113043	1.093028
H169	H	-0.554040	-0.367509	0.637811
H170	H	-0.054040	0.132491	1.137811
H171	H	-0.632278	-0.408982	0.631957
H172	H	-0.132278	0.091018	1.131957
H173	H	-0.638609	-0.177344	0.638396
H174	H	-0.138609	0.322656	1.138396
N175	N	-0.654924	-0.127904	0.654716
N176	N	-0.154924	0.372096	1.154716
H177	H	-0.699586	-0.147355	0.615452
H178	H	-0.199586	0.352645	1.115452
H179	H	-0.693976	-0.105902	0.693723
H180	H	-0.193976	0.394098	1.193723
H181	H	-0.638619	-0.036586	0.638455
H182	H	-0.138619	0.463414	1.138455
N183	N	-0.274687	-0.030287	0.275535
N184	N	0.225313	0.469713	0.775535
H185	H	-0.313822	-0.010800	0.230765
H186	H	0.186178	0.489200	0.730765
H187	H	-0.235569	-0.052287	0.236589
H188	H	0.264431	0.447713	0.736589
N189	N	-0.336413	-0.386880	0.337002
N190	N	0.163587	0.113120	0.837002
H191	H	-0.297292	-0.408853	0.297986
H192	H	0.202708	0.091147	0.797986
H193	H	-0.291816	-0.367431	0.376343
H194	H	0.208184	0.132569	0.876343
N195	N	-0.593247	0.087918	0.593139
N196	N	-0.093247	0.587918	1.093139
H197	H	-0.632377	0.109888	0.632153
H198	H	-0.132377	0.609888	1.132153
H199	H	-0.554030	0.068436	0.637844
H200	H	-0.054030	0.568436	1.137844
N201	N	-0.654920	-0.268657	0.654649
N202	N	-0.154920	0.231343	1.154649
H203	H	-0.694043	-0.246684	0.693664
H204	H	-0.194043	0.253316	1.193664
H205	H	-0.615704	-0.288139	0.699353
H206	H	-0.115704	0.211861	1.199353
H207	H	-0.352722	-0.478209	0.353268
H208	H	0.147278	0.021791	0.853268
H209	H	-0.576834	-0.478262	0.576724
H210	H	-0.076834	0.021738	1.076724
