data_functionalizedCrystal
_audit_creation_method	'MofGen! by Chris Wilmer'
_symmetry_space_group_name_H-M	'P1'
_symmetry_Int_Tables_number	1
_symmetry_cell_setting	triclinic
loop_
_symmetry_equiv_pos_as_xyz
  x,y,z
_cell_length_a	14.971486
_cell_length_b	10.723024
_cell_length_c	14.048226
_cell_angle_alpha	89.994758
_cell_angle_beta	89.998499
_cell_angle_gamma	84.040999
loop_
_atom_site_label
_atom_site_type_symbol
_atom_site_fract_x
_atom_site_fract_y
_atom_site_fract_z
O1	O	1.187820	0.162616	-0.079049
O2	O	0.927525	0.182090	-0.079074
O3	O	1.063676	-0.009286	-0.079057
O4	O	1.051668	0.353992	-0.079066
O5	O	1.063660	-0.009297	0.079264
O6	O	0.927508	0.182079	0.079247
O7	O	1.187804	0.162605	0.079273
Zn8	Zn	1.057653	0.172340	0.104397
Zn9	Zn	1.057675	0.172355	-0.104198
O10	O	1.051652	0.353981	0.079256
C11	C	0.894187	0.181213	0.000083
C12	C	0.794876	0.178604	0.000073
C13	C	0.738254	0.291032	0.000072
C14	C	0.644941	0.288572	0.000086
C15	C	0.608252	0.173683	0.000095
C16	C	0.664881	0.061246	0.000099
C17	C	0.758192	0.063707	0.000092
C18	C	0.470391	0.056125	0.000112
C19	C	0.377074	0.053663	0.000118
C20	C	0.357141	0.280990	0.000107
C21	C	0.450452	0.283451	0.000100
C22	C	0.507074	0.171013	0.000102
C23	C	1.062794	-0.055782	0.000102
C24	C	1.060180	-0.194309	0.000099
C25	C	1.136363	-0.270088	0.000105
C26	C	1.133663	-0.413263	0.000101
C27	C	1.221141	0.163482	0.000113
C28	C	1.320452	0.166091	0.000117
C29	C	1.052534	0.400477	0.000094
C30	C	1.055148	0.539004	0.000092
N31	N	1.057645	0.172329	0.246758
N32	N	1.057690	0.172356	-0.246559
C33	C	1.117952	0.087623	0.296583
C34	C	1.117958	0.087622	0.396241
C35	C	1.057660	0.172335	0.446071
C36	C	0.997347	0.257045	0.396238
C37	C	0.997337	0.257039	0.296583
C38	C	0.997373	0.257054	0.603953
C39	C	0.997383	0.257062	0.703615
C40	C	1.117994	0.087638	0.703611
C41	C	1.117984	0.087631	0.603955
C42	C	1.057671	0.172344	0.554129
H43	H	0.311034	0.372540	0.000109
H44	H	0.598843	0.380122	0.000084
H45	H	0.480320	0.377003	0.000084
O46	O	0.938927	0.339468	0.752060
C47	C	0.987291	0.416560	0.809706
H48	H	1.057836	0.418845	0.779664
H49	H	0.951392	0.515654	0.810830
H50	H	0.991751	0.377524	0.885238
O51	O	0.977310	-0.383384	0.000252
C52	C	0.927144	-0.406157	0.082228
H53	H	0.974051	-0.450655	0.139545
H54	H	0.891915	-0.313822	0.109749
H55	H	0.874902	-0.472406	0.063681
H56	H	0.516492	-0.035434	0.000116
H57	H	0.347205	-0.039889	0.000126
O58	O	0.938877	0.339516	0.555592
C59	C	0.954161	0.463077	0.579946
H60	H	1.025777	0.463849	0.607334
H61	H	0.944253	0.525675	0.514402
H62	H	0.904814	0.499621	0.637793
H63	H	0.992957	-0.235428	0.000086
H64	H	0.635002	-0.032298	0.000120
H65	H	0.948247	0.326015	0.436816
H66	H	0.804293	-0.027843	0.000092
O67	O	1.211449	-0.490984	-0.000063
C68	C	1.214827	-0.567163	-0.082047
H69	H	1.169421	-0.519485	-0.139361
H70	H	1.286786	-0.581808	-0.109565
H71	H	1.191008	-0.661792	-0.063513
H72	H	1.167057	0.018646	0.256018
O73	O	1.216487	-0.220838	0.000156
C74	C	1.201346	-0.088849	0.000132
H75	H	1.131708	-0.058520	0.030098
H76	H	1.254211	-0.048706	0.046103
H77	H	1.205875	-0.052589	-0.075822
H78	H	1.167064	0.018648	0.436808
O79	O	1.176590	0.005225	0.555696
C80	C	1.229840	-0.069524	0.621040
H81	H	1.193173	-0.071020	0.692086
H82	H	1.242875	-0.169146	0.592250
H83	H	1.296532	-0.028850	0.631621
H84	H	1.167102	0.018662	0.744185
O85	O	0.938846	0.339498	0.248221
C86	C	0.954125	0.463061	0.272572
H87	H	1.025741	0.463842	0.299957
H88	H	0.944210	0.525657	0.207028
H89	H	0.904778	0.499602	0.330421
O90	O	0.773742	0.402745	0.000105
C91	C	0.703752	0.501448	0.000084
H92	H	0.640162	0.466368	0.030065
H93	H	0.723741	0.581651	0.046045
H94	H	0.690758	0.536140	-0.075870
