data_functionalizedCrystal
_audit_creation_method	'MofGen! by Chris Wilmer'
_symmetry_space_group_name_H-M	'P1'
_symmetry_Int_Tables_number	1
_symmetry_cell_setting	triclinic
loop_
_symmetry_equiv_pos_as_xyz
  x,y,z
_cell_length_a	14.908571
_cell_length_b	19.121063
_cell_length_c	14.908308
_cell_angle_alpha	95.554627
_cell_angle_beta	90.175053
_cell_angle_gamma	89.303906
loop_
_atom_site_label
_atom_site_type_symbol
_atom_site_fract_x
_atom_site_fract_y
_atom_site_fract_z
Zn1	Zn	1.324072	-0.366417	-0.606393
Zn2	Zn	1.326220	-0.477475	-0.461735
Zn3	Zn	1.183168	-0.352931	-0.446699
Zn4	Zn	1.167296	-0.476641	-0.603344
O5	O	1.250189	-0.418366	-0.529543
O6	O	1.449836	-0.387142	-0.594773
O7	O	1.314785	-0.455659	-0.333644
O8	O	1.207604	-0.256469	-0.462866
O9	O	1.451414	-0.468736	-0.488493
O10	O	1.311125	-0.266377	-0.580193
O11	O	1.209686	-0.364157	-0.322597
O12	O	1.055584	-0.363348	-0.459909
O13	O	1.180551	-0.467315	-0.729845
O14	O	1.043922	-0.454238	-0.574995
O15	O	1.295734	-0.386334	-0.732085
O16	O	1.299394	-0.575616	-0.485536
O17	O	1.182633	-0.575003	-0.589576
C18	C	1.017218	-0.407239	-0.515490
C19	C	0.917550	-0.402497	-0.509501
C20	C	0.718169	-0.488362	-0.617938
C21	C	0.624521	-0.483909	-0.612314
C22	C	0.636605	-0.389134	-0.492633
C23	C	0.730253	-0.393588	-0.498257
C24	C	0.771031	-0.443204	-0.560911
C25	C	0.864680	-0.447660	-0.566530
C26	C	0.876762	-0.352883	-0.446854
C27	C	0.783115	-0.348429	-0.441230
C28	C	1.239548	-0.600787	-0.538878
C29	C	1.235075	-0.678833	-0.542906
C30	C	1.293807	-0.715799	-0.490682
C31	C	1.289606	-0.789131	-0.494476
C32	C	1.226668	-0.825496	-0.550491
C33	C	1.167934	-0.788525	-0.602722
C34	C	1.172140	-0.715194	-0.598932
C35	C	1.210929	-1.046893	-0.564648
C36	C	1.206726	-1.120229	-0.568432
C37	C	1.328400	-1.120830	-0.460187
C38	C	1.332596	-1.047498	-0.456398
C39	C	1.273865	-1.010533	-0.508632
C40	C	1.222371	-0.900454	-0.554369
C41	C	1.278168	-0.935578	-0.504758
C42	C	1.484070	-0.429537	-0.543650
C43	C	1.583736	-0.434297	-0.549662
C44	C	1.236132	-0.428235	-0.764574
C45	C	1.230142	-0.432441	-0.864731
C46	C	1.260895	-0.235235	-0.520192
C47	C	1.265458	-0.157195	-0.516207
C48	C	1.338824	-0.356002	-1.055270
C49	C	1.333199	-0.359951	-1.149376
C50	C	1.213262	-0.444285	-1.147051
C51	C	1.218888	-0.440335	-1.052945
C52	C	1.281672	-0.396193	-1.007057
C53	C	1.287301	-0.392248	-0.912950
C54	C	1.167360	-0.476578	-0.910626
C55	C	1.161735	-0.480527	-1.004732
C56	C	1.264246	-0.408487	-0.295425
C57	C	1.270421	-0.404092	-0.195270
H58	H	1.345054	-0.686195	-0.445064
Cl59	Cl	0.915944	-0.510035	-0.645292
H60	H	1.389949	-0.320063	-1.017908
Cl61	Cl	0.943224	-0.296115	-0.375151
Cl62	Cl	0.585325	-0.326755	-0.413888
H63	H	0.749900	-0.308032	-0.390222
Cl64	Cl	1.363447	-0.835600	-0.428822
H65	H	1.155484	-1.149837	-0.614063
H66	H	1.338424	-0.356306	-0.875590
H67	H	0.751371	-0.528765	-0.668948
Cl68	Cl	1.411733	-1.001788	-0.385990
H69	H	1.376216	-1.150935	-0.417663
H70	H	0.581483	-0.520680	-0.658753
Cl71	Cl	1.357290	-0.889861	-0.434346
Cl72	Cl	1.137093	-1.000434	-0.630312
Cl73	Cl	1.088816	-0.834242	-0.673147
Cl74	Cl	1.098305	-0.668723	-0.664591
H75	H	1.171125	-0.930070	-0.599975
Cl76	Cl	1.134335	-0.499767	-1.204752
H77	H	1.379736	-0.327221	-1.188626
Cl78	Cl	1.082811	-0.536016	-1.062428
Cl79	Cl	1.095516	-0.527115	-0.850012
