data_functionalizedCrystal
_audit_creation_method	'MofGen! by Chris Wilmer'
_symmetry_space_group_name_H-M	'P1'
_symmetry_Int_Tables_number	1
_symmetry_cell_setting	triclinic
loop_
_symmetry_equiv_pos_as_xyz
  x,y,z
_cell_length_a	10.654562
_cell_length_b	19.188924
_cell_length_c	9.130313
_cell_angle_alpha	89.996698
_cell_angle_beta	89.996930
_cell_angle_gamma	83.816034
loop_
_atom_site_label
_atom_site_type_symbol
_atom_site_fract_x
_atom_site_fract_y
_atom_site_fract_z
O1	O	1.665745	0.098101	-0.121903
O2	O	1.300070	0.107435	-0.121886
O3	O	1.493464	0.001181	-0.121878
O4	O	1.472350	0.204355	-0.121911
O5	O	1.493462	0.001184	0.121721
O6	O	1.300068	0.107438	0.121713
O7	O	1.665742	0.098104	0.121696
Cu8	Cu	1.482905	0.102771	0.143947
Cu9	Cu	1.482908	0.102768	-0.144137
O10	O	1.472348	0.204357	0.121688
C11	C	1.253286	0.106749	-0.000084
C12	C	1.113887	0.104693	-0.000076
C13	C	1.048375	0.103736	0.132698
C14	C	0.917394	0.101809	0.132674
C15	C	0.917447	0.101801	-0.132911
C16	C	1.048427	0.103722	-0.132885
C17	C	1.048343	0.103744	0.286032
C18	C	0.917362	0.101817	0.286007
C19	C	1.492781	-0.024833	-0.000077
C20	C	1.490733	-0.102351	-0.000073
C21	C	1.489778	-0.138758	-0.132859
C22	C	1.487836	-0.211593	-0.132870
C23	C	1.486873	-0.248021	-0.000087
C24	C	1.487821	-0.211605	0.132716
C25	C	1.489751	-0.138770	0.132724
N26	N	1.555305	-0.367234	0.098736
N27	N	1.553474	-0.436424	0.098720
C28	C	1.481057	-0.467468	-0.000101
N29	N	1.410554	-0.426709	-0.098928
N30	N	1.412391	-0.357513	-0.098917
C31	C	1.484780	-0.326998	-0.000080
C32	C	1.477994	-0.582851	-0.132908
C33	C	1.476044	-0.655688	-0.132914
C34	C	1.476042	-0.655699	0.132676
C35	C	1.477979	-0.582863	0.132678
C36	C	1.478961	-0.546444	-0.000118
C37	C	1.712527	0.098790	-0.000109
C38	C	1.851925	0.100846	-0.000126
C39	C	1.473031	0.230372	-0.000116
C40	C	1.475080	0.307890	-0.000130
N41	N	1.482912	0.102773	0.346570
N42	N	1.482910	0.102760	-0.346759
C43	C	1.568568	0.055740	0.423225
C44	C	1.568565	0.055732	0.576562
C45	C	1.397245	0.149795	0.576574
C46	C	1.397243	0.149800	0.423240
C47	C	1.667483	0.001435	0.423219
C48	C	1.667480	0.001427	0.576556
H49	H	1.095625	0.055494	0.344923
H50	H	1.487051	-0.241241	-0.241004
C51	C	1.788567	0.024016	0.359548
C52	C	1.847906	-0.030179	0.273254
C53	C	1.959427	-0.009386	0.214546
H54	H	1.843356	0.034242	0.436860
H55	H	1.769168	0.064655	0.300919
H56	H	1.867309	-0.070805	0.331880
H57	H	1.793153	-0.040411	0.195919
H58	H	1.940028	0.031252	0.155917
H59	H	2.014206	0.000840	0.291868
H60	H	1.999697	-0.046151	0.155979
C61	C	1.478973	-0.543202	0.276697
C62	C	1.480838	-0.471618	0.248285
C63	C	1.481732	-0.435060	0.380925
H64	H	1.551852	-0.560025	0.331362
H65	H	1.405414	-0.550129	0.331273
H66	H	1.554389	-0.464695	0.193732
H67	H	1.407964	-0.454775	0.193641
H68	H	1.408173	-0.441987	0.435501
H69	H	1.554612	-0.451889	0.435581
H70	H	1.482986	-0.386486	0.361666
H71	H	1.101764	0.104491	-0.241003
H72	H	1.638042	-0.049286	0.624113
C73	C	1.475204	-0.695324	-0.276979
C74	C	1.582091	-0.744485	-0.284706
C75	C	1.581353	-0.781019	-0.417388
H76	H	1.476131	-0.663288	-0.356188
H77	H	1.401272	-0.718809	-0.282518
H78	H	1.656003	-0.721001	-0.279181
H79	H	1.581186	-0.776535	-0.205527
H80	H	1.507422	-0.804504	-0.422927
H81	H	1.582277	-0.748978	-0.496587
H82	H	1.653868	-0.814383	-0.422642
C83	C	1.490761	-0.099339	-0.277187
C84	C	1.489475	-0.146815	-0.393479
C85	C	1.490360	-0.110525	-0.526454
H86	H	1.564706	-0.075889	-0.282918
H87	H	1.418268	-0.065971	-0.282783
H88	H	1.561961	-0.180170	-0.387886
H89	H	1.415536	-0.170267	-0.387796
H90	H	1.417866	-0.077157	-0.532050
H91	H	1.564305	-0.087076	-0.532170
H92	H	1.489475	-0.142731	-0.605374
H93	H	1.076837	0.154663	0.333600
C94	C	1.486518	-0.251096	0.276929
C95	C	1.378952	-0.226065	0.357026
C96	C	1.377694	-0.262431	0.489878
H97	H	1.559958	-0.244153	0.331666
H98	H	1.485167	-0.299691	0.257972
H99	H	1.380315	-0.177481	0.375987
H100	H	1.305495	-0.233008	0.302333
H101	H	1.376343	-0.311027	0.470921
H102	H	1.451139	-0.255486	0.544602
H103	H	1.304707	-0.245458	0.544234
C104	C	0.854497	0.166220	0.364455
C105	C	0.946989	0.207539	0.412464
C106	C	0.889126	0.266875	0.484712
H107	H	0.808380	0.152043	0.446278
H108	H	0.798633	0.192627	0.299056
H109	H	1.002831	0.181137	0.477859
H110	H	0.993112	0.221735	0.330670
H111	H	0.833262	0.293282	0.419313
H112	H	0.843010	0.252691	0.566528
H113	H	0.951871	0.294920	0.517283
H114	H	1.490523	-0.109128	0.240857
H115	H	1.763737	0.013392	0.618166
H116	H	1.478787	-0.553197	-0.241039
H117	H	0.864133	0.101011	-0.241039
H118	H	0.888853	0.050900	0.333595
H119	H	1.475249	-0.685357	0.240790
C120	C	1.304177	0.200937	0.340277
C121	C	1.229179	0.242130	0.440246
C122	C	1.143440	0.289252	0.363875
H123	H	1.251933	0.175627	0.280461
H124	H	1.349143	0.230280	0.280489
H125	H	1.184217	0.212791	0.500009
H126	H	1.281389	0.267455	0.500065
H127	H	1.188406	0.318595	0.304086
H128	H	1.091205	0.263937	0.304061
H129	H	1.092552	0.317212	0.431691
H130	H	1.327495	0.188083	0.639016
H131	H	1.647178	-0.052229	0.381609
