data_functionalizedCrystal
_audit_creation_method	'MofGen! by Chris Wilmer'
_symmetry_space_group_name_H-M	'P1'
_symmetry_Int_Tables_number	1
_symmetry_cell_setting	triclinic
loop_
_symmetry_equiv_pos_as_xyz
  x,y,z
_cell_length_a	23.532407
_cell_length_b	9.483290
_cell_length_c	10.967829
_cell_angle_alpha	91.624131
_cell_angle_beta	83.800948
_cell_angle_gamma	79.479326
loop_
_atom_site_label
_atom_site_type_symbol
_atom_site_fract_x
_atom_site_fract_y
_atom_site_fract_z
O1	O	0.746065	0.153260	0.129602
O2	O	0.579990	0.158583	0.150759
O3	O	0.669768	0.111969	-0.035246
O4	O	0.656287	0.199874	0.315607
O5	O	0.685264	-0.121465	-0.001943
O6	O	0.595486	-0.074851	0.184062
O7	O	0.761560	-0.080174	0.162905
Cu8	Cu	0.679938	-0.098827	0.176524
Cu9	Cu	0.661613	0.177236	0.137140
O10	O	0.671783	-0.033560	0.348910
C11	C	0.566527	0.041734	0.166871
C12	C	0.503326	0.041336	0.165250
N13	N	0.692831	-0.292995	0.204224
C14	C	0.665409	-0.379982	0.145304
C15	C	0.676150	-0.541613	0.168359
C16	C	0.238318	0.012045	0.048500
C17	C	0.297703	0.012423	0.050005
O18	O	0.335369	-0.010832	-0.042609
N19	N	0.319233	0.040138	0.160584
C20	C	0.281374	0.067463	0.269668
O21	O	0.305140	0.091070	0.363862
C22	C	0.221991	0.067075	0.268163
C23	C	0.200464	0.039373	0.157574
C24	C	0.216791	-0.015657	-0.062080
C25	C	0.157409	-0.016032	-0.063584
C26	C	0.119555	0.011296	0.045490
C27	C	0.141083	0.038998	0.156070
C28	C	0.184134	0.094390	0.377247
C29	C	0.124748	0.093999	0.375732
C30	C	0.103221	0.066296	0.265144
C31	C	0.043847	0.065951	0.263639
N32	N	0.022318	0.038235	0.153060
C33	C	0.060172	0.010908	0.043986
C34	C	0.406084	0.068273	0.272819
C35	C	0.465466	0.068671	0.274324
C36	C	0.481791	0.013628	0.054661
C37	C	0.422408	0.013240	0.053156
C38	C	0.384555	0.040558	0.162240
C39	C	-0.064534	0.010124	0.040834
C40	C	-0.123922	0.009758	0.039338
C41	C	-0.140241	0.064794	0.259001
C42	C	-0.080859	0.065168	0.260497
C43	C	-0.043006	0.037826	0.151404
O44	O	0.006148	0.089187	0.356206
O45	O	0.036399	-0.012714	-0.050191
C46	C	0.775023	0.036679	0.146792
C47	C	0.838224	0.037085	0.148412
C48	C	0.677706	-0.015989	-0.063473
C49	C	0.678265	-0.049483	-0.197199
N50	N	0.648724	0.371402	0.109430
C51	C	0.670487	0.056511	-0.274063
C52	C	0.671064	0.021895	-0.412276
C53	C	0.663845	0.094401	0.377137
C54	C	0.663285	0.127905	0.510861
H55	H	0.633978	-0.334793	0.077797
H56	H	0.724257	-0.338181	0.271742
O57	O	-0.181072	0.094245	0.376648
H58	H	-0.225979	0.089304	0.357015
H59	H	0.656191	0.244286	-0.452629
H60	H	-0.141445	-0.012798	-0.050721
H61	H	0.663397	0.172884	-0.237547
O62	O	0.680450	-0.132265	-0.460630
H63	H	0.686056	-0.204643	-0.383299
H64	H	0.685348	-0.165856	-0.233713
H65	H	-0.033720	-0.012139	-0.048001
H66	H	0.247607	-0.037916	-0.150906
O67	O	0.717791	-0.601442	0.257783
H68	H	0.719699	-0.719007	0.261848
H69	H	0.139888	-0.038596	-0.153636
H70	H	0.617289	-0.583418	0.041921
H71	H	0.404885	-0.009319	-0.036895
H72	H	0.201650	0.116955	0.467298
H73	H	0.512623	-0.008624	-0.034154
H74	H	0.482986	0.091249	0.364373
O75	O	0.365256	0.097762	0.390477
H76	H	0.390207	0.117110	0.467612
O77	O	0.083919	0.123471	0.493388
H78	H	0.108868	0.142808	0.570529
O79	O	-0.057635	0.095051	0.379769
H80	H	-0.093936	0.113984	0.455362
