data_functionalizedCrystal
_audit_creation_method	'MofGen! by Chris Wilmer'
_symmetry_space_group_name_H-M	'P1'
_symmetry_Int_Tables_number	1
_symmetry_cell_setting	triclinic
loop_
_symmetry_equiv_pos_as_xyz
  x,y,z
_cell_length_a	19.188933
_cell_length_b	10.654556
_cell_length_c	9.730223
_cell_angle_alpha	90.001244
_cell_angle_beta	89.998779
_cell_angle_gamma	83.816473
loop_
_atom_site_label
_atom_site_type_symbol
_atom_site_fract_x
_atom_site_fract_y
_atom_site_fract_z
O1	O	-0.927167	-0.156786	-0.114244
O2	O	-0.723994	-0.177888	-0.114257
O3	O	-0.830250	0.015501	-0.114241
O4	O	-0.820912	-0.350174	-0.114259
O5	O	-0.830249	0.015496	0.114339
O6	O	-0.723993	-0.177893	0.114323
O7	O	-0.927166	-0.156790	0.114336
Zn8	Zn	-0.825579	-0.167343	0.150622
Zn9	Zn	-0.825581	-0.167336	-0.150542
O10	O	-0.820910	-0.350179	0.114321
C11	C	-0.697978	-0.177207	0.000032
C12	C	-0.620460	-0.175154	0.000027
C13	C	-0.953182	-0.157472	0.000045
C14	C	-1.030700	-0.159524	0.000040
C15	C	-0.829563	0.062281	0.000048
C16	C	-0.827509	0.201681	0.000046
C17	C	-0.067110	-0.160502	-0.124556
C18	C	-0.139947	-0.162423	-0.124562
C19	C	-0.176369	-0.163392	0.000037
C20	C	-0.139951	-0.162407	0.124650
C21	C	-0.067117	-0.160474	0.124652
N22	N	-0.285877	-0.237889	0.092777
N23	N	-0.355066	-0.239729	0.092767
C24	C	-0.395816	-0.169215	0.000039
N25	N	-0.364761	-0.096809	-0.092700
N26	N	-0.295565	-0.094975	-0.092694
C27	C	-0.255346	-0.165488	0.000049
C28	C	-0.511204	-0.172274	-0.124572
C29	C	-0.584043	-0.174187	-0.124573
C30	C	-0.584045	-0.174185	0.124643
C31	C	-0.511208	-0.172259	0.124639
C32	C	-0.474792	-0.171309	0.000028
C33	C	-0.826542	0.267171	0.124644
C34	C	-0.824618	0.398153	0.124640
C35	C	-0.824625	0.398142	-0.124570
C36	C	-0.826554	0.267164	-0.124565
C37	C	-0.826534	0.267178	0.268524
C38	C	-0.824610	0.398160	0.268520
N39	N	-0.825583	-0.167346	0.356158
C40	C	-0.821599	0.603040	0.000032
C41	C	-0.823656	0.463641	0.000037
N42	N	-0.825582	-0.167323	-0.356079
C43	C	-0.872646	-0.081742	0.428091
C44	C	-0.872644	-0.081727	0.571974
C45	C	-0.778515	-0.252931	0.571978
C46	C	-0.778514	-0.252939	0.428098
C47	C	-0.926992	0.017097	0.428090
C48	C	-0.926990	0.017113	0.571973
H49	H	-0.037464	-0.159724	-0.226025
H50	H	-0.169597	-0.163226	-0.226026
Cl51	Cl	-0.185739	-0.163620	0.281288
Cl52	Cl	-0.629828	-0.175383	0.281283
H53	H	-0.037472	-0.159683	0.226116
Cl54	Cl	-0.908586	0.165741	0.367788
Cl55	Cl	-1.005248	-0.028489	0.359181
Cl56	Cl	-0.465420	-0.171071	-0.281223
Cl57	Cl	-0.900794	0.157389	0.640873
H58	H	-0.613687	-0.174974	-0.226038
Cl59	Cl	-0.465432	-0.171051	0.281285
Cl60	Cl	-0.827784	0.184840	-0.281209
Cl61	Cl	-1.009823	-0.014347	0.632278
Cl62	Cl	-0.823427	0.480473	-0.281215
Cl63	Cl	-0.901376	0.479621	0.337464
Cl64	Cl	-0.749764	0.185718	0.337430
Cl65	Cl	-0.748502	0.434906	0.353794
H66	H	-0.875828	0.243394	0.323776
H67	H	-0.740187	-0.322633	0.369532
H68	H	-0.740192	-0.322617	0.630567
