data_functionalizedCrystal
_audit_creation_method	'MofGen! by Chris Wilmer'
_symmetry_space_group_name_H-M	'P1'
_symmetry_Int_Tables_number	1
_symmetry_cell_setting	triclinic
loop_
_symmetry_equiv_pos_as_xyz
  x,y,z
_cell_length_a	21.395362
_cell_length_b	13.031981
_cell_length_c	21.395355
_cell_angle_alpha	82.800183
_cell_angle_beta	89.956060
_cell_angle_gamma	97.204883
loop_
_atom_site_label
_atom_site_type_symbol
_atom_site_fract_x
_atom_site_fract_y
_atom_site_fract_z
Zn1	Zn	0.926274	-0.415794	-0.322901
Zn2	Zn	1.426274	0.084206	0.177099
Zn3	Zn	0.912901	-0.590555	-0.204806
Zn4	Zn	1.412901	-0.090555	0.295194
Zn5	Zn	0.821486	-0.415842	-0.218098
Zn6	Zn	1.321486	0.084158	0.281902
Zn7	Zn	0.808181	-0.590577	-0.309509
Zn8	Zn	1.308181	-0.090577	0.190491
O9	O	0.867211	-0.503192	-0.263828
O10	O	1.367211	-0.003192	0.236172
O11	O	1.012181	-0.438947	-0.307277
O12	O	1.512181	0.061053	0.192723
O13	O	0.900746	-0.567390	-0.118890
O14	O	1.400746	-0.067390	0.381110
O15	O	0.846551	-0.269571	-0.243168
O16	O	1.346551	0.230429	0.256832
O17	O	1.002356	-0.567343	-0.220513
O18	O	1.502356	-0.067343	0.279487
O19	O	0.923538	-0.269535	-0.320166
O20	O	1.423538	0.230465	0.179834
O21	O	0.833583	-0.439030	-0.128656
O22	O	1.333583	0.060970	0.371344
O23	O	0.732041	-0.439051	-0.230182
O24	O	1.232041	0.060949	0.269818
O25	O	0.823875	-0.567380	-0.398964
O26	O	1.323875	-0.067380	0.101036
O27	O	0.722266	-0.567427	-0.297341
O28	O	1.222266	-0.067427	0.202659
O29	O	0.910638	-0.438968	-0.408803
O30	O	1.410638	0.061032	0.091197
O31	O	0.887846	-0.736823	-0.207527
O32	O	1.387846	-0.236823	0.292473
O33	O	0.810908	-0.736839	-0.284452
O34	O	1.310908	-0.236839	0.215548
C35	C	0.704419	-0.503247	-0.263751
C36	C	1.204419	-0.003247	0.236249
C37	C	0.634774	-0.503296	-0.263732
C38	C	1.134774	-0.003296	0.236268
C39	C	0.846499	-0.774756	-0.243108
C40	C	1.346499	-0.274756	0.256892
C41	C	0.837696	-0.890932	-0.234265
C42	C	1.337696	-0.390932	0.265735
C43	C	0.596981	-0.570230	-0.298634
C44	C	1.096981	-0.070230	0.201366
C45	C	0.531547	-0.570205	-0.298664
C46	C	1.031547	-0.070205	0.201336
C47	C	0.503909	-0.503256	-0.263779
C48	C	1.003909	-0.003256	0.236221
C49	C	0.541711	-0.436309	-0.228874
C50	C	1.041711	0.063691	0.271126
C51	C	0.607143	-0.436329	-0.228851
C52	C	1.107143	0.063671	0.271149
C53	C	0.400824	-0.494836	-0.208016
C54	C	0.900824	0.005164	0.291984
C55	C	0.335392	-0.494823	-0.208038
C56	C	0.835392	0.005177	0.291962
C57	C	0.302093	-0.503188	-0.263854
C58	C	0.802093	-0.003188	0.236146
C59	C	0.334233	-0.511587	-0.319647
C60	C	0.834233	-0.011587	0.180353
C61	C	0.399666	-0.511607	-0.319623
C62	C	0.899666	-0.011607	0.180377
C63	C	0.432959	-0.503226	-0.263802
C64	C	0.932959	-0.003226	0.236198
C65	C	0.193349	-0.570098	-0.298792
C66	C	0.693349	-0.070098	0.201208
C67	C	0.127915	-0.570065	-0.298823
C68	C	0.627915	-0.070065	0.201177
C69	C	0.138079	-0.436174	-0.229028
C70	C	0.638079	0.063826	0.270972
C71	C	0.203513	-0.436202	-0.229002
C72	C	0.703513	0.063798	0.270998
C73	C	0.231143	-0.503169	-0.263883
C74	C	0.731143	-0.003169	0.236117
C75	C	0.871838	-0.942626	-0.268456
C76	C	1.371838	-0.442626	0.231544
C77	C	0.862741	-1.062700	-0.259317
C78	C	1.362741	-0.562700	0.240683
C79	C	1.030638	-0.503137	-0.263906
C80	C	1.530638	-0.003137	0.236094
C81	C	1.100281	-0.503114	-0.263939
C82	C	1.600281	-0.003114	0.236061
C83	C	0.867264	-0.503171	-0.427253
C84	C	1.367264	-0.003171	0.072747
C85	C	0.867287	-0.503162	-0.496895
C86	C	1.367287	-0.003162	0.003105
C87	C	0.888020	-0.230568	-0.284643
C88	C	1.388020	0.269432	0.215357
C89	C	0.896888	-0.114391	-0.293514
C90	C	1.396888	0.385609	0.206486
C91	C	0.912463	-0.436295	-0.534733
C92	C	1.412463	0.063705	-0.034733
C93	C	0.912465	-0.436250	-0.600172
C94	C	1.412465	0.063750	-0.100172
C95	C	0.867297	-0.503091	-0.627769
C96	C	1.367297	-0.003091	-0.127769
C97	C	0.822114	-0.569962	-0.589923
C98	C	1.322114	-0.069962	-0.089923
C99	C	0.822109	-0.569998	-0.524486
C100	C	1.322109	-0.069998	-0.024486
C101	C	0.855172	-0.597205	-0.724261
C102	C	1.355172	-0.097205	-0.224261
C103	C	0.855182	-0.597172	-0.789697
C104	C	1.355182	-0.097172	-0.289697
C105	C	0.867310	-0.502980	-0.829598
C106	C	1.367310	-0.002980	-0.329598
C107	C	0.879442	-0.408820	-0.804057
C108	C	1.379442	0.091180	-0.304057
C109	C	0.879437	-0.408855	-0.738620
C110	C	1.379437	0.091145	-0.238620
C111	C	0.867298	-0.503059	-0.698724
C112	C	1.367298	-0.003059	-0.198724
C113	C	0.912491	-0.436059	-0.938393
C114	C	1.412491	0.063941	-0.438393
C115	C	0.912489	-0.436012	-1.003833
C116	C	1.412489	0.063988	-0.503833
C117	C	0.822140	-0.569734	-0.993583
C118	C	1.322140	-0.069734	-0.493583
C119	C	0.822139	-0.569771	-0.928144
C120	C	1.322139	-0.069771	-0.428144
C121	C	0.867318	-0.502935	-0.900553
C122	C	1.367318	-0.002935	-0.400553
C123	C	0.867199	-0.503138	-0.101045
C124	C	1.367199	-0.003138	0.398955
C125	C	0.867320	-0.502852	-0.031426
C126	C	1.367320	-0.002852	0.468574
H127	H	0.619473	-0.624759	-0.327038
H128	H	1.119473	-0.124759	0.172962
H129	H	0.949276	-0.381555	-1.034640
H130	H	1.449276	0.118445	-0.534640
H131	H	0.115577	-0.381658	-0.200627
H132	H	0.615577	0.118342	0.299373
C133	C	0.814150	-1.122987	-0.210629
C134	C	1.314150	-0.622987	0.289371
H135	H	0.814412	-1.195781	-0.210871
H136	H	1.314412	-0.695781	0.289129
H137	H	0.773384	-1.105219	-0.221087
H138	H	1.273384	-0.605219	0.278913
H139	H	0.824685	-1.105165	-0.169887
H140	H	1.324685	-0.605165	0.330113
H141	H	0.949250	-0.381870	-0.512273
H142	H	1.449250	0.118130	-0.012273
H143	H	0.801727	-0.935569	-0.198229
H144	H	1.301727	-0.435569	0.301771
H145	H	0.785318	-0.624448	-0.493679
H146	H	1.285318	-0.124448	0.006321
H147	H	0.500770	-0.624710	-0.327089
H148	H	1.000770	-0.124710	0.172911
C149	C	0.772459	-0.643264	-1.023931
C150	C	1.272459	-0.143264	-0.523931
H151	H	0.778935	-0.633674	-1.068323
H152	H	1.278935	-0.133674	-0.568323
H153	H	0.731526	-0.627997	-1.014342
H154	H	1.231526	-0.127997	-0.514342
H155	H	0.776277	-0.713496	-1.007861
H156	H	1.276277	-0.213496	-0.507861
C157	C	0.648717	-0.362704	-0.190452
C158	C	1.148717	0.137296	0.309548
H159	H	0.622887	-0.322829	-0.169677
H160	H	1.122887	0.177171	0.330323
H161	H	0.677754	-0.317233	-0.217923
H162	H	1.177754	0.182767	0.282077
H163	H	0.671151	-0.402637	-0.160054
H164	H	1.171151	0.097363	0.339946
H165	H	0.785355	-0.624228	-0.897336
H166	H	1.285355	-0.124228	-0.397336
H167	H	0.425831	-0.518444	-0.365053
H168	H	0.925831	-0.018444	0.134947
C169	C	0.297614	-0.520785	-0.381048
C170	C	0.797614	-0.020785	0.118952
H171	H	0.254043	-0.519558	-0.373076
H172	H	0.754043	-0.019558	0.126924
H173	H	0.303482	-0.584468	-0.396159
H174	H	0.803482	-0.084468	0.103841
H175	H	0.312719	-0.463988	-0.411787
H176	H	0.812719	0.036012	0.088213
H177	H	0.932854	-1.069759	-0.329558
H178	H	1.432854	-0.569759	0.170442
H179	H	0.907802	-0.897991	-0.304498
H180	H	1.407802	-0.397991	0.195502
C181	C	0.841835	-0.700741	-0.817787
C182	C	1.341835	-0.200741	-0.317787
H183	H	0.834599	-0.756841	-0.784653
H184	H	1.334599	-0.256841	-0.284653
H185	H	0.877042	-0.709913	-0.842641
H186	H	1.377042	-0.209913	-0.342641
H187	H	0.805617	-0.699371	-0.843390
H188	H	1.305617	-0.199371	-0.343390
C189	C	0.437449	-0.485634	-0.146616
C190	C	0.937449	0.014366	0.353384
H191	H	0.481021	-0.486839	-0.154593
H192	H	0.981021	0.013161	0.345407
H193	H	0.422348	-0.542424	-0.115876
H194	H	0.922348	-0.042424	0.384124
H195	H	0.431579	-0.421944	-0.131508
H196	H	0.931579	0.078056	0.368492
C197	C	0.962165	-0.362702	-0.641800
C198	C	1.462165	0.137298	-0.141800
H199	H	0.989073	-0.322908	-0.615995
H200	H	1.489073	0.177092	-0.115995
H201	H	0.941681	-0.317152	-0.670783
H202	H	1.441681	0.182848	-0.170783
H203	H	0.986412	-0.402681	-0.664296
H204	H	1.486412	0.097319	-0.164296
H205	H	0.309228	-0.487990	-0.162607
H206	H	0.809228	0.012010	0.337393
H207	H	0.845130	-0.673888	-0.691779
H208	H	1.345130	-0.173888	-0.191779
H209	H	0.785336	-0.624381	-0.612398
H210	H	1.285336	-0.124381	-0.112398
C211	C	0.892773	-0.305291	-0.710522
C212	C	1.392773	0.194709	-0.210522
H213	H	0.891036	-0.318807	-0.665836
H214	H	1.391036	0.181193	-0.165836
H215	H	0.862045	-0.261330	-0.724570
H216	H	1.362045	0.238670	-0.224570
H217	H	0.933473	-0.271849	-0.723819
H218	H	1.433473	0.228151	-0.223819
H219	H	0.889319	-0.332120	-0.836544
H220	H	1.389319	0.167880	-0.336544
C221	C	0.245086	-0.362586	-0.190600
C222	C	0.745086	0.137414	0.309400
H223	H	0.219255	-0.322716	-0.169822
H224	H	0.719255	0.177284	0.330178
H225	H	0.274122	-0.317111	-0.218070
H226	H	0.774122	0.182889	0.281930
H227	H	0.267521	-0.402521	-0.160203
H228	H	0.767521	0.097479	0.339797
C229	C	0.223747	-0.643746	-0.337166
C230	C	0.723747	-0.143746	0.162834
H231	H	0.191865	-0.683595	-0.357966
H232	H	0.691865	-0.183595	0.142034
H233	H	0.245762	-0.689239	-0.309675
H234	H	0.745762	-0.189239	0.190325
H235	H	0.252359	-0.603829	-0.367542
H236	H	0.752359	-0.103829	0.132458
H237	H	0.949275	-0.381631	-0.915927
H238	H	1.449275	0.118369	-0.415927
C239	C	0.086341	-0.643711	-0.337209
C240	C	0.586341	-0.143711	0.162791
H241	H	0.112170	-0.683605	-0.357970
H242	H	0.612170	-0.183605	0.142030
H243	H	0.063897	-0.603806	-0.367607
H244	H	0.563897	-0.103806	0.132393
H245	H	0.057312	-0.689179	-0.309721
H246	H	0.557312	-0.189179	0.190279
C247	C	0.511311	-0.362667	-0.190502
C248	C	1.011311	0.137333	0.309498
H249	H	0.466928	-0.372248	-0.195510
H250	H	0.966928	0.127752	0.304490
H251	H	0.527418	-0.292466	-0.205094
H252	H	1.027418	0.207534	0.294906
H253	H	0.520825	-0.377868	-0.147223
H254	H	1.020825	0.122132	0.352777
