data_functionalizedCrystal
_audit_creation_method	'MofGen! by Chris Wilmer'
_symmetry_space_group_name_H-M	'P1'
_symmetry_Int_Tables_number	1
_symmetry_cell_setting	triclinic
loop_
_symmetry_equiv_pos_as_xyz
  x,y,z
_cell_length_a	27.732048
_cell_length_b	17.038272
_cell_length_c	16.098538
_cell_angle_alpha	92.930266
_cell_angle_beta	92.695138
_cell_angle_gamma	93.122894
loop_
_atom_site_label
_atom_site_type_symbol
_atom_site_fract_x
_atom_site_fract_y
_atom_site_fract_z
O1	O	0.102899	-1.039664	-0.069167
O2	O	0.101233	-0.812054	-0.069192
O3	O	0.031993	-0.932928	-0.069163
O4	O	0.172139	-0.918791	-0.069196
O5	O	0.036021	-0.925867	0.069348
O6	O	0.105261	-0.804994	0.069320
O7	O	0.106927	-1.032604	0.069344
Zn8	Zn	0.106733	-0.917678	0.091323
Zn9	Zn	0.101427	-0.926980	-0.091171
O10	O	0.176167	-0.911730	0.069315
C11	C	0.101731	-0.779414	0.000061
C12	C	0.097211	-0.692674	0.000053
C13	C	0.015987	-0.929100	0.000095
C14	C	-0.037709	-0.928206	0.000102
N15	N	0.110355	-0.911335	0.215871
C16	C	-0.373515	-0.994011	0.000066
C17	C	-0.575327	-0.990696	0.000054
O18	O	-0.603831	-1.050870	0.000024
N19	N	-0.597729	-0.919023	0.000047
C20	C	-0.569676	-0.848173	0.000038
O21	O	-0.593361	-0.787135	0.000023
C22	C	-0.367865	-0.851490	0.000044
C23	C	-0.345465	-0.923167	0.000059
C24	C	-0.351115	-1.065683	0.000080
C25	C	-0.300665	-1.066511	0.000088
C26	C	-0.272615	-0.995667	0.000081
C27	C	-0.295015	-0.923995	0.000067
C28	C	-0.339813	-0.780641	0.000029
C29	C	-0.289357	-0.781477	0.000028
C30	C	-0.266957	-0.853155	0.000043
C31	C	-0.216515	-0.853979	0.000067
N32	N	-0.194113	-0.925652	0.000074
C33	C	-0.222163	-0.996496	0.000081
C34	C	-0.675629	-0.846437	0.000036
C35	C	-0.726081	-0.845608	0.000036
C36	C	-0.731729	-0.988131	0.000051
C37	C	-0.681276	-0.988959	0.000057
C38	C	-0.653227	-0.918111	0.000043
C39	C	-0.116214	-0.998229	0.000098
C40	C	-0.065759	-0.999051	0.000109
C41	C	-0.060116	-0.856528	0.000090
C42	C	-0.110566	-0.855706	0.000083
C43	C	-0.138614	-0.926563	0.000084
O44	O	-0.187981	-0.793838	0.000088
O45	O	-0.198469	-1.057527	0.000077
C46	C	-0.423965	-0.993184	0.000059
C47	C	-0.446365	-0.921512	0.000044
C48	C	-0.418315	-0.850668	0.000037
C49	C	-0.496818	-0.920682	0.000044
C50	C	-0.524868	-0.991526	0.000051
C51	C	-0.502465	-1.063200	0.000058
C52	C	-0.452015	-1.064028	0.000065
C53	C	-0.440718	-0.778994	0.000030
C54	C	-0.491168	-0.778172	0.000024
C55	C	-0.519218	-0.849016	0.000031
C56	C	0.192173	-0.915558	0.000055
C57	C	0.245869	-0.916452	0.000043
C58	C	0.106428	-1.065245	0.000089
C59	C	0.110949	-1.151985	0.000092
C60	C	0.138713	-0.642076	0.000043
C61	C	0.134463	-0.560575	0.000056
C62	C	0.088710	-0.529672	0.000072
C63	C	0.047205	-0.580276	0.000083
C64	C	0.051455	-0.661776	0.000077
C65	C	0.073694	-0.284088	0.000098
C66	C	0.069446	-0.202582	0.000102
C67	C	0.156706	-0.182886	0.000076
C68	C	0.160952	-0.264389	0.000064
C69	C	0.119446	-0.314985	0.000080
C70	C	0.084365	-0.446365	0.000082
C71	C	0.123792	-0.398290	0.000076
N72	N	0.097802	-0.933330	-0.215719
C73	C	0.080979	-0.962657	0.259468
C74	C	0.083517	-0.958226	0.346656
C75	C	0.115434	-0.902478	0.390245
C76	C	0.144812	-0.851150	0.346642
C77	C	0.142270	-0.855577	0.259456
C78	C	0.124638	-0.886429	0.653492
C79	C	0.127178	-0.882008	0.740684
C80	C	0.065882	-0.989084	0.740692
C81	C	0.063346	-0.993509	0.653504
C82	C	0.092721	-0.942179	0.609908
C83	C	0.118031	-0.897950	0.479365
C84	C	0.090122	-0.946704	0.520790
H85	H	-0.047523	-1.057421	0.000123
H86	H	0.009952	-0.555109	0.000108
N87	N	0.057489	-1.003609	0.476282
N88	N	0.031242	-1.049404	0.515213
H89	H	0.008183	-1.089578	0.483774
N90	N	0.037626	-0.414811	0.000083
N91	N	0.000571	-0.459992	0.000084
H92	H	-0.032439	-0.437706	0.000086
H93	H	0.054990	-1.008056	0.223984
N94	N	0.176861	-0.508897	0.000065
N95	N	0.208245	-0.508450	0.058445
H96	H	0.238191	-0.471954	0.058456
N97	N	0.009057	-0.713451	0.000096
N98	N	-0.031792	-0.685853	0.000113
H99	H	-0.061737	-0.722347	0.000132
N100	N	-0.144852	-1.070614	0.000096
N101	N	-0.124837	-1.134596	0.000110
H102	H	-0.145063	-1.185719	0.000113
H103	H	0.161044	-0.423454	0.000068
H104	H	0.166191	-0.813784	0.223960
N105	N	0.035867	-1.041496	0.785225
N106	N	-0.009116	-1.041456	0.775505
H107	H	-0.030318	-1.078472	0.806956
H108	H	0.148557	-0.844636	0.618003
H109	H	0.190497	-0.141682	0.000064
N110	N	-0.260714	-0.709098	0.000004
N111	N	-0.280725	-0.645112	-0.000014
H112	H	-0.260497	-0.593993	-0.000032
N113	N	-0.031457	-0.784169	0.000058
N114	N	-0.036889	-0.739351	-0.058347
H115	H	-0.016647	-0.688248	-0.058378
N116	N	-0.748959	-0.772390	0.000048
N117	N	-0.739736	-0.721795	0.058431
H118	H	-0.755892	-0.670082	0.058438
N119	N	0.159781	-0.825049	0.785198
N120	N	0.186004	-0.779219	0.746265
H121	H	0.209028	-0.738992	0.777702
H122	H	-0.358042	-0.722274	0.000011
H123	H	-0.128804	-0.797339	0.000094
N124	N	-0.514045	-0.704949	0.000027
N125	N	-0.504827	-0.654349	0.058406
H126	H	-0.520983	-0.602636	0.058403
H127	H	0.059596	-1.000016	0.382153
H128	H	-0.282432	-1.124878	0.000097
N129	N	0.022704	-0.171029	0.000116
N130	N	-0.014350	-0.216211	0.000130
H131	H	-0.047360	-0.193927	0.000138
H132	H	0.037356	-1.038904	0.618016
H133	H	0.170798	-0.805754	0.382137
H134	H	0.039897	-0.325275	0.000111
N135	N	0.150627	-0.840998	0.523896
N136	N	0.134699	-0.790213	0.572559
H137	H	0.157719	-0.749989	0.604012
N138	N	-0.429138	-1.137245	0.000093
N139	N	-0.434977	-1.181886	0.058486
H140	H	-0.418823	-1.233600	0.058506
N141	N	-0.379755	-1.138063	0.000082
N142	N	-0.359739	-1.202044	0.000092
H143	H	-0.379963	-1.253167	0.000097
H144	H	-0.525312	-1.120883	0.000067
N145	N	-0.412070	-0.706625	0.000012
N146	N	-0.417507	-0.661793	-0.058378
H147	H	-0.397277	-0.610677	-0.058389
N148	N	-0.658405	-1.062182	0.000076
N149	N	-0.683461	-1.125426	0.000089
H150	H	-0.667311	-1.177144	0.000103
H151	H	-0.652796	-0.788740	0.000025
H152	H	-0.754576	-1.045815	0.000057
H153	H	0.198208	-0.289543	0.000042
N154	N	0.185453	-0.673626	0.000020
N155	N	0.222505	-0.628436	0.000013
H156	H	0.255517	-0.650715	-0.000001
