data_functionalizedCrystal
_audit_creation_method	'MofGen! by Chris Wilmer'
_symmetry_space_group_name_H-M	'P1'
_symmetry_Int_Tables_number	1
_symmetry_cell_setting	triclinic
loop_
_symmetry_equiv_pos_as_xyz
  x,y,z
_cell_length_a	18.101398
_cell_length_b	21.395361
_cell_length_c	21.395355
_cell_angle_alpha	89.978489
_cell_angle_beta	89.970130
_cell_angle_gamma	90.025974
loop_
_atom_site_label
_atom_site_type_symbol
_atom_site_fract_x
_atom_site_fract_y
_atom_site_fract_z
Zn1	Zn	1.132164	-0.249590	-0.354337
Zn2	Zn	1.132048	-0.354350	-0.249554
Zn3	Zn	1.008310	-0.249582	-0.249564
Zn4	Zn	1.008274	-0.354325	-0.354285
O5	O	1.070199	-0.301962	-0.301935
O6	O	1.235781	-0.263501	-0.340455
O7	O	1.115601	-0.340459	-0.161878
O8	O	1.024803	-0.161905	-0.263489
O9	O	1.235696	-0.340467	-0.263472
O10	O	1.115798	-0.161911	-0.340465
O11	O	1.024692	-0.263486	-0.161885
O12	O	0.904673	-0.263462	-0.263438
O13	O	1.024741	-0.340425	-0.441970
O14	O	0.904646	-0.340417	-0.340376
O15	O	1.115762	-0.263477	-0.442008
O16	O	1.115566	-0.442025	-0.263421
O17	O	1.024629	-0.442006	-0.340366
C18	C	1.070101	-0.464749	-0.301900
C19	C	1.070127	-0.534391	-0.301906
C20	C	0.877789	-0.301936	-0.301902
C21	C	0.795474	-0.301941	-0.301903
C22	C	1.117520	-0.567092	-0.261882
C23	C	1.117554	-0.632528	-0.261896
C24	C	1.070183	-0.665259	-0.301928
C25	C	1.022787	-0.632549	-0.341960
C26	C	1.022759	-0.567115	-0.341949
C27	C	1.003502	-0.768969	-0.306832
C28	C	1.003529	-0.834402	-0.306839
C29	C	1.070269	-0.867080	-0.301965
C30	C	1.136985	-0.834316	-0.297071
C31	C	1.136957	-0.768882	-0.297060
C32	C	1.070208	-0.736211	-0.301944
C33	C	1.117703	-0.970734	-0.261953
C34	C	1.117739	-1.036171	-0.261972
C35	C	1.022965	-1.036191	-0.342032
C36	C	1.022936	-0.970755	-0.342017
C37	C	1.070304	-0.938031	-0.301974
C38	C	0.496383	-0.301980	-0.301956
C39	C	0.527701	-0.253320	-0.253785
C40	C	0.613319	-0.253450	-0.253579
C41	C	0.644766	-0.301960	-0.301930
C42	C	0.613646	-0.367957	-0.283884
C43	C	0.528001	-0.367687	-0.283549
C44	C	0.528006	-0.285215	-0.368286
C45	C	0.613656	-0.283746	-0.367925
C46	C	0.728626	-0.301953	-0.301916
C47	C	0.412524	-0.301991	-0.301968
C48	C	1.263361	-0.301988	-0.301968
C49	C	1.345675	-0.301999	-0.301982
C50	C	1.070261	-0.301949	-0.465358
C51	C	1.070287	-0.301944	-0.535000
C52	C	1.070317	-0.138538	-0.301984
C53	C	1.070368	-0.068897	-0.302005
C54	C	1.117679	-0.261875	-0.567734
C55	C	1.117678	-0.261848	-0.633169
C56	C	1.070293	-0.301901	-0.665868
C57	C	1.022891	-0.341973	-0.633126
C58	C	1.022888	-0.341994	-0.567692
C59	C	1.064411	-0.358316	-0.769530
C60	C	1.064419	-0.358296	-0.834963
C61	C	1.070297	-0.301835	-0.867689
C62	C	1.076183	-0.245393	-0.834974
C63	C	1.076180	-0.245414	-0.769540
C64	C	1.070290	-0.301882	-0.736821
C65	C	1.117691	-0.261734	-0.971376
C66	C	1.117685	-0.261706	-1.036812
C67	C	1.022901	-0.341836	-1.036768
C68	C	1.022904	-0.341858	-0.971332
C69	C	1.070302	-0.301808	-0.938640
C70	C	1.070180	-0.301929	-0.139148
C71	C	1.070298	-0.301758	-0.069507
H72	H	1.156091	-0.540450	-0.229278
O73	O	1.168783	-0.218614	-0.668483
H74	H	1.160811	-0.225321	-0.719476
O75	O	1.168797	-0.218481	-1.072124
H76	H	1.206447	-0.246518	-1.101958
O77	O	0.971639	-0.531836	-0.385117
H78	H	0.933971	-0.502064	-0.357031
O79	O	1.082523	-0.184543	-0.734251
H80	H	1.086609	-0.145276	-0.767995
H81	H	0.984311	-0.374441	-1.063390
O82	O	1.082503	-0.184487	-0.870259
H83	H	1.081500	-0.193950	-0.921255
O84	O	0.971692	-0.667854	-0.385132
H85	H	0.984362	-0.655269	-0.434317
H86	H	0.949205	-0.861074	-0.310817
H87	H	0.949150	-0.742370	-0.310804
H88	H	0.633767	-0.264532	-0.204429
H89	H	0.984341	-0.944128	-0.374606
O90	O	0.971754	-0.385199	-0.532379
H91	H	0.938796	-0.413042	-0.566107
H92	H	1.156282	-0.229119	-0.944756
O93	O	0.971767	-0.385058	-0.936019
H94	H	0.938810	-0.412901	-0.969748
O95	O	1.058064	-0.419168	-0.870248
H96	H	1.053958	-0.458431	-0.836501
O97	O	1.168796	-0.218674	-0.532475
H98	H	1.206455	-0.246733	-0.502681
O99	O	1.058061	-0.419216	-0.734234
H100	H	1.053978	-0.458458	-0.767974
O101	O	0.500559	-0.417337	-0.327995
H102	H	0.466555	-0.451770	-0.301911
H103	H	1.156336	-1.062795	-0.229380
H104	H	1.191279	-0.742207	-0.293077
O105	O	0.641995	-0.387129	-0.220345
H106	H	0.623909	-0.352444	-0.184943
O107	O	1.168802	-0.935426	-0.218783
H108	H	1.156151	-0.948018	-0.169596
H109	H	0.984306	-0.374582	-0.659754
O110	O	0.640621	-0.417274	-0.328899
H111	H	0.701886	-0.419049	-0.327725
H112	H	0.507984	-0.381906	-0.235058
H113	H	1.156150	-0.659159	-0.229304
H114	H	0.634360	-0.204510	-0.264892
H115	H	1.191331	-0.860920	-0.293102
H116	H	0.507131	-0.204230	-0.264973
H117	H	0.984398	-1.062840	-0.374630
H118	H	0.635066	-0.316605	-0.405739
O119	O	0.499174	-0.267838	-0.189052
H120	H	0.462786	-0.309559	-0.191038
O121	O	0.499443	-0.222576	-0.390023
H122	H	0.462386	-0.202692	-0.353787
O123	O	0.640604	-0.219415	-0.385959
H124	H	0.676011	-0.200489	-0.348083
H125	H	0.507753	-0.320657	-0.404178
