data_functionalizedCrystal
_audit_creation_method	'MofGen! by Chris Wilmer'
_symmetry_space_group_name_H-M	'P1'
_symmetry_Int_Tables_number	1
_symmetry_cell_setting	triclinic
loop_
_symmetry_equiv_pos_as_xyz
  x,y,z
_cell_length_a	13.262390
_cell_length_b	12.811442
_cell_length_c	11.892095
_cell_angle_alpha	88.493659
_cell_angle_beta	70.212847
_cell_angle_gamma	82.750961
loop_
_atom_site_label
_atom_site_type_symbol
_atom_site_fract_x
_atom_site_fract_y
_atom_site_fract_z
O1	O	1.432049	0.102660	-0.544814
O2	O	1.119865	0.124692	-0.451092
O3	O	1.282679	-0.038123	-0.484455
O4	O	1.269236	0.265475	-0.511451
O5	O	1.269103	-0.024568	-0.293664
O6	O	1.106290	0.138247	-0.260301
O7	O	1.418474	0.116214	-0.354023
Zn8	Zn	1.260227	0.129383	-0.276869
Zn9	Zn	1.278113	0.111524	-0.528245
O10	O	1.255660	0.279029	-0.320660
C11	C	1.274720	-0.070145	-0.384723
C12	C	1.271218	-0.185756	-0.371800
C13	C	1.073095	0.131481	-0.343405
C14	C	0.953960	0.131504	-0.306780
C15	C	1.258887	-0.341318	-0.249588
C16	C	1.262173	-0.232691	-0.261727
C17	C	1.276973	-0.247455	-0.469739
C18	C	1.273687	-0.356082	-0.457600
C19	C	1.264645	-0.403010	-0.347521
C20	C	1.261367	-0.511640	-0.335385
C21	C	1.276159	-0.526400	-0.543395
C22	C	1.279446	-0.417773	-0.555534
C23	C	0.647748	0.101999	-0.619556
C24	C	0.759682	0.101972	-0.653969
C25	C	0.808257	0.109356	-0.567175
C26	C	0.744887	0.116765	-0.445962
C27	C	0.632944	0.116784	-0.411545
C28	C	0.793453	0.124140	-0.359163
C29	C	0.730083	0.131550	-0.237950
C30	C	0.618150	0.131569	-0.203539
C31	C	0.569575	0.124186	-0.290333
C32	C	0.905396	0.124122	-0.393580
C33	C	0.890592	0.138906	-0.185568
C34	C	0.778658	0.138933	-0.151155
C35	C	1.465244	0.109425	-0.461712
C36	C	1.584380	0.109401	-0.498345
C37	C	1.263619	0.311051	-0.420394
C38	C	1.267122	0.426661	-0.433325
N39	N	1.248028	0.141570	-0.105314
N40	N	1.290320	0.099328	-0.699802
C41	C	1.375205	0.014463	0.105266
C42	C	1.366686	0.022989	0.225352
C43	C	1.222466	0.167144	0.254950
C44	C	1.230985	0.158617	0.134863
C45	C	1.307358	0.082275	0.060024
C46	C	1.315882	0.073754	-0.060067
C47	C	1.171657	0.217903	-0.030465
C48	C	1.163138	0.226430	0.089622
H49	H	1.254006	-0.549847	-0.245754
N50	N	0.942961	0.146882	-0.091939
H51	H	0.928175	0.085428	-0.036282
H52	H	1.023471	0.145785	-0.132221
H53	H	1.251531	-0.379528	-0.159959
N54	N	1.398255	-0.008577	-0.140792
H55	H	1.439940	-0.050244	-0.093903
H56	H	1.360162	-0.057473	-0.173160
H57	H	1.257474	-0.182464	-0.181976
N58	N	0.710299	0.146911	-0.020423
H59	H	0.733478	0.084679	0.022950
H60	H	0.719797	0.214168	0.015159
N61	N	1.140085	0.249465	0.335683
H62	H	1.144983	0.244569	0.418623
H63	H	1.154846	0.321674	0.303066
H64	H	1.100953	0.288584	0.150571
N65	N	1.286476	-0.196795	-0.588385
H66	H	1.287601	-0.118607	-0.581185
H67	H	1.355442	-0.228508	-0.651272
H68	H	1.116414	0.273124	-0.067314
H69	H	1.437399	-0.047691	0.044327
H70	H	1.286804	-0.379549	-0.645156
H71	H	0.956981	0.118091	-0.492273
N72	N	1.282381	-0.592939	-0.649036
H73	H	1.278931	-0.668877	-0.624647
H74	H	1.219817	-0.567578	-0.677158
N75	N	0.928986	0.109316	-0.604284
H76	H	0.961760	0.103501	-0.694241
H77	H	0.945038	0.176909	-0.575867
N78	N	0.828017	0.093974	-0.784699
H79	H	0.803848	0.155434	-0.828380
H80	H	0.906281	0.095043	-0.793237
N81	N	0.595361	0.094019	-0.713159
H82	H	0.514835	0.095150	-0.672961
H83	H	0.610225	0.155475	-0.768796
N84	N	0.448844	0.124202	-0.253213
H85	H	0.416859	0.185993	-0.289955
H86	H	0.432811	0.056573	-0.281567
H87	H	1.421933	-0.032232	0.262184
N88	N	0.549799	0.139543	-0.072804
H89	H	0.597638	0.143482	-0.022993
H90	H	0.495600	0.204952	-0.058041
