data_functionalizedCrystal
_audit_creation_method	'MofGen! by Chris Wilmer'
_symmetry_space_group_name_H-M	'P1'
_symmetry_Int_Tables_number	1
_symmetry_cell_setting	triclinic
loop_
_symmetry_equiv_pos_as_xyz
  x,y,z
_cell_length_a	13.339070
_cell_length_b	10.540539
_cell_length_c	11.804365
_cell_angle_alpha	101.953828
_cell_angle_beta	74.875130
_cell_angle_gamma	100.077393
loop_
_atom_site_label
_atom_site_type_symbol
_atom_site_fract_x
_atom_site_fract_y
_atom_site_fract_z
O1	O	1.367200	0.619505	-0.099049
O2	O	1.072067	0.535766	-0.099045
O3	O	1.226367	0.395225	-0.099046
O4	O	1.212901	0.760047	-0.099049
O5	O	1.185745	0.432172	0.099010
O6	O	1.031446	0.572714	0.099011
O7	O	1.326579	0.656453	0.099007
Cu8	Cu	1.175303	0.617957	0.117093
Cu9	Cu	1.223343	0.574262	-0.117131
O10	O	1.172279	0.796994	0.099007
C11	C	1.013965	0.540095	-0.000017
C12	C	0.901358	0.497931	-0.000015
C13	C	1.205047	0.366051	-0.000020
C14	C	1.202026	0.224072	-0.000026
C15	C	0.538938	0.825770	-0.000037
C16	C	0.644738	0.865388	-0.000042
C17	C	0.708898	0.773527	-0.000035
C18	C	0.667248	0.642042	-0.000023
C19	C	0.561440	0.602418	-0.000028
C20	C	0.731400	0.550175	-0.000026
C21	C	0.689750	0.418690	-0.000014
C22	C	0.583951	0.379073	-0.000018
C23	C	0.519791	0.470934	-0.000025
C24	C	0.837208	0.589799	-0.000021
C25	C	0.859710	0.366447	-0.000012
C26	C	0.753910	0.326829	-0.000007
C27	C	1.086340	0.001099	-0.000469
C28	C	1.089311	0.148845	-0.000023
C29	C	1.233073	0.202001	0.113073
C30	C	1.229207	0.054163	0.113168
C31	C	1.277693	0.012410	-0.112059
C32	C	1.279038	0.159467	-0.113554
C33	C	1.384682	0.652124	-0.000024
C34	C	1.497290	0.694286	-0.000034
C35	C	1.193600	0.826168	-0.000021
C36	C	1.196622	0.968145	-0.000023
N37	N	1.141522	0.648691	0.281834
N38	N	1.257132	0.543521	-0.281872
C39	C	1.338253	0.469692	0.655781
C40	C	1.363807	0.446436	0.531120
C41	C	1.308237	0.496997	0.468792
C42	C	1.227110	0.570820	0.531138
C43	C	1.201559	0.594087	0.655812
C44	C	1.171544	0.621392	0.468823
C45	C	1.090417	0.695214	0.531169
C46	C	1.064869	0.718477	0.655831
C47	C	1.120438	0.667916	0.718159
C48	C	1.197095	0.598125	0.344149
C49	C	1.060402	0.722520	0.344180
C50	C	1.034847	0.745776	0.468842
H51	H	0.871108	0.696856	-0.000026
N52	N	0.823010	0.816253	-0.000033
H53	H	0.839659	0.913486	-0.000036
H54	H	0.837768	0.795566	0.073398
H55	H	1.309217	0.034782	0.118298
N56	N	0.947349	0.825395	0.536099
H57	H	0.975908	0.905069	0.587815
H58	H	0.916049	0.853805	0.477635
N59	N	1.092882	0.693001	0.852620
H60	H	1.102102	0.790274	0.882646
H61	H	1.017694	0.655699	0.882568
H62	H	0.678644	0.972442	-0.000060
N63	N	1.398181	0.415153	0.722995
H64	H	1.474714	0.451163	0.701283
H65	H	1.369604	0.441104	0.811410
H66	H	1.015154	0.763695	0.293434
N67	N	0.469745	0.924835	-0.000059
H68	H	0.396402	0.879779	-0.000064
H69	H	0.468255	0.994229	0.073360
H70	H	0.433639	0.438683	-0.000020
N71	N	1.054814	0.165993	-0.107417
H72	H	0.990709	0.213096	-0.080417
H73	H	1.113154	0.218913	-0.158261
N74	N	0.539028	0.237257	-0.000021
H75	H	0.595724	0.185074	-0.000014
H76	H	0.480558	0.229654	0.073400
N77	N	0.708972	0.185020	0.000009
H78	H	0.680634	0.149906	-0.073410
H79	H	0.765707	0.132928	0.000061
H80	H	0.911950	0.291645	-0.000012
N81	N	1.049383	-0.076938	-0.107892
H82	H	0.978493	-0.054324	-0.106454
H83	H	1.101120	-0.055356	-0.182810
H84	H	1.029674	0.191100	0.081187
H85	H	1.025454	-0.029177	0.080183
H86	H	1.171778	0.028072	0.197713
H87	H	1.314985	0.253353	0.117277
N88	N	1.160314	0.262230	0.224567
H89	H	1.107199	0.303846	0.202073
H90	H	1.122945	0.192089	0.273047
N91	N	1.252671	-0.067034	-0.225612
H92	H	1.188521	-0.132534	-0.205575
H93	H	1.238871	-0.006892	-0.274690
N94	N	1.249259	0.175115	-0.224381
H95	H	1.253282	0.271169	-0.226641
H96	H	1.299078	0.133307	-0.297047
H97	H	0.998818	0.778600	0.706594
H98	H	1.362617	0.210424	-0.120385
H99	H	1.263149	0.538019	0.293398
N100	N	1.385746	-0.013560	-0.113078
H101	H	1.385330	-0.110124	-0.116169
H102	H	1.437430	0.015157	-0.185250
H103	H	1.329047	0.478058	0.367287
N104	N	1.451302	0.366821	0.463882
H105	H	1.422750	0.287146	0.412161
H106	H	1.507122	0.421754	0.412220
