data_functionalizedCrystal
_audit_creation_method	'MofGen! by Chris Wilmer'
_symmetry_space_group_name_H-M	'P1'
_symmetry_Int_Tables_number	1
_symmetry_cell_setting	triclinic
loop_
_symmetry_equiv_pos_as_xyz
  x,y,z
_cell_length_a	27.732048
_cell_length_b	19.288865
_cell_length_c	17.766277
_cell_angle_alpha	89.988397
_cell_angle_beta	89.996131
_cell_angle_gamma	82.889452
loop_
_atom_site_label
_atom_site_type_symbol
_atom_site_fract_x
_atom_site_fract_y
_atom_site_fract_z
O1	O	0.641180	0.082649	-0.062506
O2	O	0.500425	0.095216	-0.062530
O3	O	0.574870	-0.012223	-0.062502
O4	O	0.566735	0.190088	-0.062533
O5	O	0.574856	-0.012228	0.062686
O6	O	0.500412	0.095211	0.062659
O7	O	0.641167	0.082644	0.062683
Cu8	Cu	0.570788	0.088927	0.074102
Cu9	Cu	0.570804	0.088933	-0.073948
O10	O	0.566722	0.190083	0.062655
C11	C	0.574601	-0.038100	0.000094
C12	C	0.573816	-0.115199	0.000101
C13	C	0.482410	0.094950	0.000062
C14	C	0.428753	0.094155	0.000053
C15	C	0.617496	-0.160168	0.000112
C16	C	0.616758	-0.232610	0.000100
C17	C	0.572337	-0.260081	0.000092
C18	C	0.528650	-0.215102	0.000077
C19	C	0.529390	-0.142661	0.000081
C20	C	0.537412	-0.368152	0.043937
C21	C	0.536674	-0.440592	0.043937
C22	C	0.570054	-0.483512	0.000075
C23	C	0.604181	-0.453985	-0.043778
C24	C	0.604920	-0.381544	-0.043774
C25	C	0.571530	-0.338630	0.000087
C26	C	0.612938	-0.607032	0.000072
C27	C	0.612198	-0.679475	0.000055
C28	C	0.524089	-0.661966	0.000039
C29	C	0.524830	-0.589524	0.000048
C30	C	0.569256	-0.562062	0.000068
C31	C	0.090115	0.152644	0.000077
C32	C	-0.111554	0.149697	0.000084
O33	O	-0.142648	0.203181	0.000108
N34	N	-0.130870	0.085990	0.000093
C35	C	-0.099766	0.023015	0.000104
O36	O	-0.120823	-0.031239	0.000119
C37	C	0.101902	0.025963	0.000102
C38	C	0.121215	0.089674	0.000086
C39	C	0.109428	0.216350	0.000062
C40	C	0.159843	0.217086	0.000056
C41	C	0.190943	0.154116	0.000065
C42	C	0.171629	0.090410	0.000080
C43	C	0.133005	-0.037011	0.000119
C44	C	0.183425	-0.036268	0.000121
C45	C	0.202738	0.027443	0.000105
C46	C	0.253144	0.028177	0.000084
N47	N	0.272460	0.091884	0.000075
C48	C	0.241360	0.154853	0.000066
C49	C	-0.205644	0.021472	0.000104
C50	C	-0.256061	0.020735	0.000103
C51	C	-0.267846	0.147417	0.000084
C52	C	-0.217428	0.148153	0.000080
C53	C	-0.186328	0.085179	0.000095
C54	C	0.347234	0.156395	0.000053
C55	C	0.397653	0.157125	0.000044
C56	C	0.409433	0.030444	0.000067
C57	C	0.359018	0.029713	0.000072
C58	C	0.327919	0.092694	0.000067
O59	O	0.284266	-0.025278	0.000068
O60	O	0.262426	0.209100	0.000068
C61	C	0.039701	0.151908	0.000083
C62	C	0.020387	0.088202	0.000098
C63	C	0.051487	0.025232	0.000107
C64	C	-0.030030	0.087465	0.000097
C65	C	-0.061130	0.150435	0.000088
C66	C	-0.041814	0.214142	0.000079
C67	C	0.008600	0.214878	0.000073
C68	C	0.032171	-0.038475	0.000116
C69	C	-0.018244	-0.039206	0.000121
C70	C	-0.049344	0.023764	0.000112
C71	C	0.659181	0.082910	0.000090
C72	C	0.712839	0.083705	0.000093
C73	C	0.566990	0.215961	0.000057
C74	C	0.567776	0.293059	0.000046
N75	N	0.570781	0.088922	0.178232
N76	N	0.570815	0.088933	-0.178079
C77	C	0.603756	0.041371	0.217631
C78	C	0.603758	0.041368	0.296433
C79	C	0.570791	0.088927	0.335832
C80	C	0.537810	0.136482	0.296424
C81	C	0.537805	0.136479	0.217624
C82	C	0.564320	0.152255	0.460660
C83	C	0.564328	0.152259	0.539459
C84	C	0.570804	0.088936	0.578879
C85	C	0.577281	0.025606	0.539490
C86	C	0.577276	0.025603	0.460690
C87	C	0.570793	0.088935	0.421278
C88	C	0.603784	0.041377	0.703724
C89	C	0.603783	0.041373	0.782527
C90	C	0.537837	0.136493	0.782517
C91	C	0.537835	0.136492	0.703715
C92	C	0.570811	0.088934	0.664323
H93	H	0.653672	-0.137813	0.000126
H94	H	0.559057	0.203826	0.571523
O95	O	0.502253	0.187784	0.338912
H96	H	0.507801	0.179804	0.400327
O97	O	0.557339	0.220558	0.418144
H98	H	0.552845	0.264594	0.458769
O99	O	0.639334	-0.009924	0.661218
H100	H	0.677000	-0.001463	0.676324
H101	H	0.343293	-0.022166	0.000074
H102	H	0.510952	0.175202	0.185544
O103	O	-0.276890	-0.047981	0.000118
H104	H	-0.246789	-0.091640	0.000135
H105	H	0.208745	-0.087550	0.000134
H106	H	0.434764	-0.020825	0.000071
H107	H	0.413374	0.209008	0.000030
O108	O	0.639314	-0.009929	0.175142
H109	H	0.662241	-0.043000	0.215783
H110	H	0.321918	0.207680	0.000052
O111	O	0.663873	-0.281125	0.000125
H112	H	0.685154	-0.271413	-0.050886
H113	H	-0.180326	-0.029812	0.000116
H114	H	0.492482	-0.237473	0.000068
O115	O	0.065710	-0.106398	0.000128
H116	H	0.088964	-0.109093	-0.050896
H117	H	0.510992	0.175215	0.814595
O118	O	0.639350	-0.009921	0.825022
H119	H	0.633811	-0.001938	0.886435
O120	O	0.639330	-0.009914	0.338943
H121	H	0.662262	-0.042979	0.298312
H122	H	0.493818	-0.106047	0.000072
H123	H	0.510228	-0.333212	0.079659
H124	H	0.582549	-0.025962	0.428623
H125	H	0.508885	-0.464627	0.079640
H126	H	0.632706	-0.357506	-0.079481
H127	H	0.175562	0.268966	0.000042
O128	O	0.476176	-0.691586	0.000029
H129	H	0.455188	-0.673491	0.051049
H130	H	0.117290	-0.088891	0.000133
H131	H	0.024320	0.266758	0.000061
H132	H	0.582554	-0.025958	0.571584
H133	H	0.084111	0.267630	0.000057
H134	H	0.649112	-0.584671	0.000084
O135	O	-0.196598	0.216869	0.000076
H136	H	-0.226699	0.260528	0.000076
O137	O	0.477717	-0.541014	0.000055
H138	H	0.446703	-0.572284	0.000056
O139	O	-0.301394	0.215337	0.000085
H140	H	-0.339695	0.204115	0.000096
H141	H	-0.067145	0.265414	0.000069
H142	H	0.510986	0.175215	0.671634
O143	O	0.640185	-0.500264	-0.091097
H144	H	0.633935	-0.555597	-0.083744
O145	O	0.659313	-0.727984	0.000073
H146	H	0.690327	-0.696714	0.000097
O147	O	-0.039073	-0.107927	0.000146
H148	H	-0.008972	-0.151586	0.000161
