data_functionalizedCrystal
_audit_creation_method	'MofGen! by Chris Wilmer'
_symmetry_space_group_name_H-M	'P1'
_symmetry_Int_Tables_number	1
_symmetry_cell_setting	triclinic
loop_
_symmetry_equiv_pos_as_xyz
  x,y,z
_cell_length_a	13.897448
_cell_length_b	19.805407
_cell_length_c	13.897441
_cell_angle_alpha	90.024326
_cell_angle_beta	89.969401
_cell_angle_gamma	89.983323
loop_
_atom_site_label
_atom_site_type_symbol
_atom_site_fract_x
_atom_site_fract_y
_atom_site_fract_z
Zn1	Zn	-0.384010	-1.034798	-0.545474
Zn2	Zn	0.115990	-0.534798	-0.045474
Zn3	Zn	-0.545332	-1.034724	-0.384175
Zn4	Zn	-0.045332	-0.534724	0.115825
Zn5	Zn	-0.384050	-0.921607	-0.384182
Zn6	Zn	0.115950	-0.421607	0.115818
Zn7	Zn	-0.545262	-0.921594	-0.545418
Zn8	Zn	-0.045262	-0.421594	-0.045418
O9	O	-0.464663	-0.978181	-0.464812
O10	O	0.035337	-0.478181	0.035188
O11	O	-0.405423	-1.129505	-0.524098
O12	O	0.094577	-0.629505	-0.024098
O13	O	-0.523983	-1.019693	-0.249194
O14	O	-0.023983	-0.519693	0.250806
O15	O	-0.249063	-0.936658	-0.405604
O16	O	0.250937	-0.436658	0.094396
O17	O	-0.523945	-1.129451	-0.405592
O18	O	-0.023945	-0.629451	0.094408
O19	O	-0.249034	-1.019820	-0.524104
O20	O	0.250966	-0.519820	-0.024104
O21	O	-0.405490	-0.936586	-0.249199
O22	O	0.094510	-0.436586	0.250801
O23	O	-0.405422	-0.826888	-0.405550
O24	O	0.094578	-0.326888	0.094450
O25	O	-0.523826	-0.936636	-0.680407
O26	O	-0.023826	-0.436636	-0.180407
O27	O	-0.523864	-0.826879	-0.524009
O28	O	-0.023864	-0.326879	-0.024009
O29	O	-0.405355	-1.019807	-0.680448
O30	O	0.094645	-0.519807	-0.180448
O31	O	-0.680304	-1.019681	-0.405538
O32	O	-0.180304	-0.519681	0.094462
O33	O	-0.680253	-0.936564	-0.524002
O34	O	-0.180253	-0.436564	-0.024002
C35	C	-0.464641	-0.802325	-0.464774
C36	C	0.035359	-0.302325	0.035226
C37	C	-0.464654	-0.727093	-0.464781
C38	C	0.035346	-0.227093	0.035219
C39	C	-0.715278	-0.978131	-0.464784
C40	C	-0.215278	-0.478131	0.035216
C41	C	-0.822492	-0.978172	-0.464804
C42	C	-0.322492	-0.478172	0.035196
C43	C	-0.526419	-0.691761	-0.526362
C44	C	-0.026419	-0.191761	-0.026362
C45	C	-0.526419	-0.621073	-0.526373
C46	C	-0.026419	-0.121073	-0.026373
C47	C	-0.464658	-0.585717	-0.464797
C48	C	0.035342	-0.085717	0.035203
C49	C	-0.402886	-0.621053	-0.403214
C50	C	0.097114	-0.121053	0.096786
C51	C	-0.402882	-0.691741	-0.403209
C52	C	0.097118	-0.191741	0.096791
C53	C	-0.402901	-0.335980	-0.403236
C54	C	0.097099	0.164020	0.096764
C55	C	-0.402911	-0.265288	-0.403244
C56	C	0.097089	0.234712	0.096756
C57	C	-0.526437	-0.265313	-0.526399
C58	C	-0.026437	0.234687	-0.026399
C59	C	-0.526433	-0.336000	-0.526394
C60	C	-0.026433	0.164000	-0.026394
C61	C	-0.464658	-0.371330	-0.464815
C62	C	0.035342	0.128670	0.035185
C63	C	-0.464658	-0.447978	-0.464805
C64	C	0.035342	0.052022	0.035195
C65	C	-0.464663	-0.509070	-0.464802
C66	C	0.035337	-0.009070	0.035198
C67	C	-1.018787	-0.978243	-0.464865
C68	C	-0.518787	-0.478243	0.035135
C69	C	-0.909554	-0.978202	-0.464834
C70	C	-0.409554	-0.478202	0.035166
C71	C	-0.213070	-0.978249	-0.464861
C72	C	0.286930	-0.478249	0.035139
C73	C	-0.105857	-0.978278	-0.464882
C74	C	0.394143	-0.478278	0.035118
C75	C	-0.464578	-0.978229	-0.716405
C76	C	0.035422	-0.478229	-0.216405
C77	C	-0.464542	-0.978249	-0.823619
C78	C	0.035458	-0.478249	-0.323619
C79	C	-0.464681	-0.154723	-0.464841
C80	C	0.035319	0.345277	0.035159
C81	C	-0.464672	-0.229955	-0.464830
C82	C	0.035328	0.270045	0.035170
C83	C	-0.464477	-0.978268	-1.019914
C84	C	0.035523	-0.478268	-0.519914
C85	C	-0.464516	-0.978255	-0.910682
C86	C	0.035484	-0.478255	-0.410682
C87	C	-0.464679	-0.978172	-0.214198
C88	C	0.035321	-0.478172	0.285802
C89	C	-0.464443	-0.978283	-0.106984
C90	C	0.035557	-0.478283	0.393016
H91	H	-0.576715	-0.720543	-0.576500
H92	H	-0.076715	-0.220543	-0.076500
F93	F	-0.337152	-0.373572	-0.337700
F94	F	0.162848	0.126428	0.162300
H95	H	-0.352596	-0.592261	-0.353083
H96	H	0.147404	-0.092261	0.146917
H97	H	-0.576715	-0.592309	-0.576517
H98	H	-0.076715	-0.092309	-0.076517
F99	F	-0.592170	-0.373624	-0.591927
F100	F	-0.092170	0.126376	-0.091927
H101	H	-0.576733	-0.236538	-0.576544
H102	H	-0.076733	0.263462	-0.076544
F103	F	-0.337173	-0.227661	-0.337705
F104	F	0.162827	0.272339	0.162295
F105	F	-0.337142	-0.729343	-0.337668
F106	F	0.162858	-0.229343	0.162332
