data_functionalizedCrystal
_audit_creation_method	'MofGen! by Chris Wilmer'
_symmetry_space_group_name_H-M	'P1'
_symmetry_Int_Tables_number	1
_symmetry_cell_setting	triclinic
loop_
_symmetry_equiv_pos_as_xyz
  x,y,z
_cell_length_a	13.032721
_cell_length_b	18.215407
_cell_length_c	18.215399
_cell_angle_alpha	90.014769
_cell_angle_beta	97.151969
_cell_angle_gamma	82.800040
loop_
_atom_site_label
_atom_site_type_symbol
_atom_site_fract_x
_atom_site_fract_y
_atom_site_fract_z
Zn1	Zn	-0.416144	-1.087848	-0.453290
Zn2	Zn	-0.590912	-1.072139	-0.345853
Zn3	Zn	-0.416171	-0.964784	-0.330245
Zn4	Zn	-0.590832	-0.949130	-0.468876
O5	O	-0.503515	-1.018475	-0.399566
O6	O	-0.439350	-1.188746	-0.439049
O7	O	-0.567777	-1.057875	-0.240803
O8	O	-0.269930	-0.994235	-0.333512
O9	O	-0.567751	-1.177205	-0.360115
O10	O	-0.269911	-1.084649	-0.423914
O11	O	-0.439396	-0.979003	-0.229335
O12	O	-0.439318	-0.859726	-0.348624
O13	O	-0.567614	-0.967554	-0.569788
O14	O	-0.567640	-0.848224	-0.450476
O15	O	-0.439272	-1.069469	-0.558338
O16	O	-0.737139	-1.042696	-0.375227
O17	O	-0.737080	-0.952321	-0.465611
C18	C	-0.503474	-0.827273	-0.399548
C19	C	-0.503482	-0.745473	-0.399560
C20	C	-0.436752	-0.563276	-0.440745
C21	C	-0.436758	-0.486417	-0.440748
C22	C	-0.570261	-0.474428	-0.358391
C23	C	-0.570250	-0.551286	-0.358385
C24	C	-0.503497	-0.595708	-0.399566
C25	C	-0.503514	-0.441990	-0.399575
C26	C	-0.503520	-0.358656	-0.399577
C27	C	-0.503489	-0.679048	-0.399563
C28	C	-0.775027	-0.994125	-0.423820
C29	C	-0.891181	-0.983775	-0.434221
C30	C	-0.942960	-1.023916	-0.394171
C31	C	-1.063012	-1.013220	-0.404920
C32	C	-0.230943	-1.042941	-0.375233
C33	C	-0.114789	-1.053366	-0.364864
C34	C	-0.503431	-1.018517	-0.591512
C35	C	-0.503396	-1.018535	-0.673307
C36	C	-0.503545	-0.210425	-0.399582
C37	C	-0.503529	-0.292226	-0.399581
C38	C	-0.436502	-0.977510	-0.855527
C39	C	-0.436481	-0.977525	-0.932384
C40	C	-0.570164	-1.059660	-0.944314
C41	C	-0.570190	-1.059640	-0.867459
C42	C	-0.503353	-1.018567	-0.823067
C43	C	-0.503306	-1.018601	-0.976779
C44	C	-0.503284	-1.018617	-1.060111
C45	C	-0.503376	-1.018550	-0.739730
C46	C	-0.503523	-1.018482	-0.208360
C47	C	-0.503264	-1.018633	-0.126539
H48	H	-0.624610	-0.438250	-0.324863
C49	C	-1.123172	-0.956094	-0.461996
H50	H	-1.075118	-0.932301	-0.485733
H51	H	-1.165818	-0.920275	-0.437610
H52	H	-1.165684	-0.980471	-0.497869
H53	H	-0.624602	-0.577692	-0.324848
C54	C	-1.054626	-1.110478	-0.307774
H55	H	-0.981831	-1.110166	-0.308027
H56	H	-1.072387	-1.158352	-0.320150
H57	H	-1.072534	-1.098133	-0.259912
H58	H	-0.898416	-1.066204	-0.351928
C59	C	-0.643730	-1.104803	-0.831747
H60	H	-0.634179	-1.098901	-0.779618
H61	H	-0.628446	-1.155625	-0.842977
H62	H	-0.713941	-1.087727	-0.850607
H63	H	-0.935728	-0.941494	-0.476469
C64	C	-0.363344	-0.450744	-0.486049
H65	H	-0.323596	-0.488210	-0.510577
H66	H	-0.317764	-0.424836	-0.453882
H67	H	-0.403388	-0.417186	-0.521650
C68	C	-0.363319	-0.612138	-0.486036
H69	H	-0.323563	-0.581813	-0.510556
H70	H	-0.403341	-0.638547	-0.521631
H71	H	-0.317731	-0.646193	-0.453856
C72	C	-0.363002	-0.932319	-0.806700
H73	H	-0.323195	-0.907861	-0.837043
H74	H	-0.317479	-0.964540	-0.772653
H75	H	-0.402998	-0.896657	-0.780289
H76	H	-0.624580	-1.093101	-0.980468
C77	C	-0.362941	-0.932366	-0.968086
H78	H	-0.323137	-0.907908	-0.930638
H79	H	-0.402896	-0.896719	-1.001632
H80	H	-0.317401	-0.964616	-0.994006
