data_functionalizedCrystal
_audit_creation_method	'MofGen! by Chris Wilmer'
_symmetry_space_group_name_H-M	'P1'
_symmetry_Int_Tables_number	1
_symmetry_cell_setting	triclinic
loop_
_symmetry_equiv_pos_as_xyz
  x,y,z
_cell_length_a	19.288864
_cell_length_b	11.026607
_cell_length_c	18.366186
_cell_angle_alpha	89.996969
_cell_angle_beta	89.977106
_cell_angle_gamma	95.861131
loop_
_atom_site_label
_atom_site_type_symbol
_atom_site_fract_x
_atom_site_fract_y
_atom_site_fract_z
O1	O	0.940539	0.151279	-0.060786
O2	O	0.740867	0.171686	-0.060737
O3	O	0.824154	-0.015080	-0.060755
O4	O	0.857252	0.338045	-0.060768
O5	O	0.824135	-0.015089	0.060345
O6	O	0.740847	0.171677	0.060363
O7	O	0.940520	0.151270	0.060313
Zn8	Zn	0.840681	0.161472	0.079565
Zn9	Zn	0.840706	0.161484	-0.079988
O10	O	0.857232	0.338036	0.060331
C11	C	0.714897	0.171025	-0.000181
C12	C	0.637544	0.169054	-0.000161
C13	C	0.606746	0.278640	-0.000177
C14	C	0.534064	0.276788	-0.000185
C15	C	0.492182	0.165344	-0.000192
C16	C	0.522988	0.055744	-0.000172
C17	C	0.595669	0.057599	-0.000157
C18	C	0.372816	0.077740	-0.042640
C19	C	0.300137	0.075890	-0.042659
C20	C	0.268011	0.159618	-0.000236
C21	C	0.308573	0.245218	0.042198
C22	C	0.381254	0.247073	0.042213
C23	C	0.413372	0.163320	-0.000208
C24	C	0.158403	0.267204	-0.000259
C25	C	0.085720	0.265347	-0.000263
C26	C	0.074645	0.044300	-0.000257
C27	C	0.147327	0.046159	-0.000246
C28	C	0.189202	0.157615	-0.000251
C29	C	0.818039	-0.060262	-0.000204
C30	C	0.799837	-0.194876	-0.000202
C31	C	0.850095	-0.268957	-0.000216
C32	C	0.831284	-0.408088	-0.000214
C33	C	0.966489	0.151931	-0.000244
C34	C	1.043843	0.153902	-0.000268
C35	C	0.863348	0.383218	-0.000221
C36	C	0.881550	0.517833	-0.000227
N37	N	0.840668	0.161463	0.188456
N38	N	0.840723	0.161484	-0.188880
C39	C	0.877569	0.078804	0.226549
C40	C	0.877572	0.078798	0.302777
C41	C	0.840685	0.161473	0.340909
C42	C	0.803777	0.244139	0.302807
C43	C	0.803768	0.244134	0.226581
C44	C	0.845400	0.271967	0.461667
C45	C	0.845414	0.271974	0.537891
C46	C	0.840707	0.161488	0.576017
C47	C	0.836000	0.050992	0.537907
C48	C	0.835992	0.050987	0.461681
C49	C	0.840689	0.161487	0.423564
C50	C	0.877613	0.078816	0.696764
C51	C	0.877611	0.078809	0.772993
C52	C	0.803820	0.244161	0.773023
C53	C	0.803817	0.244157	0.696795
C54	C	0.840717	0.161486	0.658670
H55	H	0.398967	0.009556	-0.077190
Br56	Br	0.753749	0.356351	0.824767
Br57	Br	0.851809	0.421930	0.589604
Br58	Br	0.466151	-0.095503	-0.000174
Br59	Br	0.043922	0.414085	-0.000277
Br60	Br	0.736349	-0.474038	-0.000201
H61	H	0.938508	-0.442594	-0.000296
Br62	Br	0.637469	-0.091137	-0.000134
Br63	Br	0.753708	0.356334	0.354556
H64	H	0.640837	0.369396	-0.000182
H65	H	0.907050	-0.229377	-0.000225
Br66	Br	0.492257	0.425522	-0.000202
Br67	Br	0.704906	-0.260832	-0.000189
H68	H	0.907613	0.011485	0.195510
H69	H	0.907622	0.011484	0.333797
H70	H	0.773773	0.311471	0.665778
H71	H	0.832158	-0.038983	0.430655
H72	H	0.832167	-0.038976	0.568947
Br73	Br	0.927688	-0.033383	0.645021
H74	H	0.907657	0.011491	0.804009
Br75	Br	0.851860	0.421928	0.409933
H76	H	0.282418	0.313397	0.076744
Br77	Br	0.436301	0.363234	0.099801
Br78	Br	0.215237	0.418460	-0.000260
H79	H	0.773719	0.311447	0.195565
H80	H	0.040545	-0.046440	-0.000308
H81	H	0.172402	-0.043078	-0.000238
H82	H	0.267116	0.006194	-0.077215
