data_functionalizedCrystal
_audit_creation_method	'MofGen! by Chris Wilmer'
_symmetry_space_group_name_H-M	'P1'
_symmetry_Int_Tables_number	1
_symmetry_cell_setting	triclinic
loop_
_symmetry_equiv_pos_as_xyz
  x,y,z
_cell_length_a	12.759401
_cell_length_b	25.639239
_cell_length_c	25.639243
_cell_angle_alpha	90.006746
_cell_angle_beta	90.003202
_cell_angle_gamma	90.038847
loop_
_atom_site_label
_atom_site_type_symbol
_atom_site_fract_x
_atom_site_fract_y
_atom_site_fract_z
Zn1	Zn	1.605922	-0.208274	0.295575
Zn2	Zn	1.605789	-0.295675	0.208140
Zn3	Zn	1.430270	-0.208255	0.208158
Zn4	Zn	1.430139	-0.295681	0.295548
O5	O	1.518030	-0.251971	0.251855
O6	O	1.752925	-0.219873	0.283981
O7	O	1.582506	-0.284068	0.134977
O8	O	1.453681	-0.135093	0.219773
O9	O	1.752828	-0.284086	0.219742
O10	O	1.582732	-0.135106	0.283998
O11	O	1.453553	-0.219841	0.134990
O12	O	1.283232	-0.219847	0.219746
O13	O	1.453457	-0.284096	0.368717
O14	O	1.283135	-0.284078	0.283951
O15	O	1.582604	-0.219879	0.368737
O16	O	1.582378	-0.368841	0.219716
O17	O	1.453329	-0.368845	0.283934
C18	C	1.245063	-0.251962	0.251848
C19	C	1.128286	-0.251970	0.251857
C20	C	1.073401	-0.285469	0.285234
C21	C	0.963677	-0.285475	0.285239
C22	C	0.963732	-0.218483	0.218488
C23	C	1.073455	-0.218474	0.218485
C24	C	1.128232	-0.318964	0.318606
C25	C	1.073347	-0.352466	0.351984
C26	C	0.963623	-0.352473	0.351990
C27	C	0.908784	-0.318977	0.318617
C28	C	1.517853	-0.387814	0.251831
C29	C	1.517874	-0.445928	0.251838
C30	C	1.585401	-0.806276	0.218474
C31	C	1.585442	-0.860880	0.218481
O32	O	1.642673	-0.889104	0.190086
N33	N	1.518215	-0.888210	0.251890
C34	C	1.450949	-0.860933	0.285298
O35	O	1.393772	-0.889193	0.313716
C36	C	1.450915	-0.806330	0.285293
C37	C	1.518139	-0.779003	0.251878
C38	C	1.652621	-0.778949	0.185062
C39	C	1.652579	-0.724348	0.185054
C40	C	1.585317	-0.697075	0.218459
C41	C	1.518097	-0.724402	0.251871
C42	C	1.383656	-0.779053	0.318704
C43	C	1.383627	-0.724446	0.318696
C44	C	1.450852	-0.697119	0.285281
C45	C	1.450792	-0.642528	0.285267
N46	N	1.518020	-0.615198	0.251858
C47	C	1.585282	-0.642472	0.218454
C48	C	1.451029	-0.975604	0.285306
C49	C	1.451057	-1.030206	0.285308
C50	C	1.585552	-1.030149	0.218492
C51	C	1.585517	-0.975546	0.218487
C52	C	1.518256	-0.948274	0.251897
C53	C	1.585187	-0.527806	0.218440
C54	C	1.585136	-0.473201	0.218434
C55	C	1.450646	-0.473262	0.285252
C56	C	1.450693	-0.527863	0.285257
C57	C	1.517972	-0.555134	0.251849
O58	O	1.393593	-0.614269	0.313649
O59	O	1.642460	-0.614205	0.190045
C60	C	1.792063	-0.251981	0.251863
C61	C	1.908840	-0.251985	0.251866
C62	C	1.518030	-0.251991	0.388228
C63	C	1.518030	-0.251999	0.446342
C64	C	1.518236	-0.115598	0.251891
C65	C	1.518324	-0.057484	0.251906
C66	C	1.585274	-0.218537	0.806721
C67	C	1.585273	-0.218534	0.861326
O68	O	1.642430	-0.190087	0.889576
N69	N	1.518037	-0.251969	0.888625
C70	C	1.450790	-0.285405	0.861316
O71	O	1.393600	-0.313843	0.889550
C72	C	1.450786	-0.285405	0.806713
C73	C	1.518034	-0.251972	0.779417
C74	C	1.652515	-0.185106	0.779425
C75	C	1.652517	-0.185110	0.724825
C76	C	1.585277	-0.218545	0.697520
C77	C	1.518035	-0.251976	0.724816
C78	C	1.383534	-0.318838	0.779406
C79	C	1.383535	-0.318835	0.724799
C80	C	1.450783	-0.285402	0.697503
C81	C	1.450797	-0.285414	0.642912
N82	N	1.518033	-0.251980	0.615613
C83	C	1.585273	-0.218545	0.642917
C84	C	1.450802	-0.285402	0.975987
C85	C	1.450811	-0.285405	1.030589
C86	C	1.585293	-0.218533	1.030595
C87	C	1.585289	-0.218533	0.975992
C88	C	1.518038	-0.251967	0.948688
C89	C	1.585272	-0.218556	0.528252
C90	C	1.585270	-0.218564	0.473647
C91	C	1.450785	-0.285434	0.473646
C92	C	1.450790	-0.285428	0.528246
C93	C	1.518037	-0.251984	0.555548
O94	O	1.393667	-0.313845	0.614626
O95	O	1.642444	-0.190106	0.614676
C96	C	1.518028	-0.251967	1.116013
C97	C	1.518048	-0.251968	1.057899
H98	H	1.217575	-0.318964	0.318604
N99	N	0.796703	-0.318972	0.318619
N100	N	0.747781	-0.278207	0.329621
H101	H	0.668624	-0.278203	0.329620
N102	N	1.381948	-0.445406	0.319382
N103	N	1.321935	-0.469806	0.349218
H104	H	1.273422	-0.450132	0.373326
N105	N	1.721224	-0.150959	0.807310
N106	N	1.788157	-0.169358	0.837772
H107	H	1.836693	-0.145243	0.857463
H108	H	1.118004	-0.379733	0.379159
N109	N	1.653973	-0.184383	1.058500
N110	N	1.653956	-0.184389	1.107252
H111	H	1.702458	-0.160273	1.126962
H112	H	0.918939	-0.379748	0.379172
H113	H	0.919074	-0.191214	0.191317
H114	H	1.396041	-0.312657	0.550472
N115	N	1.653790	-0.445283	0.184295
N116	N	1.616848	-0.414846	0.150956
H117	H	1.665331	-0.395130	0.126844
N118	N	1.314832	-0.352979	0.807287
N119	N	1.314820	-0.352978	0.856040
H120	H	1.266292	-0.377090	0.875731
H121	H	1.640324	-1.052365	0.191294
H122	H	1.118143	-0.191193	0.191311
H123	H	1.707400	-0.801149	0.157860
N124	N	1.382002	-0.555772	0.319383
N125	N	1.321944	-0.531412	0.349202
H126	H	1.273433	-0.551119	0.373306
N127	N	1.653915	-0.555649	0.184311
N128	N	1.713919	-0.531235	0.154482
H129	H	1.762453	-0.550898	0.130376
N130	N	1.382103	-0.319577	0.445740
N131	N	1.315195	-0.301171	0.415269
H132	H	1.266684	-0.325283	0.395558
N133	N	1.721256	-0.696447	0.150918
N134	N	1.781303	-0.720813	0.121099
H135	H	1.829813	-0.701111	0.096990
H136	H	1.640257	-0.953300	0.191278
H137	H	1.396306	-1.052451	0.312513
H138	H	1.640047	-0.191308	0.953771
N139	N	1.382127	-0.319567	1.058460
N140	N	1.322103	-0.349417	1.034068
H141	H	1.273588	-0.373544	1.053750
N142	N	1.314920	-0.696597	0.352831
N143	N	1.254911	-0.721008	0.382662
H144	H	1.206385	-0.701341	0.406770
H145	H	1.396038	-0.312631	0.953760
H146	H	1.396248	-0.953401	0.312511
N147	N	1.314979	-0.806950	0.352840
N148	N	1.254941	-0.782582	0.382663
H149	H	1.206435	-0.802283	0.406775
N150	N	1.653978	-0.184410	0.445773
N151	N	1.714006	-0.154561	0.470163
H152	H	1.762529	-0.130440	0.450479
N153	N	1.653962	-0.184389	0.556127
N154	N	1.713988	-0.154544	0.531740
H155	H	1.762504	-0.130414	0.551425
H156	H	1.707275	-0.157884	0.702605
N157	N	1.314825	-0.352989	0.696918
N158	N	1.254791	-0.382833	0.721301
H159	H	1.206264	-0.406954	0.701611
