data_functionalizedCrystal
_audit_creation_method	'MofGen! by Chris Wilmer'
_symmetry_space_group_name_H-M	'P1'
_symmetry_Int_Tables_number	1
_symmetry_cell_setting	triclinic
loop_
_symmetry_equiv_pos_as_xyz
  x,y,z
_cell_length_a	21.295418
_cell_length_b	21.295417
_cell_length_c	16.625539
_cell_angle_alpha	89.968491
_cell_angle_beta	89.963731
_cell_angle_gamma	90.046319
loop_
_atom_site_label
_atom_site_type_symbol
_atom_site_fract_x
_atom_site_fract_y
_atom_site_fract_z
Zn1	Zn	0.962309	-0.250354	-0.456294
Zn2	Zn	1.462309	0.249646	0.043706
Zn3	Zn	0.962226	-0.355624	-0.321450
Zn4	Zn	1.462226	0.144376	0.178550
Zn5	Zn	0.857046	-0.250402	-0.321430
Zn6	Zn	1.357046	0.249598	0.178570
Zn7	Zn	0.857002	-0.355618	-0.456194
Zn8	Zn	1.357002	0.144382	0.043806
O9	O	0.909646	-0.302999	-0.388842
O10	O	1.409646	0.197001	0.111158
O11	O	1.050388	-0.264301	-0.438457
O12	O	1.550388	0.235699	0.061543
O13	O	0.948257	-0.341688	-0.208615
O14	O	1.448257	0.158312	0.291385
O15	O	0.871063	-0.162306	-0.339353
O16	O	1.371063	0.337694	0.160647
O17	O	1.050326	-0.341642	-0.339387
O18	O	1.550326	0.158358	0.160613
O19	O	0.948400	-0.162271	-0.438438
O20	O	1.448400	0.337729	0.061562
O21	O	0.870982	-0.264382	-0.208600
O22	O	1.370982	0.235618	0.291400
O23	O	0.768951	-0.264376	-0.339256
O24	O	1.268951	0.235624	0.160744
O25	O	0.870988	-0.341632	-0.569040
O26	O	1.370988	0.158368	-0.069040
O27	O	0.768918	-0.341679	-0.438267
O28	O	1.268918	0.158321	0.061733
O29	O	0.948357	-0.264295	-0.569114
O30	O	1.448357	0.235705	-0.069114
O31	O	0.948214	-0.443713	-0.339290
O32	O	1.448214	0.056287	0.160710
O33	O	0.870906	-0.443708	-0.438287
O34	O	1.370906	0.056292	0.061713
C35	C	0.746094	-0.303033	-0.388749
C36	C	1.246094	0.196967	0.111251
C37	C	0.676126	-0.303062	-0.388729
C38	C	1.176126	0.196938	0.111271
C39	C	0.643259	-0.343366	-0.440207
C40	C	1.143259	0.156634	0.059793
C41	C	0.577516	-0.343351	-0.440243
C42	C	1.077516	0.156649	0.059757
C43	C	0.544644	-0.303037	-0.388787
C44	C	1.044644	0.196963	0.111213
C45	C	0.577519	-0.262725	-0.337305
C46	C	1.077519	0.237275	0.162695
C47	C	0.643260	-0.262737	-0.337276
C48	C	1.143260	0.237263	0.162724
N49	N	0.441375	-0.298120	-0.318264
N50	N	0.941375	0.201880	0.181736
N51	N	0.378923	-0.298112	-0.318294
N52	N	0.878923	0.201888	0.181706
C53	C	0.346569	-0.302997	-0.388872
C54	C	0.846569	0.197003	0.111128
N55	N	0.379025	-0.307903	-0.459421
N56	N	0.879025	0.192097	0.040579
N57	N	0.441482	-0.307914	-0.459390
N58	N	0.941482	0.192086	0.040610
C59	C	0.473358	-0.303019	-0.388813
C60	C	0.973358	0.196981	0.111187
C61	C	0.242416	-0.343287	-0.440394
C62	C	0.742416	0.156713	0.059606
C63	C	0.176673	-0.343267	-0.440431
C64	C	0.676673	0.156733	0.059569
C65	C	0.176676	-0.262645	-0.337486
C66	C	0.676676	0.237355	0.162514
C67	C	0.242418	-0.262661	-0.337456
C68	C	0.742418	0.237339	0.162544
C69	C	0.275285	-0.302986	-0.388909
C70	C	0.775285	0.197014	0.111091
C71	C	0.909563	-0.466551	-0.388797
C72	C	1.409563	0.033449	0.111203
C73	C	0.909586	-0.536519	-0.388805
C74	C	1.409586	-0.036519	0.111195
C75	C	0.949875	-0.569367	-0.337311
C76	C	1.449875	-0.069367	0.162689
C77	C	0.949905	-0.635110	-0.337329
C78	C	1.449905	-0.135110	0.162671
C79	C	0.909633	-0.668002	-0.388833
C80	C	1.409633	-0.168002	0.111167
C81	C	0.869341	-0.635146	-0.440338
C82	C	1.369341	-0.135146	0.059662
C83	C	0.869317	-0.569405	-0.440324
C84	C	1.369317	-0.069405	0.059676
N85	N	0.854566	-0.771283	-0.394949
N86	N	1.354566	-0.271283	0.105051
N87	N	0.854590	-0.833734	-0.394957
N88	N	1.354590	-0.333734	0.105043
C89	C	0.909704	-0.866076	-0.388879
C90	C	1.409704	-0.366076	0.111121
N91	N	0.964793	-0.833608	-0.382777
N92	N	1.464793	-0.333608	0.117223
N93	N	0.964768	-0.771151	-0.382764
N94	N	1.464768	-0.271151	0.117236
C95	C	0.909655	-0.739287	-0.388854
C96	C	1.409655	-0.239287	0.111146
C97	C	0.950029	-0.970210	-0.337402
C98	C	1.450029	-0.470210	0.162598
C99	C	0.950059	-1.035953	-0.337426
C100	C	1.450059	-0.535953	0.162574
C101	C	0.869490	-1.035988	-0.440430
C102	C	1.369490	-0.535988	0.059570
C103	C	0.869465	-0.970246	-0.440410
C104	C	1.369465	-0.470246	0.059590
C105	C	0.909734	-0.937361	-0.388892
C106	C	1.409734	-0.437361	0.111108
C107	C	1.073836	-0.302967	-0.388936
C108	C	1.573836	0.197033	0.111064
C109	C	1.143804	-0.302953	-0.388976
C110	C	1.643804	0.197047	0.111024
C111	C	0.909677	-0.302958	-0.599151
C112	C	1.409677	0.197042	-0.099151
C113	C	0.909690	-0.302940	-0.688772
C114	C	1.409690	0.197060	-0.188772
C115	C	0.909746	-0.138809	-0.388905
C116	C	1.409746	0.361191	0.111095
C117	C	0.909788	-0.068841	-0.388931
C118	C	1.409788	0.431159	0.111069
C119	C	0.909700	-0.302926	-0.761555
C120	C	1.409700	0.197074	-0.261555
C121	C	0.909715	-0.302903	-0.852863
C122	C	1.409715	0.197097	-0.352863
C123	C	0.909730	-0.302881	-0.925640
C124	C	1.409730	0.197119	-0.425640
C125	C	0.909745	-0.302858	-1.016954
C126	C	1.409745	0.197142	-0.516954
C127	C	0.909651	-0.302995	-0.179351
C128	C	1.409651	0.197005	0.320649
C129	C	0.909760	-0.302836	-0.089731
C130	C	1.409760	0.197164	0.410269
H131	H	0.149913	-0.376087	-0.482356
H132	H	0.649913	0.123913	0.017644
Cl133	Cl	0.283739	-0.211991	-0.272735
Cl134	Cl	0.783739	0.288009	0.227265
H135	H	0.836703	-1.062769	-0.482369
H136	H	1.336703	-0.562769	0.017631
Cl137	Cl	1.000651	-0.928865	-0.272637
Cl138	Cl	1.500651	-0.428865	0.227363
Cl139	Cl	0.536194	-0.212042	-0.272621
Cl140	Cl	1.036194	0.287958	0.227379
Cl141	Cl	0.684581	-0.212064	-0.272555
Cl142	Cl	1.184581	0.287936	0.227445
Cl143	Cl	0.283737	-0.393976	-0.505080
Cl144	Cl	0.783737	0.106024	-0.005080
H145	H	0.836508	-0.542659	-0.482258
H146	H	1.336508	-0.042659	0.017742
Cl147	Cl	1.000719	-1.077249	-0.272689
Cl148	Cl	1.500719	-0.577249	0.227311
Cl149	Cl	0.818809	-0.928949	-0.505147
Cl150	Cl	1.318809	-0.428949	-0.005147
H151	H	0.149912	-0.229818	-0.295594
H152	H	0.649912	0.270182	0.204406
Cl153	Cl	1.000508	-0.528029	-0.272557
Cl154	Cl	1.500508	-0.028029	0.227443
H155	H	0.982716	-0.661860	-0.295396
H156	H	1.482716	-0.161860	0.204604
H157	H	0.670014	-0.376201	-0.482104
H158	H	1.170014	0.123799	0.017896
Cl159	Cl	0.818717	-0.676495	-0.505090
Cl160	Cl	1.318717	-0.176495	-0.005090
H161	H	0.550751	-0.376172	-0.482165
H162	H	1.050751	0.123828	0.017835
