data_functionalizedCrystal
_audit_creation_method	'MofGen! by Chris Wilmer'
_symmetry_space_group_name_H-M	'P1'
_symmetry_Int_Tables_number	1
_symmetry_cell_setting	triclinic
loop_
_symmetry_equiv_pos_as_xyz
  x,y,z
_cell_length_a	25.639243
_cell_length_b	25.639239
_cell_length_c	19.077271
_cell_angle_alpha	87.716553
_cell_angle_beta	87.711112
_cell_angle_gamma	90.041410
loop_
_atom_site_label
_atom_site_type_symbol
_atom_site_fract_x
_atom_site_fract_y
_atom_site_fract_z
Zn1	Zn	0.787307	-0.220080	0.397986
Zn2	Zn	1.287307	0.279920	0.897986
Zn3	Zn	0.790755	-0.303979	0.280288
Zn4	Zn	1.290755	0.196021	0.780288
Zn5	Zn	0.703408	-0.216564	0.280300
Zn6	Zn	1.203408	0.283436	0.780300
Zn7	Zn	0.699830	-0.307489	0.397937
Zn8	Zn	1.199830	0.192511	0.897937
O9	O	0.745325	-0.262028	0.339128
O10	O	1.245325	0.237972	0.839128
O11	O	0.860929	-0.231212	0.382388
O12	O	1.360929	0.268788	0.882388
O13	O	0.782109	-0.289442	0.181801
O14	O	1.282109	0.210558	0.681801
O15	O	0.714591	-0.143866	0.295937
O16	O	1.214591	0.356134	0.795937
O17	O	0.863463	-0.292852	0.295916
O18	O	1.363463	0.207148	0.795916
O19	O	0.776232	-0.146449	0.382400
O20	O	1.276232	0.353551	0.882400
O21	O	0.717935	-0.225219	0.181810
O22	O	1.217935	0.274781	0.681810
O23	O	0.629768	-0.228623	0.295890
O24	O	1.129768	0.271377	0.795890
O25	O	0.708494	-0.298835	0.496432
O26	O	1.208494	0.201165	0.996432
O27	O	0.627140	-0.295425	0.382317
O28	O	1.127140	0.204575	0.882317
O29	O	0.772763	-0.234616	0.496468
O30	O	1.272763	0.265384	0.996468
O31	O	0.778640	-0.377609	0.295869
O32	O	1.278640	0.122391	0.795869
O33	O	0.711837	-0.380188	0.382305
O34	O	1.211837	0.119812	0.882305
C35	C	0.609483	-0.262024	0.339100
C36	C	1.109483	0.237976	0.839100
C37	C	0.551369	-0.262035	0.339105
C38	C	1.051369	0.237965	0.839105
C39	C	0.189679	-0.229987	0.384229
C40	C	0.689679	0.270013	0.884229
C41	C	0.135074	-0.229987	0.384233
C42	C	0.635074	0.270013	0.884233
O43	O	0.105710	-0.202728	0.422565
O44	O	0.605710	0.297272	0.922565
N45	N	0.109086	-0.262027	0.339147
N46	N	0.609086	0.237973	0.839147
C47	C	0.137704	-0.294066	0.294048
C48	C	0.637704	0.205934	0.794048
O49	O	0.110585	-0.321318	0.255699
O50	O	0.610585	0.178682	0.755699
C51	C	0.192308	-0.294063	0.294041
C52	C	0.692308	0.205937	0.794041
C53	C	0.218293	-0.262025	0.339135
C54	C	0.718293	0.237975	0.839135
C55	C	0.215664	-0.197951	0.429319
C56	C	0.715664	0.302049	0.929319
C57	C	0.270265	-0.197952	0.429315
C58	C	0.770265	0.302048	0.929315
C59	C	0.298880	-0.229989	0.384222
C60	C	0.798880	0.270011	0.884222
C61	C	0.272894	-0.262026	0.339132
C62	C	0.772894	0.237974	0.839132
C63	C	0.220926	-0.326099	0.248939
C64	C	0.720926	0.173901	0.748939
C65	C	0.275533	-0.326093	0.248936
C66	C	0.775533	0.173907	0.748936
C67	C	0.301519	-0.294055	0.294030
C68	C	0.801519	0.205945	0.794030
C69	C	0.356110	-0.294064	0.294034
C70	C	0.856110	0.205936	0.794034
N71	N	0.382098	-0.262024	0.339121
N72	N	0.882098	0.237976	0.839121
C73	C	0.353483	-0.229987	0.384214
C74	C	0.853483	0.270013	0.884214
C75	C	0.023033	-0.294069	0.294066
C76	C	0.523033	0.205931	0.794066
C77	C	-0.031569	-0.294075	0.294077
C78	C	0.468431	0.205925	0.794077
C79	C	-0.034196	-0.229995	0.384261
C80	C	0.465804	0.270005	0.884261
C81	C	0.020408	-0.229992	0.384254
C82	C	0.520408	0.270008	0.884254
C83	C	0.049022	-0.262028	0.339153
C84	C	0.549022	0.237972	0.839153
C85	C	0.468149	-0.229992	0.384204
C86	C	0.968149	0.270008	0.884204
C87	C	0.522754	-0.229997	0.384198
C88	C	1.022754	0.270003	0.884198
C89	C	0.525376	-0.294075	0.294012
C90	C	1.025376	0.205925	0.794012
C91	C	0.470775	-0.294072	0.294020
C92	C	0.970775	0.205928	0.794020
C93	C	0.442163	-0.262026	0.339118
C94	C	0.942163	0.237974	0.839118
O95	O	0.385508	-0.321308	0.255720
O96	O	0.885508	0.178692	0.755720
O97	O	0.380610	-0.202734	0.422551
O98	O	0.880610	0.297266	0.922551
C99	C	0.745238	-0.397870	0.339095
C100	C	1.245238	0.102130	0.839095
C101	C	0.745248	-0.455984	0.339105
C102	C	1.245248	0.044016	0.839105
C103	C	0.780194	-0.814994	0.294197
C104	C	1.280194	-0.314994	0.794197
C105	C	0.780214	-0.869599	0.294206
C106	C	1.280214	-0.369599	0.794206
O107	O	0.809836	-0.896685	0.255988
O108	O	1.309836	-0.396685	0.755988
N109	N	0.745416	-0.898268	0.339174
N110	N	1.245416	-0.398268	0.839174
C111	C	0.710599	-0.872331	0.384141
C112	C	1.210599	-0.372331	0.884141
O113	O	0.681002	-0.901730	0.422391
O114	O	1.181002	-0.401730	0.922391
C115	C	0.710582	-0.817727	0.384135
C116	C	1.210582	-0.317727	0.884135
C117	C	0.745379	-0.789060	0.339159
C118	C	1.245379	-0.289060	0.839159
C119	C	0.814989	-0.786328	0.249225
C120	C	1.314989	-0.286328	0.749225
C121	C	0.814968	-0.731727	0.249215
C122	C	1.314968	-0.231727	0.749215
C123	C	0.780152	-0.705793	0.294177
C124	C	1.280152	-0.205793	0.794177
C125	C	0.745358	-0.734460	0.339148
C126	C	1.245358	-0.234460	0.839148
C127	C	0.675768	-0.791791	0.429104
C128	C	1.175768	-0.291791	0.929104
C129	C	0.675754	-0.737183	0.429094
C130	C	1.175754	-0.237183	0.929094
C131	C	0.710551	-0.708516	0.384118
C132	C	1.210551	-0.208516	0.884118
C133	C	0.710522	-0.653925	0.384100
C134	C	1.210522	-0.153925	0.884100
N135	N	0.745320	-0.625255	0.339132
N136	N	1.245320	-0.125255	0.839132
C137	C	0.780135	-0.651189	0.294170
C138	C	1.280135	-0.151189	0.794170
C139	C	0.710638	-0.987002	0.384152
C140	C	1.210638	-0.487002	0.884152
C141	C	0.710652	-1.041604	0.384155
C142	C	1.210652	-0.541604	0.884155
C143	C	0.780268	-1.038869	0.294221
C144	C	1.280268	-0.538869	0.794221
C145	C	0.780251	-0.984265	0.294215
C146	C	1.280251	-0.484265	0.794215
C147	C	0.745436	-0.958332	0.339184
C148	C	1.245436	-0.458332	0.839184
C149	C	0.780089	-0.536524	0.294152
C150	C	1.280089	-0.036524	0.794152
C151	C	0.780064	-0.481918	0.294144
C152	C	1.280064	0.018082	0.794144
C153	C	0.710449	-0.484658	0.384080
C154	C	1.210449	0.015342	0.884080
C155	C	0.710473	-0.539259	0.384086
C156	C	1.210473	-0.039259	0.884086
C157	C	0.745297	-0.565190	0.339119
C158	C	1.245297	-0.065190	0.839119
O159	O	0.680916	-0.626804	0.422300
O160	O	1.180916	-0.126804	0.922300
O161	O	0.809732	-0.621783	0.255933
O162	O	1.309732	-0.121783	0.755933
C163	C	0.881697	-0.262033	0.339156
C164	C	1.381697	0.237967	0.839156
C165	C	0.939811	-0.262035	0.339168
C166	C	1.439811	0.237965	0.839168
C167	C	0.739845	-0.267510	0.522701
C168	C	1.239845	0.232490	1.022701
C169	C	0.737510	-0.269846	0.600929
C170	C	1.237510	0.230154	1.100929
C171	C	0.745426	-0.125656	0.339175
C172	C	1.245426	0.374344	0.839175
C173	C	0.745469	-0.067543	0.339196
C174	C	1.245469	0.432457	0.839196
C175	C	0.769872	-0.237509	0.637701
C176	C	1.269872	0.262491	1.137701
C177	C	0.767671	-0.239702	0.711204
C178	C	1.267671	0.260298	1.211204
C179	C	0.733110	-0.274234	0.747935
C180	C	1.233110	0.225766	1.247935
C181	C	0.700744	-0.306572	0.711158
C182	C	1.200744	0.193428	1.211158
C183	C	0.702943	-0.304376	0.637656
C184	C	1.202943	0.195624	1.137656
C185	C	0.722945	-0.284384	0.967761
C186	C	1.222945	0.215616	1.467761
C187	C	0.720750	-0.286579	1.041269
C188	C	1.220750	0.213421	1.541269
C189	C	0.787677	-0.219708	1.041310
C190	C	1.287677	0.280292	1.541310
C191	C	0.789874	-0.217517	0.967806
C192	C	1.289874	0.282483	1.467806
C193	C	0.757506	-0.249853	0.931036
C194	C	1.257506	0.250147	1.431036
N195	N	0.730861	-0.276478	0.823068
N196	N	1.230861	0.223522	1.323068
N197	N	0.759753	-0.247607	0.855904
N198	N	1.259753	0.252393	1.355904
C199	C	0.750779	-0.256579	1.156268
C200	C	1.250779	0.243421	1.656268
C201	C	0.753113	-0.254243	1.078040
C202	C	1.253113	0.245757	1.578040
H203	H	0.291418	-0.171862	0.466035
H204	H	0.791418	0.328138	0.966035
O205	O	-0.061940	-0.198796	0.428028
O206	O	0.438060	0.301204	0.928028
C207	C	-0.079639	-0.110923	0.462372
C208	C	0.420361	0.389077	0.962372
C209	C	-0.048175	-0.146192	0.412777
C210	C	0.451825	0.353808	0.912777
H211	H	-0.068530	-0.068385	0.450050
H212	H	0.431470	0.431615	0.950050
H213	H	-0.070588	-0.121817	0.519114
H214	H	0.429412	0.378183	1.019114
H215	H	-0.123126	-0.116458	0.454636
H216	H	0.376874	0.383542	0.954636
H217	H	-0.004680	-0.140676	0.420451
H218	H	0.495320	0.359324	0.920451
H219	H	-0.057270	-0.135289	0.356054
H220	H	0.442730	0.364711	0.856054
O221	O	0.687245	-0.320176	1.076985
O222	O	1.187245	0.179824	1.576985
C223	C	0.677668	-0.393215	1.159989
C224	C	1.177668	0.106785	1.659989
C225	C	0.715668	-0.355213	1.119569
C226	C	1.215668	0.144787	1.619569
H227	H	0.700631	-0.421545	1.194438
H228	H	1.200631	0.078455	1.694438
H229	H	0.654915	-0.415989	1.121119
H230	H	1.154915	0.084011	1.621119
H231	H	0.649316	-0.370217	1.194370
H232	H	1.149316	0.129783	1.694370
H233	H	0.744051	-0.378170	1.085187
H234	H	1.244051	0.121830	1.585187
H235	H	0.738383	-0.332439	1.158477
H236	H	1.238383	0.167561	1.658477
H237	H	0.798017	-0.209391	0.607800
H238	H	1.298017	0.290609	1.107800
O239	O	0.553154	-0.325272	0.250286
O240	O	1.053154	0.174728	0.750286
C241	C	0.570810	-0.413135	0.215868
C242	C	1.070810	0.086865	0.715868
C243	C	0.539325	-0.377870	0.265446
C244	C	1.039325	0.122130	0.765446
H245	H	0.559633	-0.455667	0.228097
H246	H	1.059633	0.044333	0.728097
H247	H	0.614305	-0.407672	0.223618
H248	H	1.114305	0.092328	0.723618
H249	H	0.561774	-0.402166	0.159144
H250	H	1.061774	0.097834	0.659144
H251	H	0.548316	-0.388817	0.322188
H252	H	1.048316	0.111183	0.822188
H253	H	0.495839	-0.383338	0.257634
H254	H	0.995839	0.116662	0.757634
O255	O	-0.056726	-0.325216	0.250212
O256	O	0.443274	0.174784	0.750212
C257	C	-0.048344	-0.388798	0.160792
C258	C	0.451656	0.111202	0.660792
C259	C	-0.019791	-0.353548	0.210427
C260	C	0.480209	0.146452	0.710427
H261	H	-0.018495	-0.411721	0.128623
H262	H	0.481505	0.088279	0.628623
H263	H	-0.072783	-0.363680	0.124000
H264	H	0.427217	0.136320	0.624000
H265	H	-0.074900	-0.417116	0.193049
H266	H	0.425100	0.082884	0.693049
H267	H	0.006792	-0.325224	0.178227
H268	H	0.506792	0.174776	0.678227
H269	H	0.004615	-0.378699	0.247220
H270	H	0.504615	0.121301	0.747220
H271	H	0.696596	-0.310722	0.937832
H272	H	1.196596	0.189278	1.437832
O273	O	0.050852	-0.325121	0.250186
O274	O	0.550852	0.174879	0.750186
C275	C	0.115333	-0.329222	0.155162
C276	C	0.615333	0.170778	0.655162
C277	C	0.083857	-0.293995	0.204800
C278	C	0.583857	0.206005	0.704800
H279	H	0.142033	-0.304072	0.118465
H280	H	0.642033	0.195928	0.618465
H281	H	0.087399	-0.352110	0.122892
H282	H	0.587399	0.147890	0.622892
H283	H	0.139896	-0.357572	0.187420
H284	H	0.639896	0.142428	0.687420
H285	H	0.059292	-0.265615	0.172596
H286	H	0.559292	0.234385	0.672596
H287	H	0.111819	-0.271144	0.237072
H288	H	0.611819	0.228856	0.737072
H289	H	0.794026	-0.213372	0.741141
H290	H	1.294026	0.286628	1.241141
O291	O	0.195775	-0.357233	0.205063
O292	O	0.695775	0.142767	0.705063
C293	C	0.204166	-0.420800	0.115626
C294	C	0.704166	0.079200	0.615626
C295	C	0.232714	-0.385557	0.165274
C296	C	0.732714	0.114443	0.665274
H297	H	0.234019	-0.443718	0.083455
H298	H	0.734019	0.056282	0.583455
H299	H	0.179729	-0.395678	0.078838
H300	H	0.679729	0.104322	0.578838
H301	H	0.177610	-0.449124	0.147873
H302	H	0.677610	0.050876	0.647873
H303	H	0.259298	-0.357228	0.133085
H304	H	0.759298	0.142772	0.633085
H305	H	0.257119	-0.410712	0.202064
H306	H	0.757119	0.089288	0.702064
H307	H	0.298828	-0.352181	0.212207
H308	H	0.798828	0.147819	0.712207
H309	H	0.041562	-0.203902	0.420972
H310	H	0.541562	0.296098	0.920972
O311	O	0.676794	-1.069469	0.427739
O312	O	1.176794	-0.569469	0.927739
C313	C	0.605959	-1.131491	0.437139
C314	C	1.105959	-0.631491	0.937139
C315	C	0.644261	-1.099958	0.387694
C316	C	1.144261	-0.599958	0.887694
H317	H	0.579653	-1.156158	0.404783
H318	H	1.079653	-0.656158	0.904783
H319	H	0.581036	-1.103594	0.469258
H320	H	1.081036	-0.603594	0.969258
H321	H	0.628860	-1.158094	0.473992
H322	H	1.128860	-0.658094	0.973992
H323	H	0.621401	-1.073353	0.350798
H324	H	1.121401	-0.573353	0.850798
H325	H	0.669185	-1.127885	0.355625
H326	H	1.169185	-0.627885	0.855625
H327	H	0.814028	-0.193381	1.071256
H328	H	1.314028	0.306619	1.571256
O329	O	0.445502	-0.325254	0.250321
O330	O	0.945502	0.174746	0.750321
C331	C	0.384058	-0.395518	0.240674
C332	C	0.884058	0.104482	0.740674
C333	C	0.412650	-0.360252	0.290249
C334	C	0.912650	0.139748	0.790249
H335	H	0.357483	-0.423815	0.272935
H336	H	0.857483	0.076185	0.772935
H337	H	0.413867	-0.418457	0.208457
H338	H	0.913867	0.081543	0.708457
H339	H	0.359631	-0.370359	0.203918
H340	H	0.859631	0.129641	0.703918
H341	H	0.437077	-0.385372	0.327047
H342	H	0.937077	0.114628	0.827047
H343	H	0.382815	-0.337310	0.322416
H344	H	0.882815	0.162690	0.822416
H345	H	0.672602	-0.334687	0.741070
H346	H	1.172602	0.165313	1.241070
H347	H	0.808399	-0.458579	0.257516
H348	H	1.308399	0.041421	0.757516
O349	O	0.813933	-0.561625	0.250403
O350	O	1.313933	-0.061625	0.750403
C351	C	0.882995	-0.553135	0.161223
C352	C	1.382995	-0.053135	0.661223
C353	C	0.844690	-0.524642	0.210724
C354	C	1.344690	-0.024642	0.710724
H355	H	0.907880	-0.523247	0.129140
H356	H	1.407880	-0.023247	0.629140
H357	H	0.860149	-0.577619	0.124346
H358	H	1.360149	-0.077619	0.624346
H359	H	0.909340	-0.579641	0.193580
H360	H	1.409340	-0.079641	0.693580
H361	H	0.818336	-0.498110	0.178424
H362	H	1.318336	0.001890	0.678424
H363	H	0.867569	-0.500191	0.247603
H364	H	1.367569	-0.000191	0.747603
H365	H	0.192372	-0.171859	0.466040
H366	H	0.692372	0.328141	0.966040
H367	H	0.808618	-1.059994	0.257613
H368	H	1.308618	-0.559994	0.757613
H369	H	0.676584	-0.330703	0.607718
H370	H	1.176584	0.169297	1.107718
H371	H	0.843342	-0.807437	0.212612
H372	H	1.343342	-0.307437	0.712612
O373	O	0.848825	-0.703964	0.205510
O374	O	1.348825	-0.203964	0.705510
C375	C	0.917862	-0.707034	0.116290
C376	C	1.417862	-0.207034	0.616290
C377	C	0.879550	-0.738534	0.165761
C378	C	1.379550	-0.238534	0.665761
H379	H	0.942705	-0.734970	0.084130
H380	H	1.442705	-0.234970	0.584130
H381	H	0.944244	-0.682414	0.148604
H382	H	1.444244	-0.182414	0.648604
H383	H	0.894970	-0.680390	0.079478
H384	H	1.394970	-0.180390	0.579478
H385	H	0.902400	-0.765207	0.202583
H386	H	1.402400	-0.265207	0.702583
H387	H	0.853168	-0.763119	0.133404
H388	H	1.353168	-0.263119	0.633404
H389	H	0.543909	-0.203907	0.420922
H390	H	1.043909	0.296093	0.920922
H391	H	0.808586	-0.960928	0.257592
H392	H	1.308586	-0.460928	0.757592
H393	H	0.682283	-0.965890	0.420769
H394	H	1.182283	-0.465890	0.920769
H395	H	0.647430	-0.815122	0.465725
H396	H	1.147430	-0.315122	0.965725
H397	H	0.444859	-0.203895	0.420925
H398	H	0.944859	0.296105	0.920925
H399	H	0.647404	-0.716072	0.465716
H400	H	1.147404	-0.216072	0.965716
O401	O	0.676651	-0.567030	0.427838
O402	O	1.176651	-0.067030	0.927838
C403	C	0.607584	-0.563973	0.517016
C404	C	1.107584	-0.063973	1.017016
C405	C	0.645861	-0.532464	0.467506
C406	C	1.145861	-0.032464	0.967506
H407	H	0.582672	-0.536040	0.549089
H408	H	1.082672	-0.036040	1.049089
H409	H	0.630453	-0.590582	0.553902
H410	H	1.130453	-0.090582	1.053902
H411	H	0.581262	-0.588630	0.484667
H412	H	1.081262	-0.088630	0.984667
H413	H	0.672192	-0.507778	0.499798
H414	H	1.172192	-0.007778	0.999798
H415	H	0.622960	-0.505888	0.430618
H416	H	1.122960	-0.005888	0.930618
H417	H	0.682102	-0.463534	0.420685
H418	H	1.182102	0.036466	0.920685
H419	H	0.818019	-0.189399	0.937905
H420	H	1.318019	0.310601	1.437905
