data_functionalizedCrystal
_audit_creation_method	'MofGen! by Chris Wilmer'
_symmetry_space_group_name_H-M	'P1'
_symmetry_Int_Tables_number	1
_symmetry_cell_setting	triclinic
loop_
_symmetry_equiv_pos_as_xyz
  x,y,z
_cell_length_a	18.215407
_cell_length_b	16.120484
_cell_length_c	16.120256
_cell_angle_alpha	84.383827
_cell_angle_beta	87.121873
_cell_angle_gamma	92.926015
loop_
_atom_site_label
_atom_site_type_symbol
_atom_site_fract_x
_atom_site_fract_y
_atom_site_fract_z
Zn1	Zn	1.087191	-0.356754	0.489461
Zn2	Zn	1.587191	0.143246	0.989461
Zn3	Zn	1.087099	-0.489439	0.356771
Zn4	Zn	1.587099	0.010561	0.856771
Zn5	Zn	0.970696	-0.349686	0.349706
Zn6	Zn	1.470696	0.150314	0.849706
Zn7	Zn	0.957519	-0.496486	0.496494
Zn8	Zn	1.457519	0.003514	0.996494
O9	O	1.025626	-0.423091	0.423108
O10	O	1.525626	0.076909	0.923108
O11	O	1.190162	-0.374363	0.471873
O12	O	1.690162	0.125637	0.971873
O13	O	1.077133	-0.464994	0.238871
O14	O	1.577133	0.035006	0.738871
O15	O	0.991702	-0.233658	0.362345
O16	O	1.491702	0.266342	0.862345
O17	O	1.190094	-0.471847	0.374386
O18	O	1.690094	0.028153	0.874386
O19	O	1.077291	-0.238851	0.465022
O20	O	1.577291	0.261149	0.965022
O21	O	0.991613	-0.362318	0.233681
O22	O	1.491613	0.137682	0.733681
O23	O	0.865965	-0.369151	0.369164
O24	O	1.365965	0.130849	0.869164
O25	O	0.969244	-0.483857	0.612523
O26	O	1.469244	0.016143	1.112523
O27	O	0.856284	-0.477004	0.477008
O28	O	1.356284	0.022996	0.977008
O29	O	1.064514	-0.381196	0.607357
O30	O	1.564514	0.118804	1.107357
O31	O	1.064356	-0.607339	0.381205
O32	O	1.564356	-0.107339	0.881205
O33	O	0.969155	-0.612517	0.483859
O34	O	1.469155	-0.112517	0.983859
C35	C	0.834422	-0.423076	0.423083
C36	C	1.334422	0.076924	0.923083
C37	C	0.752622	-0.423090	0.423093
C38	C	1.252622	0.076910	0.923093
C39	C	0.559405	-0.479330	0.479185
C40	C	1.059405	0.020670	0.979185
C41	C	0.482546	-0.479333	0.479196
C42	C	0.982546	0.020667	0.979196
C43	C	0.492597	-0.366869	0.367050
C44	C	0.992597	0.133131	0.867050
C45	C	0.569455	-0.366862	0.367044
C46	C	1.069455	0.133138	0.867044
C47	C	0.602857	-0.423098	0.423111
C48	C	1.102857	0.076902	0.923111
C49	C	0.449140	-0.423107	0.423127
C50	C	0.949140	0.076893	0.923127
C51	C	0.365805	-0.423110	0.423138
C52	C	0.865805	0.076890	0.923138
C53	C	0.686197	-0.423094	0.423101
C54	C	1.186197	0.076906	0.923101
C55	C	1.015335	-0.640257	0.434080
C56	C	1.515335	-0.140257	0.934080
C57	C	1.010998	-0.733162	0.438802
C58	C	1.510998	-0.233162	0.938802
C59	C	1.003084	-0.903263	0.447440
C60	C	1.503084	-0.403263	0.947440
C61	C	1.048299	-0.942080	0.398789
C62	C	1.548299	-0.442080	0.898789
C63	C	1.043896	-1.036730	0.403596
C64	C	1.543896	-0.536730	0.903596
C65	C	1.007486	-0.808605	0.442635
C66	C	1.507486	-0.308605	0.942635
C67	C	1.217577	-0.423107	0.423133
C68	C	1.717577	0.076893	0.923133
C69	C	1.299375	-0.423114	0.423144
C70	C	1.799375	0.076886	0.923144
C71	C	1.015420	-0.434101	0.641115
C72	C	1.515420	0.065899	1.141115
C73	C	1.011070	-0.438792	0.734017
C74	C	1.511070	0.061208	1.234017
C75	C	1.035977	-0.205079	0.412111
C76	C	1.535977	0.294921	0.912111
C77	C	1.040388	-0.112175	0.407425
C78	C	1.540388	0.387825	0.907425
C79	C	1.035838	-0.412064	0.205946
C80	C	1.535838	0.087936	0.705946
C81	C	1.040341	-0.407137	0.113033
C82	C	1.540341	0.092863	0.613033
C83	C	1.048307	-0.398604	0.942943
C84	C	1.548307	0.101396	1.442943
C85	C	1.003106	-0.447323	0.904101
C86	C	1.503106	0.052677	1.404101
C87	C	1.007539	-0.442575	0.809457
C88	C	1.507539	0.057425	1.309457
C89	C	1.043876	-0.403351	1.037595
C90	C	1.543876	0.096649	1.537595
H91	H	0.447170	-0.525122	0.524859
H92	H	0.947170	-0.025122	1.024859
H93	H	0.961070	-0.941112	0.492697
H94	H	1.461070	-0.441112	0.992697
Br95	Br	1.118330	-0.878995	0.323349
Br96	Br	1.618330	-0.378995	0.823349
Br97	Br	0.933059	-0.522788	0.967145
Br98	Br	1.433059	-0.022788	1.467145
Br99	Br	0.447261	-0.290553	0.290963
Br100	Br	0.947261	0.209447	0.790963
Br101	Br	1.118339	-0.323131	0.879898
Br102	Br	1.618339	0.176869	1.379898
H103	H	0.604835	-0.321066	0.321381
H104	H	1.104835	0.178934	0.821381
H105	H	0.586598	-0.525118	0.524840
H106	H	1.086598	-0.025118	1.024840
