data_functionalizedCrystal
_audit_creation_method	'MofGen! by Chris Wilmer'
_symmetry_space_group_name_H-M	'P1'
_symmetry_Int_Tables_number	1
_symmetry_cell_setting	triclinic
loop_
_symmetry_equiv_pos_as_xyz
  x,y,z
_cell_length_a	10.654546
_cell_length_b	10.654551
_cell_length_c	14.586319
_cell_angle_alpha	89.999036
_cell_angle_beta	89.995569
_cell_angle_gamma	84.484422
loop_
_atom_site_label
_atom_site_type_symbol
_atom_site_fract_x
_atom_site_fract_y
_atom_site_fract_z
O1	O	1.667843	0.176376	-0.076254
O2	O	1.302364	0.193187	-0.076251
O3	O	1.493506	0.002042	-0.076253
O4	O	1.476701	0.367521	-0.076252
O5	O	1.493492	0.002039	0.076228
O6	O	1.302350	0.193184	0.076230
O7	O	1.667829	0.176373	0.076227
Cu8	Cu	1.485089	0.184778	0.090151
Cu9	Cu	1.485105	0.184782	-0.090175
O10	O	1.476688	0.367518	0.076229
C11	C	1.255559	0.191952	-0.000010
C12	C	1.116116	0.188262	-0.000009
C13	C	1.050628	0.186517	-0.083131
C14	C	0.919607	0.183040	-0.083138
C15	C	0.919574	0.183047	0.083105
C16	C	1.050591	0.186533	0.083111
C17	C	1.116153	0.188246	-0.166251
C18	C	1.050665	0.186500	-0.249380
C19	C	0.919645	0.183023	-0.249387
C20	C	0.854111	0.181291	-0.166266
C21	C	1.492265	-0.044757	-0.000015
C22	C	1.488572	-0.184200	-0.000021
C23	C	1.486847	-0.249711	-0.083137
C24	C	1.483367	-0.380731	-0.083132
C25	C	1.483342	-0.380720	0.083111
C26	C	1.486813	-0.249701	0.083105
C27	C	1.488606	-0.184210	-0.166263
C28	C	1.486883	-0.249721	-0.249385
C29	C	1.483403	-0.380741	-0.249381
C30	C	1.481646	-0.446251	-0.166254
C31	C	1.714634	0.177608	-0.000016
C32	C	1.854078	0.181298	-0.000023
C33	C	1.477928	0.414317	-0.000012
C34	C	1.481621	0.553760	-0.000012
N35	N	1.485087	0.184775	0.216983
N36	N	1.485116	0.184775	-0.217007
C37	C	1.569753	0.100165	0.451988
C38	C	1.569756	0.100162	0.547969
C39	C	1.400441	0.269389	0.547981
C40	C	1.400433	0.269385	0.452001
C41	C	1.485095	0.184775	0.404007
C42	C	1.485108	0.184776	0.595968
C43	C	1.485111	0.184773	0.700035
C44	C	1.485091	0.184775	0.299934
H45	H	1.103911	0.187961	0.150796
C46	C	1.308591	0.361455	0.599970
C47	C	1.330003	0.485059	0.576596
C48	C	1.245403	0.569906	0.624458
H49	H	1.320629	0.349522	0.664019
H50	H	1.224632	0.347111	0.584228
H51	H	1.413942	0.499398	0.592344
H52	H	1.317956	0.497033	0.512556
H53	H	1.161443	0.555562	0.608716
H54	H	1.257447	0.557961	0.688504
H55	H	1.259911	0.653780	0.608599
H56	H	1.331488	0.338285	0.412933
H57	H	1.488301	-0.196373	-0.317064
C58	C	1.121574	0.188448	-0.339717
C59	C	1.036170	0.186216	-0.412513
C60	C	1.101439	0.188031	-0.495746
H61	H	1.181634	0.116718	-0.343302
H62	H	1.163707	0.262944	-0.343218
H63	H	0.994058	0.111728	-0.409014
H64	H	0.976108	0.257940	-0.408958
H65	H	1.143571	0.262527	-0.499247
H66	H	1.161497	0.116299	-0.499322
H67	H	1.043501	0.186528	-0.545148
H68	H	0.866327	0.181614	-0.317074
C69	C	0.848395	0.180891	0.173317
C70	C	0.786412	0.071012	0.178177
C71	C	0.720846	0.068968	0.261273
H72	H	0.788240	0.252549	0.176860
H73	H	0.906132	0.182360	0.222851
H74	H	0.728680	0.069555	0.128657
H75	H	0.846538	-0.000664	0.174650
H76	H	0.778583	0.070437	0.310807
H77	H	0.660698	0.140631	0.264809
H78	H	0.678792	-0.005588	0.264585
C79	C	1.481188	-0.451742	0.173386
C80	C	1.374151	-0.406703	0.223522
C81	C	1.372121	-0.472108	0.306684
H82	H	1.554775	-0.439251	0.207647
H83	H	1.478808	-0.539159	0.161525
H84	H	1.376542	-0.319307	0.235386
H85	H	1.300547	-0.419195	0.189289
H86	H	1.369741	-0.559525	0.294823
H87	H	1.445712	-0.459612	0.340937
H88	H	1.299492	-0.441567	0.340708
C89	C	1.488425	-0.178454	0.173311
C90	C	1.382536	-0.090071	0.178156
C91	C	1.383961	-0.024421	0.261244
H92	H	1.562802	-0.136166	0.176851
H93	H	1.486820	-0.236169	0.222852
H94	H	1.384153	-0.032365	0.128629
H95	H	1.308143	-0.132327	0.174632
H96	H	1.382356	-0.082136	0.310785
H97	H	1.458342	0.017860	0.264776
H98	H	1.312111	0.035546	0.264546
C99	C	1.661715	0.008156	0.400045
C100	C	1.735830	-0.065965	0.462613
C101	C	1.820547	-0.150754	0.414800
H102	H	1.714504	0.053667	0.362593
H103	H	1.616109	-0.044613	0.362631
H104	H	1.781433	-0.013203	0.500012
H105	H	1.683075	-0.111504	0.500068
H106	H	1.774941	-0.203522	0.377386
H107	H	1.873327	-0.105232	0.377349
H108	H	1.870836	-0.201063	0.457245
H109	H	1.222837	0.191075	-0.166255
H110	H	1.481986	-0.434075	-0.317063
H111	H	1.491444	-0.077527	-0.166276
H112	H	0.747424	0.178474	-0.166279
H113	H	1.478794	-0.552934	-0.166258
C114	C	1.661472	0.008156	0.600111
C115	C	1.593912	-0.069372	0.655201
C116	C	1.678359	-0.154159	0.703237
H117	H	1.714176	0.053671	0.637623
H118	H	1.711870	-0.042305	0.557807
H119	H	1.543536	-0.018917	0.697500
H120	H	1.541213	-0.114915	0.617712
H121	H	1.728757	-0.204620	0.660933
H122	H	1.731059	-0.108633	0.740744
H123	H	1.632533	-0.206779	0.740615
