data_functionalizedCrystal
_audit_creation_method	'MofGen! by Chris Wilmer'
_symmetry_space_group_name_H-M	'P1'
_symmetry_Int_Tables_number	1
_symmetry_cell_setting	triclinic
loop_
_symmetry_equiv_pos_as_xyz
  x,y,z
_cell_length_a	19.121424
_cell_length_b	19.121063
_cell_length_c	12.827885
_cell_angle_alpha	92.403967
_cell_angle_beta	92.412384
_cell_angle_gamma	94.804615
loop_
_atom_site_label
_atom_site_type_symbol
_atom_site_fract_x
_atom_site_fract_y
_atom_site_fract_z
Zn1	Zn	1.063722	-0.234165	-0.538428
Zn2	Zn	1.563722	0.265835	-0.038428
Zn3	Zn	1.058605	-0.351851	-0.371458
Zn4	Zn	1.558605	0.148149	0.128542
Zn5	Zn	0.946053	-0.239223	-0.371459
Zn6	Zn	1.446053	0.260777	0.128541
Zn7	Zn	0.941002	-0.356819	-0.553906
Zn8	Zn	1.441002	0.143181	-0.053906
O9	O	1.002345	-0.295515	-0.458813
O10	O	1.502345	0.204485	0.041187
O11	O	1.161505	-0.245581	-0.509801
O12	O	1.661505	0.254419	-0.009801
O13	O	1.043648	-0.336948	-0.225226
O14	O	1.543648	0.163052	0.274774
O15	O	0.965917	-0.140087	-0.387131
O16	O	1.465917	0.359913	0.112869
O17	O	1.157746	-0.332043	-0.387129
O18	O	1.657746	0.167957	0.112871
O19	O	1.052368	-0.136371	-0.509802
O20	O	1.552368	0.363629	-0.009802
O21	O	0.960956	-0.254201	-0.225227
O22	O	1.460956	0.245799	0.274773
O23	O	0.846921	-0.259019	-0.402139
O24	O	1.346921	0.240981	0.097861
O25	O	0.957308	-0.340512	-0.698085
O26	O	1.457308	0.159488	-0.198085
O27	O	0.843210	-0.345416	-0.536182
O28	O	1.343210	0.154584	-0.036182
O29	O	1.047470	-0.250398	-0.686713
O30	O	1.547470	0.249602	-0.186713
O31	O	1.038750	-0.450976	-0.402137
O32	O	1.538750	0.049024	0.097863
O33	O	0.952347	-0.454626	-0.536181
O34	O	1.452347	0.045374	-0.036181
C35	C	0.819535	-0.303306	-0.470841
C36	C	1.319535	0.196694	0.029159
C37	C	0.741328	-0.306656	-0.476013
C38	C	1.241328	0.193344	0.023987
C39	C	0.298905	-0.327840	-0.508840
C40	C	0.798905	0.172160	-0.008840
C41	C	0.372389	-0.324698	-0.503962
C42	C	0.872389	0.175302	-0.003962
C43	C	0.411044	-0.278072	-0.431840
C44	C	0.911044	0.221928	0.068160
C45	C	0.376210	-0.234591	-0.364585
C46	C	0.876210	0.265409	0.135415
C47	C	0.302727	-0.237737	-0.369459
C48	C	0.802727	0.262263	0.130541
C49	C	0.633011	-0.266321	-0.413632
C50	C	1.133011	0.233679	0.086368
C51	C	0.706499	-0.263176	-0.408765
C52	C	1.206499	0.236824	0.091235
C53	C	0.702673	-0.353285	-0.548141
C54	C	1.202673	0.146715	-0.048141
C55	C	0.629189	-0.356424	-0.553013
C56	C	1.129189	0.143576	-0.053013
C57	C	0.594361	-0.312946	-0.485755
C58	C	1.094361	0.187054	0.014245
C59	C	0.486157	-0.274857	-0.426854
C60	C	0.986157	0.225143	0.073146
C61	C	0.519250	-0.316164	-0.490737
C62	C	1.019250	0.183836	0.009263
C63	C	0.994464	-0.478331	-0.470860
C64	C	1.494464	0.021669	0.029140
C65	C	0.991157	-0.556538	-0.476045
C66	C	1.491157	-0.056538	0.023955
C67	C	1.034623	-0.591354	-0.408744
C68	C	1.534623	-0.091354	0.091256
C69	C	1.031517	-0.664838	-0.413626
C70	C	1.531517	-0.164838	0.086374
C71	C	0.984940	-0.703504	-0.485804
C72	C	1.484940	-0.203504	0.014196
C73	C	0.941471	-0.668683	-0.553112
C74	C	1.441471	-0.168683	-0.053112
C75	C	0.944582	-0.595200	-0.548234
C76	C	1.444582	-0.095200	-0.048234
C77	C	0.973299	-0.925470	-0.504025
C78	C	1.473299	-0.425470	-0.004025
C79	C	0.970190	-0.998957	-0.508896
C80	C	1.470190	-0.498957	-0.008896
C81	C	1.060237	-0.995107	-0.369410
C82	C	1.560237	-0.495107	0.130590
C83	C	1.063340	-0.921624	-0.364535
C84	C	1.563340	-0.421624	0.135465
C85	C	1.019875	-0.886809	-0.431846
C86	C	1.519875	-0.386809	0.068154
C87	C	0.981762	-0.778616	-0.490794
C88	C	1.481762	-0.278616	0.009206
C89	C	1.023057	-0.811698	-0.426861
C90	C	1.523057	-0.311698	0.073139
C91	C	1.185869	-0.287693	-0.446738
C92	C	1.685869	0.212307	0.053262
C93	C	1.264076	-0.284361	-0.441592
C94	C	1.764076	0.215639	0.058408
C95	C	1.002396	-0.295445	-0.731375
C96	C	1.502396	0.204555	-0.231375
C97	C	1.002418	-0.295415	-0.847525
C98	C	1.502418	0.204585	-0.347525
C99	C	1.010277	-0.111984	-0.446740
C100	C	1.510277	0.388016	0.053260
C101	C	1.013657	-0.033774	-0.441595
C102	C	1.513657	0.466226	0.058405
C103	C	1.047038	-0.250816	-0.893682
C104	C	1.547038	0.249184	-0.393682
C105	C	1.047061	-0.250784	-1.013729
C106	C	1.547061	0.249216	-0.513729
C107	C	1.002338	-0.295531	-0.187304
C108	C	1.502338	0.204469	0.312696
C109	C	1.002461	-0.295357	-0.071133
C110	C	1.502461	0.204643	0.428867
H111	H	0.597721	-0.394394	-0.611741
H112	H	1.097721	0.105606	-0.111741
F113	F	1.096998	-0.200877	-1.065636
F114	F	1.596998	0.299123	-0.565636
F115	F	0.595955	-0.220041	-0.342057
F116	F	1.095955	0.279959	0.157943
H117	H	0.517637	-0.236893	-0.368133
H118	H	1.017637	0.263107	0.131867
H119	H	1.085219	-0.212654	-0.844324
H120	H	1.585219	0.287346	-0.344324
F121	F	0.891905	-0.709836	-0.629936
F122	F	1.391905	-0.209836	-0.129936
F123	F	1.084193	-0.550209	-0.331915
F124	F	1.584193	-0.050209	0.168085
H125	H	0.964230	-0.333571	-0.896883
H126	H	1.464230	0.166429	-0.396883
F127	F	1.077782	-0.701889	-0.341998
F128	F	1.577782	-0.201889	0.158002
H129	H	0.932270	-1.030437	-0.567690
H130	H	1.432270	-0.530437	-0.067690
F131	F	0.257773	-0.377463	-0.585608
F132	F	0.757773	0.122537	-0.085608
H133	H	0.731037	-0.388683	-0.602899
H134	H	1.231037	0.111317	-0.102899
H135	H	0.964260	-0.333545	-1.031425
H136	H	1.464260	0.166455	-0.531425
H137	H	0.737970	-0.225199	-0.350042
H138	H	1.237970	0.274801	0.149958
F139	F	0.409453	-0.370976	-0.575535
F140	F	0.909453	0.129024	-0.075535
F141	F	0.927038	-0.888426	-0.575664
F142	F	1.427038	-0.388426	-0.075664
F143	F	0.265660	-0.191463	-0.297880
F144	F	0.765660	0.308537	0.202120
F145	F	0.417351	-0.184970	-0.287823
F146	F	0.917351	0.315030	0.212177
H147	H	0.487774	-0.354129	-0.549455
H148	H	0.987774	0.145871	-0.049455
H149	H	1.101267	-0.890143	-0.305762
H150	H	1.601267	-0.390143	0.194238
H151	H	1.095625	-1.023462	-0.314611
H152	H	1.595625	-0.523462	0.185389
H153	H	0.909188	-0.566853	-0.603039
H154	H	1.409188	-0.066853	-0.103039
F155	F	1.072628	-0.770545	-0.350050
F156	F	1.572628	-0.270545	0.149950
H157	H	0.943837	-0.810106	-0.549560
H158	H	1.443837	-0.310106	-0.049560
