data_functionalizedCrystal
_audit_creation_method	'MofGen! by Chris Wilmer'
_symmetry_space_group_name_H-M	'P1'
_symmetry_Int_Tables_number	1
_symmetry_cell_setting	triclinic
loop_
_symmetry_equiv_pos_as_xyz
  x,y,z
_cell_length_a	11.026607
_cell_length_b	17.038272
_cell_length_c	9.482900
_cell_angle_alpha	100.012096
_cell_angle_beta	78.636152
_cell_angle_gamma	99.848786
loop_
_atom_site_label
_atom_site_type_symbol
_atom_site_fract_x
_atom_site_fract_y
_atom_site_fract_z
O1	O	1.662374	0.322506	-0.120910
O2	O	1.305163	0.284676	-0.120910
O3	O	1.481644	0.189477	-0.120899
O4	O	1.485893	0.417705	-0.120922
O5	O	1.445807	0.208914	0.120891
O6	O	1.269325	0.304112	0.120880
O7	O	1.626537	0.341943	0.120880
Cu8	Cu	1.444659	0.324802	0.142957
Cu9	Cu	1.487041	0.301816	-0.142988
O10	O	1.450056	0.437141	0.120868
C11	C	1.241313	0.287415	-0.000015
C12	C	1.104451	0.266610	-0.000015
C13	C	1.036577	0.324055	-0.000022
C14	C	0.895123	0.302554	-0.000021
C15	C	1.459863	0.169523	-0.000004
C16	C	1.448341	0.081107	-0.000004
C17	C	1.554125	0.045899	-0.000003
C18	C	1.543294	-0.037179	-0.000016
C19	C	1.426676	-0.085048	-0.000021
C20	C	1.320885	-0.049835	-0.000027
C21	C	1.331719	0.033241	-0.000024
C22	C	1.388403	-0.336201	-0.000041
C23	C	1.377576	-0.419281	-0.000040
C24	C	1.599987	-0.406621	-0.000032
C25	C	1.610809	-0.323543	-0.000020
C26	C	1.505019	-0.288338	-0.000034
C27	C	1.415602	-0.169967	-0.000031
C28	C	1.516096	-0.203421	-0.000034
C29	C	1.690388	0.339203	-0.000018
C30	C	1.827251	0.360008	-0.000028
C31	C	1.471837	0.457095	-0.000030
C32	C	1.483360	0.545511	-0.000039
N33	N	1.414859	0.340969	0.344075
N34	N	1.516850	0.285644	-0.344106
C35	C	1.478242	0.306580	0.416279
C36	C	1.453458	0.320039	0.583695
H37	H	1.649086	0.084868	0.000010
O38	O	1.613036	0.233435	0.573631
H39	H	1.617414	0.231056	0.455046
H40	H	0.873856	0.425112	-0.000025
O41	O	1.574423	0.254371	0.334018
H42	H	1.547767	0.192652	0.363173
O43	O	0.833402	0.216314	-0.000004
H44	H	0.789760	0.196168	-0.098556
O45	O	1.657384	-0.075155	0.000009
H46	H	1.740291	-0.027910	0.000040
H47	H	1.282604	-0.458253	-0.000021
O48	O	1.042725	0.180374	-0.000006
H49	H	0.941309	0.177018	-0.000016
O50	O	1.736594	-0.271916	-0.000050
H51	H	1.808338	-0.310358	-0.000073
O52	O	1.714087	-0.444590	-0.000027
H53	H	1.686969	-0.510401	-0.000040
H54	H	1.302261	-0.307547	-0.000052
O55	O	1.357285	0.372252	0.665983
H56	H	1.383933	0.433972	0.636831
O57	O	1.195098	-0.101457	-0.000017
H58	H	1.205330	-0.165139	0.000002
O59	O	1.217624	0.071223	-0.000010
H60	H	1.134709	0.023984	0.000003
O61	O	1.318676	0.393174	0.426348
H62	H	1.314311	0.395559	0.544932
H63	H	1.320650	-0.208950	-0.000032
O64	O	1.098302	0.410291	-0.000029
H65	H	1.199721	0.413646	-0.000037
O66	O	1.641879	-0.151801	-0.000035
H67	H	1.637522	-0.105734	0.098521
