data_functionalizedCrystal
_audit_creation_method	'MofGen! by Chris Wilmer'
_symmetry_space_group_name_H-M	'P1'
_symmetry_Int_Tables_number	1
_symmetry_cell_setting	triclinic
loop_
_symmetry_equiv_pos_as_xyz
  x,y,z
_cell_length_a	13.897449
_cell_length_b	13.897441
_cell_length_c	19.805405
_cell_angle_alpha	90.034881
_cell_angle_beta	89.972763
_cell_angle_gamma	89.976606
loop_
_atom_site_label
_atom_site_type_symbol
_atom_site_fract_x
_atom_site_fract_y
_atom_site_fract_z
Zn1	Zn	1.474644	-0.545421	0.269427
Zn2	Zn	1.974644	-0.045421	0.769427
Zn3	Zn	1.474514	-0.384110	0.382626
Zn4	Zn	1.974514	0.115890	0.882626
Zn5	Zn	1.313333	-0.384132	0.269458
Zn6	Zn	1.813333	0.115868	0.769458
Zn7	Zn	1.313291	-0.545355	0.382581
Zn8	Zn	1.813291	-0.045355	0.882581
O9	O	1.393945	-0.464755	0.326023
O10	O	1.893945	0.035245	0.826023
O11	O	1.609608	-0.524041	0.284449
O12	O	2.109608	-0.024041	0.784449
O13	O	1.453096	-0.249131	0.367646
O14	O	1.953096	0.250869	0.867646
O15	O	1.334804	-0.405564	0.174737
O16	O	1.834804	0.094436	0.674737
O17	O	1.609513	-0.405527	0.367616
O18	O	2.109513	0.094473	0.867616
O19	O	1.453319	-0.524062	0.174714
O20	O	1.953319	-0.024062	0.674714
O21	O	1.334678	-0.249147	0.284502
O22	O	1.834678	0.250853	0.784502
O23	O	1.178346	-0.405500	0.284458
O24	O	1.678346	0.094500	0.784458
O25	O	1.334731	-0.680346	0.367538
O26	O	1.834731	-0.180346	0.867538
O27	O	1.178315	-0.523950	0.367569
O28	O	1.678315	-0.023950	0.867569
O29	O	1.453277	-0.680394	0.284405
O30	O	1.953277	-0.180394	0.784405
O31	O	1.453055	-0.405463	0.477337
O32	O	1.953055	0.094537	0.977337
O33	O	1.334605	-0.523929	0.477303
O34	O	1.834605	-0.023929	0.977303
C35	C	1.143331	-0.464721	0.326012
C36	C	1.643331	0.035279	0.826012
C37	C	1.036117	-0.464729	0.326024
C38	C	1.536117	0.035271	0.826024
C39	C	0.949047	-0.464746	0.326027
C40	C	1.449047	0.035254	0.826027
C41	C	0.839815	-0.464775	0.326031
C42	C	1.339815	0.035225	0.826031
C43	C	1.394014	-0.716348	0.325963
C44	C	1.894014	-0.216348	0.825963
C45	C	1.394043	-0.823562	0.325938
C46	C	1.894043	-0.323562	0.825938
C47	C	1.394069	-1.019857	0.325892
C48	C	1.894069	-0.519857	0.825892
C49	C	1.394052	-0.910624	0.325919
C50	C	1.894052	-0.410624	0.825919
C51	C	1.645538	-0.464789	0.326034
C52	C	2.145538	0.035211	0.826034
C53	C	1.752752	-0.464804	0.326038
C54	C	2.252752	0.035196	0.826038
C55	C	1.393837	-0.464708	0.501879
C56	C	1.893837	0.035292	1.001879
C57	C	1.393879	-0.464720	0.577111
C58	C	1.893879	0.035280	1.077111
C59	C	1.393933	-0.214140	0.326034
C60	C	1.893933	0.285860	0.826034
C61	C	1.394091	-0.106927	0.325868
C62	C	1.894091	0.393073	0.825868
C63	C	1.394081	-0.464823	0.149480
C64	C	1.894081	0.035177	0.649480
C65	C	1.394138	-0.464852	0.074248
C66	C	1.894138	0.035148	0.574248
C67	C	1.455615	-0.403100	0.612450
C68	C	1.955615	0.096900	1.112450
C69	C	1.455656	-0.403121	0.683138
C70	C	1.955656	0.096879	1.183138
C71	C	1.393955	-0.464759	0.718486
C72	C	1.893955	0.035241	1.218486
C73	C	1.332216	-0.526386	0.683142
C74	C	1.832216	-0.026386	1.183142
C75	C	1.332180	-0.526369	0.612455
C76	C	1.832180	-0.026369	1.112455
C77	C	1.332358	-0.526458	0.968216
C78	C	1.832358	-0.026458	1.468216
C79	C	1.332396	-0.526468	1.038908
C80	C	1.832396	-0.026468	1.538908
C81	C	1.455834	-0.403210	1.038899
C82	C	1.955834	0.096790	1.538899
C83	C	1.455799	-0.403192	0.968212
C84	C	1.955799	0.096808	1.468212
C85	C	1.394063	-0.464823	0.932874
C86	C	1.894063	0.035177	1.432874
C87	C	1.394021	-0.464800	0.856225
C88	C	1.894021	0.035200	1.356225
C89	C	1.393992	-0.464777	0.795134
C90	C	1.893992	0.035223	1.295134
H91	H	1.505856	-0.352903	0.583674
H92	H	2.005856	0.147097	1.083674
C93	C	1.265049	-0.593313	0.574207
C94	C	1.765049	-0.093313	1.074207
C95	C	1.211004	-0.647281	0.620290
C96	C	1.711004	-0.147281	1.120290
C97	C	1.149148	-0.708958	0.585082
C98	C	1.649148	-0.208958	1.085082
H99	H	1.301810	-0.635452	0.546587
H100	H	1.801810	-0.135452	1.046587
H101	H	1.222973	-0.556395	0.546688
H102	H	1.722973	-0.056395	1.046688
H103	H	1.253075	-0.684196	0.647798
H104	H	1.753075	-0.184196	1.147798
H105	H	1.174223	-0.605167	0.647911
H106	H	1.674223	-0.105167	1.147911
H107	H	1.107072	-0.672040	0.557563
H108	H	1.607072	-0.172040	1.057563
H109	H	1.185917	-0.751091	0.557464
H110	H	1.685917	-0.251091	1.057464
H111	H	1.112465	-0.745576	0.616344
H112	H	1.612465	-0.245576	1.116344
H113	H	1.282152	-0.576668	1.067686
H114	H	1.782152	-0.076668	1.567686
C115	C	1.522684	-0.336307	0.929712
C116	C	2.022684	0.163693	1.429712
C117	C	1.509421	-0.349464	0.860244
C118	C	2.009421	0.150536	1.360244
C119	C	1.571013	-0.287858	0.824758
C120	C	2.071013	0.212142	1.324758
H121	H	1.587532	-0.350427	0.941169
H122	H	2.087532	0.149573	1.441169
H123	H	1.508600	-0.271465	0.941301
H124	H	2.008600	0.228535	1.441301
H125	H	1.523513	-0.414291	0.848660
H126	H	2.023513	0.085709	1.348660
H127	H	1.444586	-0.335337	0.848767
H128	H	1.944586	0.164663	1.348767
H129	H	1.556929	-0.223016	0.836347
H130	H	2.056929	0.276984	1.336347
H131	H	1.635857	-0.301983	0.836221
H132	H	2.135857	0.198017	1.336221
H133	H	1.562017	-0.296770	0.777621
H134	H	2.062017	0.203230	1.277621
H135	H	1.506106	-0.353030	1.067679
H136	H	2.006106	0.146970	1.567679
H137	H	1.282089	-0.576638	0.939449
H138	H	1.782089	-0.076638	1.439449
C139	C	1.265260	-0.593203	0.721640
C140	C	1.765260	-0.093203	1.221640
C141	C	1.278483	-0.580011	0.791109
C142	C	1.778483	-0.080011	1.291109
C143	C	1.216807	-0.641535	0.826593
C144	C	1.716807	-0.141535	1.326593
H145	H	1.279274	-0.658064	0.710095
H146	H	1.779274	-0.158064	1.210095
H147	H	1.200432	-0.579012	0.710138
H148	H	1.700432	-0.079012	1.210138
H149	H	1.343296	-0.594209	0.802607
H150	H	1.843296	-0.094209	1.302607
H151	H	1.264462	-0.515163	0.802674
H152	H	1.764462	-0.015163	1.302674
H153	H	1.151978	-0.627344	0.815091
H154	H	1.651978	-0.127344	1.315091
H155	H	1.230826	-0.706392	0.815042
H156	H	1.730826	-0.206392	1.315042
H157	H	1.225764	-0.632586	0.873731
H158	H	1.725764	-0.132586	1.373731
C159	C	1.522719	-0.336108	0.721384
C160	C	2.022719	0.163892	1.221384
C161	C	1.576723	-0.282102	0.675299
C162	C	2.076723	0.217898	1.175299
C163	C	1.638505	-0.220349	0.710506
C164	C	2.138505	0.279651	1.210506
H165	H	1.564831	-0.372942	0.748916
H166	H	2.064831	0.127058	1.248916
H167	H	1.485876	-0.294003	0.748990
H168	H	1.985876	0.205997	1.248990
H169	H	1.613564	-0.324202	0.647704
H170	H	2.113564	0.175798	1.147704
H171	H	1.534636	-0.245249	0.647765
H172	H	2.034636	0.254751	1.147765
H173	H	1.601662	-0.178244	0.738112
H174	H	2.101662	0.321756	1.238112
H175	H	1.680611	-0.257191	0.738036
H176	H	2.180611	0.242809	1.238036
H177	H	1.675148	-0.183693	0.679242
H178	H	2.175148	0.316307	1.179242
