data_functionalizedCrystal
_audit_creation_method	'MofGen! by Chris Wilmer'
_symmetry_space_group_name_H-M	'P1'
_symmetry_Int_Tables_number	1
_symmetry_cell_setting	triclinic
loop_
_symmetry_equiv_pos_as_xyz
  x,y,z
_cell_length_a	10.540539
_cell_length_b	22.010155
_cell_length_c	10.540514
_cell_angle_alpha	89.992541
_cell_angle_beta	84.520326
_cell_angle_gamma	90.006485
loop_
_atom_site_label
_atom_site_type_symbol
_atom_site_fract_x
_atom_site_fract_y
_atom_site_fract_z
O1	O	1.685880	0.050492	0.178885
O2	O	1.316466	0.050499	0.195741
O3	O	1.509618	0.050496	0.002604
O4	O	1.492728	0.050495	0.372021
O5	O	1.509582	-0.050554	0.002633
O6	O	1.316431	-0.050551	0.195770
O7	O	1.685845	-0.050558	0.178914
Cu8	Cu	1.501135	-0.059782	0.187344
Cu9	Cu	1.501176	0.059722	0.187310
O10	O	1.492693	-0.050556	0.372050
C11	C	1.269145	-0.000025	0.194491
C12	C	1.128197	-0.000022	0.190709
N13	N	1.501115	-0.143834	0.187368
C14	C	0.944784	-0.000258	0.045791
C15	C	1.091402	-0.000024	0.049624
C16	C	1.066539	0.057680	0.258589
C17	C	0.919995	0.057722	0.253774
C18	C	0.919466	-0.057191	0.256677
C19	C	1.066448	-0.057948	0.257977
C20	C	1.586709	-0.563615	0.101802
C21	C	1.586715	-0.627222	0.101793
O22	O	1.659439	-0.660115	0.029058
N23	N	1.501175	-0.659041	0.187284
C24	C	1.415615	-0.627249	0.272780
O25	O	1.342857	-0.660154	0.345495
C26	C	1.415604	-0.563643	0.272781
C27	C	1.501158	-0.531827	0.187294
C28	C	1.672255	-0.531799	0.016320
C29	C	1.672250	-0.468196	0.016331
C30	C	1.586700	-0.436408	0.101823
C31	C	1.501154	-0.468224	0.187304
C32	C	1.330040	-0.531852	0.358270
C33	C	1.330035	-0.468241	0.358264
C34	C	1.415589	-0.436426	0.272776
C35	C	1.415599	-0.372833	0.272807
N36	N	1.501138	-0.341014	0.187317
C37	C	1.586689	-0.372802	0.101824
C38	C	1.415643	-0.760827	0.272769
C39	C	1.415659	-0.824432	0.272774
C40	C	1.586758	-0.824401	0.101786
C41	C	1.586747	-0.760795	0.101787
C42	C	1.501183	-0.729008	0.187278
C43	C	1.586674	-0.239231	0.101854
C44	C	1.586665	-0.175622	0.101876
C45	C	1.415563	-0.175658	0.272859
C46	C	1.415576	-0.239262	0.272843
C47	C	1.501136	-0.271046	0.187329
O48	O	1.342908	-0.339900	0.345502
O49	O	1.659424	-0.339889	0.029111
C50	C	1.733166	-0.000033	0.180163
C51	C	1.874113	-0.000032	0.183945
C52	C	1.508340	-0.000028	-0.044685
C53	C	1.504571	-0.000023	-0.185634
N54	N	1.501206	0.143775	0.187277
C55	C	1.642711	-0.000027	-0.256340
C56	C	1.638837	-0.000261	-0.402953
C57	C	1.429424	-0.057619	-0.377953
C58	C	1.434278	-0.057663	-0.231414
C59	C	1.432273	0.057254	-0.231048
C60	C	1.430941	0.058007	-0.378028
C61	C	1.493970	-0.000031	0.419339
C62	C	1.497740	-0.000031	0.560289
H63	H	1.134006	-0.041387	-0.003787
Cl64	Cl	1.308019	-0.135687	0.380332
H65	H	1.345970	-0.734950	0.342396
Cl66	Cl	1.721789	0.063459	-0.468858
H67	H	1.332803	-0.060117	-0.183407
H68	H	1.090663	-0.061432	0.360838
H69	H	1.698756	0.041269	-0.227831
H70	H	0.916189	-0.041639	-0.009934
H71	H	1.741912	-0.442295	-0.053284
H72	H	1.480866	0.100611	-0.419037
H73	H	1.476267	-0.100642	-0.420498
H74	H	1.346007	-0.850332	0.342399
H75	H	1.345922	-0.265167	0.342467
Cl76	Cl	1.272204	0.063688	-0.415503
Cl77	Cl	1.132314	0.123984	0.185753
H78	H	1.133166	0.041412	-0.004187
H79	H	0.914596	0.040894	-0.009722
H80	H	1.260373	-0.557747	0.427881
Cl81	Cl	0.876465	0.124315	0.176277
Cl82	Cl	1.101073	0.061010	0.418540
Cl83	Cl	0.845915	0.061766	0.410423
H84	H	1.484142	-0.100878	-0.203175
Cl85	Cl	1.274960	0.058117	-0.158090
H86	H	0.887909	-0.100929	0.211031
H87	H	1.697954	-0.041235	-0.226010
Cl88	Cl	1.129515	-0.123855	0.181288
Cl89	Cl	1.222460	-0.428286	0.465744
H90	H	1.692309	-0.041787	-0.444671
H91	H	1.478270	0.100918	-0.199565
H92	H	0.872230	-0.057582	0.358582
H93	H	1.656338	-0.149719	0.032261
H94	H	1.656343	-0.265102	0.032220
H95	H	1.741920	-0.557675	-0.053304
Cl96	Cl	1.694304	-0.864376	-0.005693
Cl97	Cl	1.694301	-0.720805	-0.005690
Cl98	Cl	1.269421	-0.060675	-0.412399
