data_functionalizedCrystal
_audit_creation_method	'MofGen! by Chris Wilmer'
_symmetry_space_group_name_H-M	'P1'
_symmetry_Int_Tables_number	1
_symmetry_cell_setting	triclinic
loop_
_symmetry_equiv_pos_as_xyz
  x,y,z
_cell_length_a	12.827893
_cell_length_b	14.908520
_cell_length_c	12.827885
_cell_angle_alpha	93.263516
_cell_angle_beta	89.980918
_cell_angle_gamma	93.320754
loop_
_atom_site_label
_atom_site_type_symbol
_atom_site_fract_x
_atom_site_fract_y
_atom_site_fract_z
Zn1	Zn	1.573615	-0.359110	-0.614811
Zn2	Zn	2.073615	0.140890	-0.114811
Zn3	Zn	1.563402	-0.509994	-0.450142
Zn4	Zn	2.063402	-0.009994	0.049858
Zn5	Zn	1.398853	-0.359155	-0.440088
Zn6	Zn	1.898853	0.140845	0.059912
Zn7	Zn	1.388739	-0.509927	-0.624838
Zn8	Zn	1.888739	-0.009927	-0.124838
O9	O	1.481152	-0.434546	-0.532470
O10	O	1.981152	0.065454	-0.032470
O11	O	1.718496	-0.379134	-0.592978
O12	O	2.218496	0.120866	-0.092978
O13	O	1.541533	-0.490031	-0.302575
O14	O	2.041533	0.009969	0.197425
O15	O	1.430543	-0.232904	-0.454862
O16	O	1.930543	0.267096	0.045138
O17	O	1.710992	-0.489988	-0.471996
O18	O	2.210992	0.010012	0.028004
O19	O	1.558939	-0.232872	-0.583230
O20	O	2.058939	0.267128	-0.083230
O21	O	1.420640	-0.379210	-0.295189
O22	O	1.920640	0.120790	0.204811
O23	O	1.251276	-0.379146	-0.464584
O24	O	1.751276	0.120854	0.035416
O25	O	1.413305	-0.489875	-0.769741
O26	O	1.913305	0.010125	-0.269741
O27	O	1.243845	-0.489918	-0.600319
O28	O	1.743845	0.010082	-0.100319
O29	O	1.549132	-0.379070	-0.762374
O30	O	2.049132	0.120930	-0.262374
O31	O	1.531726	-0.636229	-0.481719
O32	O	2.031726	-0.136229	0.018281
O33	O	1.403402	-0.636180	-0.610067
O34	O	1.903402	-0.136180	-0.110067
C35	C	1.209644	-0.434530	-0.532449
C36	C	1.709644	0.065470	-0.032449
C37	C	1.093489	-0.434544	-0.532467
C38	C	1.593489	0.065456	-0.032467
C39	C	0.918004	-0.489457	-0.599557
C40	C	1.418004	0.010543	-0.099557
C41	C	1.038056	-0.489444	-0.599541
C42	C	1.538056	0.010556	-0.099541
C43	C	1.465386	-0.668939	-0.548095
C44	C	1.965386	-0.168939	-0.048095
C45	C	1.458737	-0.769212	-0.554814
C46	C	1.958737	-0.269212	-0.054814
C47	C	1.580004	-0.957628	-0.433900
C48	C	2.080004	-0.457628	0.066100
C49	C	1.573760	-1.051844	-0.440210
C50	C	2.073760	-0.551844	0.059790
C51	C	1.440012	-1.051863	-0.573750
C52	C	1.940012	-0.551863	-0.073750
C53	C	1.446255	-0.957647	-0.567439
C54	C	1.946255	-0.457647	-0.067439
C55	C	1.516253	-0.910532	-0.497511
C56	C	2.016253	-0.410532	0.002489
C57	C	1.522491	-0.816314	-0.491196
C58	C	2.022491	-0.316314	0.008804
C59	C	1.388748	-0.816335	-0.624741
C60	C	1.888748	-0.316335	-0.124741
C61	C	1.382504	-0.910551	-0.631051
C62	C	1.882504	-0.410551	-0.131051
C63	C	1.753721	-0.434564	-0.532490
C64	C	2.253721	0.065436	-0.032490
C65	C	1.869874	-0.434571	-0.532499
C66	C	2.369874	0.065429	-0.032499
C67	C	1.481229	-0.434460	-0.805034
C68	C	1.981229	0.065540	-0.305034
C69	C	1.481262	-0.434423	-0.921185
C70	C	1.981262	0.065577	-0.421185
C71	C	1.497008	-0.199239	-0.516806
C72	C	1.997008	0.300761	-0.016806
C73	C	1.503765	-0.098965	-0.510131
C74	C	2.003765	0.401035	-0.010131
C75	C	1.548481	-0.379582	-0.969324
C76	C	2.048481	0.120418	-0.469324
C77	C	1.548517	-0.379543	-1.089372
C78	C	2.048517	0.120457	-0.589372
C79	C	1.481140	-0.434568	-0.260961
C80	C	1.981140	0.065432	0.239039
C81	C	1.481327	-0.434350	-0.144794
C82	C	1.981327	0.065650	0.355206
H83	H	1.079461	-0.536429	-0.656956
H84	H	1.579461	-0.036429	-0.156956
F85	F	0.932178	-0.373140	-0.457435
F86	F	1.432178	0.126860	0.042565
F87	F	1.039381	-0.373116	-0.457426
F88	F	1.539381	0.126884	0.042574
H89	H	1.579484	-0.777955	-0.434254
H90	H	2.079484	-0.277955	0.065746
H91	H	1.606069	-0.332595	-1.130784
H92	H	2.106069	0.167405	-0.630784
F93	F	1.654486	-0.907483	-0.359465
F94	F	2.154486	-0.407483	0.140535
F95	F	1.406105	-0.495728	-1.090676
F96	F	1.906105	0.004272	-0.590676
H97	H	1.423733	-0.481339	-0.968846
H98	H	1.923733	0.018661	-0.468846
F99	F	0.855699	-0.550904	-0.674604
F100	F	1.355699	-0.050904	-0.174604
F101	F	1.365533	-1.102021	-0.648178
F102	F	1.865533	-0.602021	-0.148178
F103	F	1.641615	-1.101963	-0.372508
F104	F	2.141615	-0.601963	0.127492
H105	H	1.336834	-0.777979	-0.676534
H106	H	1.836834	-0.277979	-0.176534
F107	F	1.623651	-0.318232	-0.907031
F108	F	2.123651	0.181768	-0.407031
F109	F	1.308016	-0.960704	-0.705473
F110	F	1.808016	-0.460704	-0.205473
