data_functionalizedCrystal
_audit_creation_method	'MofGen! by Chris Wilmer'
_symmetry_space_group_name_H-M	'P1'
_symmetry_Int_Tables_number	1
_symmetry_cell_setting	triclinic
loop_
_symmetry_equiv_pos_as_xyz
  x,y,z
_cell_length_a	10.540539
_cell_length_b	17.038272
_cell_length_c	9.616153
_cell_angle_alpha	89.997688
_cell_angle_beta	89.995174
_cell_angle_gamma	87.818524
loop_
_atom_site_label
_atom_site_type_symbol
_atom_site_fract_x
_atom_site_fract_y
_atom_site_fract_z
O1	O	1.696176	0.110247	-0.115581
O2	O	1.327732	0.120634	-0.115599
O3	O	1.509764	0.001613	-0.115579
O4	O	1.514144	0.229269	-0.115601
O5	O	1.509738	0.001615	0.115712
O6	O	1.327705	0.120637	0.115693
O7	O	1.696149	0.110249	0.115710
Zn8	Zn	1.511923	0.115443	0.152424
Zn9	Zn	1.511958	0.115440	-0.152313
O10	O	1.514117	0.229271	0.115690
C11	C	1.280343	0.119857	0.000045
C12	C	1.139177	0.117526	0.000039
C13	C	1.505768	-0.027537	0.000066
C14	C	1.493883	-0.114398	0.000065
C15	C	0.947420	0.028219	0.000587
C16	C	1.094259	0.030581	0.000051
C17	C	1.081423	0.159366	-0.132039
C18	C	0.934602	0.156399	-0.132135
C19	C	0.934248	0.158170	0.130886
C20	C	1.081305	0.158971	0.132618
C21	C	1.602994	-0.163886	0.000072
C22	C	1.591820	-0.245501	0.000058
C23	C	1.471534	-0.277626	0.000048
C24	C	1.362416	-0.228133	0.000037
C25	C	1.373591	-0.146519	0.000041
C26	C	1.432055	-0.523611	0.000027
C27	C	1.420888	-0.605231	0.000027
C28	C	1.650293	-0.622593	0.000046
C29	C	1.661457	-0.540977	0.000058
C30	C	1.552339	-0.491491	0.000040
C31	C	1.460110	-0.361050	0.000038
C32	C	1.563764	-0.408069	0.000040
C33	C	1.743538	0.111027	0.000063
C34	C	1.884704	0.113358	0.000061
C35	C	1.518114	0.258421	0.000042
C36	C	1.529998	0.345282	0.000034
N37	N	1.511909	0.115445	0.360398
N38	N	1.511982	0.115432	-0.360287
C39	C	1.414198	0.178900	0.580758
C40	C	1.414448	0.179138	0.419590
C41	C	1.646364	0.134015	0.418852
C42	C	1.645842	0.134465	0.580070
C43	C	1.476466	0.033212	0.580316
C44	C	1.473469	0.033745	0.419089
H45	H	1.133791	-0.002340	0.094731
H46	H	1.322932	-0.631384	0.000041
H47	H	0.915620	-0.006128	0.095308
H48	H	1.111443	0.222359	0.140586
C49	C	1.119673	0.245623	-0.138696
N50	N	1.148487	0.310592	-0.143708
C51	C	1.327798	-0.396396	0.000056
N52	N	1.228141	-0.423022	0.000075
C53	C	1.711851	-0.299934	0.000088
N54	N	1.802264	-0.340932	0.000117
H55	H	1.264477	-0.254296	0.000020
H56	H	1.314789	0.167964	0.380072
H57	H	1.314247	0.167898	0.619566
C58	C	1.572654	-0.030608	0.631830
N59	N	1.645105	-0.078671	0.670639
H60	H	1.661700	-0.381909	0.000017
C61	C	1.146497	-0.014207	-0.128074
N62	N	1.185841	-0.047942	-0.224585
H63	H	1.437523	0.239555	0.621252
H64	H	1.721346	0.090100	0.619066
H65	H	1.121311	0.130299	-0.230328
C66	C	0.888082	0.120154	0.266137
N67	N	0.853312	0.091510	0.368001
C68	C	1.770314	-0.677034	0.000053
N69	N	1.860720	-0.718040	0.000051
C70	C	1.446324	0.261546	0.367458
N71	N	1.470341	0.323619	0.328194
C72	C	0.878356	0.243008	0.132088
N73	N	0.836250	0.306905	0.132984
C74	C	1.253561	-0.092083	0.000037
N75	N	1.163150	-0.051082	0.000030
C76	C	0.892607	0.114611	-0.265498
N77	N	0.860983	0.083133	-0.365947
C78	C	1.735318	-0.128556	0.000083
N79	N	1.834988	-0.101948	0.000086
C80	C	1.747502	0.073273	0.367048
N81	N	1.823678	0.027520	0.328026
C82	C	0.902297	-0.017997	-0.126638
N83	N	0.868305	-0.052805	-0.222464
C84	C	1.687468	0.214143	0.364300
N85	N	1.718418	0.274500	0.323219
C86	C	0.877675	0.240870	-0.140271
N87	N	0.834803	0.304493	-0.146414
C88	C	1.132725	0.117655	0.264622
N89	N	1.171452	0.086528	0.364046
C90	C	1.686278	0.215508	0.630847
N91	N	1.716726	0.276553	0.669085
C92	C	1.346226	0.009351	0.635295
N93	N	1.248124	-0.008611	0.676705
C94	C	1.793780	-0.505646	0.000071
N95	N	1.893448	-0.479034	0.000086
C96	C	1.339785	0.014730	0.367488
N97	N	1.239093	0.000411	0.328616
C98	C	1.562530	-0.033126	0.364693
N99	N	1.629630	-0.083490	0.323734
H100	H	1.343202	-0.483328	0.000013
