data_functionalizedCrystal
_audit_creation_method	'MofGen! by Chris Wilmer'
_symmetry_space_group_name_H-M	'P1'
_symmetry_Int_Tables_number	1
_symmetry_cell_setting	triclinic
loop_
_symmetry_equiv_pos_as_xyz
  x,y,z
_cell_length_a	18.101398
_cell_length_b	12.594516
_cell_length_c	12.594509
_cell_angle_alpha	89.973801
_cell_angle_beta	89.973660
_cell_angle_gamma	90.011320
loop_
_atom_site_label
_atom_site_type_symbol
_atom_site_fract_x
_atom_site_fract_y
_atom_site_fract_z
Zn1	Zn	1.132213	-0.423844	-0.602017
Zn2	Zn	1.132137	-0.601855	-0.424045
Zn3	Zn	1.008368	-0.423876	-0.424031
Zn4	Zn	1.008355	-0.601767	-0.601960
O5	O	1.070268	-0.512835	-0.513013
O6	O	1.235836	-0.447481	-0.578439
O7	O	1.115692	-0.578295	-0.275097
O8	O	1.024833	-0.274926	-0.447659
O9	O	1.235780	-0.578265	-0.447684
O10	O	1.115822	-0.274903	-0.578425
O11	O	1.024759	-0.447535	-0.275087
O12	O	0.904733	-0.447450	-0.447603
O13	O	1.024812	-0.578115	-0.750913
O14	O	0.904724	-0.578145	-0.578327
O15	O	1.115810	-0.447396	-0.750956
O16	O	1.115680	-0.750789	-0.447628
O17	O	1.024738	-0.750724	-0.578341
C18	C	0.877858	-0.512792	-0.512958
C19	C	0.795544	-0.512799	-0.512959
C20	C	0.496453	-0.512866	-0.513049
C21	C	0.527759	-0.430224	-0.431202
C22	C	0.613377	-0.430446	-0.430853
C23	C	0.644835	-0.512832	-0.513004
C24	C	0.613737	-0.624956	-0.482367
C25	C	0.528092	-0.624496	-0.481798
C26	C	0.528065	-0.484358	-0.625725
C27	C	0.613715	-0.481861	-0.625110
C28	C	0.728695	-0.512820	-0.512981
C29	C	0.412593	-0.512885	-0.513069
C30	C	1.070220	-0.789376	-0.513003
C31	C	1.070267	-0.907682	-0.513034
C32	C	1.020799	-0.976938	-0.584079
C33	C	1.002755	-1.047802	-0.486953
C34	C	1.088378	-1.047617	-0.610176
C35	C	1.052187	-0.976987	-0.415857
C36	C	1.137842	-0.976796	-0.539145
C37	C	1.119824	-1.047628	-0.441953
C38	C	1.263430	-0.512879	-0.513070
C39	C	1.345744	-0.512898	-0.513094
C40	C	1.070318	-0.512742	-0.790634
C41	C	1.070339	-0.512702	-0.908940
C42	C	1.070337	-0.235214	-0.513047
C43	C	1.070367	-0.116909	-0.513061
C44	C	1.020861	-0.583760	-0.978170
C45	C	1.088435	-0.609774	-1.048970
C46	C	1.002818	-0.486624	-1.048939
C47	C	1.137949	-0.538768	-0.978181
C48	C	1.052286	-0.415572	-0.978145
C49	C	1.119906	-0.441550	-1.048912
C50	C	1.070262	-0.512851	-0.236472
C51	C	1.070384	-0.512591	-0.118167
H52	H	0.633832	-0.449293	-0.347361
H53	H	1.036843	-0.946089	-0.333694
O54	O	1.175414	-0.361883	-1.089802
H55	H	1.174704	-0.361907	-1.177924
H56	H	0.508082	-0.648672	-0.399427
O57	O	0.499485	-0.377935	-0.662629
H58	H	0.438278	-0.380501	-0.667245
H59	H	1.036972	-0.333503	-0.947011
H60	H	0.634045	-0.399350	-0.648211
O61	O	0.965481	-0.663477	-0.937018
H62	H	0.923219	-0.621933	-0.888528
H63	H	0.945697	-0.464613	-1.080021
H64	H	1.161700	-1.078470	-0.381815
O65	O	0.642055	-0.555801	-0.710219
H66	H	0.678926	-0.616049	-0.673782
H67	H	0.634403	-0.347302	-0.450055
H68	H	0.635154	-0.649550	-0.400885
H69	H	0.507821	-0.544550	-0.686708
H70	H	0.507174	-0.346826	-0.450193
O71	O	1.213546	-0.935686	-0.568305
H72	H	1.228447	-0.964009	-0.648960
H73	H	0.506211	-0.448858	-0.348196
H74	H	0.978890	-0.945899	-0.644072
O75	O	1.108623	-1.088712	-0.718978
H76	H	1.067429	-1.060399	-0.777779
H77	H	1.103729	-0.691867	-1.080079
H78	H	0.507383	-0.688156	-0.538813
H79	H	0.945654	-1.079014	-0.464891
H80	H	1.195086	-0.560872	-0.947230
H81	H	0.634114	-0.688180	-0.540115
