data_functionalizedCrystal
_audit_creation_method	'MofGen! by Chris Wilmer'
_symmetry_space_group_name_H-M	'P1'
_symmetry_Int_Tables_number	1
_symmetry_cell_setting	triclinic
loop_
_symmetry_equiv_pos_as_xyz
  x,y,z
_cell_length_a	10.654550
_cell_length_b	17.766277
_cell_length_c	10.654550
_cell_angle_alpha	90.006164
_cell_angle_beta	84.484931
_cell_angle_gamma	90.006102
loop_
_atom_site_label
_atom_site_type_symbol
_atom_site_fract_x
_atom_site_fract_y
_atom_site_fract_z
O1	O	1.667850	0.062538	0.176401
O2	O	1.302371	0.062552	0.193207
O3	O	1.493514	0.062540	0.002065
O4	O	1.476708	0.062550	0.367543
O5	O	1.493480	-0.062649	0.002055
O6	O	1.302337	-0.062637	0.193197
O7	O	1.667816	-0.062651	0.176391
Cu8	Cu	1.485074	-0.074074	0.184793
Cu9	Cu	1.485114	0.073975	0.184805
O10	O	1.476674	-0.062639	0.367533
C11	C	1.255556	-0.000041	0.191968
C12	C	1.116113	-0.000036	0.188276
N13	N	1.485054	-0.178205	0.184784
C14	C	1.036628	-0.000035	0.300818
C15	C	0.905607	-0.000048	0.297341
C16	C	0.933570	-0.000060	0.068772
C17	C	1.064588	-0.000052	0.072250
C18	C	1.569720	-0.217597	0.100188
C19	C	1.569727	-0.296399	0.100182
C20	C	1.485081	-0.335805	0.184794
C21	C	1.400399	-0.296404	0.269396
C22	C	1.400386	-0.217603	0.269391
C23	C	1.469622	-0.460640	0.299032
C24	C	1.469644	-0.539439	0.299039
C25	C	1.485115	-0.578852	0.184810
C26	C	1.500590	-0.539456	0.070569
C27	C	1.500577	-0.460656	0.070563
C28	C	1.485085	-0.421251	0.184809
C29	C	1.569793	-0.703690	0.100201
C30	C	1.569791	-0.782493	0.100193
C31	C	1.400469	-0.782496	0.269418
C32	C	1.400465	-0.703695	0.269414
C33	C	1.485133	-0.664296	0.184807
C34	C	1.714631	-0.000057	0.177630
C35	C	1.854074	-0.000057	0.181322
C36	C	1.492263	-0.000054	-0.044738
C37	C	1.488571	-0.000053	-0.184181
N38	N	1.485143	0.178106	0.184804
C39	C	1.601112	-0.000057	-0.263667
C40	C	1.597636	-0.000048	-0.394688
C41	C	1.369066	-0.000033	-0.366725
C42	C	1.372544	-0.000037	-0.235706
C43	C	1.477925	-0.000043	0.414336
C44	C	1.481616	-0.000040	0.553779
H45	H	1.078574	-0.000027	0.395294
H46	H	1.513174	-0.428583	-0.022455
H47	H	1.331527	-0.671619	0.338305
H48	H	1.695588	-0.000068	-0.221720
H49	H	1.638659	-0.185521	0.031293
O50	O	1.318122	-0.334764	0.351416
C51	C	1.240055	-0.380349	0.283434
H52	H	1.289228	-0.392156	0.185623
H53	H	1.220653	-0.435760	0.335675
H54	H	1.147157	-0.349995	0.274034
H55	H	1.274601	-0.000022	-0.408693
O56	O	1.454544	-0.577587	0.410117
C57	C	1.440899	-0.525905	0.510938
H58	H	1.406084	-0.469743	0.475874
H59	H	1.369751	-0.548677	0.588425
H60	H	1.535824	-0.517506	0.550042
H61	H	1.280893	-0.000032	-0.170985
O62	O	1.318097	-0.179451	0.351698
C63	C	1.243357	-0.231125	0.426355
H64	H	1.294862	-0.287292	0.428254
H65	H	1.225064	-0.208351	0.526476
H66	H	1.149712	-0.239517	0.384706
O67	O	1.707077	-0.000087	-0.471720
C68	C	1.810223	-0.000081	-0.398141
H69	H	1.779187	-0.023785	-0.300655
H70	H	1.889134	-0.036431	-0.445783
H71	H	1.845755	0.059975	-0.388487
H72	H	0.840894	-0.000049	0.388984
H73	H	0.891602	-0.000078	-0.025693
O74	O	1.141990	-0.000083	-0.036962
C75	C	1.268677	-0.000056	-0.009009
H76	H	1.274549	-0.023752	0.089682
H77	H	1.327404	-0.036401	-0.080673
H78	H	1.306521	0.060005	-0.013433
O79	O	1.652091	-0.334559	0.017951
C80	C	1.726787	-0.282887	-0.056754
H81	H	1.728652	-0.226710	-0.005254
H82	H	1.826915	-0.305649	-0.074983
H83	H	1.685199	-0.274519	-0.150432
O84	O	1.515396	-0.577760	-0.040385
C85	C	1.408725	-0.623366	-0.051508
H86	H	1.324722	-0.599627	0.010320
H87	H	1.386290	-0.624263	-0.153982
H88	H	1.428905	-0.683085	-0.019858
O89	O	1.652072	-0.665529	0.017888
C90	C	1.726817	-0.717200	-0.056771
H91	H	1.675321	-0.773377	-0.058667
H92	H	1.745102	-0.694437	-0.156893
H93	H	1.820465	-0.725569	-0.015126
O94	O	1.652092	-0.820845	0.018185
C95	C	1.730168	-0.866400	0.086177
H96	H	1.680992	-0.878202	0.183986
H97	H	1.749590	-0.921815	0.033943
H98	H	1.823055	-0.836022	0.095581
O99	O	1.318186	-0.820848	0.351437
C100	C	1.240111	-0.866429	0.283456
H101	H	1.289282	-0.878238	0.185644
H102	H	1.220701	-0.921839	0.335696
H103	H	1.147219	-0.836069	0.274056
O104	O	1.454774	-0.422272	0.409926
C105	C	1.561476	-0.376691	0.421047
H106	H	1.610779	-0.364895	0.323290
H107	H	1.530722	-0.321275	0.468420
H108	H	1.629207	-0.407044	0.480423
