data_functionalizedCrystal
_audit_creation_method	'MofGen! by Chris Wilmer'
_symmetry_space_group_name_H-M	'P1'
_symmetry_Int_Tables_number	1
_symmetry_cell_setting	triclinic
loop_
_symmetry_equiv_pos_as_xyz
  x,y,z
_cell_length_a	10.654553
_cell_length_b	14.044190
_cell_length_c	9.130313
_cell_angle_alpha	89.993628
_cell_angle_beta	89.999282
_cell_angle_gamma	88.838977
loop_
_atom_site_label
_atom_site_type_symbol
_atom_site_fract_x
_atom_site_fract_y
_atom_site_fract_z
O1	O	1.681226	0.133242	-0.121834
O2	O	1.317023	0.145932	-0.121835
O3	O	1.493653	0.001566	-0.121806
O4	O	1.504596	0.277608	-0.121864
O5	O	1.493651	0.001570	0.121793
O6	O	1.317021	0.145936	0.121763
O7	O	1.681224	0.133246	0.121764
Cu8	Cu	1.499122	0.139591	0.144006
Cu9	Cu	1.499125	0.139587	-0.144077
O10	O	1.504594	0.277612	0.121735
C11	C	1.270131	0.145002	-0.000036
C12	C	1.130407	0.142212	-0.000035
C13	C	0.933470	0.138276	0.132741
C14	C	1.064755	0.140903	0.132749
C15	C	1.064768	0.140904	-0.132836
C16	C	0.933485	0.138284	-0.132842
C17	C	0.933464	0.138272	0.286075
C18	C	1.064749	0.140898	0.286083
C19	C	1.488865	-0.033778	-0.000002
C20	C	1.474586	-0.139098	0.000010
C21	C	1.549751	-0.388890	-0.000047
C22	C	1.448501	-0.331927	-0.000037
C23	C	1.463018	-0.224627	-0.000011
C24	C	1.535236	-0.496200	-0.000073
C25	C	1.728116	0.134176	-0.000038
C26	C	1.867840	0.136966	-0.000049
C27	C	1.509382	0.312956	-0.000072
C28	C	1.523661	0.418276	-0.000094
N29	N	1.499130	0.139594	0.346629
N30	N	1.499126	0.139576	-0.346700
C31	C	1.577366	0.075691	0.423294
C32	C	1.577361	0.075679	0.576631
C33	C	1.420882	0.203483	0.576624
C34	C	1.420881	0.203489	0.423290
C35	C	1.667712	0.001907	0.423299
C36	C	1.667707	0.001895	0.576636
H37	H	0.880053	0.137229	-0.240973
H38	H	1.350915	-0.363745	-0.000046
C39	C	0.879842	0.226677	0.365994
N40	N	0.839457	0.293208	0.426333
C41	C	1.800271	0.023925	0.632860
N42	N	1.900105	0.040546	0.675207
H43	H	1.357172	0.255504	0.639058
H44	H	1.357163	0.255516	0.360871
H45	H	1.118232	0.141979	-0.240951
C46	C	1.114092	0.234357	0.350364
N47	N	1.151259	0.304749	0.398780
H48	H	1.647329	-0.357074	-0.000031
H49	H	1.638940	-0.071003	0.381694
H50	H	1.104443	0.075342	0.344962
C51	C	0.884110	0.044817	0.350382
N52	N	0.846935	-0.025572	0.398823
H53	H	1.630268	-0.067004	0.624197
H54	H	1.761218	0.025011	0.375735
