data_functionalizedCrystal
_audit_creation_method	'MofGen! by Chris Wilmer'
_symmetry_space_group_name_H-M	'P1'
_symmetry_Int_Tables_number	1
_symmetry_cell_setting	triclinic
loop_
_symmetry_equiv_pos_as_xyz
  x,y,z
_cell_length_a	11.792254
_cell_length_b	11.792254
_cell_length_c	10.868271
_cell_angle_alpha	89.994692
_cell_angle_beta	89.995741
_cell_angle_gamma	84.198598
loop_
_atom_site_label
_atom_site_type_symbol
_atom_site_fract_x
_atom_site_fract_y
_atom_site_fract_z
O1	O	1.506907	0.155636	-0.102322
O2	O	1.756907	0.405636	0.147678
O3	O	2.006907	0.655636	0.397678
O4	O	2.256907	0.905636	0.647678
O5	O	1.176568	0.171654	-0.102325
O6	O	1.426568	0.421654	0.147675
O7	O	1.676568	0.671654	0.397675
O8	O	1.926568	0.921654	0.647675
O9	O	1.349747	-0.001524	-0.102314
O10	O	1.599747	0.248476	0.147686
O11	O	1.849747	0.498476	0.397686
O12	O	2.099747	0.748476	0.647686
O13	O	1.333729	0.328814	-0.102332
O14	O	1.583729	0.578814	0.147668
O15	O	1.833729	0.828814	0.397668
O16	O	2.083729	1.078814	0.647668
O17	O	1.349732	-0.001531	0.102330
O18	O	1.599732	0.248469	0.352330
O19	O	1.849732	0.498469	0.602330
O20	O	2.099732	0.748469	0.852330
O21	O	1.176554	0.171647	0.102320
O22	O	1.426554	0.421647	0.352320
O23	O	1.676554	0.671647	0.602320
O24	O	1.926554	0.921647	0.852320
O25	O	1.506893	0.155629	0.102323
O26	O	1.756893	0.405629	0.352323
O27	O	2.006893	0.655629	0.602323
O28	O	2.256893	0.905629	0.852323
Zn29	Zn	1.341721	0.163637	0.134813
Zn30	Zn	1.591721	0.413637	0.384813
Zn31	Zn	1.841721	0.663637	0.634813
Zn32	Zn	2.091721	0.913637	0.884813
Zn33	Zn	1.341740	0.163646	-0.134815
Zn34	Zn	1.591740	0.413646	0.115185
Zn35	Zn	1.841740	0.663646	0.365185
Zn36	Zn	2.091740	0.913646	0.615185
O37	O	1.333714	0.328807	0.102313
O38	O	1.583714	0.578807	0.352313
O39	O	1.833714	0.828807	0.602313
O40	O	2.083714	1.078807	0.852313
C41	C	1.134271	0.170642	-0.000003
C42	C	1.384271	0.420642	0.249997
C43	C	1.634271	0.670642	0.499997
C44	C	1.884271	0.920642	0.749997
C45	C	1.008257	0.167621	-0.000003
C46	C	1.258257	0.417621	0.249997
C47	C	1.508257	0.667621	0.499997
C48	C	1.758257	0.917621	0.749997
C49	C	1.348730	-0.043818	0.000008
C50	C	1.598730	0.206182	0.250008
C51	C	1.848730	0.456182	0.500008
C52	C	2.098730	0.706182	0.750008
C53	C	1.345710	-0.169832	0.000006
C54	C	1.595710	0.080168	0.250006
C55	C	1.845710	0.330168	0.500006
C56	C	2.095710	0.580168	0.750006
C57	C	0.905921	0.165168	-0.000008
C58	C	1.155921	0.415168	0.249992
C59	C	1.405921	0.665168	0.499992
C60	C	1.655921	0.915168	0.749992
C61	C	0.777534	0.162099	-0.000009
C62	C	1.027534	0.412099	0.249991
C63	C	1.277534	0.662099	0.499991
C64	C	1.527534	0.912099	0.749991
C65	C	1.343256	-0.272168	0.000002
C66	C	1.593256	-0.022168	0.250002
C67	C	1.843256	0.227832	0.500002
C68	C	2.093256	0.477832	0.750002
C69	C	1.340188	-0.400555	-0.000009
C70	C	1.590188	-0.150555	0.249991
C71	C	1.840188	0.099445	0.499991
C72	C	2.090188	0.349445	0.749991
C73	C	1.549190	0.156642	-0.000002
C74	C	1.799190	0.406642	0.249998
C75	C	2.049190	0.656642	0.499998
C76	C	2.299190	0.906642	0.749998
C77	C	1.675204	0.159662	-0.000009
C78	C	1.925204	0.409662	0.249991
C79	C	2.175204	0.659662	0.499991
C80	C	2.425204	0.909662	0.749991
C81	C	1.334731	0.371102	-0.000012
C82	C	1.584731	0.621102	0.249988
C83	C	1.834731	0.871102	0.499988
C84	C	2.084731	1.121102	0.749988
C85	C	1.337751	0.497115	-0.000019
C86	C	1.587751	0.747115	0.249981
C87	C	1.837751	0.997115	0.499981
C88	C	2.087751	1.247115	0.749981
N89	N	1.341716	0.163630	0.318827
N90	N	1.591716	0.413630	0.568827
N91	N	1.841716	0.663630	0.818827
N92	N	2.091716	0.913630	1.068827
N93	N	1.341753	0.163644	-0.318829
N94	N	1.591753	0.413644	-0.068829
N95	N	1.841753	0.663644	0.181171
N96	N	2.091753	0.913644	0.431171
C97	C	1.341734	0.163644	0.569833
C98	C	1.591734	0.413644	0.819833
C99	C	1.841734	0.663644	1.069833
C100	C	2.091734	0.913644	1.319833
C101	C	1.341721	0.163640	0.430156
C102	C	1.591721	0.413640	0.680156
C103	C	1.841721	0.663640	0.930156
C104	C	2.091721	0.913640	1.180156
