data_functionalizedCrystal
_audit_creation_method	'MofGen! by Chris Wilmer'
_symmetry_space_group_name_H-M	'P1'
_symmetry_Int_Tables_number	1
_symmetry_cell_setting	triclinic
loop_
_symmetry_equiv_pos_as_xyz
  x,y,z
_cell_length_a	15.995350
_cell_length_b	19.188930
_cell_length_c	15.072220
_cell_angle_alpha	89.993728
_cell_angle_beta	89.991149
_cell_angle_gamma	83.318578
loop_
_atom_site_label
_atom_site_type_symbol
_atom_site_fract_x
_atom_site_fract_y
_atom_site_fract_z
O1	O	1.110666	0.089991	-0.073718
O2	O	1.610666	0.589991	0.426282
O3	O	0.866850	0.101105	-0.073737
O4	O	1.366850	0.601105	0.426263
O5	O	0.995794	-0.006090	-0.073709
O6	O	1.495794	0.493910	0.426291
O7	O	0.981722	0.197186	-0.073745
O8	O	1.481722	0.697186	0.426255
O9	O	0.995763	-0.006084	0.073856
O10	O	1.495763	0.493916	0.573856
O11	O	0.866819	0.101111	0.073828
O12	O	1.366819	0.601111	0.573828
O13	O	1.110634	0.089997	0.073848
O14	O	1.610634	0.589997	0.573848
Zn15	Zn	0.988721	0.095555	0.097267
Zn16	Zn	1.488721	0.595555	0.597267
Zn17	Zn	0.988763	0.095547	-0.097156
Zn18	Zn	1.488763	0.595547	0.402844
O19	O	0.981690	0.197192	0.073820
O20	O	1.481690	0.697192	0.573820
C21	C	0.835641	0.100648	0.000043
C22	C	1.335641	0.600648	0.500043
C23	C	0.742696	0.099271	0.000037
C24	C	1.242696	0.599271	0.500037
C25	C	0.404967	0.094324	0.000056
C26	C	0.904967	0.594324	0.500056
C27	C	0.452680	0.017982	0.000398
C28	C	0.952680	0.517982	0.500398
C29	C	0.549365	0.019360	0.000059
C30	C	1.049365	0.519360	0.500059
C31	C	0.572518	0.096778	0.000047
C32	C	1.072518	0.596778	0.500047
C33	C	0.531311	0.134429	-0.084223
C34	C	1.031311	0.634429	0.415777
C35	C	0.434683	0.132511	-0.084287
C36	C	0.934683	0.632511	0.415713
C37	C	0.434302	0.134095	0.083522
C38	C	0.934302	0.634095	0.583522
C39	C	0.531247	0.134077	0.084629
C40	C	1.031247	0.634077	0.584629
C41	C	0.667211	0.098169	0.000039
C42	C	1.167211	0.598169	0.500039
C43	C	0.310274	0.092936	0.000058
C44	C	0.810274	0.592936	0.500058
C45	C	0.995323	-0.032099	0.000076
C46	C	1.495323	0.467901	0.500076
C47	C	0.993955	-0.109607	0.000083
C48	C	1.493955	0.390393	0.500083
C49	C	1.069615	-0.154338	0.000093
C50	C	1.569615	0.345662	0.500093
C51	C	1.068330	-0.227165	0.000079
C52	C	1.568330	0.272835	0.500079
C53	C	0.991380	-0.255258	0.000072
C54	C	1.491380	0.244742	0.500072
C55	C	0.915710	-0.210517	0.000057
C56	C	1.415710	0.289483	0.500057
C57	C	0.916997	-0.137691	0.000062
C58	C	1.416997	0.362309	0.500062
N59	N	0.932550	-0.363410	0.050287
N60	N	1.432550	0.136590	0.550287
N61	N	0.931333	-0.432592	0.050284
N62	N	1.431333	0.067408	0.550284
C63	C	0.987497	-0.474676	0.000054
C64	C	1.487497	0.025324	0.500054
N65	N	1.044937	-0.444966	-0.050161
N66	N	1.544937	0.055034	0.449839
N67	N	1.046158	-0.375779	-0.050154
N68	N	1.546158	0.124221	0.449846
C69	C	0.989976	-0.334224	0.000066
C70	C	1.489976	0.165776	0.500066
C71	C	1.061769	-0.598375	0.000048
C72	C	1.561769	-0.098375	0.500048
C73	C	1.060480	-0.671204	0.000028
C74	C	1.560480	-0.171204	0.500028
C75	C	0.907859	-0.654553	0.000015
C76	C	1.407859	-0.154553	0.500015
C77	C	0.909149	-0.581727	0.000025
C78	C	1.409149	-0.081727	0.500025
C79	C	0.986106	-0.553643	0.000046
C80	C	1.486106	-0.053643	0.500046
C81	C	1.141843	0.090454	0.000065
C82	C	1.641843	0.590454	0.500065
C83	C	1.234789	0.091831	0.000066
C84	C	1.734789	0.591831	0.500066
C85	C	0.982162	0.223201	0.000033
C86	C	1.482162	0.723201	0.500033
C87	C	0.983530	0.300709	0.000019
C88	C	1.483530	0.800709	0.500019
N89	N	0.988699	0.095560	0.229956
N90	N	1.488699	0.595560	0.729956
N91	N	0.988792	0.095537	-0.229845
N92	N	1.488792	0.595537	0.270155
C93	C	0.988762	0.095544	0.589157
C94	C	1.488762	0.595544	1.089157
C95	C	0.919536	0.152710	0.551535
C96	C	1.419536	0.652710	1.051535
C97	C	0.919693	0.152918	0.448710
C98	C	1.419693	0.652918	0.948710
C99	C	0.988730	0.095552	0.410953
C100	C	1.488730	0.595552	0.910953
C101	C	1.076036	0.111464	0.448248
C102	C	1.576036	0.611464	0.948248
C103	C	1.075648	0.111870	0.551106
C104	C	1.575648	0.611870	1.051106
C105	C	0.971460	0.022298	0.551269
C106	C	1.471460	0.522298	1.051269
C107	C	0.969454	0.022787	0.448405
C108	C	1.469454	0.522787	0.948405
C109	C	0.988717	0.095555	0.310240
C110	C	1.488717	0.595555	0.810240
C111	C	0.988780	0.095543	0.689871
C112	C	1.488780	0.595543	1.189871
H113	H	0.402334	0.190382	0.084082
H114	H	0.902334	0.690382	0.584082
C115	C	1.220344	-0.178117	0.000110
C116	C	1.720344	0.321883	0.500110
C117	C	1.154205	-0.123469	0.000107
C118	C	1.654205	0.376531	0.500107
H119	H	1.272566	-0.159056	0.000112
H120	H	1.772566	0.340944	0.500112
H121	H	1.216654	-0.206177	0.051564
H122	H	1.716654	0.293823	0.551564
H123	H	1.216673	-0.206171	-0.051355
H124	H	1.716673	0.293829	0.448645
H125	H	1.157873	-0.095417	0.051575
H126	H	1.657873	0.404583	0.551575
H127	H	1.157897	-0.095396	-0.051353
H128	H	1.657897	0.404604	0.448647
H129	H	0.909194	0.006998	0.577257
H130	H	1.409194	0.506998	1.077257
C131	C	0.757132	-0.630776	-0.000001
C132	C	1.257132	-0.130776	0.499999
C133	C	0.823272	-0.685423	0.000003
C134	C	1.323272	-0.185423	0.500003
H135	H	0.704911	-0.649838	-0.000016
H136	H	1.204911	-0.149838	0.499984
H137	H	0.760796	-0.602727	0.051459
H138	H	1.260796	-0.102727	0.551459
H139	H	0.760827	-0.602710	-0.051460
H140	H	1.260827	-0.102710	0.448540
H141	H	0.819580	-0.713486	0.051466
H142	H	1.319580	-0.213486	0.551466
H143	H	0.819606	-0.713484	-0.051462
H144	H	1.319606	-0.213484	0.448538
H145	H	1.128756	0.071875	0.575991
H146	H	1.628756	0.571875	1.075991
H147	H	0.905232	0.010712	0.424030
H148	H	1.405232	0.510712	0.924030
H149	H	1.129943	-0.263592	0.000084
H150	H	1.629943	0.236408	0.500084
C151	C	1.147599	-0.762740	-0.075834
C152	C	1.647599	-0.262740	0.424166
C153	C	1.143655	-0.720374	0.000032
C154	C	1.643655	-0.220374	0.500032
H155	H	1.198951	-0.793092	-0.075833
H156	H	1.698951	-0.293092	0.424167
H157	H	1.101594	-0.789891	-0.075840
H158	H	1.601594	-0.289891	0.424160
H159	H	1.144940	-0.733967	-0.127282
H160	H	1.644940	-0.233967	0.372718
H161	H	1.146307	-0.749147	0.051481
H162	H	1.646307	-0.249147	0.551481
H163	H	1.189673	-0.693220	0.000046
H164	H	1.689673	-0.193220	0.500046
C165	C	0.822073	-0.490167	-0.075834
C166	C	1.322073	0.009833	0.424166
C167	C	0.825978	-0.532555	0.000022
C168	C	1.325978	-0.032555	0.500022
H169	H	0.770721	-0.459815	-0.075839
H170	H	1.270721	0.040185	0.424161
H171	H	0.868079	-0.463017	-0.075820
H172	H	1.368079	0.036983	0.424180
H173	H	0.824757	-0.518926	-0.127288
H174	H	1.324757	-0.018926	0.372712
H175	H	0.823301	-0.503796	0.051477
H176	H	1.323301	-0.003796	0.551477
H177	H	0.779960	-0.559708	0.000017
H178	H	1.279960	-0.059708	0.500017
C179	C	0.442661	0.030302	0.173541
C180	C	0.942661	0.530302	0.673541
C181	C	0.406835	0.100382	0.169796
C182	C	0.906835	0.600382	0.669796
H183	H	0.425749	0.009480	0.226816
H184	H	0.925749	0.509480	0.726816
H185	H	0.424271	0.005518	0.124035
H186	H	0.924271	0.505518	0.624035
H187	H	0.502263	0.028382	0.172327
H188	H	1.002263	0.528382	0.672327
H189	H	0.347233	0.102302	0.171004
H190	H	0.847233	0.602302	0.671004
H191	H	0.425221	0.125173	0.219316
H192	H	0.925221	0.625173	0.719316
H193	H	1.124432	-0.575508	0.000060
H194	H	1.624432	-0.075508	0.500060
C195	C	0.637269	0.213157	-0.092211
C196	C	1.137269	0.713157	0.407789
C197	C	0.550101	0.211210	-0.088480
C198	C	1.050101	0.711210	0.411520
H199	H	0.648867	0.260559	-0.094843
H200	H	1.148867	0.760559	0.405157
H201	H	0.662748	0.191386	-0.040770
H202	H	1.162748	0.691386	0.459230
H203	H	0.659303	0.188857	-0.143560
H204	H	1.159303	0.688857	0.356440
H205	H	0.528067	0.235506	-0.037127
H206	H	1.028067	0.735506	0.462873
H207	H	0.524611	0.232991	-0.139925
H208	H	1.024611	0.732991	0.360075
H209	H	0.854788	0.143438	0.423496
H210	H	1.354788	0.643438	0.923496
C211	C	0.829923	-0.046128	-0.075799
C212	C	1.329923	0.453872	0.424201
C213	C	0.833825	-0.088518	0.000055
C214	C	1.333825	0.411482	0.500055
H215	H	0.778572	-0.015774	-0.075804
H216	H	1.278572	0.484226	0.424196
H217	H	0.875930	-0.018979	-0.075782
H218	H	1.375930	0.481021	0.424218
H219	H	0.832606	-0.074884	-0.127255
H220	H	1.332606	0.425116	0.372745
H221	H	0.831148	-0.059762	0.051511
H222	H	1.331148	0.440238	0.551511
H223	H	0.787805	-0.115669	0.000046
H224	H	1.287805	0.384331	0.500046
H225	H	0.558651	0.106592	0.146972
H226	H	1.058651	0.606592	0.646972
C227	C	0.532407	0.133268	-0.243518
C228	C	1.032407	0.633268	0.256482
C229	C	0.569764	0.099130	-0.168880
C230	C	1.069764	0.599130	0.331120
H231	H	0.556154	0.111477	-0.295778
H232	H	1.056154	0.611477	0.204222
H233	H	0.473546	0.130328	-0.242647
H234	H	0.973546	0.630328	0.257353
H235	H	0.542201	0.181151	-0.242751
H236	H	1.042201	0.681151	0.257249
H237	H	0.559965	0.051248	-0.169643
H238	H	1.059965	0.551248	0.330357
H239	H	0.628640	0.102063	-0.169751
H240	H	1.128640	0.602063	0.330249
C241	C	0.845972	-0.314761	0.000057
C242	C	1.345972	0.185239	0.500057
C243	C	0.831125	-0.241393	0.000053
C244	C	1.331125	0.258607	0.500053
H245	H	0.793750	-0.333821	0.000057
H246	H	1.293750	0.166179	0.500057
H247	H	0.877120	-0.330108	-0.051396
H248	H	1.377120	0.169892	0.448604
H249	H	0.877104	-0.330113	0.051523
H250	H	1.377104	0.169887	0.551523
H251	H	0.799998	-0.226041	-0.051416
H252	H	1.299998	0.273959	0.448584
H253	H	0.799964	-0.226040	0.051512
H254	H	1.299964	0.273960	0.551512
H255	H	0.854420	0.143386	0.576294
H256	H	1.354420	0.643386	1.076294
H257	H	0.546404	0.190533	0.089710
H258	H	1.046404	0.690533	0.589710
H259	H	1.128769	0.070935	0.423790
H260	H	1.628769	0.570935	0.923790
H261	H	0.930403	0.206759	0.577365
H262	H	1.430403	0.706759	1.077365
H263	H	1.090935	0.165288	0.575079
H264	H	1.590935	0.665288	1.075079
H265	H	0.577890	-0.010236	0.060468
H266	H	1.077890	0.489764	0.560468
H267	H	1.016620	-0.021746	0.422708
H268	H	1.516620	0.478254	0.922708
H269	H	0.930714	0.207273	0.424087
H270	H	1.430714	0.707273	0.924087
H271	H	0.434257	-0.012531	0.060832
H272	H	0.934257	0.487469	0.560832
C273	C	1.106483	0.227583	0.485184
C274	C	1.606483	0.727583	0.985184
C275	C	1.097182	0.182756	0.413462
C276	C	1.597182	0.682756	0.913462
H277	H	1.119540	0.271594	0.463709
H278	H	1.619540	0.771594	0.963709
H279	H	1.055502	0.234163	0.518044
H280	H	1.555502	0.734163	1.018044
H281	H	1.150728	0.207394	0.522433
H282	H	1.650728	0.707394	1.022433
H283	H	1.052933	0.202941	0.376217
H284	H	1.552933	0.702941	0.876217
H285	H	1.148170	0.176176	0.380588
H286	H	1.648170	0.676176	0.880588
H287	H	1.021947	-0.020242	0.575598
H288	H	1.521947	0.479758	1.075598
H289	H	0.433211	-0.012395	-0.059692
H290	H	0.933211	0.487605	0.440308
H291	H	0.577345	-0.010441	-0.060444
H292	H	1.077345	0.489559	0.439556
H293	H	0.416488	0.105049	-0.147272
H294	H	0.916488	0.605049	0.352728
H295	H	0.402230	0.188560	-0.088121
H296	H	0.902230	0.688560	0.411879
