data_functionalizedCrystal
_audit_creation_method	'MofGen! by Chris Wilmer'
_symmetry_space_group_name_H-M	'P1'
_symmetry_Int_Tables_number	1
_symmetry_cell_setting	triclinic
loop_
_symmetry_equiv_pos_as_xyz
  x,y,z
_cell_length_a	15.944493
_cell_length_b	14.421503
_cell_length_c	15.944551
_cell_angle_alpha	89.996660
_cell_angle_beta	83.486891
_cell_angle_gamma	90.007064
loop_
_atom_site_label
_atom_site_type_symbol
_atom_site_fract_x
_atom_site_fract_y
_atom_site_fract_z
O1	O	1.114560	0.077101	0.108089
O2	O	1.447893	0.410435	0.441422
O3	O	1.781226	0.743768	0.774755
O4	O	0.870003	0.077106	0.121496
O5	O	1.203337	0.410439	0.454829
O6	O	1.536670	0.743773	0.788162
O7	O	0.998960	0.077095	-0.007484
O8	O	1.332293	0.410429	0.325849
O9	O	1.665626	0.743762	0.659183
O10	O	0.985603	0.077112	0.237068
O11	O	1.318937	0.410446	0.570402
O12	O	1.652270	0.743779	0.903735
O13	O	0.998938	-0.077128	-0.007465
O14	O	1.332272	0.256205	0.325868
O15	O	1.665605	0.589539	0.659202
O16	O	0.869982	-0.077117	0.121515
O17	O	1.203315	0.256216	0.454848
O18	O	1.536649	0.589549	0.788181
O19	O	1.114538	-0.077122	0.108108
O20	O	1.447872	0.256211	0.441441
O21	O	1.781205	0.589545	0.774774
Cu22	Cu	0.992258	-0.091201	0.114813
Cu23	Cu	1.325591	0.242132	0.448146
Cu24	Cu	1.658925	0.575465	0.781480
Cu25	Cu	0.992283	0.091186	0.114790
Cu26	Cu	1.325617	0.424519	0.448124
Cu27	Cu	1.658950	0.757852	0.781457
O28	O	0.985582	-0.077111	0.237087
O29	O	1.318915	0.256222	0.570421
O30	O	1.652248	0.589555	0.903754
C31	C	0.838698	-0.000005	0.120957
C32	C	1.172031	0.333328	0.454291
C33	C	1.505364	0.666662	0.787624
C34	C	0.745449	-0.000003	0.119314
C35	C	1.078783	0.333330	0.452648
C36	C	1.412116	0.666663	0.785981
C37	C	0.509689	0.000002	0.195235
C38	C	0.843023	0.333336	0.528568
C39	C	1.176356	0.666669	0.861902
C40	C	0.459120	-0.076045	0.154303
C41	C	0.792454	0.257289	0.487637
C42	C	1.125787	0.590622	0.820970
C43	C	0.574728	-0.000005	0.116270
C44	C	0.908062	0.333328	0.449604
C45	C	1.241395	0.666661	0.782937
C46	C	0.459146	0.076008	0.154266
C47	C	0.792479	0.409341	0.487599
C48	C	1.125813	0.742674	0.820932
C49	C	0.409819	-0.000003	0.113336
C50	C	0.743152	0.333330	0.446669
C51	C	1.076485	0.666663	0.780002
C52	C	0.525388	-0.076115	0.075360
C53	C	0.858721	0.257218	0.408694
C54	C	1.192054	0.590551	0.742027
C55	C	0.525417	0.076005	0.075334
C56	C	0.858750	0.409339	0.408667
C57	C	1.192083	0.742672	0.742001
C58	C	0.474880	-0.000060	0.034345
C59	C	0.808214	0.333273	0.367678
C60	C	1.141547	0.666606	0.701011
C61	C	0.669728	-0.000007	0.117963
C62	C	1.003061	0.333326	0.451296
C63	C	1.336395	0.666659	0.784630
C64	C	0.314821	-0.000008	0.111637
C65	C	0.648155	0.333325	0.444970
C66	C	0.981488	0.666659	0.778303
N67	N	0.992246	-0.219483	0.114828
N68	N	1.325580	0.113851	0.448162
N69	N	1.658913	0.447184	0.781495
C70	C	0.932607	-0.469131	0.174442
C71	C	1.265940	-0.135798	0.507775
C72	C	1.599273	0.197535	0.841109
C73	C	1.008509	-0.530934	0.190733
C74	C	1.341842	-0.197601	0.524067
C75	C	1.675175	0.135732	0.857400
C76	C	0.992267	-0.408644	0.114808
C77	C	1.325600	-0.075311	0.448142
C78	C	1.658934	0.258022	0.781475
C79	C	0.916384	-0.530935	0.098537
C80	C	1.249718	-0.197602	0.431870
C81	C	1.583051	0.135731	0.765203
C82	C	0.992280	-0.591366	0.114791
C83	C	1.325613	-0.258032	0.448124
C84	C	1.658947	0.075301	0.781458
C85	C	1.068207	-0.469086	0.131138
C86	C	1.401541	-0.135753	0.464471
C87	C	1.734874	0.197580	0.797804
C88	C	0.976033	-0.469082	0.038908
C89	C	1.309367	-0.135748	0.372241
C90	C	1.642700	0.197585	0.705574
C91	C	1.051990	-0.530857	0.055167
C92	C	1.385323	-0.197523	0.388500
C93	C	1.718657	0.135810	0.721834
C94	C	0.992258	-0.303383	0.114821
C95	C	1.325592	0.029950	0.448154
C96	C	1.658925	0.363284	0.781487
C97	C	0.992297	-0.696625	0.114778
C98	C	1.325631	-0.363291	0.448111
C99	C	1.658964	-0.029958	0.781445
C100	C	1.145844	-0.000009	0.108646
C101	C	1.479177	0.333324	0.441979
C102	C	1.812510	0.666658	0.775313
C103	C	1.239092	-0.000004	0.110289
C104	C	1.572426	0.333329	0.443622
C105	C	1.905759	0.666662	0.776956
C106	C	0.998395	-0.000017	-0.038768
C107	C	1.331728	0.333317	0.294565
C108	C	1.665061	0.666650	0.627898
C109	C	0.996732	-0.000017	-0.132014
C110	C	1.330066	0.333316	0.201319
C111	C	1.663399	0.666650	0.534653
N112	N	0.992302	0.219467	0.114768
N113	N	1.325635	0.552800	0.448102
N114	N	1.658968	0.886133	0.781435
C115	C	0.912826	-0.000003	-0.346853
C116	C	1.246159	0.333331	-0.013520
C117	C	1.579492	0.666664	0.319813
C118	C	0.951779	-0.076045	-0.407869
C119	C	1.285112	0.257288	-0.074536
C120	C	1.618445	0.590622	0.258797
C121	C	0.993725	-0.000010	-0.302739
C122	C	1.327058	0.333323	0.030594
C123	C	1.660392	0.666657	0.363927
C124	C	0.951819	0.076007	-0.407872
C125	C	1.285152	0.409341	-0.074538
C126	C	1.618485	0.742674	0.258795
C127	C	0.990814	0.000001	-0.467651
C128	C	1.324147	0.333334	-0.134318
C129	C	1.657481	0.666668	0.199015
C130	C	1.032700	-0.076115	-0.362527
C131	C	1.366033	0.257218	-0.029194
C132	C	1.699367	0.590552	0.304140
C133	C	1.032729	0.076006	-0.362523
C134	C	1.366062	0.409339	-0.029190
C135	C	1.699396	0.742672	0.304144
C136	C	1.071741	-0.000055	-0.423521
C137	C	1.405074	0.333278	-0.090188
C138	C	1.738407	0.666611	0.243145
C139	C	0.995399	-0.000017	-0.207737
C140	C	1.328733	0.333316	0.125596
C141	C	1.662066	0.666650	0.458929
C142	C	0.989146	0.000002	-0.562652
C143	C	1.322479	0.333335	-0.229319
C144	C	1.655812	0.666668	0.104014
C145	C	0.986147	0.000003	0.268372
C146	C	1.319480	0.333336	0.601705
C147	C	1.652814	0.666669	0.935038
C148	C	0.987809	0.000009	0.361617
C149	C	1.321143	0.333343	0.694951
C150	C	1.654476	0.666676	1.028284
H151	H	0.459415	-0.000109	-0.033726
H152	H	0.792748	0.333224	0.299607
H153	H	1.126081	0.666558	0.632941
H154	H	0.962267	-0.441892	-0.025251
H155	H	1.295600	-0.108559	0.308082
H156	H	1.628933	0.224775	0.641415
H157	H	0.525313	-0.000064	0.263254
H158	H	0.858646	0.333269	0.596588
H159	H	1.191980	0.666603	0.929921
Br160	Br	0.809419	-0.576222	0.075609
Br161	Br	1.142753	-0.242889	0.408942
Br162	Br	1.476086	0.090445	0.742276
H163	H	1.138950	-0.000099	-0.456694
H164	H	1.472283	0.333234	-0.123361
H165	H	1.805616	0.666567	0.209973
Br166	Br	1.089673	-0.183382	-0.329214
Br167	Br	1.423007	0.149952	0.004119
Br168	Br	1.756340	0.483285	0.337452
Br169	Br	1.089729	0.183160	-0.328994
Br170	Br	1.423062	0.516493	0.004339
Br171	Br	1.756395	0.849827	0.337673
H172	H	0.554372	0.140295	0.042003
H173	H	0.887705	0.473628	0.375337
H174	H	1.221038	0.806962	0.708670
H175	H	1.132399	-0.442033	0.144970
H176	H	1.465733	-0.108699	0.478303
H177	H	1.799066	0.224634	0.811636
H178	H	0.845675	-0.000077	-0.313532
H179	H	1.179009	0.333256	0.019802
H180	H	1.512342	0.666589	0.353135
Br181	Br	0.894779	0.183148	-0.441362
Br182	Br	1.228112	0.516481	-0.108029
Br183	Br	1.561445	0.849814	0.225305
H184	H	1.022251	-0.558102	0.254913
H185	H	1.355585	-0.224769	0.588247
H186	H	1.688918	0.108564	0.921580
Br187	Br	1.136178	-0.575753	-0.028904
Br188	Br	1.469511	-0.242419	0.304429
Br189	Br	1.802845	0.090914	0.637762
H190	H	0.917552	-0.140331	-0.427962
H191	H	1.250886	0.193002	-0.094629
H192	H	1.584219	0.526335	0.238704
Br193	Br	0.573414	-0.183381	0.019824
Br194	Br	0.906748	0.149953	0.353158
Br195	Br	1.240081	0.483286	0.686491
Br196	Br	0.410926	0.183149	0.209859
Br197	Br	0.744259	0.516482	0.543192
Br198	Br	1.077593	0.849816	0.876525
H199	H	0.430174	-0.140331	0.187659
H200	H	0.763507	0.193002	0.520993
H201	H	1.096841	0.526336	0.854326
Br202	Br	0.848600	-0.423953	0.258558
Br203	Br	1.181933	-0.090620	0.591891
Br204	Br	1.515267	0.242713	0.925224
