data_functionalizedCrystal
_audit_creation_method	'MofGen! by Chris Wilmer'
_symmetry_space_group_name_H-M	'P1'
_symmetry_Int_Tables_number	1
_symmetry_cell_setting	triclinic
loop_
_symmetry_equiv_pos_as_xyz
  x,y,z
_cell_length_a	11.792241
_cell_length_b	11.792254
_cell_length_c	10.268362
_cell_angle_alpha	89.998485
_cell_angle_beta	89.999574
_cell_angle_gamma	84.196007
loop_
_atom_site_label
_atom_site_type_symbol
_atom_site_fract_x
_atom_site_fract_y
_atom_site_fract_z
O1	O	1.506917	0.155561	-0.108174
O2	O	1.756917	0.405561	0.141826
O3	O	2.006917	0.655561	0.391826
O4	O	2.256917	0.905561	0.641826
O5	O	1.176576	0.171594	-0.108205
O6	O	1.426576	0.421594	0.141795
O7	O	1.676576	0.671594	0.391795
O8	O	1.926576	0.921594	0.641795
O9	O	1.349755	-0.001592	-0.108180
O10	O	1.599755	0.248408	0.141820
O11	O	1.849755	0.498408	0.391820
O12	O	2.099755	0.748408	0.641820
O13	O	1.333737	0.328747	-0.108200
O14	O	1.583737	0.578747	0.141800
O15	O	1.833737	0.828747	0.391800
O16	O	2.083737	1.078747	0.641800
O17	O	1.349739	-0.001586	0.108421
O18	O	1.599739	0.248414	0.358421
O19	O	1.849739	0.498414	0.608421
O20	O	2.099739	0.748414	0.858421
O21	O	1.176560	0.171600	0.108396
O22	O	1.426560	0.421600	0.358396
O23	O	1.676560	0.671600	0.608396
O24	O	1.926560	0.921600	0.858396
O25	O	1.506900	0.155567	0.108426
O26	O	1.756900	0.405567	0.358426
O27	O	2.006900	0.655567	0.608426
O28	O	2.256900	0.905567	0.858426
Cu29	Cu	1.341728	0.163584	0.128188
Cu30	Cu	1.591728	0.413584	0.378188
Cu31	Cu	1.841728	0.663584	0.628188
Cu32	Cu	2.091728	0.913584	0.878188
Cu33	Cu	1.341748	0.163577	-0.127967
Cu34	Cu	1.591748	0.413577	0.122033
Cu35	Cu	1.841748	0.663577	0.372033
Cu36	Cu	2.091748	0.913577	0.622033
O37	O	1.333721	0.328753	0.108401
O38	O	1.583721	0.578753	0.358401
O39	O	1.833721	0.828753	0.608401
O40	O	2.083721	1.078753	0.858401
C41	C	1.134277	0.170590	0.000092
C42	C	1.384277	0.420590	0.250092
C43	C	1.634277	0.670590	0.500092
C44	C	1.884277	0.920590	0.750092
C45	C	1.008263	0.167576	0.000080
C46	C	1.258263	0.417576	0.250080
C47	C	1.508263	0.667576	0.500080
C48	C	1.758263	0.917576	0.750080
C49	C	1.348738	-0.043880	0.000120
C50	C	1.598738	0.206120	0.250120
C51	C	1.848738	0.456120	0.500120
C52	C	2.098738	0.706120	0.750120
C53	C	1.345718	-0.169893	0.000119
C54	C	1.595718	0.080107	0.250119
C55	C	1.845718	0.330107	0.500119
C56	C	2.095718	0.580107	0.750119
C57	C	1.343264	-0.272229	0.000114
C58	C	1.593264	-0.022229	0.250114
C59	C	1.843264	0.227771	0.500114
C60	C	2.093264	0.477771	0.750114
C61	C	1.340196	-0.400616	0.000102
C62	C	1.590196	-0.150616	0.250102
C63	C	1.840196	0.099384	0.500102
C64	C	2.090196	0.349384	0.750102
C65	C	0.777551	0.162033	0.000118
C66	C	1.027551	0.412033	0.250118
C67	C	1.277551	0.662033	0.500118
C68	C	1.527551	0.912033	0.750118
C69	C	0.905936	0.165112	0.000097
C70	C	1.155936	0.415112	0.250097
C71	C	1.405936	0.665112	0.500097
C72	C	1.655936	0.915112	0.750097
C73	C	1.549199	0.156571	0.000127
C74	C	1.799199	0.406571	0.250127
C75	C	2.049199	0.656571	0.500127
C76	C	2.299199	0.906571	0.750127
C77	C	1.675213	0.159586	0.000130
C78	C	1.925213	0.409586	0.250130
C79	C	2.175213	0.659586	0.500130
C80	C	2.425213	0.909586	0.750130
C81	C	1.334738	0.371041	0.000098
C82	C	1.584738	0.621041	0.250098
C83	C	1.834738	0.871041	0.500098
C84	C	2.084738	1.121041	0.750098
C85	C	1.337758	0.497054	0.000091
C86	C	1.587758	0.747054	0.250091
C87	C	1.837758	0.997054	0.500091
C88	C	2.087758	1.247054	0.750091
N89	N	1.341723	0.163588	0.308354
N90	N	1.591723	0.413588	0.558354
N91	N	1.841723	0.663588	0.808354
N92	N	2.091723	0.913588	1.058354
N93	N	1.341762	0.163564	-0.308133
N94	N	1.591762	0.413564	-0.058133
N95	N	1.841762	0.663564	0.191867
N96	N	2.091762	0.913564	0.441867
C97	C	1.341731	0.163589	0.426197
C98	C	1.591731	0.413589	0.676197
C99	C	1.841731	0.663589	0.926197
C100	C	2.091731	0.913589	1.176197
C101	C	1.341745	0.163579	0.574035
C102	C	1.591745	0.413579	0.824035
C103	C	1.841745	0.663579	1.074035
C104	C	2.091745	0.913579	1.324035
