data_functionalizedCrystal
_audit_creation_method	'MofGen! by Chris Wilmer'
_symmetry_space_group_name_H-M	'P1'
_symmetry_Int_Tables_number	1
_symmetry_cell_setting	triclinic
loop_
_symmetry_equiv_pos_as_xyz
  x,y,z
_cell_length_a	12.837943
_cell_length_b	12.811415
_cell_length_c	9.130313
_cell_angle_alpha	84.567879
_cell_angle_beta	90.000639
_cell_angle_gamma	89.411917
loop_
_atom_site_label
_atom_site_type_symbol
_atom_site_fract_x
_atom_site_fract_y
_atom_site_fract_z
O1	O	1.376625	0.272971	-0.158025
O2	O	1.074761	0.259486	-0.156243
O3	O	1.233287	0.114196	-0.136934
O4	O	1.218098	0.418261	-0.177334
O5	O	1.233285	0.114201	0.106664
O6	O	1.074759	0.259491	0.087355
O7	O	1.376623	0.272975	0.085573
Cu8	Cu	1.225691	0.266233	0.108707
Cu9	Cu	1.225693	0.266228	-0.179376
O10	O	1.218096	0.418265	0.066264
C11	C	1.036120	0.254933	-0.033840
C12	C	0.920984	0.241347	-0.032039
C13	C	0.680730	0.404677	-0.053719
C14	C	0.572549	0.391916	-0.052026
C15	C	0.596439	0.203067	-0.026950
C16	C	0.704620	0.215827	-0.028642
C17	C	0.746761	0.316635	-0.042030
C18	C	0.854944	0.329395	-0.043733
C19	C	0.878832	0.140546	-0.018646
C20	C	0.770652	0.127786	-0.016953
C21	C	1.232435	0.075009	-0.009931
C22	C	1.229887	-0.041763	0.005575
C23	C	1.225082	-0.261186	-0.230889
C24	C	1.222688	-0.370904	-0.216327
C25	C	1.222696	-0.370920	0.049260
C26	C	1.225091	-0.261202	0.034698
C27	C	1.226285	-0.206339	-0.105381
C28	C	1.228687	-0.096619	-0.119942
C29	C	1.228688	-0.096636	0.145643
C30	C	1.226294	-0.206354	0.160205
C31	C	1.415264	0.277528	-0.036833
C32	C	1.530399	0.291114	-0.038644
C33	C	1.218948	0.457452	-0.060742
C34	C	1.221496	0.574225	-0.076257
N35	N	1.225696	0.266237	0.311329
N36	N	1.225695	0.266217	-0.381998
C37	C	1.295910	0.201928	0.396527
C38	C	1.295907	0.201915	0.549866
C39	C	1.155474	0.330529	0.532793
C40	C	1.155473	0.330535	0.379458
C41	C	1.376991	0.127678	0.406385
C42	C	1.376988	0.127665	0.559724
H43	H	0.736325	0.045710	-0.006037
Cl44	Cl	0.961851	0.029859	-0.003973
Cl45	Cl	1.230192	-0.027649	-0.296039
H46	H	1.226063	-0.216516	-0.344947
H47	H	1.352119	0.049157	0.617701
Cl48	Cl	1.221172	-0.439852	-0.374116
H49	H	1.221716	-0.415608	0.163305
H50	H	1.225318	-0.251038	0.274254
H51	H	1.229672	-0.051967	0.247841
H52	H	1.456608	0.152910	0.597989
H53	H	1.098290	0.382890	0.310091
Cl54	Cl	1.067197	0.411356	0.618450
H55	H	1.359631	0.045417	0.375694
Cl56	Cl	0.733711	0.531403	-0.070568
H57	H	0.562109	0.120993	-0.015929
Cl58	Cl	0.907920	0.456123	-0.060566
Cl59	Cl	0.489540	0.502602	-0.066717
Cl60	Cl	1.493067	0.177746	0.326298
