data_functionalizedCrystal
_audit_creation_method	'MofGen! by Chris Wilmer'
_symmetry_space_group_name_H-M	'P1'
_symmetry_Int_Tables_number	1
_symmetry_cell_setting	triclinic
loop_
_symmetry_equiv_pos_as_xyz
  x,y,z
_cell_length_a	6.817900
_cell_length_b	17.253917
_cell_length_c	27.923559
_cell_angle_alpha	100.325561
_cell_angle_beta	98.965071
_cell_angle_gamma	102.659311
loop_
_atom_site_label
_atom_site_type_symbol
_atom_site_fract_x
_atom_site_fract_y
_atom_site_fract_z
V1	V	-3.976190	-0.112473	-0.155922
O2	O	-3.965246	0.004227	-0.148214
O3	O	-3.927495	-0.221883	-0.159414
O4	O	-3.905988	-0.111260	-0.221845
O5	O	-3.986902	-0.107162	-0.085351
V6	V	-4.462681	-0.098454	-0.146927
O7	O	-4.230938	-0.143227	-0.175652
O8	O	-4.658131	-0.067700	-0.127197
O9	O	-4.288170	0.010956	-0.143435
O10	O	-4.591022	-0.215154	-0.154635
O11	O	-4.569366	-0.103765	-0.217498
O12	O	-4.309677	-0.099667	-0.081004
C13	C	-3.773130	-0.248539	-0.158131
C14	C	-3.814457	-0.337986	-0.161425
C15	C	-3.808371	-0.368181	-0.118055
C16	C	-3.847222	-0.452227	-0.121152
C17	C	-3.892144	-0.506076	-0.167620
C18	C	-3.898235	-0.475876	-0.210994
C19	C	-3.859399	-0.391832	-0.207897
C20	C	-4.011042	-0.758702	-0.181702
C21	C	-4.049873	-0.842751	-0.184796
C22	C	-3.998861	-0.819096	-0.094954
C23	C	-3.960014	-0.735051	-0.091860
C24	C	-3.966119	-0.704858	-0.135234
N25	N	-3.931851	-0.591985	-0.170788
N26	N	-3.926428	-0.618952	-0.132067
C27	C	-3.745695	-0.107427	-0.237767
C28	C	-3.769578	-0.107159	-0.291689
C29	C	-3.955467	-0.179333	-0.636061
C30	C	-4.045340	-0.178373	-0.838730
O31	O	-4.088970	-0.240962	-0.873425
N32	N	-4.019031	-0.104512	-0.854090
C33	C	-3.970263	-0.030886	-0.818780
O34	O	-3.949969	0.031959	-0.836495
C35	C	-3.880406	-0.031847	-0.616112
C36	C	-3.906697	-0.105712	-0.600755
C37	C	-3.981758	-0.253192	-0.620703
C38	C	-3.959279	-0.253431	-0.570038
C39	C	-3.910510	-0.179810	-0.534732
C40	C	-3.884219	-0.105951	-0.550090
C41	C	-3.831653	0.041778	-0.580802
C42	C	-3.809196	0.041531	-0.530133
C43	C	-3.835487	-0.032334	-0.514776
C44	C	-3.812972	-0.032570	-0.464119
N45	N	-3.839280	-0.106431	-0.448759
C46	C	-3.888050	-0.180051	-0.484065
C47	C	-4.017439	-0.030387	-0.925184
C48	C	-4.039899	-0.030146	-0.975850
C49	C	-4.114978	-0.177634	-0.995797
C50	C	-4.092502	-0.177873	-0.945129
C51	C	-4.043747	-0.104248	-0.909823
C52	C	-3.840839	-0.180547	-0.377665
C53	C	-3.818347	-0.180779	-0.326996
C54	C	-3.743282	-0.033293	-0.307053
C55	C	-3.765761	-0.033060	-0.357719
C56	C	-3.814549	-0.106694	-0.393024
O57	O	-3.769367	0.029986	-0.429398
O58	O	-3.908380	-0.242888	-0.466340
C59	C	-3.977945	-0.179094	-0.686725
C60	C	-3.951654	-0.105234	-0.702084
C61	C	-3.902885	-0.031614	-0.666777
C62	C	-3.974114	-0.104994	-0.752750
C63	C	-4.022884	-0.178614	-0.788057
C64	C	-4.049192	-0.252475	-0.772696
C65	C	-4.026714	-0.252714	-0.722032
C66	C	-3.876576	0.042247	-0.682137
C67	C	-3.899055	0.042480	-0.732803
C68	C	-3.947824	-0.031140	-0.768109
C69	C	-4.105878	0.037608	-0.144717
C70	C	-4.043787	0.127054	-0.141426
C71	C	-4.133314	-0.103503	-0.065080
C72	C	-4.088669	-0.103767	-0.011157
H73	H	-3.864378	-0.367250	-0.243214
O74	O	-3.764615	-0.315761	-0.072953
C75	C	-3.731689	-0.235106	-0.079517
H76	H	-3.685329	-0.232358	-0.116799
H77	H	-3.879018	-0.214317	-0.078791
C78	C	-3.616271	-0.182172	0.008481
C79	C	-3.559313	-0.178796	-0.037307
H80	H	-3.509948	-0.147436	0.034519
H81	H	-3.638461	-0.236510	0.012904
H82	H	-3.739047	-0.164849	0.009080
H83	H	-3.436554	-0.196128	-0.037907
H84	H	-3.537099	-0.124458	-0.041729
H85	H	-4.048127	-0.312863	-0.709533
O86	O	-3.843620	-0.252574	-0.312127
C87	C	-3.699648	-0.293513	-0.328066
H88	H	-3.647928	-0.271098	-0.361191
H89	H	-3.561165	-0.280715	-0.296421
C90	C	-3.862837	-0.413333	-0.302797
C91	C	-3.799327	-0.385806	-0.343483
H92	H	-3.924318	-0.470263	-0.312305
H93	H	-3.959830	-0.385750	-0.292056
H94	H	-3.747422	-0.402660	-0.276429
H95	H	-3.914745	-0.396469	-0.369848
H96	H	-3.702356	-0.413392	-0.354229
H97	H	-4.018461	0.030003	-0.988349
O98	O	-3.806440	0.113476	-0.595775
C99	C	-3.989444	0.114204	-0.626974
H100	H	-4.082802	0.048937	-0.644068
H101	H	-4.082879	0.147802	-0.604272
C102	C	-3.822357	0.237944	-0.647636
C103	C	-3.937014	0.157781	-0.668634
H104	H	-3.790019	0.264827	-0.673333
H105	H	-3.699065	0.237455	-0.626615
H106	H	-3.900236	0.265931	-0.628717
H107	H	-3.859125	0.129793	-0.687547
H108	H	-4.060292	0.158266	-0.689659
H109	H	-3.703565	0.026647	-0.278298
O110	O	-3.887951	-0.252016	-0.411999
C111	C	-3.730942	-0.252471	-0.439394
H112	H	-3.644312	-0.187132	-0.437498
H113	H	-3.620190	-0.286260	-0.423033
C114	C	-3.932466	-0.375834	-0.496311
C115	C	-3.826077	-0.295584	-0.493986
H116	H	-3.991146	-0.402432	-0.529986
H117	H	-4.038244	-0.375530	-0.477853
H118	H	-3.840155	-0.403981	-0.482674
H119	H	-3.918393	-0.267436	-0.507617
H120	H	-3.720316	-0.295885	-0.512448
H121	H	-3.877626	0.102635	-0.745300
H122	H	-3.842269	-0.476807	-0.085835
O123	O	-4.096927	-0.323978	-0.807022
C124	C	-4.284375	-0.332062	-0.839432
H125	H	-4.376670	-0.292968	-0.820245
H126	H	-4.252379	-0.311192	-0.874583
C127	C	-4.294321	-0.469912	-0.876836
C128	C	-4.407688	-0.421901	-0.853268
H129	H	-4.370384	-0.525329	-0.885373
H130	H	-4.168030	-0.464465	-0.855002
H131	H	-4.267665	-0.452511	-0.906125
H132	H	-4.434319	-0.439296	-0.823976
H133	H	-4.533987	-0.427353	-0.875098
H134	H	-3.977737	0.029571	-0.896441
O135	O	-3.984839	-0.325257	-0.555209
C136	C	-3.841047	-0.366294	-0.571152
H137	H	-3.789050	-0.343839	-0.604239
H138	H	-3.702699	-0.353640	-0.539489
C139	C	-4.004964	-0.486129	-0.546007
C140	C	-3.941114	-0.458554	-0.586648
H141	H	-4.066684	-0.543039	-0.555564
H142	H	-4.101836	-0.458480	-0.535264
H143	H	-3.889661	-0.475576	-0.519625
H144	H	-4.056419	-0.469097	-0.613026
H145	H	-3.844263	-0.486206	-0.597396
O146	O	-4.162015	-0.249163	-1.030075
C147	C	-4.007184	-0.290276	-1.021261
H148	H	-3.858649	-0.244527	-0.999746
H149	H	-4.056508	-0.337268	-0.998642
C150	C	-4.154504	-0.389694	-1.097678
C151	C	-3.972066	-0.333503	-1.071256
H152	H	-4.132846	-0.416362	-1.128516
H153	H	-4.258822	-0.361998	-1.103615
H154	H	-4.195589	-0.428846	-1.078823
H155	H	-3.930998	-0.294347	-1.090108
H156	H	-3.867740	-0.361194	-1.065322
O157	O	-3.828944	0.113718	-0.647792
C158	C	-3.641439	0.121841	-0.615394
H159	H	-3.613236	0.059059	-0.615627
H160	H	-3.510977	0.161006	-0.628250
C161	C	-3.685588	0.239725	-0.562038
C162	C	-3.650958	0.162615	-0.562321
H163	H	-3.691453	0.264880	-0.529300
H164	H	-3.811910	0.234255	-0.583866
H165	H	-3.576864	0.272353	-0.572753
H166	H	-3.759693	0.129985	-0.551612
H167	H	-3.524654	0.168081	-0.540489
O168	O	-4.028859	-0.324655	-0.655038
C169	C	-3.871837	-0.325109	-0.682430
H170	H	-3.785206	-0.259771	-0.680533
H171	H	-3.761089	-0.358897	-0.666066
C172	C	-4.073345	-0.448474	-0.739348
C173	C	-3.966954	-0.368224	-0.737022
H174	H	-4.132013	-0.475072	-0.773023
H175	H	-4.179132	-0.448170	-0.720893
H176	H	-3.981038	-0.476620	-0.725709
H177	H	-4.059266	-0.340076	-0.750656
H178	H	-3.861185	-0.368524	-0.755481
O179	O	-3.762184	0.113025	-0.495824
C180	C	-3.919143	0.113458	-0.468411
H181	H	-4.067593	0.069000	-0.491086
H182	H	-3.873249	0.094338	-0.432124
C183	C	-3.769733	0.254420	-0.429004
C184	C	-3.952067	0.199820	-0.456856
H185	H	-3.790038	0.307692	-0.421874
H186	H	-3.663982	0.254128	-0.447471
H187	H	-3.731507	0.238476	-0.398768
H188	H	-3.990276	0.215759	-0.487094
H189	H	-4.057826	0.200117	-0.438394
H190	H	-3.923450	-0.691212	-0.054021
H191	H	-4.086445	-0.886594	-0.222638
H192	H	-4.015990	-0.734129	-0.217020
H193	H	-3.993898	-0.843688	-0.059641
O194	O	-3.941817	-0.528294	-0.256093
C195	C	-3.974834	-0.608950	-0.249529
H196	H	-3.895257	-0.608837	-0.210447
H197	H	-4.146619	-0.636984	-0.254818
C198	C	-3.984077	-0.659476	-0.336009
C199	C	-3.886325	-0.659338	-0.288009
H200	H	-3.929490	-0.690560	-0.359746
H201	H	-3.961841	-0.605137	-0.340432
H202	H	-4.127227	-0.682836	-0.340410
H203	H	-3.743183	-0.635970	-0.283607
H204	H	-3.908535	-0.713675	-0.283586
H205	H	-4.113912	-0.238021	-0.932630
H206	H	-3.744362	0.027087	-0.370223
