data_functionalizedCrystal
_audit_creation_method	'MofGen! by Chris Wilmer'
_symmetry_space_group_name_H-M	'P1'
_symmetry_Int_Tables_number	1
_symmetry_cell_setting	triclinic
loop_
_symmetry_equiv_pos_as_xyz
  x,y,z
_cell_length_a	12.759400
_cell_length_b	18.215407
_cell_length_c	18.215399
_cell_angle_alpha	90.020595
_cell_angle_beta	89.975454
_cell_angle_gamma	89.985394
loop_
_atom_site_label
_atom_site_type_symbol
_atom_site_fract_x
_atom_site_fract_y
_atom_site_fract_z
Zn1	Zn	-0.418279	-1.125124	-0.416148
Zn2	Zn	-0.593977	-1.125054	-0.293089
Zn3	Zn	-0.418312	-1.002057	-0.293094
Zn4	Zn	-0.593917	-1.002044	-0.416113
O5	O	-0.506121	-1.063570	-0.354611
O6	O	-0.441597	-1.228099	-0.399837
O7	O	-0.570713	-1.108714	-0.190106
O8	O	-0.271287	-1.018416	-0.309434
O9	O	-0.570681	-1.228048	-0.309426
O10	O	-0.271263	-1.108833	-0.399842
O11	O	-0.441653	-1.018349	-0.190109
O12	O	-0.441595	-0.899071	-0.309400
O13	O	-0.570579	-1.018395	-0.519102
O14	O	-0.570611	-0.899062	-0.399781
O15	O	-0.441539	-1.108821	-0.519128
O16	O	-0.740990	-1.108703	-0.309392
O17	O	-0.740946	-1.018328	-0.399776
C18	C	-0.506101	-0.872364	-0.354587
C19	C	-0.506117	-0.790565	-0.354595
C20	C	-0.573399	-0.602385	-0.401595
C21	C	-0.573401	-0.525527	-0.401603
C22	C	-0.438849	-0.525506	-0.307630
C23	C	-0.438842	-0.602364	-0.307626
C24	C	-0.506123	-0.640801	-0.354607
C25	C	-0.506132	-0.487085	-0.354619
C26	C	-0.506134	-0.403752	-0.354628
C27	C	-0.506120	-0.724140	-0.354600
C28	C	-0.779088	-1.063526	-0.354596
C29	C	-0.895865	-1.063575	-0.354614
C30	C	-0.950715	-1.110685	-0.307602
C31	C	-1.060439	-1.110731	-0.307625
C32	C	-1.060453	-1.016549	-0.401672
C33	C	-0.950731	-1.016508	-0.401653
C34	C	-0.895849	-1.157753	-0.260563
C35	C	-0.950699	-1.204866	-0.213548
C36	C	-1.060423	-1.204911	-0.213570
C37	C	-1.115297	-1.157843	-0.260609
C38	C	-0.232088	-1.063634	-0.354643
C39	C	-0.115311	-1.063661	-0.354656
C40	C	-0.506049	-1.063615	-0.546564
C41	C	-0.506018	-1.063634	-0.628363
C42	C	-0.506139	-0.255523	-0.354632
C43	C	-0.506138	-0.337322	-0.354632
C44	C	-0.438764	-1.110736	-0.816572
C45	C	-0.438733	-1.110744	-0.893431
C46	C	-0.573109	-1.016584	-0.893392
C47	C	-0.573134	-1.016572	-0.816535
C48	C	-0.505963	-1.063652	-0.778127
C49	C	-0.505907	-1.063673	-0.931843
C50	C	-0.505875	-1.063682	-1.015176
C51	C	-0.505994	-1.063642	-0.694788
C52	C	-0.506117	-1.063568	-0.163405
C53	C	-0.505852	-1.063691	-0.081606
H54	H	-0.384073	-0.494201	-0.269379
H55	H	-1.105140	-0.978227	-0.439968
N56	N	-0.366273	-0.643795	-0.256940
H57	H	-0.408902	-0.675665	-0.222784
H58	H	-0.317648	-0.675657	-0.286957
H59	H	-0.806506	-1.157719	-0.260537
H60	H	-0.906015	-1.243192	-0.175255
H61	H	-1.105079	-1.243279	-0.175293
N62	N	-0.645569	-0.965809	-0.934809
H63	H	-0.629248	-0.913230	-0.921421
H64	H	-0.635337	-0.973018	-0.989320
H65	H	-1.204642	-1.157889	-0.260629
H66	H	-0.628181	-0.633679	-0.439852
N67	N	-0.891562	-0.965700	-0.452360
H68	H	-0.942967	-0.935886	-0.482158
H69	H	-0.846102	-0.931644	-0.422365
H70	H	-0.628182	-0.494252	-0.439866
H71	H	-0.384012	-1.149083	-0.924729
H72	H	-0.384066	-1.149069	-0.785302
N73	N	-0.645594	-0.965772	-0.775062
H74	H	-0.688143	-0.935949	-0.811054
H75	H	-0.694231	-0.995701	-0.743164
