data_functionalizedCrystal
_audit_creation_method	'MofGen! by Chris Wilmer'
_symmetry_space_group_name_H-M	'P1'
_symmetry_Int_Tables_number	1
_symmetry_cell_setting	triclinic
loop_
_symmetry_equiv_pos_as_xyz
  x,y,z
_cell_length_a	14.971486
_cell_length_b	16.109301
_cell_length_c	13.448316
_cell_angle_alpha	89.991973
_cell_angle_beta	89.998199
_cell_angle_gamma	83.537805
loop_
_atom_site_label
_atom_site_type_symbol
_atom_site_fract_x
_atom_site_fract_y
_atom_site_fract_z
O1	O	1.186791	0.108348	-0.082581
O2	O	0.926372	0.121323	-0.082608
O3	O	1.063736	-0.006187	-0.082584
O4	O	1.049428	0.235857	-0.082605
O5	O	1.063718	-0.006195	0.082800
O6	O	0.926355	0.121315	0.082776
O7	O	1.186774	0.108340	0.082803
Cu8	Cu	1.056563	0.114827	0.097890
Cu9	Cu	1.056583	0.114836	-0.097695
O10	O	1.049410	0.235850	0.082778
C11	C	0.893040	0.120739	0.000080
C12	C	0.793745	0.119000	0.000070
C13	C	0.736412	0.193908	0.000065
C14	C	0.643115	0.192269	0.000080
C15	C	0.607153	0.115721	0.000093
C16	C	0.664494	0.040807	0.000101
C17	C	0.757789	0.042447	0.000093
C18	C	0.470036	0.037395	0.000115
C19	C	0.376734	0.035755	0.000121
C20	C	0.355362	0.187217	0.000102
C21	C	0.448657	0.188857	0.000094
C22	C	0.505991	0.113942	0.000100
C23	C	1.063147	-0.037166	0.000109
C24	C	1.061410	-0.129464	0.000110
C25	C	1.138878	-0.351640	0.000102
C26	C	1.137239	-0.438362	0.000094
C27	C	0.974262	-0.418691	0.000081
C28	C	0.975902	-0.331970	0.000082
C29	C	1.058213	-0.298447	0.000098
C30	C	1.054933	-0.471890	0.000088
C31	C	1.053155	-0.565918	0.000079
C32	C	1.059992	-0.204413	0.000105
C33	C	1.220106	0.108924	0.000112
C34	C	1.319401	0.110663	0.000116
C35	C	1.049999	0.266829	0.000084
C36	C	1.051736	0.359127	0.000076
N37	N	1.056555	0.114820	0.235454
N38	N	1.056598	0.114837	-0.235260
C39	C	1.117398	0.058382	0.287506
C40	C	1.117404	0.058381	0.391609
C41	C	1.056570	0.114823	0.443659
C42	C	0.995720	0.171264	0.391601
C43	C	0.995711	0.171260	0.287499
C44	C	0.995745	0.171269	0.608581
C45	C	0.995755	0.171275	0.712689
C46	C	1.117438	0.058391	0.712690
C47	C	1.117429	0.058387	0.608589
C48	C	1.056580	0.114829	0.556538
H49	H	0.596437	0.253267	0.000074
Cl50	Cl	0.919215	0.242211	0.222064
H51	H	1.205901	-0.324348	0.000113
Cl52	Cl	0.781611	0.290146	0.000042
Cl53	Cl	0.919237	0.242217	0.457033
Cl54	Cl	0.493865	0.285090	0.000066
H55	H	0.907247	-0.445996	0.000070
Cl56	Cl	1.238651	-0.505230	0.000098
Cl57	Cl	1.193885	-0.012575	0.222082
Cl58	Cl	0.283285	0.281396	0.000096
Cl59	Cl	0.874486	-0.265094	0.000068
H60	H	0.347458	-0.026577	0.000133
Cl61	Cl	1.193934	-0.012562	0.778130
Cl62	Cl	0.542112	-0.056785	0.000125
H63	H	0.804470	-0.018551	0.000097
Cl64	Cl	0.619284	-0.055425	0.000124
Cl65	Cl	0.919244	0.242225	0.543149
H66	H	1.166947	0.012425	0.433989
H67	H	1.166969	0.012432	0.566210
Cl68	Cl	0.919272	0.242232	0.778116
