data_functionalizedCrystal
_audit_creation_method	'MofGen! by Chris Wilmer'
_symmetry_space_group_name_H-M	'P1'
_symmetry_Int_Tables_number	1
_symmetry_cell_setting	triclinic
loop_
_symmetry_equiv_pos_as_xyz
  x,y,z
_cell_length_a	12.837943
_cell_length_b	10.654550
_cell_length_c	9.730223
_cell_angle_alpha	90.004253
_cell_angle_beta	90.002123
_cell_angle_gamma	89.656935
loop_
_atom_site_label
_atom_site_type_symbol
_atom_site_fract_x
_atom_site_fract_y
_atom_site_fract_z
O1	O	-1.377801	-0.326750	-0.114265
O2	O	-1.075880	-0.310609	-0.114273
O3	O	-1.233782	-0.136698	-0.114260
O4	O	-1.219899	-0.500662	-0.114278
O5	O	-1.233772	-0.136692	0.114320
O6	O	-1.075869	-0.310603	0.114307
O7	O	-1.377791	-0.326744	0.114315
Zn8	Zn	-1.226829	-0.318672	0.150603
Zn9	Zn	-1.226842	-0.318681	-0.150561
O10	O	-1.219888	-0.500655	0.114302
C11	C	-1.037215	-0.305153	0.000016
C12	C	-0.922021	-0.288891	0.000013
C13	C	-1.232758	-0.089786	0.000029
C14	C	-1.229708	0.049990	0.000027
C15	C	-1.416456	-0.332200	0.000023
C16	C	-1.531650	-0.348462	0.000017
C17	C	-0.682468	-0.484395	0.000023
C18	C	-0.574232	-0.469121	0.000021
C19	C	-0.597312	-0.243070	0.000018
C20	C	-0.705547	-0.258344	0.000019
C21	C	-0.748121	-0.379010	0.000020
C22	C	-0.856359	-0.394284	0.000012
C23	C	-0.879436	-0.168233	0.000018
C24	C	-0.771201	-0.152959	0.000016
C25	C	-1.220913	-0.547568	0.000010
C26	C	-1.223963	-0.687344	0.000003
N27	N	-1.226827	-0.318667	0.356139
C28	C	-1.322678	0.119331	0.000029
C29	C	-1.319806	0.250665	0.000012
C30	C	-1.130985	0.243307	-0.000003
C31	C	-1.133858	0.111975	0.000004
N32	N	-1.226852	-0.318677	-0.356098
C33	C	-1.296770	-0.241698	0.428071
C34	C	-1.296781	-0.241699	0.571954
C35	C	-1.156901	-0.395650	0.571961
C36	C	-1.156886	-0.395641	0.428080
H37	H	-0.891020	-0.492536	0.000015
O38	O	-1.372190	-0.158665	0.350470
H39	H	-1.420819	-0.105134	0.424667
O40	O	-0.503423	-0.582791	0.000031
H41	H	-0.421006	-0.551902	0.000044
O42	O	-0.950246	-0.054554	0.000022
H43	H	-1.032663	-0.085443	0.000031
H44	H	-1.099958	-0.458322	0.630550
O45	O	-1.426053	0.052469	0.000025
H46	H	-1.490218	0.122756	0.000006
O47	O	-1.420081	0.325458	0.000031
H48	H	-1.487208	0.260288	0.000062
O49	O	-1.372219	-0.158684	0.649543
H50	H	-1.423014	-0.217674	0.715086
O51	O	-1.081448	-0.478666	0.350481
H52	H	-1.032828	-0.532207	0.424675
O53	O	-1.027607	0.310159	0.000002
H54	H	-1.041226	0.413133	0.000017
O55	O	-1.033579	0.037171	0.000017
H56	H	-0.966446	0.102334	0.000026
H57	H	-0.717132	-0.582647	0.000022
H58	H	-0.562629	-0.144828	0.000131
O59	O	-0.725281	-0.022815	0.000016
H60	H	-0.638988	-0.029896	0.000010
