data_functionalizedCrystal
_audit_creation_method	'MofGen! by Chris Wilmer'
_symmetry_space_group_name_H-M	'P1'
_symmetry_Int_Tables_number	1
_symmetry_cell_setting	triclinic
loop_
_symmetry_equiv_pos_as_xyz
  x,y,z
_cell_length_a	18.215407
_cell_length_b	13.897448
_cell_length_c	13.897441
_cell_angle_alpha	89.969401
_cell_angle_beta	89.977966
_cell_angle_gamma	90.018140
loop_
_atom_site_label
_atom_site_type_symbol
_atom_site_fract_x
_atom_site_fract_y
_atom_site_fract_z
Zn1	Zn	1.125125	-0.383973	-0.545415
Zn2	Zn	1.458458	-0.050639	-0.212081
Zn3	Zn	1.791791	0.282694	0.121252
Zn4	Zn	1.125044	-0.545294	-0.384116
Zn5	Zn	1.458377	-0.211961	-0.050783
Zn6	Zn	1.791711	0.121372	0.282551
Zn7	Zn	1.002053	-0.384016	-0.384129
Zn8	Zn	1.335386	-0.050683	-0.050796
Zn9	Zn	1.668719	0.282650	0.282537
Zn10	Zn	1.002039	-0.545229	-0.545365
Zn11	Zn	1.335372	-0.211895	-0.212032
Zn12	Zn	1.668705	0.121438	0.121302
O13	O	1.063565	-0.464628	-0.464756
O14	O	1.396898	-0.131295	-0.131423
O15	O	1.730232	0.202039	0.201910
O16	O	1.228098	-0.405382	-0.524033
O17	O	1.561432	-0.072048	-0.190700
O18	O	1.894765	0.261285	0.142633
O19	O	1.108701	-0.523946	-0.249136
O20	O	1.442034	-0.190613	0.084197
O21	O	1.775367	0.142721	0.417531
O22	O	1.018418	-0.249029	-0.405551
O23	O	1.351751	0.084305	-0.072217
O24	O	1.685085	0.417638	0.261116
O25	O	1.228039	-0.523904	-0.405528
O26	O	1.561372	-0.190571	-0.072195
O27	O	1.894706	0.142763	0.261139
O28	O	1.108839	-0.248997	-0.524046
O29	O	1.442172	0.084337	-0.190713
O30	O	1.775505	0.417670	0.142620
O31	O	1.018340	-0.405456	-0.249146
O32	O	1.351673	-0.072122	0.084187
O33	O	1.685006	0.261211	0.417521
O34	O	0.899066	-0.405392	-0.405502
O35	O	1.232400	-0.072059	-0.072169
O36	O	1.565733	0.261275	0.261164
O37	O	1.018394	-0.523792	-0.680353
O38	O	1.351728	-0.190459	-0.347020
O39	O	1.685061	0.142875	-0.013687
O40	O	0.899056	-0.523834	-0.523962
O41	O	1.232390	-0.190501	-0.190628
O42	O	1.565723	0.142833	0.142705
O43	O	1.108825	-0.405318	-0.680390
O44	O	1.442158	-0.071984	-0.347056
O45	O	1.775492	0.261349	-0.013723
O46	O	1.108687	-0.680267	-0.405480
O47	O	1.442021	-0.346934	-0.072146
O48	O	1.775354	-0.013601	0.261187
O49	O	1.018316	-0.680219	-0.523949
O50	O	1.351649	-0.346886	-0.190615
O51	O	1.684983	-0.013552	0.142718
C52	C	0.872359	-0.464611	-0.464729
C53	C	1.205692	-0.131278	-0.131395
C54	C	1.539025	0.202055	0.201938
C55	C	0.790560	-0.464628	-0.464740
C56	C	1.123893	-0.131294	-0.131406
C57	C	1.457226	0.202039	0.201927
C58	C	0.602380	-0.526397	-0.526344
C59	C	0.935713	-0.193064	-0.193011
C60	C	1.269046	0.140269	0.140323
C61	C	0.525521	-0.526400	-0.526356
C62	C	0.858854	-0.193067	-0.193023
C63	C	1.192188	0.140266	0.140311
C64	C	0.525502	-0.402876	-0.403190
C65	C	0.858835	-0.069543	-0.069856
C66	C	1.192169	0.263791	0.263477
C67	C	0.602359	-0.402869	-0.403183
C68	C	0.935693	-0.069535	-0.069850
C69	C	1.269026	0.263798	0.263483
C70	C	0.640796	-0.464635	-0.464759
C71	C	0.974130	-0.131302	-0.131426
C72	C	1.307463	0.202032	0.201908
C73	C	0.487080	-0.464645	-0.464777
C74	C	0.820414	-0.131312	-0.131444
C75	C	1.153747	0.202022	0.201889
C76	C	0.403747	-0.464648	-0.464790
C77	C	0.737080	-0.131315	-0.131457
C78	C	1.070413	0.202019	0.201877
C79	C	0.724135	-0.464631	-0.464748
C80	C	1.057469	-0.131298	-0.131415
C81	C	1.390802	0.202036	0.201919
C82	C	1.063511	-0.715242	-0.464728
C83	C	1.396845	-0.381909	-0.131395
C84	C	1.730178	-0.048576	0.201938
C85	C	1.063556	-0.822456	-0.464749
C86	C	1.396889	-0.489123	-0.131415
C87	C	1.730222	-0.155789	0.201918
C88	C	1.063633	-1.018751	-0.464809
C89	C	1.396966	-0.685418	-0.131476
C90	C	1.730300	-0.352085	0.201858
C91	C	1.063588	-0.909519	-0.464778
C92	C	1.396921	-0.576185	-0.131445
C93	C	1.730254	-0.242852	0.201888
C94	C	1.255518	-0.464645	-0.464785
C95	C	1.588851	-0.131312	-0.131451
C96	C	1.922185	0.202022	0.201882
C97	C	1.337317	-0.464653	-0.464797
C98	C	1.670650	-0.131319	-0.131463
C99	C	2.003983	0.202014	0.201870
C100	C	1.063617	-0.464543	-0.716349
C101	C	1.396950	-0.131209	-0.383016
C102	C	1.730284	0.202124	-0.049683
C103	C	1.063639	-0.464506	-0.823563
C104	C	1.396973	-0.131173	-0.490230
C105	C	1.730306	0.202160	-0.156897
C106	C	1.063639	-0.213035	-0.464805
C107	C	1.396972	0.120298	-0.131472
C108	C	1.730306	0.453632	0.201861
C109	C	1.063670	-0.105821	-0.464826
C110	C	1.397004	0.227512	-0.131493
C111	C	1.730337	0.560846	0.201840
C112	C	1.063659	-0.464441	-1.019859
C113	C	1.396993	-0.131108	-0.686525
C114	C	1.730326	0.202226	-0.353192
C115	C	1.063646	-0.464480	-0.910626
C116	C	1.396979	-0.131147	-0.577293
C117	C	1.730313	0.202187	-0.243959
C118	C	1.063555	-0.464643	-0.214142
C119	C	1.396889	-0.131310	0.119191
C120	C	1.730222	0.202023	0.452525
C121	C	1.063676	-0.464408	-0.106928
C122	C	1.397009	-0.131074	0.226405
C123	C	1.730342	0.202259	0.559738
H124	H	0.633639	-0.352568	-0.353033
H125	H	0.966972	-0.019235	-0.019700
H126	H	1.300306	0.314098	0.313633
N127	N	0.484040	-0.336286	-0.336758
N128	N	0.817373	-0.002953	-0.003424
N129	N	1.150706	0.330381	0.329909
H130	H	0.452163	-0.291634	-0.376021
H131	H	0.785496	0.041699	-0.042688
H132	H	1.118830	0.375032	0.290645
H133	H	0.452181	-0.375529	-0.292016
H134	H	0.785514	-0.042196	0.041318
H135	H	1.118847	0.291137	0.374651
H136	H	0.633673	-0.576689	-0.576485
H137	H	0.967006	-0.243356	-0.243152
H138	H	1.300339	0.089978	0.090181
H139	H	0.494246	-0.576692	-0.576506
H140	H	0.827579	-0.243359	-0.243173
H141	H	1.160912	0.089975	0.090161
