data_functionalizedCrystal
_audit_creation_method	'MofGen! by Chris Wilmer'
_symmetry_space_group_name_H-M	'P1'
_symmetry_Int_Tables_number	1
_symmetry_cell_setting	triclinic
loop_
_symmetry_equiv_pos_as_xyz
  x,y,z
_cell_length_a	10.654559
_cell_length_b	27.731996
_cell_length_c	26.809956
_cell_angle_alpha	89.998344
_cell_angle_beta	89.990880
_cell_angle_gamma	83.555036
loop_
_atom_site_label
_atom_site_type_symbol
_atom_site_fract_x
_atom_site_fract_y
_atom_site_fract_z
O1	O	1.664957	0.067902	-0.041490
O2	O	2.164957	0.567902	0.458510
O3	O	1.299205	0.074365	-0.041491
O4	O	1.799205	0.574365	0.458509
O5	O	1.493474	0.000806	-0.041479
O6	O	1.993474	0.500806	0.458521
O7	O	1.470687	0.141461	-0.041501
O8	O	1.970687	0.641461	0.458499
O9	O	1.493438	0.000817	0.041480
O10	O	1.993438	0.500817	0.541480
O11	O	1.299168	0.074376	0.041469
O12	O	1.799168	0.574376	0.541469
O13	O	1.664920	0.067913	0.041470
O14	O	2.164920	0.567913	0.541470
Zn15	Zn	1.482038	0.071146	0.054641
Zn16	Zn	1.982038	0.571146	0.554641
Zn17	Zn	1.482087	0.071132	-0.054662
Zn18	Zn	1.982087	0.571132	0.445338
O19	O	1.470651	0.141472	0.041458
O20	O	1.970651	0.641472	0.541458
C21	C	1.252409	0.073895	-0.000011
C22	C	1.752409	0.573895	0.499989
C23	C	1.113027	0.072473	-0.000011
C24	C	1.613027	0.572473	0.499989
C25	C	1.063386	0.027825	-0.000003
C26	C	1.563386	0.527825	0.499997
C27	C	0.932420	0.026491	-0.000006
C28	C	1.432420	0.526491	0.499994
C29	C	0.900747	0.114457	-0.000024
C30	C	1.400747	0.614457	0.499976
C31	C	1.031711	0.115790	-0.000024
C32	C	1.531711	0.615790	0.499976
C33	C	1.081671	-0.022961	0.000010
C34	C	1.581671	0.477039	0.500010
C35	C	0.950705	-0.024295	0.000006
C36	C	1.450705	0.475705	0.500006
C37	C	1.492988	-0.017199	0.000002
C38	C	1.992988	0.482801	0.500002
C39	C	1.491578	-0.070864	0.000007
C40	C	1.991578	0.429136	0.500007
C41	C	1.482727	-0.403641	-0.045238
C42	C	1.982727	0.096359	0.454762
C43	C	1.477373	-0.605333	-0.045247
C44	C	1.977373	-0.105333	0.454753
O45	O	1.476644	-0.631414	-0.083706
O46	O	1.976644	-0.131414	0.416294
N47	N	1.476688	-0.630548	-0.000027
N48	N	1.976688	-0.130548	0.499973
C49	C	1.477334	-0.605337	0.045200
C50	C	1.977334	-0.105337	0.545200
O51	O	1.476615	-0.631411	0.083662
O52	O	1.976615	-0.131411	0.583662
C53	C	1.482679	-0.403646	0.045208
C54	C	1.982679	0.096354	0.545208
C55	C	1.483376	-0.378434	-0.000016
C56	C	1.983376	0.121566	0.499984
C57	C	1.483424	-0.378429	-0.090458
C58	C	1.983424	0.121571	0.409542
C59	C	1.484769	-0.328010	-0.090456
C60	C	1.984769	0.171990	0.409544
C61	C	1.485418	-0.302802	-0.045233
C62	C	1.985418	0.197198	0.454767
C63	C	1.484722	-0.328014	-0.000013
C64	C	1.984722	0.171986	0.499987
C65	C	1.483315	-0.378435	0.090433
C66	C	1.983315	0.121565	0.590433
C67	C	1.484648	-0.328009	0.090431
C68	C	1.984648	0.171991	0.590431
C69	C	1.485346	-0.302797	0.045208
C70	C	1.985346	0.197203	0.545208
C71	C	1.486716	-0.252387	0.045212
C72	C	1.986716	0.247613	0.545212
N73	N	1.487401	-0.227172	-0.000009
N74	N	1.987401	0.272828	0.499991
C75	C	1.486752	-0.252380	-0.045231
C76	C	1.986752	0.247620	0.454769
C77	C	1.474530	-0.711228	0.045192
C78	C	1.974530	-0.211228	0.545192
C79	C	1.473196	-0.761651	0.045190
C80	C	1.973196	-0.261651	0.545190
C81	C	1.473233	-0.761643	-0.045257
C82	C	1.973233	-0.261643	0.454743
C83	C	1.474576	-0.711220	-0.045254
C84	C	1.974576	-0.211220	0.454746
C85	C	1.475215	-0.686013	-0.000029
C86	C	1.975215	-0.186013	0.499971
C87	C	1.489578	-0.146495	-0.045222
C88	C	1.989578	0.353505	0.454778
C89	C	1.490929	-0.096071	-0.045216
C90	C	1.990929	0.403929	0.454784
C91	C	1.490885	-0.096083	0.045231
C92	C	1.990885	0.403917	0.545231
C93	C	1.489541	-0.146503	0.045225
C94	C	1.989541	0.353497	0.545225
C95	C	1.488884	-0.171707	-0.000006
C96	C	1.988884	0.328293	0.499994
O97	O	1.487432	-0.226275	0.083651
O98	O	1.987432	0.273725	0.583651
O99	O	1.487443	-0.226295	-0.083688
O100	O	1.987443	0.273705	0.416312
C101	C	1.481382	-0.454061	-0.045241
C102	C	1.981382	0.045939	0.454759
C103	C	1.480686	-0.479273	-0.000021
C104	C	1.980686	0.020727	0.499979
C105	C	1.481335	-0.454066	0.045201
C106	C	1.981335	0.045934	0.545201
C107	C	1.479352	-0.529696	-0.000023
C108	C	1.979352	-0.029696	0.499977
C109	C	1.478703	-0.554903	-0.045246
C110	C	1.978703	-0.054903	0.454754
C111	C	1.479388	-0.529688	-0.090466
C112	C	1.979388	-0.029688	0.409534
C113	C	1.480733	-0.479269	-0.090464
C114	C	1.980733	0.020731	0.409536
C115	C	1.480650	-0.479281	0.090422
C116	C	1.980650	0.020719	0.590422
C117	C	1.479306	-0.529701	0.090416
C118	C	1.979306	-0.029701	0.590416
C119	C	1.478657	-0.554908	0.045193
C120	C	1.978657	-0.054908	0.545193
C121	C	1.711716	0.068383	-0.000011
C122	C	2.211716	0.568383	0.499989
C123	C	1.851098	0.069806	-0.000014
C124	C	2.351098	0.569806	0.499986
C125	C	1.471137	0.159477	-0.000024
C126	C	1.971137	0.659477	0.499976
C127	C	1.472547	0.213142	-0.000033
C128	C	1.972547	0.713142	0.499967
N129	N	1.482015	0.071156	0.129237
N130	N	1.982015	0.571156	0.629237
N131	N	1.482121	0.071118	-0.129258
N132	N	1.982121	0.571118	0.370742
C133	C	1.568098	0.038568	0.473868
C134	C	2.068098	0.538568	0.973868
C135	C	1.568128	0.038561	0.682745
C136	C	2.068128	0.538561	1.182745
O137	O	1.641268	0.010855	0.709754
O138	O	2.141268	0.510855	1.209754
N139	N	1.482094	0.071121	0.708864
N140	N	1.982094	0.571121	1.208864
C141	C	1.396040	0.103684	0.682759
C142	C	1.896040	0.603684	1.182759
O143	O	1.322855	0.131375	0.709767
O144	O	1.822855	0.631375	1.209767
C145	C	1.396005	0.103688	0.473883
C146	C	1.896005	0.603688	0.973883
C147	C	1.482054	0.071129	0.447767
C148	C	1.982054	0.571129	0.947767
C149	C	1.654139	0.006011	0.447752
C150	C	2.154139	0.506011	0.947752
C151	C	1.654135	0.006015	0.395536
C152	C	2.154135	0.506015	0.895536
C153	C	1.568091	0.038576	0.369435
C154	C	2.068091	0.538576	0.869435
C155	C	1.482050	0.071133	0.395551
C156	C	1.982050	0.571133	0.895551
C157	C	1.309947	0.136248	0.447779
C158	C	1.809947	0.636248	0.947779
C159	C	1.309944	0.136245	0.395557
C160	C	1.809944	0.636245	0.895557
C161	C	1.395992	0.103686	0.369441
C162	C	1.895992	0.603686	0.869441
C163	C	1.396002	0.103698	0.317234
C164	C	1.896002	0.603698	0.817234
N165	N	1.482036	0.071137	0.291116
N166	N	1.982036	0.571137	0.791116
C167	C	1.568081	0.038576	0.317216
C168	C	2.068081	0.538576	0.817216
C169	C	1.396066	0.103680	0.792423
C170	C	1.896066	0.603680	1.292423
C171	C	1.396076	0.103679	0.844642
C172	C	1.896076	0.603679	1.344642
C173	C	1.568163	0.038555	0.844624
C174	C	2.068163	0.538555	1.344624
C175	C	1.568158	0.038559	0.792404
C176	C	2.068158	0.538559	1.292404
C177	C	1.482101	0.071119	0.766304
C178	C	1.982101	0.571119	1.266304
C179	C	1.568067	0.038587	0.207558
C180	C	2.068067	0.538587	0.707558
C181	C	1.568059	0.038595	0.155337
C182	C	2.068059	0.538595	0.655337
C183	C	1.395969	0.103717	0.155359
C184	C	1.895969	0.603717	0.655359
C185	C	1.395980	0.103711	0.207576
C186	C	1.895980	0.603711	0.707576
C187	C	1.482034	0.071142	0.233674
C188	C	1.982034	0.571142	0.733674
O189	O	1.322891	0.131384	0.290194
O190	O	1.822891	0.631384	0.790194
O191	O	1.641237	0.010882	0.290199
O192	O	2.141237	0.510882	0.790199
C193	C	1.568102	0.038564	0.526084
C194	C	2.068102	0.538564	1.026084
C195	C	1.482061	0.071121	0.552200
C196	C	1.982061	0.571121	1.052200
C197	C	1.396017	0.103682	0.526099
C198	C	1.896017	0.603682	1.026099
C199	C	1.482071	0.071120	0.604419
C200	C	1.982071	0.571120	1.104419
C201	C	1.568116	0.038560	0.630519
C202	C	2.068116	0.538560	1.130519
C203	C	1.654150	0.005999	0.604401
C204	C	2.154150	0.505999	1.104401
C205	C	1.654146	0.006003	0.552185
C206	C	2.154146	0.506003	1.052185
C207	C	1.309983	0.136242	0.552217
C208	C	1.809983	0.636242	1.052217
C209	C	1.309995	0.136236	0.604434
C210	C	1.809995	0.636236	1.104434
C211	C	1.396039	0.103675	0.630534
C212	C	1.896039	0.603675	1.130534
H213	H	1.489037	-0.167010	-0.082053
H214	H	1.989037	0.332990	0.417947
H215	H	0.834524	0.149724	-0.000035
H216	H	1.334524	0.649724	0.499965
H217	H	1.124248	-0.042104	-0.034704
H218	H	1.624248	0.457896	0.465296
H219	H	1.478865	-0.550221	-0.127288
H220	H	1.978865	-0.050221	0.372712
O221	O	1.488824	-0.173704	0.093998
O222	O	1.988824	0.326296	0.593998
H223	H	1.402598	-0.192656	0.096162
H224	H	1.902598	0.307344	0.596162
H225	H	1.724206	-0.020506	0.468999
H226	H	2.224206	0.479494	0.968999
H227	H	1.482749	-0.398954	0.127259
H228	H	1.982749	0.101046	0.627259
O229	O	0.912897	-0.050585	0.046003
O230	O	1.412897	0.449415	0.546003
H231	H	0.846087	-0.025832	0.068504
H232	H	1.346087	0.474168	0.568504
H233	H	1.472647	-0.782175	0.082016
H234	H	1.972647	-0.282175	0.582016
H235	H	1.325924	0.130228	0.228840
H236	H	1.825924	0.630228	0.728840
O237	O	1.475307	-0.684026	-0.094030
O238	O	1.975307	-0.184026	0.405970
H239	H	1.474622	-0.710030	-0.125474
H240	H	1.974622	-0.210030	0.374526
H241	H	1.638225	0.012046	0.771144
H242	H	2.138225	0.512046	1.271144
O243	O	1.485352	-0.300821	0.139211
O244	O	1.985352	0.199179	0.639211
H245	H	1.484655	-0.326828	0.170654
H246	H	1.984655	0.173172	0.670654
H247	H	1.724199	-0.020499	0.374275
H248	H	2.224199	0.479501	0.874275
H249	H	1.239926	0.162754	0.625693
H250	H	1.739926	0.662754	1.125693
O251	O	1.142988	-0.043271	0.047461
O252	O	1.642988	0.456729	0.547461
H253	H	1.069586	-0.055120	0.072617
H254	H	1.569586	0.444880	0.572617
H255	H	1.491419	-0.075550	0.082050
H256	H	1.991419	0.424450	0.582050
O257	O	1.660896	0.003462	0.235698
O258	O	2.160896	0.503462	0.735698
H259	H	1.608532	-0.020230	0.259490
H260	H	2.108532	0.479770	0.759490
H261	H	1.072122	0.152146	-0.000039
H262	H	1.572122	0.652146	0.499961
O263	O	1.481463	-0.452077	-0.139240
O264	O	1.981463	0.047923	0.360760
H265	H	1.480770	-0.478082	-0.170683
H266	H	1.980770	0.021918	0.329317
O267	O	1.660963	0.003431	0.872779
O268	O	2.160963	0.503431	1.372779
H269	H	1.646497	0.008901	0.913477
H270	H	2.146497	0.508901	1.413477
H271	H	0.915780	-0.040475	-0.035812
H272	H	1.415780	0.459525	0.464188
O273	O	1.491664	-0.068876	-0.093994
O274	O	1.991664	0.431124	0.406006
H275	H	1.490968	-0.094878	-0.125439
H276	H	1.990968	0.405122	0.374561
O277	O	1.481374	-0.452100	0.139202
O278	O	1.981374	0.047900	0.639202
H279	H	1.395499	-0.457759	0.160892
H280	H	1.895499	0.042241	0.660892
H281	H	1.485332	-0.307486	-0.127281
H282	H	1.985332	0.192514	0.372719
O283	O	1.482693	-0.405613	-0.139238
O284	O	1.982693	0.094387	0.360762
H285	H	1.483396	-0.379602	-0.170677
H286	H	1.983396	0.120398	0.329323
O287	O	1.475237	-0.684049	0.093977
O288	O	1.975237	-0.184049	0.593977
H289	H	1.390221	-0.657057	0.096153
H290	H	1.890221	-0.157057	0.596153
H291	H	1.239862	0.162760	0.374309
H292	H	1.739862	0.662760	0.874309
H293	H	1.724215	-0.020510	0.530925
H294	H	2.224215	0.479490	1.030925
O295	O	1.303170	0.138834	0.127200
O296	O	1.803170	0.638834	0.627200
H297	H	1.243339	0.161478	0.154129
H298	H	1.743339	0.661478	0.654129
O299	O	1.746955	-0.029123	0.632556
O300	O	2.246955	0.470877	1.132556
H301	H	1.732484	-0.023654	0.673254
H302	H	2.232484	0.476346	1.173254
O303	O	1.660851	0.003468	0.127169
O304	O	2.160851	0.503468	0.627169
H305	H	1.721485	0.024029	0.103374
H306	H	2.221485	0.524029	0.603374
H307	H	1.239914	0.162757	0.530970
H308	H	1.739914	0.662757	1.030970
O309	O	1.472517	-0.788834	-0.094035
O310	O	1.972517	-0.288834	0.405965
H311	H	1.471459	-0.828130	-0.086434
H312	H	1.971459	-0.328130	0.413566
H313	H	1.478748	-0.550224	0.127245
H314	H	1.978748	-0.050224	0.627245
H315	H	1.326021	0.130197	0.865901
H316	H	1.826021	0.630197	1.365901
H317	H	1.239878	0.162760	0.469035
H318	H	1.739878	0.662760	0.969035
H319	H	1.325986	0.130195	0.771176
H320	H	1.825986	0.630195	1.271176
