data_functionalizedCrystal
_audit_creation_method	'MofGen! by Chris Wilmer'
_symmetry_space_group_name_H-M	'P1'
_symmetry_Int_Tables_number	1
_symmetry_cell_setting	triclinic
loop_
_symmetry_equiv_pos_as_xyz
  x,y,z
_cell_length_a	19.288859
_cell_length_b	16.053789
_cell_length_c	19.288865
_cell_angle_alpha	87.098675
_cell_angle_beta	96.865014
_cell_angle_gamma	92.897197
loop_
_atom_site_label
_atom_site_type_symbol
_atom_site_fract_x
_atom_site_fract_y
_atom_site_fract_z
O1	O	0.923956	0.069456	-0.089232
O2	O	0.721695	0.069455	-0.100925
O3	O	0.828669	0.069439	0.006053
O4	O	0.816982	0.069472	-0.196209
O5	O	0.823452	-0.069421	0.011263
O6	O	0.716477	-0.069405	-0.095715
O7	O	0.918739	-0.069404	-0.084021
Zn8	Zn	0.816780	-0.091452	-0.089041
Zn9	Zn	0.823654	0.091503	-0.095906
O10	O	0.811764	-0.069388	-0.190999
C11	C	0.693210	0.000025	-0.097944
C12	C	0.616106	0.000024	-0.096817
C13	C	0.052065	0.000034	-0.151961
C14	C	0.124512	0.000039	-0.153026
C15	C	0.169218	0.000027	-0.090256
C16	C	0.141474	0.000032	-0.026417
C17	C	0.069028	0.000036	-0.025354
C18	C	0.288660	-0.048633	-0.041618
C19	C	0.361104	-0.048642	-0.042683
C20	C	0.392664	0.000019	-0.093534
C21	C	0.351770	0.048678	-0.143329
C22	C	0.279325	0.048681	-0.142266
C23	C	0.247774	0.000023	-0.091402
C24	C	0.498956	0.000025	-0.158524
C25	C	0.571404	0.000034	-0.159587
C26	C	0.588364	0.000019	-0.032976
C27	C	0.515917	0.000018	-0.031915
C28	C	0.471217	0.000017	-0.094691
N29	N	0.812093	-0.216313	-0.084355
C30	C	0.852447	-0.259996	-0.124737
C31	C	0.849178	-0.347404	-0.121455
C32	C	0.805551	-0.391127	-0.077794
C33	C	0.765196	-0.347437	-0.037407
C34	C	0.768469	-0.260031	-0.040686
C35	C	0.791264	-0.652540	-0.063478
C36	C	0.787992	-0.739952	-0.060204
C37	C	0.871975	-0.739913	-0.144251
C38	C	0.875241	-0.652505	-0.147529
C39	C	0.834889	-0.608824	-0.107140
N40	N	0.802208	-0.480471	-0.074440
N41	N	0.838237	-0.519481	-0.110491
C42	C	0.947224	0.000028	-0.087002
C43	C	1.024328	0.000035	-0.088130
C44	C	0.825684	0.000007	0.034534
C45	C	0.824555	-0.000001	0.111638
N46	N	0.828346	0.216364	-0.100586
C47	C	0.814749	0.000046	-0.219481
C48	C	0.815879	0.000059	-0.296585
C49	C	0.887323	-0.000005	0.156336
C50	C	0.886263	0.000009	0.228783
C51	C	0.822430	0.000009	0.256529
C52	C	0.759654	0.000017	0.211821
C53	C	0.760717	0.000013	0.139376
C54	C	0.770423	-0.048631	0.366640
C55	C	0.769363	-0.048631	0.439085
C56	C	0.819151	0.000028	0.479974
C57	C	0.870011	0.048676	0.448411
C58	C	0.871073	0.048671	0.375966
C59	C	0.821271	0.000015	0.335083
C60	C	0.880774	0.000039	0.603227
C61	C	0.879712	0.000058	0.675674
C62	C	0.753101	0.000058	0.658711
C63	C	0.754166	0.000048	0.586265
C64	C	0.818004	0.000035	0.558528
H65	H	0.015674	0.000037	-0.203078
F66	F	0.748295	-0.606062	-0.020513
F67	F	0.718767	-0.393973	0.009062
F68	F	0.953072	0.000006	0.276362
F69	F	0.898879	-0.213471	-0.171209
F70	F	0.715237	-0.100410	0.472669
F71	F	0.404618	-0.100435	0.010309
F72	F	0.955266	-0.000001	0.126820
F73	F	0.892128	-0.393891	-0.164436
F74	F	0.921651	-0.605979	-0.194022
H75	H	0.735609	-0.224466	-0.007803
H76	H	0.701128	0.000062	0.681301
H77	H	0.262971	-0.088260	-0.000205
H78	H	0.493334	0.000013	0.020063
F79	F	0.925197	0.100449	0.342377
H80	H	0.910553	0.088299	0.481702
H81	H	0.904828	-0.775488	-0.177133
F82	F	0.741557	-0.786484	-0.013731
H83	H	0.703053	0.000047	0.549871
F84	F	0.451380	0.000026	-0.225335
F85	F	0.948715	0.000021	0.573704
H86	H	0.729878	-0.088259	0.333354
H87	H	0.930827	0.000059	0.712067
F88	F	0.691720	0.000023	0.241351
F89	F	0.693907	0.000017	0.091803
F90	F	0.189054	0.000022	0.040387
H91	H	0.147100	0.000031	-0.205006
H92	H	0.377464	0.088300	-0.184738
F93	F	0.235806	0.100470	-0.195258
H94	H	0.593986	0.000041	-0.211568
H95	H	0.624764	0.000016	0.018132
H96	H	0.046446	0.000036	0.026626
