data_functionalizedCrystal
_audit_creation_method	'MofGen! by Chris Wilmer'
_symmetry_space_group_name_H-M	'P1'
_symmetry_Int_Tables_number	1
_symmetry_cell_setting	triclinic
loop_
_symmetry_equiv_pos_as_xyz
  x,y,z
_cell_length_a	17.766277
_cell_length_b	19.288862
_cell_length_c	19.288857
_cell_angle_alpha	96.865805
_cell_angle_beta	90.008526
_cell_angle_gamma	89.973986
loop_
_atom_site_label
_atom_site_type_symbol
_atom_site_fract_x
_atom_site_fract_y
_atom_site_fract_z
O1	O	0.062888	-0.921352	0.086641
O2	O	0.396221	-0.588018	0.419975
O3	O	0.729555	-0.254685	0.753308
O4	O	0.062826	-0.719091	0.098332
O5	O	0.396160	-0.385757	0.431665
O6	O	0.729493	-0.052424	0.764998
O7	O	0.062850	-0.826068	-0.008644
O8	O	0.396183	-0.492735	0.324689
O9	O	0.729517	-0.159402	0.658022
O10	O	0.062864	-0.814374	0.193617
O11	O	0.396198	-0.481041	0.526951
O12	O	0.729531	-0.147707	0.860284
O13	O	-0.062339	-0.826050	-0.008650
O14	O	0.270995	-0.492716	0.324684
O15	O	0.604328	-0.159383	0.658017
O16	O	-0.062362	-0.719072	0.098326
O17	O	0.270971	-0.385738	0.431660
O18	O	0.604304	-0.052405	0.764993
O19	O	-0.062300	-0.921333	0.086636
O20	O	0.271033	-0.588000	0.419969
O21	O	0.604366	-0.254666	0.753303
Cu22	Cu	-0.073762	-0.820201	0.092481
Cu23	Cu	0.259571	-0.486867	0.425814
Cu24	Cu	0.592905	-0.153534	0.759147
Cu25	Cu	0.074288	-0.820223	0.092487
Cu26	Cu	0.407621	-0.486890	0.425820
Cu27	Cu	0.740955	-0.153556	0.759154
O28	O	-0.062324	-0.814355	0.193612
O29	O	0.271009	-0.481022	0.526945
O30	O	0.604343	-0.147689	0.860279
C31	C	0.000224	-0.693205	0.097953
C32	C	0.333557	-0.359871	0.431287
C33	C	0.666891	-0.026538	0.764620
C34	C	0.000200	-0.616101	0.096825
C35	C	0.333534	-0.282768	0.430158
C36	C	0.666867	0.050566	0.763491
N37	N	-0.177892	-0.820190	0.092476
N38	N	0.155441	-0.486857	0.425809
N39	N	0.488774	-0.153524	0.759142
C40	C	0.000214	-0.571403	0.159593
C41	C	0.333548	-0.238070	0.492927
C42	C	0.666881	0.095264	0.826260
C43	C	0.000219	-0.498956	0.158533
C44	C	0.333552	-0.165623	0.491867
C45	C	0.666885	0.167711	0.825200
C46	C	0.000224	-0.471210	0.094701
C47	C	0.333557	-0.137877	0.428034
C48	C	0.666891	0.195457	0.761368
C49	C	0.000206	-0.515918	0.031924
C50	C	0.333539	-0.182585	0.365258
C51	C	0.666872	0.150749	0.698591
C52	C	0.000194	-0.588363	0.032986
C53	C	0.333527	-0.255030	0.366320
C54	C	0.666860	0.078303	0.699653
C55	C	0.044099	-0.362956	0.044525
C56	C	0.377432	-0.029623	0.377858
C57	C	0.710766	0.303711	0.711191
C58	C	0.044116	-0.290511	0.043465
C59	C	0.377449	0.042822	0.376799
C60	C	0.710782	0.376155	0.710132
C61	C	0.000257	-0.247764	0.091423
C62	C	0.333591	0.085569	0.424757
C63	C	0.666924	0.418902	0.758090
C64	C	-0.043607	-0.277469	0.140452
C65	C	0.289726	0.055864	0.473786
C66	C	0.623059	0.389198	0.807119
C67	C	-0.043619	-0.349915	0.141514
C68	C	0.289714	-0.016581	0.474848
C69	C	0.623047	0.316752	0.808181
C70	C	0.000237	-0.392656	0.093543
C71	C	0.333570	-0.059323	0.426876
C72	C	0.666903	0.274011	0.760209
C73	C	0.000275	-0.124510	0.153047
C74	C	0.333609	0.208823	0.486380
C75	C	0.666942	0.542156	0.819713
C76	C	0.000275	-0.052062	0.151984
C77	C	0.333608	0.281271	0.485317
C78	C	0.666942	0.614605	0.818651
C79	C	0.000270	-0.069026	0.025373
C80	C	0.333603	0.264308	0.358707
C81	C	0.666936	0.597641	0.692040
C82	C	0.000262	-0.141472	0.026438
C83	C	0.333596	0.191861	0.359771
C84	C	0.666929	0.525194	0.693104
C85	C	0.000269	-0.169210	0.090276
C86	C	0.333602	0.164123	0.423610
C87	C	0.666935	0.497457	0.756943
C88	C	-0.217269	-0.867575	0.045130
C89	C	0.116065	-0.534242	0.378463
C90	C	0.449398	-0.200909	0.711797
C91	C	-0.296071	-0.867579	0.045127
C92	C	0.037263	-0.534246	0.378460
C93	C	0.370596	-0.200913	0.711793
C94	C	-0.335493	-0.820205	0.092481
C95	C	-0.002160	-0.486871	0.425815
C96	C	0.331174	-0.153538	0.759148
C97	C	-0.296107	-0.772811	0.139831
C98	C	0.037226	-0.439478	0.473164
C99	C	0.370560	-0.106144	0.806497
C100	C	-0.217307	-0.772804	0.139828
C101	C	0.116027	-0.439470	0.473161
C102	C	0.449360	-0.106137	0.806495
C103	C	-0.460328	-0.810904	0.155769
C104	C	-0.126995	-0.477571	0.489103
C105	C	0.206339	-0.144238	0.822436
C106	C	-0.539127	-0.810916	0.155773
C107	C	-0.205794	-0.477583	0.489106
C108	C	0.127540	-0.144250	0.822439
C109	C	-0.578539	-0.820223	0.092490
C110	C	-0.245206	-0.486890	0.425823
C111	C	0.088127	-0.153557	0.759156
C112	C	-0.539143	-0.829533	0.029200
C113	C	-0.205810	-0.496200	0.362533
C114	C	0.127524	-0.162866	0.695866
C115	C	-0.460343	-0.829526	0.029197
C116	C	-0.127009	-0.496192	0.362530
C117	C	0.206324	-0.162859	0.695864
C118	C	-0.420939	-0.820207	0.092489
C119	C	-0.087605	-0.486874	0.425822
C120	C	0.245728	-0.153541	0.759156
C121	C	-0.703362	-0.867615	0.045136
C122	C	-0.370028	-0.534282	0.378470
C123	C	-0.036695	-0.200949	0.711803
C124	C	-0.782165	-0.867615	0.045132
C125	C	-0.448832	-0.534281	0.378465
C126	C	-0.115498	-0.200948	0.711799
C127	C	-0.782200	-0.772850	0.139842
C128	C	-0.448866	-0.439516	0.473176
C129	C	-0.115533	-0.106183	0.806509
C130	C	-0.703398	-0.772847	0.139840
C131	C	-0.370065	-0.439514	0.473174
C132	C	-0.036731	-0.106180	0.806507
C133	C	-0.663984	-0.820234	0.092488
C134	C	-0.330650	-0.486900	0.425821
C135	C	0.002683	-0.153567	0.759155
N136	N	0.178418	-0.820239	0.092486
N137	N	0.511752	-0.486906	0.425820
N138	N	0.845085	-0.153572	0.759153
C139	C	0.000290	0.052781	0.087017
C140	C	0.333623	0.386115	0.420350
C141	C	0.666957	0.719448	0.753683
C142	C	0.000279	-0.024321	0.088151
C143	C	0.333612	0.309012	0.421485
C144	C	0.666946	0.642345	0.754818
C145	C	0.000255	-0.825684	-0.034523
C146	C	0.333588	-0.492350	0.298810
C147	C	0.666922	-0.159017	0.632143
C148	C	0.000252	-0.824557	-0.111627
C149	C	0.333586	-0.491223	0.221706
C150	C	0.666919	-0.157890	0.555039
C151	C	0.068493	-0.824041	-0.147835
C152	C	0.401826	-0.490708	0.185498
C153	C	0.735159	-0.157374	0.518832
C154	C	0.068498	-0.822972	-0.220281
C155	C	0.401831	-0.489639	0.113052
C156	C	0.735165	-0.156306	0.446386
C157	C	0.000259	-0.822433	-0.256518
C158	C	0.333592	-0.489100	0.076815
C159	C	0.666926	-0.155767	0.410148
C160	C	-0.067990	-0.822945	-0.220302
C161	C	0.265343	-0.489612	0.113032
C162	C	0.598676	-0.156278	0.446365
C163	C	-0.067994	-0.824007	-0.147856
C164	C	0.265340	-0.490674	0.185477
C165	C	0.598673	-0.157340	0.518811
C166	C	-0.052004	-0.861427	-0.376752
C167	C	0.281329	-0.528094	-0.043419
C168	C	0.614663	-0.194760	0.289914
C169	C	-0.051998	-0.860370	-0.449197
C170	C	0.281336	-0.527036	-0.115864
C171	C	0.614669	-0.193703	0.217469
C172	C	0.000267	-0.819156	-0.479964
C173	C	0.333600	-0.485822	-0.146631
C174	C	0.666933	-0.152489	0.186702
C175	C	0.052537	-0.779008	-0.438279
C176	C	0.385871	-0.445674	-0.104945
C177	C	0.719204	-0.112341	0.228388
C178	C	0.052534	-0.780069	-0.365833
C179	C	0.385867	-0.446736	-0.032500
C180	C	0.719201	-0.113403	0.300834
C181	C	0.000255	-0.821282	-0.335073
C182	C	0.333588	-0.487948	-0.001740
C183	C	0.666922	-0.154615	0.331593
C184	C	0.068517	-0.817480	-0.594726
C185	C	0.401851	-0.484147	-0.261393
C186	C	0.735184	-0.150813	0.071941
C187	C	0.068520	-0.816407	-0.667173
C188	C	0.401853	-0.483074	-0.333839
C189	C	0.735186	-0.149740	-0.000506
C190	C	-0.067970	-0.816387	-0.667193
C191	C	0.265363	-0.483054	-0.333859
C192	C	0.598696	-0.149720	-0.000526
C193	C	-0.067971	-0.817453	-0.594747
C194	C	0.265362	-0.484120	-0.261413
C195	C	0.598696	-0.150786	0.071920
C196	C	0.000275	-0.818003	-0.558518
C197	C	0.333608	-0.484669	-0.225185
C198	C	0.666942	-0.151336	0.108149
C199	C	0.000273	-0.814740	0.219491
C200	C	0.333606	-0.481407	0.552824
C201	C	0.666939	-0.148073	0.886158
C202	C	0.000280	-0.815867	0.296595
C203	C	0.333613	-0.482534	0.629928
C204	C	0.666947	-0.149200	0.963262
H205	H	0.000221	-0.593982	0.211576
H206	H	0.333554	-0.260648	0.544909
H207	H	0.666888	0.072685	0.878242
F208	F	0.000179	-0.635937	-0.033824
F209	F	0.333512	-0.302603	0.299510
F210	F	0.666845	0.030730	0.632843
H211	H	0.000282	-0.015669	0.203100
H212	H	0.333616	0.317665	0.536433
H213	H	0.666949	0.650998	0.869767
H214	H	0.124091	-0.815984	-0.696651
H215	H	0.457425	-0.482650	-0.363318
H216	H	0.790758	-0.149317	-0.029985
H217	H	-0.671269	-0.906198	0.006577
H218	H	-0.337936	-0.572865	0.339910
H219	H	-0.004603	-0.239532	0.673244
F220	F	-0.140602	-0.818002	-0.556210
F221	F	0.192731	-0.484668	-0.222877
F222	F	0.526064	-0.151335	0.110457
H223	H	-0.428245	-0.803313	0.207305
H224	H	-0.094912	-0.469980	0.540639
H225	H	0.238422	-0.136647	0.873972
H226	H	0.124064	-0.824487	-0.118342
H227	H	0.457397	-0.491153	0.214991
H228	H	0.790730	-0.157820	0.548325
F229	F	0.090781	-0.408444	-0.006523
F230	F	0.424115	-0.075111	0.326810
F231	F	0.757448	0.258222	0.660144
H232	H	0.000228	-0.462556	0.209648
H233	H	0.333561	-0.129222	0.542982
H234	H	0.666895	0.204111	0.876315
F235	F	-0.175323	-0.918005	-0.005268
F236	F	0.158010	-0.584671	0.328065
F237	F	0.491344	-0.251338	0.661398
H238	H	-0.328137	-0.906167	0.006570
H239	H	0.005197	-0.572834	0.339904
H240	H	0.338530	-0.239500	0.673237
H241	H	-0.814226	-0.906199	0.006574
H242	H	-0.480892	-0.572866	0.339907
H243	H	-0.147559	-0.239532	0.673240
F244	F	0.108161	-0.737341	-0.321471
F245	F	0.441494	-0.404007	0.011862
F246	F	0.774827	-0.070674	0.345196
F247	F	-0.107622	-0.905310	-0.344018
F248	F	0.225711	-0.571977	-0.010684
F249	F	0.559045	-0.238643	0.322649
F250	F	-0.090288	-0.231980	0.191497
F251	F	0.243046	0.101353	0.524831
F252	F	0.576379	0.434687	0.858164
F253	F	-0.140615	-0.822367	-0.258868
F254	F	0.192719	-0.489034	0.074465
F255	F	0.526052	-0.155700	0.407798
F256	F	-0.338063	-0.722389	0.190227
F257	F	-0.004730	-0.389056	0.523560
F258	F	0.328603	-0.055723	0.856893
F259	F	-0.175398	-0.722368	0.190222
F260	F	0.157936	-0.389035	0.523555
F261	F	0.491269	-0.055702	0.856889
H262	H	-0.123565	-0.824424	-0.118376
H263	H	0.209769	-0.491091	0.214958
H264	H	0.543102	-0.157757	0.548291
H265	H	-0.079338	-0.374097	0.181433
H266	H	0.253995	-0.040764	0.514767
H267	H	0.587329	0.292569	0.848100
H268	H	0.000255	-0.177867	-0.024675
H269	H	0.333588	0.155467	0.308658
H270	H	0.666922	0.488800	0.641991
H271	H	-0.571197	-0.803341	0.207307
H272	H	-0.237864	-0.470007	0.540640
H273	H	0.095469	-0.136674	0.873974
H274	H	-0.814297	-0.734274	0.178396
H275	H	-0.480963	-0.400940	0.511730
H276	H	-0.147630	-0.067607	0.845063
H277	H	0.000270	-0.147095	0.205028
H278	H	0.333603	0.186238	0.538361
H279	H	0.666936	0.519571	0.871695
F280	F	-0.661487	-0.722416	0.190235
F281	F	-0.328154	-0.389083	0.523569
F282	F	0.005179	-0.055750	0.856902
H283	H	-0.428270	-0.837104	-0.022335
H284	H	-0.094936	-0.503771	0.310998
H285	H	0.238397	-0.170437	0.644331
H286	H	-0.123532	-0.815943	-0.696696
H287	H	0.209802	-0.482609	-0.363363
H288	H	0.543135	-0.149276	-0.030029
F289	F	0.000268	-0.039502	-0.042562
F290	F	0.333601	0.293832	0.290771
F291	F	0.666935	0.627165	0.624104
H292	H	0.079836	-0.266331	0.003546
H293	H	0.413169	0.067002	0.336879
H294	H	0.746503	0.400335	0.670212
F295	F	0.141131	-0.822423	-0.258824
F296	F	0.474465	-0.489089	0.074510
F297	F	0.807798	-0.155756	0.407843
H298	H	0.000220	-0.493323	-0.020048
H299	H	0.333554	-0.159989	0.313285
H300	H	0.666887	0.173344	0.646618
H301	H	-0.571231	-0.837111	-0.022332
H302	H	-0.237897	-0.503778	0.311002
H303	H	0.095436	-0.170445	0.644335
H304	H	0.095096	-0.745447	-0.463327
H305	H	0.428429	-0.412114	-0.129994
H306	H	0.761763	-0.078781	0.203340
H307	H	0.124087	-0.817924	-0.565227
H308	H	0.457420	-0.484590	-0.231893
H309	H	0.790754	-0.151257	0.101440
F310	F	-0.107626	-0.903101	-0.493556
F311	F	0.225708	-0.569767	-0.160222
F312	F	0.559041	-0.236434	0.173111
