data_functionalizedCrystal
_audit_creation_method	'MofGen! by Chris Wilmer'
_symmetry_space_group_name_H-M	'P1'
_symmetry_Int_Tables_number	1
_symmetry_cell_setting	triclinic
loop_
_symmetry_equiv_pos_as_xyz
  x,y,z
_cell_length_a	25.639239
_cell_length_b	25.639242
_cell_length_c	16.120297
_cell_angle_alpha	92.869733
_cell_angle_beta	92.868703
_cell_angle_gamma	90.034213
loop_
_atom_site_label
_atom_site_type_symbol
_atom_site_fract_x
_atom_site_fract_y
_atom_site_fract_z
Zn1	Zn	-0.223221	0.784258	-0.471560
Zn2	Zn	-0.306221	0.788606	-0.332144
Zn3	Zn	-0.218795	0.701259	-0.332144
Zn4	Zn	-0.310618	0.696782	-0.471487
O5	O	-0.264714	0.742726	-0.401834
O6	O	-0.234243	0.857999	-0.453097
O7	O	-0.290932	0.780713	-0.215482
O8	O	-0.146218	0.712323	-0.350668
O9	O	-0.295224	0.861194	-0.350669
O10	O	-0.149470	0.773302	-0.453096
O11	O	-0.226700	0.716540	-0.215482
O12	O	-0.230963	0.627501	-0.350597
O13	O	-0.302717	0.704692	-0.588158
O14	O	-0.298425	0.624211	-0.452972
O15	O	-0.238506	0.768960	-0.588212
O16	O	-0.379969	0.776372	-0.350598
O17	O	-0.383199	0.708908	-0.452972
C18	C	-0.264691	0.606886	-0.401777
C19	C	-0.264695	0.548772	-0.401773
C20	C	-0.299896	0.186704	-0.455090
C21	C	-0.299899	0.132100	-0.455103
O22	O	-0.329801	0.102415	-0.500387
N23	N	-0.264730	0.106486	-0.401888
C24	C	-0.229551	0.135479	-0.348662
O25	O	-0.199637	0.108678	-0.303401
C26	C	-0.229546	0.190083	-0.348654
C27	C	-0.264721	0.215694	-0.401867
C28	C	-0.335067	0.212316	-0.508298
C29	C	-0.335064	0.266917	-0.508284
C30	C	-0.299889	0.295906	-0.455061
C31	C	-0.264718	0.270295	-0.401852
C32	C	-0.194365	0.219075	-0.295434
C33	C	-0.194362	0.273682	-0.295430
C34	C	-0.229537	0.299293	-0.348643
C35	C	-0.229540	0.353886	-0.348614
N36	N	-0.264709	0.379499	-0.401829
C37	C	-0.299884	0.350510	-0.455052
C38	C	-0.229565	0.020808	-0.348685
C39	C	-0.229573	-0.033795	-0.348689
C40	C	-0.299920	-0.037170	-0.455130
C41	C	-0.299915	0.017433	-0.455122
C42	C	-0.264735	0.046422	-0.401900
C43	C	-0.299875	0.465176	-0.455018
C44	C	-0.299870	0.519782	-0.454996
C45	C	-0.229521	0.523153	-0.348558
C46	C	-0.229527	0.468552	-0.348576
C47	C	-0.264706	0.439565	-0.401813
O48	O	-0.199652	0.383604	-0.303356
O49	O	-0.329788	0.377317	-0.500314
C50	C	-0.400555	0.742640	-0.401795
C51	C	-0.458670	0.742650	-0.401807
C52	C	-0.817342	0.777939	-0.348618
C53	C	-0.871947	0.777959	-0.348629
O54	O	-0.898744	0.807873	-0.303364
N55	N	-0.900955	0.742817	-0.401889
C56	C	-0.875355	0.707656	-0.455147
O57	O	-0.905043	0.677767	-0.500450
C58	C	-0.820752	0.707639	-0.455139
C59	C	-0.791746	0.742780	-0.401870
C60	C	-0.788336	0.813077	-0.295354
C61	C	-0.733735	0.813057	-0.295342
C62	C	-0.708140	0.777897	-0.348594
C63	C	-0.737145	0.742759	-0.401858
C64	C	-0.795154	0.672481	-0.508401
C65	C	-0.740547	0.672467	-0.508389
C66	C	-0.711541	0.707608	-0.455120
C67	C	-0.656949	0.707579	-0.455098
N68	N	-0.627941	0.742721	-0.401838
C69	C	-0.653536	0.777880	-0.348586
C70	C	-0.990027	0.707695	-0.455160
C71	C	-1.044629	0.707709	-0.455164
C72	C	-1.041216	0.778013	-0.348647
C73	C	-0.986613	0.777996	-0.348639
C74	C	-0.961018	0.742837	-0.401900
C75	C	-0.538871	0.777834	-0.348565
C76	C	-0.484265	0.777809	-0.348555
C77	C	-0.487683	0.707507	-0.455074
C78	C	-0.542283	0.707530	-0.455081
C79	C	-0.567876	0.742698	-0.401824
O80	O	-0.630116	0.677681	-0.500343
O81	O	-0.623843	0.807769	-0.303299
C82	C	-0.128343	0.742827	-0.401890
C83	C	-0.070229	0.742870	-0.401914
C84	C	-0.271596	0.735842	-0.619280
C85	C	-0.274528	0.732908	-0.711943
C86	C	-0.264737	0.879098	-0.401891
C87	C	-0.264746	0.937211	-0.401915
C88	C	-0.279871	0.727532	-0.881598
C89	C	-0.249400	0.758024	-0.922921
C90	C	-0.252373	0.755033	-1.017323
C91	C	-0.276899	0.730522	-0.787188
C92	C	-0.257821	0.749614	-0.185233
C93	C	-0.254741	0.752650	-0.092571
H94	H	-0.328560	-0.060784	-0.498470
C95	C	-0.176038	0.768383	-0.824907
C96	C	-0.211163	0.796296	-0.874983
H97	H	-0.152433	0.792010	-0.795310
H98	H	-0.157090	0.744566	-0.858871
H99	H	-0.194769	0.749651	-0.786571
H100	H	-0.192431	0.815025	-0.913324
H101	H	-0.230112	0.820122	-0.841017
H102	H	-0.363711	0.188718	-0.551644
C103	C	-0.353225	0.717182	-0.979618
C104	C	-0.318104	0.689265	-0.929543
H105	H	-0.376831	0.693558	-1.009219
H106	H	-0.334494	0.735915	-1.017943
H107	H	-0.372176	0.741000	-0.945648
H108	H	-0.299151	0.665449	-0.963514
H109	H	-0.336838	0.670523	-0.891213
C110	C	-0.369405	0.510952	-0.560217
C111	C	-0.338534	0.547933	-0.513496
H112	H	-0.393271	0.528331	-0.596335
H113	H	-0.388218	0.490788	-0.523842
H114	H	-0.347661	0.488662	-0.592171
H115	H	-0.360278	0.570220	-0.481536
H116	H	-0.319720	0.568106	-0.549876
H117	H	-0.328519	0.441581	-0.498370
H118	H	-0.363706	0.287764	-0.551617
H119	H	-0.962999	0.806611	-0.305264
H120	H	-0.719711	0.643837	-0.551763
H121	H	-1.062066	0.806643	-0.305289
H122	H	-0.710122	0.841673	-0.251968
C123	C	-0.369448	0.008599	-0.560336
C124	C	-0.338575	0.045582	-0.513622
H125	H	-0.393312	0.025976	-0.596457
H126	H	-0.388261	-0.011561	-0.523956
H127	H	-0.347705	-0.013694	-0.592286
H128	H	-0.360318	0.067873	-0.481667
H129	H	-0.319760	0.065751	-0.550007
C130	C	-0.160038	-0.024960	-0.243477
C131	C	-0.190911	-0.061943	-0.290191
H132	H	-0.136166	-0.042337	-0.207369
H133	H	-0.181776	-0.002673	-0.211521
H134	H	-0.141228	-0.004793	-0.279865
H135	H	-0.209724	-0.082107	-0.253803
H136	H	-0.169170	-0.084238	-0.322149
C137	C	-0.604120	0.636849	-0.466563
C138	C	-0.574167	0.668898	-0.513629
H139	H	-0.623797	0.612999	-0.502714
H140	H	-0.627180	0.657791	-0.434864
H141	H	-0.581693	0.618013	-0.430200
H142	H	-0.596594	0.687737	-0.549988
H143	H	-0.551105	0.647953	-0.545343
C144	C	-0.218637	0.085738	-0.236544
C145	C	-0.190899	0.052672	-0.290168
H146	H	-0.194765	0.105409	-0.200423
H147	H	-0.240375	0.065428	-0.204602
H148	H	-0.239577	0.108808	-0.268242
H149	H	-0.169962	0.029600	-0.258470
H150	H	-0.169152	0.072984	-0.322114
H151	H	-1.068241	0.679089	-0.498533
H152	H	-0.818761	0.643863	-0.551774
H153	H	-0.165723	0.198232	-0.252100
H154	H	-0.200886	0.447698	-0.305244
C155	C	-0.124827	0.271530	-0.190215
C156	C	-0.155694	0.305546	-0.236917
H157	H	-0.100960	0.291202	-0.154087
H158	H	-0.106016	0.249104	-0.226602
H159	H	-0.146573	0.251221	-0.158273
H160	H	-0.133948	0.325853	-0.268864
H161	H	-0.174507	0.327981	-0.200525
H162	H	-0.969190	0.679060	-0.498529
H163	H	-0.200884	0.546766	-0.305222
H164	H	-0.460650	0.806425	-0.305174
C165	C	-0.429802	0.696632	-0.567180
C166	C	-0.459539	0.668865	-0.513612
H167	H	-0.412429	0.672778	-0.603325
H168	H	-0.404720	0.717554	-0.535448
H169	H	-0.452093	0.718390	-0.599107
H170	H	-0.437248	0.647110	-0.481681
H171	H	-0.484625	0.647934	-0.545348
C172	C	-0.529997	0.847319	-0.243266
C173	C	-0.566996	0.816487	-0.290017
H174	H	-0.547362	0.871177	-0.207116
H175	H	-0.509825	0.866140	-0.279620
H176	H	-0.507718	0.825548	-0.211344
H177	H	-0.589274	0.838258	-0.321944
H178	H	-0.587177	0.797665	-0.253658
C179	C	-0.870523	0.844385	-0.248139
C180	C	-0.816467	0.851764	-0.236872
H181	H	-0.887886	0.868282	-0.212051
H182	H	-0.879136	0.809672	-0.235821
H183	H	-0.881206	0.850205	-0.304187
H184	H	-0.805783	0.845941	-0.180826
H185	H	-0.807849	0.886485	-0.249185
