data_functionalizedCrystal
_audit_creation_method	'MofGen! by Chris Wilmer'
_symmetry_space_group_name_H-M	'P1'
_symmetry_Int_Tables_number	1
_symmetry_cell_setting	triclinic
loop_
_symmetry_equiv_pos_as_xyz
  x,y,z
_cell_length_a	16.992694
_cell_length_b	15.944551
_cell_length_c	16.053802
_cell_angle_alpha	92.564789
_cell_angle_beta	87.249047
_cell_angle_gamma	87.083481
loop_
_atom_site_label
_atom_site_type_symbol
_atom_site_fract_x
_atom_site_fract_y
_atom_site_fract_z
O1	O	1.043704	0.174798	-0.069327
O2	O	1.543704	0.674798	0.430673
O3	O	0.815419	0.172843	-0.069352
O4	O	1.315419	0.672843	0.430648
O5	O	0.935795	0.051964	-0.069332
O6	O	1.435795	0.551964	0.430668
O7	O	0.923328	0.295677	-0.069348
O8	O	1.423328	0.795677	0.430652
O9	O	0.929169	0.058588	0.069526
O10	O	1.429169	0.558588	0.569526
O11	O	0.808793	0.179467	0.069506
O12	O	1.308793	0.679467	0.569506
O13	O	1.037078	0.181422	0.069530
O14	O	1.537078	0.681422	0.569530
Zn15	Zn	0.921884	0.181497	0.091565
Zn16	Zn	1.421884	0.681497	0.591565
Zn17	Zn	0.930613	0.172769	-0.091386
Zn18	Zn	1.430613	0.672769	0.408614
O19	O	0.916702	0.302301	0.069510
O20	O	1.416702	0.802301	0.569510
C21	C	0.782894	0.173641	0.000074
C22	C	1.282894	0.673641	0.500074
C23	C	0.695850	0.166141	0.000065
C24	C	1.195850	0.666141	0.500065
C25	C	0.645613	0.238506	0.000061
C26	C	1.145613	0.738506	0.500061
C27	C	0.563826	0.231454	0.000073
C28	C	1.063826	0.731454	0.500073
C29	C	0.532276	0.152037	0.000083
C30	C	1.032276	0.652037	0.500083
C31	C	0.582519	0.079667	0.000089
C32	C	1.082519	0.579667	0.500089
C33	C	0.664305	0.086719	0.000083
C34	C	1.164305	0.586719	0.500083
C35	C	0.288676	0.122807	0.000107
C36	C	0.788676	0.622807	0.500107
C37	C	0.206884	0.115759	0.000111
C38	C	0.706884	0.615759	0.500111
C39	C	0.188196	0.267548	0.000095
C40	C	0.688196	0.767548	0.500095
C41	C	0.269984	0.274593	0.000084
C42	C	0.769984	0.774593	0.500084
C43	C	0.320220	0.202223	0.000095
C44	C	0.820220	0.702223	0.500095
N45	N	0.448677	0.144827	0.000092
N46	N	0.948677	0.644827	0.500092
N47	N	0.403818	0.209434	0.000092
N48	N	0.903818	0.709434	0.500092
C49	C	0.931964	0.023948	0.000097
C50	C	1.431964	0.523948	0.500097
C51	C	0.930413	-0.069402	0.000098
C52	C	1.430413	0.430598	0.500098
C53	C	0.852090	-0.289513	0.000078
C54	C	1.352090	0.210487	0.500078
C55	C	0.885194	-0.344825	0.068547
C56	C	1.385194	0.155175	0.568547
C57	C	0.927606	-0.240317	0.000091
C58	C	1.427606	0.259683	0.500091
C59	C	0.891744	-0.351338	-0.068356
C60	C	1.391744	0.148662	0.431644
C61	C	0.924889	-0.405412	0.000081
C62	C	1.424889	0.094588	0.500081
C63	C	0.960728	-0.294396	0.068617
C64	C	1.460728	0.205604	0.568617
C65	C	0.967271	-0.300907	-0.068348
C66	C	1.467271	0.199093	0.431652
C67	C	1.000429	-0.356196	0.000138
C68	C	1.500429	0.143804	0.500138
C69	C	0.929169	-0.145209	0.000098
C70	C	1.429169	0.354791	0.500098
C71	C	0.923332	-0.500518	0.000080
C72	C	1.423332	-0.000518	0.500080
C73	C	1.069603	0.180624	0.000103
C74	C	1.569603	0.680624	0.500103
C75	C	1.156648	0.188124	0.000106
C76	C	1.656648	0.688124	0.500106
C77	C	0.920533	0.330318	0.000079
C78	C	1.420533	0.830318	0.500079
C79	C	0.922085	0.423667	0.000073
C80	C	1.422085	0.923667	0.500073
N81	N	0.915931	0.187453	0.216424
N82	N	1.415931	0.687453	0.716424
N83	N	0.936572	0.166806	-0.216246
N84	N	1.436572	0.666806	0.283754
C85	C	0.967170	0.136040	0.260127
C86	C	1.467170	0.636040	0.760127
C87	C	0.963014	0.140215	0.347533
C88	C	1.463014	0.640215	0.847533
C89	C	0.907622	0.195808	0.391235
C90	C	1.407622	0.695808	0.891235
C91	C	0.856378	0.247223	0.347526
C92	C	1.356378	0.747223	0.847526
C93	C	0.860531	0.243043	0.260121
C94	C	1.360531	0.743043	0.760121
C95	C	0.889481	0.214042	0.652641
C96	C	1.389481	0.714042	1.152641
C97	C	0.885333	0.218220	0.740052
C98	C	1.385333	0.718220	1.240052
C99	C	0.991968	0.111209	0.740053
C100	C	1.491968	0.611209	1.240053
C101	C	0.996120	0.107038	0.652646
C102	C	1.496120	0.607038	1.152646
C103	C	0.944873	0.158450	0.608945
C104	C	1.444873	0.658450	1.108945
N105	N	0.903374	0.200078	0.480578
N106	N	1.403374	0.700078	0.980578
N107	N	0.949118	0.154175	0.519604
N108	N	1.449118	0.654175	1.019604
H109	H	0.147286	0.326467	0.000088
H110	H	0.647286	0.826467	0.500088
H111	H	1.001946	-0.281397	-0.126229
H112	H	1.501946	0.218603	0.373771
C113	C	0.838317	-0.371159	0.146733
C114	C	1.338317	0.128841	0.646733
H115	H	0.785625	-0.348197	0.146646
H116	H	1.285625	0.151803	0.646646
H117	H	0.862316	-0.350792	0.195353
H118	H	1.362316	0.149208	0.695353
H119	H	0.838076	-0.430740	0.146423
H120	H	1.338076	0.069260	0.646423
H121	H	1.063164	-0.385145	0.000184
H122	H	1.563164	0.114855	0.500184
C123	C	1.057046	0.045880	0.604580
C124	C	1.557046	0.545880	1.104580
H125	H	1.086963	0.015852	0.643127
H126	H	1.586963	0.515852	1.143127
H127	H	1.091305	0.076675	0.570472
H128	H	1.591305	0.576675	1.070472
H129	H	1.030454	0.007371	0.570497
H130	H	1.530454	0.507371	1.070497
C131	C	1.048327	0.054653	0.788125
C132	C	1.548327	0.554653	1.288125
H133	H	1.037918	0.065097	0.846439
H134	H	1.537918	0.565097	1.346439
H135	H	1.101337	0.066631	0.773792
H136	H	1.601337	0.566631	1.273792
H137	H	1.040483	-0.002670	0.773810
H138	H	1.540483	0.497330	1.273810
C139	C	1.000098	-0.260771	0.146905
C140	C	1.500098	0.239229	0.646905
H141	H	1.000814	-0.201253	0.146446
H142	H	1.500814	0.298747	0.646446
H143	H	1.052625	-0.284167	0.147113
H144	H	1.552625	0.215833	0.647113
H145	H	0.971127	-0.276137	0.195459
H146	H	1.471127	0.223863	0.695459
C147	C	0.767409	-0.250196	0.000147
C148	C	1.267409	0.249804	0.500147
H149	H	0.761616	-0.219136	-0.048525
H150	H	1.261616	0.280864	0.451475
H151	H	0.757366	-0.213730	0.048325
H152	H	1.257366	0.286270	0.548325
H153	H	0.731001	-0.293476	0.000670
H154	H	1.231001	0.206524	0.500670
C155	C	0.824358	0.279327	0.788123
C156	C	1.324358	0.779327	1.288123
H157	H	0.794415	0.309329	0.749578
H158	H	1.294415	0.809329	1.249578
H159	H	0.850901	0.317851	0.822230
H160	H	1.350901	0.817851	1.322230
H161	H	0.790119	0.248478	0.822207
H162	H	1.290119	0.748478	1.322207
H163	H	0.862556	-0.376319	-0.126245
H164	H	1.362556	0.123681	0.373755
C165	C	0.508569	0.311055	0.000065
C166	C	1.008569	0.811055	0.500065
H167	H	0.539073	0.359362	0.000048
H168	H	1.039073	0.859362	0.500048
H169	H	0.473973	0.313775	0.048491
H170	H	0.973973	0.813775	0.548491
H171	H	0.478579	0.309145	-0.048361
H172	H	0.978579	0.809145	0.451639
C173	C	1.028101	0.074885	0.212062
C174	C	1.528101	0.574885	0.712062
H175	H	1.058015	0.044858	0.250612
H176	H	1.558015	0.544858	0.750612
H177	H	1.062361	0.105678	0.177954
H178	H	1.562361	0.605678	0.677954
H179	H	1.001509	0.036375	0.177979
H180	H	1.501509	0.536375	0.677979
C181	C	1.019384	0.083668	0.395602
C182	C	1.519384	0.583668	0.895602
H183	H	1.052976	0.049970	0.357057
H184	H	1.552976	0.549970	0.857057
H185	H	0.989567	0.048417	0.429711
H186	H	1.489567	0.548417	0.929711
H187	H	1.050401	0.117738	0.429686
H188	H	1.550401	0.617738	0.929686
C189	C	0.343925	0.043203	0.000113
C190	C	0.843925	0.543203	0.500113
H191	H	0.313419	-0.005103	0.000112
H192	H	0.813419	0.494897	0.500112
H193	H	0.373914	0.045106	0.048535
H194	H	0.873914	0.545106	0.548535
H195	H	0.378522	0.040485	-0.048317
H196	H	0.878522	0.540485	0.451683
H197	H	0.847755	0.255905	0.617067
H198	H	1.347755	0.755905	1.117067
H199	H	0.818806	0.284908	0.224539
H200	H	1.318806	0.784908	0.724539
C201	C	0.680310	0.325865	0.000049
C202	C	1.180310	0.825865	0.500049
H203	H	0.638674	0.367952	0.000056
H204	H	1.138674	0.867952	0.500056
H205	H	0.714130	0.329463	-0.048376
H206	H	1.214130	0.829463	0.451624
H207	H	0.709521	0.334082	0.048476
H208	H	1.209521	0.834082	0.548476
C209	C	0.304682	0.361952	0.000085
C210	C	0.804682	0.861952	0.500085
H211	H	0.263048	0.404042	0.000093
H212	H	0.763048	0.904042	0.500093
H213	H	0.338504	0.365553	-0.048337
H214	H	0.838504	0.865553	0.451663
H215	H	0.333892	0.370163	0.048514
H216	H	0.833892	0.870163	0.548514
C217	C	0.795423	0.308349	0.395592
C218	C	1.295423	0.808349	0.895592
H219	H	0.765491	0.338357	0.357043
H220	H	1.265491	0.838357	0.857043
H221	H	0.821983	0.346866	0.429691
H222	H	1.321983	0.846866	0.929691
H223	H	0.761173	0.277522	0.429684
H224	H	1.261173	0.777522	0.929684
C225	C	0.172181	0.028397	0.000124
C226	C	0.672181	0.528397	0.500124
H227	H	0.213812	-0.013694	0.000136
H228	H	0.713812	0.486306	0.500136
H229	H	0.142971	0.020180	-0.048298
H230	H	0.642971	0.520180	0.451702
H231	H	0.138359	0.024807	0.048553
H232	H	0.638359	0.524807	0.548553
C233	C	0.719565	0.007118	0.000080
C234	C	1.219565	0.507118	0.500080
H235	H	0.689064	-0.041191	0.000078
H236	H	1.189064	0.458809	0.500078
H237	H	0.749558	0.009022	0.048499
H238	H	1.249558	0.509022	0.548499
H239	H	0.754159	0.004406	-0.048353
H240	H	1.254159	0.504406	0.451647
H241	H	0.556825	0.015004	0.000110
H242	H	1.056825	0.515004	0.500110
