data_functionalizedCrystal
_audit_creation_method	'MofGen! by Chris Wilmer'
_symmetry_space_group_name_H-M	'P1'
_symmetry_Int_Tables_number	1
_symmetry_cell_setting	triclinic
loop_
_symmetry_equiv_pos_as_xyz
  x,y,z
_cell_length_a	17.699083
_cell_length_b	27.731996
_cell_length_c	16.776229
_cell_angle_alpha	89.987372
_cell_angle_beta	89.998886
_cell_angle_gamma	82.952202
loop_
_atom_site_label
_atom_site_type_symbol
_atom_site_fract_x
_atom_site_fract_y
_atom_site_fract_z
O1	O	1.003522	0.061128	-0.066187
O2	O	1.503522	0.561128	0.433813
O3	O	0.783071	0.069081	-0.066214
O4	O	1.283071	0.569081	0.433786
O5	O	0.900164	-0.005269	-0.066183
O6	O	1.400164	0.494731	0.433817
O7	O	0.886429	0.135479	-0.066219
O8	O	1.386429	0.635479	0.433781
O9	O	0.900148	-0.005274	0.066394
O10	O	1.400148	0.494726	0.566394
O11	O	0.783055	0.069077	0.066362
O12	O	1.283055	0.569077	0.566362
O13	O	1.003506	0.061124	0.066390
O14	O	1.503506	0.561124	0.566390
Zn15	Zn	0.893278	0.065100	0.087425
Zn16	Zn	1.393278	0.565100	0.587425
Zn17	Zn	0.893299	0.065106	-0.087250
Zn18	Zn	1.393299	0.565106	0.412750
O19	O	0.886414	0.135474	0.066358
O20	O	1.386414	0.635474	0.566358
C21	C	0.754869	0.068794	0.000071
C22	C	1.254869	0.568794	0.500071
C23	C	0.670858	0.067939	0.000061
C24	C	1.170858	0.567939	0.500061
C25	C	0.899874	-0.023280	0.000108
C26	C	1.399874	0.476720	0.500108
C27	C	0.899024	-0.076939	0.000116
C28	C	1.399024	0.423061	0.500116
C29	C	0.621840	0.111581	0.000050
C30	C	1.121840	0.611581	0.500050
C31	C	0.542904	0.110775	0.000060
C32	C	1.042904	0.610775	0.500060
C33	C	0.512988	0.066326	0.000076
C34	C	1.012988	0.566326	0.500076
C35	C	0.562013	0.022681	0.000090
C36	C	1.062013	0.522681	0.500090
C37	C	0.640947	0.023488	0.000085
C38	C	1.140947	0.523488	0.500085
C39	C	0.243679	0.019427	0.000110
C40	C	0.743679	0.519427	0.500110
C41	C	0.164739	0.018623	0.000113
C42	C	0.664739	0.518623	0.500113
C43	C	0.145636	0.106714	0.000086
C44	C	0.645636	0.606714	0.500086
C45	C	0.224571	0.107521	0.000081
C46	C	0.724571	0.607521	0.500081
C47	C	0.273588	0.063876	0.000098
C48	C	0.773588	0.563876	0.500098
C49	C	0.359180	0.064750	0.000089
C50	C	0.859180	0.564750	0.500089
C51	C	0.427398	0.065451	0.000080
C52	C	0.927398	0.565451	0.500080
C53	C	0.893686	-0.409672	-0.072191
C54	C	1.393686	0.090328	0.427809
C55	C	0.890459	-0.611342	-0.072205
C56	C	1.390459	-0.111342	0.427795
O57	O	0.890016	-0.637412	-0.133666
O58	O	1.390016	-0.137412	0.366334
N59	N	0.890049	-0.636563	0.000062
N60	N	1.390049	-0.136563	0.500062
C61	C	0.890442	-0.611363	0.072337
C62	C	1.390442	-0.111363	0.572337
O63	O	0.890012	-0.637442	0.133804
O64	O	1.390012	-0.137442	0.633804
C65	C	0.893664	-0.409694	0.072351
C66	C	1.393664	0.090306	0.572351
C67	C	0.894080	-0.384476	0.000079
C68	C	1.394080	0.115524	0.500079
C69	C	0.894102	-0.384454	-0.144456
C70	C	1.394102	0.115546	0.355544
C71	C	0.894912	-0.334040	-0.144452
C72	C	1.394912	0.165960	0.355548
C73	C	0.895307	-0.308844	-0.072182
C74	C	1.395307	0.191156	0.427818
C75	C	0.894891	-0.334062	0.000083
C76	C	1.394891	0.165938	0.500083
C77	C	0.894051	-0.384494	0.144625
C78	C	1.394051	0.115506	0.644625
C79	C	0.894854	-0.334073	0.144622
C80	C	1.394854	0.165927	0.644622
C81	C	0.895271	-0.308856	0.072351
C82	C	1.395271	0.191144	0.572351
C83	C	0.896097	-0.258451	0.072358
C84	C	1.396097	0.241549	0.572358
N85	N	0.896506	-0.233230	0.000091
N86	N	1.396506	0.266770	0.500091
C87	C	0.896111	-0.258427	-0.072179
C88	C	1.396111	0.241573	0.427821
C89	C	0.888752	-0.717242	0.072325
C90	C	1.388752	-0.217242	0.572325
C91	C	0.887948	-0.767660	0.072322
C92	C	1.387948	-0.267660	0.572322
C93	C	0.887963	-0.767635	-0.072221
C94	C	1.387963	-0.267635	0.427779
C95	C	0.888773	-0.717217	-0.072217
C96	C	1.388773	-0.217217	0.427783
C97	C	0.889161	-0.692021	0.000058
C98	C	1.389161	-0.192021	0.500058
C99	C	0.897815	-0.152553	-0.072164
C100	C	1.397815	0.347447	0.427836
C101	C	0.898629	-0.102135	-0.072154
C102	C	1.398629	0.397865	0.427846
C103	C	0.898610	-0.102164	0.072388
C104	C	1.398610	0.397836	0.572388
C105	C	0.897800	-0.152578	0.072378
C106	C	1.397800	0.347422	0.572378
C107	C	0.897400	-0.177771	0.000095
C108	C	1.397400	0.322229	0.500095
O109	O	0.896532	-0.232349	0.133787
O110	O	1.396532	0.267651	0.633787
O111	O	0.896525	-0.232338	-0.133637
O112	O	1.396525	0.267662	0.366363
C113	C	0.892875	-0.460086	-0.072195
C114	C	1.392875	0.039914	0.427805
C115	C	0.892459	-0.485304	0.000070
C116	C	1.392459	0.014696	0.500070
C117	C	0.892854	-0.460108	0.072340
C118	C	1.392854	0.039892	0.572340
C119	C	0.891655	-0.535721	0.000067
C120	C	1.391655	-0.035721	0.500067
C121	C	0.891260	-0.560917	-0.072203
C122	C	1.391260	-0.060917	0.427797
C123	C	0.891669	-0.535696	-0.144469
C124	C	1.391669	-0.035696	0.355531
C125	C	0.892480	-0.485282	-0.144465
C126	C	1.392480	0.014718	0.355535
C127	C	0.892444	-0.485329	0.144607
C128	C	1.392444	0.014671	0.644607
C129	C	0.891634	-0.535743	0.144597
C130	C	1.391634	-0.035743	0.644597
C131	C	0.891240	-0.560939	0.072327
C132	C	1.391240	-0.060939	0.572327
C133	C	1.031708	0.061411	0.000103
C134	C	1.531708	0.561411	0.500103
C135	C	1.115719	0.062266	0.000107
C136	C	1.615719	0.562266	0.500107
C137	C	0.886703	0.153485	0.000065
C138	C	1.386703	0.653485	0.500065
C139	C	0.887553	0.207144	0.000052
C140	C	1.387553	0.707144	0.500052
N141	N	0.893270	0.065095	0.206636
N142	N	1.393270	0.565095	0.706636
N143	N	0.893313	0.065106	-0.206461
N144	N	1.393313	0.565106	0.293539
C145	C	0.945134	0.032186	0.248368
C146	C	1.445134	0.532186	0.748368
C147	C	0.945139	0.032186	0.331820
C148	C	1.445139	0.532186	0.831820
C149	C	0.893282	0.065097	0.373539
C150	C	1.393282	0.565097	0.873539
C151	C	0.841412	0.098008	0.331802
C152	C	1.341412	0.598008	0.831802
C153	C	0.841405	0.098005	0.248352
C154	C	1.341405	0.598005	0.748352
C155	C	0.841439	0.098017	0.668349
C156	C	1.341439	0.598017	1.168349
C157	C	0.841452	0.098018	0.751806
C158	C	1.341452	0.598018	1.251806
C159	C	0.945173	0.032198	0.751818
C160	C	1.445173	0.532198	1.251818
C161	C	0.945166	0.032195	0.668367
C162	C	1.445166	0.532195	1.168367
C163	C	0.893294	0.065104	0.626637
C164	C	1.393294	0.565104	1.126637
C165	C	0.893289	0.065103	0.536149
C166	C	1.393289	0.565103	1.036149
C167	C	0.893289	0.065100	0.464026
C168	C	1.393289	0.565100	0.964026
H169	H	0.646191	0.147777	0.000036
H170	H	1.146191	0.647777	0.500036
H171	H	0.887620	-0.788189	0.131172
H172	H	1.387620	-0.288189	0.631172
C173	C	0.892887	-0.457620	0.224108
C174	C	1.392887	0.042380	0.724108
H175	H	0.892533	-0.479866	0.267141
H176	H	1.392533	0.020134	0.767141
H177	H	0.849052	-0.434209	0.227120
H178	H	1.349052	0.065791	0.727120
H179	H	0.937364	-0.441699	0.227119
H180	H	1.437364	0.058301	0.727119
H181	H	0.537649	-0.013510	0.000114
H182	H	1.037649	0.486490	0.500114
C183	C	0.488984	0.158780	0.000040
C184	C	0.988984	0.658780	0.500040
H185	H	0.437688	0.151935	0.000053
H186	H	0.937688	0.651935	0.500053
H187	H	0.497993	0.177008	-0.046201
H188	H	0.997993	0.677008	0.453799
H189	H	0.497996	0.177011	0.046269
H190	H	0.997996	0.677011	0.546269
C191	C	1.002220	-0.003997	0.622476
C192	C	1.502220	0.496003	1.122476
H193	H	0.994796	0.000721	0.566799
H194	H	1.494796	0.500721	1.066799
H195	H	0.994407	-0.036255	0.636159
H196	H	1.494407	0.463745	1.136159
H197	H	1.052665	0.001225	0.636151
H198	H	1.552665	0.501225	1.136151
H199	H	0.889072	-0.696733	0.131183
H200	H	1.389072	-0.196733	0.631183
C201	C	0.784405	0.134218	0.797700
C202	C	1.284405	0.634218	1.297700
H203	H	0.791846	0.129509	0.853376
H204	H	1.291846	0.629509	1.353376
H205	H	0.733956	0.129007	0.784037
H206	H	1.233956	0.629007	1.284037
H207	H	0.792232	0.166476	0.784008
H208	H	1.292232	0.666476	1.284008
C209	C	1.002227	-0.004007	0.797719
C210	C	1.502227	0.495993	1.297719
H211	H	1.033114	-0.023604	0.760919
H212	H	1.533114	0.476396	1.260919
H213	H	0.975250	-0.024108	0.830284
H214	H	1.475250	0.475892	1.330284
H215	H	1.033526	0.013360	0.830261
H216	H	1.533526	0.513360	1.330261
H217	H	0.898970	-0.081605	-0.131008
H218	H	1.398970	0.418395	0.368992
C219	C	1.002177	-0.004017	0.202483
C220	C	1.502177	0.495983	0.702483
H221	H	1.033060	-0.023619	0.239292
H222	H	1.533060	0.476381	0.739292
H223	H	1.033470	0.013344	0.169916
H224	H	1.533470	0.513344	0.669916
H225	H	0.975186	-0.024120	0.169944
H226	H	1.475186	0.475880	0.669944
H227	H	0.105716	0.142252	0.000076
H228	H	0.605716	0.642252	0.500076
H229	H	0.889111	-0.696688	-0.131067
H230	H	1.389111	-0.196688	0.368933
H231	H	0.283581	-0.016112	0.000125
H232	H	0.783581	0.483888	0.500125
C233	C	0.891231	-0.563418	-0.223964
C234	C	1.391231	-0.063418	0.276036
H235	H	0.890683	-0.597055	-0.213608
H236	H	1.390683	-0.097055	0.286392
H237	H	0.935517	-0.558897	-0.253659
H238	H	1.435517	-0.058897	0.246341
H239	H	0.847206	-0.551411	-0.253660
H240	H	1.347206	-0.051411	0.246340
H241	H	0.680858	-0.012050	0.000093
H242	H	1.180858	0.487950	0.500093
H243	H	0.897485	-0.173060	-0.131024
H244	H	1.397485	0.326940	0.368976
C245	C	0.891172	-0.563479	0.224099
C246	C	1.391172	-0.063479	0.724099
H247	H	0.890635	-0.597115	0.213754
H248	H	1.390635	-0.097115	0.713754
H249	H	0.847146	-0.551474	0.253780
H250	H	1.347146	-0.051474	0.753780
H251	H	0.935458	-0.558964	0.253804
H252	H	1.435458	-0.058964	0.753804
C253	C	0.887522	-0.795356	-0.151716
C254	C	1.387522	-0.295356	0.348284
H255	H	0.886977	-0.828993	-0.141360
H256	H	1.386977	-0.328993	0.358640
H257	H	0.931805	-0.790833	-0.181415
H258	H	1.431805	-0.290833	0.318585
H259	H	0.843493	-0.783350	-0.181408
H260	H	1.343493	-0.283350	0.318592
H261	H	0.895249	-0.313512	-0.203303
H262	H	1.395249	0.186488	0.296697
C263	C	0.895285	-0.306361	0.224127
C264	C	1.395285	0.193639	0.724127
H265	H	0.894927	-0.328604	0.267163
H266	H	1.394927	0.171396	0.767163
H267	H	0.851448	-0.282952	0.227128
H268	H	1.351448	0.217048	0.727128
H269	H	0.939760	-0.290437	0.227142
H270	H	1.439760	0.209563	0.727142
H271	H	0.987370	0.005389	0.365797
H272	H	1.487370	0.505389	0.865797
C273	C	0.131829	-0.030271	0.000133
C274	C	0.631829	0.469729	0.500133
H275	H	0.077798	-0.024499	0.000123
H276	H	0.577798	0.475501	0.500123
H277	H	0.148687	-0.048238	0.046371
H278	H	0.648687	0.451762	0.546371
H279	H	0.148690	-0.048236	-0.046100
H280	H	0.648690	0.451764	0.453900
C281	C	0.784389	0.134219	0.622457
C282	C	1.284389	0.634219	1.122457
H283	H	0.753514	0.153823	0.659258
H284	H	1.253514	0.653823	1.159258
H285	H	0.753088	0.116857	0.589914
H286	H	1.253088	0.616857	1.089914
H287	H	0.811373	0.154320	0.589892
H288	H	1.311373	0.654320	1.089892
C289	C	0.257478	0.156413	0.000061
C290	C	0.757478	0.656413	0.500061
H291	H	0.311509	0.150643	0.000053
H292	H	0.811509	0.650643	0.500053
H293	H	0.240619	0.174379	0.046288
H294	H	0.740619	0.674379	0.546288
H295	H	0.240615	0.174379	-0.046182
H296	H	0.740615	0.674379	0.453818
H297	H	0.799185	0.124803	0.365775
H298	H	1.299185	0.624803	0.865775
C299	C	0.784357	0.134205	0.202444
C300	C	1.284357	0.634205	0.702444
H301	H	0.791775	0.129487	0.146769
H302	H	1.291775	0.629487	0.646769
H303	H	0.792185	0.166461	0.216103
H304	H	1.292185	0.666461	0.716103
H305	H	0.733910	0.128992	0.216129
H306	H	1.233910	0.628992	0.716129
C307	C	0.897343	-0.180319	0.151874
C308	C	1.397343	0.319681	0.651874
H309	H	0.897691	-0.158090	0.194915
H310	H	1.397691	0.341910	0.694915
H311	H	0.941175	-0.203733	0.154889
H312	H	1.441175	0.296267	0.654889
H313	H	0.852863	-0.196239	0.154867
H314	H	1.352863	0.303761	0.654867
C315	C	0.893675	-0.412163	-0.223960
C316	C	1.393675	0.087837	0.276040
H317	H	0.894045	-0.389917	-0.266991
H318	H	1.394045	0.110083	0.233009
H319	H	0.849212	-0.428093	-0.226987
H320	H	1.349212	0.071907	0.273013
H321	H	0.937524	-0.435567	-0.226959
H322	H	1.437524	0.064433	0.273041
C323	C	0.899040	-0.074441	0.151879
C324	C	1.399040	0.425559	0.651879
H325	H	0.899573	-0.040803	0.141524
H326	H	1.399573	0.459197	0.641524
H327	H	0.943053	-0.086445	0.181588
H328	H	1.443053	0.413555	0.681588
H329	H	0.854741	-0.078965	0.181560
H330	H	1.354741	0.421035	0.681560
H331	H	0.893713	-0.405018	0.203477
H332	H	1.393713	0.094982	0.703477
H333	H	0.892819	-0.464754	-0.203316
H334	H	1.392819	0.035246	0.296684
