data_functionalizedCrystal
_audit_creation_method	'MofGen! by Chris Wilmer'
_symmetry_space_group_name_H-M	'P1'
_symmetry_Int_Tables_number	1
_symmetry_cell_setting	triclinic
loop_
_symmetry_equiv_pos_as_xyz
  x,y,z
_cell_length_a	18.215407
_cell_length_b	15.297327
_cell_length_c	18.215399
_cell_angle_alpha	80.351692
_cell_angle_beta	90.016899
_cell_angle_gamma	99.703952
loop_
_atom_site_label
_atom_site_type_symbol
_atom_site_fract_x
_atom_site_fract_y
_atom_site_fract_z
Zn1	Zn	1.074350	-0.359235	0.466749
Zn2	Zn	1.574350	0.140765	0.966749
Zn3	Zn	1.052956	-0.510105	0.364971
Zn4	Zn	1.552956	-0.010105	0.864971
Zn5	Zn	0.951279	-0.359256	0.343706
Zn6	Zn	1.451279	0.140744	0.843706
Zn7	Zn	0.929954	-0.510047	0.487994
Zn8	Zn	1.429954	-0.010047	0.987994
O9	O	1.002135	-0.434661	0.415855
O10	O	1.502135	0.065339	0.915855
O11	O	1.174494	-0.379263	0.453256
O12	O	1.674494	0.120737	0.953256
O13	O	1.039440	-0.490128	0.259171
O14	O	1.539440	0.009872	0.759171
O15	O	0.985483	-0.233007	0.342236
O16	O	1.485483	0.266993	0.842236
O17	O	1.158776	-0.490107	0.378481
O18	O	1.658776	0.009893	0.878481
O19	O	1.075902	-0.232991	0.432636
O20	O	1.575902	0.267009	0.932636
O21	O	0.964738	-0.379300	0.243547
O22	O	1.464738	0.120700	0.743547
O23	O	0.845468	-0.379244	0.362837
O24	O	1.345468	0.120756	0.862837
O25	O	0.949137	-0.490008	0.588156
O26	O	1.449137	0.009992	1.088156
O27	O	0.829801	-0.490029	0.468846
O28	O	1.329801	0.009971	0.968846
O29	O	1.055224	-0.379207	0.572547
O30	O	1.555224	0.120793	1.072547
O31	O	1.018762	-0.636344	0.399082
O32	O	1.518762	-0.136344	0.899082
O33	O	0.928393	-0.636302	0.489466
O34	O	1.428393	-0.136302	0.989466
C35	C	0.810932	-0.434633	0.415840
C36	C	1.310932	0.065367	0.915840
C37	C	0.729132	-0.434643	0.415854
C38	C	1.229132	0.065357	0.915854
C39	C	0.455920	-0.492442	0.471002
C40	C	0.955920	0.007558	0.971002
C41	C	0.532780	-0.492434	0.470998
C42	C	1.032780	0.007566	0.970998
C43	C	0.549088	-0.376900	0.360723
C44	C	1.049088	0.123100	0.860723
C45	C	0.472229	-0.376913	0.360726
C46	C	0.972229	0.123087	0.860726
C47	C	0.425647	-0.434683	0.415869
C48	C	0.925647	0.065317	0.915869
C49	C	0.579366	-0.434662	0.415862
C50	C	1.079366	0.065338	0.915862
C51	C	0.662701	-0.434653	0.415857
C52	C	1.162701	0.065347	0.915857
C53	C	0.342307	-0.434693	0.415874
C54	C	0.842307	0.065307	0.915874
C55	C	0.968962	-0.669057	0.448903
C56	C	1.468962	-0.169057	0.948903
C57	C	0.954837	-0.769333	0.463066
C58	C	1.454837	-0.269333	0.963066
C59	C	1.103387	-1.051957	0.314882
C60	C	1.603387	-0.551957	0.814882
C61	C	1.116657	-0.957743	0.301572
C62	C	1.616657	-0.457743	0.801572
C63	C	1.076204	-0.910636	0.341944
C64	C	1.576204	-0.410636	0.841944
C65	C	1.022477	-0.957752	0.395629
C66	C	1.522477	-0.457752	0.895629
C67	C	1.009201	-1.051976	0.408937
C68	C	1.509201	-0.551976	0.908937
C69	C	0.982018	-0.910654	0.435999
C70	C	1.482018	-0.410654	0.935999
C71	C	0.928291	-0.957770	0.489684
C72	C	1.428291	-0.457770	0.989684
C73	C	0.915019	-1.051984	0.502990
C74	C	1.415019	-0.551984	1.002990
C75	C	0.955472	-1.099092	0.462617
C76	C	1.455472	-0.599092	0.962617
C77	C	0.995294	-0.816431	0.422692
C78	C	1.495294	-0.316431	0.922692
C79	C	0.901108	-0.816449	0.516746
C80	C	1.401108	-0.316449	1.016746
C81	C	0.887838	-0.910663	0.530057
C82	C	1.387838	-0.410663	1.030057
C83	C	1.194084	-0.434689	0.415871
C84	C	1.694084	0.065311	0.915871
C85	C	1.275881	-0.434701	0.415878
C86	C	1.775881	0.065299	0.915878
C87	C	1.002188	-0.434599	0.607799
C88	C	1.502188	0.065401	1.107799
C89	C	1.002211	-0.434572	0.689594
C90	C	1.502211	0.065428	1.189594
C91	C	1.035458	-0.199349	0.382694
C92	C	1.535458	0.300651	0.882694
C93	C	1.049658	-0.099073	0.368562
C94	C	1.549658	0.400927	0.868562
C95	C	1.002133	-0.434658	0.224648
C96	C	1.502133	0.065342	0.724648
C97	C	1.002289	-0.434430	0.142818
C98	C	1.502289	0.065570	0.642818
C99	C	1.057475	-0.376824	0.869654
C100	C	1.557475	0.123176	1.369654
C101	C	1.057488	-0.376798	0.946509
C102	C	1.557488	0.123202	1.446509
C103	C	0.947019	-0.492181	0.962753
C104	C	1.447019	0.007819	1.462753
C105	C	0.947004	-0.492202	0.885898
C106	C	1.447004	0.007798	1.385898
C107	C	1.002236	-0.434525	0.839351
C108	C	1.502236	0.065475	1.339351
C109	C	1.002264	-0.434478	0.993061
C110	C	1.502264	0.065522	1.493061
C111	C	1.002277	-0.434449	1.076391
C112	C	1.502277	0.065551	1.576391
C113	C	1.002223	-0.434552	0.756016
C114	C	1.502223	0.065448	1.256016
H115	H	1.039038	-0.778077	0.378981
H116	H	1.539038	-0.278077	0.878981
Cl117	Cl	1.184203	-0.898518	0.234093
Cl118	Cl	1.684203	-0.398518	0.734093
Cl119	Cl	1.154234	-1.111181	0.264134
Cl120	Cl	1.654234	-0.611181	0.764134
Cl121	Cl	1.126940	-0.304264	0.984602
Cl122	Cl	1.626940	0.195736	1.484602
Cl123	Cl	0.938494	-1.217536	0.479049
Cl124	Cl	1.438494	-0.717536	0.979049
Cl125	Cl	0.570833	-0.565051	0.540310
Cl126	Cl	1.070833	-0.065051	1.040310
H127	H	0.587024	-0.329865	0.315828
H128	H	1.087024	0.170135	0.815828
H129	H	0.902017	-0.539188	0.861226
H130	H	1.402017	-0.039188	1.361226
Cl131	Cl	0.847473	-1.111214	0.570476
Cl132	Cl	1.347473	-0.611214	1.070476
Cl133	Cl	0.820298	-0.969906	0.597544
Cl134	Cl	1.320298	-0.469906	1.097544
H135	H	0.447581	-0.329878	0.315826
H136	H	0.947581	0.170122	0.815826
H137	H	0.902052	-0.539142	1.000661
H138	H	1.402052	-0.039142	1.500661
H139	H	0.868166	-0.778095	0.549620
H140	H	1.368166	-0.278095	1.049620
Cl141	Cl	1.126907	-0.304312	0.811140
Cl142	Cl	1.626907	0.195688	1.311140
H143	H	1.087011	-0.833923	0.331103
H144	H	1.587011	-0.333923	0.831103
Cl145	Cl	0.397362	-0.565069	0.540323
Cl146	Cl	0.897362	-0.065069	1.040323
