data_functionalizedCrystal
_audit_creation_method	'MofGen! by Chris Wilmer'
_symmetry_space_group_name_H-M	'P1'
_symmetry_Int_Tables_number	1
_symmetry_cell_setting	triclinic
loop_
_symmetry_equiv_pos_as_xyz
  x,y,z
_cell_length_a	6.817900
_cell_length_b	10.943632
_cell_length_c	19.453114
_cell_angle_alpha	94.440217
_cell_angle_beta	101.709288
_cell_angle_gamma	108.838880
loop_
_atom_site_label
_atom_site_type_symbol
_atom_site_fract_x
_atom_site_fract_y
_atom_site_fract_z
V1	V	-4.034382	-0.179974	-0.218982
O2	O	-3.993629	0.007265	-0.214831
O3	O	-4.012894	-0.355528	-0.217468
O4	O	-3.976966	-0.177813	-0.314495
O5	O	-4.029805	-0.171680	-0.117132
V6	V	-4.515692	-0.157506	-0.206802
O7	O	-4.300497	-0.229259	-0.245700
O8	O	-4.699774	-0.108222	-0.180084
O9	O	-4.313974	0.018048	-0.208316
O10	O	-4.673842	-0.344746	-0.210953
O11	O	-4.637666	-0.165800	-0.308652
O12	O	-4.349901	-0.159668	-0.111289
C13	C	-3.864733	-0.398305	-0.214009
C14	C	-3.928390	-0.541827	-0.213407
C15	C	-3.774718	-0.618955	-0.209407
C16	C	-3.874556	-0.691253	-0.152706
C17	C	-3.942002	-0.725260	-0.269044
C18	C	-4.027362	-0.612221	-0.156666
C19	C	-4.094807	-0.646234	-0.273056
C20	C	-4.194760	-0.718495	-0.216343
C21	C	-3.818903	-0.171610	-0.337776
C22	C	-3.853420	-0.171004	-0.415859
C23	C	-4.052412	-0.177200	-0.456115
C24	C	-4.084845	-0.176631	-0.529482
C25	C	-3.918288	-0.169892	-0.562592
C26	C	-3.719264	-0.163688	-0.522325
C27	C	-3.686831	-0.164244	-0.448959
N28	N	-3.868996	-0.238075	-0.681374
N29	N	-3.899821	-0.237550	-0.751070
C30	C	-4.015997	-0.168214	-0.783640
N31	N	-4.100222	-0.099441	-0.743884
N32	N	-4.069403	-0.099972	-0.674182
C33	C	-3.953436	-0.169288	-0.642145
C34	C	-4.250168	-0.173792	-0.903449
C35	C	-4.282591	-0.173215	-0.976817
C36	C	-3.917010	-0.160285	-0.969659
C37	C	-3.884587	-0.160849	-0.896292
C38	C	-4.051177	-0.167609	-0.863192
C39	C	-4.125478	0.060818	-0.211773
C40	C	-4.041059	0.204338	-0.212379
C41	C	-4.171308	-0.165875	-0.088004
C42	C	-4.116028	-0.166474	-0.009921
H43	H	-4.372937	-0.761737	-0.219256
H44	H	-4.444633	-0.178251	-1.009592
H45	H	-3.722555	-0.155817	-0.863516
C46	C	-3.751183	-0.718732	-0.084939
C47	C	-3.633033	-0.794988	-0.102302
C48	C	-3.519355	-0.820336	-0.039899
H49	H	-3.657016	-0.638554	-0.056697
H50	H	-3.848399	-0.764402	-0.059075
H51	H	-3.535826	-0.749316	-0.128155
H52	H	-3.727147	-0.875180	-0.130535
H53	H	-3.616572	-0.866007	-0.014036
H54	H	-3.425201	-0.740153	-0.011662
H55	H	-3.439192	-0.872088	-0.051672
H56	H	-3.524780	-0.159189	-0.416181
C57	C	-4.431066	-0.181379	-0.867488
C58	C	-4.477332	-0.293747	-0.835048
C59	C	-4.643979	-0.300787	-0.801924
H60	H	-4.389506	-0.106286	-0.832561
H61	H	-4.554309	-0.185050	-0.901957
H62	H	-4.354115	-0.290065	-0.800583
H63	H	-4.518928	-0.368860	-0.869960
H64	H	-4.767223	-0.304457	-0.836393
H65	H	-4.602403	-0.225688	-0.767000
H66	H	-4.675406	-0.377033	-0.779915
C67	C	-3.537204	-0.560907	-0.205559
C68	C	-3.507524	-0.503455	-0.266260
C69	C	-3.288762	-0.449981	-0.262740
H70	H	-3.469144	-0.496490	-0.164463
H71	H	-3.477006	-0.628035	-0.203104
H72	H	-3.567696	-0.436334	-0.268707
H73	H	-3.575535	-0.567846	-0.307364
H74	H	-3.228563	-0.517110	-0.260286
H75	H	-3.220720	-0.385570	-0.221643
H76	H	-3.268596	-0.411005	-0.303927
H77	H	-3.781389	-0.154786	-0.996615
H78	H	-4.062806	-0.563161	-0.109125
C79	C	-4.217713	-0.618996	-0.340989
C80	C	-4.171500	-0.676546	-0.399636
C81	C	-4.284644	-0.651466	-0.462233
H82	H	-4.366556	-0.654630	-0.343968
H83	H	-4.176933	-0.527299	-0.340692
H84	H	-4.212294	-0.768225	-0.399934
H85	H	-4.022679	-0.640923	-0.396680
H86	H	-4.243864	-0.559769	-0.461936
H87	H	-4.433481	-0.687100	-0.465205
H88	H	-4.253290	-0.690499	-0.502032
H89	H	-3.906496	-0.774471	-0.316521
H90	H	-4.188063	-0.182700	-0.429170
H91	H	-4.246897	-0.181684	-0.562266
H92	H	-3.583652	-0.158197	-0.549287
