data_functionalizedCrystal
_audit_creation_method	'MofGen! by Chris Wilmer'
_symmetry_space_group_name_H-M	'P1'
_symmetry_Int_Tables_number	1
_symmetry_cell_setting	triclinic
loop_
_symmetry_equiv_pos_as_xyz
  x,y,z
_cell_length_a	9.065218
_cell_length_b	15.021413
_cell_length_c	9.065218
_cell_angle_alpha	89.994080
_cell_angle_beta	85.015885
_cell_angle_gamma	90.007503
loop_
_atom_site_label
_atom_site_type_symbol
_atom_site_fract_x
_atom_site_fract_y
_atom_site_fract_z
O1	O	1.960410	0.074030	0.216337
O2	O	1.531125	0.074031	0.234084
O3	O	1.754640	0.074029	0.010568
O4	O	1.736894	0.074033	0.439853
O5	O	1.754605	-0.074035	0.010600
O6	O	1.531089	-0.074033	0.234116
O7	O	1.960374	-0.074034	0.216369
Zn8	Zn	1.745726	-0.097542	0.225247
Zn9	Zn	1.745773	0.097539	0.225205
O10	O	1.736858	-0.074032	0.439885
C11	C	1.476120	-0.000001	0.232394
C12	C	1.312277	-0.000000	0.227294
N13	N	1.745705	-0.230679	0.225275
C14	C	1.642334	-0.470362	0.328580
C15	C	1.776049	-0.529696	0.359000
C16	C	1.745742	-0.412286	0.225239
C17	C	1.612064	-0.529693	0.194852
C18	C	1.745766	-0.587710	0.225207
C19	C	1.879524	-0.470314	0.255727
C20	C	1.715451	-0.470307	0.091520
C21	C	1.849261	-0.529614	0.121885
C22	C	1.745726	-0.311229	0.225261
C23	C	1.745797	-0.688766	0.225184
C24	C	2.015378	0.000000	0.218059
C25	C	2.179221	0.000005	0.223158
C26	C	1.752917	-0.000002	-0.044403
C27	C	1.747817	0.000003	-0.208245
N28	N	1.745806	0.230677	0.225166
C29	C	1.738582	0.000001	0.494855
C30	C	1.743681	0.000003	0.658698
H31	H	1.801690	-0.555782	0.472070
O32	O	1.538300	-0.439205	0.432999
C33	C	1.607171	-0.386314	0.535650
H34	H	1.717183	-0.360252	0.482055
H35	H	1.532228	-0.327803	0.571103
H36	H	1.627790	-0.428117	0.636799
H37	H	1.689768	-0.444200	-0.021515
H38	H	1.499005	-0.555778	0.169165
O39	O	1.953818	-0.560316	0.017585
C40	C	2.027578	-0.487683	-0.054472
H41	H	2.016534	-0.426627	0.020346
H42	H	2.149723	-0.504652	-0.079780
H43	H	1.976124	-0.473039	-0.162249
H44	H	1.992610	-0.444341	0.281549
