data_functionalizedCrystal
_audit_creation_method	'MofGen! by Chris Wilmer'
_symmetry_space_group_name_H-M	'P1'
_symmetry_Int_Tables_number	1
_symmetry_cell_setting	triclinic
loop_
_symmetry_equiv_pos_as_xyz
  x,y,z
_cell_length_a	14.908520
_cell_length_b	10.685727
_cell_length_c	10.686551
_cell_angle_alpha	80.924363
_cell_angle_beta	90.862058
_cell_angle_gamma	90.811479
loop_
_atom_site_label
_atom_site_type_symbol
_atom_site_fract_x
_atom_site_fract_y
_atom_site_fract_z
Zn1	Zn	-0.417686	-1.964338	0.897544
Zn2	Zn	-0.577998	-1.935869	0.697284
Zn3	Zn	-0.417723	-1.735769	0.669060
Zn4	Zn	-0.556601	-1.741606	0.891634
O5	O	-0.492502	-1.844396	0.788880
O6	O	-0.447892	-2.137518	0.885264
O7	O	-0.565707	-1.894968	0.516582
O8	O	-0.292506	-1.775561	0.690030
O9	O	-0.565672	-2.116601	0.738134
O10	O	-0.292479	-1.943490	0.857896
O11	O	-0.447954	-1.747956	0.495846
O12	O	-0.427206	-1.559587	0.684300
O13	O	-0.529203	-1.785510	1.069376
O14	O	-0.529239	-1.563876	0.847824
O15	O	-0.427144	-1.949150	1.073717
O16	O	-0.700371	-1.900628	0.732403
O17	O	-0.684651	-1.757904	0.875192
C18	C	-0.475905	-1.515849	0.762359
C19	C	-0.468825	-1.375296	0.751044
C20	C	-0.724978	-1.826847	0.806249
C21	C	-0.824435	-1.819458	0.813732
C22	C	-1.027637	-1.954369	0.679250
C23	C	-1.121087	-1.947431	0.686276
C24	C	-1.104786	-1.798651	0.834817
C25	C	-1.011337	-1.805589	0.827791
C26	C	-0.972766	-1.883450	0.750003
C27	C	-0.879314	-1.890380	0.742970
C28	C	-0.863015	-1.741608	0.891518
C29	C	-0.956465	-1.734670	0.898544
C30	C	-0.259119	-1.862050	0.771474
C31	C	-0.159665	-1.869573	0.764056
C32	C	-0.475783	-1.871156	1.118713
C33	C	-0.468658	-1.882560	1.259268
C34	C	-0.509159	-1.174225	0.815494
C35	C	-0.516244	-1.314777	0.826803
C36	C	-0.509095	-1.817817	0.460332
C37	C	-0.515980	-1.806677	0.319779
H38	H	-0.422804	-1.319583	0.677536
H39	H	-0.561949	-1.732989	1.264057
C40	C	-0.783775	-1.902102	0.566409
C41	C	-0.836914	-1.975962	0.657468
H42	H	-0.757606	-1.954941	0.513621
H43	H	-0.737723	-1.860869	0.607541
H44	H	-0.819964	-1.840416	0.516296
H45	H	-0.800723	-2.037642	0.707588
H46	H	-0.882972	-2.017215	0.616334
C47	C	-0.527652	-1.476342	1.009648
C48	C	-0.578370	-1.389988	0.926053
H49	H	-0.566007	-1.522777	1.070913
H50	H	-0.483707	-1.431693	1.051098
H51	H	-0.498856	-1.533134	0.963623
H52	H	-0.607160	-1.333189	0.972076
H53	H	-0.622331	-1.434640	0.884599
C54	C	-1.053132	-2.100720	0.533113
C55	C	-0.985233	-2.039940	0.593740
H56	H	-1.026953	-2.153552	0.480327
H57	H	-1.089302	-2.039025	0.483003
H58	H	-1.089181	-2.150820	0.594897
H59	H	-0.949188	-1.989833	0.531956
H60	H	-0.949048	-2.101643	0.643853
H61	H	-1.165761	-2.005184	0.628664
H62	H	-1.136208	-1.735270	0.898157
C63	C	-0.856293	-1.593830	1.039040
C64	C	-0.802698	-1.663637	0.969290
H65	H	-0.819054	-1.545686	1.087039
H66	H	-0.893010	-1.650108	1.094646
H67	H	-0.893151	-1.538336	0.982731
H68	H	-0.765845	-1.719138	1.025599
H69	H	-0.765965	-1.607352	0.913678
H70	H	-0.987883	-1.671282	0.961880
C71	C	-0.411307	-1.974468	1.463838
C72	C	-0.406596	-1.982046	1.334487
H73	H	-0.372988	-2.035880	1.510271
H74	H	-0.471272	-1.990169	1.491393
H75	H	-0.392842	-1.892220	1.477573
H76	H	-0.425067	-2.064292	1.320751
H77	H	-0.346618	-1.966355	1.306923
