data_functionalizedCrystal
_audit_creation_method	'MofGen! by Chris Wilmer'
_symmetry_space_group_name_H-M	'P1'
_symmetry_Int_Tables_number	1
_symmetry_cell_setting	triclinic
loop_
_symmetry_equiv_pos_as_xyz
  x,y,z
_cell_length_a	19.188905
_cell_length_b	27.731996
_cell_length_c	18.266242
_cell_angle_alpha	89.987663
_cell_angle_beta	89.983837
_cell_angle_gamma	82.877971
loop_
_atom_site_label
_atom_site_type_symbol
_atom_site_fract_x
_atom_site_fract_y
_atom_site_fract_z
O1	O	0.925760	0.060292	-0.061011
O2	O	0.722392	0.068428	-0.060987
O3	O	0.830411	-0.006019	-0.060984
O4	O	0.817741	0.134740	-0.061014
O5	O	0.830393	-0.006023	0.060778
O6	O	0.722374	0.068425	0.060775
O7	O	0.925741	0.060288	0.060751
Zn8	Zn	0.824055	0.064356	0.080095
Zn9	Zn	0.824079	0.064361	-0.080331
O10	O	0.817722	0.134736	0.060748
C11	C	0.696373	0.068165	-0.000103
C12	C	0.618873	0.067380	-0.000093
C13	C	0.830141	-0.024029	-0.000101
C14	C	0.829357	-0.077688	-0.000093
C15	C	0.582493	0.067005	-0.066468
C16	C	0.509675	0.066262	-0.066476
C17	C	0.473240	0.065885	-0.000107
C18	C	0.509628	0.066262	0.066276
C19	C	0.582444	0.067010	0.066283
N20	N	0.364403	0.037201	0.049291
N21	N	0.295231	0.036490	0.049280
C22	C	0.253848	0.063633	-0.000125
N23	N	0.284253	0.091508	-0.049528
N24	N	0.353432	0.092218	-0.049519
C25	C	0.394283	0.065074	-0.000108
C26	C	0.138511	0.062453	-0.066513
C27	C	0.065690	0.061713	-0.066519
C28	C	0.065645	0.061708	0.066235
C29	C	0.138464	0.062453	0.066239
C30	C	0.174892	0.062823	-0.000137
C31	C	0.824435	-0.410417	-0.066501
C32	C	0.821458	-0.612084	-0.066513
O33	O	0.821051	-0.638154	-0.122961
N34	N	0.821078	-0.637305	-0.000141
C35	C	0.821438	-0.612105	0.066238
O36	O	0.821040	-0.638183	0.122692
C37	C	0.824410	-0.410438	0.066250
C38	C	0.824797	-0.385221	-0.000126
C39	C	0.824821	-0.385200	-0.132871
C40	C	0.825569	-0.334786	-0.132868
C41	C	0.825931	-0.309590	-0.066493
C42	C	0.825545	-0.334807	-0.000122
C43	C	0.824765	-0.385238	0.132629
C44	C	0.825507	-0.334818	0.132626
C45	C	0.825893	-0.309601	0.066250
C46	C	0.826655	-0.259198	0.066256
N47	N	0.827035	-0.233977	-0.000116
C48	C	0.826673	-0.259174	-0.066490
C49	C	0.819880	-0.717983	0.066228
C50	C	0.819138	-0.768399	0.066225
C51	C	0.819156	-0.768375	-0.066527
C52	C	0.819903	-0.717958	-0.066524
C53	C	0.820259	-0.692762	-0.000144
C54	C	0.828244	-0.153302	-0.066477
C55	C	0.828995	-0.102884	-0.066468
C56	C	0.828973	-0.102912	0.066284
C57	C	0.828226	-0.153326	0.066275
C58	C	0.827859	-0.178519	-0.000112
O59	O	0.827054	-0.233096	0.122674
O60	O	0.827056	-0.233085	-0.122935
C61	C	0.823687	-0.460830	-0.066504
C62	C	0.823301	-0.486048	-0.000134
C63	C	0.823663	-0.460851	0.066241
C64	C	0.822559	-0.536464	-0.000136
C65	C	0.822197	-0.561660	-0.066511
C66	C	0.822577	-0.536440	-0.132883
C67	C	0.823325	-0.486027	-0.132879
C68	C	0.823284	-0.486072	0.132613
C69	C	0.822536	-0.536485	0.132604
C70	C	0.822174	-0.561681	0.066229
C71	C	0.951760	0.060551	-0.000135
C72	C	1.029260	0.061336	-0.000149
C73	C	0.817992	0.152746	-0.000137
C74	C	0.818776	0.206405	-0.000150
N75	N	0.824043	0.064352	0.189582
N76	N	0.824095	0.064361	-0.189818
C77	C	0.871890	0.031403	0.227892
C78	C	0.871894	0.031400	0.304537
C79	C	0.824059	0.064356	0.342869
C80	C	0.776204	0.097308	0.304549
C81	C	0.776196	0.097306	0.227906
N82	N	0.814699	0.107148	0.463193
N83	N	0.814710	0.107148	0.536001
C84	C	0.824078	0.064363	0.573791
N85	N	0.833448	0.021576	0.536023
N86	N	0.833440	0.021576	0.463208
C87	C	0.824062	0.064361	0.425976
C88	C	0.871932	0.031408	0.695209
C89	C	0.871932	0.031405	0.771855
C90	C	0.776245	0.097317	0.771866
C91	C	0.776242	0.097316	0.695221
C92	C	0.824089	0.064362	0.656897
H93	H	0.480049	0.065958	-0.120528
O94	O	0.173912	0.062832	0.130651
C95	C	0.245996	0.063558	0.116426
H96	H	0.252898	0.078965	0.059382
H97	H	0.268959	0.087301	0.158816
H98	H	0.274421	0.024998	0.119577
O99	O	0.822034	-0.560941	0.197109
C100	C	0.761722	-0.542996	0.237488
H101	H	0.719661	-0.525212	0.198643
H102	H	0.740911	-0.574265	0.267604
H103	H	0.775824	-0.515001	0.278866
H104	H	0.737254	0.124140	0.335763
O105	O	0.818740	-0.792815	0.130768
C106	C	0.819235	-0.759760	0.189347
H107	H	0.797655	-0.721770	0.169886
H108	H	0.785102	-0.771186	0.235774
H109	H	0.875347	-0.759596	0.209751
O110	O	0.824355	-0.409648	0.197174
C111	C	0.824846	-0.376589	0.255748
H112	H	0.803272	-0.338599	0.236279
H113	H	0.790705	-0.388010	0.302172
H114	H	0.880955	-0.376427	0.276159
O115	O	0.729787	0.129384	0.190722
C116	C	0.740594	0.177216	0.209444
H117	H	0.796490	0.177353	0.230494
H118	H	0.732290	0.201490	0.159036
H119	H	0.701739	0.191482	0.253942
O120	O	0.822096	-0.560934	-0.197338
C121	C	0.761178	-0.584493	-0.201278
H122	H	0.719122	-0.565375	-0.163608
H123	H	0.740866	-0.583182	-0.259977
H124	H	0.774285	-0.623970	-0.183434
O125	O	0.474253	0.065980	0.130766
C126	C	0.483661	0.108011	0.171146
H127	H	0.497831	0.137473	0.132306
H128	H	0.432949	0.121566	0.201246
H129	H	0.527808	0.098983	0.212539
O130	O	0.918481	-0.000621	0.808959
C131	C	0.960697	-0.029712	0.758694
H132	H	0.961256	-0.009895	0.704052
H133	H	1.016539	-0.037180	0.780820
H134	H	0.938435	-0.065585	0.750564
O135	O	0.827826	-0.177748	0.130816
C136	C	0.828329	-0.144697	0.189400
H137	H	0.806757	-0.106704	0.169944
H138	H	0.794192	-0.156122	0.235825
H139	H	0.884442	-0.144540	0.209804
O140	O	0.617773	0.067285	0.130781
C141	C	0.608329	0.025252	0.171175
H142	H	0.594181	-0.004206	0.132343
H143	H	0.659019	0.011691	0.201290
H144	H	0.564154	0.034282	0.212557
H145	H	0.035981	0.061404	0.120274
H146	H	0.910858	0.004568	0.335735
O147	O	0.918172	-0.000760	0.190697
C148	C	0.880935	-0.030512	0.146566
H149	H	0.826178	-0.011045	0.134990
H150	H	0.910150	-0.038421	0.092705
H151	H	0.876365	-0.066127	0.176316
H152	H	0.829312	-0.082355	-0.120521
H153	H	0.612149	0.067307	-0.120516
H154	H	0.824524	-0.405709	-0.186925
O155	O	0.729680	0.129283	0.809058
C156	C	0.660653	0.121554	0.790345
H157	H	0.660742	0.082852	0.769291
H158	H	0.625555	0.127178	0.840759
H159	H	0.639845	0.148383	0.745853
O160	O	0.173789	0.062842	-0.131053
C161	C	0.126061	0.062347	-0.189641
H162	H	0.071084	0.077112	-0.170187
H163	H	0.142417	0.086032	-0.236061
H164	H	0.126088	0.023498	-0.210050
O165	O	0.030284	0.061284	-0.130952
C166	C	-0.003443	0.018993	-0.134921
H167	H	-0.011578	0.004928	-0.077289
H168	H	-0.056523	0.027882	-0.163020
H169	H	0.030498	-0.010030	-0.167665
O170	O	0.827908	-0.177697	-0.131029
C171	C	0.828385	-0.144618	-0.189601
H172	H	0.851039	-0.110740	-0.170138
H173	H	0.862074	-0.162320	-0.236040
H174	H	0.772428	-0.134047	-0.209990
H175	H	0.910890	0.004574	0.664004
O176	O	0.729837	0.129395	0.658037
C177	C	0.740647	0.177226	0.676759
H178	H	0.796545	0.177362	0.697804
H179	H	0.732341	0.201501	0.626350
H180	H	0.701796	0.191493	0.721258
O181	O	0.823516	-0.461569	0.197075
C182	C	0.763467	-0.426785	0.201063
H183	H	0.720961	-0.438042	0.163401
H184	H	0.743167	-0.424346	0.259773
H185	H	0.777714	-0.389840	0.183242
H186	H	0.825881	-0.314259	-0.186918
H187	H	0.818862	-0.788899	-0.120572
O188	O	0.820241	-0.693536	-0.131066
C189	C	0.819783	-0.726594	-0.189645
H190	H	0.797141	-0.760485	-0.170180
H191	H	0.786093	-0.708880	-0.236066
H192	H	0.875744	-0.737148	-0.210059
H193	H	0.820173	-0.697473	0.120285
H194	H	0.829271	-0.082389	0.120324
O195	O	0.825947	-0.310302	0.197065
C196	C	0.886879	-0.286761	0.201054
H197	H	0.907172	-0.281063	0.143427
H198	H	0.873791	-0.250053	0.229157
H199	H	0.928943	-0.310128	0.233802
O200	O	0.823664	-0.461606	-0.197423
C201	C	0.823201	-0.494666	-0.255999
H202	H	0.800555	-0.528555	-0.236530
H203	H	0.789511	-0.476952	-0.302420
H204	H	0.879160	-0.505223	-0.276414
