data_functionalizedCrystal
_audit_creation_method	'MofGen! by Chris Wilmer'
_symmetry_space_group_name_H-M	'P1'
_symmetry_Int_Tables_number	1
_symmetry_cell_setting	triclinic
loop_
_symmetry_equiv_pos_as_xyz
  x,y,z
_cell_length_a	10.654550
_cell_length_b	15.995292
_cell_length_c	9.130313
_cell_angle_alpha	89.998674
_cell_angle_beta	89.999724
_cell_angle_gamma	83.976773
loop_
_atom_site_label
_atom_site_type_symbol
_atom_site_fract_x
_atom_site_fract_y
_atom_site_fract_z
O1	O	1.666266	0.117606	-0.121679
O2	O	1.300638	0.128810	-0.121704
O3	O	1.493485	0.001375	-0.121693
O4	O	1.473419	0.245041	-0.121690
O5	O	1.493472	0.001371	0.121906
O6	O	1.300625	0.128806	0.121894
O7	O	1.666253	0.117602	0.121920
Cu8	Cu	1.483438	0.123204	0.144150
Cu9	Cu	1.483453	0.123208	-0.143934
O10	O	1.473406	0.245037	0.121909
C11	C	1.253844	0.127986	0.000091
C12	C	1.114434	0.125524	0.000081
C13	C	1.033945	0.200556	0.000086
C14	C	0.902955	0.198238	0.000112
C15	C	0.932957	0.045850	0.000121
C16	C	1.063944	0.048169	0.000106
C17	C	1.492662	-0.029827	0.000103
C18	C	1.490213	-0.122794	0.000091
C19	C	1.481212	-0.460585	0.000104
C20	C	1.620404	-0.436464	0.000658
C21	C	1.623050	-0.339773	0.000104
C22	C	1.485679	-0.293003	0.000099
C23	C	1.416097	-0.322506	-0.139009
C24	C	1.414421	-0.419306	-0.139120
C25	C	1.411564	-0.419184	0.137897
C26	C	1.416722	-0.322662	0.139731
C27	C	1.488195	-0.198292	0.000091
C28	C	1.478692	-0.555295	0.000102
C29	C	1.713047	0.118426	0.000121
C30	C	1.852457	0.120888	0.000122
C31	C	1.474229	0.276239	0.000110
C32	C	1.476678	0.369206	0.000111
N33	N	1.483436	0.123200	0.346772
N34	N	1.483465	0.123205	-0.346557
C35	C	1.568857	0.066796	0.423429
C36	C	1.568869	0.066796	0.576766
C37	C	1.398035	0.179612	0.576776
C38	C	1.398018	0.179607	0.423442
H39	H	0.891831	-0.017130	0.000150
H40	H	1.075049	0.263543	0.000077
C41	C	1.304052	0.241637	0.661109
H42	H	1.253157	0.275217	0.593490
H43	H	1.349178	0.276786	0.720935
H44	H	1.251809	0.211164	0.720914
C45	C	1.481381	-0.295036	-0.278861
H46	H	1.438579	-0.313179	-0.362459
H47	H	1.566582	-0.319458	-0.280107
H48	H	1.479240	-0.235516	-0.280304
H49	H	1.309108	-0.433770	0.138830
H50	H	1.638425	0.020866	0.639176
C51	C	0.814422	0.280773	0.000107
H52	H	0.863257	0.327172	0.000079
H53	H	0.762706	0.283042	0.085061
H54	H	0.762695	0.283032	-0.084847
C55	C	1.152488	-0.034370	0.000094
H56	H	1.103660	-0.080772	0.000089
H57	H	1.204218	-0.036632	0.085035
H58	H	1.204200	-0.036629	-0.084872
H59	H	1.677545	-0.320433	0.099820
C60	C	1.692879	-0.473858	0.135430
H61	H	1.638907	-0.504523	0.192565
H62	H	1.720567	-0.429729	0.192696
H63	H	1.763867	-0.510408	0.104173
C64	C	1.662801	0.004744	0.339098
H65	H	1.713668	-0.028854	0.406719
H66	H	1.715058	0.035184	0.279266
H67	H	1.617626	-0.030397	0.279299
H68	H	1.455393	-0.447020	0.243340
H69	H	1.462622	-0.445841	-0.243101
C70	C	1.304053	0.241657	0.339113
H71	H	1.253196	0.275260	0.406733
H72	H	1.251788	0.211208	0.279309
H73	H	1.349215	0.276793	0.279287
H74	H	1.673762	-0.465171	-0.098535
C75	C	1.485123	-0.297157	0.278764
H76	H	1.442959	-0.315268	0.362858
H77	H	1.484869	-0.237769	0.281297
H78	H	1.569738	-0.322706	0.277918
C79	C	1.697101	-0.314471	-0.134838
H80	H	1.725672	-0.363313	-0.189539
H81	H	1.767570	-0.287233	-0.103825
H82	H	1.643728	-0.277264	-0.194424
C83	C	1.276562	-0.439769	-0.147697
H84	H	1.221829	-0.388939	-0.151108
H85	H	1.257476	-0.471224	-0.063825
H86	H	1.265330	-0.471755	-0.233488
H87	H	1.315010	-0.291225	-0.144184
H88	H	1.316454	-0.290275	0.148128
