data_functionalizedCrystal
_audit_creation_method	'MofGen! by Chris Wilmer'
_symmetry_space_group_name_H-M	'P1'
_symmetry_Int_Tables_number	1
_symmetry_cell_setting	triclinic
loop_
_symmetry_equiv_pos_as_xyz
  x,y,z
_cell_length_a	11.026660
_cell_length_b	15.538191
_cell_length_c	9.482900
_cell_angle_alpha	95.622696
_cell_angle_beta	78.636107
_cell_angle_gamma	77.928464
loop_
_atom_site_label
_atom_site_type_symbol
_atom_site_fract_x
_atom_site_fract_y
_atom_site_fract_z
O1	O	1.472123	0.356301	-0.120866
O2	O	1.137229	0.314507	-0.120871
O3	O	1.369867	0.209328	-0.120874
O4	O	1.239484	0.461480	-0.120862
O5	O	1.322565	0.230802	0.120919
O6	O	1.089926	0.335981	0.120923
O7	O	1.424820	0.377775	0.120928
Cu8	Cu	1.253054	0.358839	0.143003
Cu9	Cu	1.308995	0.333443	-0.142946
O10	O	1.192182	0.482954	0.120931
C11	C	1.071763	0.317534	0.000025
C12	C	0.947174	0.294549	0.000023
C13	C	1.359858	0.187282	0.000018
C14	C	1.400493	0.089598	0.000004
C15	C	0.716641	0.334266	0.000020
C16	C	0.845408	0.358024	0.000024
C17	C	0.996813	-0.266641	0.000029
C18	C	1.035022	-0.358427	0.000033
C19	C	1.249938	-0.344427	0.000036
C20	C	1.211749	-0.252638	0.000025
C21	C	1.085185	-0.213753	0.000023
C22	C	1.300121	-0.199750	0.000019
C23	C	1.261933	-0.107968	0.000015
C24	C	1.135374	-0.069075	0.000018
C25	C	1.046997	-0.121971	0.000020
C26	C	1.426683	-0.238636	0.000031
C27	C	1.515054	-0.185748	0.000024
C28	C	1.476869	-0.093965	0.000011
C29	C	1.350310	-0.055072	0.000014
C30	C	1.565246	-0.041070	0.000009
C31	C	1.527058	0.050712	0.000006
C32	C	1.312122	0.036709	0.000010
C33	C	1.490287	0.374748	0.000029
C34	C	1.614877	0.397732	0.000022
C35	C	1.202192	0.505000	0.000036
C36	C	1.161558	0.602684	0.000040
N37	N	1.213717	0.376701	0.344124
N38	N	1.348344	0.315575	-0.344066
C39	C	1.297386	0.338706	0.416322
C40	C	1.264662	0.353576	0.583739
H41	H	0.853606	0.429954	0.000037
H42	H	0.938996	0.222612	-0.000077
H43	H	1.168794	0.397113	0.645865
C44	C	1.158153	0.171190	-0.000006
C45	C	1.173001	0.079462	-0.000002
H46	H	1.072271	0.197582	-0.000022
H47	H	1.179547	0.196590	0.084311
H48	H	1.212558	0.181606	-0.084327
H49	H	1.118602	0.069046	0.084325
H50	H	1.151592	0.054054	-0.084327
C51	C	1.439255	0.193887	0.369057
C52	C	1.426794	0.279945	0.332420
H53	H	1.519145	0.157615	0.317243
H54	H	1.434277	0.196156	0.470543
H55	H	1.372802	0.169521	0.344208
H56	H	1.493242	0.304314	0.357279
H57	H	1.431784	0.277678	0.230911
C58	C	1.489980	0.170726	0.609157
C59	C	1.477765	0.256715	0.572259
H60	H	1.569875	0.134365	0.557544
H61	H	1.484830	0.173103	0.710685
H62	H	1.423526	0.146389	0.584239
H63	H	1.544213	0.281054	0.597186
H64	H	1.482927	0.254341	0.470707
H65	H	1.457774	-0.313372	0.000020
C66	C	1.669032	-0.320226	0.000022
C67	C	1.654172	-0.228497	0.000019
H68	H	1.754922	-0.346615	0.000006
H69	H	1.614652	-0.330647	0.084341
H70	H	1.647620	-0.345628	-0.084297
H71	H	1.675575	-0.203095	0.084343
H72	H	1.708571	-0.218070	-0.084309
C73	C	1.784523	-0.068443	-0.124279
C74	C	1.704360	-0.083818	0.000018
H75	H	1.870407	-0.094829	-0.124265
H76	H	1.763123	-0.093859	-0.208579
H77	H	1.774419	-0.006210	-0.124274
H78	H	1.714458	-0.146051	0.000008
H79	H	1.725769	-0.058405	0.084340
H80	H	1.599019	0.093775	0.000003
C81	C	1.013194	0.467761	0.329216
C82	C	1.084303	0.435474	0.427984
H83	H	0.933295	0.504040	0.380988
H84	H	1.058017	0.501946	0.269845
H85	H	1.000029	0.419189	0.269847
H86	H	1.097477	0.484046	0.487346
H87	H	1.039471	0.401288	0.487380
C88	C	0.665510	0.209039	-0.124289
C89	C	0.705578	0.237167	0.000011
H90	H	0.658692	0.149091	-0.124296
H91	H	0.584987	0.245775	-0.124275
H92	H	0.725694	0.213161	-0.208596
H93	H	0.645390	0.233052	0.084319
H94	H	0.786114	0.200421	0.000010
C95	C	0.751367	0.499569	0.000006
C96	C	0.625944	0.494829	0.000011
H97	H	0.758195	0.559514	-0.000013
H98	H	0.773984	0.478708	0.084324
H99	H	0.806978	0.463710	-0.084314
H100	H	0.570333	0.530683	0.084337
H101	H	0.603312	0.515701	-0.084315
H102	H	1.104282	0.005660	0.000024
H103	H	0.963045	-0.401485	0.000059
H104	H	0.943938	-0.090309	0.000008
C105	C	0.804853	-0.160500	0.124309
C106	C	0.857692	-0.223889	0.000017
H107	H	0.718973	-0.134105	0.124294
H108	H	0.807712	-0.188527	0.208613
H109	H	0.852031	-0.115871	0.124298
H110	H	0.810519	-0.268523	0.000034
H111	H	0.854824	-0.195862	-0.084308
C112	C	1.403916	-0.478906	0.000033
C113	C	1.389056	-0.387177	0.000030
H114	H	1.489806	-0.505295	0.000017
H115	H	1.349536	-0.489326	0.084352
H116	H	1.382504	-0.504307	-0.084286
H117	H	1.410459	-0.361774	0.084354
H118	H	1.443454	-0.376750	-0.084298
