data_functionalizedCrystal
_audit_creation_method	'MofGen! by Chris Wilmer'
_symmetry_space_group_name_H-M	'P1'
_symmetry_Int_Tables_number	1
_symmetry_cell_setting	triclinic
loop_
_symmetry_equiv_pos_as_xyz
  x,y,z
_cell_length_a	16.109318
_cell_length_b	17.699092
_cell_length_c	15.186229
_cell_angle_alpha	89.997943
_cell_angle_beta	90.000224
_cell_angle_gamma	83.377465
loop_
_atom_site_label
_atom_site_type_symbol
_atom_site_fract_x
_atom_site_fract_y
_atom_site_fract_z
O1	O	1.102957	0.097347	-0.073152
O2	O	0.860877	0.109440	-0.073169
O3	O	0.988753	-0.006785	-0.073158
O4	O	0.975081	0.213572	-0.073163
O5	O	0.988744	-0.006787	0.073299
O6	O	0.860868	0.109438	0.073288
O7	O	1.102949	0.097345	0.073305
Zn8	Zn	0.981907	0.103391	0.096550
Zn9	Zn	0.981918	0.103393	-0.096414
O10	O	0.975073	0.213570	0.073294
C11	C	0.829899	0.108947	0.000057
C12	C	0.737607	0.107471	0.000050
C13	C	0.438546	0.102707	-0.079768
C14	C	0.525264	0.104088	-0.079773
C15	C	0.525274	0.104076	0.079902
C16	C	0.438557	0.102689	0.079907
C17	C	0.395195	0.102008	0.000069
C18	C	0.568630	0.104776	0.000059
C19	C	0.662655	0.106274	0.000054
C20	C	0.301165	0.100509	0.000074
C21	C	0.988257	-0.034984	0.000069
C22	C	0.986784	-0.119004	0.000065
C23	C	0.986099	-0.158471	-0.079770
C24	C	0.984709	-0.237416	-0.079771
C25	C	0.984011	-0.276893	0.000064
C26	C	0.984694	-0.237420	0.079905
C27	C	0.986078	-0.158475	0.079905
C28	C	0.979114	-0.555793	0.079905
C29	C	0.977733	-0.634743	0.079899
C30	C	0.977745	-0.634734	-0.079770
C31	C	0.979129	-0.555790	-0.079770
C32	C	0.979807	-0.516323	0.000070
C33	C	0.981312	-0.430721	0.000070
C34	C	0.982512	-0.362494	0.000064
C35	C	1.133927	0.097838	0.000077
C36	C	1.226219	0.099313	0.000078
C37	C	0.975568	0.241769	0.000065
C38	C	0.977041	0.325789	0.000063
N39	N	0.981905	0.103389	0.228242
N40	N	0.981926	0.103389	-0.228107
C41	C	1.038548	0.051942	0.453970
C42	C	1.038551	0.051940	0.546160
C43	C	0.925278	0.154839	0.546159
C44	C	0.925272	0.154837	0.453971
C45	C	0.981912	0.103389	0.407879
C46	C	0.981920	0.103390	0.592257
C47	C	0.981923	0.103388	0.692213
C48	C	0.981908	0.103389	0.307917
H49	H	0.560557	0.104655	-0.144785
O50	O	0.976928	-0.673157	0.157402
C51	C	0.904138	-0.710220	0.162166
H52	H	0.879953	-0.719183	0.092841
H53	H	0.919342	-0.767665	0.195959
H54	H	0.854261	-0.673783	0.201548
H55	H	0.986672	-0.126336	-0.144781
H56	H	0.560590	0.104632	0.144903
H57	H	1.084668	0.010047	0.583685
O58	O	0.870182	0.204843	0.590798
C59	C	0.820203	0.250261	0.530345
H60	H	0.819325	0.219228	0.464632
H61	H	0.753789	0.261785	0.556984
H62	H	0.847081	0.306497	0.520534
O63	O	0.396564	0.102047	0.157544
C64	C	0.453432	0.102933	0.228010
H65	H	0.511756	0.127872	0.204608
H66	H	0.423025	0.139249	0.283850
H67	H	0.471499	0.042395	0.252554
H68	H	0.879148	0.196731	0.416441
H69	H	0.984154	-0.269548	-0.144781
O70	O	0.979767	-0.517555	-0.157400
C71	C	0.978883	-0.569322	-0.227867
H72	H	0.951587	-0.622460	-0.204466
H73	H	0.938936	-0.541698	-0.283705
H74	H	1.045411	-0.585668	-0.252413
O75	O	0.976923	-0.673094	-0.157304
C76	C	0.904153	-0.710185	-0.162071
H77	H	0.854263	-0.680389	-0.116771
H78	H	0.879981	-0.708201	-0.232683
H79	H	0.919372	-0.771955	-0.140615
O80	O	0.979834	-0.517586	0.157538
C81	C	0.978915	-0.569360	0.227998
H82	H	1.004225	-0.628772	0.204580
H83	H	1.019681	-0.551376	0.283826
H84	H	0.912100	-0.569798	0.252563
H85	H	0.986624	-0.126341	0.144915
O86	O	0.984054	-0.275887	0.157378
C87	C	0.982670	-0.354027	0.140261
H88	H	1.008793	-0.367944	0.071649
H89	H	1.022494	-0.388841	0.191249
H90	H	0.915606	-0.368482	0.144044
H91	H	1.084667	0.010049	0.416444
H92	H	0.403242	0.102151	-0.144777
