data_functionalizedCrystal
_audit_creation_method	'MofGen! by Chris Wilmer'
_symmetry_space_group_name_H-M	'P1'
_symmetry_Int_Tables_number	1
_symmetry_cell_setting	triclinic
loop_
_symmetry_equiv_pos_as_xyz
  x,y,z
_cell_length_a	16.625546
_cell_length_b	16.625548
_cell_length_c	12.759393
_cell_angle_alpha	90.022328
_cell_angle_beta	89.963602
_cell_angle_gamma	89.977673
loop_
_atom_site_label
_atom_site_type_symbol
_atom_site_fract_x
_atom_site_fract_y
_atom_site_fract_z
Zn1	Zn	-0.320955	-1.232680	-0.594086
Zn2	Zn	-0.455813	-1.232584	-0.418392
Zn3	Zn	-0.320997	-1.097842	-0.418410
Zn4	Zn	-0.455749	-1.097813	-0.594018
O5	O	-0.388379	-1.165230	-0.506227
O6	O	-0.338853	-1.345500	-0.570801
O7	O	-0.437973	-1.214682	-0.271373
O8	O	-0.208159	-1.115782	-0.441750
O9	O	-0.437932	-1.345429	-0.441719
O10	O	-0.208129	-1.214847	-0.570819
O11	O	-0.338925	-1.115688	-0.271387
O12	O	-0.338864	-0.985006	-0.441685
O13	O	-0.437825	-1.115731	-0.741049
O14	O	-0.437865	-0.984984	-0.570703
O15	O	-0.338792	-1.214818	-0.741098
O16	O	-0.568637	-1.214653	-0.441653
O17	O	-0.568590	-1.115637	-0.570685
C18	C	-0.388363	-0.955739	-0.506189
C19	C	-0.388375	-0.866118	-0.506198
C20	C	-0.388374	-0.537942	-0.506229
C21	C	-0.388372	-0.629251	-0.506217
C22	C	-0.388375	-0.702027	-0.506213
C23	C	-0.388372	-0.793341	-0.506202
C24	C	-0.597870	-1.165153	-0.506183
C25	C	-0.687491	-1.165194	-0.506199
C26	C	-1.015666	-1.165335	-0.506309
C27	C	-0.924358	-1.165293	-0.506281
C28	C	-0.851581	-1.165264	-0.506253
C29	C	-0.760267	-1.165224	-0.506227
C30	C	-0.178070	-1.165328	-0.506294
C31	C	-0.088449	-1.165370	-0.506323
C32	C	-0.388297	-1.165282	-0.780260
C33	C	-0.388262	-1.165304	-0.897037
C34	C	-0.388390	-0.375539	-0.506255
C35	C	-0.388381	-0.465160	-0.506241
C36	C	-0.336678	-1.113780	-0.951912
C37	C	-0.336654	-1.113804	-1.061636
C38	C	-0.439800	-1.216884	-1.061601
C39	C	-0.439827	-1.216855	-0.951878
C40	C	-0.285112	-1.062229	-0.897071
C41	C	-0.233523	-1.010701	-0.951946
C42	C	-0.233499	-1.010726	-1.061670
C43	C	-0.285064	-1.062278	-1.116519
C44	C	-0.388402	-1.165224	-0.233259
C45	C	-0.388210	-1.165358	-0.116483
H46	H	-0.285124	-1.062205	-0.807728
H47	H	-0.481779	-1.258858	-1.106267
N48	N	-0.177869	-0.955146	-1.120860
H49	H	-0.145210	-0.922486	-1.069465
H50	H	-0.140549	-0.987996	-1.166406
H51	H	-0.285042	-1.062292	-1.205864
N52	N	-0.177917	-0.955094	-0.892796
H53	H	-0.185757	-0.962896	-0.814960
H54	H	-0.120328	-0.967676	-0.912003
N55	N	-0.495467	-1.272425	-0.892687
H56	H	-0.528124	-1.305088	-0.944081
H57	H	-0.462664	-1.309744	-0.847176
