data_functionalizedCrystal
_audit_creation_method	'MofGen! by Chris Wilmer'
_symmetry_space_group_name_H-M	'P1'
_symmetry_Int_Tables_number	1
_symmetry_cell_setting	triclinic
loop_
_symmetry_equiv_pos_as_xyz
  x,y,z
_cell_length_a	12.811438
_cell_length_b	13.339071
_cell_length_c	11.295483
_cell_angle_alpha	95.204896
_cell_angle_beta	80.460799
_cell_angle_gamma	99.764222
loop_
_atom_site_label
_atom_site_type_symbol
_atom_site_fract_x
_atom_site_fract_y
_atom_site_fract_z
O1	O	1.445529	0.118931	-0.255132
O2	O	1.142582	0.136008	-0.222424
O3	O	1.259285	-0.019681	-0.234997
O4	O	1.328825	0.274619	-0.242559
O5	O	1.249029	-0.006027	-0.035841
O6	O	1.132325	0.149661	-0.023268
O7	O	1.435272	0.132584	-0.055976
Cu8	Cu	1.282862	0.142369	-0.021438
Cu9	Cu	1.294992	0.126222	-0.256962
O10	O	1.318569	0.288272	-0.043403
C11	C	1.097887	0.142296	-0.118573
C12	C	0.979990	0.140679	-0.105843
C13	C	0.808228	0.145844	0.020653
C14	C	0.919003	0.147363	0.008697
C15	C	0.930194	0.132478	-0.208435
C16	C	0.819419	0.130958	-0.196479
C17	C	0.758439	0.137640	-0.081931
C18	C	0.647661	0.136113	-0.069976
C19	C	0.658855	0.121235	-0.287107
C20	C	0.769630	0.122755	-0.299063
C21	C	1.242411	-0.050505	-0.134147
C22	C	1.207398	-0.162693	-0.130354
C23	C	1.098214	-0.203042	-0.118587
C24	C	1.065316	-0.308450	-0.115060
C25	C	1.141599	-0.373522	-0.123309
C26	C	1.250785	-0.333174	-0.135085
C27	C	1.283686	-0.227755	-0.138603
C28	C	1.327070	-0.398235	-0.143325
C29	C	1.436256	-0.357887	-0.155101
C30	C	1.469151	-0.252478	-0.158619
C31	C	1.392869	-0.187406	-0.150370
C32	C	1.294169	-0.503654	-0.139808
C33	C	1.479640	-0.528367	-0.159824
C34	C	1.512539	-0.422959	-0.163351
C35	C	1.479967	0.126296	-0.159829
C36	C	1.597865	0.127912	-0.172568
C37	C	1.335443	0.319097	-0.144256
C38	C	1.370457	0.431284	-0.148057
N39	N	1.274339	0.153725	0.144217
N40	N	1.303521	0.114858	-0.422618
C41	C	1.364863	0.033054	0.383753
C42	C	1.358431	0.041643	0.509110
C43	C	1.255037	0.179487	0.520290
C44	C	1.261469	0.170898	0.394933
C45	C	1.316385	0.097680	0.326669
C46	C	1.322823	0.089097	0.201309
C47	C	1.219423	0.226935	0.212492
C48	C	1.212991	0.235524	0.337849
H49	H	1.205269	-0.536494	-0.130214
C50	C	1.166093	0.298028	0.149690
N51	N	1.125928	0.351576	0.102385
H52	H	0.598013	0.141560	0.023294
C53	C	0.741147	0.153186	0.146654
N54	N	0.690623	0.158717	0.241562
C55	C	0.945216	-0.352825	-0.102111
N56	N	0.854750	-0.386248	-0.092359
H57	H	1.409587	-0.026556	0.328171
C58	C	1.411757	-0.029454	0.571898
N59	N	1.451922	-0.083010	0.619191
H60	H	1.419650	-0.101574	-0.153250
H61	H	1.367542	0.029482	0.145729
C62	C	1.105406	-0.489475	-0.119439
N63	N	1.078142	-0.576815	-0.116531
H64	H	0.959537	0.154047	0.092232
C65	C	1.589258	-0.208098	-0.171559
N66	N	1.679724	-0.174673	-0.181305
C67	C	0.997290	0.125133	-0.334427
N68	N	1.047829	0.119598	-0.429326
H69	H	1.541756	-0.581349	-0.166540
C70	C	1.194602	0.259997	0.595405
N71	N	1.149072	0.320631	0.651984
H72	H	1.168275	0.295134	0.393444
C73	C	1.014317	-0.131458	-0.109512
N74	N	0.951120	-0.077539	-0.102678
H75	H	0.819295	0.117319	-0.392324
H76	H	0.618306	0.114559	-0.370638
H77	H	1.601440	-0.390093	-0.172948
