data_functionalizedCrystal
_audit_creation_method	'MofGen! by Chris Wilmer'
_symmetry_space_group_name_H-M	'P1'
_symmetry_Int_Tables_number	1
_symmetry_cell_setting	triclinic
loop_
_symmetry_equiv_pos_as_xyz
  x,y,z
_cell_length_a	8.559649
_cell_length_b	12.837942
_cell_length_c	11.892052
_cell_angle_alpha	93.963740
_cell_angle_beta	85.197172
_cell_angle_gamma	97.696198
loop_
_atom_site_label
_atom_site_type_symbol
_atom_site_fract_x
_atom_site_fract_y
_atom_site_fract_z
O1	O	-2.124731	-0.029616	0.094004
O2	O	-1.667581	0.023278	0.094006
O3	O	-1.886018	-0.153265	0.093998
O4	O	-1.906293	0.146927	0.094012
O5	O	-1.866210	-0.163528	-0.094011
O6	O	-1.647773	0.013016	-0.094003
O7	O	-2.104923	-0.039879	-0.094005
Zn8	Zn	-1.873203	-0.015061	-0.123855
Zn9	Zn	-1.899301	-0.001539	0.123856
O10	O	-1.886485	0.136665	-0.093997
C11	C	-1.598757	0.022156	0.000002
C12	C	-1.423194	0.034087	0.000003
C13	C	-1.869266	-0.196472	-0.000006
C14	C	-1.848840	-0.309922	-0.000004
C15	C	-2.094402	-0.570429	0.000019
C16	C	-2.075217	-0.677027	0.000021
C17	C	-1.791288	-0.629719	0.000010
C18	C	-1.810473	-0.523121	0.000008
C19	C	-1.962034	-0.493480	0.000011
C20	C	-1.981217	-0.386880	0.000001
C21	C	-1.697289	-0.339574	-0.000002
C22	C	-1.678105	-0.446173	0.000000
C23	C	-1.173746	-0.038756	-0.000000
C24	C	-1.349310	-0.050688	-0.000000
C25	C	-1.903238	0.179871	0.000009
C26	C	-1.923665	0.293323	0.000015
N27	N	-1.855402	-0.024290	-0.292911
C28	C	-1.731556	-0.088502	-0.470459
C29	C	-1.743984	-0.082052	-0.352116
C30	C	-1.954403	0.027023	-0.352057
C31	C	-1.941975	0.020573	-0.470400
C32	C	-1.830546	-0.037189	-0.529597
C33	C	-1.818112	-0.043632	-0.647942
C34	C	-2.028537	0.065436	-0.647881
C35	C	-2.040965	0.071886	-0.529537
N36	N	-1.917112	0.007681	0.292912
H37	H	-1.420366	-0.132395	0.000002
H38	H	-1.554708	-0.470321	0.000003
H39	H	-1.640815	-0.135525	-0.518659
H40	H	-1.589505	-0.276910	-0.000017
H41	H	-2.104625	-0.362750	-0.000001
H42	H	-1.352131	0.115801	0.000012
H43	H	-2.217808	-0.546296	0.000010
Cl44	Cl	-2.152987	0.129948	-0.722232
H45	H	-2.183006	-0.739677	0.000031
H46	H	-2.131692	0.118911	-0.481323
Cl47	Cl	-1.600773	-0.667000	0.000041
H48	H	-1.727376	-0.090662	-0.696139
Cl49	Cl	-1.619536	-0.146564	-0.277775
H50	H	-2.045136	0.074040	-0.303838
