data_functionalizedCrystal
_audit_creation_method	'MofGen! by Chris Wilmer'
_symmetry_space_group_name_H-M	'P1'
_symmetry_Int_Tables_number	1
_symmetry_cell_setting	triclinic
loop_
_symmetry_equiv_pos_as_xyz
  x,y,z
_cell_length_a	12.594517
_cell_length_b	21.295417
_cell_length_c	12.594509
_cell_angle_alpha	90.036245
_cell_angle_beta	90.021327
_cell_angle_gamma	90.030306
loop_
_atom_site_label
_atom_site_type_symbol
_atom_site_fract_x
_atom_site_fract_y
_atom_site_fract_z
Zn1	Zn	1.627160	-0.250594	0.601801
Zn2	Zn	1.627006	-0.355872	0.423797
Zn3	Zn	1.449164	-0.250621	0.423830
Zn4	Zn	1.449101	-0.355829	0.601727
O5	O	1.538108	-0.303229	0.512789
O6	O	1.776085	-0.264566	0.578205
O7	O	1.603377	-0.341940	0.274856
O8	O	1.472866	-0.162528	0.447482
O9	O	1.775972	-0.341914	0.447427
O10	O	1.603639	-0.162508	0.578237
O11	O	1.472717	-0.264612	0.274879
O12	O	1.300210	-0.264570	0.447411
O13	O	1.472759	-0.341839	0.750683
O14	O	1.300164	-0.341865	0.578112
O15	O	1.603578	-0.264524	0.750737
O16	O	1.603316	-0.443956	0.447356
O17	O	1.472610	-0.443924	0.578080
C18	C	1.261567	-0.303216	0.512757
C19	C	1.143261	-0.303226	0.512769
C20	C	1.074002	-0.261127	0.441817
C21	C	1.003167	-0.318547	0.415623
C22	C	1.003298	-0.245834	0.538981
C23	C	1.073984	-0.360676	0.486525
C24	C	1.074121	-0.287924	0.609928
C25	C	1.003318	-0.345384	0.583771
C26	C	1.537968	-0.466780	0.512730
C27	C	1.538006	-0.536748	0.512740
C28	C	1.606125	-0.569611	0.444742
C29	C	1.606175	-0.635353	0.444766
C30	C	1.538087	-0.668231	0.512777
C31	C	1.469963	-0.635361	0.580789
C32	C	1.469923	-0.569619	0.580770
N33	N	1.444976	-0.771496	0.520881
N34	N	1.445018	-0.833948	0.520892
C35	C	1.538206	-0.866306	0.512838
N36	N	1.631353	-0.833853	0.504752
N37	N	1.631311	-0.771396	0.504735
C38	C	1.538123	-0.739516	0.512805
C39	C	1.606385	-0.970454	0.444862
C40	C	1.606436	-1.036197	0.444893
C41	C	1.470215	-1.036203	0.580910
C42	C	1.470173	-0.970461	0.580885
C43	C	1.538256	-0.937590	0.512855
C44	C	1.815729	-0.303242	0.512821
C45	C	1.934034	-0.303247	0.512835
C46	C	1.538179	-0.303174	0.790410
C47	C	1.538209	-0.303150	0.908715
C48	C	1.538277	-0.139038	0.512871
C49	C	1.538349	-0.069070	0.512906
C50	C	1.538098	-0.303238	0.236248
C51	C	1.538274	-0.303084	0.117943
C52	C	1.467079	-0.345178	0.977939
C53	C	1.564193	-0.360559	1.048726
C54	C	1.441171	-0.287731	1.048728
C55	C	1.635374	-0.318561	0.977944
C56	C	1.512287	-0.245707	0.977939
C57	C	1.609468	-0.261066	1.048694
H58	H	1.105311	-0.274950	0.692040
H59	H	1.669717	-0.225496	1.079565
H60	H	1.490297	-0.197170	0.946822
H61	H	1.414527	-0.662134	0.636166
H62	H	1.717489	-0.331630	0.946982
C63	C	1.395840	-0.534050	0.654638
C64	C	1.336204	-0.576910	0.714193
C65	C	1.267937	-0.544165	0.782239
H66	H	1.436396	-0.508356	0.701135
H67	H	1.349411	-0.508463	0.613893
H68	H	1.382627	-0.602485	0.754934
H69	H	1.295627	-0.602604	0.667723
H70	H	1.221508	-0.518578	0.741495
H71	H	1.308501	-0.518472	0.828729
H72	H	1.227459	-0.573240	0.822648
C73	C	0.962041	-0.181051	0.568369
C74	C	0.997878	-0.137160	0.493799
C75	C	0.959909	-0.077474	0.520835
H76	H	0.886625	-0.181532	0.568798
H77	H	0.987410	-0.169849	0.636863
H78	H	0.972504	-0.148358	0.425323
H79	H	1.073289	-0.136659	0.493359
H80	H	0.985278	-0.066273	0.589329
H81	H	0.884495	-0.077962	0.521263
H82	H	0.984227	-0.047686	0.470250
C83	C	1.680421	-0.934874	0.370969
C84	C	1.740116	-0.977728	0.311446
C85	C	1.808337	-0.944977	0.243374
H86	H	1.639830	-0.909272	0.324452
H87	H	1.726815	-0.909194	0.411693
H88	H	1.693728	-1.003397	0.270725
H89	H	1.780729	-1.003331	0.357935
H90	H	1.854731	-0.919298	0.284098
H91	H	1.767737	-0.919377	0.196864
H92	H	1.848855	-0.974049	0.202987
C93	C	1.331621	-0.270461	1.090042
C94	C	1.257449	-0.314645	1.054168
C95	C	1.156518	-0.298758	1.092191
H96	H	1.332447	-0.270197	1.165458
H97	H	1.312635	-0.229975	1.064734
H98	H	1.276430	-0.355121	1.079482
H99	H	1.256590	-0.314916	0.978757
H100	H	1.137532	-0.258272	1.066883
H101	H	1.157355	-0.298494	1.167606
H102	H	1.106179	-0.328731	1.067849
H103	H	0.972003	-0.331503	0.333486
H104	H	1.105039	-0.225561	0.381741
H105	H	1.414699	-0.943702	0.636251
H106	H	1.104905	-0.409235	0.464291
C107	C	1.680171	-0.534037	0.370855
C108	C	1.739860	-0.576893	0.311331
C109	C	1.808096	-0.544144	0.243270
H110	H	1.639590	-0.508430	0.324339
H111	H	1.726568	-0.508364	0.411587
H112	H	1.693470	-0.602556	0.270602
H113	H	1.780463	-0.602502	0.357819
H114	H	1.854492	-0.518471	0.284002
H115	H	1.767506	-0.518538	0.196761
H116	H	1.848610	-0.573217	0.202882
H117	H	0.972477	-0.381035	0.643801
C118	C	1.680237	-0.671084	0.371093
C119	C	1.748471	-0.708762	0.431406
C120	C	1.816706	-0.741682	0.363568
H121	H	1.639652	-0.696817	0.324684
H122	H	1.720842	-0.642118	0.330581
H123	H	1.707870	-0.737725	0.471899
H124	H	1.789080	-0.683045	0.477812
H125	H	1.857312	-0.712716	0.323057
H126	H	1.776112	-0.767411	0.317163
H127	H	1.863017	-0.767246	0.404481
H128	H	1.661914	-1.062953	0.389523
H129	H	1.414781	-1.062971	0.636291
H130	H	1.586154	-0.409109	1.079819
H131	H	1.406974	-0.380775	0.946873
