data_functionalizedCrystal
_audit_creation_method	'MofGen! by Chris Wilmer'
_symmetry_space_group_name_H-M	'P1'
_symmetry_Int_Tables_number	1
_symmetry_cell_setting	triclinic
loop_
_symmetry_equiv_pos_as_xyz
  x,y,z
_cell_length_a	19.188940
_cell_length_b	19.288864
_cell_length_c	17.766277
_cell_angle_alpha	89.976791
_cell_angle_beta	90.006813
_cell_angle_gamma	96.857520
loop_
_atom_site_label
_atom_site_type_symbol
_atom_site_fract_x
_atom_site_fract_y
_atom_site_fract_z
O1	O	0.087099	-0.921363	0.062836
O2	O	0.420432	-0.588029	0.396170
O3	O	0.753765	-0.254696	0.729503
O4	O	0.098848	-0.719103	0.062785
O5	O	0.432182	-0.385770	0.396118
O6	O	0.765515	-0.052437	0.729452
O7	O	-0.008682	-0.826066	0.062806
O8	O	0.324651	-0.492733	0.396140
O9	O	0.657985	-0.159400	0.729473
O10	O	0.194629	-0.814400	0.062815
O11	O	0.527962	-0.481066	0.396148
O12	O	0.861296	-0.147733	0.729482
O13	O	-0.008688	-0.826047	-0.062382
O14	O	0.324646	-0.492714	0.270951
O15	O	0.657979	-0.159381	0.604284
O16	O	0.098843	-0.719084	-0.062404
O17	O	0.432176	-0.385751	0.270930
O18	O	0.765510	-0.052418	0.604263
O19	O	0.087093	-0.921344	-0.062352
O20	O	0.420427	-0.588011	0.270981
O21	O	0.753760	-0.254677	0.604314
Cu22	Cu	0.092968	-0.820212	-0.073809
Cu23	Cu	0.426301	-0.486879	0.259525
Cu24	Cu	0.759634	-0.153546	0.592858
Cu25	Cu	0.092974	-0.820235	0.074241
Cu26	Cu	0.426307	-0.486901	0.407575
Cu27	Cu	0.759641	-0.153568	0.740908
O28	O	0.194624	-0.814381	-0.062374
O29	O	0.527957	-0.481048	0.270960
O30	O	0.861290	-0.147714	0.604293
C31	C	0.098467	-0.693217	0.000184
C32	C	0.431801	-0.359884	0.333517
C33	C	0.765134	-0.026551	0.666851
C34	C	0.097333	-0.616114	0.000164
C35	C	0.430666	-0.282780	0.333498
C36	C	0.763999	0.050553	0.666831
N37	N	0.092963	-0.820202	-0.177939
N38	N	0.426296	-0.486869	0.155394
N39	N	0.759629	-0.153535	0.488728
C40	C	-0.034696	-0.825678	0.000212
C41	C	0.298638	-0.492345	0.333545
C42	C	0.631971	-0.159011	0.666879
C43	C	-0.112200	-0.824540	0.000212
C44	C	0.221134	-0.491207	0.333546
C45	C	0.554467	-0.157874	0.666879
C46	C	-0.665461	-0.816438	-0.068012
C47	C	-0.332128	-0.483104	0.265321
C48	C	0.001205	-0.149771	0.598654
C49	C	-0.592637	-0.817499	-0.068016
C50	C	-0.259304	-0.484166	0.265317
C51	C	0.074030	-0.150832	0.598650
C52	C	-0.556215	-0.818043	0.000223
C53	C	-0.222881	-0.484710	0.333557
C54	C	0.110452	-0.151376	0.666890
C55	C	-0.592620	-0.817508	0.068472
C56	C	-0.259287	-0.484175	0.401805
C57	C	0.074047	-0.150841	0.735138
C58	C	-0.665442	-0.816440	0.068474
C59	C	-0.332109	-0.483106	0.401807
C60	C	0.001225	-0.149773	0.735140
N61	N	-0.447191	-0.859253	0.051026
N62	N	-0.113858	-0.525919	0.384359
N63	N	0.219475	-0.192586	0.717692
N64	N	-0.378014	-0.860269	0.051019
N65	N	-0.044680	-0.526935	0.384353
N66	N	0.288653	-0.193602	0.717686
C67	C	-0.336806	-0.821260	0.000221
C68	C	-0.003472	-0.487927	0.333555
C69	C	0.329861	-0.154593	0.666888
N70	N	-0.367390	-0.781205	-0.050581
N71	N	-0.034056	-0.447872	0.282752
N72	N	0.299277	-0.114538	0.616086
N73	N	-0.436574	-0.780192	-0.050577
N74	N	-0.103241	-0.446859	0.282757
N75	N	0.230093	-0.113525	0.616090
C76	C	-0.477251	-0.819201	0.000229
C77	C	-0.143918	-0.485868	0.333562
C78	C	0.189416	-0.152534	0.666895
C79	C	-0.221444	-0.822941	-0.068027
C80	C	0.111890	-0.489607	0.265306
C81	C	0.445223	-0.156274	0.598640
C82	C	-0.148617	-0.823998	-0.068028
C83	C	0.184716	-0.490664	0.265305
C84	C	0.518049	-0.157331	0.598639
C85	C	-0.148603	-0.824014	0.068462
C86	C	0.184731	-0.490680	0.401795
C87	C	0.518064	-0.157347	0.735129
C88	C	-0.221427	-0.822950	0.068461
C89	C	0.111907	-0.489616	0.401794
C90	C	0.445240	-0.156283	0.735128
C91	C	-0.257843	-0.822417	0.000214
C92	C	0.075490	-0.489083	0.333548
C93	C	0.408823	-0.155750	0.666881
C94	C	0.220637	-0.814769	0.000222
C95	C	0.553971	-0.481436	0.333556
C96	C	0.887304	-0.148103	0.666889
C97	C	0.298141	-0.815907	0.000227
C98	C	0.631475	-0.482573	0.333560
C99	C	0.964808	-0.149240	0.666894
C100	C	0.087474	-0.947230	0.000250
C101	C	0.420807	-0.613896	0.333584
C102	C	0.754141	-0.280563	0.666917
C103	C	0.088609	-1.024333	0.000275
C104	C	0.421942	-0.691000	0.333608
C105	C	0.755276	-0.357667	0.666942
C106	C	0.160427	-0.571424	0.000179
C107	C	0.493760	-0.238091	0.333512
C108	C	0.827093	0.095242	0.666845
C109	C	0.159360	-0.498977	0.000187
C110	C	0.492694	-0.165644	0.333520
C111	C	0.826027	0.167690	0.666854
C112	C	0.095197	-0.471222	0.000196
C113	C	0.428530	-0.137889	0.333529
C114	C	0.761863	0.195444	0.666863
C115	C	0.032094	-0.515922	0.000177
C116	C	0.365428	-0.182588	0.333511
C117	C	0.698761	0.150745	0.666844
C118	C	0.033162	-0.588367	0.000161
C119	C	0.366496	-0.255034	0.333495
C120	C	0.699829	0.078299	0.666828
C121	C	0.044759	-0.362962	0.044078
C122	C	0.378092	-0.029628	0.377412
C123	C	0.711425	0.303705	0.710745
C124	C	0.043693	-0.290517	0.044099
C125	C	0.377027	0.042816	0.377432
C126	C	0.710360	0.376150	0.710765
C127	C	0.091900	-0.247777	0.000241
C128	C	0.425233	0.085557	0.333575
C129	C	0.758567	0.418890	0.666908
C130	C	0.141184	-0.277488	-0.043627
C131	C	0.474517	0.055845	0.289707
C132	C	0.807850	0.389179	0.623040
C133	C	0.142252	-0.349934	-0.043643
C134	C	0.475585	-0.016600	0.289691
C135	C	0.808918	0.316733	0.623024
C136	C	0.094031	-0.392668	0.000213
C137	C	0.427365	-0.059335	0.333546
C138	C	0.760698	0.273998	0.666879
C139	C	0.153842	-0.124531	0.000264
C140	C	0.487176	0.208802	0.333597
C141	C	0.820509	0.542136	0.666930
C142	C	0.152773	-0.052083	0.000267
C143	C	0.486107	0.281250	0.333601
C144	C	0.819440	0.614584	0.666934
C145	C	0.025506	-0.069029	0.000265
C146	C	0.358839	0.264304	0.333598
C147	C	0.692172	0.597637	0.666932
C148	C	0.026576	-0.141476	0.000254
C149	C	0.359910	0.191858	0.333587
C150	C	0.693243	0.525191	0.666921
C151	C	0.090746	-0.169222	0.000257
C152	C	0.424080	0.164111	0.333590
C153	C	0.757413	0.497445	0.666923
C154	C	0.045372	-0.867580	-0.217316
C155	C	0.378705	-0.534247	0.116017
C156	C	0.712038	-0.200914	0.449350
C157	C	0.045368	-0.867584	-0.296118
C158	C	0.378702	-0.534251	0.037215
C159	C	0.712035	-0.200918	0.370548
C160	C	0.092968	-0.820217	-0.335540
C161	C	0.426302	-0.486883	-0.002206
C162	C	0.759635	-0.153550	0.331127
C163	C	0.140563	-0.772829	-0.296153
C164	C	0.473896	-0.439496	0.037181
C165	C	0.807230	-0.106163	0.370514
C166	C	0.140560	-0.772822	-0.217352
C167	C	0.473894	-0.439489	0.115981
C168	C	0.807227	-0.106155	0.449314
C169	C	0.156585	-0.810925	-0.460376
C170	C	0.489918	-0.477591	-0.127043
C171	C	0.823251	-0.144258	0.206290
C172	C	0.156588	-0.810937	-0.539175
C173	C	0.489922	-0.477604	-0.205842
C174	C	0.823255	-0.144270	0.127492
C175	C	0.092977	-0.820235	-0.578586
C176	C	0.426310	-0.486902	-0.245253
C177	C	0.759643	-0.153568	0.088081
C178	C	0.029358	-0.829536	-0.539188
C179	C	0.362692	-0.496203	-0.205855
C180	C	0.696025	-0.162869	0.127479
C181	C	0.029356	-0.829529	-0.460388
C182	C	0.362689	-0.496195	-0.127054
C183	C	0.696022	-0.162862	0.206279
C184	C	0.092976	-0.820219	-0.420985
C185	C	0.426310	-0.486886	-0.087652
C186	C	0.759643	-0.153552	0.245681
C187	C	0.045378	-0.867621	-0.703409
C188	C	0.378711	-0.534287	-0.370076
C189	C	0.712045	-0.200954	-0.036743
C190	C	0.045374	-0.867620	-0.782212
C191	C	0.378707	-0.534286	-0.448879
C192	C	0.712040	-0.200953	-0.115546
C193	C	0.140575	-0.772868	-0.782245
C194	C	0.473908	-0.439535	-0.448912
C195	C	0.807241	-0.106201	-0.115579
C196	C	0.140573	-0.772865	-0.703444
C197	C	0.473906	-0.439532	-0.370110
C198	C	0.807239	-0.106199	-0.036777
C199	C	0.092975	-0.820245	-0.664030
C200	C	0.426308	-0.486912	-0.330697
C201	C	0.759642	-0.153579	0.002636
N202	N	0.092973	-0.820251	0.178372
N203	N	0.426307	-0.486917	0.511705
N204	N	0.759640	-0.153584	0.845038
H205	H	-0.695107	-0.816003	-0.123584
H206	H	-0.361774	-0.482669	0.209749
H207	H	-0.028440	-0.149336	0.543083
Cl208	Cl	-0.102858	-0.824652	-0.153823
Cl209	Cl	0.230475	-0.491319	0.179510
Cl210	Cl	0.563808	-0.157986	0.512843
Cl211	Cl	-0.050617	-0.841213	-0.410862
Cl212	Cl	0.282716	-0.507879	-0.077528
Cl213	Cl	0.616049	-0.174546	0.255805
H214	H	-0.562960	-0.817948	0.124033
H215	H	-0.229626	-0.484615	0.457366
H216	H	0.103707	-0.151282	0.790699
H217	H	0.003566	-0.266331	0.079822
H218	H	0.336900	0.067002	0.413155
H219	H	0.670233	0.400335	0.746488
H220	H	-0.118947	-0.824448	0.124024
H221	H	0.214386	-0.491115	0.457357
H222	H	0.547720	-0.157782	0.790691
Cl223	Cl	-0.546872	-0.818174	-0.153810
Cl224	Cl	-0.213538	-0.484840	0.179524
Cl225	Cl	0.119795	-0.151507	0.512857
Cl226	Cl	-0.015850	-0.416686	0.099219
Cl227	Cl	0.317483	-0.083352	0.432552
Cl228	Cl	0.650816	0.249981	0.765885
Cl229	Cl	0.201791	-0.223765	-0.098765
Cl230	Cl	0.535125	0.109568	0.234568
Cl231	Cl	0.868458	0.442902	0.567901
Cl232	Cl	0.234511	-0.159416	0.000260
Cl233	Cl	0.567845	0.173918	0.333593
Cl234	Cl	0.901178	0.507251	0.666927
H235	H	-0.022440	-0.837107	-0.571275
H236	H	0.310893	-0.503774	-0.237941
H237	H	0.644226	-0.170440	0.095392
H238	H	0.212679	-0.594010	0.000183
H239	H	0.546012	-0.260677	0.333516
H240	H	0.879346	0.072657	0.666849
H241	H	-0.251095	-0.822501	-0.123597
H242	H	0.082239	-0.489167	0.209736
H243	H	0.415572	-0.155834	0.543069
H244	H	0.208388	-0.803341	-0.428295
H245	H	0.541722	-0.470008	-0.094961
H246	H	0.875055	-0.136674	0.238372
H247	H	-0.695076	-0.816006	0.124044
H248	H	-0.361743	-0.482673	0.457378
H249	H	-0.028410	-0.149340	0.790711
H250	H	0.179329	-0.734297	-0.814342
H251	H	0.512662	-0.400964	-0.481008
H252	H	0.845995	-0.067631	-0.147675
Cl253	Cl	-0.267187	-0.822289	0.154253
Cl254	Cl	0.066147	-0.488955	0.487586
Cl255	Cl	0.399480	-0.155622	0.820920
Cl256	Cl	0.238684	-0.442786	0.000204
Cl257	Cl	0.572018	-0.109452	0.333537
Cl258	Cl	0.905351	0.223881	0.666870
H259	H	0.006613	-0.906158	-0.185228
H260	H	0.339947	-0.572825	0.148105
H261	H	0.673280	-0.239492	0.481438
Cl262	Cl	0.204202	-0.387284	-0.098792
Cl263	Cl	0.537536	-0.053950	0.234542
Cl264	Cl	0.870869	0.279383	0.567875
Cl265	Cl	0.232099	0.004100	0.000282
Cl266	Cl	0.565433	0.337433	0.333615
Cl267	Cl	0.898766	0.670767	0.666948
H268	H	0.006619	-0.906198	-0.671318
H269	H	0.339952	-0.572865	-0.337984
H270	H	0.673286	-0.239532	-0.004651
Cl271	Cl	0.200395	-0.713256	-0.167846
Cl272	Cl	0.533728	-0.379923	0.165487
Cl273	Cl	0.867061	-0.046590	0.498821
Cl274	Cl	-0.055158	-0.034145	0.000267
Cl275	Cl	0.278175	0.299189	0.333601
Cl276	Cl	0.611508	0.632522	0.666934
Cl277	Cl	-0.014464	-0.927182	-0.831719
Cl278	Cl	0.318869	-0.593849	-0.498385
Cl279	Cl	0.652203	-0.260515	-0.165052
H280	H	-0.024802	-0.177863	0.000246
H281	H	0.308532	0.155470	0.333580
H282	H	0.641865	0.488804	0.666913
Cl283	Cl	-0.048569	-0.481031	0.000184
Cl284	Cl	0.284765	-0.147698	0.333517
Cl285	Cl	0.618098	0.185635	0.666851
Cl286	Cl	-0.014466	-0.927152	-0.345630
Cl287	Cl	0.318868	-0.593819	-0.012296
Cl288	Cl	0.652201	-0.260485	0.321037
Cl289	Cl	0.200408	-0.713305	-0.653936
Cl290	Cl	0.533741	-0.379971	-0.320602
Cl291	Cl	0.867075	-0.046638	0.012731
Cl292	Cl	-0.046162	-0.644552	0.000144
Cl293	Cl	0.287171	-0.311218	0.333477
Cl294	Cl	0.620504	0.022115	0.666811
H295	H	0.208390	-0.803368	-0.571247
H296	H	0.541723	-0.470035	-0.237913
H297	H	0.875056	-0.136701	0.095420
Cl298	Cl	0.200400	-0.713278	-0.345709
Cl299	Cl	0.533734	-0.379945	-0.012376
Cl300	Cl	0.867067	-0.046611	0.320958
