data_functionalizedCrystal
_audit_creation_method	'MofGen! by Chris Wilmer'
_symmetry_space_group_name_H-M	'P1'
_symmetry_Int_Tables_number	1
_symmetry_cell_setting	triclinic
loop_
_symmetry_equiv_pos_as_xyz
  x,y,z
_cell_length_a	19.188930
_cell_length_b	17.038272
_cell_length_c	15.500227
_cell_angle_alpha	93.043705
_cell_angle_beta	92.813384
_cell_angle_gamma	92.871831
loop_
_atom_site_label
_atom_site_type_symbol
_atom_site_fract_x
_atom_site_fract_y
_atom_site_fract_z
O1	O	0.148564	-1.040536	-0.071852
O2	O	0.146156	-0.812914	-0.071877
O3	O	0.046114	-0.933292	-0.071847
O4	O	0.248607	-0.920157	-0.071882
O5	O	0.052159	-0.925988	0.072040
O6	O	0.152202	-0.805609	0.072009
O7	O	0.154610	-1.033231	0.072035
Cu8	Cu	0.153958	-0.918753	0.085160
Cu9	Cu	0.146808	-0.927392	-0.085003
O10	O	0.254653	-0.912852	0.072004
C11	C	0.146990	-0.780140	0.000063
C12	C	0.140458	-0.693368	0.000054
C13	C	0.023099	-0.929214	0.000099
C14	C	-0.054485	-0.927937	0.000106
C15	C	0.153776	-1.066004	0.000092
C16	C	0.160308	-1.152777	0.000095
C17	C	-0.095020	-0.998572	0.000118
C18	C	-0.167919	-0.997373	0.000104
C19	C	-0.200279	-0.925534	0.000095
C20	C	-0.159734	-0.854890	0.000079
C21	C	-0.086837	-0.856092	0.000084
N22	N	-0.309638	-0.868136	0.049057
N23	N	-0.378887	-0.866999	0.049053
C24	C	-0.419913	-0.921909	0.000077
N25	N	-0.389074	-0.978011	-0.048884
N26	N	-0.319818	-0.979150	-0.048877
C27	C	-0.279323	-0.924223	0.000089
C28	C	-0.539494	-0.991249	0.000073
C29	C	-0.612395	-0.990047	0.000054
C30	C	-0.604208	-0.847562	0.000037
C31	C	-0.531310	-0.848767	0.000048
C32	C	-0.498957	-0.920612	0.000070
C33	C	0.277667	-0.916930	0.000057
C34	C	0.355250	-0.918208	0.000044
N35	N	0.158986	-0.912682	0.204843
C36	C	0.200424	-0.643067	0.000044
C37	C	0.194283	-0.561535	0.000057
C38	C	0.128176	-0.530306	0.000074
C39	C	0.068205	-0.580613	0.000086
C40	C	0.074347	-0.662143	0.000080
C41	C	0.106479	-0.284614	0.000101
C42	C	0.100342	-0.203078	0.000105
C43	C	0.226421	-0.184005	0.000078
C44	C	0.232556	-0.265538	0.000066
C45	C	0.172586	-0.315838	0.000083
C46	C	0.121897	-0.446967	0.000085
C47	C	0.178865	-0.399174	0.000078
N48	N	0.141775	-0.933468	-0.204686
C49	C	0.116612	-0.963709	0.250133
C50	C	0.120422	-0.959125	0.340705
C51	C	0.166610	-0.903518	0.385985
C52	C	0.208985	-0.852486	0.340689
C53	C	0.205171	-0.857067	0.250119
C54	C	0.180337	-0.887017	0.659448
C55	C	0.184149	-0.882442	0.750024
C56	C	0.095584	-0.989080	0.750033
C57	C	0.091778	-0.993659	0.659461
C58	C	0.134150	-0.942624	0.614174
C59	C	0.170506	-0.898833	0.478564
C60	C	0.130250	-0.947306	0.521596
H61	H	-0.200929	-1.054894	0.000110
H62	H	0.239676	-0.815515	0.213246
C63	C	-0.194993	-0.776970	0.000114
C64	C	-0.267509	-0.791034	0.000137
C65	C	-0.300011	-0.719271	0.000177
H66	H	-0.183548	-0.750384	-0.050053
H67	H	-0.179302	-0.745339	0.050307
H68	H	-0.283194	-0.822652	-0.050051
H69	H	-0.278975	-0.817609	0.050300
H70	H	-0.284320	-0.687640	0.050370
H71	H	-0.288560	-0.692690	-0.049991
H72	H	-0.349215	-0.728803	0.000200
H73	H	0.092641	-0.992579	0.484726
H74	H	0.068073	-0.421530	0.000123
H75	H	0.014379	-0.555180	0.000112
H76	H	0.025516	-0.703099	0.000087
H77	H	-0.513151	-1.049750	0.000087
H78	H	0.079004	-1.008993	0.213271
H79	H	-0.053833	-0.798571	0.000074
C80	C	0.226428	-0.831571	0.610442
C81	C	0.267706	-0.781911	0.669486
C82	C	0.310183	-0.730830	0.624370
H83	H	0.197958	-0.800829	0.575122
H84	H	0.255722	-0.861353	0.575115
H85	H	0.238415	-0.752132	0.704798
H86	H	0.296190	-0.812632	0.704808
H87	H	0.339477	-0.760611	0.589042
H88	H	0.281708	-0.700093	0.589051
H89	H	0.338200	-0.697134	0.664423
H90	H	0.246590	-0.807206	0.377562
H91	H	0.085917	-1.000674	0.377579
H92	H	-0.630555	-0.789070	0.000026
C93	C	-0.656285	-1.066823	0.000110
C94	C	-0.612344	-1.129993	0.000155
C95	C	-0.652750	-1.200731	0.000219
H96	H	-0.686999	-1.071980	-0.050056
H97	H	-0.682780	-1.066805	0.050304
H98	H	-0.585860	-1.130012	-0.050034
H99	H	-0.581629	-1.124863	0.050317
H100	H	-0.679245	-1.200713	0.050413
H101	H	-0.683463	-1.205880	-0.049948
H102	H	-0.622942	-1.243600	0.000257
H103	H	0.054168	-1.038938	0.622596
H104	H	-0.068683	-1.057074	0.000133
H105	H	-0.498305	-0.791248	0.000043
H106	H	0.254256	-0.668486	0.000030
H107	H	0.046506	-0.177655	0.000118
H108	H	0.286387	-0.290958	0.000042
H109	H	0.061085	-1.030629	0.786915
C110	C	0.041285	-0.339091	0.000071
C111	C	-0.017922	-0.294290	0.000062
C112	C	-0.077995	-0.344451	0.000024
H113	H	0.043068	-0.368769	0.050234
H114	H	0.038908	-0.373825	-0.050126
H115	H	-0.015546	-0.259570	0.050254
H116	H	-0.019729	-0.264614	-0.050097
H117	H	-0.080371	-0.379185	-0.050173
H118	H	-0.076204	-0.374126	0.050187
H119	H	-0.118174	-0.314061	0.000009
H120	H	0.243114	-0.520582	0.000048
C121	C	0.250612	-0.433129	-0.000122
C122	C	0.254705	-0.483111	-0.074165
C123	C	0.320791	-0.514404	-0.074390
H124	H	0.257810	-0.462055	0.049992
H125	H	0.285470	-0.391521	-0.000177
H126	H	0.219857	-0.524714	-0.074102
H127	H	0.247521	-0.454204	-0.124291
H128	H	0.355649	-0.472795	-0.074446
H129	H	0.327982	-0.543326	-0.024274
H130	H	0.323579	-0.548314	-0.124631
H131	H	0.275245	-0.143042	0.000066
H132	H	0.221763	-0.837158	0.786888
H133	H	0.208115	-0.853558	0.515439
