data_functionalizedCrystal
_audit_creation_method	'MofGen! by Chris Wilmer'
_symmetry_space_group_name_H-M	'P1'
_symmetry_Int_Tables_number	1
_symmetry_cell_setting	triclinic
loop_
_symmetry_equiv_pos_as_xyz
  x,y,z
_cell_length_a	10.540539
_cell_length_b	14.519709
_cell_length_c	13.596369
_cell_angle_alpha	90.006934
_cell_angle_beta	89.996748
_cell_angle_gamma	95.897182
loop_
_atom_site_label
_atom_site_type_symbol
_atom_site_fract_x
_atom_site_fract_y
_atom_site_fract_z
O1	O	1.684562	-0.129969	-0.081747
O2	O	2.017895	0.203364	0.251586
O3	O	2.351228	0.536697	0.584919
O4	O	1.315024	-0.142215	-0.081760
O5	O	1.648357	0.191119	0.251574
O6	O	1.981690	0.524452	0.584907
O7	O	1.509591	-0.001906	-0.081744
O8	O	1.842924	0.331427	0.251589
O9	O	2.176257	0.664760	0.584922
O10	O	1.489995	-0.270278	-0.081763
O11	O	1.823328	0.063056	0.251571
O12	O	2.156662	0.396389	0.584904
O13	O	1.509571	-0.001899	0.081838
O14	O	1.842904	0.331435	0.415172
O15	O	2.176238	0.664768	0.748505
O16	O	1.315004	-0.142207	0.081823
O17	O	1.648338	0.191126	0.415156
O18	O	1.981671	0.524460	0.748490
O19	O	1.684542	-0.129962	0.081835
O20	O	2.017876	0.203372	0.415169
O21	O	2.351209	0.536705	0.748502
Zn22	Zn	1.499770	-0.136083	0.107802
Zn23	Zn	1.833104	0.197250	0.441135
Zn24	Zn	2.166437	0.530584	0.774468
Zn25	Zn	1.499796	-0.136093	-0.107726
Zn26	Zn	1.833129	0.197240	0.225607
Zn27	Zn	2.166463	0.530573	0.558941
O28	O	1.489976	-0.270270	0.081820
O29	O	1.823309	0.063063	0.415153
O30	O	2.156642	0.396397	0.748487
C31	C	1.267720	-0.141293	0.000030
C32	C	1.601054	0.192041	0.333364
C33	C	1.934387	0.525374	0.666697
C34	C	1.126800	-0.138545	0.000026
C35	C	1.460134	0.194788	0.333359
C36	C	1.793467	0.528122	0.666692
N37	N	1.499762	-0.136076	0.254893
N38	N	1.833095	0.197258	0.588227
N39	N	2.166429	0.530591	0.921560
C40	C	1.508668	0.032462	0.000047
C41	C	1.842001	0.365796	0.333381
C42	C	2.175334	0.699129	0.666714
C43	C	1.505931	0.134858	0.000048
C44	C	1.839264	0.468192	0.333381
C45	C	2.172598	0.801525	0.666714
C46	C	0.944448	-0.033266	0.000415
C47	C	1.277782	0.300068	0.333748
C48	C	1.611115	0.633401	0.667081
C49	C	1.091038	-0.036051	0.000036
C50	C	1.424371	0.297283	0.333369
C51	C	1.757705	0.630616	0.666703
C52	C	1.064635	-0.187874	-0.093388
C53	C	1.397969	0.145459	0.239946
C54	C	1.731302	0.478793	0.573279
C55	C	0.918127	-0.184376	-0.093456
C56	C	1.251460	0.148957	0.239878
C57	C	1.584793	0.482291	0.573211
C58	C	0.917595	-0.186453	0.092569
C59	C	1.250928	0.146881	0.425902
C60	C	1.584261	0.480214	0.759235
C61	C	1.064567	-0.187396	0.093793
C62	C	1.397900	0.145937	0.427126
C63	C	1.731234	0.479270	0.760460
C64	C	1.731846	-0.130884	0.000043
C65	C	2.065179	0.202450	0.333377
C66	C	2.398512	0.535783	0.666710
C67	C	1.872766	-0.133631	0.000041
C68	C	2.206099	0.199702	0.333375
C69	C	2.539432	0.533035	0.666708
C70	C	1.490899	-0.304639	0.000026
C71	C	1.824232	0.028695	0.333360
C72	C	2.157565	0.362028	0.666693
C73	C	1.493635	-0.407035	0.000019
C74	C	1.826968	-0.073701	0.333353
C75	C	2.160302	0.259632	0.666686
C76	C	1.495856	0.509808	0.000022
C77	C	1.829190	0.843142	0.333355
C78	C	2.162523	1.176475	0.666688
C79	C	1.498654	0.405485	0.000029
C80	C	1.831987	0.738819	0.333363
C81	C	2.165321	1.072152	0.666696
C82	C	1.500893	0.322337	0.000036
C83	C	1.834227	0.655670	0.333369
C84	C	2.167560	0.989003	0.666702
C85	C	1.503692	0.218007	0.000041
C86	C	1.837025	0.551340	0.333375
C87	C	2.170358	0.884674	0.666708
N88	N	1.499814	-0.136093	-0.254818
N89	N	1.833147	0.197240	0.078516
N90	N	2.166481	0.530573	0.411849
C91	C	1.499794	-0.136094	0.656184
C92	C	1.833127	0.197239	0.989518
C93	C	2.166461	0.530573	1.322851
C94	C	1.499781	-0.136092	0.544533
C95	C	1.833115	0.197241	0.877866
C96	C	2.166448	0.530575	1.211200
C97	C	1.499779	-0.136086	0.455542
C98	C	1.833112	0.197248	0.788876
C99	C	2.166445	0.530581	1.122209
C100	C	1.499765	-0.136082	0.343884
C101	C	1.833098	0.197251	0.677217
C102	C	2.166432	0.530584	1.010551
H103	H	1.134040	0.002763	0.066999
H104	H	1.467374	0.336096	0.400332
H105	H	1.800707	0.669430	0.733666
H106	H	0.916268	0.007229	0.067407
H107	H	1.249602	0.340562	0.400741
H108	H	1.582935	0.673895	0.734074
Cl109	Cl	1.100779	-0.302771	0.102492
Cl110	Cl	1.434112	0.030562	0.435825
Cl111	Cl	1.767445	0.363896	0.769158
Cl112	Cl	1.156080	0.024023	-0.103697
Cl113	Cl	1.489413	0.357357	0.229636
Cl114	Cl	1.822746	0.690690	0.562969
Cl115	Cl	0.898454	0.028988	-0.102425
Cl116	Cl	1.231787	0.362321	0.230908
Cl117	Cl	1.565121	0.695654	0.564241
Cl118	Cl	0.875154	-0.128095	-0.201255
Cl119	Cl	1.208487	0.205238	0.132079
Cl120	Cl	1.541820	0.538571	0.465412
Cl121	Cl	1.128207	-0.131665	0.200489
Cl122	Cl	1.461540	0.201668	0.533823
Cl123	Cl	1.794874	0.535001	0.867156
Cl124	Cl	0.842899	-0.298179	-0.100012
Cl125	Cl	1.176232	0.035155	0.233322
Cl126	Cl	1.509566	0.368488	0.566655
H127	H	1.086220	-0.263143	-0.096869
H128	H	1.419554	0.070190	0.236465
H129	H	1.752887	0.403523	0.569798
H130	H	0.869612	-0.260483	0.093195
H131	H	1.202945	0.072850	0.426528
H132	H	1.536279	0.406183	0.759861
H133	H	1.107582	-0.153613	-0.162904
H134	H	1.440915	0.179720	0.170430
H135	H	1.774248	0.513053	0.503763
Cl136	Cl	0.869410	-0.135232	0.201890
Cl137	Cl	1.202743	0.198101	0.535223
Cl138	Cl	1.536076	0.531435	0.868556
