data_functionalizedCrystal
_audit_creation_method	'MofGen! by Chris Wilmer'
_symmetry_space_group_name_H-M	'P1'
_symmetry_Int_Tables_number	1
_symmetry_cell_setting	triclinic
loop_
_symmetry_equiv_pos_as_xyz
  x,y,z
_cell_length_a	11.169417
_cell_length_b	16.120484
_cell_length_c	11.169409
_cell_angle_alpha	92.860730
_cell_angle_beta	89.980487
_cell_angle_gamma	92.926623
loop_
_atom_site_label
_atom_site_type_symbol
_atom_site_fract_x
_atom_site_fract_y
_atom_site_fract_z
Zn1	Zn	1.810616	-0.331810	-0.702695
Zn2	Zn	1.800274	-0.471253	-0.512166
Zn3	Zn	1.609898	-0.331862	-0.502034
Zn4	Zn	1.599683	-0.471186	-0.712807
O5	O	1.705118	-0.401528	-0.607425
O6	O	1.977194	-0.350314	-0.677429
O7	O	1.774968	-0.452812	-0.342876
O8	O	1.645127	-0.215190	-0.520180
O9	O	1.969595	-0.452762	-0.537448
O10	O	1.792594	-0.215152	-0.667605
O11	O	1.635099	-0.350402	-0.335432
O12	O	1.440594	-0.350337	-0.529985
O13	O	1.627717	-0.452648	-0.879412
O14	O	1.433089	-0.452698	-0.684839
O15	O	1.782689	-0.350249	-0.871982
O16	O	1.765062	-0.587909	-0.547253
O17	O	1.617689	-0.587860	-0.694664
C18	C	1.393294	-0.401517	-0.607411
C19	C	1.259893	-0.401532	-0.607435
C20	C	1.689177	-0.618135	-0.623181
C21	C	1.682468	-0.710800	-0.629962
C22	C	1.670225	-0.880461	-0.642366
C23	C	1.740227	-0.921754	-0.572504
C24	C	1.733415	-1.016159	-0.579406
C25	C	1.677035	-0.786047	-0.635466
C26	C	2.018160	-0.401540	-0.607441
C27	C	2.151559	-0.401545	-0.607447
C28	C	1.705217	-0.401435	-0.920461
C29	C	1.705259	-0.401396	-1.053858
C30	C	1.721154	-0.184075	-0.591634
C31	C	1.727987	-0.091410	-0.584905
C32	C	1.705093	-0.401560	-0.295603
C33	C	1.705301	-0.401364	-0.162189
H34	H	1.805272	-0.886207	-0.507509
O35	O	1.592650	-0.922989	-0.719790
C36	C	1.603049	-1.009145	-0.709533
H37	H	1.641581	-1.020958	-0.617796
H38	H	1.665175	-1.033777	-0.782548
C39	C	1.431110	-1.039514	-0.836296
C40	C	1.478426	-1.054024	-0.723618
H41	H	1.354239	-1.067199	-0.844989
H42	H	1.424105	-0.981470	-0.843210
H43	H	1.482893	-1.060041	-0.897128
H44	H	1.426651	-1.033488	-0.662788
H45	H	1.485419	-1.112066	-0.716694
