data_functionalizedCrystal
_audit_creation_method	'MofGen! by Chris Wilmer'
_symmetry_space_group_name_H-M	'P1'
_symmetry_Int_Tables_number	1
_symmetry_cell_setting	triclinic
loop_
_symmetry_equiv_pos_as_xyz
  x,y,z
_cell_length_a	15.944551
_cell_length_b	15.944551
_cell_length_c	15.021413
_cell_angle_alpha	90.002826
_cell_angle_beta	90.003065
_cell_angle_gamma	96.501262
loop_
_atom_site_label
_atom_site_type_symbol
_atom_site_fract_x
_atom_site_fract_y
_atom_site_fract_z
O1	O	0.108321	-1.114529	-0.073941
O2	O	0.608321	-0.614529	0.426059
O3	O	0.121677	-0.869979	-0.073964
O4	O	0.621677	-0.369979	0.426036
O5	O	-0.007276	-0.998932	-0.073944
O6	O	0.492724	-0.498932	0.426056
O7	O	0.237274	-0.985576	-0.073961
O8	O	0.737274	-0.485576	0.426039
O9	O	-0.007257	-0.998912	0.074121
O10	O	0.492743	-0.498912	0.574121
O11	O	0.121695	-0.869959	0.074101
O12	O	0.621695	-0.369959	0.574101
O13	O	0.108339	-1.114508	0.074123
O14	O	0.608339	-0.614508	0.574123
Zn15	Zn	0.115020	-0.992230	0.097620
Zn16	Zn	0.615020	-0.492230	0.597620
Zn17	Zn	0.114996	-0.992257	-0.097461
Zn18	Zn	0.614996	-0.492257	0.402539
O19	O	0.237292	-0.985555	0.074103
O20	O	0.737292	-0.485555	0.574103
C21	C	0.121132	-0.838675	0.000066
C22	C	0.621132	-0.338675	0.500066
C23	C	0.119470	-0.745429	0.000057
C24	C	0.619470	-0.245429	0.500057
C25	C	-0.038561	-0.998367	0.000089
C26	C	0.461439	-0.498367	0.500089
C27	C	-0.131807	-0.996705	0.000089
C28	C	0.368193	-0.496705	0.500089
C29	C	0.108885	-1.145813	0.000092
C30	C	0.608885	-0.645813	0.500092
C31	C	0.110547	-1.239059	0.000094
C32	C	0.610547	-0.739059	0.500094
C33	C	-0.346663	-0.912801	0.000069
C34	C	0.153337	-0.412801	0.500069
C35	C	-0.407672	-0.951753	0.073077
C36	C	0.092328	-0.451753	0.573077
C37	C	-0.302533	-0.993698	0.000082
C38	C	0.197467	-0.493698	0.500082
C39	C	-0.407673	-0.951792	-0.072903
C40	C	0.092327	-0.451792	0.427097
C41	C	-0.467445	-0.990787	0.000071
C42	C	0.032555	-0.490787	0.500071
C43	C	-0.362313	-1.032672	0.073150
C44	C	0.137687	-0.532672	0.573150
C45	C	-0.362308	-1.032700	-0.072895
C46	C	0.137692	-0.532700	0.427105
C47	C	-0.423298	-1.071711	0.000131
C48	C	0.076702	-0.571711	0.500131
C49	C	-0.207530	-0.995372	0.000089
C50	C	0.292470	-0.495372	0.500089
C51	C	-0.562446	-0.989119	0.000070
C52	C	-0.062446	-0.489119	0.500070
C53	C	0.268577	-0.986120	0.000069
C54	C	0.768577	-0.486120	0.500069
C55	C	0.361823	-0.987782	0.000063
C56	C	0.861823	-0.487782	0.500063
N57	N	0.115036	-0.992218	0.230758
N58	N	0.615036	-0.492218	0.730758
C59	C	0.035565	-0.530572	0.000081
C60	C	0.535565	-0.030572	0.500081
C61	C	0.074518	-0.469562	-0.072926
C62	C	0.574518	0.030438	0.427074
C63	C	0.116462	-0.574703	0.000068
C64	C	0.616462	-0.074703	0.500068
C65	C	0.074556	-0.469564	0.073054
C66	C	0.574556	0.030436	0.573054
C67	C	0.113551	-0.409790	0.000083
C68	C	0.613551	0.090210	0.500083
C69	C	0.155438	-0.514921	-0.072998
C70	C	0.655438	-0.014921	0.427002
C71	C	0.155464	-0.514930	0.073047
C72	C	0.655464	-0.014930	0.573047
C73	C	0.194476	-0.453937	0.000023
C74	C	0.694476	0.046063	0.500023
C75	C	0.118137	-0.669705	0.000059
C76	C	0.618137	-0.169705	0.500059
C77	C	0.111883	-0.314789	0.000085
C78	C	0.611883	0.185211	0.500085
N79	N	0.114973	-0.992276	-0.230598
N80	N	0.614973	-0.492276	0.269402
C81	C	0.174636	-0.932581	0.470432
C82	C	0.674636	-0.432581	0.970432
C83	C	0.190943	-1.008481	0.529772
C84	C	0.690943	-0.508481	1.029772
C85	C	0.115015	-0.992239	0.412365
C86	C	0.615015	-0.492239	0.912365
C87	C	0.098727	-0.916360	0.529766
C88	C	0.598727	-0.416360	1.029766
C89	C	0.114997	-0.992253	0.587789
C90	C	0.614997	-0.492253	1.087789
C91	C	0.131360	-1.068178	0.470398
C92	C	0.631360	-0.568178	0.970398
C93	C	0.039111	-0.976006	0.470387
C94	C	0.539111	-0.476006	0.970387
C95	C	0.055386	-1.051962	0.529701
C96	C	0.555386	-0.551962	1.029701
C97	C	0.115028	-0.992230	0.311307
C98	C	0.615028	-0.492230	0.811307
C99	C	0.114984	-0.992271	0.688844
C100	C	0.614984	-0.492271	1.188844
H101	H	-0.313356	-0.845652	0.000136
H102	H	0.186644	-0.345652	0.500136
F103	F	0.029826	-0.443300	0.153727
F104	F	0.529826	0.056700	0.653727
F105	F	0.274833	-1.026445	0.563867
F106	F	0.774833	-0.526445	1.063867
F107	F	0.240589	-0.866705	0.436413
F108	F	0.740589	-0.366705	0.936413
H109	H	-0.031573	-0.563905	-0.000005
H110	H	0.468427	-0.063905	0.499995
H111	H	0.145206	-1.132368	0.444430
H112	H	0.645206	-0.632368	0.944430
H113	H	0.004956	-1.102474	0.555561
H114	H	0.504956	-0.602474	1.055561
F115	F	0.029788	-0.443289	-0.153596
F116	F	0.529788	0.056711	0.346404
H117	H	-0.342314	-1.066851	0.134941
H118	H	0.157686	-0.566851	0.634941
F119	F	0.200160	-0.541234	0.153719
F120	F	0.700160	-0.041234	0.653719
F121	F	-0.433943	-0.907062	-0.153573
F122	F	0.066057	-0.407062	0.346427
H123	H	-0.025051	-0.962240	0.444283
H124	H	0.474949	-0.462240	0.944283
H125	H	-0.427772	-0.917528	0.134794
H126	H	0.072228	-0.417528	0.634794
F127	F	-0.466641	-1.159555	0.000190
F128	F	0.033359	-0.659555	0.500190
H129	H	0.084959	-0.852184	0.555847
H130	H	0.584959	-0.352184	1.055847
H131	H	-0.342185	-1.066896	-0.134615
H132	H	0.157815	-0.566896	0.365385
F133	F	0.200117	-0.541054	-0.153761
F134	F	0.700117	-0.041054	0.346239
F135	F	0.282319	-0.410594	-0.000034
F136	F	0.782319	0.089406	0.499966
