data_functionalizedCrystal
_audit_creation_method	'MofGen! by Chris Wilmer'
_symmetry_space_group_name_H-M	'P1'
_symmetry_Int_Tables_number	1
_symmetry_cell_setting	triclinic
loop_
_symmetry_equiv_pos_as_xyz
  x,y,z
_cell_length_a	11.792254
_cell_length_b	14.853559
_cell_length_c	13.930277
_cell_angle_alpha	89.997639
_cell_angle_beta	89.992836
_cell_angle_gamma	83.915026
loop_
_atom_site_label
_atom_site_type_symbol
_atom_site_fract_x
_atom_site_fract_y
_atom_site_fract_z
O1	O	1.506137	0.123622	-0.079825
O2	O	2.006137	0.623622	0.420175
O3	O	1.175719	0.136345	-0.079827
O4	O	1.675719	0.636345	0.420173
O5	O	1.349759	-0.001212	-0.079825
O6	O	1.849759	0.498788	0.420175
O7	O	1.332097	0.261179	-0.079827
O8	O	1.832097	0.761179	0.420173
O9	O	1.349735	-0.001215	0.079837
O10	O	1.849735	0.498785	0.579837
O11	O	1.175695	0.136342	0.079835
O12	O	1.675695	0.636342	0.579835
O13	O	1.506113	0.123619	0.079837
O14	O	2.006113	0.623619	0.579837
Zn15	Zn	1.340900	0.129980	0.105186
Zn16	Zn	1.840900	0.629980	0.605186
Zn17	Zn	1.340932	0.129984	-0.105176
Zn18	Zn	1.840932	0.629984	0.394824
O19	O	1.332073	0.261176	0.079835
O20	O	1.832073	0.761176	0.579835
C21	C	1.133421	0.135542	0.000004
C22	C	1.633421	0.635542	0.500004
C23	C	1.007423	0.133143	0.000003
C24	C	1.507423	0.633143	0.500003
C25	C	1.348948	-0.034805	0.000004
C26	C	1.848948	0.465195	0.500004
C27	C	1.346556	-0.134899	-0.000001
C28	C	1.846556	0.365101	0.499999
C29	C	1.336417	-0.558112	-0.087033
C30	C	1.836417	-0.058112	0.412967
C31	C	1.336390	-0.558110	0.087037
C32	C	1.836390	-0.058110	0.587037
C33	C	1.338648	-0.464068	0.087037
C34	C	1.838648	0.035932	0.587037
C35	C	1.339789	-0.417043	0.000002
C36	C	1.839789	0.082957	0.500002
C37	C	1.338671	-0.464061	-0.087035
C38	C	1.838671	0.035939	0.412965
C39	C	1.339754	-0.417042	0.174072
C40	C	1.839754	0.082958	0.674072
C41	C	1.342011	-0.322994	0.174077
C42	C	1.842011	0.177006	0.674077
C43	C	1.343159	-0.275969	0.087040
C44	C	1.843159	0.224031	0.587040
C45	C	1.342043	-0.322992	-0.000000
C46	C	1.842043	0.177008	0.500000
C47	C	1.343184	-0.275968	-0.087036
C48	C	1.843184	0.224032	0.412964
C49	C	1.342076	-0.322990	-0.174077
C50	C	1.842076	0.177010	0.325923
C51	C	1.339820	-0.417035	-0.174071
C52	C	1.839820	0.082965	0.325929
C53	C	1.345415	-0.181923	0.087035
C54	C	1.845415	0.318077	0.587035
C55	C	1.345438	-0.181916	-0.087038
C56	C	1.845438	0.318084	0.412962
C57	C	0.905099	0.131194	-0.000001
C58	C	1.405099	0.631194	0.499999
C59	C	0.776727	0.128757	-0.000001
C60	C	1.276727	0.628757	0.499999
C61	C	1.548411	0.124422	0.000004
C62	C	2.048411	0.624422	0.500004
C63	C	1.674409	0.126821	-0.000002
C64	C	2.174409	0.626821	0.499998
C65	C	1.332884	0.294770	0.000004
C66	C	1.832884	0.794770	0.500004
C67	C	1.335276	0.394863	0.000003
C68	C	1.835276	0.894863	0.500003
N69	N	1.340887	0.129977	0.248752
N70	N	1.840887	0.629977	0.748752
N71	N	1.340954	0.129980	-0.248742
N72	N	1.840954	0.629980	0.251258
C73	C	1.263864	0.190870	0.701020
C74	C	1.763864	0.690870	1.201020
C75	C	1.418031	0.069091	0.700991
C76	C	1.918031	0.569091	1.200991
C77	C	1.418018	0.069088	0.600496
C78	C	1.918018	0.569088	1.100496
C79	C	1.340927	0.129978	0.550258
C80	C	1.840927	0.629978	1.050258
C81	C	1.263850	0.190871	0.600515
C82	C	1.763850	0.690871	1.100515
C83	C	1.495101	0.008202	0.550230
C84	C	1.995101	0.508202	1.050230
C85	C	1.495091	0.008198	0.449729
C86	C	1.995091	0.508198	0.949729
C87	C	1.417995	0.069084	0.399489
C88	C	1.917995	0.569084	0.899489
C89	C	1.340914	0.129979	0.449753
C90	C	1.840914	0.629979	0.949753
C91	C	1.263823	0.190869	0.399515
C92	C	1.763823	0.690869	0.899515
C93	C	1.186736	0.251760	0.449777
C94	C	1.686736	0.751760	0.949777
C95	C	1.186754	0.251758	0.550275
C96	C	1.686754	0.751758	1.050275
C97	C	1.417977	0.069087	0.298990
C98	C	1.917977	0.569087	0.798990
C99	C	1.263810	0.190870	0.299010
C100	C	1.763810	0.690870	0.799010
H101	H	1.346372	-0.143636	-0.157914
H102	H	1.846372	0.356364	0.342086
N103	N	1.103623	0.317426	0.604494
N104	N	1.603623	0.817426	1.104494
H105	H	1.147065	0.357576	0.646176
H106	H	1.647065	0.857576	1.146176
H107	H	1.054797	0.355941	0.557366
H108	H	1.554797	0.855941	1.057366
H109	H	1.335454	-0.596403	0.157897
H110	H	1.835454	-0.096403	0.657897
H111	H	1.557871	-0.041368	0.591137
H112	H	2.057871	0.458632	1.091137
H113	H	1.346291	-0.143639	0.157902
H114	H	1.846291	0.356361	0.657902
H115	H	1.342917	-0.284717	0.244951
H116	H	1.842917	0.215283	0.744951
H117	H	1.201098	0.240445	0.741946
H118	H	1.701098	0.740445	1.241946
N119	N	1.343315	-0.272265	-0.267947
N120	N	1.843315	0.227735	0.232053
H121	H	1.342273	-0.316319	-0.323088
H122	H	1.842273	0.183681	0.176912
H123	H	1.273944	-0.226283	-0.271738
H124	H	1.773944	0.273717	0.228262
H125	H	1.335519	-0.596403	-0.157900
H126	H	1.835519	-0.096403	0.342100
H127	H	1.480802	0.019520	0.741898
H128	H	1.980802	0.519520	1.241898
H129	H	1.480745	0.019514	0.258071
H130	H	1.980745	0.519514	0.758071
H131	H	1.338917	-0.455329	-0.244936
H132	H	1.838917	0.044671	0.255064
N133	N	1.338548	-0.467767	0.267937
N134	N	1.838548	0.032233	0.767937
H135	H	1.267323	-0.499837	0.271822
H136	H	1.767323	0.000163	0.771822
H137	H	1.407974	-0.513693	0.271738
H138	H	1.907974	-0.013693	0.771738
N139	N	1.180652	0.256538	0.244826
N140	N	1.680652	0.756538	0.744826
H141	H	1.131823	0.295107	0.291919
H142	H	1.631823	0.795107	0.791919
H143	H	1.224148	0.296634	0.203119
H144	H	1.724148	0.796634	0.703119
N145	N	1.103589	0.317436	0.395593
N146	N	1.603589	0.817436	0.895593
H147	H	1.147015	0.357589	0.353888
H148	H	1.647015	0.857589	0.853888
H149	H	1.053309	0.282647	0.353959
H150	H	1.553309	0.782647	0.853959
N151	N	1.578228	-0.057474	0.395521
N152	N	2.078228	0.442526	0.895521
H153	H	1.627066	-0.096046	0.442597
H154	H	2.127066	0.403954	0.942597
H155	H	1.534712	-0.097567	0.353838
H156	H	2.034712	0.402433	0.853838
