data_functionalizedCrystal
_audit_creation_method	'MofGen! by Chris Wilmer'
_symmetry_space_group_name_H-M	'P1'
_symmetry_Int_Tables_number	1
_symmetry_cell_setting	triclinic
loop_
_symmetry_equiv_pos_as_xyz
  x,y,z
_cell_length_a	19.077236
_cell_length_b	16.959454
_cell_length_c	19.076919
_cell_angle_alpha	87.724511
_cell_angle_beta	90.112677
_cell_angle_gamma	92.313014
loop_
_atom_site_label
_atom_site_type_symbol
_atom_site_fract_x
_atom_site_fract_y
_atom_site_fract_z
Zn1	Zn	1.058310	-0.286928	0.440559
Zn2	Zn	1.391644	0.046405	0.773893
Zn3	Zn	1.724977	0.379738	1.107226
Zn4	Zn	1.062959	-0.413600	0.323060
Zn5	Zn	1.396292	-0.080267	0.656394
Zn6	Zn	1.729625	0.253066	0.989727
Zn7	Zn	0.945526	-0.286514	0.318339
Zn8	Zn	1.278859	0.046819	0.651673
Zn9	Zn	1.612192	0.380153	0.985006
Zn10	Zn	0.940779	-0.424146	0.435799
Zn11	Zn	1.274112	-0.090812	0.769132
Zn12	Zn	1.607445	0.242521	1.102466
O13	O	1.001893	-0.352797	0.379439
O14	O	1.335227	-0.019464	0.712773
O15	O	1.668560	0.313870	1.046106
O16	O	1.157260	-0.299492	0.428941
O17	O	1.490594	0.033841	0.762274
O18	O	1.823927	0.367175	1.095607
O19	O	1.051313	-0.392155	0.224103
O20	O	1.384646	-0.058822	0.557436
O21	O	1.717980	0.274511	0.890770
O22	O	0.960528	-0.175957	0.334568
O23	O	1.293862	0.157377	0.667902
O24	O	1.627195	0.490710	1.001235
O25	O	1.160675	-0.392557	0.342615
O26	O	1.494009	-0.059224	0.675948
O27	O	1.827342	0.274109	1.009281
O28	O	1.043390	-0.176261	0.424363
O29	O	1.376724	0.157072	0.757696
O30	O	1.710057	0.490405	1.091030
O31	O	0.965036	-0.298785	0.220634
O32	O	1.298369	0.034548	0.553968
O33	O	1.631702	0.367881	0.887301
O34	O	0.846563	-0.309011	0.329953
O35	O	1.179896	0.024323	0.663286
O36	O	1.513229	0.357656	0.996619
O37	O	0.952437	-0.410530	0.534762
O38	O	1.285771	-0.077197	0.868095
O39	O	1.619104	0.256137	1.201428
O40	O	0.843075	-0.410128	0.416250
O41	O	1.176408	-0.076795	0.749583
O42	O	1.509741	0.256539	1.082917
O43	O	1.038787	-0.309717	0.538259
O44	O	1.372121	0.023616	0.871592
O45	O	1.705454	0.356950	1.204926
O46	O	1.046710	-0.525611	0.337999
O47	O	1.380043	-0.192278	0.671332
O48	O	1.713376	0.141055	1.004666
O49	O	0.956945	-0.533359	0.420828
O50	O	1.290278	-0.200025	0.754161
O51	O	1.623611	0.133308	1.087494
C52	C	0.819322	-0.360669	0.372073
C53	C	1.152655	-0.027336	0.705406
C54	C	1.485989	0.305997	1.038739
C55	C	0.741216	-0.364057	0.368938
C56	C	1.074550	-0.030724	0.702271
C57	C	1.407883	0.302610	1.035605
C58	C	0.702742	-0.317278	0.412479
C59	C	1.036075	0.016056	0.745813
C60	C	1.369409	0.349389	1.079146
C61	C	0.629354	-0.320457	0.409528
C62	C	0.962687	0.012877	0.742861
C63	C	1.296021	0.346210	1.076194
C64	C	0.594441	-0.370420	0.363038
C65	C	0.927775	-0.037086	0.696371
C66	C	1.261108	0.296247	1.029705
C67	C	0.632921	-0.417201	0.319492
C68	C	0.966254	-0.083867	0.652825
C69	C	1.299588	0.249466	0.986159
C70	C	0.706308	-0.414017	0.322441
C71	C	1.039641	-0.080684	0.655774
C72	C	1.372975	0.252650	0.989107
C73	C	0.375149	-0.385124	0.349389
C74	C	0.708482	-0.051791	0.682723
C75	C	1.041816	0.281542	1.016056
C76	C	0.301757	-0.388306	0.346446
C77	C	0.635090	-0.054973	0.679779
C78	C	0.968423	0.278361	1.013112
C79	C	0.298195	-0.291561	0.436481
C80	C	0.631528	0.041773	0.769814
C81	C	0.964861	0.375106	1.103147
C82	C	0.371583	-0.288385	0.439428
C83	C	0.704916	0.044948	0.772761
C84	C	1.038250	0.378282	1.106095
C85	C	0.410056	-0.335163	0.395880
C86	C	0.743390	-0.001830	0.729213
C87	C	1.076723	0.331504	1.062546
N88	N	0.519427	-0.373672	0.360021
N89	N	0.852760	-0.040339	0.693355
N90	N	1.186093	0.292995	1.026688
N91	N	0.485070	-0.331906	0.398893
N92	N	0.818403	0.001428	0.732226
N93	N	1.151736	0.334761	1.065560
C94	C	1.001835	-0.558165	0.379425
C95	C	1.335168	-0.224832	0.712758
C96	C	1.668502	0.108501	1.046092
C97	C	1.001873	-0.646021	0.379445
C98	C	1.335207	-0.312688	0.712778
C99	C	1.668540	0.020646	1.046112
C100	C	0.955218	-1.021556	0.422566
C101	C	1.288551	-0.688223	0.755899
C102	C	1.621885	-0.354890	1.089233
C103	C	1.048761	-1.013429	0.336392
C104	C	1.382095	-0.680096	0.669725
C105	C	1.715428	-0.346763	1.003059
C106	C	1.048737	-0.930884	0.336385
C107	C	1.382070	-0.597551	0.669718
C108	C	1.715404	-0.264217	1.003051
C109	C	1.001952	-0.893671	0.379468
C110	C	1.335285	-0.560338	0.712801
C111	C	1.668619	-0.227005	1.046135
C112	C	0.955191	-0.939004	0.422558
C113	C	1.288524	-0.605670	0.755892
C114	C	1.621857	-0.272337	1.089225
C115	C	1.095492	-0.885546	0.293290
C116	C	1.428826	-0.552212	0.626623
C117	C	1.762159	-0.218879	0.959956
C118	C	1.095470	-0.802995	0.293280
C119	C	1.428803	-0.469662	0.626613
C120	C	1.762136	-0.136329	0.959947
C121	C	1.048687	-0.765781	0.336367
C122	C	1.382020	-0.432448	0.669701
C123	C	1.715354	-0.099114	1.003034
C124	C	1.001925	-0.811119	0.379460
C125	C	1.335258	-0.477785	0.712794
C126	C	1.668591	-0.144452	1.046127
C127	C	0.955139	-0.773906	0.422543
C128	C	1.288473	-0.440573	0.755877
C129	C	1.621806	-0.107239	1.089210
C130	C	0.908380	-0.819242	0.465641
C131	C	1.241713	-0.485909	0.798974
C132	C	1.575046	-0.152576	1.132307
C133	C	0.908408	-0.901790	0.465646
C134	C	1.241742	-0.568456	0.798979
C135	C	1.575075	-0.235123	1.132313
C136	C	1.048659	-0.683234	0.336362
C137	C	1.381992	-0.349900	0.669695
C138	C	1.715325	-0.016567	1.003029
C139	C	0.955112	-0.691353	0.422536
C140	C	1.288446	-0.358020	0.755869
C141	C	1.621779	-0.024687	1.089202
C142	C	1.185177	-0.344894	0.386835
C143	C	1.518511	-0.011561	0.720169
C144	C	1.851844	0.321772	1.053502
C145	C	1.263282	-0.341527	0.389987
C146	C	1.596616	-0.008194	0.723320
C147	C	1.929949	0.325140	1.056654
C148	C	0.994564	-0.361346	0.562719
C149	C	1.327898	-0.028013	0.896053
C150	C	1.661231	0.305321	1.229386
C151	C	0.991441	-0.364989	0.640822
C152	C	1.324774	-0.031656	0.974156
C153	C	1.658108	0.301677	1.307489
C154	C	1.001970	-0.146627	0.379470
C155	C	1.335304	0.186707	0.712803
C156	C	1.668637	0.520040	1.046137
C157	C	1.002003	-0.058769	0.379483
C158	C	1.335337	0.274564	0.712816
C159	C	1.668670	0.607897	1.046150
C160	C	1.009234	-0.344222	0.196874
C161	C	1.342568	-0.010889	0.530208
C162	C	1.675901	0.322444	0.863541
C163	C	1.012494	-0.340351	0.118777
C164	C	1.345827	-0.007017	0.452111
C165	C	1.679160	0.326316	0.785444
C166	C	1.034929	-0.314215	0.679337
C167	C	1.368263	0.019118	1.012670
C168	C	1.701596	0.352451	1.346004
C169	C	1.031986	-0.317636	0.752723
C170	C	1.365319	0.015698	1.086056
C171	C	1.698653	0.349031	1.419389
C172	C	0.985558	-0.371834	0.787592
C173	C	1.318891	-0.038501	1.120926
C174	C	1.652224	0.294832	1.454259
C175	C	0.942065	-0.422611	0.749072
C176	C	1.275398	-0.089277	1.082405
C177	C	1.608731	0.244056	1.415739
C178	C	0.945005	-0.419186	0.675688
C179	C	1.278338	-0.085852	1.009021
C180	C	1.611672	0.247481	1.342354
C181	C	0.971941	-0.387702	1.006873
C182	C	1.305274	-0.054369	1.340206
C183	C	1.638607	0.278965	1.673539
C184	C	0.969005	-0.391125	1.080262
C185	C	1.302339	-0.057791	1.413596
C186	C	1.635672	0.275542	1.746929
C187	C	1.058926	-0.286148	1.083908
C188	C	1.392259	0.047185	1.417241
C189	C	1.725593	0.380518	1.750575
C190	C	1.061865	-0.282732	1.010522
C191	C	1.395198	0.050602	1.343855
C192	C	1.728532	0.383935	1.677189
C193	C	1.018369	-0.333505	0.972008
C194	C	1.351703	-0.000171	1.305341
C195	C	1.685036	0.333162	1.638675
N196	N	0.982550	-0.375334	0.862604
N197	N	1.315883	-0.042000	1.195938
N198	N	1.649217	0.291333	1.529271
N199	N	1.021374	-0.330001	0.896997
N200	N	1.354708	0.003332	1.230331
N201	N	1.688041	0.336666	1.563664
H202	H	0.406465	-0.423215	0.313930
H203	H	0.739798	-0.089882	0.647263
H204	H	1.073132	0.243452	0.980596
H205	H	0.931196	-0.435262	1.108651
H206	H	1.264529	-0.101929	1.441984
H207	H	1.597862	0.231405	1.775318
O208	O	0.904785	-1.070445	0.469050
O209	O	1.238119	-0.737112	0.802383
O210	O	1.571452	-0.403778	1.135716
H211	H	0.850125	-1.056460	0.454728
H212	H	1.183458	-0.723127	0.788062
H213	H	1.516791	-0.389794	1.121395
H214	H	0.909585	-0.460524	0.644329
H215	H	1.242918	-0.127190	0.977663
H216	H	1.576252	0.206143	1.310996
H217	H	0.870339	-0.938710	0.500732
H218	H	1.203672	-0.605376	0.834066
H219	H	1.537005	-0.272043	1.167399
O220	O	0.740398	-0.263384	0.462618
O221	O	1.073731	0.069949	0.795951
O222	O	1.407064	0.403283	1.129284
H223	H	0.701312	-0.231383	0.492392
H224	H	1.034645	0.101951	0.825725
H225	H	1.367978	0.435284	1.159058
O226	O	1.111945	-0.224274	0.972919
O227	O	1.445279	0.109060	1.306252
O228	O	1.778612	0.442393	1.639585
H229	H	1.081854	-0.183855	0.938214
H230	H	1.415187	0.149478	1.271547
H231	H	1.748520	0.482811	1.604881
O232	O	0.857911	-0.779104	0.512101
O233	O	1.191244	-0.445771	0.845434
O234	O	1.524578	-0.112438	1.178768
H235	H	0.867710	-0.796973	0.567748
H236	H	1.201043	-0.463640	0.901082
H237	H	1.534377	-0.130306	1.234415
O238	O	1.145958	-0.925665	0.246820
O239	O	1.479291	-0.592332	0.580154
O240	O	1.812625	-0.258999	0.913487
H241	H	1.200605	-0.907936	0.261141
H242	H	1.533938	-0.574603	0.594475
H243	H	1.867271	-0.241269	0.927808
O244	O	0.587854	-0.270002	0.456489
O245	O	0.921187	0.063331	0.789822
O246	O	1.254521	0.396665	1.123155
H247	H	0.624460	-0.234732	0.489317
H248	H	0.957793	0.098601	0.822650
H249	H	1.291126	0.431935	1.155983
H250	H	1.133544	-0.766087	0.258189
H251	H	1.466877	-0.432754	0.591522
H252	H	1.800211	-0.099421	0.924856
O253	O	0.925033	-0.442448	0.965320
O254	O	1.258366	-0.109115	1.298653
O255	O	1.591700	0.224218	1.631987
H256	H	0.890642	-0.407027	0.930459
H257	H	1.223975	-0.073694	1.263792
H258	H	1.557309	0.259640	1.597125
O259	O	0.747808	-0.464468	0.275474
O260	O	1.081142	-0.131134	0.608807
O261	O	1.414475	0.202199	0.942141
H262	H	0.779995	-0.504748	0.308202
H263	H	1.113328	-0.171414	0.641536
H264	H	1.446661	0.161919	0.974869
O265	O	1.099240	-1.053560	0.289945
O266	O	1.432573	-0.720226	0.623278
O267	O	1.765907	-0.386893	0.956612
H268	H	1.091412	-1.118577	0.297199
H269	H	1.424745	-0.785243	0.630533
H270	H	1.758078	-0.451910	0.963866
O271	O	0.891982	-0.481066	0.786676
O272	O	1.225316	-0.147732	1.120009
O273	O	1.558649	0.185601	1.453343
H274	H	0.897247	-0.474922	0.844176
H275	H	1.230580	-0.141589	1.177509
H276	H	1.563913	0.191744	1.510843
O277	O	1.105832	-0.231387	1.125451
O278	O	1.439165	0.101947	1.458784
O279	O	1.772499	0.435280	1.792118
H280	H	1.138613	-0.193128	1.088875
H281	H	1.471947	0.140205	1.422208
H282	H	1.805280	0.473539	1.755542
H283	H	0.917016	-0.661060	0.457622
H284	H	1.250350	-0.327727	0.790956
H285	H	1.583683	0.005606	1.124289
H286	H	1.086726	-0.646325	0.301269
H287	H	1.420060	-0.312991	0.634603
H288	H	1.753393	0.020342	0.967936
O289	O	1.085012	-0.255762	0.641731
O290	O	1.418345	0.077571	0.975064
O291	O	1.751678	0.410904	1.308397
H292	H	1.054919	-0.215346	0.607025
H293	H	1.388252	0.117988	0.940359
H294	H	1.721586	0.451321	1.273692
H295	H	0.266862	-0.253476	0.471935
H296	H	0.600195	0.079857	0.805268
H297	H	0.933529	0.413191	1.138601
O298	O	0.409232	-0.234482	0.489563
O299	O	0.742566	0.098851	0.822897
O300	O	1.075899	0.432185	1.156230
H301	H	0.392945	-0.251308	0.544127
H302	H	0.726279	0.082026	0.877460
H303	H	1.059612	0.415359	1.210794
O304	O	0.264096	-0.442191	0.296297
O305	O	0.597430	-0.108858	0.629630
O306	O	0.930763	0.224475	0.962963
H307	H	0.303178	-0.474178	0.266504
H308	H	0.636511	-0.140845	0.599837
H309	H	0.969845	0.192488	0.933171
H310	H	0.604489	-0.457877	0.281636
H311	H	0.937823	-0.124544	0.614969
H312	H	1.271156	0.208789	0.948302
O313	O	1.078895	-0.262878	0.794267
O314	O	1.412228	0.070456	1.127600
O315	O	1.745562	0.403789	1.460933
H316	H	1.111680	-0.224623	0.757691
H317	H	1.445014	0.108710	1.091025
H318	H	1.778347	0.442044	1.424358
