data_functionalizedCrystal
_audit_creation_method	'MofGen! by Chris Wilmer'
_symmetry_space_group_name_H-M	'P1'
_symmetry_Int_Tables_number	1
_symmetry_cell_setting	triclinic
loop_
_symmetry_equiv_pos_as_xyz
  x,y,z
_cell_length_a	15.995350
_cell_length_b	15.995350
_cell_length_c	16.776229
_cell_angle_alpha	89.995580
_cell_angle_beta	89.996506
_cell_angle_gamma	83.492375
loop_
_atom_site_label
_atom_site_type_symbol
_atom_site_fract_x
_atom_site_fract_y
_atom_site_fract_z
O1	O	1.110989	0.107929	-0.066217
O2	O	1.610989	0.607929	0.433783
O3	O	0.867213	0.121256	-0.066233
O4	O	1.367213	0.621256	0.433767
O5	O	0.995765	-0.007295	-0.066223
O6	O	1.495765	0.492705	0.433777
O7	O	0.982437	0.236480	-0.066226
O8	O	1.482437	0.736480	0.433774
O9	O	0.995748	-0.007303	0.066353
O10	O	1.495748	0.492697	0.566353
O11	O	0.867196	0.121248	0.066344
O12	O	1.367196	0.621248	0.566344
O13	O	1.110971	0.107921	0.066360
O14	O	1.610971	0.607921	0.566360
Zn15	Zn	0.989081	0.114583	0.087401
Zn16	Zn	1.489081	0.614583	0.587401
Zn17	Zn	0.989104	0.114594	-0.087274
Zn18	Zn	1.489104	0.614594	0.412726
O19	O	0.982420	0.236472	0.066351
O20	O	1.482420	0.736472	0.566351
C21	C	0.836010	0.120701	0.000054
C22	C	1.336010	0.620701	0.500054
C23	C	0.743060	0.119049	0.000047
C24	C	1.243060	0.619049	0.500047
C25	C	0.405312	0.113117	0.000064
C26	C	0.905312	0.613117	0.500064
C27	C	0.452746	0.021565	0.000361
C28	C	0.952746	0.521565	0.500361
C29	C	0.549436	0.023217	0.000056
C30	C	1.049436	0.523217	0.500056
C31	C	0.572873	0.116060	0.000056
C32	C	1.072873	0.616060	0.500056
C33	C	0.531795	0.161221	-0.075649
C34	C	1.031795	0.661221	0.424351
C35	C	0.435159	0.158921	-0.075707
C36	C	0.935159	0.658921	0.424293
C37	C	0.434801	0.160803	0.075058
C38	C	0.934801	0.660803	0.575058
C39	C	0.531747	0.160782	0.076053
C40	C	1.031747	0.660782	0.576053
C41	C	0.667570	0.117727	0.000049
C42	C	1.167570	0.617727	0.500049
C43	C	0.310614	0.111452	0.000066
C44	C	0.810614	0.611452	0.500066
C45	C	0.995205	-0.038494	0.000063
C46	C	1.495205	0.461506	0.500063
C47	C	0.993553	-0.131444	0.000059
C48	C	1.493553	0.368556	0.500059
C49	C	0.987621	-0.469192	0.000061
C50	C	1.487621	0.030808	0.500061
C51	C	0.896069	-0.421758	-0.000242
C52	C	1.396069	0.078242	0.499758
C53	C	0.897721	-0.325068	0.000057
C54	C	1.397721	0.174932	0.500057
C55	C	0.990564	-0.301631	0.000059
C56	C	1.490564	0.198369	0.500059
C57	C	1.035711	-0.342713	0.075769
C58	C	1.535711	0.157287	0.575769
C59	C	1.033411	-0.439349	0.075832
C60	C	1.533411	0.060651	0.575832
C61	C	1.035321	-0.439698	-0.074932
C62	C	1.535321	0.060302	0.425068
C63	C	1.035300	-0.342753	-0.075933
C64	C	1.535300	0.157247	0.424067
C65	C	0.992231	-0.206934	0.000061
C66	C	1.492231	0.293066	0.500061
C67	C	0.985956	-0.563890	0.000065
C68	C	1.485956	-0.063890	0.500065
C69	C	1.142175	0.108476	0.000072
C70	C	1.642175	0.608476	0.500072
C71	C	1.235125	0.110127	0.000073
C72	C	1.735125	0.610127	0.500073
C73	C	0.982980	0.267671	0.000062
C74	C	1.482980	0.767671	0.500062
C75	C	0.984631	0.360621	0.000062
C76	C	1.484631	0.860621	0.500062
N77	N	0.989072	0.114576	0.206612
N78	N	1.489072	0.614576	0.706612
N79	N	0.989119	0.114595	-0.206485
N80	N	1.489119	0.614595	0.293515
C81	C	1.046012	0.057676	0.248334
C82	C	1.546012	0.557676	0.748334
C83	C	1.046016	0.057676	0.331786
C84	C	1.546016	0.557676	0.831786
C85	C	0.989085	0.114579	0.373515
C86	C	1.489085	0.614579	0.873515
C87	C	0.932139	0.171481	0.331788
C88	C	1.432139	0.671481	0.831788
C89	C	0.932131	0.171477	0.248338
C90	C	1.432131	0.671477	0.748338
C91	C	0.932169	0.171497	0.668336
C92	C	1.432169	0.671497	1.168336
C93	C	0.932183	0.171498	0.751792
C94	C	1.432183	0.671498	1.251792
C95	C	1.046055	0.057696	0.751784
C96	C	1.546055	0.557696	1.251784
C97	C	1.046047	0.057692	0.668333
C98	C	1.546047	0.557692	1.168333
C99	C	0.989098	0.114591	0.626613
C100	C	1.489098	0.614591	1.126613
C101	C	0.989093	0.114590	0.536125
C102	C	1.489093	0.614590	1.036125
C103	C	0.989093	0.114584	0.464002
C104	C	1.489093	0.614584	0.964002
H105	H	0.577301	-0.012515	-0.054306
H106	H	1.077301	0.487485	0.445694
Br107	Br	0.555362	0.274899	-0.080363
Br108	Br	1.055362	0.774899	0.419637
Br109	Br	1.149398	-0.319175	0.080470
Br110	Br	1.649398	0.180825	0.580470
Br111	Br	1.123318	-0.019531	0.611702
Br112	Br	1.623318	0.480469	1.111702
Br113	Br	0.980746	-0.296792	-0.169299
Br114	Br	1.480746	0.203208	0.330701
H115	H	0.414258	0.130869	0.132440
H116	H	0.914258	0.630869	0.632440
H117	H	0.885779	0.217810	0.365769
H118	H	1.385779	0.717810	0.865769
Br119	Br	0.838144	-0.278621	0.090656
Br120	Br	1.338144	0.221379	0.590656
H121	H	1.005396	-0.460235	-0.132315
H122	H	1.505396	0.039765	0.367685
H123	H	1.092381	0.011344	0.365755
H124	H	1.592381	0.511344	0.865755
H125	H	1.092423	0.011363	0.785761
H126	H	1.592423	0.511363	1.285761
Br127	Br	0.854914	0.248730	0.808425
Br128	Br	1.354914	0.748730	1.308425
H129	H	0.577858	-0.012281	0.054325
H130	H	1.077858	0.487719	0.554325
Br131	Br	0.577146	0.105740	0.169401
Br132	Br	1.077146	0.605740	0.669401
Br133	Br	0.978513	-0.469863	0.170153
Br134	Br	1.478513	0.030137	0.670153
H135	H	0.885801	0.217827	0.634374
H136	H	1.385801	0.717827	1.134374
H137	H	0.885763	0.217809	0.214369
H138	H	1.385763	0.717809	0.714369
Br139	Br	0.579096	0.108955	-0.169558
Br140	Br	1.079096	0.608955	0.330442
Br141	Br	0.421860	-0.039438	0.090851
Br142	Br	0.921860	0.460562	0.590851
Br143	Br	0.420095	-0.039153	-0.089620
Br144	Br	0.920095	0.460847	0.410380
H145	H	1.103005	-0.327391	-0.080502
H146	H	1.603005	0.172609	0.419498
H147	H	0.416858	0.125994	-0.132298
H148	H	0.916858	0.625994	0.367702
Br149	Br	1.123287	-0.019548	0.191709
Br150	Br	1.623287	0.480452	0.691709
H151	H	0.547111	0.228485	0.080625
H152	H	1.047111	0.728485	0.580625
H153	H	0.402911	0.226137	-0.079142
H154	H	0.902911	0.726137	0.420858
H155	H	0.862232	-0.296642	-0.054215
H156	H	1.362232	0.203358	0.445785
Br157	Br	0.381867	0.273309	0.075911
Br158	Br	0.881867	0.773309	0.575911
H159	H	0.859484	-0.440286	-0.054535
H160	H	1.359484	0.059714	0.445465
H161	H	0.859632	-0.441355	0.053743
H162	H	1.359632	0.058645	0.553743
Br163	Br	1.145437	-0.493103	0.081571
Br164	Br	1.645437	0.006897	0.581571
Br165	Br	0.983427	-0.295419	0.169673
Br166	Br	1.483427	0.204581	0.669673
H167	H	1.102822	-0.471459	-0.075439
H168	H	1.602822	0.028541	0.424561
