data_functionalizedCrystal
_audit_creation_method	'MofGen! by Chris Wilmer'
_symmetry_space_group_name_H-M	'P1'
_symmetry_Int_Tables_number	1
_symmetry_cell_setting	triclinic
loop_
_symmetry_equiv_pos_as_xyz
  x,y,z
_cell_length_a	8.497367
_cell_length_b	8.497374
_cell_length_c	11.169417
_cell_angle_alpha	90.000212
_cell_angle_beta	90.032599
_cell_angle_gamma	90.038609
loop_
_atom_site_label
_atom_site_type_symbol
_atom_site_fract_x
_atom_site_fract_y
_atom_site_fract_z
Zn1	Zn	0.628293	0.892409	1.835096
Zn2	Zn	0.892039	0.628828	1.835207
Zn3	Zn	0.628271	0.628643	1.634450
Zn4	Zn	0.892030	0.892566	1.634542
O5	O	0.760158	0.760611	1.734824
O6	O	0.663293	0.857455	2.003060
O7	O	0.857044	0.408041	1.808584
O8	O	0.407511	0.663488	1.660981
O9	O	0.857066	0.663804	2.003142
O10	O	0.407528	0.857276	1.808394
O11	O	0.663255	0.407905	1.661089
O12	O	0.663245	0.663641	1.466513
O13	O	0.857050	1.113308	1.661138
O14	O	0.857028	0.857545	1.466580
O15	O	0.663284	1.113192	1.808484
O16	O	1.112801	0.663957	1.808674
O17	O	1.112793	0.857724	1.661246
C18	C	0.760134	0.760591	1.422999
C19	C	0.760162	0.760620	1.289599
C20	C	1.348678	0.760466	1.734740
C21	C	1.170034	0.760754	1.734891
C22	C	0.760161	1.172092	1.734815
C23	C	0.760177	1.350736	1.734818
C24	C	0.760183	0.760633	2.047866
C25	C	0.760194	0.760642	2.181266
