data_functionalizedCrystal
_audit_creation_method	'MofGen! by Chris Wilmer'
_symmetry_space_group_name_H-M	'P1'
_symmetry_Int_Tables_number	1
_symmetry_cell_setting	triclinic
loop_
_symmetry_equiv_pos_as_xyz
  x,y,z
_cell_length_a	18.050590
_cell_length_b	18.050589
_cell_length_c	18.050582
_cell_angle_alpha	89.981795
_cell_angle_beta	89.999233
_cell_angle_gamma	89.982614
loop_
_atom_site_label
_atom_site_type_symbol
_atom_site_fract_x
_atom_site_fract_y
_atom_site_fract_z
Zn1	Zn	1.135292	0.295921	0.419624
Zn2	Zn	1.468626	0.629255	0.752957
Zn3	Zn	1.801959	0.962588	1.086291
Zn4	Zn	1.135203	0.420105	0.295444
Zn5	Zn	1.468536	0.753438	0.628777
Zn6	Zn	1.801870	1.086771	0.962110
Zn7	Zn	1.011112	0.295910	0.295482
Zn8	Zn	1.344445	0.629243	0.628816
Zn9	Zn	1.677778	0.962576	0.962149
Zn10	Zn	1.011060	0.420051	0.419626
Zn11	Zn	1.344393	0.753384	0.752959
Zn12	Zn	1.677726	1.086717	1.086293
O13	O	1.073167	0.357997	0.357544
O14	O	1.406500	0.691330	0.690877
O15	O	1.739833	1.024663	1.024211
O16	O	1.239205	0.312422	0.403134
O17	O	1.572538	0.645756	0.736468
O18	O	1.905872	0.979089	1.069801
O19	O	1.118727	0.403648	0.191524
O20	O	1.452060	0.736981	0.524857
O21	O	1.785393	1.070314	0.858191
O22	O	1.027644	0.191987	0.311965
O23	O	1.360977	0.525320	0.645299
O24	O	1.694310	0.858653	0.978632
O25	O	1.239140	0.403659	0.311899
O26	O	1.572473	0.736992	0.645233
O27	O	1.905806	1.070326	0.978566
O28	O	1.118879	0.191995	0.403172
O29	O	1.452212	0.525329	0.736505
O30	O	1.785545	0.858662	1.069838
O31	O	1.027557	0.312402	0.191553
O32	O	1.360890	0.645735	0.524886
O33	O	1.694224	0.979069	0.858219
O34	O	0.907180	0.312350	0.311967
O35	O	1.240514	0.645683	0.645301
O36	O	1.573847	0.979016	0.978634
O37	O	1.027555	0.403567	0.523550
O38	O	1.360888	0.736900	0.856884
O39	O	1.694222	1.070234	1.190217
O40	O	0.907142	0.403555	0.403175
O41	O	1.240475	0.736889	0.736509
O42	O	1.573809	1.070222	1.069842
O43	O	1.118828	0.312370	0.523549
O44	O	1.452162	0.645703	0.856882
O45	O	1.785495	0.979036	1.190216
O46	O	1.118676	0.524022	0.311901
O47	O	1.452009	0.857355	0.645235
O48	O	1.785343	1.190689	0.978568
O49	O	1.027468	0.523982	0.403138
O50	O	1.360802	0.857316	0.736471
O51	O	1.694135	1.190649	1.069804
C52	C	0.880215	0.357946	0.357576
C53	C	1.213548	0.691279	0.690909
C54	C	1.546881	1.024613	1.024243
C55	C	0.797669	0.357942	0.357607
C56	C	1.131002	0.691275	0.690941
C57	C	1.464335	1.024609	1.024274
C58	C	0.598219	0.407682	0.407088
C59	C	0.931552	0.741015	0.740422
C60	C	1.264886	1.074348	1.073755
C61	C	0.548826	0.339967	0.425358
C62	C	0.882159	0.673300	0.758692
C63	C	1.215492	1.006634	1.092025
C64	C	0.646538	0.357984	0.357571
C65	C	0.979872	0.691317	0.690904
C66	C	1.313205	1.024650	1.024238
C67	C	0.548850	0.425737	0.339300
C68	C	0.882183	0.759071	0.672634
C69	C	1.215517	1.092404	1.005967
C70	C	0.500553	0.358030	0.357537
C71	C	0.833887	0.691363	0.690871
C72	C	1.167220	1.024696	1.024204
C73	C	0.598233	0.290233	0.375876
C74	C	0.931566	0.623566	0.709210
C75	C	1.264899	0.956899	1.042543
C76	C	0.598261	0.376049	0.289787
C77	C	0.931594	0.709382	0.623120
C78	C	1.264928	1.042715	0.956453
C79	C	0.548890	0.308287	0.308031
C80	C	0.882224	0.641620	0.641364
C81	C	1.215557	0.974954	0.974698
C82	C	0.730637	0.357958	0.357592
C83	C	1.063970	0.691291	0.690926
C84	C	1.397303	1.024625	1.024259
C85	C	0.416457	0.358047	0.357516
C86	C	0.749790	0.691381	0.690849
C87	C	1.083123	1.024714	1.024183
C88	C	1.073077	0.550949	0.357532
C89	C	1.406410	0.884282	0.690865
C90	C	1.739744	1.217615	1.024198
C91	C	1.073107	0.633494	0.357551
C92	C	1.406440	0.966828	0.690885
C93	C	1.739773	1.300161	1.024218
C94	C	1.073196	0.357964	0.551250
C95	C	1.406529	0.691297	0.884583
C96	C	1.739862	1.024630	1.217916
C97	C	1.073208	0.357950	0.633796
C98	C	1.406542	0.691283	0.967129
C99	C	1.739875	1.024616	1.300462
C100	C	1.266872	0.358048	0.357512
C101	C	1.600206	0.691381	0.690846
C102	C	1.933539	1.024715	1.024179
C103	C	1.349418	0.358070	0.357499
C104	C	1.682751	0.691403	0.690832
C105	C	2.016085	1.024737	1.024166
C106	C	1.073277	0.164291	0.357573
C107	C	1.406610	0.497624	0.690906
C108	C	1.739944	0.830958	1.024239
C109	C	1.073324	0.081745	0.357585
C110	C	1.406657	0.415079	0.690918
C111	C	1.739991	0.748412	1.024251
C112	C	1.023557	0.832950	0.407148
C113	C	1.356890	1.166284	0.740482
C114	C	1.690223	1.499617	1.073815
C115	C	1.005459	0.882381	0.339386
C116	C	1.338792	1.215714	0.672719
C117	C	1.672125	1.549048	1.006053
C118	C	1.073180	0.784625	0.357561
C119	C	1.406513	1.117958	0.690894
C120	C	1.739846	1.451291	1.024228
C121	C	1.091314	0.882276	0.425331
C122	C	1.424647	1.215609	0.758664
C123	C	1.757981	1.548943	1.091998
C124	C	1.073249	0.930610	0.357576
C125	C	1.406582	1.263943	0.690910
C126	C	1.739915	1.597277	1.024243
C127	C	1.055046	0.832968	0.289763
C128	C	1.388379	1.166302	0.623096
C129	C	1.721713	1.499635	0.956429
C130	C	1.140933	0.832859	0.375754
C131	C	1.474266	1.166192	0.709087
C132	C	1.807599	1.499525	1.042420
C133	C	1.122861	0.882267	0.307945
C134	C	1.456194	1.215600	0.641278
C135	C	1.789527	1.548934	0.974611
C136	C	1.073138	0.700527	0.357553
C137	C	1.406471	1.033860	0.690886
C138	C	1.739805	1.367193	1.024220
C139	C	1.073290	1.014706	0.357576
C140	C	1.406624	1.348040	0.690910
C141	C	1.739957	1.681373	1.024243
C142	C	1.073180	0.357976	0.164592
C143	C	1.406514	0.691309	0.497925
C144	C	1.739847	1.024642	0.831259
C145	C	1.073312	0.357781	0.082047
C146	C	1.406645	0.691114	0.415380
C147	C	1.739979	1.024447	0.748713
C148	C	1.023612	0.407475	0.833247
C149	C	1.356945	0.740808	1.166580
C150	C	1.690278	1.074142	1.499914
C151	C	1.091367	0.425641	0.882621
C152	C	1.424700	0.758975	1.215955
C153	C	1.758034	1.092308	1.549288
C154	C	1.073245	0.357893	0.784926
C155	C	1.406578	0.691226	1.118259
C156	C	1.739912	1.024560	1.451593
C157	C	1.005527	0.339706	0.882634
C158	C	1.338860	0.673039	1.215967
C159	C	1.672193	1.006373	1.549300
C160	C	1.073274	0.357840	0.930911
C161	C	1.406608	0.691173	1.264244
C162	C	1.739941	1.024506	1.597578
C163	C	1.141036	0.376095	0.833213
C164	C	1.474369	0.709428	1.166546
C165	C	1.807702	1.042761	1.499880
C166	C	1.055150	0.290128	0.833221
C167	C	1.388483	0.623461	1.166554
C168	C	1.721816	0.956795	1.499888
C169	C	1.122952	0.308269	0.882573
C170	C	1.456285	0.641602	1.215906
C171	C	1.789618	0.974935	1.549239
C172	C	1.073227	0.357926	0.700828
C173	C	1.406560	0.691259	1.034161
C174	C	1.739894	1.024592	1.367494
C175	C	1.073300	0.357807	1.015008
C176	C	1.406633	0.691140	1.348341
C177	C	1.739966	1.024474	1.681674
H178	H	0.527112	0.324702	0.482668
H179	H	0.860445	0.658035	0.816001
H180	H	1.193778	0.991369	1.149334
H181	H	1.164986	0.266316	0.904094
H182	H	1.498319	0.599649	1.237428
H183	H	1.831653	0.932983	1.570761
O184	O	1.034827	0.214271	0.804452
O185	O	1.368160	0.547604	1.137785
O186	O	1.701494	0.880937	1.471118
H187	H	1.081163	0.192131	0.770626
H188	H	1.414496	0.525465	1.103959
H189	H	1.747829	0.858798	1.437293
O190	O	1.216932	0.396531	0.804583
O191	O	1.550266	0.729864	1.137916
O192	O	1.883599	1.063197	1.471249
H193	H	1.254657	0.406634	0.852073
H194	H	1.587991	0.739967	1.185406
H195	H	1.921324	1.073300	1.518739
H196	H	1.106690	0.482926	0.904320
H197	H	1.440023	0.816259	1.237654
H198	H	1.773356	1.149593	1.570987
H199	H	0.948246	0.324346	0.904342
H200	H	1.281580	0.657679	1.237675
H201	H	1.614913	0.991012	1.571009
O202	O	0.968067	0.463086	0.804553
O203	O	1.301400	0.796419	1.137886
O204	O	1.634734	1.129752	1.471220
H205	H	0.925696	0.434089	0.770736
H206	H	1.259030	0.767422	1.104069
H207	H	1.592363	1.100755	1.437403
O208	O	0.626922	0.463257	0.462611
O209	O	0.960255	0.796591	0.795944
O210	O	1.293589	1.129924	1.129278
H211	H	0.607123	0.448099	0.518822
H212	H	0.940456	0.781432	0.852156
H213	H	1.273789	1.114765	1.185489
O214	O	1.034672	0.804408	0.213831
O215	O	1.368005	1.137741	0.547165
O216	O	1.701339	1.471075	0.880498
H217	H	1.034773	0.742920	0.214429
H218	H	1.368107	1.076253	0.547762
H219	H	1.701440	1.409587	0.881096
H220	H	0.527367	0.266230	0.266142
H221	H	0.860700	0.599563	0.599475
H222	H	1.194034	0.932897	0.932808
O223	O	1.178490	0.910777	0.252350
O224	O	1.511824	1.244110	0.585684
O225	O	1.845157	1.577444	0.919017
H226	H	1.163292	0.890922	0.196181
H227	H	1.496626	1.224255	0.529514
H228	H	1.829959	1.557588	0.862848
H229	H	0.619834	0.232937	0.391380
H230	H	0.953167	0.566270	0.724714
H231	H	1.286500	0.899603	1.058047
O232	O	0.627050	0.396295	0.213896
O233	O	0.960383	0.729628	0.547230
O234	O	1.293717	1.062962	0.880563
H235	H	0.660870	0.349924	0.191819
H236	H	0.994203	0.683258	0.525152
H237	H	1.327536	1.016591	0.858486
O238	O	0.520134	0.501610	0.318826
O239	O	0.853467	0.834944	0.652160
O240	O	1.186801	1.168277	0.985493
H241	H	0.539906	0.542739	0.360021
H242	H	0.873239	0.876073	0.693354
H243	H	1.206572	1.209406	1.026688
O244	O	0.967895	0.804251	0.462615
O245	O	1.301229	1.137584	0.795948
O246	O	1.634562	1.470918	1.129281
H247	H	0.911725	0.824085	0.447337
H248	H	1.245058	1.157419	0.780670
H249	H	1.578391	1.490752	1.114003
H250	H	0.948195	0.904150	0.324012
H251	H	1.281528	1.237484	0.657346
H252	H	1.614861	1.570817	0.990679
O253	O	1.111602	0.910964	0.501238
O254	O	1.444935	1.244297	0.834571
O255	O	1.778268	1.577630	1.167905
H256	H	1.070292	0.891211	0.542281
H257	H	1.403625	1.224545	0.875614
H258	H	1.736958	1.557878	1.208948
H259	H	1.198184	0.811091	0.391160
H260	H	1.531517	1.144425	0.724493
H261	H	1.864851	1.477758	1.057826
