data_functionalizedCrystal
_audit_creation_method	'MofGen! by Chris Wilmer'
_symmetry_space_group_name_H-M	'P1'
_symmetry_Int_Tables_number	1
_symmetry_cell_setting	triclinic
loop_
_symmetry_equiv_pos_as_xyz
  x,y,z
_cell_length_a	11.026607
_cell_length_b	10.654550
_cell_length_c	9.730223
_cell_angle_alpha	90.003749
_cell_angle_beta	89.999947
_cell_angle_gamma	83.464540
loop_
_atom_site_label
_atom_site_type_symbol
_atom_site_fract_x
_atom_site_fract_y
_atom_site_fract_z
O1	O	0.170762	-1.704901	-0.114401
O2	O	0.187032	-1.342954	-0.114379
O3	O	0.001991	-1.493930	-0.114383
O4	O	0.355802	-1.553926	-0.114397
O5	O	0.001996	-1.493929	0.114196
O6	O	0.187036	-1.342953	0.114201
O7	O	0.170767	-1.704900	0.114179
Zn8	Zn	0.178902	-1.523926	0.150482
Zn9	Zn	0.178896	-1.523928	-0.150682
O10	O	0.355807	-1.553924	0.114183
C11	C	0.185839	-1.295897	-0.000086
C12	C	0.182265	-1.155677	-0.000078
C13	C	-0.043310	-1.482861	-0.000094
C14	C	-0.178302	-1.449867	-0.000097
N15	N	0.178906	-1.523934	0.356018
C16	C	-0.251341	-1.540970	-0.000105
C17	C	-0.390862	-1.506871	-0.000108
C18	C	0.401109	-1.564993	-0.000109
C19	C	0.536100	-1.597988	-0.000115
C20	C	0.171959	-1.751958	-0.000117
C21	C	0.175533	-1.892177	-0.000135
C22	C	0.291214	-1.099841	-0.000102
C23	C	0.287849	-0.968090	-0.000126
C24	C	0.066576	-0.948022	-0.000107
C25	C	0.069943	-1.079771	-0.000073
C26	C	0.418964	-1.111426	-0.000119
C27	C	0.415599	-0.979675	-0.000143
N28	N	0.178883	-1.523928	-0.356219
C29	C	0.096998	-1.590814	0.427942
C30	C	0.096983	-1.590808	0.571825
C31	C	0.260795	-1.457040	0.571847
C32	C	0.260803	-1.457040	0.427967
C33	C	0.002426	-1.668049	0.427931
C34	C	0.002411	-1.668043	0.571814
H35	H	-0.210581	-1.644212	-0.000103
Br36	Br	-0.153326	-1.598504	0.362833
H37	H	0.023243	-1.769076	0.610858
H38	H	0.459640	-1.155912	-0.098808
Br39	Br	-0.458779	-1.334782	-0.000117
H40	H	0.454208	-0.942384	0.098540
Br41	Br	-0.085855	-0.844998	-0.000095
Br42	Br	-0.395987	-1.770078	-0.000138
H43	H	0.032038	-1.765661	0.383298
Br44	Br	-0.246224	-1.277784	-0.000107
Br45	Br	0.495820	-0.927521	-0.159590
Br46	Br	-0.077922	-1.155546	-0.000001
H47	H	0.327472	-1.402575	0.630443
H48	H	0.468929	-1.151603	0.095545
Br49	Br	0.371945	-1.366246	0.330352
Br50	Br	-0.144765	-1.585223	0.646200
