data_functionalizedCrystal
_audit_creation_method	'MofGen! by Chris Wilmer'
_symmetry_space_group_name_H-M	'P1'
_symmetry_Int_Tables_number	1
_symmetry_cell_setting	triclinic
loop_
_symmetry_equiv_pos_as_xyz
  x,y,z
_cell_length_a	12.759401
_cell_length_b	12.594516
_cell_length_c	12.759393
_cell_angle_alpha	89.970876
_cell_angle_beta	89.980387
_cell_angle_gamma	90.016284
loop_
_atom_site_label
_atom_site_type_symbol
_atom_site_fract_x
_atom_site_fract_y
_atom_site_fract_z
Zn1	Zn	1.606246	-0.423673	-0.594030
Zn2	Zn	1.606136	-0.601692	-0.418358
Zn3	Zn	1.430547	-0.423729	-0.418366
Zn4	Zn	1.430532	-0.601610	-0.593996
O5	O	1.518365	-0.512676	-0.506188
O6	O	1.753252	-0.447298	-0.570738
O7	O	1.582804	-0.578142	-0.271338
O8	O	1.453907	-0.274775	-0.441687
O9	O	1.753171	-0.578088	-0.441672
O10	O	1.582991	-0.274734	-0.570746
O11	O	1.453800	-0.447394	-0.271344
O12	O	1.283524	-0.447314	-0.441653
O13	O	1.453880	-0.577949	-0.741022
O14	O	1.283513	-0.578003	-0.570688
O15	O	1.582976	-0.447219	-0.741047
O16	O	1.582789	-0.750627	-0.441639
O17	O	1.453774	-0.750567	-0.570679
C18	C	1.245398	-0.512657	-0.506168
C19	C	1.128621	-0.512674	-0.506185
C20	C	1.073721	-0.580667	-0.438888
C21	C	0.963997	-0.580686	-0.438907
C22	C	0.964083	-0.444708	-0.573520
C23	C	1.073805	-0.444696	-0.573507
C24	C	1.128537	-0.648645	-0.371567
C25	C	1.073636	-0.716643	-0.304264
C26	C	0.963912	-0.716661	-0.304282
C27	C	0.909089	-0.648682	-0.371603
C28	C	1.518296	-0.789217	-0.506177
C29	C	1.518363	-0.907522	-0.506208
C30	C	1.448185	-0.976782	-0.576344
C31	C	1.422585	-1.047652	-0.480477
C32	C	1.544058	-1.047451	-0.602092
C33	C	1.492713	-0.976835	-0.410290
C34	C	1.614230	-0.976627	-0.531970
C35	C	1.588667	-1.047466	-0.436037
C36	C	1.792398	-0.512696	-0.506208
C37	C	1.909175	-0.512705	-0.506217
C38	C	1.518439	-0.512569	-0.780221
C39	C	1.518470	-0.512523	-0.896998
C40	C	1.518463	-0.235055	-0.506221
C41	C	1.518505	-0.116750	-0.506235
C42	C	1.585700	-0.444445	-0.951875
C43	C	1.585725	-0.444407	-1.061599
C44	C	1.451288	-0.580533	-1.061560
C45	C	1.451258	-0.580565	-0.951838
C46	C	1.652912	-0.376403	-0.897035
C47	C	1.720147	-0.308321	-0.951912
C48	C	1.720172	-0.308282	-1.061636
C49	C	1.652962	-0.376326	-1.116484
C50	C	1.518352	-0.512706	-0.233220
C51	C	1.518525	-0.512452	-0.116444
H52	H	1.118506	-0.389328	-0.628303
O53	O	1.792675	-0.234852	-1.120838
H54	H	1.875122	-0.253129	-1.099796
H55	H	1.774861	-0.252916	-0.907249
O56	O	1.378741	-0.653987	-0.892643
H57	H	1.425726	-0.708153	-0.842635
H58	H	0.919215	-0.772036	-0.249489
H59	H	1.652975	-0.376277	-1.205828
H60	H	1.652901	-0.376429	-0.807692
O61	O	1.378802	-0.653924	-1.120709
H62	H	1.390123	-0.642469	-1.206225
O63	O	1.315280	-1.088980	-0.451618
H64	H	1.293514	-1.059466	-0.372603
O65	O	1.246881	-0.648627	-0.371553
H66	H	1.275777	-0.707322	-0.313442
O67	O	0.790742	-0.648705	-0.371626
H68	H	0.761814	-0.568401	-0.350538
O69	O	1.572780	-1.088537	-0.709484
H70	H	1.514341	-1.060226	-0.767533
H71	H	1.118281	-0.771997	-0.249461
H72	H	1.648075	-1.078306	-0.376668
O73	O	0.904960	-0.371375	-0.646113
H74	H	0.819439	-0.382797	-0.634807
O75	O	1.369440	-0.935658	-0.654796
H76	H	1.370605	-0.847537	-0.654613
O77	O	1.463876	-0.935934	-0.302860
H78	H	1.391789	-0.886962	-0.308521
O79	O	1.721630	-0.935506	-0.560739
H80	H	1.742770	-0.963823	-0.640348
