data_functionalizedCrystal
_audit_creation_method	'MofGen! by Chris Wilmer'
_symmetry_space_group_name_H-M	'P1'
_symmetry_Int_Tables_number	1
_symmetry_cell_setting	triclinic
loop_
_symmetry_equiv_pos_as_xyz
  x,y,z
_cell_length_a	12.759401
_cell_length_b	13.897448
_cell_length_c	12.759393
_cell_angle_alpha	89.966449
_cell_angle_beta	89.982620
_cell_angle_gamma	90.017853
loop_
_atom_site_label
_atom_site_type_symbol
_atom_site_fract_x
_atom_site_fract_y
_atom_site_fract_z
Zn1	Zn	1.606222	-0.383952	-0.593968
Zn2	Zn	2.106222	0.116048	-0.093968
Zn3	Zn	1.606111	-0.545282	-0.418283
Zn4	Zn	2.106111	-0.045282	0.081717
Zn5	Zn	1.430527	-0.384003	-0.418308
Zn6	Zn	1.930527	0.115997	0.081692
Zn7	Zn	1.430503	-0.545207	-0.593924
Zn8	Zn	1.930503	-0.045207	-0.093924
O9	O	1.518341	-0.464611	-0.506121
O10	O	2.018341	0.035389	-0.006121
O11	O	1.753228	-0.405363	-0.570671
O12	O	2.253228	0.094637	-0.070671
O13	O	1.582782	-0.523941	-0.271265
O14	O	2.082782	-0.023941	0.228735
O15	O	1.453890	-0.249015	-0.441638
O16	O	1.953890	0.250985	0.058362
O17	O	1.753146	-0.523891	-0.441596
O18	O	2.253146	-0.023891	0.058404
O19	O	1.582972	-0.248977	-0.570695
O20	O	2.082972	0.251023	-0.070695
O21	O	1.453782	-0.405450	-0.271283
O22	O	1.953782	0.094550	0.228717
O23	O	1.283503	-0.405377	-0.441596
O24	O	1.783503	0.094623	0.058404
O25	O	1.453849	-0.523764	-0.740951
O26	O	1.953849	-0.023764	-0.240951
O27	O	1.283486	-0.523813	-0.570621
O28	O	1.783486	-0.023813	-0.070621
O29	O	1.582949	-0.405290	-0.740984
O30	O	2.082949	0.094710	-0.240984
O31	O	1.582759	-0.680254	-0.441554
O32	O	2.082759	-0.180254	0.058446
O33	O	1.453741	-0.680199	-0.570597
O34	O	1.953741	-0.180199	-0.070597
C35	C	1.245373	-0.464593	-0.506107
C36	C	1.745373	0.035407	-0.006107
C37	C	1.128597	-0.464609	-0.506125
C38	C	1.628597	0.035391	-0.006125
C39	C	1.073753	-0.526377	-0.573198
C40	C	1.573753	-0.026377	-0.073198
C41	C	0.964029	-0.526389	-0.573209
C42	C	1.464029	-0.026389	-0.073209
C43	C	0.964002	-0.402862	-0.439067
C44	C	1.464002	0.097138	0.060933
C45	C	1.073724	-0.402846	-0.439062
C46	C	1.573724	0.097154	0.060938
C47	C	1.128626	-0.588140	-0.640261
C48	C	1.628626	-0.088140	-0.140261
C49	C	1.073782	-0.649914	-0.707338
C50	C	1.573782	-0.149914	-0.207338
C51	C	0.964058	-0.649927	-0.707349
C52	C	1.464058	-0.149927	-0.207349
C53	C	0.909178	-0.588165	-0.640284
C54	C	1.409178	-0.088165	-0.140284
C55	C	1.518264	-0.715225	-0.506090
C56	C	2.018264	-0.215225	-0.006090
C57	C	1.518327	-0.822439	-0.506113
C58	C	2.018327	-0.322439	-0.006113
C59	C	1.518438	-1.018734	-0.506178
C60	C	2.018438	-0.518734	-0.006178
C61	C	1.518373	-0.909502	-0.506145
C62	C	2.018373	-0.409502	-0.006145
C63	C	1.792374	-0.464630	-0.506136
C64	C	2.292374	0.035370	-0.006136
C65	C	1.909151	-0.464637	-0.506142
C66	C	2.409151	0.035363	-0.006142
C67	C	1.518409	-0.464513	-0.780154
C68	C	2.018409	0.035487	-0.280154
C69	C	1.518438	-0.464471	-0.896931
C70	C	2.018438	0.035529	-0.396931
C71	C	1.518446	-0.213018	-0.506174
C72	C	2.018446	0.286982	-0.006174
C73	C	1.518491	-0.105804	-0.506197
C74	C	2.018491	0.394196	-0.006197
C75	C	1.451296	-0.402761	-0.951809
C76	C	1.951296	0.097239	-0.451809
C77	C	1.451328	-0.402733	-1.061533
C78	C	1.951328	0.097267	-0.561533
C79	C	1.585653	-0.526126	-1.061492
C80	C	2.085653	-0.026126	-0.561492
C81	C	1.585615	-0.526159	-0.951770
C82	C	2.085615	-0.026159	-0.451770
C83	C	1.384119	-0.341074	-0.896970
C84	C	1.884119	0.158926	-0.396970
C85	C	1.316973	-0.279358	-0.951847
C86	C	1.816973	0.220642	-0.451847
C87	C	1.317005	-0.279329	-1.061571
C88	C	1.817005	0.220671	-0.561571
C89	C	1.384183	-0.341016	-1.116418
C90	C	1.884183	0.158984	-0.616418
C91	C	1.518333	-0.464639	-0.233154
C92	C	2.018333	0.035361	0.266846
C93	C	1.518508	-0.464409	-0.116377
C94	C	2.018508	0.035591	0.383623
H95	H	0.919310	-0.352579	-0.384465
H96	H	1.419310	0.147421	0.115535
H97	H	1.262324	-0.229084	-1.106250
H98	H	1.762324	0.270916	-0.606250
H99	H	1.384201	-0.340990	-1.205763
H100	H	1.884201	0.159010	-0.705763
H101	H	1.118379	-0.352542	-0.384454
H102	H	1.618379	0.147458	0.115546
Br103	Br	1.384080	-0.341102	-0.748059
Br104	Br	1.884080	0.158898	-0.248059
H105	H	1.217969	-0.588139	-0.640258
H106	H	1.717969	-0.088139	-0.140258
H107	H	1.262273	-0.229140	-0.907184
H108	H	1.762273	0.270860	-0.407184
H109	H	1.640348	-0.576346	-1.106157
H110	H	2.140348	-0.076346	-0.606157
H111	H	1.118473	-0.700192	-0.761947
H112	H	1.618473	-0.200192	-0.261947
Br113	Br	0.889629	-0.733750	-0.798391
Br114	Br	1.389629	-0.233750	-0.298391
Br115	Br	0.760265	-0.588172	-0.640313
Br116	Br	1.260265	-0.088172	-0.140313
Br117	Br	1.676729	-0.609916	-0.877286
Br118	Br	2.176729	-0.109916	-0.377286
