data_functionalizedCrystal
_audit_creation_method	'MofGen! by Chris Wilmer'
_symmetry_space_group_name_H-M	'P1'
_symmetry_Int_Tables_number	1
_symmetry_cell_setting	triclinic
loop_
_symmetry_equiv_pos_as_xyz
  x,y,z
_cell_length_a	17.699083
_cell_length_b	11.804783
_cell_length_c	17.699083
_cell_angle_alpha	76.686354
_cell_angle_beta	83.283015
_cell_angle_gamma	76.691073
loop_
_atom_site_label
_atom_site_type_symbol
_atom_site_fract_x
_atom_site_fract_y
_atom_site_fract_z
O1	O	0.990490	0.098857	0.082111
O2	O	1.490490	0.598857	0.582111
O3	O	0.770106	0.098896	0.094558
O4	O	1.270106	0.598896	0.594558
O5	O	0.886526	0.098865	-0.021854
O6	O	1.386526	0.598865	0.478146
O7	O	0.874070	0.098888	0.198522
O8	O	1.374070	0.598888	0.698522
O9	O	0.913733	-0.099178	0.005390
O10	O	1.413733	0.400822	0.505390
O11	O	0.797313	-0.099147	0.121801
O12	O	1.297313	0.400853	0.621801
O13	O	1.017697	-0.099186	0.109354
O14	O	1.517697	0.400814	0.609354
Cu15	Cu	0.909989	-0.117249	0.118065
Cu16	Cu	1.409989	0.382751	0.618065
Cu17	Cu	0.877814	0.116959	0.085847
Cu18	Cu	1.377814	0.616959	0.585847
O19	O	0.901277	-0.099155	0.225765
O20	O	1.401277	0.400845	0.725765
C21	C	0.755512	-0.000120	0.107732
C22	C	1.255512	0.499880	0.607732
C23	C	0.671492	-0.000106	0.106392
C24	C	1.171492	0.499894	0.606392
N25	N	0.932625	-0.281979	0.140725
N26	N	1.432625	0.218021	0.640725
C27	C	0.622870	-0.000099	0.174724
C28	C	1.122870	0.499901	0.674724
C29	C	0.543929	-0.000114	0.173464
C30	C	1.043929	0.499886	0.673464
C31	C	0.513610	-0.000128	0.103869
C32	C	1.013610	0.499872	0.603869
C33	C	0.562238	-0.000139	0.035532
C34	C	1.062238	0.499861	0.535532
C35	C	0.641179	-0.000132	0.036794
C36	C	1.141179	0.499868	0.536794
C37	C	0.243880	-0.000169	0.030441
C38	C	0.743880	0.499831	0.530441
C39	C	0.164932	-0.000172	0.029184
C40	C	0.664932	0.499828	0.529184
C41	C	0.146629	-0.000151	0.167111
C42	C	0.646629	0.499849	0.667111
C43	C	0.225570	-0.000144	0.168373
C44	C	0.725570	0.499856	0.668373
C45	C	0.274192	-0.000161	0.100037
C46	C	0.774192	0.499839	0.600037
C47	C	0.359790	-0.000146	0.101404
C48	C	0.859790	0.499854	0.601404
C49	C	0.428013	-0.000134	0.102500
C50	C	0.928013	0.499866	0.602500
C51	C	0.800800	-0.655991	0.008760
C52	C	1.300800	-0.155991	0.508760
C53	C	0.783662	-0.531337	-0.008387
C54	C	1.283662	-0.031337	0.491613
C55	C	0.820901	-0.468992	0.028890
C56	C	1.320901	0.031008	0.528890
C57	C	0.875282	-0.531312	0.083316
C58	C	1.375282	-0.031312	0.583316
C59	C	0.892427	-0.655977	0.100460
C60	C	1.392427	-0.155977	0.600460
C61	C	0.912527	-0.468978	0.120590
C62	C	1.412527	0.031022	0.620590
C63	C	0.966908	-0.531298	0.175015
C64	C	1.466908	-0.031298	0.675015
C65	C	0.984050	-0.655952	0.192157
C66	C	1.484050	-0.155952	0.692157
C67	C	0.946810	-0.718297	0.154880
C68	C	1.446810	-0.218297	0.654880
C69	C	0.895382	-0.344313	0.103445
C70	C	1.395382	0.155687	0.603445
C71	C	0.987009	-0.344299	0.195145
C72	C	1.487009	0.155701	0.695145
C73	C	1.004147	-0.468953	0.212292
C74	C	1.504147	0.031047	0.712292
C75	C	1.032291	-0.000167	0.096179
C76	C	1.532291	0.499833	0.596179
C77	C	1.116310	-0.000174	0.097518
C78	C	1.616310	0.499826	0.597518
C79	C	0.899683	-0.000157	-0.036429
C80	C	1.399683	0.499843	0.463571
C81	C	0.898345	-0.000157	-0.120447
C82	C	1.398345	0.499843	0.379553
N83	N	0.855184	0.281689	0.063181
N84	N	1.355184	0.781689	0.563181
C85	C	0.966680	-0.000171	-0.169066
C86	C	1.466680	0.499829	0.330934
C87	C	0.965416	-0.000160	-0.248011
C88	C	1.465416	0.499840	0.251989
C89	C	0.895817	-0.000144	-0.278334
C90	C	1.395817	0.499856	0.221666
C91	C	0.827476	-0.000126	-0.229709
C92	C	1.327476	0.499874	0.270291
C93	C	0.828740	-0.000129	-0.150767
C94	C	1.328740	0.499871	0.349233
C95	C	0.822380	-0.000116	-0.548074
C96	C	1.322380	0.499884	-0.048074
C97	C	0.821122	-0.000117	-0.627021
C98	C	1.321122	0.499883	-0.127021
C99	C	0.959056	-0.000147	-0.645317
C100	C	1.459056	0.499853	-0.145317
C101	C	0.960319	-0.000149	-0.566375
C102	C	1.460319	0.499851	-0.066375
C103	C	0.891978	-0.000126	-0.517758
C104	C	1.391978	0.499874	-0.017758
C105	C	0.893349	-0.000135	-0.432158
C106	C	1.393349	0.499865	0.067842
C107	C	0.894447	-0.000143	-0.363932
C108	C	1.394447	0.499857	0.136068
C109	C	0.888120	-0.000131	0.240340
C110	C	1.388120	0.499869	0.740340
C111	C	0.889457	-0.000123	0.324357
C112	C	1.389457	0.499877	0.824357
H113	H	0.647549	-0.000087	0.231396
H114	H	1.147549	0.499913	0.731396
Cl115	Cl	1.044972	-0.000172	-0.706442
Cl116	Cl	1.544972	0.499828	-0.206442
Cl117	Cl	0.739978	-0.000092	-0.267832
Cl118	Cl	1.239978	0.499908	0.232168
H119	H	1.017333	-0.293538	0.225499
H120	H	1.517333	0.206462	0.725499
Cl121	Cl	1.052422	-0.734294	0.260570
Cl122	Cl	1.552422	-0.234294	0.760570
H123	H	0.739387	-0.480605	-0.052702
H124	H	1.239387	0.019395	0.447298
H125	H	0.960759	-0.819801	0.168842
H126	H	1.460759	-0.319801	0.668842
Cl127	Cl	1.047818	-0.000166	-0.528260
Cl128	Cl	1.547818	0.499834	-0.028260
Cl129	Cl	0.733619	-0.000094	-0.665140
Cl130	Cl	1.233619	0.499906	-0.165140
H131	H	0.504343	-0.000107	0.229107
H132	H	1.004343	0.499893	0.729107
H133	H	1.048425	-0.519711	0.256607
H134	H	1.548425	-0.019711	0.756607
H135	H	0.766732	-0.000097	-0.508499
H136	H	1.266732	0.499903	-0.008499
H137	H	0.283459	-0.000183	-0.025202
H138	H	0.783459	0.499817	0.474798
Cl139	Cl	0.126819	-0.000190	-0.058313
Cl140	Cl	0.626819	0.499810	0.441687
Cl141	Cl	0.263679	-0.000120	0.255865
Cl142	Cl	0.763679	0.499880	0.755865
H143	H	0.107032	-0.000144	0.222754
H144	H	0.607032	0.499856	0.722754
H145	H	1.021062	-0.000174	-0.287594
H146	H	1.521062	0.499826	0.212406
Cl147	Cl	0.524124	-0.000164	-0.051958
Cl148	Cl	1.024124	0.499836	0.448042
H149	H	0.680767	-0.000137	-0.018849
H150	H	1.180767	0.499863	0.481151
Cl151	Cl	0.827021	-0.265983	0.035027
Cl152	Cl	1.327021	0.234017	0.535027
H153	H	0.773094	-0.000117	-0.111182
H154	H	1.273094	0.499883	0.388818
H155	H	0.806943	-0.367493	0.014926
H156	H	1.306943	0.132507	0.514926
Cl157	Cl	0.753996	-0.734373	-0.038099
Cl158	Cl	1.253996	-0.234373	0.461901
H159	H	1.023356	-0.000191	-0.144383
H160	H	1.523356	0.499809	0.355617
