data_functionalizedCrystal
_audit_creation_method	'MofGen! by Chris Wilmer'
_symmetry_space_group_name_H-M	'P1'
_symmetry_Int_Tables_number	1
_symmetry_cell_setting	triclinic
loop_
_symmetry_equiv_pos_as_xyz
  x,y,z
_cell_length_a	12.759395
_cell_length_b	25.639239
_cell_length_c	12.759387
_cell_angle_alpha	89.963910
_cell_angle_beta	89.980929
_cell_angle_gamma	90.040223
loop_
_atom_site_label
_atom_site_type_symbol
_atom_site_fract_x
_atom_site_fract_y
_atom_site_fract_z
Zn1	Zn	1.606079	-0.208103	-0.593964
Zn2	Zn	1.605900	-0.295549	-0.418267
Zn3	Zn	1.430381	-0.208131	-0.418301
Zn4	Zn	1.430296	-0.295512	-0.593906
O5	O	1.518164	-0.251824	-0.506110
O6	O	1.753076	-0.219707	-0.570668
O7	O	1.582578	-0.283980	-0.271250
O8	O	1.453798	-0.134963	-0.441641
O9	O	1.752945	-0.283953	-0.441584
O10	O	1.582883	-0.134942	-0.570700
O11	O	1.453625	-0.219755	-0.271275
O12	O	1.283349	-0.219719	-0.441585
O13	O	1.453653	-0.283890	-0.740935
O14	O	1.283286	-0.283917	-0.570602
O15	O	1.582800	-0.219671	-0.740978
O16	O	1.582495	-0.368709	-0.441528
O17	O	1.453479	-0.368682	-0.570569
C18	C	1.245196	-0.251818	-0.506092
C19	C	1.128420	-0.251827	-0.506109
C20	C	1.128393	-0.318785	-0.640236
C21	C	1.073519	-0.352268	-0.707303
C22	C	0.963797	-0.352274	-0.707316
C23	C	0.908947	-0.318793	-0.640257
C24	C	0.963821	-0.285310	-0.573190
C25	C	1.073545	-0.285309	-0.573182
C26	C	0.963848	-0.218351	-0.439070
C27	C	1.073570	-0.218346	-0.439050
C28	C	0.908998	-0.184869	-0.372011
C29	C	0.963873	-0.151388	-0.304937
C30	C	1.073601	-0.151384	-0.304926
C31	C	1.128444	-0.184863	-0.371983
C32	C	1.517987	-0.387667	-0.506062
C33	C	1.518008	-0.445781	-0.506076
C34	C	1.585518	-0.806145	-0.439032
C35	C	1.585559	-0.860749	-0.439046
O36	O	1.642775	-0.888987	-0.381991
N37	N	1.518349	-0.888063	-0.506179
C38	C	1.451101	-0.860769	-0.573310
O39	O	1.393938	-0.889016	-0.630414
C40	C	1.451066	-0.806166	-0.573300
C41	C	1.518273	-0.778855	-0.506156
C42	C	1.652720	-0.778834	-0.371894
C43	C	1.652678	-0.724234	-0.371879
C44	C	1.585433	-0.696944	-0.439002
C45	C	1.518231	-0.724255	-0.506140
C46	C	1.383825	-0.778874	-0.640436
C47	C	1.383797	-0.724267	-0.640421
C48	C	1.451004	-0.696956	-0.573276
C49	C	1.450944	-0.642365	-0.573249
N50	N	1.518154	-0.615051	-0.506116
C51	C	1.585398	-0.642341	-0.438992
C52	C	1.451180	-0.975440	-0.573326
C53	C	1.451209	-1.030042	-0.573331
C54	C	1.585668	-1.030018	-0.439069
C55	C	1.585633	-0.975415	-0.439059
C56	C	1.518390	-0.948126	-0.506193
C57	C	1.585304	-0.527676	-0.438965
C58	C	1.585252	-0.473070	-0.438953
C59	C	1.450798	-0.473099	-0.573219
C60	C	1.450845	-0.527700	-0.573227
C61	C	1.518106	-0.554987	-0.506097
O62	O	1.393760	-0.614092	-0.630278
O63	O	1.642561	-0.614088	-0.381908
C64	C	1.792197	-0.251831	-0.506128
C65	C	1.908974	-0.251834	-0.506136
C66	C	1.518236	-0.251773	-0.780143
C67	C	1.518267	-0.251752	-0.896920
C68	C	1.518370	-0.115451	-0.506181
C69	C	1.518458	-0.057337	-0.506211
C70	C	1.652815	-0.184844	-1.116408
C71	C	1.720042	-0.151419	-1.061568
C72	C	1.720012	-0.151436	-0.951846
C73	C	1.652750	-0.184884	-0.896962
C74	C	1.585524	-0.218309	-0.951802
C75	C	1.585559	-0.218287	-1.061526
C76	C	1.451041	-0.285177	-0.951760
C77	C	1.451063	-0.285158	-1.061482
C78	C	1.383779	-0.318625	-0.896876
C79	C	1.316546	-0.352049	-0.951716
C80	C	1.316577	-0.352030	-1.061444
C81	C	1.383837	-0.318584	-1.116322
C82	C	1.518152	-0.251836	-0.233142
C83	C	1.518325	-0.251711	-0.116366
H84	H	1.118189	-0.379527	-0.761903
H85	H	0.819606	-0.318797	-0.640283
N86	N	0.790657	-0.184877	-0.372013
H87	H	0.764215	-0.211172	-0.424667
H88	H	0.764285	-0.194428	-0.299865
N89	N	0.904712	-0.115287	-0.232605
H90	H	0.859233	-0.091086	-0.275392
H91	H	0.859204	-0.136553	-0.183869
N92	N	1.132791	-0.115272	-0.232588
H93	H	1.178364	-0.091069	-0.275374
H94	H	1.081330	-0.094099	-0.190126
H95	H	1.383862	-0.318562	-1.205663
N96	N	1.246786	-0.184864	-0.371971
H97	H	1.273256	-0.175300	-0.444080
H98	H	1.273147	-0.158577	-0.319265
N99	N	1.658133	-0.945965	-0.366647
H100	H	1.706786	-0.923272	-0.409382
H101	H	1.615384	-0.923377	-0.317926
H102	H	1.652741	-0.184899	-0.807621
H103	H	1.707406	-0.702000	-0.317207
H104	H	1.396472	-1.052274	-0.627997
H105	H	1.261837	-0.379251	-1.106088
H106	H	1.640077	-0.549886	-0.384303
H107	H	1.774756	-0.124219	-0.907195
H108	H	1.707484	-0.801048	-0.317234
N109	N	1.378629	-0.946014	-0.645727
H110	H	1.329949	-0.923400	-0.602982
H111	H	1.421345	-0.923349	-0.694444
N112	N	1.383739	-0.318649	-0.778534
H113	H	1.455787	-0.328266	-0.752097
H114	H	1.364426	-0.282780	-0.752207
H115	H	1.329093	-0.801101	-0.695107
N116	N	1.246735	-0.318785	-0.640221
H117	H	1.273225	-0.282931	-0.659668
H118	H	1.273030	-0.328371	-0.568091
N119	N	0.904603	-0.388385	-0.779654
H120	H	0.955994	-0.409593	-0.822135
H121	H	0.859032	-0.412554	-0.736795
N122	N	1.657745	-0.443614	-0.366532
H123	H	1.700353	-0.469190	-0.324019
H124	H	1.706324	-0.420917	-0.409339
N125	N	1.658198	-1.059458	-0.366668
H126	H	1.648019	-1.098192	-0.376870
H127	H	1.733218	-1.049870	-0.383085
N128	N	1.311271	-0.694834	-0.712834
H129	H	1.268707	-0.720424	-0.755366
H130	H	1.262653	-0.672221	-0.670024
N131	N	1.378350	-0.557157	-0.645641
H132	H	1.421038	-0.579768	-0.694375
H133	H	1.329718	-0.579826	-0.602836
N134	N	1.378265	-0.443660	-0.645607
H135	H	1.388445	-0.404926	-0.635405
H136	H	1.394585	-0.453165	-0.720659
N137	N	1.652832	-0.184818	-1.234749
H138	H	1.705636	-0.158557	-1.261197
H139	H	1.672062	-0.220698	-1.261085
H140	H	1.261792	-0.379281	-0.907020
N141	N	1.792589	-0.115346	-1.120762
H142	H	1.782409	-0.120404	-1.198592
H143	H	1.776289	-0.078008	-1.101602
