data_functionalizedCrystal
_audit_creation_method	'MofGen! by Chris Wilmer'
_symmetry_space_group_name_H-M	'P1'
_symmetry_Int_Tables_number	1
_symmetry_cell_setting	triclinic
loop_
_symmetry_equiv_pos_as_xyz
  x,y,z
_cell_length_a	27.440280
_cell_length_b	14.560438
_cell_length_c	14.560438
_cell_angle_alpha	90.000736
_cell_angle_beta	60.006779
_cell_angle_gamma	59.999461
loop_
_atom_site_label
_atom_site_type_symbol
_atom_site_fract_x
_atom_site_fract_y
_atom_site_fract_z
Zr1	Zr	0.533397	-0.120521	0.884881
O2	O	0.635056	-0.267163	0.738259
O3	O	0.431736	-0.075569	0.929811
O4	O	0.533396	-0.267168	0.929835
O5	O	0.533398	0.075574	0.738236
O6	O	0.533398	-0.267169	1.080973
O7	O	0.533396	-0.075565	0.738235
O8	O	0.351547	0.075566	1.080931
O9	O	0.715249	-0.267162	0.738278
O10	O	0.473553	-0.056396	1.061787
O11	O	0.473553	0.056397	0.948995
O12	O	0.593244	-0.169185	0.949023
O13	O	0.593244	-0.056392	0.836231
Zr14	Zr	0.533402	0.120525	1.125930
Zr15	Zr	0.533400	-0.120523	1.125929
Zr16	Zr	0.533399	0.120527	0.884882
Zr17	Zr	0.661295	-0.120518	0.884912
Zr18	Zr	0.405504	0.120522	1.125899
O19	O	0.635062	0.075572	1.081000
O20	O	0.635059	-0.267167	1.080998
O21	O	0.635059	0.075576	0.738261
O22	O	0.431743	0.267167	1.272552
O23	O	0.431740	-0.075572	1.272551
O24	O	0.431739	0.267171	0.929813
O25	O	0.533401	-0.075570	1.272575
O26	O	0.533403	0.267171	1.080976
O27	O	0.533401	0.267173	0.929838
O28	O	0.533403	0.075568	1.272576
O29	O	0.715250	-0.267164	0.929879
O30	O	0.351549	0.267167	1.080932
O31	O	0.351550	0.267165	1.272533
O32	O	0.351549	0.075564	1.272532
O33	O	0.715250	-0.075561	0.738279
O34	O	0.715252	-0.075562	0.929880
O35	O	0.473555	0.169189	1.061788
O36	O	0.473555	0.056395	1.174580
O37	O	0.593246	-0.056394	1.061816
O38	O	0.593246	0.056400	0.949024
C39	C	0.373419	-0.000002	1.005367
C40	C	0.319123	-0.000003	1.005354
C41	C	0.533397	0.000005	0.703891
C42	C	0.533396	0.000006	0.601560
C43	C	0.533402	0.301516	1.005407
C44	C	0.533403	0.403847	1.005408
C45	C	-0.017619	-0.058866	1.064313
C46	C	-0.068643	-0.058863	1.064323
O47	O	-0.095049	-0.108901	1.114430
N48	N	-0.094159	0.000012	1.005446
C49	C	-0.068654	0.058898	0.946564
O50	O	-0.095043	0.108976	0.896486
C51	C	-0.017634	0.058900	0.946561
C52	C	0.007884	0.000012	1.005433
C53	C	0.007899	-0.117748	1.123181
C54	C	0.058920	-0.117752	1.123169
C55	C	0.084424	-0.058875	1.064289
C56	C	0.058906	0.000008	1.005421
C57	C	0.007867	0.117791	0.887686
C58	C	0.058889	0.117790	0.887689
C59	C	0.084408	0.058902	0.946561
C60	C	0.135430	0.058881	0.946528
N61	N	0.160946	0.000006	1.005406
C62	C	0.135443	-0.058872	1.064286
C63	C	-0.175799	0.058889	0.946577
C64	C	-0.226814	0.058880	0.946572
C65	C	-0.226800	-0.058879	1.064334
C66	C	-0.175781	-0.058876	1.064331
C67	C	-0.150283	0.000014	1.005454
C68	C	0.242592	-0.058878	1.064255
C69	C	0.293620	-0.058881	1.064234
C70	C	0.293599	0.058882	0.946478
C71	C	0.242579	0.058881	0.946494
C72	C	0.217074	-0.000001	1.005391
O73	O	0.161867	0.108898	0.896451
O74	O	0.161832	-0.108930	1.114368
C75	C	0.693380	0.000005	1.005445
C76	C	0.747676	0.000007	1.005458
C77	C	0.533397	-0.301513	1.005404
C78	C	0.533396	-0.403844	1.005404
C79	C	0.595880	0.393051	0.946548
C80	C	0.595876	0.489206	0.946542
C81	C	0.470915	0.606950	1.064265
C82	C	0.470918	0.510797	1.064264
C83	C	0.470923	0.058876	0.516182
C84	C	0.470919	0.058877	0.612338
C85	C	0.595881	-0.058879	0.494618
C86	C	0.595884	-0.058886	0.398465
C87	C	0.533402	-0.000001	1.306920
C88	C	0.533403	-0.000002	1.409251
C89	C	0.373422	-0.000005	1.306881
C90	C	0.319127	-0.000007	1.409199
C91	C	0.373422	0.301513	1.005368
C92	C	0.319127	0.403843	1.005356
C93	C	0.373425	0.301510	1.306883
C94	C	0.319131	0.403839	1.409201
C95	C	0.693374	-0.301506	0.703929
C96	C	0.747668	-0.403835	0.601610
C97	C	0.693377	0.000008	0.703930
C98	C	0.747672	0.000011	0.601612
C99	C	0.693377	-0.301509	1.005443
C100	C	0.747672	-0.403839	1.005456
C101	C	0.293628	-0.058894	1.398372
C102	C	0.242620	-0.058919	1.494501
C103	C	0.217107	-0.000049	1.601457
C104	C	0.242610	0.058840	1.612282
C105	C	0.293622	0.058857	1.516153
C106	C	0.293630	0.510784	1.064227
C107	C	0.242621	0.606943	1.064211
C108	C	0.217107	0.596159	1.005329
C109	C	0.242608	0.489206	0.946451
C110	C	0.293619	0.393049	0.946461
C111	C	0.293634	0.393016	1.516137
C112	C	0.242626	0.489156	1.612286
C113	C	0.217112	0.596117	1.601495
C114	C	0.242614	0.606937	1.494548
C115	C	0.293625	0.510799	1.398402
C116	C	0.773172	-0.393013	0.494674
C117	C	0.824195	-0.489152	0.398526
C118	C	0.849711	-0.596113	0.409316
C119	C	0.824206	-0.606934	0.516264
C120	C	0.773187	-0.510795	0.612410
C121	C	0.773176	0.058888	0.612440
C122	C	0.824199	0.058886	0.516310
C123	C	0.849713	0.000013	0.409355
C124	C	0.824207	-0.058872	0.398530
C125	C	0.773189	-0.058876	0.494658
C126	C	0.773171	-0.393018	1.064348
C127	C	0.824180	-0.489159	1.064382
C128	C	0.849693	-0.596119	1.005516
C129	C	0.824189	-0.606938	0.946622
C130	C	0.773178	-0.510798	0.946595
H131	H	0.314397	-0.106838	1.112174
H132	H	0.752406	-0.305934	1.112284
C133	C	0.852228	-0.477233	1.129167
N134	N	0.873353	-0.468247	1.177962
H135	H	0.646751	0.480406	0.898610
C136	C	0.745123	0.123652	0.730082
N137	N	0.724000	0.172429	0.818689
C138	C	0.852240	0.123676	0.528243
N139	N	0.873358	0.172479	0.537234
C140	C	0.321691	0.522675	1.128998
N141	N	0.342827	0.531641	1.177781
H142	H	0.891256	0.000025	0.331090
H143	H	0.646759	0.305972	0.898620
C144	C	0.402185	0.123650	0.729962
N145	N	0.350412	0.172440	0.818559
C146	C	-0.020238	0.182660	0.823008
N147	N	-0.041422	0.231556	0.774320
H148	H	0.175569	-0.000071	1.679721
H149	H	-0.247579	0.106818	0.898618
H150	H	0.221830	0.106770	1.699378
H151	H	0.646750	-0.106819	0.485850
H152	H	0.079693	-0.165700	1.171111
C153	C	0.160986	0.701946	1.005341
N154	N	0.118712	0.781629	1.005360
H155	H	0.844989	-0.106805	0.311433
C156	C	0.745132	-0.123635	0.482729
N157	N	0.724001	-0.172412	0.473735
H158	H	0.891230	-0.674393	1.005547
H159	H	-0.012863	-0.165692	1.171134
H160	H	0.646766	-0.106838	0.311391
H161	H	-0.155007	-0.106827	1.112270
H162	H	0.752422	-0.519625	0.898633
H163	H	0.844970	-0.694038	0.898694
H164	H	0.844953	-0.480320	0.311454
C165	C	0.214550	-0.123661	1.129035
N166	N	0.193434	-0.172464	1.177818
C167	C	0.321687	-0.123668	1.280729
N168	N	0.342820	-0.172465	1.192123
C169	C	0.214577	0.477228	1.729917
N170	N	0.193450	0.468241	1.818514
H171	H	0.314378	0.519626	1.311333
C172	C	-0.147754	0.123674	0.881801
N173	N	-0.126636	0.172475	0.833017
C174	C	-0.254869	-0.123636	1.129113
N175	N	-0.276012	-0.172407	1.177903
C176	C	0.086935	0.182574	0.822917
N177	N	0.108059	0.231366	0.774128
C178	C	0.321693	0.275367	1.528034
N179	N	0.342827	0.186757	1.537005
C180	C	0.214569	-0.123692	1.482568
N181	N	0.193441	-0.172476	1.473577
C182	C	0.905829	-0.701859	0.303541
N183	N	0.948094	-0.781502	0.223867
C184	C	0.214531	0.123615	0.881687
N185	N	0.193412	0.172370	0.832868
H186	H	0.314375	0.106815	0.898535
H187	H	0.420042	0.694038	1.112186
C188	C	0.745131	-0.522719	0.730038
N189	N	0.724000	-0.531708	0.818634
H190	H	0.420040	0.519596	1.112195
H191	H	0.420047	0.106820	0.524971
H192	H	0.175576	0.674390	1.679793
H193	H	0.314376	0.106817	1.524985
H194	H	0.844988	-0.694033	0.525036
H195	H	0.221864	0.694019	1.112160
H196	H	0.221826	0.480441	0.898511
H197	H	0.314372	0.305976	0.898525
H198	H	0.752399	-0.305928	0.485867
H199	H	0.221834	0.694038	1.485779
