data_functionalizedCrystal
_audit_creation_method	'MofGen! by Chris Wilmer'
_symmetry_space_group_name_H-M	'P1'
_symmetry_Int_Tables_number	1
_symmetry_cell_setting	triclinic
loop_
_symmetry_equiv_pos_as_xyz
  x,y,z
_cell_length_a	14.044220
_cell_length_b	14.044220
_cell_length_c	13.101039
_cell_angle_alpha	86.332523
_cell_angle_beta	86.340132
_cell_angle_gamma	86.811122
loop_
_atom_site_label
_atom_site_type_symbol
_atom_site_fract_x
_atom_site_fract_y
_atom_site_fract_z
O1	O	1.281968	-0.225348	-0.085109
O2	O	1.615302	0.107985	0.248224
O3	O	1.948635	0.441318	0.581558
O4	O	1.005298	-0.217041	-0.085135
O5	O	1.338632	0.116292	0.248198
O6	O	1.671965	0.449626	0.581532
O7	O	1.139480	-0.082860	-0.085112
O8	O	1.472813	0.250474	0.248221
O9	O	1.806147	0.583807	0.581554
O10	O	1.147787	-0.359530	-0.085132
O11	O	1.481120	-0.026197	0.248202
O12	O	1.814454	0.307137	0.581535
O13	O	1.129854	-0.092504	0.085316
O14	O	1.463188	0.240829	0.418649
O15	O	1.796521	0.574162	0.751983
O16	O	0.995673	-0.226686	0.085293
O17	O	1.329006	0.106647	0.418627
O18	O	1.662339	0.439981	0.751960
O19	O	1.272343	-0.234993	0.085319
O20	O	1.605676	0.098340	0.418652
O21	O	1.939009	0.431674	0.751986
Zn22	Zn	1.132479	-0.232371	0.112365
Zn23	Zn	1.465813	0.100963	0.445699
Zn24	Zn	1.799146	0.434296	0.779032
Zn25	Zn	1.145162	-0.219663	-0.112181
Zn26	Zn	1.478495	0.113670	0.221152
Zn27	Zn	1.811828	0.447003	0.554485
O28	O	1.138161	-0.369175	0.085296
O29	O	1.471494	-0.035841	0.418630
O30	O	1.804828	0.297492	0.751963
C31	C	0.964864	-0.218228	0.000076
C32	C	1.298197	0.115106	0.333409
C33	C	1.631531	0.448439	0.666743
C34	C	0.858722	-0.207383	0.000066
C35	C	1.192055	0.125951	0.333400
C36	C	1.525388	0.459284	0.666733
C37	C	1.131031	-0.052060	0.000102
C38	C	1.464365	0.281273	0.333435
C39	C	1.797698	0.614607	0.666769
C40	C	1.120187	0.054083	0.000102
C41	C	1.453520	0.387416	0.333435
C42	C	1.786854	0.720749	0.666769
C43	C	0.664383	-0.187558	0.000088
C44	C	0.997716	0.145776	0.333421
C45	C	1.331049	0.479109	0.666755
C46	C	0.613253	-0.264472	0.000087
C47	C	0.946586	0.068861	0.333420
C48	C	1.279920	0.402195	0.666754
C49	C	0.505116	-0.253441	0.000099
C50	C	0.838449	0.079892	0.333432
C51	C	1.171783	0.413226	0.666766
C52	C	0.772529	-0.198587	0.000076
C53	C	1.105863	0.134746	0.333409
C54	C	1.439196	0.468080	0.666743
C55	C	1.312777	-0.233806	0.000106
C56	C	1.646111	0.099527	0.333439
C57	C	1.979444	0.432860	0.666773
C58	C	1.418920	-0.244651	0.000109
C59	C	1.752253	0.088682	0.333442
C60	C	2.085587	0.422016	0.666775
C61	C	1.146610	-0.399974	0.000080
C62	C	1.479943	-0.066641	0.333413
C63	C	1.813276	0.266693	0.666747
C64	C	1.157455	-0.506116	0.000073
C65	C	1.490788	-0.172783	0.333406
C66	C	1.824121	0.160550	0.666740
N67	N	1.123831	-0.241043	0.265612
N68	N	1.457164	0.092290	0.598946
N69	N	1.790497	0.425623	0.932279
C70	C	1.100362	0.248421	0.000086
C71	C	1.433695	0.581755	0.333419
C72	C	1.767028	0.915088	0.666752
C73	C	1.177276	0.299551	0.000090
C74	C	1.510609	0.632884	0.333423
C75	C	1.843942	0.966218	0.666756
C76	C	1.166245	0.407688	0.000080
C77	C	1.499578	0.741021	0.333414
C78	C	1.832911	1.074354	0.666747
C79	C	1.111391	0.140275	0.000095
C80	C	1.444725	0.473608	0.333428
C81	C	1.778058	0.806941	0.666761
N82	N	1.153817	-0.210984	-0.265428
N83	N	1.487151	0.122349	0.067905
N84	N	1.820484	0.455683	0.401238
C85	C	1.112065	-0.252851	0.474653
C86	C	1.445398	0.080482	0.807986
C87	C	1.778731	0.413815	1.141320
C88	C	1.165580	-0.199179	0.525538
C89	C	1.498914	0.134154	0.858871
C90	C	1.832247	0.467488	1.192204
C91	C	1.159034	-0.205749	0.641855
C92	C	1.492367	0.127584	0.975188
C93	C	1.825700	0.460918	1.308522
C94	C	1.118610	-0.246282	0.358325
C95	C	1.451944	0.087051	0.691658
C96	C	1.785277	0.420384	1.024992
H97	H	0.626945	-0.113431	0.000099
H98	H	0.960278	0.219903	0.333432
H99	H	1.293612	0.553236	0.666766
H100	H	1.216314	-0.148295	0.481744
H101	H	1.549647	0.185038	0.815077
H102	H	1.882981	0.518372	1.148411
H103	H	1.061336	-0.303733	0.518442
H104	H	1.394669	0.029600	0.851775
H105	H	1.728002	0.362934	1.185108
O106	O	0.658066	-0.352840	0.000004
O107	O	0.991399	-0.019507	0.333337
O108	O	1.324732	0.313826	0.666670
C109	C	0.757624	-0.344329	0.000008
C110	C	1.090958	-0.010995	0.333341
C111	C	1.424291	0.322338	0.666674
H112	H	0.776400	-0.269932	-0.032228
H113	H	1.109734	0.063401	0.301106
H114	H	1.443067	0.396735	0.634439
H115	H	0.795826	-0.400261	-0.049509
H116	H	1.129159	-0.066928	0.283824
H117	H	1.462492	0.266405	0.617158
H118	H	0.781152	-0.355910	0.081760
H119	H	1.114486	-0.022577	0.415094
H120	H	1.447819	0.310757	0.748427
O121	O	1.265645	0.254739	0.000153
O122	O	1.598979	0.588073	0.333487
O123	O	1.932312	0.921406	0.666820
C124	C	1.257134	0.155182	0.000135
C125	C	1.590468	0.488515	0.333469
C126	C	1.923801	0.821848	0.666802
H127	H	1.182749	0.136395	0.032388
H128	H	1.516082	0.469728	0.365721
H129	H	1.849416	0.803062	0.699055
H130	H	1.313087	0.116967	0.049631
H131	H	1.646420	0.450300	0.382964
H132	H	1.979753	0.783634	0.716297
H133	H	1.268686	0.131677	-0.081624
H134	H	1.602019	0.465010	0.251710
H135	H	1.935352	0.798344	0.585043
O136	O	1.011992	0.293226	0.000127
O137	O	1.345326	0.626559	0.333460
O138	O	1.678659	0.959893	0.666794
C139	C	1.020515	0.392785	0.000097
C140	C	1.353849	0.726119	0.333430
C141	C	1.687182	1.059452	0.666764
H142	H	1.091259	0.407922	0.032360
H143	H	1.424592	0.741255	0.365693
H144	H	1.757926	1.074588	0.699026
H145	H	0.958976	0.425416	0.049577
H146	H	1.292309	0.758749	0.382911
H147	H	1.625643	1.092082	0.716244
H148	H	1.018202	0.425524	-0.081667
H149	H	1.351536	0.758858	0.251666
H150	H	1.684869	1.092191	0.585000
