data_functionalizedCrystal
_audit_creation_method	'MofGen! by Chris Wilmer'
_symmetry_space_group_name_H-M	'P1'
_symmetry_Int_Tables_number	1
_symmetry_cell_setting	triclinic
loop_
_symmetry_equiv_pos_as_xyz
  x,y,z
_cell_length_a	17.019383
_cell_length_b	17.000371
_cell_length_c	12.503572
_cell_angle_alpha	93.243058
_cell_angle_beta	82.619237
_cell_angle_gamma	79.508757
loop_
_atom_site_label
_atom_site_type_symbol
_atom_site_fract_x
_atom_site_fract_y
_atom_site_fract_z
O1	O	1.049784	0.091853	-0.186325
O2	O	1.549784	0.591853	0.313675
O3	O	0.818059	0.105877	-0.164915
O4	O	1.318059	0.605877	0.335085
O5	O	0.948309	-0.017085	-0.176942
O6	O	1.448309	0.482915	0.323058
O7	O	0.919534	0.214815	-0.174298
O8	O	1.419534	0.714815	0.325702
O9	O	0.938513	-0.007822	0.002605
O10	O	1.438513	0.492178	0.502605
O11	O	0.808262	0.115140	0.014631
O12	O	1.308262	0.615140	0.514631
O13	O	1.039987	0.101116	-0.006779
O14	O	1.539987	0.601116	0.493221
Cu15	Cu	0.923230	0.108973	0.020320
Cu16	Cu	1.423230	0.608973	0.520320
Cu17	Cu	0.934816	0.098019	-0.192014
Cu18	Cu	1.434816	0.598019	0.307986
O19	O	0.909737	0.224078	0.005248
O20	O	1.409737	0.724078	0.505248
C21	C	0.783657	0.110157	-0.072416
C22	C	1.283657	0.610157	0.427584
C23	C	0.695748	0.109101	-0.064293
C24	C	1.195748	0.609101	0.435707
C25	C	0.659780	0.103558	-0.158340
C26	C	1.159780	0.603558	0.341660
C27	C	0.577176	0.102579	-0.150692
C28	C	1.077176	0.602579	0.349308
C29	C	0.530543	0.107137	-0.048996
C30	C	1.030543	0.607137	0.451004
C31	C	0.566516	0.112683	0.045057
C32	C	1.066516	0.612683	0.545057
C33	C	0.649117	0.113667	0.037409
C34	C	1.149117	0.613667	0.537409
C35	C	0.280873	0.104422	-0.021005
C36	C	0.780873	0.604422	0.478995
C37	C	0.198267	0.103435	-0.013363
C38	C	0.698267	0.603435	0.486637
C39	C	0.208933	0.093332	-0.209114
C40	C	0.708933	0.593332	0.290886
C41	C	0.291536	0.094312	-0.216754
C42	C	0.791536	0.594312	0.283246
C43	C	0.327501	0.099862	-0.122700
C44	C	0.827501	0.599862	0.377300
C45	C	0.446109	0.106134	-0.041176
C46	C	0.946109	0.606134	0.458824
C47	C	0.411932	0.100871	-0.130521
C48	C	0.911932	0.600871	0.369479
C49	C	0.944957	-0.042117	-0.087312
C50	C	1.444957	0.457883	0.412688
C51	C	0.949553	-0.130502	-0.087738
C52	C	1.449553	0.369498	0.412262
C53	C	0.878824	-0.162114	-0.081207
C54	C	1.378824	0.337886	0.418793
C55	C	0.883148	-0.245162	-0.081604
C56	C	1.383148	0.254838	0.418396
C57	C	0.958200	-0.296597	-0.088538
C58	C	1.458200	0.203403	0.411462
C59	C	1.028934	-0.264980	-0.095066
C60	C	1.528934	0.235020	0.404934
C61	C	1.024609	-0.181933	-0.094662
C62	C	1.524609	0.318067	0.405338
C63	C	0.974903	-0.547841	-0.090089
C64	C	1.474903	-0.047841	0.409911
C65	C	0.979222	-0.630893	-0.090496
C66	C	1.479222	-0.130893	0.409504
C67	C	0.833435	-0.611070	-0.077032
C68	C	1.333435	-0.111070	0.422968
C69	C	0.829118	-0.528023	-0.076635
C70	C	1.329118	-0.028023	0.423365
C71	C	0.899851	-0.496412	-0.083157
C72	C	1.399851	0.003588	0.416843
C73	C	0.962621	-0.381486	-0.088947
C74	C	1.462621	0.118514	0.411053
C75	C	0.895429	-0.411524	-0.082740
C76	C	1.395429	0.088476	0.417260
C77	C	1.074389	0.096836	-0.099280
C78	C	1.574389	0.596836	0.400720
C79	C	1.162299	0.097892	-0.107410
C80	C	1.662299	0.597892	0.392590
C81	C	0.913090	0.249109	-0.084384
C82	C	1.413090	0.749109	0.415616
C83	C	0.908494	0.337494	-0.083966
C84	C	1.408494	0.837494	0.416034
N85	N	0.915087	0.116677	0.169664
N86	N	1.415087	0.616677	0.669664
N87	N	0.942966	0.090309	-0.341359
N88	N	1.442966	0.590309	0.158641
C89	C	0.903108	0.128017	0.389886
C90	C	1.403108	0.628017	0.889886
C91	C	0.954942	0.078972	0.438427
C92	C	1.454942	0.578972	0.938427
C93	C	0.948277	0.085281	0.560965
C94	C	1.448277	0.585281	1.060965
C95	C	0.909772	0.121709	0.267336
C96	C	1.409772	0.621709	0.767336
H97	H	0.160295	0.107169	0.069454
H98	H	0.660295	0.607169	0.569454
H99	H	0.528539	0.116399	0.127861
H100	H	1.028539	0.616399	0.627861
H101	H	0.853730	0.174742	0.440353
H102	H	1.353730	0.674742	0.940353
O103	O	0.683939	0.119016	0.128873
O104	O	1.183939	0.619016	0.628873
C105	C	0.625065	0.122847	0.220274
C106	C	1.125065	0.622847	0.720274
H107	H	0.572783	0.095452	0.196571
H108	H	1.072783	0.595452	0.696571
H109	H	0.652927	0.088001	0.285805
H110	H	1.152927	0.588001	0.785805
H111	H	0.601880	0.188184	0.252355
H112	H	1.101880	0.688184	0.752355
O113	O	0.457290	0.096554	-0.229242
O114	O	0.957290	0.596554	0.270758
C115	C	0.491596	0.165802	-0.238263
C116	C	0.991596	0.665802	0.261737
H117	H	0.494740	0.193333	-0.154009
H118	H	0.994740	0.693333	0.345991
H119	H	0.555040	0.148845	-0.285337
H120	H	1.055040	0.648845	0.214663
H121	H	0.452751	0.211223	-0.282738
H122	H	0.952751	0.711223	0.217262
O123	O	0.400801	0.110414	0.057580
O124	O	0.900801	0.610414	0.557580
C125	C	0.366458	0.041187	0.066571
C126	C	0.866458	0.541187	0.566571
H127	H	0.404008	-0.009589	0.007843
H128	H	0.904008	0.490411	0.507843
H129	H	0.365420	0.022489	0.152795
H130	H	0.865420	0.522489	0.652795
H131	H	0.302178	0.054680	0.046346
H132	H	0.802178	0.554680	0.546346
O133	O	0.705015	0.099271	-0.257150
O134	O	1.205015	0.599271	0.242850
C135	C	0.674282	0.164921	-0.313560
C136	C	1.174282	0.664921	0.186440
H137	H	0.638828	0.215809	-0.253300
H138	H	1.138828	0.715809	0.246700
H139	H	0.726396	0.186432	-0.362558
H140	H	1.226396	0.686432	0.137442
H141	H	0.632774	0.145609	-0.370434
H142	H	1.132774	0.645609	0.129566
O143	O	1.013698	0.023151	0.378071
O144	O	1.513698	0.523151	0.878071
C145	C	1.007250	0.029077	0.267397
C146	C	1.507250	0.529077	0.767397
H147	H	0.974323	0.091863	0.255141
H148	H	1.474323	0.591863	0.755141
H149	H	1.070188	0.017353	0.218631
H150	H	1.570188	0.517353	0.718631
H151	H	0.972027	-0.017191	0.238923
H152	H	1.472027	0.482809	0.738923
H153	H	0.329501	0.090594	-0.299565
H154	H	0.829501	0.590594	0.200435
O155	O	0.542166	0.097087	-0.241972
O156	O	1.042166	0.597087	0.258028
C157	C	0.508494	0.027236	-0.244678
C158	C	1.008494	0.527236	0.255322
H159	H	0.496086	0.008483	-0.158975
H160	H	0.996086	0.508483	0.341025
H161	H	0.449566	0.039919	-0.280435
H162	H	0.949566	0.539919	0.219565
H163	H	0.552602	-0.023176	-0.296810
H164	H	1.052602	0.476824	0.203190
H165	H	0.817709	-0.120241	-0.075566
H166	H	1.317709	0.379759	0.424434
O167	O	0.814366	-0.275740	-0.075301
O168	O	1.314366	0.224260	0.424699
C169	C	0.747195	-0.212534	-0.069073
C170	C	1.247195	0.287466	0.430927
H171	H	0.767339	-0.157994	-0.104756
H172	H	1.267339	0.342006	0.395244
H173	H	0.700309	-0.232285	-0.116606
H174	H	1.200309	0.267715	0.383394
H175	H	0.719622	-0.196212	0.019177
H176	H	1.219622	0.303788	0.519177
H177	H	0.768002	-0.486150	-0.070991
H178	H	1.268002	0.013850	0.429009
H179	H	0.775848	-0.636817	-0.071721
H180	H	1.275848	-0.136817	0.428279
O181	O	0.315816	0.109942	0.070324
O182	O	0.815816	0.609942	0.570324
C183	C	0.349519	0.179773	0.073021
C184	C	0.849519	0.679773	0.573021
H185	H	0.318022	0.224823	0.020679
H186	H	0.818022	0.724823	0.520679
H187	H	0.341119	0.207395	0.159927
H188	H	0.841119	0.707395	0.659927
H189	H	0.416668	0.163570	0.040642
H190	H	0.916668	0.663570	0.540642
O191	O	0.174062	0.088055	-0.300545
O192	O	0.674062	0.588055	0.199455
C193	C	0.183697	0.154208	-0.360667
C194	C	0.683697	0.654208	0.139333
H195	H	0.237564	0.179349	-0.337965
H196	H	0.737564	0.679349	0.162035
H197	H	0.194496	0.134116	-0.450752
H198	H	0.694496	0.634116	0.049248
H199	H	0.126824	0.202651	-0.341902
H200	H	0.626824	0.702651	0.158098
O201	O	1.052196	-0.680744	-0.097191
O202	O	1.552196	-0.180744	0.402809
C203	C	1.113702	-0.635038	-0.102889
C204	C	1.613702	-0.135038	0.397111
H205	H	1.087400	-0.571183	-0.066628
H206	H	1.587400	-0.071183	0.433372
H207	H	1.163086	-0.663285	-0.055591
H208	H	1.663086	-0.163285	0.444409
H209	H	1.140356	-0.633686	-0.191053
H210	H	1.640356	-0.133686	0.308947
H211	H	1.090043	-0.306864	-0.100705
H212	H	1.590043	0.193136	0.399295
O213	O	1.043576	-0.517090	-0.096243
O214	O	1.543576	-0.017090	0.403757
C215	C	1.040359	-0.464840	-0.003437
C216	C	1.540359	0.035160	0.496563
H217	H	0.996755	-0.480896	0.065260
H218	H	1.496755	0.019104	0.565260
H219	H	1.103078	-0.471054	0.021819
H220	H	1.603078	0.028946	0.521819
H221	H	1.018645	-0.400321	-0.022342
H222	H	1.518645	0.099679	0.477658
O223	O	1.093396	-0.151357	-0.101067
O224	O	1.593396	0.348643	0.398933
C225	C	1.160567	-0.214560	-0.107251
C226	C	1.660567	0.285440	0.392749
H227	H	1.144135	-0.272605	-0.139556
H228	H	1.644135	0.227395	0.360444
H229	H	1.213141	-0.200180	-0.163972
H230	H	1.713141	0.299820	0.336028
H231	H	1.178740	-0.222000	-0.023227
H232	H	1.678740	0.278000	0.476773
O233	O	0.822487	-0.361653	-0.076146
O234	O	1.322487	0.138347	0.423854
C235	C	0.784286	-0.380691	-0.165158
C236	C	1.284286	0.119309	0.334842
H237	H	0.809838	-0.445406	-0.198365
H238	H	1.309838	0.054594	0.301635
H239	H	0.716608	-0.373382	-0.138107
H240	H	1.216608	0.126618	0.361893
H241	H	0.795522	-0.338683	-0.230978
H242	H	1.295522	0.161317	0.269022
O243	O	1.035517	-0.431496	-0.095881
O244	O	1.535517	0.068504	0.404119
C245	C	1.047434	-0.484932	-0.189489
C246	C	1.547434	0.015068	0.310511
H247	H	1.008314	-0.457626	-0.250538
H248	H	1.508314	0.042374	0.249462
H249	H	1.113654	-0.496257	-0.226667
H250	H	1.613654	0.003743	0.273333
H251	H	1.029971	-0.544121	-0.166957
H252	H	1.529971	-0.044121	0.333043
