data_functionalizedCrystal
_audit_creation_method	'MofGen! by Chris Wilmer'
_symmetry_space_group_name_H-M	'P1'
_symmetry_Int_Tables_number	1
_symmetry_cell_setting	triclinic
loop_
_symmetry_equiv_pos_as_xyz
  x,y,z
_cell_length_a	11.169417
_cell_length_b	12.759400
_cell_length_c	11.169409
_cell_angle_alpha	89.967324
_cell_angle_beta	89.980487
_cell_angle_gamma	90.014415
loop_
_atom_site_label
_atom_site_type_symbol
_atom_site_fract_x
_atom_site_fract_y
_atom_site_fract_z
Zn1	Zn	1.834939	-0.418146	-0.678530
Zn2	Zn	2.334939	0.081854	-0.178530
Zn3	Zn	1.834818	-0.593872	-0.477846
Zn4	Zn	2.334818	-0.093872	0.022154
Zn5	Zn	1.634225	-0.418211	-0.477865
Zn6	Zn	2.134225	0.081789	0.022135
Zn7	Zn	1.634222	-0.593788	-0.678492
Zn8	Zn	2.134222	-0.093788	-0.178492
O9	O	1.734551	-0.506004	-0.578183
O10	O	2.234551	-0.006004	-0.078183
O11	O	2.002872	-0.441465	-0.651917
O12	O	2.502872	0.058535	-0.151917
O13	O	1.808160	-0.570633	-0.309898
O14	O	2.308160	-0.070633	0.190102
O15	O	1.660901	-0.271182	-0.504508
O16	O	2.160901	0.228818	-0.004508
O17	O	2.002784	-0.570570	-0.504475
O18	O	2.502784	-0.070570	-0.004475
O19	O	1.808365	-0.271134	-0.651936
O20	O	2.308365	0.228866	-0.151936
O21	O	1.660784	-0.441576	-0.309913
O22	O	2.160784	0.058424	0.190087
O23	O	1.466275	-0.441494	-0.504471
O24	O	1.966275	0.058506	-0.004471
O25	O	1.660897	-0.570426	-0.846447
O26	O	2.160897	-0.070426	-0.346447
O27	O	1.466273	-0.570489	-0.651870
O28	O	1.966273	-0.070489	-0.151870
O29	O	1.808363	-0.441383	-0.846475
O30	O	2.308363	0.058617	-0.346475
O31	O	1.808157	-0.740882	-0.504437
O32	O	2.308157	-0.240882	-0.004437
O33	O	1.660780	-0.740820	-0.651851
O34	O	2.160780	-0.240820	-0.151851
C35	C	1.422726	-0.505990	-0.578169
C36	C	1.922726	-0.005990	-0.078169
C37	C	1.289326	-0.506009	-0.578192
C38	C	1.789326	-0.006009	-0.078192
C39	C	1.734488	-0.778972	-0.578164
C40	C	2.234488	-0.278972	-0.078164
C41	C	1.734571	-0.895748	-0.578196
C42	C	2.234571	-0.395748	-0.078196
C43	C	1.811317	-0.950506	-0.655025
C44	C	2.311317	-0.450506	-0.155025
C45	C	1.811373	-1.060230	-0.655054
C46	C	2.311373	-0.560230	-0.155054
C47	C	1.657933	-1.060429	-0.501416
C48	C	2.157933	-0.560429	-0.001416
C49	C	1.657872	-0.950707	-0.501394
C50	C	2.157872	-0.450707	-0.001394
C51	C	1.888016	-0.895547	-0.731827
C52	C	2.388016	-0.395547	-0.231827
C53	C	1.964769	-0.950304	-0.808661
C54	C	2.464769	-0.450304	-0.308661
C55	C	1.964825	-1.060028	-0.808690
C56	C	2.464825	-0.560028	-0.308690
C57	C	1.888127	-1.114995	-0.731885
C58	C	2.388127	-0.614995	-0.231885
C59	C	2.047593	-0.506019	-0.578198
C60	C	2.547593	-0.006019	-0.078198
C61	C	2.180993	-0.506026	-0.578204
C62	C	2.680993	-0.006026	-0.078204
C63	C	1.734643	-0.505888	-0.891226
C64	C	2.234643	-0.005888	-0.391226
C65	C	1.734682	-0.505838	-1.024626
C66	C	2.234682	-0.005838	-0.524626
C67	C	1.734647	-0.231971	-0.578228
C68	C	2.234647	0.268029	-0.078228
C69	C	1.734688	-0.115194	-0.578248
C70	C	2.234688	0.384806	-0.078248
C71	C	1.734528	-0.506045	-0.266358
C72	C	2.234528	-0.006045	0.233642
C73	C	1.734721	-0.505798	-0.132959
C74	C	2.234721	-0.005798	0.367041
H75	H	2.027206	-0.905545	-0.871199
H76	H	2.527206	-0.405545	-0.371199
N77	N	2.047564	-1.119091	-0.891592
N78	N	2.547564	-0.619091	-0.391592
H79	H	2.096129	-1.067622	-0.940249
H80	H	2.596129	-0.567622	-0.440249
H81	H	2.103163	-1.164629	-0.842823
H82	H	2.603163	-0.664629	-0.342823
N83	N	1.888173	-1.233340	-0.731926
N84	N	2.388173	-0.733340	-0.231926
H85	H	1.948425	-1.259691	-0.792255
H86	H	2.448425	-0.759691	-0.292255
H87	H	1.910251	-1.259733	-0.649579
H88	H	2.410251	-0.759733	-0.149579
H89	H	1.595377	-0.906123	-0.438834
H90	H	2.095377	-0.406123	0.061166
H91	H	1.887981	-0.806204	-0.731809
H92	H	2.387981	-0.306204	-0.231809
N93	N	1.575223	-1.119709	-0.418574
N94	N	2.075223	-0.619709	0.081426
H95	H	1.586911	-1.197526	-0.430242
H96	H	2.086911	-0.697526	0.069758
H97	H	1.593942	-1.100571	-0.332873
H98	H	2.093942	-0.600571	0.167127
