data_functionalizedCrystal
_audit_creation_method	'MofGen! by Chris Wilmer'
_symmetry_space_group_name_H-M	'P1'
_symmetry_Int_Tables_number	1
_symmetry_cell_setting	triclinic
loop_
_symmetry_equiv_pos_as_xyz
  x,y,z
_cell_length_a	14.853567
_cell_length_b	17.699083
_cell_length_c	16.776229
_cell_angle_alpha	90.007545
_cell_angle_beta	90.004166
_cell_angle_gamma	83.458973
loop_
_atom_site_label
_atom_site_type_symbol
_atom_site_fract_x
_atom_site_fract_y
_atom_site_fract_z
O1	O	-1.196004	-0.098817	-0.066235
O2	O	-0.933501	-0.110588	-0.066249
O3	O	-1.072169	0.005468	-0.066234
O4	O	-1.057336	-0.214872	-0.066249
O5	O	-1.072151	0.005475	0.066342
O6	O	-0.933483	-0.110581	0.066328
O7	O	-1.195986	-0.098810	0.066342
Zn8	Zn	-1.064731	-0.104694	0.087384
Zn9	Zn	-1.064756	-0.104704	-0.087291
O10	O	-1.057318	-0.214865	0.066327
C11	C	-0.899905	-0.110051	0.000038
C12	C	-0.799828	-0.108453	0.000033
C13	C	-1.071628	0.033670	0.000054
C14	C	-1.070034	0.117692	0.000054
C15	C	-1.229582	-0.099347	0.000053
C16	C	-1.329659	-0.100945	0.000053
C17	C	-0.387572	-0.032757	0.000056
C18	C	-0.365784	-0.170634	0.000046
C19	C	-0.459812	-0.172136	0.000043
C20	C	-0.517725	-0.103948	0.000045
C21	C	-0.481610	-0.034258	0.000051
C22	C	-0.495934	-0.241826	0.000030
C23	C	-0.589968	-0.243332	0.000026
C24	C	-0.647883	-0.175143	0.000034
C25	C	-0.611762	-0.105449	0.000040
C26	C	-0.669675	-0.037261	0.000043
C27	C	-0.633556	0.032433	0.000055
C28	C	-0.539524	0.033931	0.000059
C29	C	-0.741915	-0.176641	0.000030
C30	C	-0.763712	-0.038762	0.000038
C31	C	-1.057859	-0.243067	0.000037
C32	C	-1.059453	-0.327089	0.000032
N33	N	-1.064721	-0.104687	0.206595
C34	C	-1.151429	0.166101	0.000060
C35	C	-1.149925	0.245049	0.000052
C36	C	-1.067026	0.275585	0.000046
C37	C	-0.985625	0.227169	0.000038
C38	C	-0.987129	0.148223	0.000039
C39	C	-0.979555	0.545548	0.000031
C40	C	-0.978057	0.624499	0.000032
C41	C	-1.142352	0.642373	0.000044
C42	C	-1.143856	0.563428	0.000046
C43	C	-1.062455	0.515019	0.000034
C44	C	-1.064087	0.429415	0.000040
C45	C	-1.065394	0.361187	0.000045
N46	N	-1.064773	-0.104704	-0.206502
C47	C	-1.126142	-0.053319	0.248319
C48	C	-1.126147	-0.053318	0.331771
C49	C	-1.064735	-0.104690	0.373498
C50	C	-1.003308	-0.156061	0.331769
C51	C	-1.003299	-0.156057	0.248318
C52	C	-1.003340	-0.156076	0.668316
C53	C	-1.003356	-0.156077	0.751773
C54	C	-1.126188	-0.053337	0.751769
C55	C	-1.126180	-0.053333	0.668318
C56	C	-1.064750	-0.104701	0.626596
C57	C	-1.064744	-0.104700	0.536108
C58	C	-1.064745	-0.104695	0.463985
H59	H	-0.810860	0.016766	0.000043
F60	F	-1.228987	0.693900	0.000054
H61	H	-1.176190	-0.011504	0.634346
F62	F	-0.937988	-0.210756	0.796180
H63	H	-0.920849	0.108808	0.000035
F64	F	-0.695202	0.105001	0.000052
F65	F	-0.892921	0.494037	0.000016
H66	H	-1.176155	-0.011489	0.214350
F67	F	-0.304147	-0.243199	0.000033
H68	H	-0.953324	-0.197902	0.634353
H69	H	-1.176206	-0.011508	0.785748
H70	H	-0.358160	0.023987	0.000068
F71	F	-1.236557	0.296567	0.000060
H72	H	-0.953300	-0.197886	0.365748
H73	H	-1.176160	-0.011490	0.365742
H74	H	-0.953283	-0.197885	0.214348
H75	H	-0.448775	-0.297341	0.000019
F76	F	-0.501077	0.108098	0.000068
H77	H	-0.619367	-0.300081	0.000017
F78	F	-1.239663	0.133611	0.000075
F79	F	-0.780352	-0.250809	0.000012
H80	H	-0.910546	0.649358	0.000028
F81	F	-1.232089	0.530934	0.000052
H82	H	-0.918126	0.252037	0.000027
