data_functionalizedCrystal
_audit_creation_method	'MofGen! by Chris Wilmer'
_symmetry_space_group_name_H-M	'P1'
_symmetry_Int_Tables_number	1
_symmetry_cell_setting	triclinic
loop_
_symmetry_equiv_pos_as_xyz
  x,y,z
_cell_length_a	14.971482
_cell_length_b	14.971494
_cell_length_c	13.448316
_cell_angle_alpha	90.004885
_cell_angle_beta	90.006202
_cell_angle_gamma	83.615083
loop_
_atom_site_label
_atom_site_type_symbol
_atom_site_fract_x
_atom_site_fract_y
_atom_site_fract_z
O1	O	1.186953	0.116548	0.082675
O2	O	1.686953	0.616548	0.582675
O3	O	0.926553	0.130511	0.082679
O4	O	1.426553	0.630511	0.582679
O5	O	1.063728	-0.006670	0.082675
O6	O	1.563728	0.493330	0.582675
O7	O	1.049777	0.253729	0.082680
O8	O	1.549777	0.753729	0.582680
O9	O	1.063711	-0.006679	-0.082709
O10	O	1.563711	0.493321	0.417291
O11	O	0.926536	0.130502	-0.082704
O12	O	1.426536	0.630502	0.417296
O13	O	1.186936	0.116540	-0.082709
O14	O	1.686936	0.616540	0.417291
Cu15	Cu	1.056734	0.123520	-0.097807
Cu16	Cu	1.556734	0.623520	0.402193
Cu17	Cu	1.056754	0.123530	0.097778
Cu18	Cu	1.556754	0.623530	0.597778
O19	O	1.049760	0.253721	-0.082704
O20	O	1.549760	0.753721	0.417296
C21	C	0.893219	0.129883	-0.000012
C22	C	1.393219	0.629883	0.499988
C23	C	0.793922	0.128013	-0.000010
C24	C	1.293922	0.628013	0.499990
C25	C	0.747268	0.127128	-0.090162
C26	C	1.247268	0.627128	0.409838
C27	C	0.653969	0.125357	-0.090163
C28	C	1.153969	0.625357	0.409837
C29	C	0.607326	0.124478	-0.000011
C30	C	1.107326	0.624478	0.499989
C31	C	0.653987	0.125361	0.090148
C32	C	1.153987	0.625361	0.590148
C33	C	0.747284	0.127125	0.090148
C34	C	1.247284	0.627125	0.590148
C35	C	0.459525	0.121685	0.090141
C36	C	0.959525	0.621685	0.590141
C37	C	0.366220	0.119923	0.090141
C38	C	0.866220	0.619923	0.590141
C39	C	0.366210	0.119918	-0.090170
C40	C	0.866210	0.619918	0.409830
C41	C	0.459507	0.121682	-0.090169
C42	C	0.959507	0.621682	0.409831
C43	C	0.506162	0.122566	-0.000010
C44	C	1.006162	0.622566	0.499990
C45	C	1.063094	-0.039999	-0.000015
C46	C	1.563094	0.460001	0.499985
C47	C	1.061221	-0.139296	-0.000011
C48	C	1.561221	0.360704	0.499989
C49	C	1.220269	0.117168	-0.000015
C50	C	1.720269	0.617168	0.499985
C51	C	1.319566	0.119037	-0.000010
C52	C	1.819566	0.619037	0.499990
C53	C	1.060352	-0.185936	0.090141
C54	C	1.560352	0.314064	0.590141
C55	C	1.058586	-0.279235	0.090142
C56	C	1.558586	0.220765	0.590142
C57	C	1.057695	-0.325893	-0.000009
C58	C	1.557695	0.174107	0.499991
C59	C	1.058561	-0.279246	-0.090168
C60	C	1.558561	0.220754	0.409832
C61	C	1.060321	-0.185948	-0.090168
C62	C	1.560321	0.314052	0.409832
C63	C	1.054895	-0.473709	-0.090161
C64	C	1.554895	0.026291	0.409839
C65	C	1.053137	-0.567014	-0.090162
C66	C	1.553137	-0.067014	0.409838
C67	C	1.053160	-0.566996	0.090149
C68	C	1.553160	-0.066996	0.590149
C69	C	1.054920	-0.473698	0.090149
C70	C	1.554920	0.026302	0.590149
C71	C	1.055787	-0.427057	-0.000010
C72	C	1.555787	0.072943	0.499990
C73	C	1.050394	0.287050	-0.000012
C74	C	1.550394	0.787050	0.499988
C75	C	1.052268	0.386346	-0.000010
C76	C	1.552268	0.886346	0.499990
N77	N	1.056726	0.123513	-0.235372
N78	N	1.556726	0.623513	0.264628
C79	C	1.117486	0.062794	-0.287414
C80	C	1.617486	0.562794	0.212586
C81	C	1.117492	0.062793	-0.391517
C82	C	1.617492	0.562793	0.108483
C83	C	1.056741	0.123516	-0.443576
C84	C	1.556741	0.623516	0.056424
C85	C	0.995974	0.184238	-0.391527
C86	C	1.495974	0.684238	0.108473
C87	C	0.995965	0.184234	-0.287425
C88	C	1.495965	0.684234	0.212575
C89	C	0.995999	0.184244	-0.608507
C90	C	1.495999	0.684244	-0.108507
C91	C	0.996009	0.184250	-0.712615
C92	C	1.496009	0.684250	-0.212615
C93	C	1.117526	0.062804	-0.712599
C94	C	1.617526	0.562804	-0.212599
C95	C	1.117517	0.062799	-0.608497
C96	C	1.617517	0.562799	-0.108497
C97	C	1.056751	0.123522	-0.556455
C98	C	1.556751	0.623522	-0.056455
N99	N	1.056769	0.123531	0.235342
N100	N	1.556769	0.623531	0.735342
H101	H	0.497508	0.122405	0.163558
H102	H	0.997508	0.622405	0.663558
H103	H	1.055582	-0.435735	-0.163579
H104	H	1.555582	0.064265	0.336421
H105	H	1.057882	-0.317205	0.163553
H106	H	1.557882	0.182795	0.663553
H107	H	1.057830	-0.317241	-0.163571
H108	H	1.557830	0.182759	0.336429
Cl109	Cl	0.518143	0.122797	-0.203505
Cl110	Cl	1.018143	0.622797	0.296495
H111	H	0.785269	0.127847	0.163558
H112	H	1.285269	0.627847	0.663558
Cl113	Cl	1.061478	-0.127290	0.203482
Cl114	Cl	1.561478	0.372710	0.703482
Cl115	Cl	0.919574	0.260566	-0.222001
Cl116	Cl	1.419574	0.760566	0.277999
H117	H	1.166989	0.013359	-0.566111
H118	H	1.666989	0.513359	-0.066111
Cl119	Cl	1.056048	-0.415044	0.203484
Cl120	Cl	1.556048	0.084956	0.703484
Cl121	Cl	1.052062	-0.625628	0.203492
Cl122	Cl	1.552062	-0.125628	0.703492
Cl123	Cl	1.193917	-0.013531	-0.778027
Cl124	Cl	1.693917	0.486469	-0.278027
Cl125	Cl	0.307584	0.118815	0.203477
Cl126	Cl	0.807584	0.618815	0.703477
Cl127	Cl	0.919631	0.260589	-0.778053
Cl128	Cl	1.419631	0.760589	-0.278053
H129	H	1.052403	-0.604999	-0.163571
H130	H	1.552403	-0.104999	0.336429
H131	H	0.785238	0.127852	-0.163574
H132	H	1.285238	0.627852	0.336426
H133	H	0.946514	0.233688	-0.566137
H134	H	1.446514	0.733688	-0.066137
H135	H	0.615990	0.124622	-0.163574
H136	H	1.115990	0.624622	0.336426
Cl137	Cl	1.061412	-0.127314	-0.203507
Cl138	Cl	1.561412	0.372686	0.296493
H139	H	0.616003	0.124638	0.163551
H140	H	1.116003	0.624638	0.663551
H141	H	1.166961	0.013350	-0.245034
H142	H	1.666961	0.513350	0.254966
Cl143	Cl	0.919596	0.260573	-0.456970
Cl144	Cl	1.419596	0.760573	0.043030
Cl145	Cl	0.307559	0.118807	-0.203512
Cl146	Cl	0.807559	0.618807	0.296488
Cl147	Cl	1.193877	-0.013541	-0.456944
Cl148	Cl	1.693877	0.486459	0.043056
