data_functionalizedCrystal
_audit_creation_method	'MofGen! by Chris Wilmer'
_symmetry_space_group_name_H-M	'P1'
_symmetry_Int_Tables_number	1
_symmetry_cell_setting	triclinic
loop_
_symmetry_equiv_pos_as_xyz
  x,y,z
_cell_length_a	14.908571
_cell_length_b	12.759400
_cell_length_c	14.908308
_cell_angle_alpha	86.730859
_cell_angle_beta	89.824947
_cell_angle_gamma	86.710990
loop_
_atom_site_label
_atom_site_type_symbol
_atom_site_fract_x
_atom_site_fract_y
_atom_site_fract_z
Zn1	Zn	1.345342	-0.548282	0.587598
Zn2	Zn	1.845342	-0.048282	1.087598
Zn3	Zn	1.353936	-0.714462	0.437243
Zn4	Zn	1.853936	-0.214462	0.937243
Zn5	Zn	1.203655	-0.528102	0.428595
Zn6	Zn	1.703655	-0.028102	0.928595
Zn7	Zn	1.194964	-0.713214	0.578895
Zn8	Zn	1.694964	-0.213214	1.078895
O9	O	1.274474	-0.626015	0.508083
O10	O	1.774474	-0.126015	1.008083
O11	O	1.472309	-0.579294	0.574915
O12	O	1.972309	-0.079294	1.074915
O13	O	1.341235	-0.681818	0.310271
O14	O	1.841235	-0.181818	0.810271
O15	O	1.222491	-0.383762	0.449711
O16	O	1.722491	0.116238	0.949711
O17	O	1.478623	-0.701385	0.464450
O18	O	1.978623	-0.201385	0.964450
O19	O	1.326587	-0.398588	0.566529
O20	O	1.826587	0.101412	1.066529
O21	O	1.230825	-0.544900	0.303918
O22	O	1.730825	-0.044900	0.803918
O23	O	1.076676	-0.543690	0.441272
O24	O	1.576676	-0.043690	0.941272
O25	O	1.207677	-0.699258	0.705874
O26	O	1.707677	-0.199258	1.205874
O27	O	1.070290	-0.679690	0.551696
O28	O	1.570290	-0.179690	1.051696
O29	O	1.318160	-0.578083	0.712269
O30	O	1.818160	-0.078083	1.212269
O31	O	1.332807	-0.861313	0.456011
O32	O	1.832807	-0.361313	0.956011
O33	O	1.216011	-0.860396	0.560082
O34	O	1.716011	-0.360396	1.060082
C35	C	1.040857	-0.609366	0.494601
C36	C	1.540857	-0.109366	0.994601
C37	C	0.940914	-0.602270	0.488855
C38	C	1.440914	-0.102270	0.988855
C39	C	1.274422	-0.898977	0.508061
C40	C	1.774422	-0.398977	1.008061
C41	C	1.274480	-1.015760	0.508087
C42	C	1.774480	-0.515760	1.008087
C43	C	0.746517	-0.730752	0.592888
C44	C	1.246517	-0.230752	1.092888
C45	C	0.652611	-0.724088	0.587492
C46	C	1.152611	-0.224088	1.087492
C47	C	0.659193	-0.582274	0.472673
C48	C	1.159193	-0.082274	0.972673
C49	C	0.753099	-0.588938	0.478069
C50	C	1.253099	-0.088938	0.978069
C51	C	0.796758	-0.663180	0.538177
C52	C	1.296758	-0.163180	1.038177
C53	C	0.890666	-0.669848	0.543568
C54	C	1.390666	-0.169848	1.043568
C55	C	0.897246	-0.528030	0.428754
C56	C	1.397246	-0.028030	0.928754
C57	C	0.803340	-0.521366	0.423358
C58	C	1.303340	-0.021366	0.923358
C59	C	1.335356	-1.071073	0.453964
C60	C	1.835356	-0.571073	0.953964
C61	C	1.335410	-1.180802	0.453995
C62	C	1.835410	-0.680802	0.953995
C63	C	1.213704	-1.179896	0.562273
C64	C	1.713704	-0.679896	1.062273
C65	C	1.213655	-1.070169	0.562246
C66	C	1.713655	-0.570169	1.062246
C67	C	1.396181	-1.016664	0.399805
C68	C	1.896181	-0.516664	0.899805
C69	C	1.457061	-1.071977	0.345677
C70	C	1.957061	-0.571977	0.845677
C71	C	1.457115	-1.181707	0.345708
C72	C	1.957115	-0.681707	0.845708
C73	C	1.396289	-1.236123	0.399867
C74	C	1.896289	-0.736123	0.899867
C75	C	1.509003	-0.642730	0.521618
C76	C	2.009003	-0.142730	1.021618
C77	C	1.608946	-0.649853	0.527386
C78	C	2.108946	-0.149853	1.027386
C79	C	1.260990	-0.640783	0.742609
C80	C	1.760990	-0.140783	1.242609
C81	C	1.255244	-0.647076	0.842550
C82	C	1.755244	-0.147076	1.342550
C83	C	1.274550	-0.351990	0.508126
C84	C	1.774550	0.148010	1.008126
C85	C	1.274582	-0.235216	0.508144
C86	C	1.774582	0.264784	1.008144
C87	C	1.287957	-0.611233	0.274473
C88	C	1.787957	-0.111233	0.774473
C89	C	1.293878	-0.604656	0.174542
C90	C	1.793878	-0.104656	0.674542
C91	C	1.359489	-0.532697	1.037009
C92	C	1.859489	-0.032697	1.537009
C93	C	1.354093	-0.538607	1.130913
C94	C	1.854093	-0.038607	1.630913
C95	C	1.239052	-0.664798	1.124262
C96	C	1.739052	-0.164798	1.624262
C97	C	1.244448	-0.658888	1.030358
C98	C	1.744448	-0.158888	1.530358
C99	C	1.304670	-0.592837	0.986735
C100	C	1.804670	-0.092837	1.486735
C101	C	1.310070	-0.586934	0.892830
C102	C	1.810070	-0.086934	1.392830
C103	C	1.195025	-0.713119	0.886181
C104	C	1.695025	-0.213119	1.386181
C105	C	1.189629	-0.719028	0.980085
C106	C	1.689629	-0.219028	1.480085
H107	H	0.926211	-0.730302	0.592510
H108	H	1.426211	-0.230302	1.092510
O109	O	1.522669	-1.013287	0.287274
O110	O	2.022669	-0.513287	0.787274
H111	H	1.565016	-1.070189	0.249653
H112	H	2.065016	-0.570189	0.749653
O113	O	1.522790	-1.241365	0.287344
O114	O	2.022790	-0.741365	0.787344
H115	H	1.512619	-1.326808	0.296471
H116	H	2.012619	-0.826808	0.796471
O117	O	1.148096	-1.238592	0.620670
O118	O	1.648096	-0.738592	1.120670
H119	H	1.159393	-1.223037	0.692136
H120	H	1.659393	-0.723037	1.192136
H121	H	1.396344	-1.325473	0.399895
H122	H	1.896344	-0.825473	0.899895
H123	H	1.164085	-1.025132	0.606319
H124	H	1.664085	-0.525132	1.106319
O125	O	1.375017	-0.515695	0.845773
O126	O	1.875017	-0.015695	1.345773
H127	H	1.412222	-0.474861	0.896511
H128	H	1.912222	0.025139	1.396511
H129	H	1.408528	-0.478921	1.001491
H130	H	1.908528	0.021079	1.501491
O131	O	1.413224	-0.473750	1.185141
O132	O	1.913224	0.026250	1.685141
H133	H	1.456009	-0.426837	1.139028
H134	H	1.956009	0.073163	1.639028
H135	H	1.190022	-0.718573	1.159796
H136	H	1.690022	-0.218573	1.659796
H137	H	1.140596	-0.772803	1.015615
H138	H	1.640596	-0.272803	1.515615
H139	H	1.150389	-0.762092	0.845238
H140	H	1.650389	-0.262092	1.345238
H141	H	1.396142	-0.927316	0.399771
H142	H	1.896142	-0.427316	0.899771
H143	H	0.782065	-0.791208	0.641826
H144	H	1.282065	-0.291208	1.141826
O145	O	0.951432	-0.455138	0.369740
O146	O	1.451432	0.044862	0.869740
H147	H	1.024067	-0.472238	0.383592
H148	H	1.524067	0.027762	0.883592
O149	O	0.598422	-0.797055	0.646421
O150	O	1.098422	-0.297055	1.146421
H151	H	0.644563	-0.849832	0.689090
H152	H	1.144563	-0.349832	1.189090
H153	H	0.623630	-0.521823	0.423741
H154	H	1.123630	-0.021823	0.923741
O155	O	0.756253	-0.441320	0.358503
O156	O	1.256253	0.058680	0.858503
H157	H	0.682513	-0.448050	0.363929
H158	H	1.182513	0.051950	0.863929
