data_functionalizedCrystal
_audit_creation_method	'MofGen! by Chris Wilmer'
_symmetry_space_group_name_H-M	'P1'
_symmetry_Int_Tables_number	1
_symmetry_cell_setting	triclinic
loop_
_symmetry_equiv_pos_as_xyz
  x,y,z
_cell_length_a	8.559649
_cell_length_b	9.798715
_cell_length_c	8.634740
_cell_angle_alpha	89.998824
_cell_angle_beta	94.825514
_cell_angle_gamma	90.003078
loop_
_atom_site_label
_atom_site_type_symbol
_atom_site_fract_x
_atom_site_fract_y
_atom_site_fract_z
O1	O	2.112216	0.113469	0.051378
O2	O	2.612216	0.613469	0.551378
O3	O	1.659053	0.113475	-0.026832
O4	O	2.159053	0.613475	0.473168
O5	O	1.864183	0.113469	0.234209
O6	O	2.364183	0.613469	0.734209
O7	O	1.907086	0.113475	-0.209663
O8	O	2.407086	0.613475	0.290337
O9	O	1.864166	-0.113513	0.234208
O10	O	2.364166	0.386487	0.734208
O11	O	1.659036	-0.113507	-0.026833
O12	O	2.159036	0.386493	0.473167
O13	O	2.112199	-0.113513	0.051378
O14	O	2.612199	0.386487	0.551378
Zn15	Zn	1.885615	-0.149548	0.012273
Zn16	Zn	2.385615	0.350452	0.512273
Zn17	Zn	1.885637	0.149510	0.012273
Zn18	Zn	2.385637	0.649510	0.512273
O19	O	1.907069	-0.113507	-0.209663
O20	O	2.407069	0.386493	0.290337
C21	C	1.600427	-0.000015	-0.032760
C22	C	2.100427	0.499985	0.467240
C23	C	1.425763	-0.000013	-0.050402
C24	C	1.925763	0.499987	0.449598
N25	N	1.885611	-0.353648	0.012275
N26	N	2.385611	0.146352	0.512275
C27	C	1.971957	-0.578582	0.122120
C28	C	2.471957	-0.078582	0.622120
C29	C	1.971936	-0.421419	0.122116
C30	C	2.471936	0.078581	0.622116
C31	C	2.170825	-0.000019	0.057305
C32	C	2.670825	0.499981	0.557305
C33	C	2.345489	-0.000013	0.074948
C34	C	2.845489	0.499987	0.574948
C35	C	1.854456	-0.000020	0.290508
C36	C	2.354456	0.499980	0.790508
C37	C	1.825478	-0.000013	0.458259
C38	C	2.325478	0.499987	0.958259
N39	N	1.885652	0.353610	0.012285
N40	N	2.385652	0.853610	0.512285
C41	C	1.916796	-0.000015	-0.265962
C42	C	2.416796	0.499985	0.234038
C43	C	1.945774	-0.000013	-0.433714
C44	C	2.445774	0.499987	0.066286
H45	H	1.410386	-0.000008	0.195763
H46	H	1.910386	0.499992	0.695763
Cl47	Cl	1.771551	-0.556392	-0.132917
Cl48	Cl	2.271551	-0.056392	0.367083
H49	H	1.700309	-0.000003	0.494113
H50	H	2.200309	0.499997	0.994113
Cl51	Cl	2.139019	-0.000008	0.510946
Cl52	Cl	2.639019	0.499992	1.010946
H53	H	1.811711	-0.411951	-0.081760
H54	H	2.311711	0.088049	0.418240
Cl55	Cl	1.325566	0.000003	-0.236947
Cl56	Cl	1.825566	0.500003	0.263053
Cl57	Cl	2.086078	-0.668577	0.267309
Cl58	Cl	2.586078	-0.168577	0.767309
H59	H	2.045819	-0.363108	0.216155
H60	H	2.545819	0.136892	0.716155
