data_functionalizedCrystal
_audit_creation_method	'MofGen! by Chris Wilmer'
_symmetry_space_group_name_H-M	'P1'
_symmetry_Int_Tables_number	1
_symmetry_cell_setting	triclinic
loop_
_symmetry_equiv_pos_as_xyz
  x,y,z
_cell_length_a	12.759401
_cell_length_b	12.759399
_cell_length_c	12.759393
_cell_angle_alpha	90.028363
_cell_angle_beta	89.981433
_cell_angle_gamma	89.985425
loop_
_atom_site_label
_atom_site_type_symbol
_atom_site_fract_x
_atom_site_fract_y
_atom_site_fract_z
Zn1	Zn	1.606249	0.418231	-0.594007
Zn2	Zn	2.106249	0.918231	-0.094007
Zn3	Zn	1.606141	0.593950	-0.418337
Zn4	Zn	2.106141	1.093950	0.081663
Zn5	Zn	1.430551	0.418283	-0.418346
Zn6	Zn	1.930551	0.918283	0.081654
Zn7	Zn	1.430537	0.593866	-0.593978
Zn8	Zn	1.930537	1.093866	-0.093978
O9	O	1.518370	0.506082	-0.506167
O10	O	2.018370	1.006082	-0.006167
O11	O	1.753256	0.441554	-0.570712
O12	O	2.253256	0.941554	-0.070712
O13	O	1.582809	0.570704	-0.271317
O14	O	2.082809	1.070704	0.228683
O15	O	1.453909	0.271255	-0.441664
O16	O	1.953909	0.771255	0.058336
O17	O	1.753176	0.570654	-0.441648
O18	O	2.253176	1.070654	0.058352
O19	O	1.582994	0.271217	-0.570721
O20	O	2.082994	0.771217	-0.070721
O21	O	1.453804	0.441642	-0.271324
O22	O	1.953804	0.941642	0.228676
O23	O	1.283528	0.441560	-0.441636
O24	O	1.783528	0.941560	0.058364
O25	O	1.453885	0.570511	-0.741003
O26	O	1.953885	1.070511	-0.241003
O27	O	1.283518	0.570561	-0.570672
O28	O	1.783518	1.070561	-0.070672
O29	O	1.582980	0.441473	-0.741024
O30	O	2.082980	0.941473	-0.241024
O31	O	1.582796	0.740960	-0.441620
O32	O	2.082796	1.240960	0.058380
O33	O	1.453780	0.740898	-0.570663
O34	O	1.953780	1.240898	-0.070663
C35	C	1.245402	0.506058	-0.506152
C36	C	1.745402	1.006058	-0.006152
C37	C	1.128626	0.506072	-0.506171
C38	C	1.628626	1.006072	-0.006171
C39	C	1.073798	0.438977	-0.573479
C40	C	1.573798	0.938977	-0.073479
C41	C	0.964074	0.438997	-0.573485
C42	C	1.464074	0.938997	-0.073485
C43	C	0.964015	0.573217	-0.438873
C44	C	1.464015	1.073217	0.061127
C45	C	1.073737	0.573191	-0.438862
C46	C	1.573737	1.073191	0.061138
C47	C	1.128687	0.371858	-0.640787
C48	C	1.628687	0.871858	-0.140787
C49	C	1.073859	0.304758	-0.708101
C50	C	1.573859	0.804758	-0.208101
C51	C	0.964135	0.304778	-0.708108
C52	C	1.464135	0.804778	-0.208108
C53	C	0.909239	0.371899	-0.640800
C54	C	1.409239	0.871899	-0.140800
C55	C	1.518303	0.779050	-0.506160
C56	C	2.018303	1.279050	-0.006160
C57	C	1.518371	0.895826	-0.506192
C58	C	2.018371	1.395826	-0.006192
C59	C	1.585623	0.950686	-0.439077
C60	C	2.085623	1.450686	0.060923
C61	C	1.585686	1.060410	-0.439116
C62	C	2.085686	1.560410	0.060884
C63	C	1.451236	1.060405	-0.573388
C64	C	1.951236	1.560405	-0.073388
C65	C	1.451179	0.950683	-0.573354
C66	C	1.951179	1.450683	-0.073354
C67	C	1.652815	0.895829	-0.371916
C68	C	2.152815	1.395829	0.128084
C69	C	1.720072	0.950688	-0.304794
C70	C	2.220072	1.450688	0.195206
C71	C	1.720135	1.060412	-0.304833
C72	C	2.220135	1.560412	0.195167
C73	C	1.652941	1.115277	-0.371993
C74	C	2.152941	1.615277	0.128007
C75	C	1.792403	0.506108	-0.506182
C76	C	2.292403	1.006108	-0.006182
C77	C	1.909180	0.506119	-0.506189
C78	C	2.409180	1.006119	-0.006189
C79	C	1.518443	0.505976	-0.780200
C80	C	2.018443	1.005976	-0.280200
C81	C	1.518475	0.505931	-0.896977
C82	C	2.018475	1.005931	-0.396977
C83	C	1.518461	1.232049	-0.506210
C84	C	2.018461	1.732049	-0.006210
C85	C	1.518491	1.115272	-0.506265
C86	C	2.018491	1.615272	-0.006265
C87	C	1.585704	0.438735	-0.951852
C88	C	2.085704	0.938735	-0.451852
C89	C	1.585729	0.438697	-1.061576
C90	C	2.085729	0.938697	-0.561576
C91	C	1.451293	0.573061	-1.061541
C92	C	1.951293	1.073061	-0.561541
C93	C	1.451263	0.573093	-0.951819
C94	C	1.951263	1.073093	-0.451819
C95	C	1.652915	0.371573	-0.897010
C96	C	2.152915	0.871573	-0.397010
C97	C	1.720150	0.304372	-0.951885
C98	C	2.220150	0.804372	-0.451885
C99	C	1.720175	0.304334	-1.061609
C100	C	2.220175	0.804334	-0.561609
C101	C	1.652965	0.371497	-1.116458
C102	C	2.152965	0.871497	-0.616458
C103	C	1.518357	0.506112	-0.233199
C104	C	2.018357	1.006112	0.266801
C105	C	1.518529	0.505861	-0.116423
C106	C	2.018529	1.005861	0.383577
H107	H	0.919497	0.250135	-0.762911
H108	H	1.419497	0.750135	-0.262911
H109	H	1.118563	0.250105	-0.762894
H110	H	1.618563	0.750105	-0.262894
H111	H	1.652978	0.371449	-1.205803
H112	H	2.152978	0.871449	-0.705803
H113	H	1.653006	1.204622	-0.372027
H114	H	2.153006	1.704622	0.127973
F115	F	1.379709	0.644610	-0.893414
F116	F	1.879709	1.144610	-0.393414
F117	F	1.379771	0.644538	-1.119919
F118	F	1.879771	1.144538	-0.619919
F119	F	1.652897	0.371611	-0.780232
F120	F	2.152897	0.871611	-0.280232
F121	F	1.245464	0.371835	-0.640790
F122	F	1.745464	0.871835	-0.140790
F123	F	1.791732	0.232815	-1.120008
F124	F	2.291732	0.732815	-0.620008
F125	F	0.792459	0.371907	-0.640801
F126	F	1.292459	0.871907	-0.140801
H127	H	0.919310	0.627865	-0.384077
H128	H	1.419310	1.127865	0.115923
H129	H	1.652769	0.806486	-0.371874
H130	H	2.152769	1.306486	0.128126
H131	H	1.774785	0.906012	-0.250121
H132	H	2.274785	1.406012	0.249879
F133	F	1.132092	0.644609	-0.367233
F134	F	1.632092	1.144609	0.132767
H135	H	1.774906	1.105076	-0.250187
H136	H	2.274906	1.605076	0.249813
F137	F	1.379727	1.118800	-0.644857
F138	F	1.879727	1.618800	-0.144857
H139	H	1.396417	0.906016	-0.628006
H140	H	1.896417	1.406016	-0.128006
H141	H	1.774864	0.249684	-0.907219
H142	H	2.274864	0.749684	-0.407219
