data_functionalizedCrystal
_audit_creation_method	'MofGen! by Chris Wilmer'
_symmetry_space_group_name_H-M	'P1'
_symmetry_Int_Tables_number	1
_symmetry_cell_setting	triclinic
loop_
_symmetry_equiv_pos_as_xyz
  x,y,z
_cell_length_a	12.837943
_cell_length_b	17.019305
_cell_length_c	15.500228
_cell_angle_alpha	96.706723
_cell_angle_beta	93.142593
_cell_angle_gamma	90.902161
loop_
_atom_site_label
_atom_site_type_symbol
_atom_site_fract_x
_atom_site_fract_y
_atom_site_fract_z
O1	O	1.369266	-0.209060	-0.087508
O2	O	1.702599	0.124274	0.245825
O3	O	2.035932	0.457607	0.579159
O4	O	1.067526	-0.198896	-0.086755
O5	O	1.400859	0.134437	0.246578
O6	O	1.734192	0.467771	0.579912
O7	O	1.227390	-0.089386	-0.078589
O8	O	1.560724	0.243947	0.254744
O9	O	1.894057	0.577280	0.588078
O10	O	1.209401	-0.318570	-0.095674
O11	O	1.542734	0.014764	0.237659
O12	O	1.876067	0.348097	0.570992
O13	O	1.237082	-0.082762	0.065794
O14	O	1.570415	0.250571	0.399127
O15	O	1.903749	0.583904	0.732460
O16	O	1.077217	-0.192272	0.057628
O17	O	1.410551	0.141061	0.390961
O18	O	1.743884	0.474395	0.724294
O19	O	1.378957	-0.202436	0.056875
O20	O	1.712291	0.130898	0.390208
O21	O	2.045624	0.464231	0.723541
Cu22	Cu	1.228972	-0.196749	0.070434
Cu23	Cu	1.562306	0.136584	0.403768
Cu24	Cu	1.895639	0.469918	0.737101
Cu25	Cu	1.217511	-0.204583	-0.100315
Cu26	Cu	1.550844	0.128751	0.233018
Cu27	Cu	1.884177	0.462084	0.566352
O28	O	1.219092	-0.311946	0.048708
O29	O	1.552426	0.021388	0.382042
O30	O	1.885759	0.354721	0.715375
C31	C	1.033773	-0.192151	-0.014308
C32	C	1.367107	0.141183	0.319025
C33	C	1.700440	0.474516	0.652358
C34	C	0.918762	-0.181910	-0.013547
C35	C	1.252096	0.151423	0.319786
C36	C	1.585429	0.484756	0.653120
N37	N	1.209450	-0.210087	-0.220410
N38	N	1.542783	0.123246	0.112923
N39	N	1.876117	0.456580	0.446256
C40	C	1.231746	-0.056536	-0.004197
C41	C	1.565079	0.276797	0.329136
C42	C	1.898413	0.610131	0.662469
C43	C	1.230272	0.031479	0.002358
C44	C	1.563606	0.364812	0.335692
C45	C	1.896939	0.698146	0.669025
C46	C	1.412710	-0.209181	-0.015574
C47	C	1.746043	0.124152	0.317759
C48	C	2.079376	0.457485	0.651093
C49	C	1.527720	-0.219422	-0.016341
C50	C	1.861053	0.113912	0.316992
C51	C	2.194386	0.447245	0.650326
C52	C	1.769479	-0.096315	-0.007155
C53	C	2.102812	0.237019	0.326179
C54	C	2.436145	0.570352	0.659512
C55	C	1.877542	-0.105933	-0.007875
C56	C	2.210875	0.227401	0.325458
C57	C	2.544209	0.560734	0.658792
C58	C	1.851912	-0.248275	-0.018496
C59	C	2.185245	0.085058	0.314837
C60	C	2.518578	0.418392	0.648170
C61	C	1.743849	-0.238657	-0.017776
C62	C	2.077182	0.094676	0.315558
C63	C	2.410515	0.428010	0.648891
C64	C	1.702636	-0.162674	-0.012106
C65	C	2.035970	0.170659	0.321227
C66	C	2.369303	0.503992	0.654561
C67	C	1.594571	-0.153057	-0.011392
C68	C	1.927904	0.180276	0.321942
C69	C	2.261237	0.513610	0.655275
C70	C	1.568943	-0.295399	-0.022007
C71	C	1.902276	0.037935	0.311327
C72	C	2.235610	0.371268	0.644660
C73	C	1.677006	-0.305017	-0.022727
C74	C	2.010339	0.028317	0.310606
C75	C	2.343673	0.361650	0.643939
C76	C	1.224300	0.069213	-0.073264
C77	C	1.557633	0.402546	0.260069
C78	C	1.890966	0.735880	0.593403
C79	C	1.222909	0.151913	-0.067101
C80	C	1.556242	0.485246	0.266232
C81	C	1.889576	0.818579	0.599565
C82	C	1.227498	0.196876	0.014684
C83	C	1.560832	0.530210	0.348018
C84	C	1.894165	0.863543	0.681351
C85	C	1.233468	0.159137	0.090313
C86	C	1.566802	0.492470	0.423646
C87	C	1.900135	0.825803	0.756979
C88	C	1.234852	0.076438	0.084149
C89	C	1.568185	0.409772	0.417483
C90	C	1.901518	0.743105	0.750816
C91	C	1.223579	0.446752	0.037231
C92	C	1.556912	0.780085	0.370565
C93	C	1.890245	1.113419	0.703898
C94	C	1.222198	0.529456	0.043389
C95	C	1.555531	0.862789	0.376723
C96	C	1.888865	1.196122	0.710056
C97	C	1.211637	0.522226	-0.114026
C98	C	1.544970	0.855559	0.219308
C99	C	1.878303	1.188893	0.552641
C100	C	1.213027	0.439527	-0.120182
C101	C	1.546360	0.772860	0.213152
C102	C	1.879693	1.106193	0.546485
C103	C	1.218991	0.401794	-0.044554
C104	C	1.552325	0.735127	0.288780
C105	C	1.885658	1.068461	0.622113
C106	C	1.226080	0.281409	0.020986
C107	C	1.559413	0.614742	0.354319
C108	C	1.892747	0.948075	0.687652
C109	C	1.220402	0.317263	-0.050856
C110	C	1.553735	0.650596	0.282478
C111	C	1.887069	0.983930	0.615811
C112	C	1.214741	0.655205	-0.025682
C113	C	1.548074	0.988538	0.307652
C114	C	1.881407	1.321871	0.640985
C115	C	1.216225	0.567190	-0.032233
C116	C	1.549559	0.900523	0.301100
C117	C	1.882892	1.233857	0.634433
C118	C	1.277318	-0.163793	-0.262235
C119	C	1.610651	0.169541	0.071099
C120	C	1.943985	0.502874	0.404432
C121	C	1.271220	-0.167954	-0.353118
C122	C	1.604553	0.165380	-0.019784
C123	C	1.937886	0.498713	0.313549
C124	C	1.197248	-0.218405	-0.402175
C125	C	1.530581	0.114928	-0.068841
C126	C	1.863914	0.448262	0.264492
C127	C	1.129377	-0.264705	-0.360344
C128	C	1.462710	0.068629	-0.027011
C129	C	1.796043	0.401962	0.306323
C130	C	1.135481	-0.260547	-0.269463
C131	C	1.468814	0.072786	0.063870
C132	C	1.802147	0.406119	0.397204
C133	C	1.175274	-0.233381	-0.676758
C134	C	1.508608	0.099952	-0.343425
C135	C	1.841941	0.433285	-0.010092
C136	C	1.169173	-0.237533	-0.767645
C137	C	1.502507	0.095800	-0.434312
C138	C	1.835840	0.429133	-0.100979
C139	C	1.311018	-0.140783	-0.760413
C140	C	1.644351	0.192550	-0.427080
C141	C	1.977685	0.525883	-0.093746
C142	C	1.317111	-0.136627	-0.669530
C143	C	1.650445	0.196707	-0.336197
C144	C	1.983778	0.530040	-0.002863
C145	C	1.249244	-0.182929	-0.627708
C146	C	1.582577	0.150404	-0.294374
C147	C	1.915911	0.483737	0.038959
C148	C	1.191010	-0.222658	-0.495072
C149	C	1.524344	0.110676	-0.161738
C150	C	1.857677	0.444009	0.171595
C151	C	1.255487	-0.178680	-0.534813
C152	C	1.588820	0.154653	-0.201479
C153	C	1.922154	0.487986	0.131854
N154	N	1.237041	-0.191239	0.190530
N155	N	1.570374	0.142094	0.523863
N156	N	1.903708	0.475427	0.857197
H157	H	1.561018	-0.091188	-0.006779
H158	H	1.894351	0.242145	0.326555
H159	H	2.227684	0.575478	0.659888
H160	H	1.710577	-0.366880	-0.027340
H161	H	2.043910	-0.033546	0.305993
H162	H	2.377243	0.299787	0.639326
H163	H	1.326484	-0.130258	-0.387171
H164	H	1.659817	0.203075	-0.053837
H165	H	1.993150	0.536409	0.279496
H166	H	1.218050	0.182632	-0.128681
H167	H	1.551383	0.515965	0.204652
H168	H	1.884716	0.849298	0.537985
H169	H	1.735923	-0.034447	-0.002547
H170	H	2.069256	0.298886	0.330787
H171	H	2.402590	0.632220	0.664120
H172	H	1.229820	0.318028	0.087576
H173	H	1.563153	0.651361	0.420909
H174	H	1.896487	0.984694	0.754243
H175	H	1.514507	-0.349434	-0.026039
H176	H	1.847841	-0.016100	0.307294
H177	H	2.181174	0.317233	0.640628
H178	H	1.366273	-0.103087	-0.794473
H179	H	1.699607	0.230246	-0.461140
H180	H	2.032940	0.563580	-0.127806
H181	H	1.377345	-0.095545	-0.629590
H182	H	1.710678	0.237788	-0.296256
H183	H	2.044012	0.571121	0.037077
H184	H	1.209291	0.402922	-0.186781
H185	H	1.542624	0.736256	0.146553
H186	H	1.875958	1.069589	0.479886
H187	H	1.130779	-0.263735	-0.535021
H188	H	1.464112	0.069598	-0.201688
H189	H	1.797446	0.402932	0.131646
H190	H	1.931962	-0.051895	-0.003843
H191	H	2.265296	0.281438	0.329491
H192	H	2.598629	0.614771	0.662824
H193	H	1.885487	-0.310136	-0.023105
H194	H	2.218820	0.023197	0.310229
H195	H	2.552153	0.356530	0.643562
H196	H	1.220568	0.032609	-0.139863
H197	H	1.553901	0.365942	0.193470
H198	H	1.887235	0.699276	0.526804
H199	H	1.069151	-0.305787	-0.400292
H200	H	1.402484	0.027546	-0.066958
H201	H	1.735817	0.360879	0.266375
H202	H	1.225930	0.566064	0.109993
H203	H	1.559263	0.899397	0.443326
H204	H	1.892597	1.232730	0.776659
H205	H	1.080217	-0.298246	-0.235411
H206	H	1.413550	0.035087	0.097923
H207	H	1.746883	0.368421	0.431256
H208	H	1.206779	0.552957	-0.175598
H209	H	1.540112	0.886290	0.157736
H210	H	1.873445	1.219624	0.491069
H211	H	1.228456	0.416041	0.098814
H212	H	1.561789	0.749374	0.432147
H213	H	1.895123	1.082707	0.765480
H214	H	1.108932	-0.278619	-0.807584
H215	H	1.442265	0.054714	-0.474251
H216	H	1.775599	0.388048	-0.140917
H217	H	1.237199	0.195753	0.156905
H218	H	1.570532	0.529086	0.490238
H219	H	1.903865	0.862419	0.823571
H220	H	1.239701	0.045716	0.145729
H221	H	1.573034	0.379050	0.479063
H222	H	1.906367	0.712383	0.812396
H223	H	1.216658	0.280650	-0.117445
H224	H	1.549992	0.613983	0.215888
H225	H	1.883325	0.947316	0.549221
H226	H	1.315719	-0.137606	-0.494868
H227	H	1.649052	0.195728	-0.161535
H228	H	1.982385	0.529061	0.171798
H229	H	1.337549	-0.122706	-0.222298
H230	H	1.670883	0.210627	0.111035
H231	H	2.004216	0.543960	0.444369
H232	H	1.120012	-0.271081	-0.642714
H233	H	1.453345	0.062252	-0.309380
H234	H	1.786679	0.395585	0.023953
