data_functionalizedCrystal
_audit_creation_method	'MofGen! by Chris Wilmer'
_symmetry_space_group_name_H-M	'P1'
_symmetry_Int_Tables_number	1
_symmetry_cell_setting	triclinic
loop_
_symmetry_equiv_pos_as_xyz
  x,y,z
_cell_length_a	19.188930
_cell_length_b	15.995350
_cell_length_c	15.072220
_cell_angle_alpha	89.998899
_cell_angle_beta	90.026362
_cell_angle_gamma	83.318578
loop_
_atom_site_label
_atom_site_type_symbol
_atom_site_fract_x
_atom_site_fract_y
_atom_site_fract_z
O1	O	-0.926420	-0.104528	-0.074063
O2	O	-0.426420	0.395472	0.425937
O3	O	-0.723144	-0.118600	-0.074002
O4	O	-0.223144	0.381400	0.425998
O5	O	-0.830339	0.010344	-0.074034
O6	O	-0.330339	0.510344	0.425966
O7	O	-0.819225	-0.233472	-0.074032
O8	O	-0.319225	0.266528	0.425968
O9	O	-0.830312	0.010337	0.073531
O10	O	-0.330312	0.510337	0.573531
O11	O	-0.723118	-0.118607	0.073563
O12	O	-0.223118	0.381393	0.573563
O13	O	-0.926393	-0.104535	0.073502
O14	O	-0.426393	0.395465	0.573502
Zn15	Zn	-0.824751	-0.111572	0.096961
Zn16	Zn	-0.324751	0.388428	0.596961
Zn17	Zn	-0.824786	-0.111563	-0.097462
Zn18	Zn	-0.324786	0.388437	0.402538
O19	O	-0.819199	-0.233479	0.073533
O20	O	-0.319199	0.266521	0.573533
C21	C	-0.697119	-0.118148	-0.000212
C22	C	-0.197119	0.381852	0.499788
C23	C	-0.619611	-0.116780	-0.000188
C24	C	-0.119611	0.383220	0.499812
C25	C	-0.829866	0.041533	-0.000253
C26	C	-0.329866	0.541533	0.499747
C27	C	-0.828489	0.134479	-0.000257
C28	C	-0.328489	0.634479	0.499743
C29	C	-0.952419	-0.104987	-0.000291
C30	C	-0.452419	0.395013	0.499709
C31	C	-1.029927	-0.106355	-0.000320
C32	C	-0.529927	0.393645	0.499680
C33	C	-0.574880	-0.192440	-0.000202
C34	C	-0.074880	0.307560	0.499798
C35	C	-0.502052	-0.191155	-0.000212
C36	C	-0.002052	0.308845	0.499788
C37	C	-0.473960	-0.114205	-0.000226
C38	C	0.026040	0.385795	0.499774
C39	C	-0.518701	-0.038535	-0.000207
C40	C	-0.018701	0.461465	0.499793
C41	C	-0.591526	-0.039823	-0.000189
C42	C	-0.091526	0.460177	0.499811
N43	N	-0.365839	-0.055384	-0.050485
N44	N	0.134161	0.444616	0.449515
N45	N	-0.296657	-0.054167	-0.050504
N46	N	0.203343	0.445833	0.449496
C47	C	-0.254541	-0.110322	-0.000280
C48	C	0.245459	0.389678	0.499720
N49	N	-0.284219	-0.167754	0.049953
N50	N	0.215781	0.332246	0.549953
N51	N	-0.353407	-0.168974	0.049969
N52	N	0.146593	0.331026	0.549969
C53	C	-0.394994	-0.112801	-0.000245
C54	C	0.105006	0.387199	0.499755
C55	C	-0.130842	-0.184594	-0.000303
C56	C	0.369158	0.315406	0.499697
C57	C	-0.058014	-0.183306	-0.000307
C58	C	0.441986	0.316694	0.499693
C59	C	-0.074664	-0.030684	-0.000312
C60	C	0.425336	0.469316	0.499688
C61	C	-0.147491	-0.031974	-0.000299
C62	C	0.352509	0.468026	0.499701
C63	C	-0.175575	-0.108932	-0.000298
C64	C	0.324425	0.391068	0.499702
C65	C	-0.819671	-0.264669	-0.000250
C66	C	-0.319671	0.235331	0.499750
C67	C	-0.821049	-0.357614	-0.000251
C68	C	-0.321049	0.142386	0.499749
N69	N	-0.824733	-0.111578	0.229650
N70	N	-0.324733	0.388422	0.729650
C71	C	-0.823542	0.472208	-0.000253
C72	C	-0.323542	0.972208	0.499747
C73	C	-0.747200	0.424495	-0.000561
C74	C	-0.247200	0.924495	0.499439
C75	C	-0.748578	0.327809	-0.000228
C76	C	-0.248578	0.827809	0.499772
C77	C	-0.825996	0.304657	-0.000255
C78	C	-0.325996	0.804657	0.499745
C79	C	-0.863635	0.345868	0.083999
C80	C	-0.363635	0.845868	0.583999
C81	C	-0.861717	0.442497	0.084070
C82	C	-0.361717	0.942497	0.584070
C83	C	-0.863324	0.442869	-0.083740
C84	C	-0.363324	0.942869	0.416260
C85	C	-0.863306	0.345923	-0.084854
C86	C	-0.363306	0.845923	0.415146
C87	C	-0.827386	0.209964	-0.000254
C88	C	-0.327386	0.709964	0.499746
C89	C	-0.822153	0.566901	-0.000248
C90	C	-0.322153	1.066901	0.499752
N91	N	-0.824810	-0.111550	-0.230151
N92	N	-0.324810	0.388450	0.269849
C93	C	-0.824785	-0.111560	0.588852
C94	C	-0.324785	0.388440	1.088852
C95	C	-0.767235	-0.180325	0.551262
C96	C	-0.267235	0.319675	1.051262
C97	C	-0.767366	-0.180575	0.448436
C98	C	-0.267366	0.319425	0.948436
C99	C	-0.824758	-0.111569	0.410648
C100	C	-0.324758	0.388431	0.910648
C101	C	-0.897609	-0.130384	0.447917
C102	C	-0.397609	0.369616	0.947917
C103	C	-0.897286	-0.130872	0.550775
C104	C	-0.397286	0.369128	1.050775
C105	C	-0.810134	-0.023774	0.550957
C106	C	-0.310134	0.476226	1.050957
C107	C	-0.808463	-0.024366	0.448094
C108	C	-0.308463	0.475634	0.948094
C109	C	-0.824748	-0.111572	0.309934
C110	C	-0.324748	0.388428	0.809934
C111	C	-0.824800	-0.111558	0.689565
C112	C	-0.324800	0.388442	1.189565
H113	H	-0.465625	-0.252768	-0.000220
H114	H	0.034375	0.247232	0.499780
H115	H	-0.716698	0.442918	-0.060980
H116	H	-0.216698	0.942918	0.439020
O117	O	-0.955693	-0.065793	0.415490
O118	O	-0.455693	0.434207	0.915490
H119	H	-1.006584	-0.080514	0.442765
H120	H	-0.506584	0.419486	0.942765
H121	H	-0.910827	-0.193666	0.422143
H122	H	-0.410827	0.306334	0.922143
H123	H	-0.835787	0.318577	-0.147183
H124	H	-0.335787	0.818577	0.352817
O125	O	-0.938094	0.325860	-0.091626
O126	O	-0.438094	0.825860	0.408374
H127	H	-0.949893	0.285990	-0.034543
H128	H	-0.449893	0.785990	0.465457
H129	H	-0.716812	0.443974	0.059540
H130	H	-0.216812	0.943974	0.559540
O131	O	-0.914386	-0.215665	0.582539
O132	O	-0.414386	0.284335	1.082539
H133	H	-0.914330	-0.216853	0.656170
H134	H	-0.414330	0.283147	1.156170
O135	O	-0.695633	-0.165802	0.415056
O136	O	-0.195633	0.334198	0.915056
H137	H	-0.700156	-0.107806	0.374012
H138	H	-0.200156	0.392194	0.874012
H139	H	-0.712908	-0.169342	0.576040
H140	H	-0.212908	0.330658	1.076040
O141	O	-0.709109	0.290741	0.079942
O142	O	-0.209109	0.790741	0.579942
H143	H	-0.688968	0.341884	0.118630
H144	H	-0.188968	0.841884	0.618630
O145	O	-0.779448	-0.266144	0.585474
O146	O	-0.279448	0.233856	1.085474
H147	H	-0.832014	-0.280748	0.563930
H148	H	-0.332014	0.219252	1.063930
H149	H	-0.776722	-0.245725	0.423819
H150	H	-0.276722	0.254275	0.923819
H151	H	-0.051792	0.031970	-0.000378
H152	H	0.448208	0.531970	0.499622
O153	O	-0.639777	0.041787	-0.000172
O154	O	-0.139777	0.541787	0.499828
H155	H	-0.673389	0.044854	-0.060306
H156	H	-0.173389	0.544854	0.439694
H157	H	-0.852103	0.027396	0.575263
H158	H	-0.352103	0.527396	1.075263
O159	O	-0.009767	-0.264918	-0.000319
O160	O	0.490233	0.235082	0.499681
H161	H	0.023834	-0.267992	0.059825
H162	H	0.523834	0.232008	0.559825
O163	O	-0.935954	0.485495	0.089130
O164	O	-0.435954	0.985495	0.589130
H165	H	-0.973064	0.437243	0.091522
H166	H	-0.473064	0.937243	0.591522
H167	H	-0.847656	0.029183	0.422374
H168	H	-0.347656	0.529183	0.922374
O169	O	-0.195744	0.049631	-0.000292
O170	O	0.304256	0.549631	0.499708
H171	H	-0.163977	0.103356	-0.000309
H172	H	0.336023	0.603356	0.499691
O173	O	-0.488408	0.044463	-0.000223
O174	O	0.011592	0.544463	0.499777
H175	H	-0.430252	0.032648	-0.000247
H176	H	0.069748	0.532648	0.499753
H177	H	-0.758165	-0.005615	0.576963
H178	H	-0.258165	0.494385	1.076963
H179	H	-0.153710	-0.247257	-0.000290
H180	H	0.346290	0.252743	0.499710
O181	O	-0.709372	0.290008	-0.080215
O182	O	-0.209372	0.790008	0.419785
H183	H	-0.689254	0.340780	-0.119482
H184	H	-0.189254	0.840780	0.380518
O185	O	-0.955720	-0.067045	0.583716
O186	O	-0.455720	0.432955	1.083716
H187	H	-0.947330	-0.003602	0.559053
H188	H	-0.447330	0.496398	1.059053
O189	O	-0.605173	-0.275440	-0.000176
O190	O	-0.105173	0.224560	0.499824
H191	H	-0.561828	-0.327836	-0.000174
H192	H	-0.061828	0.172164	0.499826
H193	H	-0.919611	0.474836	-0.084326
H194	H	-0.419611	0.974836	0.415674
H195	H	-0.920511	0.331950	0.087112
H196	H	-0.420511	0.831950	0.587112
O197	O	-0.825325	0.466612	0.167512
O198	O	-0.325325	0.966612	0.667512
H199	H	-0.809256	0.409283	0.207431
H200	H	-0.309256	0.909283	0.707431
H201	H	-0.837471	0.317388	0.146716
H202	H	-0.337471	0.817388	0.646716
O203	O	-0.830279	0.469947	-0.168337
O204	O	-0.330279	0.969947	0.331663
H205	H	-0.785126	0.504623	-0.151817
H206	H	-0.285126	1.004623	0.348183
H207	H	-0.754873	-0.010081	0.423738
H208	H	-0.254873	0.489919	0.923738
