data_functionalizedCrystal
_audit_creation_method	'MofGen! by Chris Wilmer'
_symmetry_space_group_name_H-M	'P1'
_symmetry_Int_Tables_number	1
_symmetry_cell_setting	triclinic
loop_
_symmetry_equiv_pos_as_xyz
  x,y,z
_cell_length_a	8.559649
_cell_length_b	14.044190
_cell_length_c	7.088906
_cell_angle_alpha	83.203744
_cell_angle_beta	95.323866
_cell_angle_gamma	81.485221
loop_
_atom_site_label
_atom_site_type_symbol
_atom_site_fract_x
_atom_site_fract_y
_atom_site_fract_z
O1	O	2.100734	-0.021003	-0.158976
O2	O	1.642436	0.027448	-0.158990
O3	O	1.864704	-0.134263	-0.158946
O4	O	1.878467	0.140709	-0.159020
O5	O	1.894398	-0.155915	0.159036
O6	O	1.672130	0.005796	0.158991
O7	O	2.130428	-0.042655	0.159005
Cu8	Cu	1.903990	-0.020406	0.188032
Cu9	Cu	1.868874	0.005200	-0.188017
O10	O	1.908161	0.119057	0.158961
C11	C	1.598277	0.020294	-0.000001
C12	C	1.422455	0.031223	-0.000005
C13	C	1.873528	-0.179966	0.000050
C14	C	1.855561	-0.283885	0.000067
C15	C	1.950139	-0.541052	-0.000005
C16	C	1.822731	-0.474149	0.000004
C17	C	1.841002	-0.368276	0.000039
C18	C	1.931870	-0.646934	-0.000040
C19	C	2.174587	-0.035500	0.000012
C20	C	2.350408	-0.046429	0.000003
C21	C	1.899336	0.164760	-0.000039
C22	C	1.917302	0.268679	-0.000068
N23	N	1.928701	-0.038418	0.452525
N24	N	1.844163	0.023211	0.547490
H25	H	1.349625	0.106068	-0.000044
C26	C	2.113747	-0.511226	0.000135
C27	C	2.099575	-0.410625	0.000220
C28	C	2.250257	-0.383104	0.000384
H29	H	2.159377	-0.528419	-0.110716
H30	H	2.179943	-0.543598	0.111072
H31	H	2.033404	-0.378264	-0.110706
H32	H	2.053972	-0.393407	0.111063
H33	H	2.316453	-0.415476	0.111321
H34	H	2.295874	-0.400303	-0.110469
H35	H	2.240663	-0.314846	0.000459
C36	C	1.447227	-0.146311	-0.000055
C37	C	1.345523	-0.215750	-0.000101
C38	C	1.434652	-0.307767	-0.000182
H39	H	1.522314	-0.161565	0.110812
H40	H	1.501573	-0.146375	-0.110977
H41	H	1.291204	-0.215688	0.110809
H42	H	1.270437	-0.200528	-0.110960
H43	H	1.488998	-0.307832	-0.111105
H44	H	1.509735	-0.323011	0.110686
H45	H	1.365658	-0.354892	-0.000232
H46	H	2.016331	-0.102280	0.534199
C47	C	1.727095	0.108323	0.438855
C48	C	1.573998	0.101233	0.487474
C49	C	1.466117	0.179629	0.387444
H50	H	1.728569	0.107169	0.305320
H51	H	1.756283	0.167471	0.471587
H52	H	1.544818	0.042101	0.454729
H53	H	1.572472	0.102399	0.620992
H54	H	1.495304	0.238777	0.420177
H55	H	1.467605	0.178469	0.253914
H56	H	1.362230	0.174835	0.420432
C57	C	1.659132	-0.503988	0.000088
C58	C	1.673300	-0.604596	0.000109
C59	C	1.522637	-0.632126	0.000218
H60	H	1.592812	-0.471664	-0.110760
H61	H	1.613649	-0.486755	0.111028
H62	H	1.718760	-0.621821	-0.110819
H63	H	1.739591	-0.636944	0.110950
H64	H	1.477154	-0.614892	0.111159
H65	H	1.456329	-0.599796	-0.110632
H66	H	1.532231	-0.700392	0.000251
