data_functionalizedCrystal
_audit_creation_method	'MofGen! by Chris Wilmer'
_symmetry_space_group_name_H-M	'P1'
_symmetry_Int_Tables_number	1
_symmetry_cell_setting	triclinic
loop_
_symmetry_equiv_pos_as_xyz
  x,y,z
_cell_length_a	17.640112
_cell_length_b	21.295417
_cell_length_c	17.640968
_cell_angle_alpha	101.234808
_cell_angle_beta	87.860920
_cell_angle_gamma	101.256239
loop_
_atom_site_label
_atom_site_type_symbol
_atom_site_fract_x
_atom_site_fract_y
_atom_site_fract_z
Zn1	Zn	1.247775	-0.018088	0.195079
Zn2	Zn	1.221981	-0.147966	0.068087
Zn3	Zn	1.095099	-0.059037	0.093722
Zn4	Zn	1.120723	-0.139680	0.220669
O5	O	1.171395	-0.091193	0.144389
O6	O	1.350625	-0.021647	0.156795
O7	O	1.183631	-0.156775	-0.034787
O8	O	1.115423	0.034499	0.107185
O9	O	1.331674	-0.117068	0.063494
O10	O	1.227593	0.064584	0.181652
O11	O	1.090412	-0.091439	-0.015953
O12	O	0.992227	-0.083404	0.132000
O13	O	1.159096	-0.102945	0.323549
O14	O	1.011052	-0.142652	0.225268
O15	O	1.252440	-0.013612	0.304748
O16	O	1.208478	-0.234971	0.088309
O17	O	1.134084	-0.228883	0.200410
C18	C	0.974084	-0.116573	0.184193
C19	C	0.889678	-0.127442	0.201239
C20	C	0.563037	-0.008607	0.014897
C21	C	0.483727	-0.018831	0.030925
C22	C	0.503351	-0.080669	0.127878
C23	C	0.582665	-0.070447	0.111861
C24	C	0.612502	-0.034416	0.055369
C25	C	0.632129	-0.096257	0.152332
C26	C	0.711436	-0.086038	0.136313
C27	C	0.741279	-0.050011	0.079823
C28	C	0.691809	-0.024198	0.039350
C29	C	0.602290	-0.132291	0.208820
C30	C	0.651755	-0.158101	0.249291
C31	C	0.731064	-0.147879	0.233277
C32	C	0.760907	-0.111851	0.176786
C33	C	0.780534	-0.173691	0.273749
C34	C	0.859841	-0.163473	0.257730
C35	C	0.840214	-0.101633	0.160767
C36	C	1.171287	-0.254765	0.144367
C37	C	1.171315	-0.324729	0.144369
C38	C	1.210105	-0.360729	0.086039
C39	C	1.210144	-0.426464	0.086049
C40	C	1.171378	-0.456199	0.144384
C41	C	1.132586	-0.420189	0.202724
C42	C	1.132555	-0.354454	0.202717
N43	N	1.106115	-0.566893	0.163575
N44	N	1.106146	-0.629339	0.163577
C45	C	1.171472	-0.654254	0.144410
N46	N	1.236764	-0.614366	0.125225
N47	N	1.236731	-0.551916	0.125220
C48	C	1.171408	-0.527477	0.144398
C49	C	1.210308	-0.761531	0.086087
C50	C	1.210349	-0.827266	0.086102
C51	C	1.132784	-0.820991	0.202775
C52	C	1.132750	-0.755256	0.202763
C53	C	1.171510	-0.725531	0.144415
C54	C	1.369475	-0.065714	0.104431
C55	C	1.453885	-0.054856	0.087403
C56	C	1.211503	-0.052786	0.342475
C57	C	1.228595	-0.036419	0.426887
C58	C	1.171527	0.073024	0.144424
C59	C	1.171584	0.143004	0.144438
C60	C	1.131486	-0.129399	-0.052935
C61	C	1.114541	-0.145569	-0.137376
C62	C	1.041841	-0.215148	0.753447
C63	C	1.057917	-0.199759	0.832762
C64	C	1.155108	-0.106745	0.813176
C65	C	1.139037	-0.122124	0.733858
C66	C	1.082403	-0.176327	0.704000
C67	C	1.179600	-0.083303	0.684411
C68	C	1.163533	-0.098683	0.605099
C69	C	1.106903	-0.152885	0.575235
C70	C	1.066336	-0.191707	0.624689
C71	C	1.236237	-0.029103	0.714269
C72	C	1.276800	0.009719	0.664822
C73	C	1.260729	-0.005659	0.585510
C74	C	1.204100	-0.059860	0.555646
C75	C	1.301296	0.033164	0.536056
C76	C	1.285229	0.017784	0.456745
C77	C	1.188033	-0.075241	0.476334
H78	H	0.537713	-0.140610	0.221860
H79	H	0.627450	-0.187439	0.295284
H80	H	1.101160	-0.725943	0.250258
H81	H	0.995706	-0.259273	0.729140
H82	H	1.101224	-0.845199	0.250275
H83	H	1.347413	0.077292	0.560378
C84	C	1.253023	-0.866867	0.021930
N85	N	1.285163	-0.896696	-0.026407
C86	C	0.747702	-0.213328	0.335884
N87	N	0.722972	-0.243183	0.382685
C88	C	1.013288	-0.242469	0.887153
N89	N	0.979675	-0.274638	0.928120
H90	H	1.141897	-0.119366	0.452027
H91	H	1.322913	0.053849	0.689143
C92	C	1.329849	0.060490	0.402350
N93	N	1.363459	0.092657	0.361380
C94	C	1.089941	-0.452899	0.266891
N95	N	1.057819	-0.477536	0.315223
C96	C	1.089893	-0.314848	0.266895
N97	N	1.057762	-0.285016	0.315238
C98	C	1.252813	-0.466073	0.021875
N99	N	1.284949	-0.495906	-0.026462
C100	C	1.089228	-0.169803	0.487990
N101	N	1.075914	-0.182545	0.422276
H102	H	0.900117	-0.184489	0.290687
H103	H	1.201222	-0.062614	0.837497
C104	C	1.004035	-0.251333	0.591841
N105	N	0.957114	-0.296243	0.567100
C106	C	0.873039	-0.061994	0.098626
N107	N	0.897763	-0.032141	0.051823
H108	H	1.249319	-0.016583	0.778850
H109	H	0.805856	-0.041693	0.066780
C110	C	0.595862	0.031032	-0.047243
N111	N	0.620586	0.060886	-0.094047
C112	C	0.724634	0.015441	-0.022791
N113	N	0.749358	0.045294	-0.069594
C114	C	1.252957	-0.728828	0.021913
N115	N	1.285085	-0.704197	-0.026421
C116	C	1.252732	-0.328038	0.021848
N117	N	1.284836	-0.303415	-0.026504
H118	H	0.443455	0.002194	-0.002031
H119	H	0.479046	-0.110007	0.173871
