data_functionalizedCrystal
_audit_creation_method	'MofGen! by Chris Wilmer'
_symmetry_space_group_name_H-M	'P1'
_symmetry_Int_Tables_number	1
_symmetry_cell_setting	triclinic
loop_
_symmetry_equiv_pos_as_xyz
  x,y,z
_cell_length_a	14.908571
_cell_length_b	29.839131
_cell_length_c	14.908308
_cell_angle_alpha	93.261283
_cell_angle_beta	90.175053
_cell_angle_gamma	86.737317
loop_
_atom_site_label
_atom_site_type_symbol
_atom_site_fract_x
_atom_site_fract_y
_atom_site_fract_z
Zn1	Zn	1.345126	-0.234441	-0.587534
Zn2	Zn	1.353655	-0.305498	-0.437159
Zn3	Zn	1.203447	-0.225812	-0.428533
Zn4	Zn	1.194683	-0.304964	-0.578811
O5	O	1.274228	-0.267679	-0.508009
O6	O	1.472080	-0.247701	-0.574847
O7	O	1.340967	-0.291540	-0.310191
O8	O	1.222340	-0.164094	-0.449665
O9	O	1.478346	-0.299907	-0.464367
O10	O	1.326430	-0.170433	-0.566482
O11	O	1.230610	-0.232995	-0.303854
O12	O	1.076461	-0.232477	-0.441208
O13	O	1.207402	-0.298997	-0.705792
O14	O	1.070022	-0.290630	-0.551616
O15	O	1.317932	-0.247184	-0.712201
O16	O	1.332468	-0.368290	-0.455909
O17	O	1.215672	-0.367898	-0.559980
C18	C	1.040617	-0.260560	-0.494530
C19	C	0.940676	-0.257526	-0.488784
C20	C	0.746229	-0.312463	-0.592802
C21	C	0.652326	-0.309614	-0.587407
C22	C	0.658964	-0.248976	-0.472604
C23	C	0.752867	-0.251825	-0.477999
C24	C	0.796497	-0.283570	-0.538099
C25	C	0.890402	-0.286422	-0.543489
C26	C	0.897038	-0.225781	-0.428692
C27	C	0.803135	-0.222932	-0.423297
C28	C	1.274068	-0.384395	-0.507955
C29	C	1.274080	-0.434330	-0.507967
C30	C	1.335143	-0.744176	-0.453910
C31	C	1.335252	-0.931853	-0.453951
O32	O	1.387043	-0.956286	-0.407948
N33	N	1.274410	-0.955128	-0.508088
C34	C	1.213541	-0.931481	-0.562223
O35	O	1.161800	-0.955585	-0.608278
C36	C	1.213437	-0.743805	-0.562186
C37	C	1.274276	-0.720532	-0.508038
C38	C	1.395978	-0.720903	-0.399768
C39	C	1.395947	-0.673987	-0.399754
C40	C	1.335081	-0.650343	-0.453883
C41	C	1.274245	-0.673615	-0.508025
C42	C	1.152572	-0.720159	-0.616325
C43	C	1.152553	-0.673237	-0.616312
C44	C	1.213393	-0.649964	-0.562165
C45	C	1.213348	-0.603055	-0.562140
N46	N	1.274189	-0.579780	-0.508003
C47	C	1.335056	-0.603424	-0.453875
C48	C	1.213598	-1.030014	-0.562237
C49	C	1.213623	-1.076933	-0.562245
C50	C	1.335336	-1.077302	-0.453975
C51	C	1.335306	-1.030382	-0.453962
C52	C	1.274440	-1.006739	-0.508100
C53	C	1.334986	-0.504895	-0.453850
C54	C	1.334947	-0.457974	-0.453839
C55	C	1.213238	-0.457609	-0.562112
C56	C	1.213273	-0.504526	-0.562121
C57	C	1.274154	-0.528168	-0.507987
O58	O	1.161590	-0.578594	-0.608127
O59	O	1.386803	-0.579313	-0.407842
C60	C	1.335174	-0.791093	-0.453923
C61	C	1.274339	-0.814366	-0.508065
C62	C	1.213472	-0.790722	-0.562194
C63	C	1.274363	-0.861284	-0.508074
C64	C	1.335230	-0.884928	-0.453945
C65	C	1.396072	-0.861654	-0.399808
C66	C	1.396041	-0.814737	-0.399794
C67	C	1.152630	-0.813996	-0.616331
C68	C	1.152666	-0.860913	-0.616339
C69	C	1.213532	-0.884557	-0.562211
C70	C	1.508750	-0.274826	-0.521542
C71	C	1.608690	-0.277872	-0.527309
C72	C	1.260738	-0.273993	-0.742533
C73	C	1.254989	-0.276684	-0.842474
C74	C	1.274411	-0.150508	-0.508085
C75	C	1.274490	-0.100577	-0.508117
C76	C	1.359279	-0.227777	-1.036946
C77	C	1.353881	-0.230304	-1.130849
C78	C	1.238790	-0.284262	-1.124184
C79	C	1.244189	-0.281735	-1.030281
C80	C	1.304436	-0.253492	-0.986666
C81	C	1.309839	-0.250968	-0.892761
C82	C	1.194744	-0.304924	-0.886097
C83	C	1.189345	-0.307450	-0.980000
C84	C	1.287717	-0.261358	-0.274401
C85	C	1.293639	-0.258546	-0.174471
H86	H	0.781753	-0.338314	-0.641733
O87	O	0.760713	-0.192156	-0.364823
C88	C	0.709675	-0.214474	-0.303553
H89	H	0.738259	-0.250557	-0.299495
H90	H	0.712582	-0.196280	-0.234353
H91	H	0.636916	-0.214631	-0.327265
H92	H	0.611401	-0.333141	-0.631953
O93	O	1.407063	-0.205340	-1.179826
C94	C	1.389398	-0.213633	-1.272062
H95	H	1.319251	-0.226580	-1.280877
H96	H	1.393490	-0.181129	-1.308120
H97	H	1.441166	-0.239895	-1.301773
H98	H	0.925924	-0.312271	-0.592424
H99	H	1.358896	-0.227972	-0.857251
H100	H	1.384896	-1.096561	-0.409901
H101	H	0.937977	-0.202255	-0.384147
O102	O	1.093684	-0.883571	-0.668995
C103	C	1.141508	-0.913783	-0.730086
H104	H	1.211494	-0.922008	-0.702358
H105	H	1.104202	-0.946001	-0.740018
H106	H	1.147499	-0.897770	-0.797282
H107	H	1.103066	-0.794749	-0.660410
O108	O	1.417824	-0.200308	-0.994714
C109	C	1.465096	-0.178163	-1.059232
H110	H	1.424423	-0.177285	-1.124047
H111	H	1.476304	-0.142332	-1.032672
H112	H	1.532783	-0.196964	-1.073147
O113	O	1.154552	-1.099605	-0.614756
C114	C	1.167633	-1.146089	-0.603184
H115	H	1.201126	-1.151529	-0.535521
H116	H	1.099939	-1.162064	-0.605352
H117	H	1.212411	-1.162262	-0.659319
O118	O	1.141331	-0.329879	-0.837342
C119	C	1.050412	-0.317940	-0.855104
H120	H	1.044652	-0.302450	-0.923187
H121	H	1.009859	-0.349219	-0.855968
H122	H	1.023204	-0.292499	-0.800521
O123	O	1.394137	-0.435439	-0.401215
C124	C	1.447850	-0.466372	-0.353430
H125	H	1.448834	-0.500893	-0.390452
H126	H	1.519242	-0.454682	-0.347979
H127	H	1.418912	-0.468554	-0.283220
H128	H	1.189739	-0.307256	-1.159711
H129	H	1.384563	-0.524139	-0.409771
H130	H	1.140292	-0.330444	-1.015524
H131	H	1.164032	-1.010767	-0.606324
O132	O	0.616432	-0.218165	-0.414280
C133	C	0.522770	-0.221831	-0.421289
H134	H	0.508223	-0.256929	-0.449836
H135	H	0.490917	-0.215811	-0.351915
H136	H	0.493432	-0.195717	-0.467782
O137	O	1.455143	-0.651455	-0.347141
C138	C	1.508852	-0.682392	-0.299362
H139	H	1.509819	-0.716913	-0.336383
H140	H	1.580249	-0.670708	-0.293922
H141	H	1.479921	-0.684571	-0.229148
H142	H	1.445548	-0.740149	-0.355689
O143	O	1.394371	-1.007821	-0.401241
C144	C	1.379937	-1.016295	-0.310482
H145	H	1.345494	-1.049273	-0.306605
H146	H	1.447177	-1.018771	-0.273962
H147	H	1.335469	-0.987692	-0.277487
O148	O	1.093441	-0.742691	-0.669011
C149	C	1.039712	-0.711751	-0.716764
H150	H	1.076347	-0.679493	-0.722009
H151	H	1.026001	-0.726906	-0.787052
H152	H	0.973341	-0.703835	-0.679849
H153	H	1.102990	-0.653989	-0.660401
H154	H	1.163735	-0.523476	-0.606215
O155	O	1.154242	-0.434622	-0.614796
C156	C	1.202047	-0.410559	-0.675829
H157	H	1.272540	-0.426973	-0.685522
H158	H	1.165502	-0.410894	-0.743124
H159	H	1.206754	-0.374352	-0.648194
O160	O	1.455231	-0.792204	-0.347176
C161	C	1.508938	-0.823141	-0.299394
H162	H	1.509912	-0.857662	-0.336418
H163	H	1.580332	-0.811456	-0.293943
H164	H	1.479999	-0.825323	-0.229183
H165	H	1.445629	-0.880912	-0.355732
