data_functionalizedCrystal
_audit_creation_method	'MofGen! by Chris Wilmer'
_symmetry_space_group_name_H-M	'P1'
_symmetry_Int_Tables_number	1
_symmetry_cell_setting	triclinic
loop_
_symmetry_equiv_pos_as_xyz
  x,y,z
_cell_length_a	15.995355
_cell_length_b	15.072220
_cell_length_c	10.654558
_cell_angle_alpha	90.000113
_cell_angle_beta	96.008784
_cell_angle_gamma	89.991677
loop_
_atom_site_label
_atom_site_type_symbol
_atom_site_fract_x
_atom_site_fract_y
_atom_site_fract_z
O1	O	-1.111937	0.073695	0.161891
O2	O	-0.868278	0.073715	0.181874
O3	O	-0.995706	0.073701	-0.010929
O4	O	-0.984509	0.073709	0.354694
O5	O	-0.995675	-0.073865	-0.010918
O6	O	-0.868247	-0.073850	0.181885
O7	O	-1.111905	-0.073871	0.161902
Zn8	Zn	-0.990071	-0.097289	0.171895
Zn9	Zn	-0.990113	0.097134	0.171881
O10	O	-0.984477	-0.073856	0.354705
C11	C	-0.837063	-0.000065	0.181052
C12	C	-0.744098	-0.000057	0.178573
C13	C	-0.573887	-0.000070	0.174071
C14	C	-0.549730	-0.000073	0.034889
C15	C	-0.453038	-0.000413	0.032264
C16	C	-0.406302	-0.000081	0.169638
C17	C	-0.435783	-0.084178	0.239628
C18	C	-0.532585	-0.084243	0.241285
C19	C	-0.532543	0.083572	0.243311
C20	C	-0.436019	0.084671	0.238167
C21	C	-0.311590	-0.000090	0.167140
C22	C	-0.668599	-0.000066	0.176574
N23	N	-0.990048	-0.229978	0.171904
C24	C	-0.990111	-0.589180	0.171876
C25	C	-0.921694	-0.551565	0.274695
C26	C	-0.921854	-0.448739	0.275071
C27	C	-0.990079	-0.410976	0.171890
C28	C	-1.077611	-0.448274	0.200511
C29	C	-1.077228	-0.551131	0.201242
C30	C	-0.971774	-0.551281	0.040130
C31	C	-0.969774	-0.448418	0.041009
C32	C	-0.990067	-0.310262	0.171895
C33	C	-0.990129	-0.689893	0.171873
C34	C	-0.143122	-0.000089	0.162707
C35	C	-0.236090	-0.000093	0.165137
C36	C	-0.994867	-0.000081	-0.057711
C37	C	-0.992403	-0.000078	-0.197121
N38	N	-0.990142	0.229823	0.171862
C39	C	-0.991226	-0.080514	-0.262614
C40	C	-0.988918	-0.080511	-0.393606
C41	C	-0.988960	0.080373	-0.393602
C42	C	-0.991274	0.080368	-0.262613
C43	C	-0.991198	-0.173399	-0.262617
C44	C	-0.988890	-0.173396	-0.393610
C45	C	-0.985317	-0.000073	0.401487
C46	C	-0.987781	-0.000070	0.540897
H47	H	-0.403647	0.090012	0.338402
Cl48	Cl	-0.987543	0.181500	-0.475943
Cl49	Cl	-1.102943	-0.408491	0.347163
H50	H	-0.577436	0.060225	-0.019060
H51	H	-0.434270	-0.061053	-0.022257
Cl52	Cl	-1.041631	-0.408749	-0.082660
Cl53	Cl	-0.555062	0.084804	0.401497
H54	H	-1.129770	-0.576012	0.129306
Cl55	Cl	-0.897604	-0.228441	-0.430773
Cl56	Cl	-0.406959	0.180732	0.159449
H57	H	-0.931560	-0.202213	-0.210135
Cl58	Cl	-0.423197	0.092643	-0.052323
H59	H	-0.856815	-0.423523	0.258017
H60	H	-0.578393	-0.060293	-0.018173
H61	H	-1.093270	-0.575112	0.297323
Cl62	Cl	-1.080943	-0.217908	-0.474645
H63	H	-0.559078	-0.147349	0.193393
Cl64	Cl	-1.082453	-0.228478	-0.225463
Cl65	Cl	-0.556007	-0.089783	0.398863
H66	H	-0.856446	-0.576321	0.257922
H67	H	-0.404526	-0.087067	0.340732
H68	H	-1.129770	-0.423810	0.127615
Cl69	Cl	-0.875287	-0.591370	-0.002337
H70	H	-0.415398	-0.147004	0.191615
H71	H	-0.560571	0.147335	0.199397
Cl72	Cl	-0.939660	-0.591435	0.424796
H73	H	-0.933643	-0.424124	0.372837
Cl74	Cl	-0.870356	-0.410783	0.007468
H75	H	-1.021658	-0.575605	-0.036384
H76	H	-0.992243	0.145867	-0.209296
