data_functionalizedCrystal
_audit_creation_method	'MofGen! by Chris Wilmer'
_symmetry_space_group_name_H-M	'P1'
_symmetry_Int_Tables_number	1
_symmetry_cell_setting	triclinic
loop_
_symmetry_equiv_pos_as_xyz
  x,y,z
_cell_length_a	23.196402
_cell_length_b	23.196402
_cell_length_c	23.196401
_cell_angle_alpha	60.008520
_cell_angle_beta	90.011299
_cell_angle_gamma	59.996656
loop_
_atom_site_label
_atom_site_type_symbol
_atom_site_fract_x
_atom_site_fract_y
_atom_site_fract_z
Zr1	Zr	0.555342	0.631007	-0.075653
O2	O	0.463266	0.751280	-0.167700
O3	O	0.583570	0.510736	-0.047438
O4	O	0.583539	0.631008	-0.167705
O5	O	0.463320	0.631007	0.047439
O6	O	0.678411	0.631005	-0.167707
O7	O	0.463297	0.631009	-0.047432
O8	O	0.678467	0.415862	0.047430
O9	O	0.463264	0.846151	-0.167698
O10	O	0.666409	0.560202	-0.035403
O11	O	0.595624	0.560203	0.035400
O12	O	0.595587	0.701807	-0.106200
O13	O	0.524803	0.701808	-0.035397
Zr14	Zr	0.706688	0.631001	0.075652
Zr15	Zr	0.706652	0.631003	-0.075656
Zr16	Zr	0.555378	0.631004	0.075656
Zr17	Zr	0.555339	0.782315	-0.075650
Zr18	Zr	0.706691	0.479693	0.075649
O19	O	0.678460	0.751271	0.047437
O20	O	0.678409	0.751275	-0.167705
O21	O	0.463317	0.751277	0.047441
O22	O	0.798765	0.510727	0.167700
O23	O	0.798713	0.510731	-0.047442
O24	O	0.583622	0.510733	0.167704
O25	O	0.798711	0.631000	-0.047440
O26	O	0.678491	0.631000	0.167705
O27	O	0.583619	0.631002	0.167707
O28	O	0.798733	0.630999	0.047432
O29	O	0.583535	0.846148	-0.167701
O30	O	0.678496	0.415860	0.167700
O31	O	0.798767	0.415857	0.167698
O32	O	0.798738	0.415859	0.047427
O33	O	0.463292	0.846149	-0.047428
O34	O	0.583563	0.846146	-0.047431
O35	O	0.666443	0.560200	0.106200
O36	O	0.737228	0.560200	0.035397
O37	O	0.666406	0.701804	-0.035400
O38	O	0.595621	0.701805	0.035403
C39	C	0.631019	0.441741	-0.000004
C40	C	0.631020	0.377507	-0.000006
C41	C	0.667966	-0.085337	-0.036946
C42	C	0.667964	-0.024978	-0.036953
C43	C	0.631016	0.005205	0.000006
C44	C	0.594052	-0.024962	0.036959
C45	C	0.594049	-0.085314	0.036958
C46	C	0.636311	0.067231	0.061911
C47	C	0.636319	0.127578	0.061913
C48	C	0.631021	0.191353	0.000006
C49	C	0.625729	0.194765	-0.061903
C50	C	0.625726	0.134413	-0.061903
C51	C	0.631015	0.070646	0.000010
C52	C	0.667976	0.286964	-0.036955
C53	C	0.667970	0.347328	-0.036964
C54	C	0.594063	0.347336	0.036955
C55	C	0.594065	0.286980	0.036956
C56	C	0.631026	0.256794	0.000003
C57	C	0.441750	0.631009	0.000004
C58	C	0.377515	0.631010	0.000005
C59	C	0.347330	0.631017	-0.052264
C60	C	0.286979	0.631010	-0.052264
C61	C	0.256807	0.631012	0.000000
C62	C	0.287001	0.631001	0.052278
C63	C	0.347355	0.631000	0.052281
C64	C	0.137435	0.678519	0.016287
C65	C	0.077079	0.678525	0.016280
C66	C	0.070656	0.631011	-0.000004
C67	C	0.124591	0.583502	-0.016295
C68	C	0.184945	0.583501	-0.016292
C69	C	0.191363	0.631012	0.000003
C70	C	-0.024967	0.631009	-0.052275
C71	C	-0.085317	0.630996	-0.052271
C72	C	-0.085298	0.630995	0.052268
C73	C	-0.024945	0.630999	0.052266
C74	C	0.005214	0.631010	-0.000009
C75	C	0.820280	0.630999	-0.000004
C76	C	0.884515	0.630997	-0.000006
C77	C	0.630970	0.631007	-0.189265
C78	C	0.630955	0.631008	-0.253499
C79	C	0.631011	0.820267	0.000004
C80	C	0.631010	0.884501	0.000005
C81	C	0.593990	0.704922	-0.320628
C82	C	0.594008	0.704923	-0.380983
C83	C	0.630981	0.631006	-0.374206
C84	C	0.667954	0.557082	-0.307065
C85	C	0.667940	0.557083	-0.246712
C86	C	0.625732	0.574376	-0.441524
C87	C	0.625740	0.574378	-0.501877
C88	C	0.631025	0.630999	-0.560353
C89	C	0.636288	0.687633	-0.558475
C90	C	0.636275	0.687634	-0.498122
C91	C	0.631000	0.630996	-0.439644
C92	C	0.594078	0.704920	-0.692928
C93	C	0.594101	0.704918	-0.753283
C94	C	0.668043	0.557075	-0.679363
C95	C	0.668024	0.557079	-0.619011
C96	C	0.631038	0.631004	-0.625798
C97	C	0.631060	0.631001	0.189264
C98	C	0.631076	0.631000	0.253499
C99	C	0.820284	0.441736	-0.000008
C100	C	0.884521	0.377500	-0.000011
C101	C	0.631064	0.441738	0.189260
C102	C	0.631081	0.377503	0.253493
C103	C	0.820330	0.441733	0.189256
C104	C	0.884581	0.377496	0.253488
C105	C	0.441701	0.820274	-0.189257
C106	C	0.377449	0.884511	-0.253489
C107	C	0.441746	0.820271	0.000008
C108	C	0.377510	0.884507	0.000010
C109	C	0.630966	0.820270	-0.189261
C110	C	0.630949	0.884505	-0.253494
C111	C	0.877720	0.347336	-0.036976
C112	C	0.938071	0.286988	-0.036992
C113	C	1.005222	0.256801	-0.000040
C114	C	1.012021	0.286972	0.036926
C115	C	0.951671	0.347323	0.036938
C116	C	0.668055	0.347336	0.320621
C117	C	0.668068	0.286989	0.380981
C118	C	0.631111	0.256805	0.374211
C119	C	0.594132	0.286978	0.307076
C120	C	0.594115	0.347328	0.246718
C121	C	0.951710	0.347330	0.246693
C122	C	1.012087	0.286981	0.307040
C123	C	1.005334	0.256796	0.374181
C124	C	0.938198	0.286968	0.380974
C125	C	0.877823	0.347320	0.320628
C126	C	0.310320	0.914685	-0.246694
C127	C	0.249943	0.975053	-0.307041
C128	C	0.256697	1.005241	-0.374182
C129	C	0.323832	0.975065	-0.380975
C130	C	0.384208	0.914702	-0.320629
C131	C	0.384310	0.914678	0.036968
C132	C	0.323959	0.975042	0.036969
C133	C	0.256808	1.005231	0.000014
C134	C	0.250009	0.975058	-0.036949
C135	C	0.310359	0.914699	-0.036952
C136	C	0.667914	0.914669	-0.246702
C137	C	0.667912	0.975016	-0.307050
C138	C	0.630941	1.005203	-0.374190
C139	C	0.593975	0.975033	-0.380981
C140	C	0.593981	0.914682	-0.320633
H141	H	0.621413	0.246694	-0.112314
O142	O	0.631145	0.191704	0.439321
H143	H	0.576115	0.214862	0.439300
H144	H	0.207529	1.054392	-0.423314
O145	O	0.707916	0.379888	0.327931
H146	H	0.733619	0.348771	0.384754
O147	O	0.805419	0.379849	0.327959
H148	H	0.776151	0.368263	0.302232
H149	H	0.698184	0.262429	0.435639
O150	O	0.805297	0.379898	-0.076844
H151	H	0.799161	0.329238	-0.055502
O152	O	0.331302	1.007566	0.076850
H153	H	0.360620	1.035042	0.055506
H154	H	1.054357	0.207659	-0.000055
H155	H	0.698021	0.890100	-0.192039
H156	H	0.563874	0.999620	-0.435654
O157	O	0.641964	0.748704	-0.496093
H158	H	0.594504	0.786946	-0.487729
H159	H	0.329322	0.999652	-0.435648
H160	H	0.698058	-0.000415	-0.067044
H161	H	0.640635	0.124789	0.112325
O162	O	0.642029	-0.001558	0.128687
H163	H	0.645722	0.006199	0.171737
O164	O	0.930728	0.254455	-0.076864
H165	H	0.956474	0.187874	-0.039560
H166	H	0.262398	0.631015	-0.094829
H167	H	-0.109892	0.630997	-0.094833
H168	H	1.066704	0.262385	0.067011
O169	O	0.554294	0.254398	0.299778
H170	H	0.560537	0.207352	0.353031
H171	H	0.698060	0.371890	-0.067058
H172	H	0.563963	0.765113	-0.698455
H173	H	0.564008	0.371883	0.192062
H174	H	0.438983	0.890103	0.067066
H175	H	0.957218	0.371875	0.067043
H176	H	1.066746	0.262420	0.301497
H177	H	0.563954	-0.109872	0.067049
H178	H	0.621423	0.528268	-0.393915
O179	O	0.456611	0.882148	-0.327960
H180	H	0.451156	0.913278	-0.384787
O181	O	0.959002	0.379890	0.174281
H182	H	1.015829	0.348775	0.179706
O183	O	0.707785	1.007549	-0.299716
H184	H	0.686422	1.035054	-0.270417
O185	O	1.070459	0.191694	0.439264
H186	H	1.070429	0.136698	0.471132
O187	O	0.191725	1.070313	0.000048
H188	H	0.191763	1.125303	-0.023062
H189	H	0.932710	0.262382	0.435648
O190	O	0.303028	0.882135	-0.174282
H191	H	0.246202	0.913275	-0.179707
H192	H	0.621451	0.528267	-0.503402
H193	H	0.304812	0.890136	-0.067046
H194	H	0.195285	0.999612	-0.301496
H195	H	0.195327	0.999647	-0.067036
O196	O	0.630926	1.070306	-0.439278
H197	H	0.662836	1.086213	-0.423268
O198	O	0.554100	0.882160	-0.327962
H199	H	0.528386	0.913301	-0.384789
O200	O	0.007576	0.631006	-0.108647
H201	H	-0.023548	0.630995	-0.144987
H202	H	0.621416	0.137196	-0.112312
O203	O	0.707816	-0.117883	-0.076813
H204	H	0.733507	-0.086758	-0.102516
O205	O	0.707827	0.254411	-0.076820
H206	H	0.733515	0.285539	-0.102528
H207	H	-0.000370	0.630999	0.094826
O208	O	0.554223	0.379877	0.076827
H209	H	0.513371	0.446458	0.039521
O210	O	0.554182	0.254464	0.076788
H211	H	0.528482	0.285597	0.102480
H212	H	0.371886	0.631023	-0.094828
O213	O	0.554231	0.007555	0.076854
H214	H	0.560458	0.054573	0.070664
H215	H	0.119364	0.544815	-0.029558
O216	O	0.243119	0.532261	-0.033859
H217	H	0.264114	0.467137	0.004623
O218	O	-0.117824	0.630991	0.108647
H219	H	-0.172962	0.686262	0.083521
O220	O	0.018939	0.729704	0.033915
H221	H	0.033560	0.762709	0.045276
H222	H	0.142681	0.717161	0.029606
H223	H	0.262433	0.631000	0.094833
H224	H	0.563876	0.765117	-0.326160
O225	O	0.379916	0.630995	0.108657
H226	H	0.348799	0.630997	0.145000
O227	O	0.554138	0.784644	-0.453400
H228	H	0.497325	0.820083	-0.459558
O229	O	0.641996	0.748706	-0.621536
H230	H	0.641132	0.739186	-0.663816
H231	H	0.564003	0.765110	-0.807944
H232	H	0.698148	0.496890	-0.673844
H233	H	0.698058	0.496898	-0.301551
O234	O	0.707883	0.477357	-0.546602
H235	H	0.733591	0.425956	-0.552026
H236	H	0.698042	0.496891	-0.192051
