data_functionalizedCrystal
_audit_creation_method	'MofGen! by Chris Wilmer'
_symmetry_space_group_name_H-M	'P1'
_symmetry_Int_Tables_number	1
_symmetry_cell_setting	triclinic
loop_
_symmetry_equiv_pos_as_xyz
  x,y,z
_cell_length_a	12.594517
_cell_length_b	12.594516
_cell_length_c	14.908308
_cell_angle_alpha	93.271498
_cell_angle_beta	93.287766
_cell_angle_gamma	90.011939
loop_
_atom_site_label
_atom_site_type_symbol
_atom_site_fract_x
_atom_site_fract_y
_atom_site_fract_z
Zn1	Zn	1.592524	-0.458554	-0.509898
Zn2	Zn	2.092524	0.041446	-0.009898
Zn3	Zn	1.602693	-0.626291	-0.359053
Zn4	Zn	2.102693	-0.126291	0.140947
Zn5	Zn	1.424804	-0.448316	-0.359080
Zn6	Zn	1.924804	0.051684	0.140920
Zn7	Zn	1.414510	-0.636477	-0.509889
Zn8	Zn	1.914510	-0.136477	-0.009889
O9	O	1.508633	-0.542409	-0.434480
O10	O	2.008633	-0.042409	0.065520
O11	O	1.742819	-0.480826	-0.489881
O12	O	2.242819	0.019174	0.010119
O13	O	1.587659	-0.594134	-0.232814
O14	O	2.087659	-0.094134	0.267186
O15	O	1.447104	-0.300729	-0.379102
O16	O	1.947104	0.199271	0.120898
O17	O	1.750290	-0.604062	-0.379056
O18	O	2.250290	-0.104062	0.120944
O19	O	1.570327	-0.308251	-0.489907
O20	O	2.070327	0.191749	0.010093
O21	O	1.456965	-0.463377	-0.232833
O22	O	1.956965	0.036623	0.267167
O23	O	1.274492	-0.473254	-0.379092
O24	O	1.774492	0.026746	0.120908
O25	O	1.429561	-0.621423	-0.636133
O26	O	1.929561	-0.121423	-0.136133
O27	O	1.266930	-0.611495	-0.489891
O28	O	1.766930	-0.111495	0.010109
O29	O	1.560346	-0.490703	-0.636140
O30	O	2.060346	0.009297	-0.136140
O31	O	1.577678	-0.776587	-0.379047
O32	O	2.077678	-0.276587	0.120953
O33	O	1.439421	-0.784071	-0.489865
O34	O	1.939421	-0.284071	0.010135
C35	C	1.232091	-0.542370	-0.434494
C36	C	1.732091	-0.042370	0.065506
C37	C	1.113783	-0.542380	-0.434521
C38	C	1.613783	-0.042380	0.065479
C39	C	1.040456	-0.617701	-0.494668
C40	C	1.540456	-0.117701	0.005332
C41	C	0.968136	-0.522166	-0.516853
C42	C	1.468136	-0.022166	-0.016853
C43	C	0.975306	-0.637994	-0.412316
C44	C	1.475306	-0.137994	0.087684
C45	C	1.043019	-0.446796	-0.456749
C46	C	1.543019	0.053204	0.043251
C47	C	1.050198	-0.562687	-0.352174
C48	C	1.550198	-0.062687	0.147826
C49	C	0.977912	-0.467083	-0.374328
C50	C	1.477912	0.032917	0.125672
C51	C	1.508564	-0.818950	-0.434471
C52	C	2.008564	-0.318950	0.065529
C53	C	1.508629	-0.937257	-0.434498
C54	C	2.008629	-0.437257	0.065502
C55	C	1.433427	-1.010616	-0.494729
C56	C	1.933427	-0.510616	0.005271
C57	C	1.413103	-1.075874	-0.412414
C58	C	1.913103	-0.575874	0.087586
C59	C	1.529050	-1.082799	-0.516827
C60	C	2.029050	-0.582799	-0.016827
C61	C	1.488256	-1.000953	-0.352138
C62	C	1.988256	-0.500953	0.147862
C63	C	1.604245	-1.007876	-0.456608
C64	C	2.104245	-0.507876	0.043392
C65	C	1.583961	-1.073098	-0.374235
C66	C	2.083961	-0.573098	0.125765
C67	C	1.786254	-0.542450	-0.434467
C68	C	2.286254	-0.042450	0.065533
C69	C	1.904560	-0.542467	-0.434461
C70	C	2.404560	-0.042467	0.065539
C71	C	1.492671	-0.558342	-0.669785
C72	C	1.992671	-0.058342	-0.169785
C73	C	1.485869	-0.565131	-0.770058
C74	C	1.985869	-0.065131	-0.270058
C75	C	1.508730	-0.264790	-0.434509
C76	C	2.008730	0.235210	0.065491
C77	C	1.508771	-0.146486	-0.434521
C78	C	2.008771	0.353514	0.065479
C79	C	1.609271	-0.441746	-0.958491
C80	C	2.109271	0.058254	-0.458491
C81	C	1.602883	-0.448121	-1.052707
C82	C	2.102883	0.051879	-0.552707
C83	C	1.466701	-0.584252	-1.052707
C84	C	1.966701	-0.084252	-0.552707
C85	C	1.473089	-0.577876	-0.958491
C86	C	1.973089	-0.077876	-0.458491
C87	C	1.544377	-0.506622	-0.911387
C88	C	2.044377	-0.006622	-0.411387
C89	C	1.550770	-0.500252	-0.817170
C90	C	2.050770	-0.000252	-0.317170
C91	C	1.414583	-0.636376	-0.817171
C92	C	1.914583	-0.136376	-0.317171
C93	C	1.408195	-0.642752	-0.911386
C94	C	1.908195	-0.142752	-0.411386
C95	C	1.524594	-0.526462	-0.200090
C96	C	2.024594	-0.026462	0.299910
C97	C	1.531602	-0.519373	-0.099818
C98	C	2.031602	-0.019373	0.400182
H99	H	0.945505	-0.718817	-0.393562
H100	H	1.445505	-0.218817	0.106438
H101	H	1.408661	-0.642263	-1.091075
H102	H	1.908661	-0.142263	-0.591075
O103	O	1.711283	-0.968206	-0.481285
O104	O	2.211283	-0.468206	0.018715
H105	H	1.773765	-0.994445	-0.431898
H106	H	2.273765	-0.494445	0.068102
O107	O	0.920632	-0.499451	-0.609062
O108	O	1.420632	0.000549	-0.109062
H109	H	0.872476	-0.425756	-0.604313
H110	H	1.372476	0.074244	-0.104313
O111	O	1.349061	-0.974079	-0.562103
O112	O	1.849061	-0.474079	-0.062103
H113	H	1.350251	-0.885948	-0.561946
H114	H	1.850251	-0.385948	-0.061946
O115	O	1.627657	-0.423400	-0.766366
O116	O	2.127657	0.076600	-0.266366
H117	H	1.684716	-0.468139	-0.723442
H118	H	2.184716	0.031861	-0.223442
O119	O	1.551864	-1.130174	-0.609039
O120	O	2.051864	-0.630174	-0.109039
H121	H	1.489262	-1.105256	-0.658890
H122	H	1.989262	-0.605256	-0.158890
H123	H	1.072679	-0.365955	-0.475584
H124	H	1.572679	0.134045	0.024416
O125	O	1.306083	-1.115503	-0.387638
O126	O	1.806083	-0.615503	0.112362
H127	H	1.243732	-1.090611	-0.437720
H128	H	1.743732	-0.590611	0.062280
H129	H	1.667322	-0.383733	-0.920138
H130	H	2.167322	0.116267	-0.420138
H131	H	1.361744	-0.689206	-0.778808
H132	H	1.861744	-0.189206	-0.278808
H133	H	1.470948	-0.965313	-0.282503
H134	H	1.970948	-0.465313	0.217497
H135	H	1.086080	-0.579864	-0.282581
H136	H	1.586080	-0.079864	0.217419
H137	H	1.655724	-0.395290	-1.091056
H138	H	2.155724	0.104710	-0.591056
H139	H	1.647621	-1.100468	-0.323251
H140	H	2.147621	-0.600468	0.176749
O141	O	1.331303	-0.719598	-0.962192
O142	O	1.831303	-0.219598	-0.462192
H143	H	1.337764	-0.713136	-1.035620
H144	H	1.837764	-0.213136	-0.535620
H145	H	1.068051	-0.681286	-0.545597
H146	H	1.568051	-0.181286	-0.045597
H147	H	0.950513	-0.403354	-0.323438
H148	H	1.450513	0.096646	0.176562
