data_functionalizedCrystal
_audit_creation_method	'MofGen! by Chris Wilmer'
_symmetry_space_group_name_H-M	'P1'
_symmetry_Int_Tables_number	1
_symmetry_cell_setting	triclinic
loop_
_symmetry_equiv_pos_as_xyz
  x,y,z
_cell_length_a	16.109301
_cell_length_b	26.210047
_cell_length_c	27.732025
_cell_angle_alpha	89.990146
_cell_angle_beta	83.047475
_cell_angle_gamma	90.013716
loop_
_atom_site_label
_atom_site_type_symbol
_atom_site_fract_x
_atom_site_fract_y
_atom_site_fract_z
O1	O	1.102369	0.042380	0.062130
O2	O	1.602369	0.542380	0.562130
O3	O	0.860210	0.042386	0.069862
O4	O	1.360210	0.542386	0.569862
O5	O	0.988820	0.042398	-0.004370
O6	O	1.488820	0.542398	0.495630
O7	O	0.973758	0.042368	0.136362
O8	O	1.473758	0.542368	0.636362
O9	O	0.988780	-0.042460	-0.004370
O10	O	1.488780	0.457540	0.495630
O11	O	0.860170	-0.042472	0.069862
O12	O	1.360170	0.457528	0.569862
O13	O	1.102328	-0.042478	0.062130
O14	O	1.602328	0.457522	0.562130
Cu15	Cu	0.981245	-0.050223	0.065996
Cu16	Cu	1.481245	0.449777	0.565996
Cu17	Cu	0.981293	0.050131	0.065996
Cu18	Cu	1.481293	0.550131	0.565996
O19	O	0.973718	-0.042490	0.136362
O20	O	1.473718	0.457510	0.636362
C21	C	0.829219	-0.000042	0.069549
C22	C	1.329219	0.499958	0.569549
C23	C	0.736935	-0.000039	0.068610
C24	C	1.236935	0.499961	0.568610
C25	C	0.514139	-0.000054	0.110474
C26	C	1.014139	0.499946	0.610474
C27	C	0.427429	-0.000057	0.109588
C28	C	0.927429	0.499943	0.609588
C29	C	0.448406	-0.000035	0.021515
C30	C	0.948406	0.499965	0.521515
C31	C	0.535114	-0.000036	0.022401
C32	C	1.035114	0.499964	0.522401
C33	C	0.567978	-0.000042	0.066883
C34	C	1.067978	0.499958	0.566883
C35	C	0.394561	-0.000045	0.065110
C36	C	0.894561	0.499955	0.565110
C37	C	0.300547	-0.000048	0.064149
C38	C	0.800547	0.499952	0.564149
C39	C	0.661997	-0.000040	0.067844
C40	C	1.161997	0.499960	0.567844
N41	N	0.981218	-0.120807	0.065996
N42	N	1.481218	0.379193	0.565996
C43	C	1.031325	-0.473329	0.095317
C44	C	1.531325	0.026671	0.595317
C45	C	1.031350	-0.686988	0.095316
C46	C	1.531350	-0.186988	0.595316
O47	O	1.073934	-0.714617	0.120241
O48	O	1.573934	-0.214617	0.620241
N49	N	0.981313	-0.713701	0.065991
N50	N	1.481313	-0.213701	0.565991
C51	C	0.931270	-0.686996	0.036662
C52	C	1.431270	-0.186996	0.536662
O53	O	0.888717	-0.714620	0.011715
O54	O	1.388717	-0.214620	0.511715
C55	C	0.931250	-0.473339	0.036660
C56	C	1.431250	0.026661	0.536660
C57	C	0.981284	-0.446628	0.065991
C58	C	1.481284	0.053372	0.565991
C59	C	1.081356	-0.446619	0.124645
C60	C	1.581356	0.053381	0.624645
C61	C	1.081346	-0.393208	0.124646
C62	C	1.581346	0.106792	0.624646
C63	C	1.031305	-0.366506	0.095320
C64	C	1.531305	0.133494	0.595320
C65	C	0.981274	-0.393217	0.065992
C66	C	1.481274	0.106783	0.565992
C67	C	0.881212	-0.446635	0.007328
C68	C	1.381212	0.053365	0.507328
C69	C	0.881213	-0.393217	0.007330
C70	C	1.381213	0.106783	0.507330
C71	C	0.931248	-0.366507	0.036660
C72	C	1.431248	0.133493	0.536660
C73	C	0.931223	-0.313104	0.036668
C74	C	1.431223	0.186896	0.536668
N75	N	0.981261	-0.286391	0.065993
N76	N	1.481261	0.213609	0.565993
C77	C	1.031302	-0.313092	0.095319
C78	C	1.531302	0.186908	0.595319
C79	C	0.931282	-0.799170	0.036666
C80	C	1.431282	-0.299170	0.536666
C81	C	0.931286	-0.852584	0.036667
C82	C	1.431286	-0.352584	0.536667
C83	C	1.031368	-0.852572	0.095321
C84	C	1.531368	-0.352572	0.595321
C85	C	1.031359	-0.799157	0.095322
C86	C	1.531359	-0.299157	0.595322
C87	C	0.981320	-0.772456	0.065991
C88	C	1.481320	-0.272456	0.565991
C89	C	1.031276	-0.200924	0.095321
C90	C	1.531276	0.299076	0.595321
C91	C	1.031259	-0.147508	0.095322
C92	C	1.531259	0.352492	0.595322
C93	C	0.931181	-0.147525	0.036666
C94	C	1.431181	0.352475	0.536666
C95	C	0.931194	-0.200936	0.036667
C96	C	1.431194	0.299064	0.536667
C97	C	0.981249	-0.227635	0.065996
C98	C	1.481249	0.272365	0.565996
O99	O	0.888668	-0.285443	0.011753
O100	O	1.388668	0.214557	0.511753
O101	O	1.073862	-0.285459	0.120254
O102	O	1.573862	0.214541	0.620254
C103	C	1.031336	-0.526741	0.095315
C104	C	1.531336	-0.026741	0.595315
C105	C	0.981305	-0.553451	0.065987
C106	C	1.481305	-0.053451	0.565987
C107	C	0.931263	-0.526750	0.036661
C108	C	1.431263	-0.026750	0.536661
C109	C	0.981308	-0.606865	0.065988
C110	C	1.481308	-0.106865	0.565988
C111	C	1.031349	-0.633566	0.095314
C112	C	1.531349	-0.133566	0.595314
C113	C	1.081387	-0.606853	0.124639
C114	C	1.581387	-0.106853	0.624639
C115	C	1.081377	-0.553442	0.124641
C116	C	1.581377	-0.053442	0.624641
C117	C	0.881226	-0.553463	0.007336
C118	C	1.381226	-0.053463	0.507336
C119	C	0.881239	-0.606875	0.007337
C120	C	1.381239	-0.106875	0.507337
C121	C	0.931281	-0.633576	0.036663
C122	C	1.431281	-0.133576	0.536663
C123	C	1.133319	-0.000049	0.062443
C124	C	1.633319	0.499951	0.562443
C125	C	1.225603	-0.000049	0.063382
C126	C	1.725603	0.499951	0.563382
C127	C	0.988487	-0.000026	-0.022378
C128	C	1.488487	0.499974	0.477622
C129	C	0.987543	-0.000010	-0.076038
C130	C	1.487543	0.499990	0.423962
N131	N	0.981327	0.120715	0.065993
N132	N	1.481327	0.620715	0.565993
C133	C	0.980863	0.046216	-0.459231
C134	C	1.480863	0.546216	0.040769
C135	C	0.984393	0.046233	-0.257557
C136	C	1.484393	0.546233	0.242443
O137	O	0.984902	0.085573	-0.231487
O138	O	1.484902	0.585573	0.268513
N139	N	0.984813	-0.000022	-0.232334
N140	N	1.484813	0.499978	0.267666
C141	C	0.984355	-0.046284	-0.257533
C142	C	1.484355	0.453716	0.242467
O143	O	0.984801	-0.085627	-0.231452
O144	O	1.484801	0.414373	0.268548
C145	C	0.980831	-0.046300	-0.459207
C146	C	1.480831	0.453700	0.040793
C147	C	0.980403	-0.000042	-0.484426
C148	C	1.480403	0.499958	0.015574
C149	C	0.980436	0.092470	-0.484451
C150	C	1.480436	0.592470	0.015549
C151	C	0.979549	0.092466	-0.534866
C152	C	1.479549	0.592466	-0.034866
C153	C	0.979089	0.046207	-0.560061
C154	C	1.479089	0.546207	-0.060061
C155	C	0.979516	-0.000047	-0.534842
C156	C	1.479516	0.499953	-0.034842
C157	C	0.980379	-0.092562	-0.484405
C158	C	1.480379	0.407438	0.015595
C159	C	0.979500	-0.092562	-0.534827
C160	C	1.479500	0.407438	-0.034827
C161	C	0.979072	-0.046304	-0.560047
C162	C	1.479072	0.453696	-0.060047
C163	C	0.978169	-0.046310	-0.610452
C164	C	1.478169	0.453690	-0.110452
N165	N	0.977749	-0.000055	-0.635675
N166	N	1.477749	0.499945	-0.135675
C167	C	0.978209	0.046203	-0.610480
C168	C	1.478209	0.546203	-0.110480
C169	C	0.986203	-0.046273	-0.151651
C170	C	1.486203	0.453727	0.348349
C171	C	0.987083	-0.046269	-0.101233
C172	C	1.487083	0.453731	0.398767
C173	C	0.987123	0.046248	-0.101261
C174	C	1.487123	0.546248	0.398739
C175	C	0.986237	0.046244	-0.151679
C176	C	1.486237	0.546244	0.348321
C177	C	0.985784	-0.000018	-0.176874
C178	C	1.485784	0.499982	0.323126
C179	C	0.976346	0.046190	-0.716355
C180	C	1.476346	0.546190	-0.216355
C181	C	0.975455	0.046182	-0.766775
C182	C	1.475455	0.546182	-0.266775
C183	C	0.975420	-0.046335	-0.766743
C184	C	1.475420	0.453665	-0.266743
C185	C	0.976306	-0.046327	-0.716328
C186	C	1.476306	0.453673	-0.216328
C187	C	0.976772	-0.000060	-0.691135
C188	C	1.476772	0.499940	-0.191135
O189	O	0.977669	-0.085630	-0.636554
O190	O	1.477669	0.414370	-0.136554
O191	O	0.977781	0.085540	-0.636570
O192	O	1.477781	0.585540	-0.136570
C193	C	0.981750	0.046221	-0.408816
C194	C	1.481750	0.546221	0.091184
C195	C	0.982177	-0.000033	-0.383596
C196	C	1.482177	0.499967	0.116404
C197	C	0.981717	-0.046292	-0.408791
C198	C	1.481717	0.453708	0.091209
C199	C	0.983056	-0.000029	-0.333178
C200	C	1.483056	0.499971	0.166822
C201	C	0.983517	0.046229	-0.307982
C202	C	1.483517	0.546229	0.192018
C203	C	0.983097	0.092484	-0.333205
C204	C	1.483097	0.592484	0.166795
C205	C	0.982210	0.092479	-0.383621
C206	C	1.482210	0.592479	0.116379
C207	C	0.982136	-0.092547	-0.383568
C208	C	1.482136	0.407453	0.116432
C209	C	0.983022	-0.092538	-0.333153
C210	C	1.483022	0.407462	0.166847
C211	C	0.983482	-0.046280	-0.307958
C212	C	1.483482	0.453720	0.192042
C213	C	0.974052	-0.000065	0.154371
C214	C	1.474052	0.499935	0.654371
C215	C	0.974995	-0.000077	0.208030
C216	C	1.474995	0.499923	0.708030
H217	H	1.072036	-0.222656	0.119203
H218	H	1.572036	0.277344	0.619203
H219	H	0.985835	-0.083947	-0.172160
H220	H	1.485835	0.416053	0.327840
C221	C	0.974899	-0.097215	-0.794468
C222	C	1.474899	0.402785	-0.294468
C223	C	0.902776	-0.135373	-0.782035
C224	C	1.402776	0.364627	-0.282035
C225	C	0.902254	-0.186251	-0.809764
C226	C	1.402254	0.313749	-0.309764
C227	C	0.973854	-0.198971	-0.849927
C228	C	1.473854	0.301029	-0.349927
C229	C	1.045982	-0.160811	-0.862363
C230	C	1.545982	0.339189	-0.362363
C231	C	1.046504	-0.109933	-0.834633
C232	C	1.546504	0.390067	-0.334633
H233	H	0.849769	-0.125958	-0.752302
H234	H	1.349769	0.374042	-0.252302
H235	H	0.848860	-0.214500	-0.800558
H236	H	1.348860	0.285500	-0.300558
H237	H	0.973467	-0.236634	-0.870454
H238	H	1.473467	0.263366	-0.370454
H239	H	1.098989	-0.170226	-0.892096
H240	H	1.598989	0.329774	-0.392096
H241	H	1.099898	-0.081685	-0.843839
H242	H	1.599898	0.418315	-0.343839
H243	H	0.578952	-0.000028	-0.013099
H244	H	1.078952	0.499972	0.486901
C245	C	0.983495	-0.143427	-0.305416
C246	C	1.483495	0.356573	0.194584
C247	C	0.911145	-0.181596	-0.306841
C248	C	1.411145	0.318404	0.193159
C249	C	0.911628	-0.232483	-0.279107
C250	C	1.411628	0.267517	0.220893
C251	C	0.984460	-0.245201	-0.249947
C252	C	1.484460	0.254799	0.250053
C253	C	1.056815	-0.207031	-0.248521
C254	C	1.556815	0.292969	0.251479
C255	C	1.056333	-0.156144	-0.276255
C256	C	1.556333	0.343856	0.223745
H257	H	0.857226	-0.172182	-0.328428
H258	H	1.357226	0.327818	0.171572
H259	H	0.858066	-0.260739	-0.280163
H260	H	1.358066	0.239261	0.219837
H261	H	0.984817	-0.282870	-0.229417
H262	H	1.484817	0.217130	0.270583
H263	H	1.110735	-0.216444	-0.226934
H264	H	1.610735	0.283556	0.273066
H265	H	1.109895	-0.127888	-0.275199
H266	H	1.609895	0.372112	0.224801
H267	H	0.976621	-0.083994	-0.695790
H268	H	1.476621	0.416006	-0.195790
H269	H	0.976726	0.083865	-0.695850
H270	H	1.476726	0.583865	-0.195850
H271	H	0.383596	-0.000067	0.145085
H272	H	0.883596	0.499933	0.645085
C273	C	0.978991	-0.143451	-0.562542
C274	C	1.478991	0.356549	-0.062542
C275	C	0.906873	-0.181610	-0.550098
C276	C	1.406873	0.318390	-0.050098
C277	C	0.906359	-0.232498	-0.577812
C278	C	1.406359	0.267502	-0.077812
C279	C	0.977962	-0.245226	-0.617970
C280	C	1.477962	0.254774	-0.117970
C281	C	1.050085	-0.207066	-0.630417
C282	C	1.550085	0.292934	-0.130417
C283	C	1.050600	-0.156178	-0.602702
C284	C	1.550600	0.343822	-0.102702
H285	H	0.853864	-0.172189	-0.520368
H286	H	1.353864	0.327811	-0.020368
H287	H	0.852968	-0.260747	-0.568598
H288	H	1.352968	0.239253	-0.068598
H289	H	0.977581	-0.282896	-0.638486
H290	H	1.477581	0.217104	-0.138486
H291	H	1.103095	-0.216487	-0.660146
H292	H	1.603095	0.283513	-0.160146
H293	H	1.103990	-0.127929	-0.611916
H294	H	1.603990	0.372071	-0.111916
C295	C	0.981642	-0.143438	-0.411274
C296	C	1.481642	0.356562	0.088726
C297	C	0.909534	-0.181604	-0.398826
C298	C	1.409534	0.318396	0.101174
C299	C	0.909042	-0.232500	-0.426527
C300	C	1.409042	0.267500	0.073473
C301	C	0.980657	-0.245231	-0.466677
C302	C	1.480657	0.254769	0.033323
C303	C	1.052770	-0.207065	-0.479128
C304	C	1.552770	0.292935	0.020872
C305	C	1.053262	-0.156168	-0.451426
C306	C	1.553262	0.343832	0.048574
H307	H	0.856515	-0.172180	-0.369103
H308	H	1.356515	0.327820	0.130897
H309	H	0.855658	-0.260753	-0.417310
H310	H	1.355658	0.239247	0.082690
H311	H	0.980293	-0.282908	-0.487183
H312	H	1.480293	0.217092	0.012817
H313	H	1.105789	-0.216488	-0.508851
H314	H	1.605789	0.283512	-0.008851
H315	H	1.106646	-0.127915	-0.460643
H316	H	1.606646	0.372085	0.039357
H317	H	0.981862	0.130147	-0.404150
H318	H	1.481862	0.630147	0.095850
C319	C	0.550290	-0.000067	0.159402
C320	C	1.050290	0.499933	0.659402
C321	C	0.491064	-0.000082	0.207353
C322	C	0.991064	0.499918	0.707353
C323	C	0.527212	-0.000097	0.256282
C324	C	1.027212	0.499903	0.756282
C325	C	0.622586	-0.000097	0.257261
C326	C	1.122586	0.499903	0.757261
C327	C	0.681818	-0.000081	0.209309
C328	C	1.181818	0.499919	0.709309
C329	C	0.645670	-0.000066	0.160380
C330	C	1.145670	0.499934	0.660380
H331	H	0.420457	-0.000083	0.206629
H332	H	0.920457	0.499917	0.706629
H333	H	0.483364	-0.000109	0.291779
H334	H	0.983364	0.499891	0.791779
H335	H	0.649345	-0.000108	0.293482
H336	H	1.149345	0.499892	0.793482
H337	H	0.752424	-0.000081	0.210033
H338	H	1.252424	0.499919	0.710033
H339	H	0.689517	-0.000054	0.124883
H340	H	1.189517	0.499946	0.624883
H341	H	0.421638	-0.000033	-0.014701
H342	H	0.921638	0.499967	0.485299
C343	C	0.876244	-0.881963	0.004405
C344	C	1.376244	-0.381963	0.504405
C345	C	0.808218	-0.918700	0.027635
C346	C	1.308218	-0.418700	0.527635
C347	C	0.753180	-0.948077	-0.004631
C348	C	1.253180	-0.448077	0.495369
C349	C	0.766168	-0.940718	-0.060126
C350	C	1.266168	-0.440718	0.439874
C351	C	0.834197	-0.903979	-0.083358
C352	C	1.334197	-0.403979	0.416642
C353	C	0.889235	-0.874602	-0.051092
C354	C	1.389235	-0.374602	0.448908
H355	H	0.798601	-0.924149	0.068718
H356	H	1.298601	-0.424149	0.568718
H357	H	0.702821	-0.975274	0.012568
H358	H	1.202821	-0.475274	0.512568
H359	H	0.725426	-0.962465	-0.084011
H360	H	1.225426	-0.462465	0.415989
H361	H	0.843814	-0.898530	-0.124441
H362	H	1.343814	-0.398530	0.375559
H363	H	0.939594	-0.847405	-0.068291
H364	H	1.439594	-0.347405	0.431709
C365	C	0.826173	-0.524096	-0.024922
C366	C	1.326173	-0.024096	0.475078
C367	C	0.758140	-0.487397	-0.001684
C368	C	1.258140	0.012603	0.498316
C369	C	0.703078	-0.458031	-0.033942
C370	C	1.203078	0.041969	0.466058
C371	C	0.716050	-0.465365	-0.089437
C372	C	1.216050	0.034635	0.410563
C373	C	0.784086	-0.502066	-0.112678
C374	C	1.284086	-0.002066	0.387322
C375	C	0.839148	-0.531431	-0.080420
C376	C	1.339148	-0.031431	0.419580
H377	H	0.748535	-0.481966	0.039399
H378	H	1.248535	0.018034	0.539399
H379	H	0.652713	-0.430863	-0.016737
H380	H	1.152713	0.069137	0.483263
H381	H	0.675290	-0.443627	-0.113316
H382	H	1.175290	0.056373	0.386684
H383	H	0.793691	-0.507496	-0.153761
H384	H	1.293691	-0.007496	0.346239
H385	H	0.889513	-0.558600	-0.097625
H386	H	1.389513	-0.058600	0.402375
H387	H	0.840487	-0.628618	-0.016546
H388	H	1.340487	-0.128618	0.483454
C389	C	0.876141	-0.118146	0.004407
C390	C	1.376141	0.381854	0.504407
C391	C	0.916651	-0.081410	-0.034954
C392	C	1.416651	0.418590	0.465046
C393	C	0.861617	-0.052029	-0.067217
C394	C	1.361617	0.447971	0.432783
C395	C	0.766073	-0.059384	-0.060117
C396	C	1.266073	0.440616	0.439883
C397	C	0.725558	-0.096121	-0.020753
C398	C	1.225558	0.403879	0.479247
C399	C	0.780592	-0.125502	0.011509
C400	C	1.280592	0.374498	0.511509
H401	H	0.987383	-0.075964	-0.040212
H402	H	1.487383	0.424036	0.459788
H403	H	0.891610	-0.024833	-0.096356
H404	H	1.391610	0.475167	0.403644
H405	H	0.725334	-0.037634	-0.083999
H406	H	1.225334	0.462366	0.416001
H407	H	0.654826	-0.101567	-0.015496
H408	H	1.154826	0.398433	0.484504
H409	H	0.750599	-0.152698	0.040648
H410	H	1.250599	0.347302	0.540648
H411	H	0.983466	0.130149	-0.312682
H412	H	1.483466	0.630149	0.187318
H413	H	1.072003	-0.125763	0.119208
H414	H	1.572003	0.374237	0.619208
H415	H	1.122093	-0.371465	0.148528
H416	H	1.622093	0.128535	0.648528
H417	H	1.122110	-0.468353	0.148526
H418	H	1.622110	0.031647	0.648526
C419	C	1.086403	-0.769778	0.127582
C420	C	1.586403	-0.269778	0.627582
C421	C	1.181946	-0.777109	0.120474
C422	C	1.681946	-0.277109	0.620474
C423	C	1.236994	-0.747734	0.152735
C424	C	1.736994	-0.247734	0.652735
C425	C	1.196500	-0.711026	0.192103
C426	C	1.696500	-0.211026	0.692103
C427	C	1.100952	-0.703692	0.199213
C428	C	1.600952	-0.203692	0.699213
C429	C	1.045904	-0.733068	0.166952
C430	C	1.545904	-0.233068	0.666952
H431	H	1.211926	-0.804284	0.091330
H432	H	1.711926	-0.304284	0.591330
H433	H	1.307725	-0.753162	0.147472
H434	H	1.807725	-0.253162	0.647472
H435	H	1.237250	-0.689280	0.215985
H436	H	1.737250	-0.189280	0.715985
H437	H	1.070972	-0.676518	0.228357
H438	H	1.570972	-0.176518	0.728357
H439	H	0.975173	-0.727639	0.172216
H440	H	1.475173	-0.227639	0.672216
C441	C	1.086424	-0.881949	0.127574
C442	C	1.586424	-0.381949	0.627574
C443	C	1.086431	-0.940703	0.127566
C444	C	1.586431	-0.440703	0.627566
C445	C	1.141492	-0.970083	0.159813
C446	C	1.641492	-0.470083	0.659813
C447	C	1.196547	-0.940709	0.192068
C448	C	1.696547	-0.440709	0.692068
C449	C	1.196543	-0.881952	0.192077
C450	C	1.696543	-0.381952	0.692077
C451	C	1.141482	-0.852572	0.159830
C452	C	1.641482	-0.352572	0.659830
H453	H	1.045674	-0.962450	0.103688
H454	H	1.545674	-0.462450	0.603688
H455	H	1.141495	-1.013578	0.159806
H456	H	1.641495	-0.513578	0.659806
H457	H	1.237307	-0.962458	0.215939
H458	H	1.737307	-0.462458	0.715939
H459	H	1.237300	-0.860205	0.215955
H460	H	1.737300	-0.360205	0.715955
H461	H	1.141479	-0.809077	0.159837
H462	H	1.641479	-0.309077	0.659837
C463	C	0.876225	-0.769805	0.004403
C464	C	1.376225	-0.269805	0.504403
C465	C	0.889194	-0.777145	-0.051091
C466	C	1.389194	-0.277145	0.448909
C467	C	0.834132	-0.747784	-0.083351
C468	C	1.334132	-0.247784	0.416649
C469	C	0.766100	-0.711083	-0.060117
C470	C	1.266100	-0.211083	0.439883
C471	C	0.753127	-0.703741	-0.004619
C472	C	1.253127	-0.203741	0.495381
C473	C	0.808190	-0.733102	0.027641
C474	C	1.308190	-0.233102	0.527641
H475	H	0.939559	-0.804316	-0.068293
H476	H	1.439559	-0.304316	0.431707
H477	H	0.843736	-0.753220	-0.124434
H478	H	1.343736	-0.253220	0.375566
H479	H	0.725339	-0.689348	-0.083998
H480	H	1.225339	-0.189348	0.416002
H481	H	0.702763	-0.676570	0.012583
H482	H	1.202763	-0.176570	0.512583
H483	H	0.798586	-0.727666	0.068724
H484	H	1.298586	-0.227666	0.568724
H485	H	0.980813	0.130142	-0.463942
H486	H	1.480813	0.630142	0.036058
H487	H	0.840470	-0.468373	-0.016556
H488	H	1.340470	0.031627	0.483444
H489	H	0.979206	0.130134	-0.555396
H490	H	1.479206	0.630134	-0.055396
C491	C	0.826166	-0.363847	-0.024935
C492	C	1.326166	0.136153	0.475065
C493	C	0.839151	-0.371181	-0.080430
C494	C	1.339151	0.128819	0.419570
C495	C	0.784103	-0.341812	-0.112693
C496	C	1.284103	0.158188	0.387307
C497	C	0.716070	-0.305110	-0.089461
C498	C	1.216070	0.194890	0.410539
C499	C	0.703082	-0.297774	-0.033963
C500	C	1.203082	0.202226	0.466037
C501	C	0.758130	-0.327143	-0.001700
C502	C	1.258130	0.172857	0.498300
H503	H	0.889515	-0.398352	-0.097631
H504	H	1.389515	0.101648	0.402369
H505	H	0.793718	-0.347242	-0.153776
H506	H	1.293718	0.152758	0.346224
H507	H	0.675320	-0.283369	-0.113344
H508	H	1.175320	0.216631	0.386656
H509	H	0.652717	-0.270604	-0.016762
H510	H	1.152717	0.229396	0.483238
H511	H	0.748515	-0.321713	0.039384
H512	H	1.248515	0.178287	0.539384
C513	C	1.136422	-0.524066	0.156903
C514	C	1.636422	-0.024066	0.656903
C515	C	1.204447	-0.487330	0.133671
C516	C	1.704447	0.012670	0.633671
C517	C	1.259497	-0.457958	0.165934
C518	C	1.759497	0.042042	0.665934
C519	C	1.246522	-0.465322	0.221428
C520	C	1.746522	0.034678	0.721428
C521	C	1.178493	-0.502059	0.244663
C522	C	1.678493	-0.002059	0.744663
C523	C	1.123443	-0.531431	0.212400
C524	C	1.623443	-0.031431	0.712400
H525	H	1.214055	-0.481877	0.092588
H526	H	1.714055	0.018123	0.592588
H527	H	1.309857	-0.430762	0.148734
H528	H	1.809857	0.069238	0.648734
H529	H	1.287273	-0.443579	0.245311
H530	H	1.787273	0.056421	0.745311
H531	H	1.168885	-0.507512	0.285746
H532	H	1.668885	-0.007512	0.785746
H533	H	1.073084	-0.558627	0.229600
H534	H	1.573084	-0.058627	0.729600
C535	C	0.974989	0.097068	-0.794515
C536	C	1.474989	0.597068	-0.294515
C537	C	1.047349	0.135230	-0.793091
C538	C	1.547349	0.635230	-0.293091
C539	C	1.046885	0.186115	-0.820830
C540	C	1.546885	0.686115	-0.320830
C541	C	0.974059	0.198838	-0.849993
C542	C	1.474059	0.698838	-0.349993
C543	C	0.901693	0.160676	-0.851418
C544	C	1.401693	0.660676	-0.351418
C545	C	0.902158	0.109791	-0.823679
C546	C	1.402158	0.609791	-0.323679
H547	H	1.101264	0.125811	-0.771502
H548	H	1.601264	0.625811	-0.271502
H549	H	1.100456	0.214365	-0.819775
H550	H	1.600456	0.714365	-0.319775
H551	H	0.973716	0.236507	-0.870526
H552	H	1.473716	0.736507	-0.370526
H553	H	0.847779	0.170095	-0.873007
H554	H	1.347779	0.670095	-0.373007
H555	H	0.848587	0.081541	-0.824735
H556	H	1.348587	0.581541	-0.324735
C557	C	0.985774	0.097127	-0.179419
C558	C	1.485774	0.597127	0.320581
C559	C	1.058132	0.135289	-0.177989
C560	C	1.558132	0.635289	0.322011
C561	C	1.057672	0.186175	-0.205726
C562	C	1.557672	0.686175	0.294274
C563	C	0.984853	0.198899	-0.234894
C564	C	1.484853	0.698899	0.265106
C565	C	0.912490	0.160737	-0.236326
C566	C	1.412490	0.660737	0.263674
C567	C	0.912950	0.109851	-0.208588
C568	C	1.412950	0.609851	0.291412
H569	H	1.112042	0.125871	-0.156396
H570	H	1.612042	0.625871	0.343604
H571	H	1.111240	0.214426	-0.204666
H572	H	1.611240	0.714426	0.295334
H573	H	0.984512	0.236568	-0.255427
H574	H	1.484512	0.736568	0.244573
H575	H	0.858580	0.170155	-0.257919
H576	H	1.358580	0.670155	0.242081
H577	H	0.859382	0.081600	-0.209648
H578	H	1.359382	0.581600	0.290352
H579	H	0.890442	-0.222685	0.012790
H580	H	1.390442	0.277315	0.512790
C581	C	0.987544	-0.097153	-0.073493
C582	C	1.487544	0.402847	0.426507
C583	C	1.060366	-0.109874	-0.044327
C584	C	1.560366	0.390126	0.455673
C585	C	1.060833	-0.160760	-0.016590
C586	C	1.560833	0.339240	0.483410
C587	C	0.988478	-0.198925	-0.018019
C588	C	1.488478	0.301075	0.481981
C589	C	0.915651	-0.186204	-0.047186
C590	C	1.415651	0.313796	0.452814
C591	C	0.915184	-0.135319	-0.074924
C592	C	1.415184	0.364681	0.425076
H593	H	1.113932	-0.081622	-0.043268
H594	H	1.613932	0.418378	0.456732
H595	H	1.114745	-0.170176	0.005002
H596	H	1.614745	0.329824	0.505002
H597	H	0.988823	-0.236593	0.002514
H598	H	1.488823	0.263407	0.502514
H599	H	0.862084	-0.214457	-0.048245
H600	H	1.362084	0.285543	0.451755
H601	H	0.861272	-0.125902	-0.096515
H602	H	1.361272	0.374098	0.403485
H603	H	1.122128	-0.628603	0.148520
H604	H	1.622128	-0.128603	0.648520
H605	H	0.987492	0.083914	-0.080737
H606	H	1.487492	0.583914	0.419263
H607	H	0.980736	-0.130230	-0.463881
H608	H	1.480736	0.369770	0.036119
