data_functionalizedCrystal
_audit_creation_method	'MofGen! by Chris Wilmer'
_symmetry_space_group_name_H-M	'P1'
_symmetry_Int_Tables_number	1
_symmetry_cell_setting	triclinic
loop_
_symmetry_equiv_pos_as_xyz
  x,y,z
_cell_length_a	19.288840
_cell_length_b	19.288865
_cell_length_c	18.366186
_cell_angle_alpha	89.988521
_cell_angle_beta	89.983729
_cell_angle_gamma	83.131131
loop_
_atom_site_label
_atom_site_type_symbol
_atom_site_fract_x
_atom_site_fract_y
_atom_site_fract_z
O1	O	0.921364	0.086566	-0.060680
O2	O	1.421364	0.586566	0.439320
O3	O	0.719101	0.098273	-0.060655
O4	O	1.219101	0.598273	0.439345
O5	O	0.826077	-0.008712	-0.060654
O6	O	1.326077	0.491288	0.439346
O7	O	0.814388	0.193550	-0.060681
O8	O	1.314388	0.693550	0.439319
O9	O	0.826059	-0.008717	0.060446
O10	O	1.326059	0.491283	0.560446
O11	O	0.719083	0.098268	0.060444
O12	O	1.219083	0.598268	0.560444
O13	O	0.921346	0.086561	0.060420
O14	O	1.421346	0.586561	0.560420
Zn15	Zn	0.820211	0.092413	0.079659
Zn16	Zn	1.320211	0.592413	0.579659
Zn17	Zn	0.820235	0.092420	-0.079895
Zn18	Zn	1.320235	0.592420	0.420105
O19	O	0.814370	0.193545	0.060418
O20	O	1.314370	0.693545	0.560418
C21	C	0.693215	0.097896	-0.000102
C22	C	1.193215	0.597896	0.499898
C23	C	0.616110	0.096774	-0.000093
C24	C	1.116110	0.596774	0.499907
C25	C	0.579917	0.096238	-0.066106
C26	C	1.079917	0.596238	0.433894
C27	C	0.507470	0.095176	-0.066114
C28	C	1.007470	0.595176	0.433886
C29	C	0.471221	0.094636	-0.000106
C30	C	0.971221	0.594636	0.499894
C31	C	0.507423	0.095176	0.065915
C32	C	1.007423	0.595176	0.565915
C33	C	0.579868	0.096245	0.065922
C34	C	1.079868	0.596245	0.565922
C35	C	0.361886	0.052256	0.050461
C36	C	0.861886	0.552256	0.550461
C37	C	0.289443	0.051183	0.050451
C38	C	0.789443	0.551183	0.550451
C39	C	0.247778	0.091342	-0.000125
C40	C	0.747778	0.591342	0.499875
C41	C	0.278565	0.132566	-0.050703
C42	C	0.778565	0.632566	0.449297
C43	C	0.351009	0.133635	-0.050697
C44	C	0.851009	0.633635	0.449303
C45	C	0.392667	0.093477	-0.000107
C46	C	0.892667	0.593477	0.499893
C47	C	0.133029	0.089655	-0.066152
C48	C	0.633029	0.589655	0.433848
C49	C	0.060580	0.088598	-0.066158
C50	C	0.560580	0.588598	0.433842
C51	C	0.060535	0.088591	0.065874
C52	C	0.560535	0.588591	0.565874
C53	C	0.132982	0.089656	0.065878
C54	C	0.632982	0.589656	0.565878
C55	C	0.169225	0.090185	-0.000137
C56	C	0.669225	0.590185	0.499863
C57	C	0.825692	-0.034591	-0.000102
C58	C	1.325692	0.465409	0.499898
C59	C	0.824563	-0.111694	-0.000095
C60	C	1.324563	0.388306	0.499905
C61	C	0.887331	-0.156396	-0.000099
C62	C	1.387331	0.343604	0.499901
C63	C	0.886270	-0.228843	-0.000111
C64	C	1.386270	0.271157	0.499889
C65	C	0.822438	-0.256585	-0.000103
C66	C	1.322438	0.243415	0.499897
C67	C	0.759661	-0.211873	-0.000104
C68	C	1.259661	0.288127	0.499896
C69	C	0.760723	-0.139428	-0.000100
C70	C	1.260723	0.360572	0.499900
C71	C	0.772251	-0.364870	0.042321
C72	C	1.272251	0.135130	0.542321
C73	C	0.771191	-0.437314	0.042321
C74	C	1.271191	0.062686	0.542321
C75	C	0.819158	-0.480030	-0.000119
C76	C	1.319158	0.019970	0.499881
C77	C	0.868196	-0.450295	-0.042551
C78	C	1.368196	0.049705	0.457449
C79	C	0.869259	-0.377849	-0.042547
C80	C	1.369259	0.122151	0.457453
C81	C	0.821278	-0.335139	-0.000108
C82	C	1.321278	0.164861	0.499892
C83	C	0.880781	-0.603288	-0.000137
C84	C	1.380781	-0.103288	0.499863
C85	C	0.879717	-0.675736	-0.000153
C86	C	1.379717	-0.175736	0.499847
C87	C	0.753106	-0.658764	-0.000138
C88	C	1.253106	-0.158764	0.499862
C89	C	0.754171	-0.586318	-0.000130
C90	C	1.254171	-0.086318	0.499870
C91	C	0.818010	-0.558584	-0.000125
C92	C	1.318010	-0.058584	0.499875
C93	C	0.947232	0.086937	-0.000135
C94	C	1.447232	0.586937	0.499865
C95	C	1.024336	0.088059	-0.000149
C96	C	1.524336	0.588059	0.499851
C97	C	0.814755	0.219424	-0.000135
C98	C	1.314755	0.719424	0.499865
C99	C	0.815884	0.296527	-0.000147
C100	C	1.315884	0.796527	0.499853
N101	N	0.820200	0.092408	0.188550
N102	N	1.320200	0.592408	0.688550
N103	N	0.820252	0.092420	-0.188786
N104	N	1.320252	0.592420	0.311214
C105	C	0.867584	0.045059	0.226651
C106	C	1.367584	0.545059	0.726651
C107	C	0.867589	0.045055	0.302879
C108	C	1.367589	0.545055	0.802879
C109	C	0.820215	0.092414	0.341003
C110	C	1.320215	0.592414	0.841003
C111	C	0.772822	0.139767	0.302893
C112	C	1.272822	0.639767	0.802893
C113	C	0.772814	0.139764	0.226666
C114	C	1.272814	0.639764	0.726666
C115	C	0.810917	0.155702	0.461755
C116	C	1.310917	0.655702	0.961755
C117	C	0.810930	0.155706	0.537980
C118	C	1.310930	0.655706	1.037980
C119	C	0.820235	0.092422	0.576110
C120	C	1.320235	0.592422	1.076110
C121	C	0.829543	0.029132	0.538006
C122	C	1.329543	0.529132	1.038006
C123	C	0.829535	0.029129	0.461780
C124	C	1.329535	0.529129	0.961780
C125	C	0.820218	0.092422	0.423658
C126	C	1.320218	0.592422	0.923658
C127	C	0.867627	0.045066	0.696866
C128	C	1.367627	0.545066	1.196866
C129	C	0.867627	0.045062	0.773096
C130	C	1.367627	0.545062	1.273096
C131	C	0.772863	0.139779	0.773108
C132	C	1.272863	0.639779	1.273108
C133	C	0.772860	0.139777	0.696880
C134	C	1.272860	0.639777	1.196880
C135	C	0.820246	0.092421	0.658764
C136	C	1.320246	0.592421	1.158764
H137	H	0.162538	0.090093	-0.119905
H138	H	0.662538	0.590093	0.380095
O139	O	0.406827	0.008940	0.105012
O140	O	0.906827	0.508940	0.605012
H141	H	0.400411	-0.047036	0.097534
H142	H	0.900411	0.452964	0.597534
H143	H	0.937386	-0.265246	-0.000117
H144	H	1.437386	0.234754	0.499883
H145	H	0.264383	0.017613	0.091632
H146	H	0.764383	0.517613	0.591632
H147	H	0.734249	0.178326	0.333937
H148	H	1.234249	0.678326	0.833937
O149	O	0.721769	0.190873	0.814204
O150	O	1.221769	0.690873	1.314204
H151	H	0.688102	0.161738	0.848962
H152	H	1.188102	0.661738	1.348962
H153	H	0.837120	-0.022400	0.569050
H154	H	1.337120	0.477600	1.069050
O155	O	0.918736	-0.006015	0.814191
O156	O	1.418736	0.493985	1.314191
H157	H	0.910776	0.001935	0.873600
H158	H	1.410776	0.501935	1.373600
O159	O	0.619008	0.096814	-0.137304
O160	O	1.119008	0.596814	0.362696
H161	H	0.598770	0.143944	-0.168964
H162	H	1.098770	0.643944	0.331036
O163	O	0.800900	0.223969	0.579069
O164	O	1.300900	0.723969	1.079069
H165	H	0.753641	0.225692	0.613826
H166	H	1.253641	0.725692	1.113826
O167	O	0.233637	0.175890	-0.105256
O168	O	0.733637	0.675890	0.394744
H169	H	0.178089	0.168232	-0.096759
H170	H	0.678089	0.668232	0.403241
H171	H	0.734278	0.178336	0.665856
H172	H	1.234278	0.678336	1.165856
H173	H	0.803327	0.207239	0.430716
H174	H	1.303327	0.707239	0.930716
O175	O	0.021540	0.087995	-0.137361
O176	O	0.521540	0.587995	0.362639
H177	H	0.058918	0.088526	-0.183260
H178	H	0.558918	0.588526	0.316740
H179	H	0.707687	-0.234465	-0.000099
H180	H	1.207687	0.265535	0.499901
O181	O	0.684257	-0.688679	-0.000126
O182	O	1.184257	-0.188679	0.499874
H183	H	0.654114	-0.670699	-0.049482
H184	H	1.154114	-0.170699	0.450518
O185	O	0.468288	0.094930	0.137111
O186	O	0.968288	0.594930	0.637111
H187	H	0.411816	0.094213	0.126017
H188	H	0.911816	0.594213	0.626017
H189	H	0.734228	0.178322	0.195644
H190	H	1.234228	0.678322	0.695644
H191	H	0.733189	-0.330095	0.076885
H192	H	1.233189	0.169905	0.576885
H193	H	0.906167	0.006497	0.195619
H194	H	1.406167	0.506497	0.695619
O195	O	0.021433	0.088140	0.137072
O196	O	0.521433	0.588140	0.637072
H197	H	-0.035029	0.087351	0.125978
H198	H	0.464971	0.587351	0.625978
O199	O	0.947422	-0.723955	-0.000160
O200	O	1.447422	-0.223955	0.499840
H201	H	0.949949	-0.757384	0.049191
H202	H	1.449949	-0.257384	0.549191
H203	H	0.837112	-0.022404	0.430759
H204	H	1.337112	0.477596	0.930759
H205	H	0.906209	0.006503	0.665831
H206	H	1.406209	0.506503	1.165831
O207	O	0.718307	-0.469385	0.088089
O208	O	1.218307	0.030615	0.588089
H209	H	0.664837	-0.448290	0.070622
H210	H	1.164837	0.051710	0.570622
H211	H	0.477995	0.094741	-0.119872
H212	H	0.977995	0.594741	0.380128
O213	O	0.919943	-0.496348	-0.088333
O214	O	1.419943	0.003652	0.411667
H215	H	0.891368	-0.525572	-0.128185
H216	H	1.391368	-0.025572	0.371815
O217	O	0.384218	0.178102	-0.105235
O218	O	0.884218	0.678102	0.394765
H219	H	0.343079	0.205855	-0.140404
H220	H	0.843079	0.705855	0.359596
H221	H	0.162452	0.090088	0.119633
H222	H	0.662452	0.590088	0.619633
O223	O	0.918703	-0.006015	0.343983
O224	O	1.418703	0.493985	0.843983
H225	H	0.910745	0.001942	0.403391
H226	H	1.410745	0.501942	0.903391
H227	H	0.609336	0.096683	0.119680
H228	H	1.109336	0.596683	0.619680
H229	H	0.939314	-0.133820	-0.000098
H230	H	1.439314	0.366180	0.499902
H231	H	0.703058	-0.549920	-0.000122
H232	H	1.203058	-0.049920	0.499878
O233	O	0.922135	-0.345772	-0.088320
O234	O	1.422135	0.154228	0.411680
H235	H	0.955309	-0.387640	-0.117841
H236	H	1.455309	0.112360	0.382159
H237	H	0.932763	-0.580706	-0.000137
H238	H	1.432763	-0.080706	0.499863
H239	H	0.709608	-0.103030	-0.000096
H240	H	1.209608	0.396970	0.499904
