data_functionalizedCrystal
_audit_creation_method	'MofGen! by Chris Wilmer'
_symmetry_space_group_name_H-M	'P1'
_symmetry_Int_Tables_number	1
_symmetry_cell_setting	triclinic
loop_
_symmetry_equiv_pos_as_xyz
  x,y,z
_cell_length_a	13.032721
_cell_length_b	12.827893
_cell_length_c	12.827885
_cell_angle_alpha	90.021189
_cell_angle_beta	97.149035
_cell_angle_gamma	82.797239
loop_
_atom_site_label
_atom_site_type_symbol
_atom_site_fract_x
_atom_site_fract_y
_atom_site_fract_z
Zn1	Zn	-0.416035	-1.544792	-0.643701
Zn2	Zn	-0.590813	-1.522472	-0.491143
Zn3	Zn	-0.416080	-1.370028	-0.468975
Zn4	Zn	-0.590730	-1.347815	-0.665827
O5	O	-0.503414	-1.446277	-0.567411
O6	O	-0.439235	-1.688065	-0.623482
O7	O	-0.567688	-1.502205	-0.341973
O8	O	-0.269837	-1.411848	-0.473616
O9	O	-0.567644	-1.671667	-0.511398
O10	O	-0.269804	-1.540246	-0.601987
O11	O	-0.439313	-1.390205	-0.325686
O12	O	-0.439232	-1.220847	-0.495070
O13	O	-0.567502	-1.373990	-0.809121
O14	O	-0.567546	-1.204528	-0.639696
O15	O	-0.439154	-1.518708	-0.792866
O16	O	-0.737039	-1.480667	-0.532852
O17	O	-0.736978	-1.352347	-0.661191
C18	C	-0.503386	-1.174771	-0.567379
C19	C	-0.503399	-1.058616	-0.567393
C20	C	-0.439969	-1.014931	-0.622967
C21	C	-0.439981	-0.894879	-0.622983
C22	C	-0.774926	-1.411703	-0.601851
C23	C	-0.891079	-1.397007	-0.616619
C24	C	-0.942860	-1.454002	-0.559751
C25	C	-1.062911	-1.438815	-0.575013
C26	C	-0.230843	-1.481014	-0.532861
C27	C	-0.114689	-1.495818	-0.518137
C28	C	-0.503314	-1.446361	-0.839969
C29	C	-0.503271	-1.446396	-0.956117
C30	C	-0.503435	-0.718844	-0.567435
C31	C	-0.503422	-0.834999	-0.567421
C32	C	-0.439748	-1.518016	-0.999856
C33	C	-0.439703	-1.518055	-1.119901
C34	C	-0.503439	-1.446263	-0.295905
C35	C	-0.503187	-1.446467	-0.179720
H36	H	-0.557710	-1.007138	-0.519823
C37	C	-0.366324	-1.600815	-0.930395
H38	H	-0.375993	-1.589932	-0.858824
H39	H	-0.296085	-1.594499	-0.939325
H40	H	-0.381613	-1.669105	-0.950176
H41	H	-0.385322	-1.579374	-1.157547
C42	C	-0.951242	-1.315900	-0.697660
H43	H	-0.903188	-1.282117	-0.731365
H44	H	-0.993893	-1.265034	-0.663031
H45	H	-0.993750	-1.350521	-0.748600
H46	H	-0.898317	-1.514045	-0.499768
C47	C	-1.123074	-1.357703	-0.656055
H48	H	-1.195869	-1.358131	-0.655677
H49	H	-1.105172	-1.375204	-0.724023
H50	H	-1.105310	-1.289725	-0.638446
H51	H	-0.557578	-1.385151	-1.142082
C52	C	-0.366594	-1.084463	-0.687230
H53	H	-0.376218	-1.156030	-0.678795
H54	H	-0.296348	-1.075558	-0.663164
H55	H	-0.381967	-1.064706	-0.759390
H56	H	-0.385680	-0.857280	-0.670566
C57	C	-0.576795	-0.885770	-0.503144
H58	H	-0.616605	-0.832628	-0.468295
H59	H	-0.536729	-0.933430	-0.452629
H60	H	-0.622336	-0.922569	-0.548866
H61	H	-0.557615	-1.385103	-1.007541
C62	C	-1.054528	-1.576908	-0.437072
H63	H	-0.981733	-1.576465	-0.437432
H64	H	-1.072284	-1.644891	-0.454648
H65	H	-1.072440	-1.559373	-0.369110
