data_functionalizedCrystal
_audit_creation_method	'MofGen! by Chris Wilmer'
_symmetry_space_group_name_H-M	'P1'
_symmetry_Int_Tables_number	1
_symmetry_cell_setting	triclinic
loop_
_symmetry_equiv_pos_as_xyz
  x,y,z
_cell_length_a	10.654550
_cell_length_b	10.654551
_cell_length_c	18.366186
_cell_angle_alpha	89.996635
_cell_angle_beta	89.987444
_cell_angle_gamma	84.485132
loop_
_atom_site_label
_atom_site_type_symbol
_atom_site_fract_x
_atom_site_fract_y
_atom_site_fract_z
O1	O	1.667850	0.176400	-0.060605
O2	O	1.302372	0.193207	-0.060592
O3	O	1.493513	0.002064	-0.060599
O4	O	1.476708	0.367543	-0.060598
O5	O	1.493480	0.002055	0.060500
O6	O	1.302339	0.193197	0.060507
O7	O	1.667817	0.176391	0.060495
Zn8	Zn	1.485073	0.184792	0.079728
Zn9	Zn	1.485116	0.184805	-0.079826
O10	O	1.476676	0.367533	0.060502
C11	C	1.255557	0.191968	-0.000041
C12	C	1.116114	0.188276	-0.000037
C13	C	1.036629	0.300817	-0.000047
C14	C	0.905608	0.297341	-0.000060
C15	C	0.933570	0.068771	-0.000055
C16	C	1.064589	0.072249	-0.000037
C17	C	1.088154	0.416844	-0.000047
C18	C	1.008667	0.529395	-0.000058
C19	C	0.877647	0.525918	-0.000070
C20	C	0.826112	0.409891	-0.000072
C21	C	1.492263	-0.044739	-0.000051
C22	C	1.488570	-0.184182	-0.000056
C23	C	1.486856	-0.249688	-0.066066
C24	C	1.483376	-0.380709	-0.066062
C25	C	1.483329	-0.380705	0.065967
C26	C	1.486801	-0.249686	0.065963
C27	C	1.488625	-0.184184	-0.132084
C28	C	1.486913	-0.249691	-0.198100
C29	C	1.483432	-0.380711	-0.198096
C30	C	1.481665	-0.446225	-0.132077
C31	C	1.714632	0.177629	-0.000058
C32	C	1.854075	0.181321	-0.000067
C33	C	1.477926	0.414336	-0.000048
C34	C	1.481619	0.553779	-0.000048
N35	N	1.485052	0.184783	0.188619
N36	N	1.485146	0.184805	-0.188717
C37	C	1.569718	0.100187	0.226717
C38	C	1.569726	0.100182	0.302944
C39	C	1.485080	0.184793	0.341072
C40	C	1.400398	0.269395	0.302965
C41	C	1.400384	0.269390	0.226739
C42	C	1.469622	0.299032	0.461833
C43	C	1.469645	0.299039	0.538058
C44	C	1.485116	0.184809	0.576179
C45	C	1.500591	0.070568	0.538067
C46	C	1.500577	0.070563	0.461840
C47	C	1.485086	0.184808	0.423727
C48	C	1.569795	0.100201	0.696932
C49	C	1.569794	0.100194	0.773161
C50	C	1.400473	0.269418	0.773180
C51	C	1.400468	0.269414	0.696953
C52	C	1.485135	0.184807	0.658833
H53	H	1.129308	-0.019392	-0.000031
H54	H	1.331530	0.338305	0.665932
H55	H	0.719425	0.407069	-0.000071
H56	H	1.638673	0.031291	0.333969
F57	F	1.492335	-0.044742	-0.132093
H58	H	1.478813	-0.552908	-0.132080
H59	H	1.513188	-0.022448	0.569103
F60	F	1.227596	0.420553	-0.000037
F61	F	1.488790	-0.179965	-0.268357
H62	H	1.481891	-0.434057	0.119716
H63	H	1.050636	0.623860	-0.000050
F64	F	1.453184	0.420623	0.578613
F65	F	1.453247	0.420622	0.421269
H66	H	0.812931	0.617562	-0.000072
H67	H	1.482025	-0.434042	-0.251849
H68	H	1.488170	-0.196346	0.119714
F69	F	1.310308	0.359441	0.343544
F70	F	0.878719	-0.054704	-0.000059
F71	F	1.659823	0.010137	0.186148
F72	F	1.517036	-0.051017	0.421281
F73	F	1.659901	0.010150	0.656361
H74	H	1.638736	0.031299	0.804180
H75	H	1.331548	0.338306	0.804223
F76	F	1.310268	0.359432	0.186191
