data_functionalizedCrystal
_audit_creation_method	'MofGen! by Chris Wilmer'
_symmetry_space_group_name_H-M	'P1'
_symmetry_Int_Tables_number	1
_symmetry_cell_setting	triclinic
loop_
_symmetry_equiv_pos_as_xyz
  x,y,z
_cell_length_a	12.759395
_cell_length_b	17.638166
_cell_length_c	12.759387
_cell_angle_alpha	101.173805
_cell_angle_beta	89.980569
_cell_angle_gamma	101.243697
loop_
_atom_site_label
_atom_site_type_symbol
_atom_site_fract_x
_atom_site_fract_y
_atom_site_fract_z
Zn1	Zn	1.521592	-0.314654	-0.678462
Zn2	Zn	1.485906	-0.446859	-0.538280
Zn3	Zn	1.345880	-0.314694	-0.502812
Zn4	Zn	1.310322	-0.446799	-0.713906
O5	O	1.415925	-0.380752	-0.608365
O6	O	1.663877	-0.332200	-0.659876
O7	O	1.467277	-0.429369	-0.386565
O8	O	1.399005	-0.204074	-0.496436
O9	O	1.637658	-0.429331	-0.556885
O10	O	1.528100	-0.204045	-0.625484
O11	O	1.364401	-0.332267	-0.360507
O12	O	1.194144	-0.332209	-0.530805
O13	O	1.338401	-0.429228	-0.856214
O14	O	1.168020	-0.429266	-0.685894
O15	O	1.493621	-0.332142	-0.830173
O16	O	1.432798	-0.557466	-0.591254
O17	O	1.303797	-0.557422	-0.720286
C18	C	1.142962	-0.380736	-0.608348
C19	C	1.026182	-0.380748	-0.608371
C20	C	1.053420	-0.279770	-0.715876
C21	C	1.012176	-0.229290	-0.769640
C22	C	0.902451	-0.229304	-0.769657
C23	C	0.833966	-0.279802	-0.715901
C24	C	0.875210	-0.330281	-0.662138
C25	C	0.984939	-0.330263	-0.662129
C26	C	0.847973	-0.431255	-0.554627
C27	C	0.957697	-0.431246	-0.554615
C28	C	0.779488	-0.481752	-0.500872
C29	C	0.820731	-0.532237	-0.447113
C30	C	0.930463	-0.532221	-0.447099
C31	C	0.998941	-0.481725	-0.500852
C32	C	1.360595	-0.586125	-0.663488
C33	C	1.337020	-0.673985	-0.687105
C34	C	1.236572	-0.797825	-0.787517
C35	C	1.258732	-0.715267	-0.765318
C36	C	1.393176	-0.715251	-0.631056
C37	C	1.371023	-0.797810	-0.653240
C38	C	1.292721	-0.839091	-0.731473
C39	C	1.427172	-0.839075	-0.597195
C40	C	1.405025	-0.921627	-0.619382
C41	C	1.326730	-0.962914	-0.697613
C42	C	1.270575	-0.921643	-0.753659
C43	C	1.505479	-0.797793	-0.518968
C44	C	1.561628	-0.839059	-0.462923
C45	C	1.539476	-0.921612	-0.485104
C46	C	1.461180	-0.962899	-0.563336
C47	C	1.595631	-0.962883	-0.429058
C48	C	1.573484	-1.045436	-0.451245
C49	C	1.439034	-1.045451	-0.585523
C50	C	1.689954	-0.380768	-0.608383
C51	C	1.806729	-0.380775	-0.608391
C52	C	1.416025	-0.380674	-0.882378
C53	C	1.416068	-0.380641	-0.999146
C54	C	1.471500	-0.174576	-0.553050
C55	C	1.495183	-0.086716	-0.529478
C56	C	1.577705	-0.279552	-0.972051
C57	C	1.658542	-0.228995	-1.013361
C58	C	1.658575	-0.228967	-1.123075
C59	C	1.577762	-0.279498	-1.191482
C60	C	1.496925	-0.330055	-1.150172
C61	C	1.496902	-0.330080	-1.040455
C62	C	1.335285	-0.431139	-1.177266
C63	C	1.335254	-0.431173	-1.067553
C64	C	1.254471	-0.481670	-1.245673
C65	C	1.173637	-0.532232	-1.204364
C66	C	1.173608	-0.532259	-1.094643
C67	C	1.254417	-0.481729	-1.026243
C68	C	1.415901	-0.380772	-0.335403
C69	C	1.416122	-0.380582	-0.218576
H70	H	1.142767	-0.279750	-0.715862
H71	H	1.206818	-0.955256	-0.817369
H72	H	0.868872	-0.188195	-0.813428
O73	O	1.362844	-1.085591	-0.661374
C74	C	1.282204	-1.133436	-0.614356
H75	H	1.282421	-1.108607	-0.524931
H76	H	1.201068	-1.134409	-0.652543
H77	H	1.297914	-1.195980	-0.627574
O78	O	1.254467	-0.481789	-1.352288
C79	C	1.261051	-0.557538	-1.409262
H80	H	1.230802	-0.603080	-1.358243
H81	H	1.209896	-0.571565	-1.486424
H82	H	1.347775	-0.559223	-1.429191
O83	O	1.078558	-0.180170	-0.821877
C84	C	1.018620	-0.135636	-0.869358
H85	H	0.941137	-0.132863	-0.825590
H86	H	1.067093	-0.073364	-0.864003
H87	H	0.999164	-0.164667	-0.956872
H88	H	1.107840	-0.573366	-1.260068
H89	H	1.107771	-0.573420	-1.061014
H90	H	1.456932	-0.681630	-0.567361
H91	H	0.744625	-0.279802	-0.715910
O92	O	1.160507	-0.837810	-0.863578
C93	C	1.115668	-0.783688	-0.908269
H94	H	1.174488	-0.724809	-0.896121
H95	H	1.098031	-0.807505	-0.997437
H96	H	1.038228	-0.774987	-0.867389
H97	H	1.308703	-1.030133	-0.715680
O98	O	1.254590	-0.481756	-0.919667
C99	C	1.349786	-0.502098	-0.888490
H100	H	1.413950	-0.488592	-0.948115
H101	H	1.378067	-0.466460	-0.805535
H102	H	1.334318	-0.567690	-0.886607
O103	O	1.737076	-0.179747	-1.163064
C104	C	1.735338	-0.100966	-1.115145
H105	H	1.695378	-0.099337	-1.035036
H106	H	1.820718	-0.065532	-1.101905
H107	H	1.688517	-0.074324	-1.169745
H108	H	0.690145	-0.481758	-0.500886
H109	H	1.619210	-1.079035	-0.405611
H110	H	1.659392	-0.929262	-0.365368
H111	H	0.764964	-0.573344	-0.403345
H112	H	0.964037	-0.573325	-0.403314
O113	O	1.204152	-0.675099	-0.819599
C114	C	1.149084	-0.627439	-0.746927
H115	H	1.189485	-0.615084	-0.664017
H116	H	1.150557	-0.569378	-0.774114
H117	H	1.062681	-0.659315	-0.743888
H118	H	1.088288	-0.481704	-0.500839
H119	H	1.523511	-0.730574	-0.500909
O120	O	1.577813	-0.279460	-0.865443
C121	C	1.666488	-0.224039	-0.813929
H122	H	1.693673	-0.177840	-0.864766
H123	H	1.642862	-0.194061	-0.732474
H124	H	1.734634	-0.255401	-0.802891
O125	O	1.737180	-0.179951	-0.947039
C126	C	1.837231	-0.197251	-0.978490
H127	H	1.831229	-0.227619	-1.066301
H128	H	1.899728	-0.140209	-0.966955
H129	H	1.861641	-0.237910	-0.927649
H130	H	1.625385	-0.805438	-0.399229
H131	H	1.577789	-0.279463	-1.280814
