data_functionalizedCrystal
_audit_creation_method	'MofGen! by Chris Wilmer'
_symmetry_space_group_name_H-M	'P1'
_symmetry_Int_Tables_number	1
_symmetry_cell_setting	triclinic
loop_
_symmetry_equiv_pos_as_xyz
  x,y,z
_cell_length_a	19.288840
_cell_length_b	14.044190
_cell_length_c	12.503567
_cell_angle_alpha	93.836914
_cell_angle_beta	86.481954
_cell_angle_gamma	88.158896
loop_
_atom_site_label
_atom_site_type_symbol
_atom_site_fract_x
_atom_site_fract_y
_atom_site_fract_z
O1	O	0.932627	0.112591	-0.089514
O2	O	0.731389	0.128565	-0.089478
O3	O	0.828984	-0.017392	-0.089475
O4	O	0.835032	0.258548	-0.089518
O5	O	0.821635	-0.006404	0.089168
O6	O	0.724040	0.139553	0.089164
O7	O	0.925278	0.123579	0.089128
Cu8	Cu	0.823988	0.132570	0.105457
Cu9	Cu	0.832679	0.119574	-0.105808
O10	O	0.827683	0.269537	0.089124
C11	C	0.701805	0.133549	-0.000152
C12	C	0.624602	0.132019	-0.000138
C13	C	0.592357	0.125294	-0.097518
C14	C	0.519817	0.123844	-0.097531
C15	C	0.479526	0.129101	-0.000158
C16	C	0.511779	0.135833	0.097235
C17	C	0.584317	0.137292	0.097245
C18	C	0.363414	0.075874	0.074437
C19	C	0.290877	0.074409	0.074423
C20	C	0.255794	0.124605	-0.000186
C21	C	0.293258	0.176254	-0.074798
C22	C	0.365796	0.177713	-0.074788
C23	C	0.400870	0.127520	-0.000158
C24	C	0.144894	0.116309	-0.097587
C25	C	0.072353	0.114865	-0.097596
C26	C	0.064316	0.126845	0.097174
C27	C	0.136856	0.128298	0.097180
C28	C	0.177141	0.123025	-0.000204
C29	C	0.822665	-0.047201	-0.000150
C30	C	0.814774	-0.152391	-0.000139
C31	C	0.856308	-0.402863	-0.000188
C32	C	0.800363	-0.344988	-0.000171
C33	C	0.808383	-0.237817	-0.000153
C34	C	0.848289	-0.510044	-0.000206
C35	C	0.954863	0.118595	-0.000200
C36	C	1.032066	0.120124	-0.000222
C37	C	0.834003	0.299345	-0.000203
C38	C	0.841894	0.404535	-0.000221
N39	N	0.817881	0.141709	0.254050
C40	C	0.847770	0.096991	0.526484
C41	C	0.808902	0.155154	0.473159
C42	C	0.813899	0.147671	0.351235
C43	C	0.842774	0.104473	0.648419
N44	N	0.838789	0.110439	0.745600
H45	H	0.493558	0.118369	-0.176833
H46	H	0.884797	0.041582	0.480576
C47	C	0.929146	-0.361078	-0.000178
H48	H	0.963196	-0.411482	-0.000194
H49	H	0.932021	-0.319173	0.062127
H50	H	0.937160	-0.326804	-0.062474
H51	H	0.177696	0.112026	-0.176882
H52	H	0.771873	0.210568	0.519073
C53	C	0.406997	0.234657	-0.156728
H54	H	0.455218	0.228369	-0.146002
H55	H	0.392459	0.300106	-0.147225
H56	H	0.398736	0.210651	-0.227481
C57	C	0.636666	0.119508	-0.204635
H58	H	0.607068	0.115303	-0.262634
H59	H	0.667013	0.064582	-0.208675
H60	H	0.663246	0.175086	-0.208687
C61	C	0.727521	-0.386775	-0.000159
H62	H	0.731613	-0.454368	-0.000162
H63	H	0.705565	-0.369692	-0.062444
H64	H	0.700449	-0.362058	0.062157
C65	C	0.249673	0.017581	0.156471
H66	H	0.201449	0.023884	0.145767
H67	H	0.257970	0.041673	0.227171
H68	H	0.264173	-0.047891	0.147074
H69	H	0.046101	0.109394	-0.176898
C70	C	0.254677	0.231477	-0.156869
H71	H	0.206110	0.223223	-0.146183
H72	H	0.270144	0.207854	-0.227560
H73	H	0.263964	0.297429	-0.147478
C74	C	0.402001	0.020657	0.156511
H75	H	0.450566	0.028930	0.145839
H76	H	0.392718	-0.045292	0.147129
H77	H	0.386531	0.044287	0.227204
H78	H	0.478969	0.140115	0.176517
C79	C	0.019994	0.132941	0.204282
H80	H	-0.027829	0.131199	0.190330
H81	H	0.028442	0.190970	0.244061
H82	H	0.032012	0.080492	0.244528
H83	H	0.163109	0.133768	0.176478
H84	H	0.610569	0.142770	0.176547
