data_functionalizedCrystal
_audit_creation_method	'MofGen! by Chris Wilmer'
_symmetry_space_group_name_H-M	'P1'
_symmetry_Int_Tables_number	1
_symmetry_cell_setting	triclinic
loop_
_symmetry_equiv_pos_as_xyz
  x,y,z
_cell_length_a	25.427154
_cell_length_b	25.426324
_cell_length_c	25.422586
_cell_angle_alpha	60.006367
_cell_angle_beta	60.012446
_cell_angle_gamma	59.992398
loop_
_atom_site_label
_atom_site_type_symbol
_atom_site_fract_x
_atom_site_fract_y
_atom_site_fract_z
O1	O	0.072968	-0.768436	0.642532
O2	O	0.572968	-0.268436	1.142532
O3	O	0.027520	-0.598284	0.517710
O4	O	0.527520	-0.098284	1.017710
O5	O	0.135268	-0.705940	0.517611
O6	O	0.635268	-0.205940	1.017611
O7	O	-0.034780	-0.660780	0.642632
O8	O	0.465220	-0.160780	1.142632
O9	O	0.171018	-0.670200	0.553260
O10	O	0.671018	-0.170200	1.053260
O11	O	0.063270	-0.562544	0.553360
O12	O	0.563270	-0.062544	1.053360
O13	O	0.108718	-0.732696	0.678182
O14	O	0.608718	-0.232696	1.178182
Zn15	Zn	0.091670	-0.641945	0.621431
Zn16	Zn	0.591670	-0.141945	1.121431
Zn17	Zn	0.044568	-0.689034	0.574461
Zn18	Zn	0.544568	-0.189034	1.074461
O19	O	0.000970	-0.625039	0.678281
O20	O	0.500970	-0.125039	1.178281
N21	N	0.123818	-0.609812	0.653490
N22	N	0.623818	-0.109812	1.153490
N23	N	0.012426	-0.721173	0.542402
N24	N	0.512426	-0.221173	1.042402
C25	C	0.168482	-0.466269	0.698103
C26	C	0.668482	0.033731	1.198103
C27	C	0.168494	-0.565177	0.698095
C28	C	0.668494	-0.065177	1.198095
C29	C	0.193243	-0.540453	0.722807
C30	C	0.693243	-0.040453	1.222807
C31	C	0.301113	-0.521853	0.665993
C32	C	0.801113	-0.021853	1.165993
C33	C	0.368545	-0.544324	0.643486
C34	C	0.868545	-0.044324	1.143486
C35	C	0.368579	-0.653434	0.685090
C36	C	0.868579	-0.153434	1.185090
C37	C	0.301149	-0.630961	0.707599
C38	C	0.801149	-0.130961	1.207599
C39	C	0.184722	-0.432539	0.631812
C40	C	0.684722	0.067461	1.131812
C41	C	0.162210	-0.365100	0.609357
C42	C	0.662210	0.134900	1.109357
C43	C	0.107225	-0.365129	0.719489
C44	C	0.607225	0.134871	1.219489
C45	C	0.129737	-0.432567	0.741943
C46	C	0.629737	0.067433	1.241943
C47	C	0.102194	-0.548896	0.714421
C48	C	0.602194	-0.048896	1.214421
C49	C	0.079702	-0.571372	0.691949
C50	C	0.579702	-0.071372	1.191949
C51	C	0.189805	-0.626409	0.636839
C52	C	0.689805	-0.126409	1.136839
C53	C	0.212300	-0.603934	0.659303
C54	C	0.712300	-0.103934	1.159303
C55	C	0.102289	-0.548918	0.830735
C56	C	0.602289	-0.048918	1.330735
C57	C	0.079866	-0.571415	0.898171
C58	C	0.579866	-0.071415	1.398171
C59	C	0.190015	-0.626466	0.898104
C60	C	0.690015	-0.126466	1.398104
C61	C	0.212437	-0.603971	0.830666
C62	C	0.712437	-0.103971	1.330666
C63	C	0.168573	-0.565195	0.796984
C64	C	0.668573	-0.065195	1.296984
C65	C	0.267418	-0.565170	0.698047
C66	C	0.767418	-0.065170	1.198047
C67	C	-0.130981	-0.765617	0.497386
C68	C	0.369019	-0.265617	0.997386
C69	C	-0.032127	-0.765741	0.497606
C70	C	0.467873	-0.265741	0.997606
C71	C	-0.056804	-0.790430	0.472789
C72	C	0.443196	-0.290430	0.972789
C73	C	-0.075480	-0.898263	0.529507
C74	C	0.424520	-0.398263	1.029507
C75	C	-0.053057	-0.965702	0.552014
C76	C	0.446943	-0.465702	1.052014
C77	C	0.056052	-0.965829	0.510599
C78	C	0.556052	-0.465829	1.010599
C79	C	0.033627	-0.898392	0.488091
C80	C	0.533627	-0.398392	0.988091
C81	C	-0.164787	-0.781859	0.563659
C82	C	0.335213	-0.281859	1.063659
C83	C	-0.232219	-0.759299	0.586018
C84	C	0.267781	-0.259299	1.086018
C85	C	-0.232034	-0.704261	0.475827
C86	C	0.267966	-0.204261	0.975827
C87	C	-0.164602	-0.726821	0.453469
C88	C	0.335398	-0.226821	0.953469
C89	C	-0.048372	-0.699446	0.481299
C90	C	0.451628	-0.199446	0.981299
C91	C	-0.025938	-0.677008	0.503867
C92	C	0.474062	-0.177008	1.003867
C93	C	0.028987	-0.787155	0.559036
C94	C	0.528987	-0.287155	1.059036
C95	C	0.006552	-0.809596	0.536475
C96	C	0.506552	-0.309596	1.036475
C97	C	-0.048188	-0.699454	0.364860
C98	C	0.451812	-0.199454	0.864860
C99	C	-0.025608	-0.677017	0.297425
C100	C	0.474392	-0.177017	0.797425
C101	C	0.029406	-0.787170	0.297492
C102	C	0.529406	-0.287170	0.797492
C103	C	0.006827	-0.809605	0.364929
C104	C	0.506827	-0.309605	0.864929
C105	C	-0.031972	-0.765745	0.398611
C106	C	0.468028	-0.265745	0.898611
C107	C	-0.032140	-0.864611	0.497548
C108	C	0.467860	-0.364611	0.997548
N109	N	0.401319	-0.609788	0.653344
N110	N	0.901319	-0.109788	1.153344
O111	O	0.621664	-0.620517	0.494685
O112	O	1.121664	-0.120517	0.994685
O113	O	0.621901	-0.745740	0.664659
O114	O	1.121901	-0.245740	1.164659
O115	O	0.621803	-0.745452	0.556857
O116	O	1.121803	-0.245452	1.056857
O117	O	0.621762	-0.620805	0.602487
O118	O	1.121762	-0.120805	1.102487
O119	O	0.514676	-0.709815	0.592658
O120	O	1.014676	-0.209815	1.092658
O121	O	0.514774	-0.710104	0.700460
O122	O	1.014774	-0.210104	1.200460
O123	O	0.514537	-0.584881	0.530485
O124	O	1.014537	-0.084881	1.030485
Zn125	Zn	0.497647	-0.641834	0.621157
Zn126	Zn	0.997647	-0.141834	1.121157
Zn127	Zn	0.638791	-0.688787	0.573988
Zn128	Zn	1.138791	-0.188787	1.073988
O129	O	0.514635	-0.585169	0.638287
O130	O	1.014635	-0.085169	1.138287
N131	N	0.735119	-0.720834	0.541794
N132	N	1.235119	-0.220834	1.041794
N133	N	0.123794	-0.332357	0.653504
N134	N	0.623794	0.167643	1.153504
O135	O	-0.034774	-0.111885	0.642639
O136	O	0.465226	0.388115	1.142639
O137	O	0.135202	-0.111860	0.517412
O138	O	0.635202	0.388140	1.017412
O139	O	0.027364	-0.111888	0.517742
O140	O	0.527364	0.388112	1.017742
O141	O	0.073064	-0.111857	0.642310
O142	O	0.573064	0.388143	1.142310
O143	O	0.063120	-0.219026	0.553444
O144	O	0.563120	0.280974	1.053444
O145	O	0.170958	-0.218998	0.553115
O146	O	0.670958	0.281002	1.053115
O147	O	0.000983	-0.219022	0.678342
O148	O	0.500983	0.280978	1.178342
Zn149	Zn	0.091647	-0.236020	0.621397
Zn150	Zn	0.591647	0.263980	1.121397
Zn151	Zn	0.044537	-0.094862	0.574357
Zn152	Zn	0.544537	0.405138	1.074357
O153	O	0.108821	-0.218994	0.678013
O154	O	0.608821	0.281006	1.178013
N155	N	0.012383	0.001474	0.542251
N156	N	0.512383	0.501474	1.042251
N157	N	0.124036	-0.609854	0.930891
N158	N	0.624036	-0.109854	1.430891
O159	O	0.113202	-0.768401	1.151342
O160	O	0.613202	-0.268401	1.651342
O161	O	-0.011992	-0.598359	1.151385
O162	O	0.488008	-0.098359	1.651385
O163	O	-0.011700	-0.706176	1.151343
O164	O	0.488300	-0.206176	1.651343
O165	O	0.112910	-0.660584	1.151384
O166	O	0.612910	-0.160584	1.651384
O167	O	0.023980	-0.670446	1.044212
O168	O	0.523980	-0.170446	1.544212
O169	O	0.023689	-0.562630	1.044253
O170	O	0.523689	-0.062630	1.544253
O171	O	0.148882	-0.732671	1.044211
O172	O	0.648882	-0.232671	1.544211
Zn173	Zn	0.091951	-0.641977	1.027223
Zn174	Zn	0.591951	-0.141977	1.527223
Zn175	Zn	0.044940	-0.689053	1.168373
Zn176	Zn	0.544940	-0.189053	1.668373
O177	O	0.148590	-0.624854	1.044252
O178	O	0.648590	-0.124854	1.544252
N179	N	0.012853	-0.721183	1.264704
N180	N	0.512853	-0.221183	1.764704
C181	C	0.041135	-0.558973	0.518338
C182	C	0.541135	-0.058973	1.018338
C183	C	0.174567	-0.692292	0.518215
C184	C	0.674567	-0.192292	1.018215
C185	C	0.095103	-0.772007	0.677553
C186	C	0.595103	-0.272007	1.177553
C187	C	-0.038330	-0.638687	0.677677
C188	C	0.461670	-0.138687	1.177677
C189	C	0.568366	-0.745166	0.703974
C190	C	1.068366	-0.245166	1.203974
C191	C	0.568246	-0.744810	0.570474
C192	C	1.068246	-0.244810	1.070474
C193	C	0.568069	-0.585454	0.491172
C194	C	1.068069	-0.085454	0.991172
C195	C	0.568192	-0.585812	0.624671
C196	C	1.068192	-0.085812	1.124671
C197	C	0.174449	-0.165294	0.517975
C198	C	0.674449	0.334706	1.017975
C199	C	0.040949	-0.165460	0.518427
C200	C	0.540949	0.334540	1.018427
C201	C	-0.038309	-0.165456	0.677735
C202	C	0.461691	0.334544	1.177735
C203	C	0.095236	-0.165423	0.677328
C204	C	0.595236	0.334577	1.177328
C205	C	-0.011393	-0.559072	1.097824
C206	C	0.488607	-0.059072	1.597824
C207	C	-0.011024	-0.692583	1.097752
C208	C	0.488976	-0.192583	1.597752
C209	C	0.148283	-0.771958	1.097772
C210	C	0.648283	-0.271958	1.597772
C211	C	0.147922	-0.638440	1.097820
C212	C	0.647922	-0.138440	1.597820
H213	H	0.025889	-0.558152	0.925643
H214	H	0.525889	-0.058152	1.425643
H215	H	-0.087123	-0.165464	0.717049
H216	H	0.412877	0.334536	1.217049
H217	H	0.567992	-0.546139	0.442358
H218	H	1.067992	-0.046139	0.942358
O219	O	0.232785	-0.703673	0.471295
O220	O	0.732785	-0.203673	0.971295
C221	C	0.232835	-0.648266	0.415801
C222	C	0.732835	-0.148266	0.915801
H223	H	0.181179	-0.617588	0.416508
H224	H	0.681179	-0.117588	0.916508
H225	H	0.255892	-0.619148	0.415007
H226	H	0.755892	-0.119148	0.915007
C227	C	0.334963	-0.706197	0.354430
C228	C	0.834963	-0.206197	0.854430
C229	C	0.271520	-0.668520	0.355295
C230	C	0.771520	-0.168520	0.855295
H231	H	0.358828	-0.718690	0.317107
H232	H	0.858828	-0.218690	0.817107
H233	H	0.334932	-0.743526	0.391817
H234	H	0.834932	-0.243526	0.891817
H235	H	0.354169	-0.681927	0.353771
H236	H	0.854169	-0.181927	0.853771
H237	H	0.252313	-0.692794	0.355962
H238	H	0.752313	-0.192794	0.855962
H239	H	0.271549	-0.631197	0.317906
H240	H	0.771549	-0.131197	0.817906
H241	H	-0.050697	-0.510236	1.097837
H242	H	0.449303	-0.010236	1.597837
O243	O	0.194568	-0.626691	1.097796
O244	O	0.694568	-0.126691	1.597796
C245	C	0.171098	-0.563374	1.097831
C246	C	0.671098	-0.063374	1.597831
H247	H	0.129739	-0.532890	1.077555
H248	H	0.629739	-0.032890	1.577555
H249	H	0.153146	-0.564326	1.149232
H250	H	0.653146	-0.064326	1.649232
C251	C	0.276379	-0.571541	1.080727
C252	C	0.776379	-0.071541	1.580727
C253	C	0.225585	-0.534099	1.055818
C254	C	0.725585	-0.034099	1.555818
H255	H	0.309989	-0.553484	1.054814
H256	H	0.809989	-0.053484	1.554814
H257	H	0.292191	-0.614200	1.080706
H258	H	0.792191	-0.114200	1.580706
H259	H	0.261411	-0.572332	1.123561
H260	H	0.761411	-0.072332	1.623561
H261	H	0.240551	-0.533315	1.012988
H262	H	0.740551	-0.033315	1.512988
H263	H	0.209776	-0.491439	1.055831
H264	H	0.709776	0.008561	1.555831
H265	H	-0.087172	-0.629063	0.716934
H266	H	0.412828	-0.129063	1.216934
H267	H	0.223163	-0.164989	0.478564
H268	H	0.723163	0.335011	0.978564
O269	O	-0.057629	-0.704291	1.097655
O270	O	0.442371	-0.204291	1.597655
C271	C	-0.034164	-0.767613	1.097633
C272	C	0.465836	-0.267613	1.597633
H273	H	0.020703	-0.784579	1.077385
H274	H	0.520703	-0.284579	1.577385
H275	H	-0.050470	-0.800946	1.149014
H276	H	0.449530	-0.300946	1.649014
C277	C	-0.128009	-0.748000	1.080425
C278	C	0.371991	-0.248000	1.580425
C279	C	-0.060620	-0.768835	1.055550
C280	C	0.439380	-0.268835	1.555550
H281	H	-0.144330	-0.748755	1.054469
H282	H	0.355670	-0.248755	1.554469
H283	H	-0.143819	-0.705339	1.080442
H284	H	0.356181	-0.205339	1.580442
H285	H	-0.141588	-0.775780	1.123242
H286	H	0.358412	-0.275780	1.623242
H287	H	-0.047042	-0.741050	1.012738
H288	H	0.452958	-0.241050	1.512738
H289	H	-0.044808	-0.811491	1.055525
H290	H	0.455192	-0.311491	1.555525
O291	O	0.029624	-0.500637	0.471582
O292	O	0.529624	-0.000637	0.971582
C293	C	0.073828	-0.472029	0.454212
C294	C	0.573828	0.027971	0.954212
H295	H	0.092686	-0.493362	0.495499
H296	H	0.592686	0.006638	0.995499
H297	H	0.115771	-0.481749	0.409400
H298	H	0.615771	0.018251	0.909400
C299	C	0.016820	-0.372632	0.389294
C300	C	0.516820	0.127368	0.889294
C301	C	0.039978	-0.398829	0.440005
C302	C	0.539978	0.101171	0.940005
H303	H	-0.004059	-0.327479	0.380527
H304	H	0.495941	0.172521	0.880527
H305	H	-0.012960	-0.391906	0.400993
H306	H	0.487040	0.108094	0.900993
H307	H	0.051777	-0.380738	0.351956
H308	H	0.551777	0.119262	0.851956
H309	H	0.005020	-0.390730	0.477344
H310	H	0.505020	0.109270	0.977344
H311	H	0.069751	-0.379552	0.428311
H312	H	0.569751	0.120448	0.928311
H313	H	0.105023	-0.165413	0.716462
H314	H	0.605023	0.334587	1.216462
O315	O	0.195097	-0.830262	1.097783
O316	O	0.695097	-0.330262	1.597783
C317	C	0.171919	-0.870337	1.097743
C318	C	0.671919	-0.370337	1.597743
H319	H	0.117052	-0.852889	1.118029
H320	H	0.617052	-0.352889	1.618029
H321	H	0.188280	-0.868585	1.046340
H322	H	0.688280	-0.368585	1.546340
C323	C	0.266003	-0.961481	1.114822
C324	C	0.766003	-0.461481	1.614822
C325	C	0.198615	-0.940054	1.139742
C326	C	0.698615	-0.440054	1.639742
H327	H	0.282472	-1.004487	1.140726
H328	H	0.782472	-0.504487	1.640726
H329	H	0.281620	-0.934482	1.114846
H330	H	0.781620	-0.434482	1.614846
H331	H	0.279629	-0.960015	1.071986
H332	H	0.779629	-0.460015	1.571986
H333	H	0.184990	-0.941513	1.182574
H334	H	0.684990	-0.441513	1.682574
H335	H	0.182996	-0.967056	1.139726
H336	H	0.682996	-0.467056	1.639726
O337	O	0.106778	-0.830362	0.724245
O338	O	0.606778	-0.330362	1.224245
C339	C	0.170087	-0.870311	0.700874
C340	C	0.670087	-0.370311	1.200874
H341	H	0.187070	-0.852755	0.646007
H342	H	0.687070	-0.352755	1.146007
H343	H	0.203416	-0.868537	0.717169
H344	H	0.703416	-0.368537	1.217169
C345	C	0.150417	-0.961623	0.794840
C346	C	0.650417	-0.461623	1.294840
C347	C	0.171275	-0.940064	0.727451
C348	C	0.671275	-0.440064	1.227451
H349	H	0.151152	-1.004651	0.811236
H350	H	0.651152	-0.504651	1.311236
H351	H	0.107765	-0.934709	0.810587
H352	H	0.607765	-0.434709	1.310587
H353	H	0.178194	-0.960139	0.808410
H354	H	0.678194	-0.460139	1.308410
H355	H	0.143493	-0.941541	0.713882
H356	H	0.643493	-0.441541	1.213882
H357	H	0.213922	-0.966981	0.711703
H358	H	0.713922	-0.466981	1.211703
H359	H	0.568427	-0.784476	0.752793
H360	H	1.068427	-0.284476	1.252793
O361	O	0.568236	-0.791446	0.558732
O362	O	1.068236	-0.291446	1.058732
C363	C	0.568179	-0.767982	0.495421
C364	C	1.068179	-0.267982	0.995421
H365	H	0.547847	-0.713113	0.478497
H366	H	1.047847	-0.213113	0.978497
H367	H	0.619558	-0.784241	0.462061
H368	H	1.119558	-0.284241	0.962061
C369	C	0.551151	-0.861900	0.514978
C370	C	1.051151	-0.361900	1.014978
C371	C	0.526173	-0.794509	0.494192
C372	C	1.026173	-0.294509	0.994192
H373	H	0.525242	-0.878265	0.514218
H374	H	1.025242	-0.378265	1.014218
H375	H	0.551191	-0.877710	0.557631
H376	H	1.051191	-0.377710	1.057631
H377	H	0.593966	-0.875441	0.487174
H378	H	1.093966	-0.375441	0.987174
H379	H	0.483362	-0.780969	0.522000
H380	H	0.983362	-0.280969	1.022000
H381	H	0.526125	-0.778697	0.451544
H382	H	1.026125	-0.278697	0.951544
H383	H	0.568183	-0.546658	0.634434
H384	H	1.068183	-0.046658	1.134434
H385	H	0.031160	-0.165463	0.479291
H386	H	0.531160	0.334537	0.979291
O387	O	-0.131859	-0.711012	0.389066
O388	O	0.368141	-0.211012	0.889066
C389	C	-0.175994	-0.671918	0.355098
C390	C	0.324006	-0.171918	0.855098
H391	H	-0.224093	-0.680457	0.387179
H392	H	0.275907	-0.180457	0.887179
H393	H	-0.183125	-0.619109	0.340556
H394	H	0.316875	-0.119109	0.840556
C395	C	-0.090519	-0.678532	0.254899
C396	C	0.409481	-0.178532	0.754899
C397	C	-0.149594	-0.689022	0.294300
C398	C	0.350406	-0.189022	0.794300
H399	H	-0.074234	-0.689079	0.217394
H400	H	0.425766	-0.189079	0.717394
H401	H	-0.060784	-0.704868	0.277783
H402	H	0.439216	-0.204868	0.777783
H403	H	-0.096470	-0.634524	0.242788
H404	H	0.403530	-0.134524	0.742788
H405	H	-0.143642	-0.733031	0.306417
H406	H	0.356358	-0.233031	0.806417
H407	H	-0.179328	-0.662694	0.271417
H408	H	0.320672	-0.162694	0.771417
H409	H	0.225736	-0.658027	0.925521
H410	H	0.725736	-0.158027	1.425521
O411	O	0.059589	-0.511281	0.798116
O412	O	0.559589	-0.011281	1.298116
C413	C	-0.003724	-0.501722	0.842366
C414	C	0.496276	-0.001722	1.342366
H415	H	-0.003562	-0.542386	0.890425
H416	H	0.496438	-0.042386	1.390425
H417	H	-0.023044	-0.453685	0.849550
H418	H	0.476956	0.046315	1.349550
C419	C	-0.047203	-0.451298	0.757052
C420	C	0.452797	0.048702	1.257052
C421	C	-0.047005	-0.501245	0.816078
C422	C	0.452995	-0.001245	1.316078
H423	H	-0.073903	-0.451000	0.740835
H424	H	0.426097	0.049000	1.240835
H425	H	-0.004549	-0.457735	0.727239
H426	H	0.495451	0.042265	1.227239
H427	H	-0.063302	-0.411272	0.763046
H428	H	0.436698	0.088728	1.263046
H429	H	-0.030899	-0.541270	0.810081
H430	H	0.469101	-0.041270	1.310081
H431	H	-0.089658	-0.494814	0.845889
H432	H	0.410342	0.005186	1.345889
H433	H	0.066522	-0.517340	0.746005
H434	H	0.566522	-0.017340	1.246005
O435	O	0.276850	-0.619822	0.797982
O436	O	0.776850	-0.119822	1.297982
C437	C	0.310753	-0.658880	0.842174
C438	C	0.810753	-0.158880	1.342174
H439	H	0.278622	-0.650283	0.890254
H440	H	0.778622	-0.150283	1.390254
H441	H	0.325305	-0.711701	0.849333
H442	H	0.825305	-0.211701	1.349333
C443	C	0.411000	-0.652361	0.756775
C444	C	0.911000	-0.152361	1.256775
C445	C	0.371537	-0.641799	0.815826
C446	C	0.871537	-0.141799	1.315826
H447	H	0.448496	-0.641828	0.740522
H448	H	0.948496	-0.141828	1.240522
H449	H	0.388159	-0.626049	0.727001
H450	H	0.888159	-0.126049	1.227001
H451	H	0.423119	-0.696379	0.762749
H452	H	0.923119	-0.196379	1.262749
H453	H	0.359412	-0.597780	0.809850
H454	H	0.859412	-0.097780	1.309850
H455	H	0.394377	-0.668103	0.845598
H456	H	0.894377	-0.168103	1.345598
H457	H	0.225479	-0.657972	0.605261
H458	H	0.725479	-0.157972	1.105261
O459	O	0.015304	-0.555484	0.707696
O460	O	0.515304	-0.055484	1.207696
C461	C	-0.001044	-0.521537	0.651058
C462	C	0.498956	-0.021537	1.151058
H463	H	0.036945	-0.498706	0.610535
H464	H	0.536945	0.001294	1.110535
H465	H	-0.003293	-0.556208	0.636865
H466	H	0.496707	-0.056208	1.136865
C467	C	-0.113839	-0.496503	0.712873
C468	C	0.386161	0.003497	1.212873
C469	C	-0.067184	-0.468457	0.663104
C470	C	0.432816	0.031543	1.163104
H471	H	-0.154638	-0.463762	0.720304
H472	H	0.345362	0.036238	1.220304
H473	H	-0.102826	-0.519376	0.751032
H474	H	0.397174	-0.019376	1.251032
H475	H	-0.115705	-0.525395	0.701039
H476	H	0.384295	-0.025395	1.201039
H477	H	-0.065313	-0.439572	0.674942
H478	H	0.434687	0.060428	1.174942
H479	H	-0.078198	-0.445578	0.624947
H480	H	0.421802	0.054422	1.124947
H481	H	-0.038823	-0.623033	0.269953
H482	H	0.461177	-0.123033	0.769953
H483	H	0.266286	-0.617183	0.646003
H484	H	0.766286	-0.117183	1.146003
H485	H	0.396045	-0.707006	0.692856
H486	H	0.896045	-0.207006	1.192856
O487	O	0.268445	-0.673052	0.738631
O488	O	0.768445	-0.173052	1.238631
C489	C	0.284908	-0.704637	0.697364
C490	C	0.784908	-0.204637	1.197364
H491	H	0.303407	-0.673927	0.645160
H492	H	0.803407	-0.173927	1.145160
H493	H	0.324070	-0.753304	0.708215
H494	H	0.824070	-0.253304	1.208215
C495	C	0.202280	-0.752600	0.772264
C496	C	0.702280	-0.252600	1.272264
C497	C	0.224996	-0.714879	0.708146
C498	C	0.724996	-0.214879	1.208146
H499	H	0.165325	-0.758921	0.778917
H500	H	0.665325	-0.258921	1.278917
H501	H	0.191190	-0.731323	0.800068
H502	H	0.691190	-0.231323	1.300068
H503	H	0.234921	-0.793152	0.781299
H504	H	0.734921	-0.293152	1.281299
H505	H	0.192359	-0.674326	0.699114
H506	H	0.692359	-0.174326	1.199114
H507	H	0.236079	-0.736149	0.680341
H508	H	0.736079	-0.236149	1.180341
O509	O	0.401247	-0.502205	0.612251
O510	O	0.901247	-0.002205	1.112251
C511	C	0.384709	-0.456416	0.556679
C512	C	0.884709	0.043584	1.056679
H513	H	0.366158	-0.477196	0.541194
H514	H	0.866158	0.022804	1.041194
H515	H	0.345564	-0.410960	0.567719
H516	H	0.845564	0.089040	1.067719
C517	C	0.467367	-0.414206	0.520999
C518	C	0.967367	0.085794	1.020999
C519	C	0.444587	-0.439731	0.501977
C520	C	0.944587	0.060269	1.001977
H521	H	0.504302	-0.403912	0.487256
H522	H	1.004302	0.096088	0.987256
H523	H	0.478508	-0.445054	0.558440
H524	H	0.978508	0.054946	1.058440
H525	H	0.434741	-0.376330	0.530199
H526	H	0.934741	0.123670	1.030199
H527	H	0.477210	-0.477611	0.492784
H528	H	0.977210	0.022389	0.992784
H529	H	0.433453	-0.408889	0.464533
H530	H	0.933453	0.091111	0.964533
O531	O	0.222325	-0.465179	0.589141
O532	O	0.722325	0.034821	1.089141
C533	C	0.231836	-0.420944	0.525813
C534	C	0.731836	0.079056	1.025813
H535	H	0.191168	-0.372878	0.525960
H536	H	0.691168	0.127122	1.025960
H537	H	0.279868	-0.413762	0.506466
H538	H	0.779868	0.086238	1.006466
C539	C	0.282225	-0.506289	0.482394
C540	C	0.782225	-0.006289	0.982394
C541	C	0.232273	-0.447255	0.482574
C542	C	0.732273	0.052745	0.982574
H543	H	0.282498	-0.522520	0.455721
H544	H	0.782498	-0.022520	0.955721
H545	H	0.275820	-0.536092	0.525059
H546	H	0.775820	-0.036092	1.025059
H547	H	0.322247	-0.500296	0.466273
H548	H	0.822247	-0.000296	0.966273
H549	H	0.192252	-0.453251	0.498702
H550	H	0.692252	0.046749	0.998702
H551	H	0.238672	-0.417454	0.439910
H552	H	0.738672	0.082546	0.939910
H553	H	0.175430	-0.337636	0.555374
H554	H	0.675430	0.162364	1.055374
O555	O	0.069577	-0.332485	0.762160
O556	O	0.569577	0.167515	1.262160
C557	C	0.060097	-0.376719	0.825489
C558	C	0.560097	0.123281	1.325489
H559	H	0.067637	-0.424791	0.825368
H560	H	0.567637	0.075209	1.325368
H561	H	0.096016	-0.383885	0.844776
H562	H	0.596016	0.116115	1.344776
C563	C	-0.018228	-0.291375	0.868924
C564	C	0.481772	0.208625	1.368924
C565	C	-0.008972	-0.350417	0.868776
C566	C	0.491028	0.149583	1.368776
H567	H	-0.060832	-0.275151	0.895626
H568	H	0.439168	0.224849	1.395626
H569	H	-0.011839	-0.261574	0.826258
H570	H	0.488161	0.238426	1.326258
H571	H	0.011709	-0.297355	0.884995
H572	H	0.511709	0.202645	1.384995
H573	H	-0.038904	-0.344435	0.852697
H574	H	0.461096	0.155565	1.352697
H575	H	-0.015368	-0.380217	0.911440
H576	H	0.484632	0.119783	1.411440
H577	H	0.116505	-0.460032	0.795926
H578	H	0.616505	0.039968	1.295926
O579	O	-0.085838	-0.656758	0.397479
O580	O	0.414162	-0.156758	0.897479
C581	C	-0.095320	-0.593435	0.353229
C582	C	0.404680	-0.093435	0.853229
H583	H	-0.054617	-0.593611	0.305203
H584	H	0.445383	-0.093611	0.805203
H585	H	-0.143326	-0.574055	0.345964
H586	H	0.356674	-0.074055	0.845964
C587	C	-0.145803	-0.549989	0.438571
C588	C	0.354197	-0.049989	0.938571
C589	C	-0.095809	-0.550204	0.379585
C590	C	0.404191	-0.050204	0.879585
H591	H	-0.146108	-0.523321	0.454829
H592	H	0.353892	-0.023321	0.954829
H593	H	-0.139417	-0.592650	0.468384
H594	H	0.360583	-0.092650	0.968384
H595	H	-0.185804	-0.533841	0.432508
H596	H	0.314196	-0.033841	0.932508
H597	H	-0.055809	-0.566360	0.385650
H598	H	0.444191	-0.066360	0.885650
H599	H	-0.102188	-0.507544	0.349774
H600	H	0.397812	-0.007544	0.849774
H601	H	0.273654	-0.468282	0.658214
H602	H	0.773654	0.031718	1.158214
H603	H	0.060986	-0.822887	0.270075
H604	H	0.560986	-0.322887	0.770075
H605	H	0.020039	-0.863588	0.392405
H606	H	0.520039	-0.363588	0.892405
H607	H	-0.039168	-0.623025	0.490592
H608	H	0.460832	-0.123025	0.990592
O609	O	0.066627	-0.829820	0.596713
O610	O	0.566627	-0.329820	1.096713
C611	C	0.123210	-0.868853	0.562728
C612	C	0.623210	-0.368853	1.062728
H613	H	0.114231	-0.869501	0.523416
H614	H	0.614231	-0.369501	1.023416
H615	H	0.163787	-0.848630	0.539924
H616	H	0.663787	-0.348630	1.039924
C617	C	0.153363	-0.937137	0.657797
C618	C	0.653363	-0.437137	1.157797
C619	C	0.142333	-0.937938	0.609517
C620	C	0.642333	-0.437938	1.109517
H621	H	0.165162	-0.979751	0.686659
H622	H	0.665162	-0.479751	1.186659
H623	H	0.115244	-0.910839	0.680693
H624	H	0.615244	-0.410839	1.180693
H625	H	0.187176	-0.920281	0.638786
H626	H	0.687176	-0.420281	1.138786
H627	H	0.108516	-0.954786	0.628527
H628	H	0.608516	-0.454786	1.128527
H629	H	0.180448	-0.964241	0.586625
H630	H	0.680448	-0.464241	1.086625
H631	H	0.019779	-0.863579	0.549754
H632	H	0.519779	-0.363579	1.049754
O633	O	0.075803	-0.865772	0.456980
O634	O	0.575803	-0.365772	0.956980
C635	C	0.121630	-0.882288	0.401414
C636	C	0.621630	-0.382288	0.901414
H637	H	0.124791	-0.931238	0.407488
H638	H	0.624791	-0.431238	0.907488
H639	H	0.106466	-0.844332	0.357682
H640	H	0.606466	-0.344332	0.857682
C641	C	0.184022	-0.825359	0.384126
C642	C	0.684022	-0.325359	0.884126
C643	C	0.187908	-0.885482	0.391589
C644	C	0.687908	-0.385482	0.891589
H645	H	0.224905	-0.827327	0.378063
H646	H	0.724905	-0.327327	0.878063
H647	H	0.153147	-0.814229	0.421561
H648	H	0.653147	-0.314229	0.921561
H649	H	0.171383	-0.793735	0.347683
H650	H	0.671383	-0.293735	0.847683
H651	H	0.200539	-0.917103	0.428036
H652	H	0.700539	-0.417103	0.928036
H653	H	0.218788	-0.896618	0.354160
H654	H	0.718788	-0.396618	0.854160
H655	H	-0.079862	-0.663733	0.449648
H656	H	0.420138	-0.163733	0.949648
H657	H	-0.088349	-0.993100	0.578027
H658	H	0.411651	-0.493100	1.078027
O659	O	-0.139380	-0.865551	0.538702
O660	O	0.360620	-0.365551	1.038702
C661	C	-0.172823	-0.909720	0.571742
C662	C	0.327177	-0.409720	1.071742
H663	H	-0.138214	-0.957819	0.564017
H664	H	0.361786	-0.457819	1.064017
H665	H	-0.193877	-0.916850	0.625391
H666	H	0.306123	-0.416850	1.125391
C667	C	-0.270170	-0.824284	0.555283
C668	C	0.229830	-0.324284	1.055283
C669	C	-0.227664	-0.883359	0.545791
C670	C	0.272336	-0.383359	1.045791
H671	H	-0.304000	-0.808023	0.539278
H672	H	0.196000	-0.308023	1.039278
H673	H	-0.247640	-0.794526	0.533026
H674	H	0.252360	-0.294526	1.033026
H675	H	-0.287708	-0.830234	0.599992
H676	H	0.212292	-0.330234	1.099992
H677	H	-0.210121	-0.877407	0.501082
H678	H	0.289879	-0.377407	1.001082
H679	H	-0.250193	-0.913115	0.568041
H680	H	0.249807	-0.413115	1.068041
O681	O	-0.132226	-0.819514	0.606405
O682	O	0.367774	-0.319514	1.106405
C683	C	-0.176526	-0.829019	0.669696
C684	C	0.323474	-0.329019	1.169696
H685	H	-0.224562	-0.788317	0.669491
H686	H	0.275438	-0.288317	1.169491
H687	H	-0.183736	-0.877030	0.688994
H688	H	0.316264	-0.377030	1.188994
C689	C	-0.091289	-0.879520	0.713290
C690	C	0.408711	-0.379520	1.213290
C691	C	-0.150286	-0.829525	0.713039
C692	C	0.349714	-0.329525	1.213039
H693	H	-0.075102	-0.879835	0.740028
H694	H	0.424898	-0.379835	1.240028
H695	H	-0.061442	-0.873119	0.670651
H696	H	0.438558	-0.373119	1.170651
H697	H	-0.097305	-0.919524	0.729371
H698	H	0.402695	-0.419524	1.229371
H699	H	-0.144267	-0.789522	0.696952
H700	H	0.355733	-0.289522	1.196952
H701	H	-0.180131	-0.835920	0.755678
H702	H	0.319869	-0.335920	1.255678
O703	O	-0.265088	-0.774967	0.650393
O704	O	0.234912	-0.274967	1.150393
C705	C	-0.304106	-0.718282	0.666653
C706	C	0.195894	-0.218282	1.166653
H707	H	-0.283729	-0.677809	0.628671
H708	H	0.216271	-0.177809	1.128671
H709	H	-0.355188	-0.704034	0.668792
H710	H	0.144812	-0.204034	1.168792
C711	C	-0.330274	-0.779993	0.779484
C712	C	0.169726	-0.279993	1.279484
C713	C	-0.305244	-0.730284	0.732836
C714	C	0.194756	-0.230284	1.232836
H715	H	-0.330979	-0.787396	0.820310
H716	H	0.169021	-0.287396	1.320310
H717	H	-0.303989	-0.818183	0.768530
H718	H	0.196011	-0.318183	1.268530
H719	H	-0.372840	-0.768113	0.781258
H720	H	0.127160	-0.268113	1.281258
H721	H	-0.262677	-0.742168	0.731057
H722	H	0.237323	-0.242168	1.231057
H723	H	-0.331522	-0.692096	0.743791
H724	H	0.168478	-0.192096	1.243791
O725	O	-0.264730	-0.666668	0.433196
O726	O	0.235270	-0.166668	0.933196
C727	C	-0.303760	-0.697249	0.442829
C728	C	0.196240	-0.197249	0.942829
H729	H	-0.283499	-0.751315	0.467339
H730	H	0.216501	-0.251315	0.967339
H731	H	-0.354884	-0.677304	0.474587
H732	H	0.145116	-0.177304	0.974587
C733	C	-0.329586	-0.618156	0.347240
C734	C	0.170414	-0.118156	0.847240
C735	C	-0.304698	-0.684561	0.377339
C736	C	0.195302	-0.184561	0.877339
H737	H	-0.330168	-0.610328	0.306844
H738	H	0.169832	-0.110328	0.806844
H739	H	-0.303293	-0.597551	0.340751
H740	H	0.196707	-0.097551	0.840751
H741	H	-0.372187	-0.601543	0.373712
H742	H	0.127813	-0.101543	0.873712
H743	H	-0.262096	-0.701171	0.350871
H744	H	0.237904	-0.201171	0.850871
H745	H	-0.330984	-0.705168	0.383822
H746	H	0.169016	-0.205168	0.883822
O747	O	0.119919	-0.998676	0.501533
O748	O	0.619919	-0.498676	1.001533
C749	C	0.128987	-1.037692	0.561773
C750	C	0.628987	-0.537692	1.061773
H751	H	0.086262	-1.017327	0.600613
H752	H	0.586262	-0.517327	1.100613
H753	H	0.132946	-1.088787	0.573438
H754	H	0.632946	-0.588787	1.073438
C755	C	0.243734	-1.063816	0.511650
C756	C	0.743734	-0.563816	1.011650
C757	C	0.191261	-1.038799	0.559353
C758	C	0.691261	-0.538799	1.059353
H759	H	0.282149	-1.064501	0.510157
H760	H	0.782149	-0.564501	1.010157
H761	H	0.237626	-1.037532	0.471064
H762	H	0.737626	-0.537532	0.971064
H763	H	0.247025	-1.106392	0.521376
H764	H	0.747025	-0.606392	1.021376
H765	H	0.187966	-0.996221	0.549622
H766	H	0.687966	-0.496221	1.049622
H767	H	0.197370	-1.065076	0.599938
H768	H	0.697370	-0.565076	1.099938
