data_functionalizedCrystal
_audit_creation_method	'MofGen! by Chris Wilmer'
_symmetry_space_group_name_H-M	'P1'
_symmetry_Int_Tables_number	1
_symmetry_cell_setting	triclinic
loop_
_symmetry_equiv_pos_as_xyz
  x,y,z
_cell_length_a	21.395364
_cell_length_b	19.076808
_cell_length_c	21.395355
_cell_angle_alpha	92.317436
_cell_angle_beta	90.024552
_cell_angle_gamma	92.338361
loop_
_atom_site_label
_atom_site_type_symbol
_atom_site_fract_x
_atom_site_fract_y
_atom_site_fract_z
Zn1	Zn	0.947867	-0.280018	0.344242
Zn2	Zn	0.943570	-0.397705	0.235254
Zn3	Zn	0.843081	-0.280049	0.239478
Zn4	Zn	0.838851	-0.397717	0.339993
O5	O	0.893342	-0.338872	0.289742
O6	O	1.034975	-0.295611	0.329795
O7	O	0.930211	-0.382105	0.148136
O8	O	0.860549	-0.181548	0.256921
O9	O	1.031818	-0.382075	0.249721
O10	O	0.937535	-0.181526	0.333891
O11	O	0.856382	-0.295664	0.151239
O12	O	0.754841	-0.295676	0.252801
O13	O	0.853340	-0.382097	0.428235
O14	O	0.751733	-0.382127	0.326649
O15	O	0.933434	-0.295624	0.431357
O16	O	0.926110	-0.496203	0.245602
O17	O	0.849173	-0.496212	0.322553
C18	C	0.730553	-0.338907	0.289723
C19	C	0.660911	-0.338938	0.289729
C20	C	0.629861	-0.293990	0.331482
C21	C	0.564426	-0.293972	0.331486
C22	C	0.530043	-0.338913	0.289741
C23	C	0.561100	-0.383864	0.247980
C24	C	0.626534	-0.383877	0.247974
C25	C	0.424057	-0.402300	0.282436
C26	C	0.358624	-0.402289	0.282446
C27	C	0.328224	-0.338875	0.289757
C28	C	0.363264	-0.275469	0.297070
C29	C	0.428698	-0.275482	0.297064
C30	C	0.459091	-0.338905	0.289743
C31	C	0.226223	-0.293903	0.331516
C32	C	0.160787	-0.293883	0.331514
C33	C	0.157462	-0.383782	0.248012
C34	C	0.222897	-0.383796	0.248010
C35	C	0.257273	-0.338857	0.289765
C36	C	0.886733	-0.521747	0.283172
C37	C	0.883963	-0.599981	0.280382
C38	C	0.922714	-0.636664	0.319178
C39	C	0.920109	-0.710173	0.316558
C40	C	0.878756	-0.746999	0.275138
C41	C	0.840000	-0.710312	0.236341
C42	C	0.842603	-0.636804	0.238964
C43	C	0.866675	-0.966853	0.262993
C44	C	0.864077	-1.040367	0.260371
C45	C	0.944185	-1.040223	0.340590
C46	C	0.946787	-0.966714	0.343207
C47	C	0.908029	-0.930033	0.304412
N48	N	0.876093	-0.822138	0.272458
N49	N	0.910689	-0.854895	0.307096
C50	C	1.056766	-0.338839	0.289761
C51	C	1.126408	-0.338824	0.289769
C52	C	0.893394	-0.338858	0.453165
C53	C	0.893417	-0.338852	0.522807
C54	C	0.899993	-0.155284	0.296351
C55	C	0.902828	-0.077049	0.299167
C56	C	0.893327	-0.338836	0.126955
C57	C	0.893434	-0.338644	0.057321
C58	C	0.935120	-0.293824	0.557147
C59	C	0.935120	-0.293793	0.622583
C60	C	0.893423	-0.338804	0.653677
C61	C	0.851712	-0.383836	0.619329
C62	C	0.851709	-0.383860	0.553894
C63	C	0.886186	-0.402182	0.755075
C64	C	0.886193	-0.402159	0.820509
C65	C	0.893430	-0.338730	0.855501
C66	C	0.900672	-0.275321	0.825051
C67	C	0.900669	-0.275345	0.759616
C68	C	0.893422	-0.338783	0.724630
C69	C	0.935135	-0.293665	0.960794
C70	C	0.935131	-0.293633	1.026232
C71	C	0.851727	-0.383682	1.022977
C72	C	0.851728	-0.383707	0.957540
C73	C	0.893435	-0.338699	0.926453
H74	H	0.651814	-0.420480	0.213972
C75	C	0.992290	-0.926211	0.388761
N76	N	1.026570	-0.895704	0.423066
H77	H	0.975739	-1.070097	0.372175
H78	H	0.254214	-0.257306	0.365512
C79	C	0.818580	-1.080874	0.214807
N80	N	0.784314	-1.111384	0.180490
H81	H	0.811047	-0.606937	0.207373
C82	C	0.981009	-0.244094	1.064006
N83	N	1.015566	-0.206781	1.092457
C84	C	0.824026	-0.926514	0.220331
N85	N	0.791895	-0.896127	0.188202
H86	H	0.969081	-0.257174	0.531839
C87	C	0.794549	-0.750823	0.190740
N88	N	0.760330	-0.781335	0.156378
C89	C	0.530265	-0.244527	0.377423
N90	N	0.504536	-0.207288	0.412025
C91	C	0.257052	-0.433248	0.202082
N92	N	0.282778	-0.470498	0.167486
C93	C	0.981002	-0.244261	0.660364
N94	N	1.015562	-0.206955	0.688819
C95	C	0.805832	-0.433398	0.516119
N96	N	0.771277	-0.470713	0.487666
C97	C	0.908626	-0.205596	0.726123
N98	N	0.914616	-0.153060	0.700897
C99	C	0.908631	-0.205542	0.863537
N100	N	0.914627	-0.152987	0.892528
H101	H	0.657847	-0.257397	0.365482
C102	C	0.467239	-0.205737	0.305100
N103	N	0.496269	-0.153203	0.311149
C104	C	0.805860	-0.433195	1.057176
N105	N	0.771312	-0.470489	1.082939
C106	C	0.981009	-0.244150	0.926596
N107	N	1.015560	-0.206853	0.900840
C108	C	0.878237	-0.471966	0.716590
N109	N	0.872254	-0.524525	0.687604
H110	H	0.817772	-0.420378	0.929580
H111	H	0.880300	-0.453791	0.845296
C112	C	0.805843	-0.433344	0.653534
N113	N	0.771291	-0.470633	0.679297
H114	H	0.338514	-0.223831	0.303023
H115	H	0.956392	-0.606685	0.352903
C116	C	0.126633	-0.244433	0.377448
N117	N	0.100907	-0.207187	0.412048
H118	H	0.129468	-0.420374	0.214023
H119	H	0.330099	-0.453918	0.276494
H120	H	0.448803	-0.453944	0.276482
C121	C	0.962747	-0.750521	0.359228
N122	N	0.994867	-0.780910	0.391367
C123	C	0.523278	-0.433301	0.202061
N124	N	0.494790	-0.470537	0.167473
