data_functionalizedCrystal
_audit_creation_method	'MofGen! by Chris Wilmer'
_symmetry_space_group_name_H-M	'P1'
_symmetry_Int_Tables_number	1
_symmetry_cell_setting	triclinic
loop_
_symmetry_equiv_pos_as_xyz
  x,y,z
_cell_length_a	11.792241
_cell_length_b	10.654554
_cell_length_c	10.268362
_cell_angle_alpha	89.995935
_cell_angle_beta	90.000374
_cell_angle_gamma	95.659871
loop_
_atom_site_label
_atom_site_type_symbol
_atom_site_fract_x
_atom_site_fract_y
_atom_site_fract_z
O1	O	-1.507309	0.172136	-0.108170
O2	O	-1.177009	0.189876	-0.108200
O3	O	-1.349751	-0.001754	-0.108180
O4	O	-1.334568	0.363766	-0.108190
O5	O	-1.349735	-0.001762	0.108421
O6	O	-1.176994	0.189868	0.108401
O7	O	-1.507294	0.172128	0.108431
Cu8	Cu	-1.342143	0.180997	0.128193
Cu9	Cu	-1.342161	0.181007	-0.127962
O10	O	-1.334553	0.363758	0.108410
C11	C	-1.134708	0.188758	0.000096
C12	C	-1.008687	0.185422	0.000085
C13	C	-1.348627	-0.048553	0.000119
C14	C	-1.345288	-0.187986	0.000114
C15	C	-1.549595	0.173246	0.000131
C16	C	-1.675616	0.176582	0.000134
C17	C	-0.777960	0.179289	0.000123
C18	C	-0.906353	0.182697	0.000102
C19	C	-1.335676	0.410557	0.000109
C20	C	-1.339015	0.549991	0.000105
N21	N	-1.342138	0.180990	0.308359
C22	C	-1.447000	0.732247	0.000125
C23	C	-1.443864	0.601234	0.000116
C24	C	-1.237295	0.629767	0.000090
C25	C	-1.240433	0.760778	0.000090
C26	C	-1.551856	0.783483	0.000150
C27	C	-1.653576	0.703715	0.000162
C28	C	-1.650440	0.572703	0.000153
C29	C	-1.545584	0.521458	0.000131
N30	N	-1.342174	0.181004	-0.308128
C31	C	-1.342155	0.181004	0.574029
C32	C	-1.342142	0.181000	0.426191
H33	H	-1.554421	0.890159	0.000161
H34	H	-1.738947	0.745448	0.000148
H35	H	-1.157610	0.825726	0.000082
F36	F	-1.125708	0.575224	0.000068
H37	H	-1.733266	0.507759	0.000150
F38	F	-1.542251	0.382020	0.000165
