data_functionalizedCrystal
_audit_creation_method	'MofGen! by Chris Wilmer'
_symmetry_space_group_name_H-M	'P1'
_symmetry_Int_Tables_number	1
_symmetry_cell_setting	triclinic
loop_
_symmetry_equiv_pos_as_xyz
  x,y,z
_cell_length_a	17.699083
_cell_length_b	17.038272
_cell_length_c	16.176319
_cell_angle_alpha	89.993159
_cell_angle_beta	89.998611
_cell_angle_gamma	87.197286
loop_
_atom_site_label
_atom_site_type_symbol
_atom_site_fract_x
_atom_site_fract_y
_atom_site_fract_z
O1	O	1.010620	0.098861	-0.068631
O2	O	0.791093	0.111723	-0.068658
O3	O	0.899552	-0.008521	-0.068638
O4	O	0.902161	0.219105	-0.068651
O5	O	0.899535	-0.008529	0.068855
O6	O	0.791077	0.111715	0.068835
O7	O	1.010604	0.098853	0.068862
Cu8	Cu	0.900839	0.105284	0.081403
Cu9	Cu	0.900858	0.105293	-0.081199
O10	O	0.902145	0.219098	0.068842
C11	C	0.762857	0.111258	0.000085
C12	C	0.678748	0.109876	0.000075
C13	C	0.634797	0.180457	0.000071
C14	C	0.555767	0.179153	0.000082
C15	C	0.520690	0.107267	0.000091
C16	C	0.564647	0.036681	0.000097
C17	C	0.643675	0.037986	0.000092
C18	C	0.245935	0.031418	0.000118
C19	C	0.166901	0.030119	0.000120
C20	C	0.158028	0.172585	0.000108
C21	C	0.237056	0.173890	0.000103
C22	C	0.281006	0.103304	0.000113
C23	C	0.366699	0.104719	0.000103
C24	C	0.434999	0.105852	0.000095
C25	C	0.897170	-0.037649	0.000108
C26	C	0.890090	-0.124431	0.000107
C27	C	0.955100	-0.174651	0.000116
C28	C	0.948442	-0.256191	0.000107
C29	C	0.876773	-0.287509	0.000096
C30	C	0.811758	-0.237282	0.000084
C31	C	0.818417	-0.155744	0.000087
C32	C	0.853251	-0.533228	0.000081
C33	C	0.846597	-0.614773	0.000081
C34	C	0.983282	-0.633676	0.000103
C35	C	0.989934	-0.552135	0.000110
C36	C	0.924919	-0.501916	0.000095
C37	C	0.869967	-0.370855	0.000089
C38	C	0.931726	-0.418571	0.000095
C39	C	1.038840	0.099318	0.000117
C40	C	1.122949	0.100701	0.000122
C41	C	0.904526	0.248226	0.000094
C42	C	0.911607	0.335007	0.000090
N43	N	0.900830	0.105277	0.195768
N44	N	0.900872	0.105293	-0.195564
C45	C	0.948873	0.052054	0.239041
C46	C	0.948877	0.052054	0.325588
C47	C	0.900841	0.105280	0.368861
C48	C	0.852793	0.158505	0.325582
C49	C	0.852786	0.158501	0.239036
C50	C	0.852820	0.158519	0.674610
C51	C	0.852833	0.158520	0.761162
C52	C	0.948911	0.052072	0.761162
C53	C	0.948904	0.052068	0.674617
C54	C	0.900853	0.105290	0.631345
C55	C	0.900849	0.105289	0.537501
C56	C	0.900849	0.105285	0.462703
H57	H	0.265612	0.232426	0.000092
H58	H	0.813678	0.201840	0.360819
H59	H	0.987996	0.008715	0.360821
H60	H	0.138344	-0.028422	0.000128
H61	H	0.788233	-0.640268	0.000085
H62	H	0.800310	-0.492349	0.000069
H63	H	0.519986	0.236627	0.000078
O64	O	1.000706	-0.005350	0.627949
H65	H	0.992631	0.003591	0.560498
O66	O	1.000732	-0.005343	0.807832
H67	H	0.992664	0.003591	0.875282
O68	O	0.293332	-0.044711	0.000121
H69	H	0.329544	-0.047532	0.056164
H70	H	0.813714	0.201865	0.796393
H71	H	0.663351	0.238994	0.000064
H72	H	0.753404	-0.262788	0.000070
O73	O	1.053403	-0.687839	0.000118
H74	H	1.053653	-0.725430	-0.055925
O75	O	0.748300	-0.101572	0.000086
H76	H	0.697345	-0.137046	0.000088
O77	O	0.526819	-0.040856	0.000109
H78	H	0.464482	-0.029907	0.000104
H79	H	0.990079	-0.393068	0.000086
O80	O	0.792669	-0.404639	0.000095
H81	H	0.786374	-0.441336	-0.055942
H82	H	0.987992	0.008715	0.203814
O83	O	0.691085	-0.038140	0.000093
H84	H	0.653418	-0.088346	0.000093
H85	H	0.813664	0.201839	0.203804
H86	H	0.813698	0.201856	0.639385
H87	H	0.122235	0.230060	0.000104
H88	H	1.001381	-0.297077	0.000116
O89	O	1.032402	-0.140878	0.000119
H90	H	1.063894	-0.161074	0.056157
O91	O	1.067233	-0.518355	0.000103
H92	H	1.111322	-0.566976	0.000095
