data_functionalizedCrystal
_audit_creation_method	'MofGen! by Chris Wilmer'
_symmetry_space_group_name_H-M	'P1'
_symmetry_Int_Tables_number	1
_symmetry_cell_setting	triclinic
loop_
_symmetry_equiv_pos_as_xyz
  x,y,z
_cell_length_a	16.776229
_cell_length_b	17.699083
_cell_length_c	11.792254
_cell_angle_alpha	96.259194
_cell_angle_beta	90.005713
_cell_angle_gamma	90.003036
loop_
_atom_site_label
_atom_site_type_symbol
_atom_site_fract_x
_atom_site_fract_y
_atom_site_fract_z
O1	O	-0.066275	0.103780	-1.505659
O2	O	-0.066276	0.114461	-1.175191
O3	O	-0.066283	-0.001018	-1.349762
O4	O	-0.066268	0.219260	-1.331089
O5	O	0.066293	-0.001019	-1.349742
O6	O	0.066301	0.114461	-1.175172
O7	O	0.066301	0.103780	-1.505639
Zn8	Zn	0.087350	0.109120	-1.340402
Zn9	Zn	-0.087325	0.109121	-1.340428
O10	O	0.066309	0.219259	-1.331069
C11	C	0.000012	0.113788	-1.132899
C12	C	0.000012	0.111774	-1.006910
N13	N	0.206562	0.109119	-1.340393
N14	N	-0.206536	0.109116	-1.340447
C15	C	0.000001	-0.029219	-1.349083
C16	C	-0.000010	-0.113248	-1.347075
C17	C	0.248279	0.155336	-1.409094
C18	C	0.331731	0.155334	-1.409107
C19	C	0.373465	0.109117	-1.340411
C20	C	0.331742	0.062895	-1.271707
C21	C	0.248291	0.062894	-1.271701
C22	C	0.668289	0.062896	-1.271730
C23	C	0.751745	0.062902	-1.271738
C24	C	0.751729	0.155335	-1.409136
C25	C	0.668278	0.155335	-1.409130
C26	C	0.626563	0.109110	-1.340431
C27	C	0.536074	0.109112	-1.340419
C28	C	0.463951	0.109118	-1.340416
C29	C	0.000023	0.247460	-1.331748
C30	C	0.000028	0.331489	-1.333755
C31	C	0.000028	0.379561	-1.231286
C32	C	0.000019	0.458514	-1.233179
C33	C	0.000015	0.489394	-1.337542
C34	C	0.000013	0.441317	-1.440019
C35	C	0.000017	0.362365	-1.438125
C36	C	-0.000003	0.759721	-1.447659
C37	C	-0.000004	0.838679	-1.449545
C38	C	-0.000001	0.855870	-1.242713
C39	C	0.000003	0.776918	-1.240819
C40	C	-0.000003	0.728847	-1.343296
C41	C	0.000005	0.643237	-1.341242
C42	C	0.000012	0.575003	-1.339597
C43	C	0.000012	0.104453	-1.547931
C44	C	0.000007	0.106467	-1.673920
C45	C	0.000008	0.110138	-0.904593
C46	C	0.000007	0.108092	-0.776231
H47	H	0.214305	0.192976	-1.465028
F48	F	0.000003	0.474184	-1.551090
H49	H	0.000016	0.497652	-1.149738
F50	F	0.376160	0.013706	-1.198598
F51	F	0.376126	0.204525	-1.482227
H52	H	0.000014	0.323225	-1.521566
F53	F	0.623902	0.013723	-1.198579
F54	F	0.203893	0.013698	-1.198589
F55	F	-0.000010	0.871541	-1.560628
F56	F	0.000038	0.346703	-1.120207
H57	H	0.000010	0.751780	-1.155837
H58	H	0.634303	0.192971	-1.465065
H59	H	0.785722	0.025265	-1.215795
H60	H	-0.000003	0.720590	-1.531102
H61	H	0.785704	0.192972	-1.465077
F62	F	0.000002	0.907037	-1.133648
