data_functionalizedCrystal
_audit_creation_method	'MofGen! by Chris Wilmer'
_symmetry_space_group_name_H-M	'P1'
_symmetry_Int_Tables_number	1
_symmetry_cell_setting	triclinic
loop_
_symmetry_equiv_pos_as_xyz
  x,y,z
_cell_length_a	23.532355
_cell_length_b	27.732064
_cell_length_c	22.010155
_cell_angle_alpha	90.006488
_cell_angle_beta	89.991030
_cell_angle_gamma	82.738461
loop_
_atom_site_label
_atom_site_type_symbol
_atom_site_fract_x
_atom_site_fract_y
_atom_site_fract_z
O1	O	0.755167	0.058553	-0.050437
O2	O	1.005167	0.308553	0.199563
O3	O	1.255167	0.558553	0.449563
O4	O	1.505167	0.808553	0.699563
O5	O	0.589282	0.067069	-0.050456
O6	O	0.839282	0.317069	0.199544
O7	O	1.089282	0.567069	0.449544
O8	O	1.339282	0.817069	0.699544
O9	O	0.677372	-0.007578	-0.050448
O10	O	0.927372	0.242422	0.199552
O11	O	1.177372	0.492422	0.449552
O12	O	1.427372	0.742422	0.699552
O13	O	0.667077	0.133200	-0.050445
O14	O	0.917077	0.383200	0.199555
O15	O	1.167077	0.633200	0.449555
O16	O	1.417077	0.883200	0.699555
O17	O	0.677345	-0.007568	0.050602
O18	O	0.927345	0.242432	0.300602
O19	O	1.177345	0.492432	0.550602
O20	O	1.427345	0.742432	0.800602
O21	O	0.589256	0.067079	0.050594
O22	O	0.839256	0.317079	0.300594
O23	O	1.089256	0.567079	0.550594
O24	O	1.339256	0.817079	0.800594
O25	O	0.755141	0.058562	0.050613
O26	O	1.005141	0.308562	0.300613
O27	O	1.255141	0.558562	0.550613
O28	O	1.505141	0.808562	0.800613
Cu29	Cu	0.672196	0.062822	0.059830
Cu30	Cu	0.922196	0.312822	0.309830
Cu31	Cu	1.172196	0.562822	0.559830
Cu32	Cu	1.422196	0.812822	0.809830
Cu33	Cu	0.672227	0.062810	-0.059673
Cu34	Cu	0.922227	0.312810	0.190327
Cu35	Cu	1.172227	0.562810	0.440327
Cu36	Cu	1.422227	0.812810	0.690327
O37	O	0.667051	0.133210	0.050605
O38	O	0.917051	0.383210	0.300605
O39	O	1.167051	0.633210	0.550605
O40	O	1.417051	0.883210	0.800605
C41	C	0.568053	0.066861	0.000067
C42	C	0.818053	0.316861	0.250067
C43	C	1.068053	0.566861	0.500067
C44	C	1.318053	0.816861	0.750067
C45	C	0.504835	0.066221	0.000059
C46	C	0.754835	0.316221	0.250059
C47	C	1.004835	0.566221	0.500059
C48	C	1.254835	0.816221	0.750059
C49	C	0.112815	0.062205	0.055167
C50	C	0.362815	0.312205	0.305167
C51	C	0.612815	0.562205	0.555167
C52	C	0.862815	0.812205	0.805167
C53	C	0.053417	0.061596	0.055170
C54	C	0.303417	0.311596	0.305170
C55	C	0.553417	0.561596	0.555170
C56	C	0.803417	0.811596	0.805170
O57	O	0.022687	0.061269	0.102015
O58	O	0.272687	0.311269	0.352015
O59	O	0.522687	0.561269	0.602015
O60	O	0.772687	0.811269	0.852015
N61	N	0.023724	0.061289	0.000087
N62	N	0.273724	0.311289	0.250087
N63	N	0.523724	0.561289	0.500087
N64	N	0.773724	0.811289	0.750087
C65	C	0.053432	0.061586	-0.055001
C66	C	0.303432	0.311586	0.194999
C67	C	0.553432	0.561586	0.444999
C68	C	0.803432	0.811586	0.694999
O69	O	0.022722	0.061268	-0.101853
O70	O	0.272722	0.311268	0.148147
O71	O	0.522722	0.561268	0.398147
O72	O	0.772722	0.811268	0.648147
C73	C	0.112830	0.062191	-0.055003
C74	C	0.362830	0.312191	0.194997
C75	C	0.612830	0.562191	0.444997
C76	C	0.862830	0.812191	0.694997
C77	C	0.142520	0.062503	0.000083
C78	C	0.392520	0.312503	0.250083
C79	C	0.642520	0.562503	0.500083
C80	C	0.892520	0.812503	0.750083
C81	C	0.142505	0.062517	0.110249
C82	C	0.392505	0.312517	0.360249
C83	C	0.642505	0.562517	0.610249
C84	C	0.892505	0.812517	0.860249
C85	C	0.201899	0.063126	0.110246
C86	C	0.451899	0.313126	0.360246
C87	C	0.701899	0.563126	0.610246
C88	C	0.951899	0.813126	0.860246
C89	C	0.231603	0.063425	0.055162
C90	C	0.481603	0.313425	0.305162
C91	C	0.731603	0.563425	0.555162
C92	C	0.981603	0.813425	0.805162
C93	C	0.201914	0.063113	0.000081
C94	C	0.451914	0.313113	0.250081
C95	C	0.701914	0.563113	0.500081
C96	C	0.951914	0.813113	0.750081
C97	C	0.142538	0.062484	-0.110090
C98	C	0.392538	0.312484	0.139910
C99	C	0.642538	0.562484	0.389910
C100	C	0.892538	0.812484	0.639910
C101	C	0.201940	0.063089	-0.110087
C102	C	0.451940	0.313089	0.139913
C103	C	0.701940	0.563089	0.389913
C104	C	0.951940	0.813089	0.639913
C105	C	0.231629	0.063402	-0.055001
C106	C	0.481629	0.313402	0.194999
C107	C	0.731629	0.563402	0.444999
C108	C	0.981629	0.813402	0.694999
C109	C	0.291012	0.064021	-0.055006
C110	C	0.541012	0.314021	0.194994
C111	C	0.791012	0.564021	0.444994
C112	C	1.041012	0.814021	0.694994
N113	N	0.320705	0.064328	0.000076
N114	N	0.570705	0.314328	0.250076
N115	N	0.820705	0.564328	0.500076
N116	N	1.070705	0.814328	0.750076
C117	C	0.291001	0.064030	0.055160
C118	C	0.541001	0.314030	0.305160
C119	C	0.791001	0.564030	0.555160
C120	C	1.041001	0.814030	0.805160
C121	C	-0.071307	0.060313	-0.054993
C122	C	0.178693	0.310313	0.195007
C123	C	0.428693	0.560313	0.445007
C124	C	0.678693	0.810313	0.695007
C125	C	-0.130704	0.059711	-0.054992
C126	C	0.119296	0.309711	0.195008
C127	C	0.369296	0.559711	0.445008
C128	C	0.619296	0.809711	0.695008
C129	C	-0.130714	0.059721	0.055179
C130	C	0.119286	0.309721	0.305179
C131	C	0.369286	0.559721	0.555179
C132	C	0.619286	0.809721	0.805179
C133	C	-0.071317	0.060326	0.055177
C134	C	0.178683	0.310326	0.305177
C135	C	0.428683	0.560326	0.555177
C136	C	0.678683	0.810326	0.805177
C137	C	-0.041613	0.060621	0.000089
C138	C	0.208387	0.310621	0.250089
C139	C	0.458387	0.560621	0.500089
C140	C	0.708387	0.810621	0.750089
C141	C	0.415732	0.065311	0.055151
C142	C	0.665732	0.315311	0.305151
C143	C	0.915732	0.565311	0.555151
C144	C	1.165732	0.815311	0.805151
C145	C	0.475131	0.065923	0.055143
C146	C	0.725131	0.315923	0.305143
C147	C	0.975131	0.565923	0.555143
C148	C	1.225131	0.815923	0.805143
C149	C	0.475137	0.065911	-0.055027
C150	C	0.725137	0.315911	0.194973
C151	C	0.975137	0.565911	0.444973
C152	C	1.225137	0.815911	0.694973
C153	C	0.415743	0.065302	-0.055020
C154	C	0.665743	0.315302	0.194980
C155	C	0.915743	0.565302	0.444980
C156	C	1.165743	0.815302	0.694980
C157	C	0.386042	0.065000	0.000074
C158	C	0.636042	0.315000	0.250074
C159	C	0.886042	0.565000	0.500074
C160	C	1.136042	0.815000	0.750074
O161	O	0.321780	0.064346	-0.101827
O162	O	0.571780	0.314346	0.148173
O163	O	0.821780	0.564346	0.398173
O164	O	1.071780	0.814346	0.648173
O165	O	0.321720	0.064341	0.102004
O166	O	0.571720	0.314341	0.352004
O167	O	0.821720	0.564341	0.602004
O168	O	1.071720	0.814341	0.852004
C169	C	0.677141	-0.025580	0.000075
C170	C	0.927141	0.224420	0.250075
C171	C	1.177141	0.474420	0.500075
C172	C	1.427141	0.724420	0.750075
C173	C	0.676486	-0.079236	0.000069
C174	C	0.926486	0.170764	0.250069
C175	C	1.176486	0.420764	0.500069
C176	C	1.426486	0.670764	0.750069
C177	C	0.619970	-0.456386	0.000060
C178	C	0.869970	-0.206386	0.250060
C179	C	1.119970	0.043614	0.500060
C180	C	1.369970	0.293614	0.750060
C181	C	0.622381	-0.254723	0.000060
C182	C	0.872381	-0.004723	0.250060
C183	C	1.122381	0.245277	0.500060
C184	C	1.372381	0.495277	0.750060
O185	O	0.578526	-0.223531	0.000031
O186	O	0.828526	0.026469	0.250031
O187	O	1.078526	0.276469	0.500031
O188	O	1.328526	0.526469	0.750031
N189	N	0.674616	-0.235523	0.000066
N190	N	0.924616	0.014477	0.250066
N191	N	1.174616	0.264477	0.500066
N192	N	1.424616	0.514477	0.750066
C193	C	0.726253	-0.266743	0.000068
C194	C	0.976253	-0.016743	0.250068
C195	C	1.226253	0.233257	0.500068
C196	C	1.476253	0.483257	0.750068
O197	O	0.770738	-0.245785	0.000066
O198	O	1.020738	0.004215	0.250066
O199	O	1.270738	0.254215	0.500066
O200	O	1.520738	0.504215	0.750066
C201	C	0.723841	-0.468406	0.000064
C202	C	0.973841	-0.218406	0.250064
C203	C	1.223841	0.031594	0.500064
C204	C	1.473841	0.281594	0.750064
C205	C	0.671603	-0.487602	0.000064
C206	C	0.921603	-0.237602	0.250064
C207	C	1.171603	0.012398	0.500064
C208	C	1.421603	0.262398	0.750064
C209	C	0.567735	-0.475583	0.000060
C210	C	0.817735	-0.225583	0.250060
C211	C	1.067735	0.024417	0.500060
C212	C	1.317735	0.274417	0.750060
C213	C	0.567133	-0.525996	0.000063
C214	C	0.817133	-0.275996	0.250063
C215	C	1.067133	-0.025996	0.500063
C216	C	1.317133	0.224004	0.750063
C217	C	0.618766	-0.557212	0.000067
C218	C	0.868766	-0.307212	0.250067
C219	C	1.118766	-0.057212	0.500067
C220	C	1.368766	0.192788	0.750067
C221	C	0.671000	-0.538015	0.000068
C222	C	0.921000	-0.288015	0.250068
C223	C	1.171000	-0.038015	0.500068
C224	C	1.421000	0.211985	0.750068
C225	C	0.775477	-0.499625	0.000061
C226	C	1.025477	-0.249625	0.250061
C227	C	1.275477	0.000375	0.500061
C228	C	1.525477	0.250375	0.750061
C229	C	0.774870	-0.550043	0.000059
C230	C	1.024870	-0.300043	0.250059
C231	C	1.274870	-0.050043	0.500059
C232	C	1.524870	0.199957	0.750059
C233	C	0.722631	-0.569239	0.000059
C234	C	0.972631	-0.319239	0.250059
C235	C	1.222631	-0.069239	0.500059
C236	C	1.472631	0.180761	0.750059
C237	C	0.722031	-0.619644	0.000075
C238	C	0.972031	-0.369644	0.250075
C239	C	1.222031	-0.119644	0.500075
C240	C	1.472031	0.130356	0.750075
N241	N	0.669795	-0.638844	0.000069
N242	N	0.919795	-0.388844	0.250069
N243	N	1.169795	-0.138844	0.500069
N244	N	1.419795	0.111156	0.750069
C245	C	0.618163	-0.607628	0.000065
C246	C	0.868163	-0.357628	0.250065
C247	C	1.118163	-0.107628	0.500065
C248	C	1.368163	0.142372	0.750065
C249	C	0.727515	-0.160867	0.000071
C250	C	0.977515	0.089133	0.250071
C251	C	1.227515	0.339133	0.500071
C252	C	1.477515	0.589133	0.750071
C253	C	0.728118	-0.110451	0.000073
C254	C	0.978118	0.139549	0.250073
C255	C	1.228118	0.389549	0.500073
C256	C	1.478118	0.639549	0.750073
C257	C	0.624246	-0.098435	0.000064
C258	C	0.874246	0.151565	0.250064
C259	C	1.124246	0.401565	0.500064
C260	C	1.374246	0.651565	0.750064
C261	C	0.623644	-0.148851	0.000066
C262	C	0.873644	0.101149	0.250066
C263	C	1.123644	0.351149	0.500066
C264	C	1.373644	0.601149	0.750066
C265	C	0.675280	-0.180066	0.000065
C266	C	0.925280	0.069934	0.250065
C267	C	1.175280	0.319934	0.500065
C268	C	1.425280	0.569934	0.750065
C269	C	0.616902	-0.713499	0.000073
C270	C	0.866902	-0.463499	0.250073
C271	C	1.116902	-0.213499	0.500073
C272	C	1.366902	0.036501	0.750073
C273	C	0.616304	-0.763917	0.000079
C274	C	0.866304	-0.513917	0.250079
C275	C	1.116304	-0.263917	0.500079
C276	C	1.366304	-0.013917	0.750079
C277	C	0.720176	-0.775929	0.000085
C278	C	0.970176	-0.525929	0.250085
C279	C	1.220176	-0.275929	0.500085
C280	C	1.470176	-0.025929	0.750085
C281	C	0.720774	-0.725516	0.000082
C282	C	0.970774	-0.475516	0.250082
C283	C	1.220774	-0.225516	0.500082
C284	C	1.470774	0.024484	0.750082
C285	C	0.669132	-0.694301	0.000074
C286	C	0.919132	-0.444301	0.250074
C287	C	1.169132	-0.194301	0.500074
C288	C	1.419132	0.055699	0.750074
O289	O	0.765862	-0.650864	0.000097
O290	O	1.015862	-0.400864	0.250097
O291	O	1.265862	-0.150864	0.500097
O292	O	1.515862	0.099136	0.750097
O293	O	0.573684	-0.628595	0.000053
O294	O	0.823684	-0.378595	0.250053
O295	O	1.073684	-0.128595	0.500053
O296	O	1.323684	0.121405	0.750053
C297	C	0.620572	-0.405973	0.000057
C298	C	0.870572	-0.155973	0.250057
C299	C	1.120572	0.094027	0.500057
C300	C	1.370572	0.344027	0.750057
C301	C	0.672807	-0.386776	0.000057
C302	C	0.922807	-0.136776	0.250057
C303	C	1.172807	0.113224	0.500057
C304	C	1.422807	0.363224	0.750057
C305	C	0.724439	-0.417992	0.000061
C306	C	0.974439	-0.167992	0.250061
C307	C	1.224439	0.082008	0.500061
C308	C	1.474439	0.332008	0.750061
C309	C	0.673410	-0.336361	0.000059
C310	C	0.923410	-0.086361	0.250059
C311	C	1.173410	0.163639	0.500059
C312	C	1.423410	0.413639	0.750059
C313	C	0.621777	-0.305145	0.000056
C314	C	0.871777	-0.055145	0.250056
C315	C	1.121777	0.194855	0.500056
C316	C	1.371777	0.444855	0.750056
C317	C	0.569542	-0.324345	0.000050
C318	C	0.819542	-0.074345	0.250050
C319	C	1.069542	0.175655	0.500050
C320	C	1.319542	0.425655	0.750050
C321	C	0.568940	-0.374758	0.000053
C322	C	0.818940	-0.124758	0.250053
C323	C	1.068940	0.125242	0.500053
C324	C	1.318940	0.375242	0.750053
C325	C	0.776675	-0.398793	0.000067
C326	C	1.026675	-0.148793	0.250067
C327	C	1.276675	0.101207	0.500067
C328	C	1.526675	0.351207	0.750067
C329	C	0.777273	-0.348379	0.000064
C330	C	1.027273	-0.098379	0.250064
C331	C	1.277273	0.151621	0.500064
C332	C	1.527273	0.401621	0.750064
C333	C	0.725640	-0.317163	0.000060
C334	C	0.975640	-0.067163	0.250060
C335	C	1.225640	0.182837	0.500060
C336	C	1.475640	0.432837	0.750060
C337	C	0.776370	0.058770	0.000089
C338	C	1.026370	0.308770	0.250089
C339	C	1.276370	0.558770	0.500089
C340	C	1.526370	0.808770	0.750089
C341	C	0.839587	0.059410	0.000092
C342	C	1.089587	0.309410	0.250092
C343	C	1.339587	0.559410	0.500092
C344	C	1.589587	0.809410	0.750092
C345	C	0.667282	0.151212	0.000081
C346	C	0.917282	0.401212	0.250081
C347	C	1.167282	0.651212	0.500081
C348	C	1.417282	0.901212	0.750081
C349	C	0.667937	0.204867	0.000083
C350	C	0.917937	0.454867	0.250083
C351	C	1.167937	0.704867	0.500083
C352	C	1.417937	0.954867	0.750083
N353	N	0.672178	0.062829	0.143883
N354	N	0.922178	0.312829	0.393883
N355	N	1.172178	0.562829	0.643883
N356	N	1.422178	0.812829	0.893883
C357	C	0.637926	0.033648	0.436483
C358	C	0.887926	0.283648	0.686483
C359	C	1.137926	0.533648	0.936483
C360	C	1.387926	0.783648	1.186483
C361	C	0.637921	0.033649	0.372875
C362	C	0.887921	0.283649	0.622875
C363	C	1.137921	0.533649	0.872875
C364	C	1.387921	0.783649	1.122875
O365	O	0.608779	0.008836	0.339974
O366	O	0.858779	0.258836	0.589974
O367	O	1.108779	0.508836	0.839974
O368	O	1.358779	0.758836	1.089974
N369	N	0.672199	0.062816	0.341067
N370	N	0.922199	0.312816	0.591067
N371	N	1.172199	0.562816	0.841067
N372	N	1.422199	0.812816	1.091067
C373	C	0.706488	0.091980	0.372870
C374	C	0.956488	0.341980	0.622870
C375	C	1.206488	0.591980	0.872870
C376	C	1.456488	0.841980	1.122870
O377	O	0.735644	0.116788	0.339974
O378	O	0.985644	0.366788	0.589974
O379	O	1.235644	0.616788	0.839974
O380	O	1.485644	0.866788	1.089974
C381	C	0.706495	0.091975	0.436476
C382	C	0.956495	0.341975	0.686476
C383	C	1.206495	0.591975	0.936476
C384	C	1.456495	0.841975	1.186476
C385	C	0.672211	0.062810	0.468281
C386	C	0.922211	0.312810	0.718281
C387	C	1.172211	0.562810	0.968281
C388	C	1.422211	0.812810	1.218281
C389	C	0.603645	0.004485	0.468288
C390	C	0.853645	0.254485	0.718288
C391	C	1.103645	0.504485	0.968288
C392	C	1.353645	0.754485	1.218288
C393	C	0.603648	0.004484	0.531891
C394	C	0.853648	0.254484	0.781891
C395	C	1.103648	0.504484	1.031891
C396	C	1.353648	0.754484	1.281891
C397	C	0.637933	0.033646	0.563689
C398	C	0.887933	0.283646	0.813689
C399	C	1.137933	0.533646	1.063689
C400	C	1.387933	0.783646	1.313689
C401	C	0.672215	0.062809	0.531884
C402	C	0.922215	0.312809	0.781884
C403	C	1.172215	0.562809	1.031884
C404	C	1.422215	0.812809	1.281884
C405	C	0.740787	0.121136	0.468278
C406	C	0.990787	0.371136	0.718278
C407	C	1.240787	0.621136	0.968278
C408	C	1.490787	0.871136	1.218278
C409	C	0.740791	0.121128	0.531888
C410	C	0.990791	0.371128	0.781888
C411	C	1.240791	0.621128	1.031888
C412	C	1.490791	0.871128	1.281888
C413	C	0.706507	0.091963	0.563693
C414	C	0.956507	0.341963	0.813693
C415	C	1.206507	0.591963	1.063693
C416	C	1.456507	0.841963	1.313693
C417	C	0.706503	0.091971	0.627286
C418	C	0.956503	0.341971	0.877286
C419	C	1.206503	0.591971	1.127286
C420	C	1.456503	0.841971	1.377286
N421	N	0.672226	0.062804	0.659094
N422	N	0.922226	0.312804	0.909094
N423	N	1.172226	0.562804	1.159094
N424	N	1.422226	0.812804	1.409094
C425	C	0.637941	0.033642	0.627296
C426	C	0.887941	0.283642	0.877296
C427	C	1.137941	0.533642	1.127296
C428	C	1.387941	0.783642	1.377296
C429	C	0.706471	0.091986	0.239292
C430	C	0.956471	0.341986	0.489292
C431	C	1.206471	0.591986	0.739292
C432	C	1.456471	0.841986	0.989292
C433	C	0.706461	0.091994	0.175687
C434	C	0.956461	0.341994	0.425687
C435	C	1.206461	0.591994	0.675687
C436	C	1.456461	0.841994	0.925687
C437	C	0.637895	0.033663	0.175697
C438	C	0.887895	0.283663	0.425697
C439	C	1.137895	0.533663	0.675697
C440	C	1.387895	0.783663	0.925697
C441	C	0.637902	0.033658	0.239303
C442	C	0.887902	0.283658	0.489303
C443	C	1.137902	0.533658	0.739303
C444	C	1.387902	0.783658	0.989303
C445	C	0.672193	0.062820	0.271100
C446	C	0.922193	0.312820	0.521100
C447	C	1.172193	0.562820	0.771100
C448	C	1.422193	0.812820	1.021100
C449	C	0.637951	0.033643	0.760867
C450	C	0.887951	0.283643	1.010867
C451	C	1.137951	0.533643	1.260867
C452	C	1.387951	0.783643	1.510867
C453	C	0.637956	0.033646	0.824476
C454	C	0.887956	0.283646	1.074476
C455	C	1.137956	0.533646	1.324476
C456	C	1.387956	0.783646	1.574476
C457	C	0.706524	0.091975	0.824460
C458	C	0.956524	0.341975	1.074460
C459	C	1.206524	0.591975	1.324460
C460	C	1.456524	0.841975	1.574460
C461	C	0.706517	0.091974	0.760857
C462	C	0.956517	0.341974	1.010857
C463	C	1.206517	0.591974	1.260857
C464	C	1.456517	0.841974	1.510857
C465	C	0.672229	0.062804	0.729062
C466	C	0.922229	0.312804	0.979062
C467	C	1.172229	0.562804	1.229062
C468	C	1.422229	0.812804	1.479062
O469	O	0.735632	0.116770	0.660228
O470	O	0.985632	0.366770	0.910228
O471	O	1.235632	0.616770	1.160228
O472	O	1.485632	0.866770	1.410228
O473	O	0.608795	0.008833	0.660200
O474	O	0.858795	0.258833	0.910200
O475	O	1.108795	0.508833	1.160200
O476	O	1.358795	0.758833	1.410200
N477	N	0.672241	0.062808	0.856274
N478	N	0.922241	0.312808	1.106274
N479	N	1.172241	0.562808	1.356274
N480	N	1.422241	0.812808	1.606274
H481	H	-0.047147	0.060581	0.100033
H482	H	0.202853	0.310581	0.350033
H483	H	0.452853	0.560581	0.600033
H484	H	0.702853	0.810581	0.850033
H485	H	0.610030	0.009890	0.734987
H486	H	0.860030	0.259890	0.984987
H487	H	1.110030	0.509890	1.234987
H488	H	1.360030	0.759890	1.484987
C489	C	0.744172	0.124081	0.140708
C490	C	0.994172	0.374081	0.390708
C491	C	1.244172	0.624081	0.640708
C492	C	1.494172	0.874081	0.890708
N493	N	0.772581	0.148248	0.114365
N494	N	1.022581	0.398248	0.364365
N495	N	1.272581	0.648248	0.614365
N496	N	1.522581	0.898248	0.864365
H497	H	0.610035	0.009896	0.850369
H498	H	0.860035	0.259896	1.100369
H499	H	1.110035	0.509896	1.350369
H500	H	1.360035	0.759896	1.600369
H501	H	0.499333	0.066156	-0.099875
H502	H	0.749333	0.316156	0.150125
H503	H	0.999333	0.566156	0.400125
H504	H	1.249333	0.816156	0.650125
C505	C	0.565935	-0.027602	0.566868
C506	C	0.815935	0.222398	0.816868
C507	C	1.065935	0.472398	1.066868
C508	C	1.315935	0.722398	1.316868
N509	N	0.537528	-0.051772	0.593209
N510	N	0.787528	0.198228	0.843209
N511	N	1.037528	0.448228	1.093209
N512	N	1.287528	0.698228	1.343209
H513	H	0.768717	0.144875	0.557774
H514	H	1.018717	0.394875	0.807774
H515	H	1.268717	0.644875	1.057774
H516	H	1.518717	0.894875	1.307774
C517	C	0.833478	-0.433124	0.000079
C518	C	1.083478	-0.183124	0.250079
C519	C	1.333478	0.066876	0.500079
C520	C	1.583478	0.316876	0.750079
N521	N	0.876266	-0.458981	0.000094
N522	N	1.126266	-0.208981	0.250094
N523	N	1.376266	0.041019	0.500094
N524	N	1.626266	0.291019	0.750094
H525	H	0.734393	0.115737	0.265177
H526	H	0.984393	0.365737	0.515177
H527	H	1.234393	0.615737	0.765177
H528	H	1.484393	0.865737	1.015177
H529	H	0.575725	-0.019265	0.442405
H530	H	0.825725	0.230735	0.692405
H531	H	1.075725	0.480735	0.942405
H532	H	1.325725	0.730735	1.192405
C533	C	0.600190	0.001572	0.274283
C534	C	0.850190	0.251572	0.524283
C535	C	1.100190	0.501572	0.774283
C536	C	1.350190	0.751572	1.024283
N537	N	0.571786	-0.022598	0.300626
N538	N	0.821786	0.227402	0.550626
N539	N	1.071786	0.477402	0.800626
N540	N	1.321786	0.727402	1.050626
C541	C	0.512746	-0.289998	0.000043
C542	C	0.762746	-0.039998	0.250043
C543	C	1.012746	0.210002	0.500043
C544	C	1.262746	0.460002	0.750043
N545	N	0.469970	-0.264125	0.000034
N546	N	0.719970	-0.014125	0.250034
N547	N	0.969970	0.235875	0.500034
N548	N	1.219970	0.485875	0.750034
H549	H	0.770657	-0.094826	0.000082
H550	H	1.020657	0.155174	0.250082
H551	H	1.270657	0.405174	0.500082
H552	H	1.520657	0.655174	0.750082
H553	H	0.526401	-0.390382	0.000054
H554	H	0.776401	-0.140382	0.250054
H555	H	1.026401	0.109618	0.500054
H556	H	1.276401	0.359618	0.750054
H557	H	0.581106	-0.164477	0.000069
H558	H	0.831106	0.085523	0.250069
H559	H	1.081106	0.335523	0.500069
H560	H	1.331106	0.585523	0.750069
H561	H	0.769566	-0.186279	0.000071
H562	H	1.019566	0.063721	0.250071
H563	H	1.269566	0.313721	0.500071
H564	H	1.519566	0.563721	0.750071
C565	C	0.831675	-0.584377	0.000061
C566	C	1.081675	-0.334377	0.250061
C567	C	1.331675	-0.084377	0.500061
C568	C	1.581675	0.165623	0.750061
N569	N	0.874461	-0.610237	0.000065
N570	N	1.124461	-0.360237	0.250065
N571	N	1.374461	-0.110237	0.500065
N572	N	1.624461	0.139763	0.750065
C573	C	0.509666	-0.547106	0.000056
C574	C	0.759666	-0.297106	0.250056
C575	C	1.009666	-0.047106	0.500056
C576	C	1.259666	0.202894	0.750056
N577	N	0.466378	-0.563001	0.000048
N578	N	0.716378	-0.313001	0.250048
N579	N	0.966378	-0.063001	0.500048
N580	N	1.216378	0.186999	0.750048
C581	C	0.778508	0.153216	0.433306
C582	C	1.028508	0.403216	0.683306
C583	C	1.278508	0.653216	0.933306
C584	C	1.528508	0.903216	1.183306
N585	N	0.806925	0.177378	0.406967
N586	N	1.056925	0.427378	0.656967
N587	N	1.306925	0.677378	0.906967
N588	N	1.556925	0.927378	1.156967
C589	C	0.834744	-0.327270	0.000065
C590	C	1.084744	-0.077270	0.250065
C591	C	1.334744	0.172730	0.500065
C592	C	1.584744	0.422730	0.750065
N593	N	0.878030	-0.311371	0.000060
N594	N	1.128030	-0.061371	0.250060
N595	N	1.378030	0.188629	0.500060
N596	N	1.628030	0.438629	0.750060
C597	C	0.234610	0.063415	-0.170690
C598	C	0.484610	0.313415	0.079310
C599	C	0.734610	0.563415	0.329310
C600	C	0.984610	0.813415	0.579310
N601	N	0.259216	0.063661	-0.216336
N602	N	0.509216	0.313661	0.033664
N603	N	0.759216	0.563661	0.283664
N604	N	1.009216	0.813661	0.533664
H605	H	0.762214	-0.801354	0.000091
H606	H	1.012214	-0.551354	0.250091
H607	H	1.262214	-0.301354	0.500091
H608	H	1.512214	-0.051354	0.750091
H609	H	0.609978	0.009917	0.149795
H610	H	0.859978	0.259917	0.399795
H611	H	1.109978	0.509917	0.649795
H612	H	1.359978	0.759917	0.899795
H613	H	0.734426	0.115729	0.734960
H614	H	0.984426	0.365729	0.984960
H615	H	1.234426	0.615729	1.234960
H616	H	1.484426	0.865729	1.484960
C617	C	0.778239	-0.704399	0.000085
C618	C	1.028239	-0.454399	0.250085
C619	C	1.278239	-0.204399	0.500085
C620	C	1.528239	0.045601	0.750085
N621	N	0.821523	-0.688497	0.000080
N622	N	1.071523	-0.438497	0.250080
N623	N	1.321523	-0.188497	0.500080
N624	N	1.571523	0.061503	0.750080
H625	H	0.574850	-0.688090	0.000066
H626	H	0.824850	-0.438090	0.250066
H627	H	1.074850	-0.188090	0.500066
H628	H	1.324850	0.061910	0.750066
H629	H	0.734437	0.115719	0.850362
H630	H	0.984437	0.365719	1.100362
H631	H	1.234437	0.615719	1.350362
H632	H	1.484437	0.865719	1.600362
H633	H	0.391556	0.065070	0.100014
H634	H	0.641556	0.315070	0.350014
H635	H	0.891556	0.565070	0.600014
H636	H	1.141556	0.815070	0.850014
C637	C	0.507787	0.066264	0.115745
C638	C	0.757787	0.316264	0.365745
C639	C	1.007787	0.566264	0.615745
C640	C	1.257787	0.816264	0.865745
N641	N	0.532381	0.066519	0.161389
N642	N	0.782381	0.316519	0.411389
N643	N	1.032381	0.566519	0.661389
N644	N	1.282381	0.816519	0.911389
H645	H	0.226068	0.063378	0.155103
H646	H	0.476068	0.313378	0.405103
H647	H	0.726068	0.563378	0.655103
H648	H	0.976068	0.813378	0.905103
C649	C	0.109894	0.062133	-0.170690
C650	C	0.359894	0.312133	0.079310
C651	C	0.609894	0.562133	0.329310
C652	C	0.859894	0.812133	0.579310
N653	N	0.085308	0.061865	-0.216338
N654	N	0.335308	0.311865	0.033662
N655	N	0.585308	0.561865	0.283662
N656	N	0.835308	0.811865	0.533662
H657	H	0.118327	0.062273	0.155107
H658	H	0.368327	0.312273	0.405107
H659	H	0.618327	0.562273	0.655107
H660	H	0.868327	0.812273	0.905107
C661	C	-0.163400	0.059388	0.115773
C662	C	0.086600	0.309388	0.365773
C663	C	0.336600	0.559388	0.615773
C664	C	0.586600	0.809388	0.865773
N665	N	-0.188020	0.059136	0.161409
N666	N	0.061980	0.309136	0.411409
N667	N	0.311980	0.559136	0.661409
N668	N	0.561980	0.809136	0.911409
C669	C	-0.163356	0.059372	-0.115591
C670	C	0.086644	0.309372	0.134409
C671	C	0.336644	0.559372	0.384409
C672	C	0.586644	0.809372	0.634409
N673	N	-0.187947	0.059112	-0.161236
N674	N	0.062053	0.309112	0.088764
N675	N	0.312053	0.559112	0.338764
N676	N	0.562053	0.809112	0.588764
C677	C	0.558835	-0.785029	0.000077
C678	C	0.808835	-0.535029	0.250077
C679	C	1.058835	-0.285029	0.500077
C680	C	1.308835	-0.035029	0.750077
N681	N	0.515550	-0.800930	0.000074
N682	N	0.765550	-0.550930	0.250074
N683	N	1.015550	-0.300930	0.500074
N684	N	1.265550	-0.050930	0.750074
H685	H	0.391567	0.065055	-0.099875
H686	H	0.641567	0.315055	0.150125
H687	H	0.891567	0.565055	0.400125
H688	H	1.141567	0.815055	0.650125
C689	C	0.510930	-0.441253	0.000056
C690	C	0.760930	-0.191253	0.250056
C691	C	1.010930	0.058747	0.500056
C692	C	1.260930	0.308747	0.750056
N693	N	0.468141	-0.415398	0.000056
N694	N	0.718141	-0.165398	0.250056
N695	N	0.968141	0.084602	0.500056
N696	N	1.218141	0.334602	0.750056
C697	C	0.567450	-0.064088	0.000055
C698	C	0.817450	0.185912	0.250055
C699	C	1.067450	0.435912	0.500055
C700	C	1.317450	0.685912	0.750055
N701	N	0.524673	-0.038216	0.000043
N702	N	0.774673	0.211784	0.250043
N703	N	1.024673	0.461784	0.500043
N704	N	1.274673	0.711784	0.750043
C705	C	-0.038639	0.060643	-0.115598
C706	C	0.211361	0.310643	0.134402
C707	C	0.461361	0.560643	0.384402
C708	C	0.711361	0.810643	0.634402
N709	N	-0.014036	0.060890	-0.161246
N710	N	0.235964	0.310890	0.088754
N711	N	0.485964	0.560890	0.338754
N712	N	0.735964	0.810890	0.588754
H713	H	0.818016	-0.484004	0.000061
H714	H	1.068016	-0.234004	0.250061
H715	H	1.318016	0.015996	0.500061
H716	H	1.568016	0.265996	0.750061
