data_functionalizedCrystal
_audit_creation_method	'MofGen! by Chris Wilmer'
_symmetry_space_group_name_H-M	'P1'
_symmetry_Int_Tables_number	1
_symmetry_cell_setting	triclinic
loop_
_symmetry_equiv_pos_as_xyz
  x,y,z
_cell_length_a	12.594516
_cell_length_b	19.805407
_cell_length_c	19.805399
_cell_angle_alpha	90.019573
_cell_angle_beta	89.979203
_cell_angle_gamma	89.983947
loop_
_atom_site_label
_atom_site_type_symbol
_atom_site_fract_x
_atom_site_fract_y
_atom_site_fract_z
Zn1	Zn	-0.423767	-1.034784	-0.382752
Zn2	Zn	-0.601760	-1.034720	-0.269577
Zn3	Zn	-0.423796	-0.921599	-0.269576
Zn4	Zn	-0.601704	-0.921583	-0.382723
O5	O	-0.512757	-0.978172	-0.326157
O6	O	-0.447389	-1.129492	-0.367751
O7	O	-0.578189	-1.019694	-0.174860
O8	O	-0.274846	-0.936647	-0.284601
O9	O	-0.578160	-1.129445	-0.284602
O10	O	-0.274825	-1.019804	-0.367750
O11	O	-0.447439	-0.936584	-0.174860
O12	O	-0.447385	-0.826880	-0.284573
O13	O	-0.578064	-0.936620	-0.477444
O14	O	-0.578092	-0.826869	-0.367702
O15	O	-0.447335	-1.019788	-0.477464
O16	O	-0.750698	-1.019678	-0.284574
O17	O	-0.750657	-0.936557	-0.367703
C18	C	-0.512736	-0.802316	-0.326135
C19	C	-0.512753	-0.727084	-0.326142
C20	C	-0.789298	-0.978127	-0.326150
C21	C	-0.907603	-0.978170	-0.326170
C22	C	-0.512690	-0.978209	-0.502700
C23	C	-0.512661	-0.978226	-0.577932
C24	C	-0.976872	-0.932956	-0.371352
C25	C	-1.047728	-0.916467	-0.309590
C26	C	-1.047546	-0.994721	-0.387943
C27	C	-0.976901	-0.961649	-0.264375
C28	C	-0.976712	-1.039931	-0.342770
C29	C	-1.047536	-1.023465	-0.280965
C30	C	-0.235136	-0.978235	-0.326178
C31	C	-0.116830	-0.978261	-0.326188
C32	C	-0.512778	-1.154714	-0.326179
C33	C	-0.512787	-1.229946	-0.326189
C34	C	-0.580915	-0.691751	-0.369357
C35	C	-0.580917	-0.621063	-0.369366
C36	C	-0.512762	-0.585708	-0.326157
C37	C	-0.444592	-0.621045	-0.282940
C38	C	-0.444586	-0.691733	-0.282934
C39	C	-0.444615	-0.335972	-0.282962
C40	C	-0.444629	-0.265280	-0.282970
C41	C	-0.580947	-0.265302	-0.369394
C42	C	-0.580941	-0.335989	-0.369389
C43	C	-0.512768	-0.371321	-0.326175
C44	C	-0.512765	-0.447969	-0.326166
C45	C	-0.512769	-0.509061	-0.326162
C46	C	-0.444587	-1.021533	-0.613288
C47	C	-0.444556	-1.021539	-0.683976
C48	C	-0.512605	-0.978242	-0.719307
C49	C	-0.580683	-0.934931	-0.683947
C50	C	-0.580707	-0.934921	-0.613259
C51	C	-0.580583	-0.934969	-0.969020
C52	C	-0.580556	-0.934984	-1.039712
C53	C	-0.444432	-1.021588	-1.039737
C54	C	-0.444457	-1.021578	-0.969050
C55	C	-0.512530	-0.978264	-0.933695
C56	C	-0.512561	-0.978256	-0.857046
C57	C	-0.512580	-0.978253	-0.795955
C58	C	-0.512747	-0.978173	-0.150301
C59	C	-0.512475	-0.978288	-0.075069
H60	H	-0.945843	-0.894652	-0.409505
H61	H	-1.078946	-0.864280	-0.295564
H62	H	-0.636419	-0.720532	-0.404541
C63	C	-0.935138	-1.109476	-0.361648
C64	C	-0.970845	-1.126497	-0.426392
C65	C	-0.932554	-1.190553	-0.443816
H66	H	-0.960360	-1.141809	-0.330072
H67	H	-0.859712	-1.109045	-0.361135
H68	H	-1.046256	-1.126933	-0.426899
H69	H	-0.945626	-1.094181	-0.457982
H70	H	-0.857128	-1.190122	-0.443304
H71	H	-0.957779	-1.222880	-0.412237
H72	H	-0.956768	-1.202107	-0.487749
H73	H	-0.636028	-0.899710	-0.940243
H74	H	-0.636086	-0.899675	-0.712719
C75	C	-1.088778	-1.013249	-0.457648
C76	C	-1.052950	-0.965705	-0.504731
C77	C	-1.090895	-0.982751	-0.568953
H78	H	-1.164193	-1.013541	-0.457147
H79	H	-1.063386	-1.056770	-0.469780
H80	H	-1.078348	-0.922196	-0.492603
H81	H	-0.977539	-0.965406	-0.505254
H82	H	-1.065503	-1.026271	-0.581085
H83	H	-1.166310	-0.983043	-0.568444
H84	H	-1.066584	-0.950499	-0.600907
H85	H	-0.636423	-0.592298	-0.404556
H86	H	-0.636444	-0.364771	-0.404572
C87	C	-1.088601	-1.074412	-0.229866
C88	C	-1.052635	-1.056819	-0.165333
C89	C	-1.090457	-1.103726	-0.118241
H90	H	-1.063234	-1.118147	-0.241187
H91	H	-1.164031	-1.074420	-0.230368
H92	H	-0.977221	-1.056817	-0.164833
H93	H	-1.078000	-1.013092	-0.153990
H94	H	-1.165887	-1.103735	-0.118742
H95	H	-1.065087	-1.147458	-0.129568
H96	H	-1.066068	-1.091793	-0.074449
H97	H	-0.945998	-0.947627	-0.212128
H98	H	-0.389094	-0.592254	-0.247761
C99	C	-0.654842	-0.226819	-0.416295
C100	C	-0.640243	-0.157347	-0.407070
C101	C	-0.708285	-0.121878	-0.450266
H102	H	-0.726377	-0.238307	-0.406353
H103	H	-0.639349	-0.238389	-0.461802
H104	H	-0.655743	-0.145782	-0.361573
H105	H	-0.568721	-0.145838	-0.417017
H106	H	-0.692793	-0.133447	-0.495774
H107	H	-0.779817	-0.133371	-0.440321
H108	H	-0.698383	-0.074737	-0.444018
H109	H	-0.389000	-1.056853	-1.068531
C110	C	-0.370586	-1.068568	-0.575054
C111	C	-0.310942	-1.106482	-0.621150
C112	C	-0.242747	-1.149810	-0.585956
H113	H	-0.411194	-1.098107	-0.547478
H114	H	-0.324159	-1.042697	-0.547492
H115	H	-0.357363	-1.132350	-0.648700
H116	H	-0.270312	-1.076960	-0.648727
H117	H	-0.196320	-1.123940	-0.558395
H118	H	-0.283363	-1.179345	-0.558382
H119	H	-0.202264	-1.175536	-0.617227
C120	C	-0.654750	-0.887886	-0.574992
C121	C	-0.714367	-0.849987	-0.621061
C122	C	-0.782600	-0.806658	-0.585835
H123	H	-0.614170	-0.858337	-0.547408
H124	H	-0.701192	-0.913756	-0.547436
H125	H	-0.667931	-0.824119	-0.648605
H126	H	-0.754968	-0.879517	-0.648647
H127	H	-0.829042	-0.832528	-0.558280
H128	H	-0.742012	-0.777114	-0.558253
H129	H	-0.823066	-0.780943	-0.617088
H130	H	-0.389122	-0.236496	-0.247783
C131	C	-0.370560	-0.374204	-0.235972
C132	C	-0.310897	-0.328110	-0.198121
C133	C	-0.242671	-0.363307	-0.154820
H134	H	-0.324139	-0.401795	-0.261838
H135	H	-0.411180	-0.401750	-0.206396
H136	H	-0.270281	-0.300576	-0.227693
H137	H	-0.357290	-0.300517	-0.172241
H138	H	-0.283290	-0.390853	-0.125245
H139	H	-0.196257	-0.390897	-0.180692
H140	H	-0.202188	-0.332037	-0.129129
C141	C	-0.370547	-0.729974	-0.235936
C142	C	-0.310882	-0.683885	-0.198081
C143	C	-0.242674	-0.719087	-0.154772
H144	H	-0.324126	-0.757570	-0.261797
H145	H	-0.411179	-0.757516	-0.206364
H146	H	-0.270252	-0.656355	-0.227649
H147	H	-0.357275	-0.656287	-0.172205
H148	H	-0.283306	-0.746629	-0.125200
H149	H	-0.196260	-0.746682	-0.180639
H150	H	-0.202190	-0.687821	-0.129078
H151	H	-0.389126	-1.056806	-0.712760
H152	H	-0.389047	-1.056837	-0.940287
C153	C	-0.654477	-0.887895	-1.077951
C154	C	-0.714077	-0.849946	-1.031861
C155	C	-0.782170	-0.806558	-1.067062
H156	H	-0.700944	-0.913703	-1.105529
H157	H	-0.613764	-0.858385	-1.105511
H158	H	-0.754787	-0.879451	-1.004313
H159	H	-0.667638	-0.824124	-1.004281
H160	H	-0.741457	-0.777048	-1.094622
H161	H	-0.828630	-0.832372	-1.094638
H162	H	-0.822610	-0.780800	-1.035795
