data_functionalizedCrystal
_audit_creation_method	'MofGen! by Chris Wilmer'
_symmetry_space_group_name_H-M	'P1'
_symmetry_Int_Tables_number	1
_symmetry_cell_setting	triclinic
loop_
_symmetry_equiv_pos_as_xyz
  x,y,z
_cell_length_a	16.956995
_cell_length_b	16.053802
_cell_length_c	16.109298
_cell_angle_alpha	87.429843
_cell_angle_beta	79.757330
_cell_angle_gamma	92.392061
loop_
_atom_site_label
_atom_site_type_symbol
_atom_site_fract_x
_atom_site_fract_y
_atom_site_fract_z
O1	O	1.061395	0.069484	0.030724
O2	O	1.561395	0.569484	0.530724
O3	O	0.829230	0.069470	0.059913
O4	O	1.329230	0.569470	0.559913
O5	O	0.951692	0.069483	-0.076150
O6	O	1.451692	0.569483	0.423850
O7	O	0.938933	0.069471	0.166786
O8	O	1.438933	0.569471	0.666786
O9	O	0.944951	-0.069376	-0.068690
O10	O	1.444951	0.430624	0.431310
O11	O	0.822489	-0.069389	0.067373
O12	O	1.322489	0.430611	0.567373
O13	O	1.054655	-0.069376	0.038184
O14	O	1.554655	0.430624	0.538184
Zn15	Zn	0.937502	-0.091430	0.053963
Zn16	Zn	1.437502	0.408570	0.553963
Zn17	Zn	0.946383	0.091524	0.044134
Zn18	Zn	1.446383	0.591524	0.544134
O19	O	0.932192	-0.069389	0.174247
O20	O	1.432192	0.430611	0.674247
C21	C	0.796151	0.000039	0.065137
C22	C	1.296151	0.500039	0.565137
C23	C	0.707629	0.000034	0.069581
C24	C	1.207629	0.500034	0.569581
N25	N	0.931446	-0.216291	0.060670
N26	N	1.431446	0.283709	0.560670
C27	C	0.208321	0.000063	0.102818
C28	C	0.708321	0.500063	0.602818
C29	C	0.291497	0.000063	0.098637
C30	C	0.791497	0.500063	0.598637
C31	C	0.342607	0.000061	0.020153
C32	C	0.842607	0.500061	0.520153
C33	C	0.310536	0.000067	-0.054156
C34	C	0.810536	0.500067	0.445844
C35	C	0.227362	0.000074	-0.049974
C36	C	0.727362	0.500074	0.450026
C37	C	0.592384	0.000047	-0.000546
C38	C	1.092384	0.500047	0.499454
C39	C	0.675564	0.000038	-0.004722
C40	C	1.175564	0.500038	0.495278
C41	C	0.656519	0.000035	0.148071
C42	C	1.156519	0.500035	0.648071
C43	C	0.573343	0.000037	0.152246
C44	C	1.073343	0.500037	0.652246
C45	C	0.541280	0.000048	0.077938
C46	C	1.041280	0.500048	0.577938
N47	N	0.427626	0.000058	0.015877
N48	N	0.927626	0.500058	0.515877
N49	N	0.456262	0.000057	0.082214
N50	N	0.956262	0.500057	0.582214
C51	C	0.983573	-0.259979	0.002793
C52	C	1.483573	0.240021	0.502793
C53	C	0.979345	-0.347386	0.007493
C54	C	1.479345	0.152614	0.507493
C55	C	0.922993	-0.391103	0.070073
C56	C	1.422993	0.108897	0.570073
C57	C	0.870860	-0.347409	0.127953
C58	C	1.370860	0.152591	0.627953
C59	C	0.875086	-0.260003	0.123249
C60	C	1.375086	0.239997	0.623249
C61	C	0.904537	-0.652515	0.090595
C62	C	1.404537	-0.152515	0.590595
C63	C	0.900317	-0.739927	0.095296
C64	C	1.400317	-0.239927	0.595296
C65	C	1.008801	-0.739898	-0.025165
C66	C	1.508801	-0.239898	0.474835
C67	C	1.013025	-0.652491	-0.029860
C68	C	1.513025	-0.152491	0.470140
C69	C	0.960889	-0.608804	0.028017
C70	C	1.460889	-0.108804	0.528017
N71	N	0.918671	-0.480448	0.074880
N72	N	1.418671	0.019552	0.574880
N73	N	0.965208	-0.519461	0.023206
N74	N	1.465208	-0.019461	0.523206
C75	C	1.087734	0.000057	0.032959
C76	C	1.587734	0.500057	0.532959
C77	C	1.176256	0.000068	0.028516
C78	C	1.676256	0.500068	0.528516
C79	C	0.947805	0.000057	-0.103359
C80	C	1.447805	0.500057	0.396641
C81	C	0.946258	0.000067	-0.195550
C82	C	1.446258	0.500067	0.304450
N83	N	0.952444	0.216385	0.037419
N84	N	1.452444	0.716385	0.537419
C85	C	0.944879	0.075741	-0.498338
C86	C	1.444879	0.575741	0.001662
C87	C	0.946345	0.075747	-0.411719
C88	C	1.446345	0.575747	0.088281
C89	C	0.939007	-0.075645	-0.403572
C90	C	1.439007	0.424355	0.096428
C91	C	0.937547	-0.075650	-0.490191
C92	C	1.437547	0.424350	0.009809
C93	C	0.940479	0.000045	-0.537571
C94	C	1.440479	0.500045	-0.037571
C95	C	0.943405	0.000056	-0.364333
C96	C	1.443405	0.500056	0.135667
C97	C	0.944994	0.000062	-0.270416
C98	C	1.444994	0.500062	0.229584
C99	C	0.938892	0.000040	-0.631494
C100	C	1.438892	0.500040	-0.131494
C101	C	0.936079	0.000039	0.201456
C102	C	1.436079	0.500039	0.701456
C103	C	0.937627	0.000035	0.293646
C104	C	1.437627	0.500035	0.793646
H105	H	0.166712	0.000059	0.166729
H106	H	0.666712	0.500059	0.666729
Br107	Br	0.335011	0.000065	0.199481
Br108	Br	0.835011	0.500065	0.699481
H109	H	0.947266	0.137377	-0.536913
H110	H	1.447266	0.637377	-0.036913
H111	H	0.824973	-0.383009	0.178905
H112	H	1.324973	0.116991	0.678905
H113	H	0.531734	0.000041	0.216157
H114	H	1.031734	0.500041	0.716157
Br115	Br	0.804333	-0.200712	0.201795
Br116	Br	1.304333	0.299288	0.701795
H117	H	0.936619	-0.137274	-0.364984
H118	H	1.436619	0.362726	0.135016
Br119	Br	0.952322	0.178482	-0.358479
Br120	Br	1.452322	0.678482	0.141521
Br121	Br	0.823836	-0.799252	0.180238
Br122	Br	1.323836	-0.299252	0.680238
H123	H	0.933967	-0.137295	-0.522135
H124	H	1.433967	0.362705	-0.022135
H125	H	0.717176	0.000041	-0.068637
H126	H	1.217176	0.500041	0.431363
Br127	Br	0.700037	0.000025	0.248912
Br128	Br	1.200037	0.500025	0.748912
Br129	Br	1.050086	-0.406680	-0.071058
Br130	Br	1.550086	0.093320	0.428942
Br131	Br	0.379899	0.000069	-0.160672
Br132	Br	0.879899	0.500069	0.339328
Br133	Br	0.548882	0.000087	-0.101395
Br134	Br	1.048882	0.500087	0.398605
H135	H	0.201257	0.000079	-0.110479
H136	H	0.701257	0.500079	0.389521
Br137	Br	1.089506	-0.593158	-0.114788
Br138	Br	1.589506	-0.093158	0.385212
Br139	Br	1.060061	-0.200657	-0.082136
Br140	Br	1.560061	0.299343	0.417864
H141	H	1.051246	-0.775476	-0.072287
H142	H	1.551246	-0.275476	0.427713
Br143	Br	0.833786	-0.593230	0.169141
Br144	Br	1.333786	-0.093230	0.669141
