data_functionalizedCrystal
_audit_creation_method	'MofGen! by Chris Wilmer'
_symmetry_space_group_name_H-M	'P1'
_symmetry_Int_Tables_number	1
_symmetry_cell_setting	triclinic
loop_
_symmetry_equiv_pos_as_xyz
  x,y,z
_cell_length_a	16.959455
_cell_length_b	18.101395
_cell_length_c	16.959447
_cell_angle_alpha	89.971805
_cell_angle_beta	89.982031
_cell_angle_gamma	90.028051
loop_
_atom_site_label
_atom_site_type_symbol
_atom_site_fract_x
_atom_site_fract_y
_atom_site_fract_z
Zn1	Zn	1.208352	-0.294885	-0.446913
Zn2	Zn	1.208240	-0.418735	-0.314737
Zn3	Zn	1.076172	-0.294905	-0.314751
Zn4	Zn	1.076119	-0.418682	-0.446875
O5	O	1.142221	-0.356802	-0.380819
O6	O	1.318948	-0.311327	-0.429390
O7	O	1.190696	-0.402339	-0.204128
O8	O	1.093774	-0.191269	-0.332304
O9	O	1.318866	-0.402319	-0.332280
O10	O	1.190886	-0.191254	-0.429404
O11	O	1.093666	-0.311362	-0.204138
O12	O	0.965554	-0.311311	-0.332267
O13	O	1.093685	-0.402230	-0.557491
O14	O	0.965515	-0.402250	-0.429339
O15	O	1.190835	-0.311276	-0.557519
O16	O	1.190646	-0.522361	-0.332243
O17	O	1.093577	-0.522322	-0.429325
C18	C	0.936854	-0.356777	-0.380801
C19	C	0.848998	-0.356785	-0.380812
C20	C	1.142115	-0.549212	-0.380796
C21	C	1.142142	-0.631526	-0.380812
C22	C	0.477518	-0.309411	-0.330380
C23	C	0.477527	-0.404253	-0.431304
C24	C	0.560072	-0.404243	-0.431299
C25	C	0.601345	-0.356816	-0.380833
C26	C	0.560071	-0.309401	-0.330372
C27	C	0.601352	-0.451663	-0.481754
C28	C	0.683903	-0.451654	-0.481750
C29	C	0.725177	-0.404224	-0.431287
C30	C	0.683898	-0.356806	-0.380825
C31	C	0.725171	-0.309380	-0.330359
C32	C	0.683894	-0.261957	-0.279899
C33	C	0.601345	-0.261970	-0.279909
C34	C	0.807725	-0.404211	-0.431278
C35	C	0.807724	-0.309369	-0.330351
C36	C	1.142315	-0.930617	-0.380855
C37	C	1.081384	-0.899299	-0.442088
C38	C	1.081095	-0.813681	-0.441896
C39	C	1.142229	-0.782235	-0.380834
C40	C	1.119677	-0.813386	-0.297530
C41	C	1.119285	-0.899031	-0.297896
C42	C	1.225932	-0.898965	-0.402193
C43	C	1.225441	-0.813314	-0.404020
C44	C	1.142182	-0.698375	-0.380818
C45	C	1.142361	-1.014477	-0.380866
C46	C	1.348389	-0.356827	-0.380838
C47	C	1.436245	-0.356837	-0.380846
C48	C	1.142267	-0.356745	-0.586987
C49	C	1.142286	-0.356720	-0.674844
C50	C	1.142348	-0.163640	-0.380860
C51	C	1.142403	-0.081326	-0.380877
C52	C	1.192816	-0.404076	-0.716114
C53	C	1.091771	-0.309346	-0.716127
C54	C	1.091784	-0.309325	-0.798673
C55	C	1.142313	-0.356680	-0.839944
C56	C	1.192829	-0.404057	-0.798668
C57	C	1.041264	-0.261954	-0.839955
C58	C	1.041275	-0.261931	-0.922506
C59	C	1.091809	-0.309283	-0.963778
C60	C	1.142327	-0.356661	-0.922497
C61	C	1.192856	-0.404016	-0.963767
C62	C	1.243379	-0.451392	-0.922488
C63	C	1.243363	-0.451409	-0.839940
C64	C	1.091825	-0.309266	-1.046326
C65	C	1.192870	-0.403998	-1.046321
C66	C	1.142220	-0.356805	-0.175453
C67	C	1.142354	-0.356621	-0.087597
H68	H	0.717509	-0.223346	-0.238806
N69	N	0.989663	-0.213538	-0.964656
N70	N	0.944551	-0.171263	-0.927797
H71	H	0.908100	-0.137083	-0.957565
N72	N	1.244476	-0.452382	-1.088472
N73	N	1.216645	-0.499567	-1.134512
H74	H	1.253092	-0.533740	-1.164281
H75	H	1.284517	-0.489951	-0.956101
H76	H	1.000120	-0.223405	-0.806347
N77	N	1.294969	-0.499793	-0.797773
N78	N	1.345343	-0.473754	-0.751719
H79	H	1.381788	-0.507926	-0.721935
H80	H	1.242447	-0.792951	-0.465328
N81	N	1.040224	-0.260870	-1.088480
N82	N	1.045501	-0.192537	-1.079274
H83	H	1.009056	-0.158353	-1.109044
N84	N	0.849868	-0.260911	-0.278802
N85	N	0.813002	-0.218574	-0.233761
H86	H	0.842765	-0.184349	-0.197355
N87	N	0.559170	-0.213538	-0.228375
N88	N	0.485466	-0.213559	-0.228389
H89	H	0.455676	-0.179355	-0.191993
N90	N	0.435348	-0.260972	-0.278849
N91	N	0.361644	-0.260981	-0.278864
H92	H	0.331860	-0.226770	-0.242471
N93	N	0.726050	-0.500098	-0.533294
N94	N	0.689190	-0.542440	-0.578347
H95	H	0.718956	-0.576653	-0.614752
H96	H	1.095354	-0.919846	-0.504057
H97	H	1.059201	-0.791999	-0.279130
N98	N	1.004096	-0.926362	-0.424599
N99	N	0.967543	-0.963869	-0.474518
H100	H	0.912958	-0.982982	-0.462166
H101	H	0.443918	-0.442870	-0.472386
N102	N	0.849890	-0.452657	-0.482801
N103	N	0.840646	-0.520987	-0.477421
H104	H	0.870425	-0.555205	-0.513811
N105	N	0.559183	-0.500102	-0.533292
N106	N	0.485479	-0.500099	-0.533293
H107	H	0.455693	-0.534309	-0.569696
N108	N	1.098796	-0.787262	-0.519387
N109	N	1.111450	-0.832077	-0.573990
H110	H	1.123949	-0.813423	-0.628723
N111	N	1.172533	-0.925035	-0.238709
N112	N	1.229865	-0.964625	-0.257612
H113	H	1.267468	-0.982986	-0.215807
N114	N	1.244421	-0.452457	-0.673942
N115	N	1.244410	-0.452467	-0.600238
H116	H	1.280856	-0.486636	-0.570452
N117	N	1.003340	-0.788062	-0.424167
N118	N	0.949120	-0.833435	-0.411891
H119	H	0.894202	-0.815343	-0.399367
N120	N	1.040172	-0.260978	-0.673957
N121	N	1.068011	-0.213807	-0.627906
H122	H	1.031570	-0.179644	-0.598118
N123	N	1.042606	-0.924165	-0.275214
N124	N	0.989753	-0.878454	-0.259226
H125	H	0.935596	-0.896201	-0.243206
N126	N	1.173605	-0.787836	-0.238741
N127	N	1.229393	-0.746282	-0.257629
H128	H	1.267482	-0.728236	-0.216111
N129	N	1.251721	-0.926004	-0.477097
N130	N	1.208780	-0.968938	-0.515666
H131	H	1.226986	-0.988037	-0.568569
H132	H	1.271328	-0.919218	-0.357595
N133	N	1.285407	-0.786453	-0.352155
N134	N	1.297726	-0.718572	-0.346525
H135	H	1.340074	-0.699602	-0.309888
