data_functionalizedCrystal
_audit_creation_method	'MofGen! by Chris Wilmer'
_symmetry_space_group_name_H-M	'P1'
_symmetry_Int_Tables_number	1
_symmetry_cell_setting	triclinic
loop_
_symmetry_equiv_pos_as_xyz
  x,y,z
_cell_length_a	14.044220
_cell_length_b	16.992695
_cell_length_c	15.455313
_cell_angle_alpha	87.152573
_cell_angle_beta	87.075622
_cell_angle_gamma	88.071450
loop_
_atom_site_label
_atom_site_type_symbol
_atom_site_fract_x
_atom_site_fract_y
_atom_site_fract_z
O1	O	1.276018	-0.186887	-0.072131
O2	O	0.999530	-0.180030	-0.072133
O3	O	1.136665	-0.069239	-0.072125
O4	O	1.138883	-0.297678	-0.072139
O5	O	1.128821	-0.075546	0.072137
O6	O	0.991685	-0.186337	0.072129
O7	O	1.268174	-0.193194	0.072131
Cu8	Cu	1.129213	-0.190341	0.085302
Cu9	Cu	1.138490	-0.182883	-0.085304
O10	O	1.131038	-0.303985	0.072123
C11	C	1.129891	-0.042980	0.000006
C12	C	1.121383	0.044659	0.000006
C13	C	0.960066	-0.180181	-0.000002
C14	C	0.854162	-0.171227	-0.000003
C15	C	1.307638	-0.193043	-0.000002
C16	C	1.413542	-0.201997	-0.000007
C17	C	1.607444	-0.218367	-0.000007
C18	C	1.660266	-0.154861	-0.000003
C19	C	1.768160	-0.163969	-0.000003
C20	C	1.499540	-0.209259	-0.000007
C21	C	1.137812	-0.330244	-0.000010
C22	C	1.146321	-0.417883	-0.000015
N23	N	1.122696	-0.195588	0.205297
C24	C	1.203479	0.089157	0.000007
C25	C	1.195479	0.171504	-0.000001
C26	C	1.105382	0.209350	-0.000005
C27	C	1.023279	0.164846	-0.000009
C28	C	1.031280	0.082502	-0.000007
C29	C	1.072220	0.455268	-0.000017
C30	C	1.064225	0.537619	-0.000016
C31	C	1.236426	0.544271	-0.000010
C32	C	1.244419	0.461924	-0.000003
C33	C	1.162317	0.417427	-0.000012
N34	N	1.097202	0.293522	-0.000011
N35	N	1.170497	0.333258	-0.000012
N36	N	1.145015	-0.177631	-0.205299
C37	C	1.180979	-0.148540	0.250695
C38	C	1.176059	-0.152515	0.341502
C39	C	1.112860	-0.203543	0.386911
C40	C	1.054571	-0.250592	0.341507
C41	C	1.059486	-0.246612	0.250701
C42	C	1.091641	-0.220700	0.658491
C43	C	1.086732	-0.224678	0.749303
C44	C	1.208219	-0.126600	0.749293
C45	C	1.213133	-0.122628	0.658485
C46	C	1.154840	-0.169674	0.613089
N47	N	1.107832	-0.207609	0.479731
N48	N	1.159864	-0.165603	0.520271
H49	H	1.643250	-0.279572	-0.000011
H50	H	1.035265	-0.266234	0.786271
O51	O	1.291077	0.052524	-0.000030
C52	C	1.361820	0.109461	-0.000012
H53	H	1.332357	0.168375	-0.027323
H54	H	1.383683	0.116220	0.069197
C55	C	1.485548	0.010581	-0.023046
C56	C	1.449363	0.082940	-0.056596
H57	H	1.539551	-0.005779	-0.057946
H58	H	1.437888	-0.027779	-0.023055
H59	H	1.503760	0.016224	0.034628
H60	H	1.431141	0.077294	-0.114264
H61	H	1.497023	0.121299	-0.056598
H62	H	1.262331	0.207731	0.000002
H63	H	0.949919	0.195668	-0.000017
O64	O	1.034985	-0.266483	0.614536
C65	C	0.978140	-0.312360	0.674090
H66	H	1.013778	-0.318837	0.738809
H67	H	0.904891	-0.282203	0.683771
C68	C	0.923079	-0.386508	0.559152
C69	C	0.966855	-0.394468	0.638639
H70	H	0.916113	-0.437155	0.537284
H71	H	0.961374	-0.355598	0.519029
H72	H	0.862043	-0.361374	0.567231
H73	H	1.027894	-0.419593	0.630558
H74	H	0.928570	-0.425385	0.678761
H75	H	1.255678	-0.088296	0.786262
O76	O	1.332016	0.425289	-0.000035
C77	C	1.402762	0.482223	-0.000010
H78	H	1.373309	0.541137	-0.027331
H79	H	1.424612	0.488986	0.069202
C80	C	1.526487	0.383335	-0.023015
C81	C	1.490315	0.455692	-0.056578
H82	H	1.580496	0.366969	-0.057905
H83	H	1.478825	0.344977	-0.023029
H84	H	1.544687	0.388980	0.034661
H85	H	1.472104	0.450043	-0.114248
H86	H	1.537976	0.494049	-0.056575
H87	H	1.303269	0.580509	-0.000005
O88	O	1.002836	-0.292396	0.206733
C89	C	0.945984	-0.338274	0.266282
H90	H	0.981617	-0.344755	0.331003
H91	H	0.872736	-0.308116	0.275960
C92	C	0.890931	-0.412415	0.151336
C93	C	0.934700	-0.420380	0.230825
H94	H	0.883965	-0.463061	0.129464
H95	H	0.929229	-0.381504	0.111216
H96	H	0.829895	-0.387280	0.159411
H97	H	0.995739	-0.445505	0.222747
H98	H	0.896411	-0.451297	0.270943
H99	H	0.964428	0.046272	-0.000008
O100	O	0.976628	0.574261	-0.000068
C101	C	0.905875	0.517330	-0.000057
H102	H	0.938304	0.460798	-0.027364
H103	H	0.876476	0.504529	0.069148
C104	C	0.784669	0.618232	-0.023106
C105	C	0.824496	0.548801	-0.056652
H106	H	0.734468	0.637646	-0.058012
H107	H	0.832335	0.656589	-0.023110
H108	H	0.760177	0.607555	0.034565
H109	H	0.848998	0.559481	-0.114317
H110	H	0.776832	0.510447	-0.056659
H111	H	1.624462	-0.093648	-0.000062
H112	H	1.003108	-0.292137	0.378484
H113	H	1.005366	0.419049	-0.000024
O114	O	1.242394	-0.098904	0.206723
C115	C	1.292796	-0.058245	0.266269
H116	H	1.250154	-0.057442	0.331007
H117	H	1.365000	-0.089248	0.275908
C118	C	1.360291	0.025976	0.151333
C119	C	1.307914	0.026969	0.230843
H120	H	1.369622	0.078539	0.129480
H121	H	1.326338	-0.001418	0.111215
H122	H	1.420456	0.000137	0.159377
H123	H	1.247747	0.052799	0.222796
H124	H	1.341858	0.054369	0.270959
O125	O	1.274093	-0.072784	0.614245
C126	C	1.265696	-0.079162	0.524363
H127	H	1.236051	-0.138957	0.511829
H128	H	1.215357	-0.030314	0.498934
C129	C	1.400978	0.002103	0.492856
C130	C	1.364575	-0.071342	0.477462
H131	H	1.461970	0.006930	0.463924
H132	H	1.406634	0.006403	0.553411
H133	H	1.359020	0.042802	0.471665
H134	H	1.406527	-0.112038	0.498663
H135	H	1.358929	-0.075648	0.416909
H136	H	1.223517	-0.114205	0.378465
