data_functionalizedCrystal
_audit_creation_method	'MofGen! by Chris Wilmer'
_symmetry_space_group_name_H-M	'P1'
_symmetry_Int_Tables_number	1
_symmetry_cell_setting	triclinic
loop_
_symmetry_equiv_pos_as_xyz
  x,y,z
_cell_length_a	31.640172
_cell_length_b	20.919151
_cell_length_c	20.919292
_cell_angle_alpha	60.191315
_cell_angle_beta	93.150133
_cell_angle_gamma	58.208797
loop_
_atom_site_label
_atom_site_type_symbol
_atom_site_fract_x
_atom_site_fract_y
_atom_site_fract_z
Zr1	Zr	0.375625	0.741680	-0.125057
O2	O	0.298983	0.883067	-0.235098
O3	O	0.402886	0.600303	-0.085902
O4	O	0.392592	0.741679	-0.227285
O5	O	0.313111	0.741688	0.011642
O6	O	0.462149	0.741668	-0.227289
O7	O	0.309276	0.741691	-0.093716
O8	O	0.480562	0.488771	0.025619
O9	O	0.294699	0.994585	-0.241266
O10	O	0.461871	0.658441	-0.075756
O11	O	0.412824	0.658448	0.002874
O12	O	0.400705	0.824901	-0.163585
O13	O	0.351658	0.824907	-0.084955
Zr14	Zr	0.492676	0.741658	0.042971
Zr15	Zr	0.486559	0.741662	-0.125063
Zr16	Zr	0.381741	0.741676	0.042977
Zr17	Zr	0.368792	0.919538	-0.134893
Zr18	Zr	0.499509	0.563800	0.052807
O19	O	0.465415	0.883035	0.003816
O20	O	0.456718	0.883041	-0.235107
O21	O	0.307680	0.883061	0.003824
O22	O	0.569318	0.600271	0.153012
O23	O	0.560620	0.600277	-0.085910
O24	O	0.411583	0.600297	0.153020
O25	O	0.555189	0.741650	-0.093729
O26	O	0.475708	0.741659	0.145199
O27	O	0.406152	0.741670	0.145202
O28	O	0.559024	0.741647	0.011630
O29	O	0.382877	0.994570	-0.241270
O30	O	0.485424	0.488768	0.159184
O31	O	0.573602	0.488753	0.159179
O32	O	0.568740	0.488757	0.025615
O33	O	0.299561	0.994581	-0.107701
O34	O	0.387739	0.994567	-0.107705
O35	O	0.467595	0.658437	0.081499
O36	O	0.516643	0.658431	0.002869
O37	O	0.455477	0.824890	-0.084961
O38	O	0.406429	0.824897	-0.006330
C39	C	0.442697	0.519196	-0.028740
C40	C	0.445598	0.443691	-0.024565
C41	C	0.404165	0.469684	-0.084055
C42	C	0.406891	0.398752	-0.080160
C43	C	0.451047	0.301828	-0.016771
C44	C	0.492484	0.275835	0.042723
C45	C	0.489760	0.346766	0.038824
C46	C	0.461415	0.084586	-0.001927
C47	C	0.464135	0.013654	0.001968
C48	C	0.378543	0.136576	-0.120915
C49	C	0.375821	0.207503	-0.124806
C50	C	0.417258	0.181505	-0.065315
C51	C	0.453834	0.229322	-0.012786
C52	C	0.414474	0.254010	-0.069303
C53	C	0.295388	0.741692	-0.041036
C54	C	0.248293	0.741700	-0.041033
C55	C	-0.045823	0.741653	-0.099083
C56	C	-0.222810	0.741641	-0.099088
O57	O	-0.247477	0.741600	-0.148430
N58	N	-0.242828	0.741642	-0.041047
C59	C	-0.218594	0.741639	0.017004
O60	O	-0.239678	0.741629	0.066377
C61	C	-0.041606	0.741644	0.017012
C62	C	-0.021594	0.741653	-0.041039
C63	C	-0.025811	0.741661	-0.157129
C64	C	0.018431	0.741670	-0.157129
C65	C	0.042661	0.741670	-0.099085
C66	C	0.022648	0.741662	-0.041040
C67	C	-0.017370	0.741634	0.075065
C68	C	0.026880	0.741633	0.075064
C69	C	0.046892	0.741642	0.017013
C70	C	0.091120	0.741670	0.017004
N71	N	0.111137	0.741669	-0.041038
C72	C	0.086908	0.741669	-0.099082
C73	C	-0.311516	0.741638	0.016995
C74	C	-0.355763	0.741638	0.016992
C75	C	-0.359975	0.741639	-0.099100
C76	C	-0.315730	0.741645	-0.099100
C77	C	-0.291498	0.741638	-0.041047
C78	C	0.179819	0.741687	-0.099080
C79	C	0.224064	0.741700	-0.099078
C80	C	0.228274	0.741694	0.017016
C81	C	0.184031	0.741687	0.017011
C82	C	0.159806	0.741680	-0.041040
O83	O	0.115817	0.741700	0.066325
O84	O	0.108008	0.741658	-0.148437
C85	C	-0.090065	0.741645	-0.099082
C86	C	-0.110078	0.741637	-0.041037
C87	C	-0.085849	0.741637	0.017008
C88	C	-0.154325	0.741637	-0.041040
C89	C	-0.178555	0.741637	-0.099084
C90	C	-0.158537	0.741637	-0.157126
C91	C	-0.114295	0.741645	-0.157127
C92	C	-0.105866	0.741637	0.075049
C93	C	-0.150109	0.741630	0.075045
C94	C	-0.174339	0.741630	0.017000
C95	C	0.572913	0.741646	-0.041050
C96	C	0.620007	0.741638	-0.041053
C97	C	0.426499	0.741674	-0.251228
C98	C	0.423902	0.741676	-0.322563
C99	C	0.425603	0.964142	-0.053346
C100	C	0.422703	1.039647	-0.057522
C101	C	0.461002	0.741672	-0.356078
C102	C	0.458563	0.741665	-0.423100
C103	C	0.419023	0.741669	-0.456610
C104	C	0.381923	0.741671	-0.423088
C105	C	0.384364	0.741671	-0.356064
C106	C	0.409738	0.741664	-0.658977
C107	C	0.407299	0.741667	-0.726008
C108	C	0.483941	0.741659	-0.726015
C109	C	0.486376	0.741664	-0.658992
C110	C	0.449277	0.741661	-0.625473
C111	C	0.416529	0.741665	-0.525119
C112	C	0.451774	0.741658	-0.556962
C113	C	0.441801	0.741664	0.169142
C114	C	0.444398	0.741662	0.240477
C115	C	0.581459	0.519173	-0.028747
C116	C	0.631455	0.443660	-0.024574
C117	C	0.450348	0.519191	0.181445
C118	C	0.455846	0.443684	0.256955
C119	C	0.589110	0.519168	0.181438
C120	C	0.641703	0.443653	0.256946
C121	C	0.279190	0.964170	-0.263524
C122	C	0.226598	1.039685	-0.339032
C123	C	0.286841	0.964165	-0.053339
C124	C	0.236846	1.039678	-0.057512
C125	C	0.417952	0.964147	-0.263531
C126	C	0.412455	1.039654	-0.339041
C127	C	0.626343	0.408204	-0.063663
C128	C	0.673314	0.337261	-0.059758
C129	C	0.725396	0.301771	-0.016759
C130	C	0.730507	0.337235	0.022330
C131	C	0.683536	0.408181	0.018420
C132	C	0.487018	0.408219	0.333464
C133	C	0.492181	0.337282	0.404420
C134	C	0.466175	0.301806	0.398865
C135	C	0.434999	0.337278	0.322348
C136	C	0.429833	0.408218	0.251394
C137	C	0.692007	0.408187	0.251361
C138	C	0.741427	0.337243	0.322301
C139	C	0.740540	0.301761	0.398826
C140	C	0.690230	0.337234	0.404409
C141	C	0.640812	0.408182	0.333469
C142	C	0.176293	1.075160	-0.333447
C143	C	0.126873	1.146126	-0.404389
C144	C	0.127759	1.181611	-0.480915
C145	C	0.178069	1.146134	-0.486497
C146	C	0.227488	1.075174	-0.415556
C147	C	0.241957	1.075142	-0.018431
C148	C	0.194985	1.146104	-0.022355
C149	C	0.142902	1.181596	-0.065356
C150	C	0.137792	1.146130	-0.104442
C151	C	0.184763	1.075174	-0.100523
C152	C	0.438468	1.075108	-0.333460
C153	C	0.433313	1.146045	-0.404403
C154	C	0.402142	1.181533	-0.480927
C155	C	0.376129	1.146072	-0.486506
C156	C	0.381287	1.075131	-0.415563
H157	H	0.344807	0.157734	-0.169350
N158	N	0.408440	0.301024	0.316696
N159	N	0.413065	0.237680	0.380061
H160	H	0.394311	0.212069	0.376073
N161	N	0.783710	0.300982	0.066244
N162	N	0.812843	0.308894	0.030076
H163	H	0.850420	0.283285	0.061094
H164	H	0.379530	0.741663	-0.631693
H165	H	0.500094	-0.065270	0.053591
N166	N	0.524029	0.301069	0.482566
N167	N	0.547249	0.332750	0.487507
H168	H	0.569742	0.307177	0.542696
H169	H	0.087515	1.239391	-0.538673
N170	N	0.471469	0.229321	0.471350
N171	N	0.492477	0.150135	0.487330
H172	H	0.496221	0.098938	0.538526
N173	N	0.492195	0.741573	-0.522704
N174	N	0.525339	0.741515	-0.552603
H175	H	0.553898	0.741424	-0.528388
N176	N	0.179538	1.038929	-0.140422
N177	N	0.202820	0.951832	-0.099873
H178	H	0.199127	0.926236	-0.128054
N179	N	0.396884	1.253987	-0.553387
N180	N	0.438807	1.238123	-0.564089
H181	H	0.435096	1.289294	-0.615262
H182	H	0.404452	0.437084	0.189100
H183	H	0.350749	1.174977	-0.548821
H184	H	0.692739	0.437066	0.189057
N185	N	-0.376217	0.741650	0.076272
N186	N	-0.425129	0.808841	0.053773
H187	H	-0.439573	0.808845	0.095643
N188	N	0.792812	0.300996	0.316587
N189	N	0.827923	0.213894	0.349642
H190	H	0.864213	0.188294	0.345605
H191	H	0.780784	0.243991	0.456584
N192	N	0.496483	0.741604	-0.457299
N193	N	0.528368	0.674376	-0.459203
H194	H	0.555160	0.674312	-0.483339
H195	H	0.284362	1.046249	0.016591
H196	H	0.104660	1.239373	-0.068542
N197	N	0.689340	0.300971	0.482587
N198	N	0.733472	0.237618	0.545914
H199	H	0.732845	0.211999	0.601130
N200	N	0.589433	0.444393	0.339196
N201	N	0.588656	0.412697	0.407530
H202	H	0.552371	0.438268	0.411581
H203	H	0.175562	1.046271	-0.271143
N204	N	0.084589	1.182368	-0.148340
N205	N	0.074148	1.126939	-0.127853
H206	H	0.036573	1.152528	-0.158849
N207	N	-0.037795	0.741618	0.134374
N208	N	-0.016143	0.741604	0.186196
H209	H	-0.030565	0.741587	0.228090
H210	H	0.085914	1.175000	-0.399828
H211	H	0.669142	0.308396	-0.091590
H212	H	0.178784	1.175036	-0.548813
H213	H	0.268447	1.046291	-0.420113
H214	H	0.199157	1.174969	0.009477
N215	N	0.354709	1.038932	-0.421286
N216	N	0.326879	1.070633	-0.489619
H217	H	0.308107	1.045071	-0.493667
H218	H	0.349730	0.741669	-0.450372
N219	N	0.688773	0.444382	0.058357
N220	N	0.735281	0.412679	0.096745
H221	H	0.738983	0.438243	0.124953
H222	H	0.463850	1.046225	-0.271158
H223	H	0.454497	1.174910	-0.399845
H224	H	0.495157	0.063406	0.046514
N225	N	0.537595	0.176835	0.107474
N226	N	0.585743	0.143616	0.116437
H227	H	0.617604	0.073697	0.162171
H228	H	0.368204	0.548602	-0.135665
H229	H	0.489786	0.150399	0.038825
H230	H	0.339871	0.286421	-0.176435
N231	N	0.364566	0.425320	-0.140937
N232	N	0.325143	0.511862	-0.197529
H233	H	0.295250	0.530630	-0.240458
H234	H	0.523498	0.325596	0.087267
H235	H	0.378524	0.332928	-0.120917
H236	H	0.354154	0.741673	-0.328775
N237	N	0.051617	0.741641	0.134365
N238	N	0.023385	0.808832	0.137775
H239	H	0.040852	0.808842	0.179656
N240	N	0.244504	0.741693	-0.158375
N241	N	0.262844	0.674498	-0.161783
H242	H	0.277279	0.674490	-0.203659
N243	N	0.155086	0.741676	-0.158380
N244	N	0.172968	0.741682	-0.210197
H245	H	0.155499	0.741678	-0.252081
H246	H	0.034724	0.741673	-0.204397
N247	N	0.163579	0.741717	0.076292
N248	N	0.185212	0.741739	0.128101
H249	H	0.170770	0.741762	0.169969
H250	H	-0.045534	0.741658	-0.204396
H251	H	-0.299439	0.741652	-0.146369
N252	N	0.366916	0.741657	-0.760241
N253	N	0.364744	0.741660	-0.820085
H254	H	0.336225	0.741654	-0.844264
N255	N	-0.384734	0.741634	-0.158383
N256	N	-0.424237	0.741626	-0.158365
H257	H	-0.441721	0.741613	-0.200227
N258	N	-0.286772	0.741628	0.076305
N259	N	-0.304656	0.741629	0.128119
H260	H	-0.287184	0.741624	0.170006
N261	N	0.253051	0.741651	0.076321
N262	N	0.292567	0.741621	0.076324
H263	H	0.310076	0.741567	0.118222
H264	H	0.384334	0.741672	-0.552409
H265	H	-0.098005	0.741652	-0.204397
H266	H	-0.178274	0.741642	-0.204391
H267	H	-0.166402	0.741630	0.122316
N268	N	0.573146	0.444436	-0.107574
N269	N	0.562708	0.389004	-0.087108
H270	H	0.525138	0.414591	-0.118123
N271	N	-0.081169	0.741689	0.134344
N272	N	-0.109445	0.808909	0.137706
H273	H	-0.092021	0.808965	0.179585
N274	N	0.501423	0.741590	-0.321822
N275	N	0.534566	0.741527	-0.351726
H276	H	0.563128	0.741434	-0.327516
H277	H	0.518573	0.741660	-0.631710
N278	N	0.521830	0.741662	-0.760263
N279	N	0.519647	0.741663	-0.820106
H280	H	0.546409	0.741662	-0.844293
H281	H	0.763638	0.244001	-0.013581
N282	N	0.513573	0.444471	0.339135
N283	N	0.508959	0.507815	0.275786
H284	H	0.527712	0.533420	0.279795
