data_functionalizedCrystal
_audit_creation_method	'MofGen! by Chris Wilmer'
_symmetry_space_group_name_H-M	'P1'
_symmetry_Int_Tables_number	1
_symmetry_cell_setting	triclinic
loop_
_symmetry_equiv_pos_as_xyz
  x,y,z
_cell_length_a	18.101398
_cell_length_b	21.295417
_cell_length_c	18.101390
_cell_angle_alpha	89.962939
_cell_angle_beta	89.975319
_cell_angle_gamma	90.025773
loop_
_atom_site_label
_atom_site_type_symbol
_atom_site_fract_x
_atom_site_fract_y
_atom_site_fract_z
Zn1	Zn	1.132127	-0.250665	-0.418817
Zn2	Zn	1.465460	0.082669	-0.085484
Zn3	Zn	1.798793	0.416002	0.247849
Zn4	Zn	1.132023	-0.355945	-0.294967
Zn5	Zn	1.465356	-0.022611	0.038366
Zn6	Zn	1.798690	0.310722	0.371700
Zn7	Zn	1.008285	-0.250685	-0.294979
Zn8	Zn	1.341618	0.082649	0.038355
Zn9	Zn	1.674952	0.415982	0.371688
Zn10	Zn	1.008238	-0.355891	-0.418755
Zn11	Zn	1.341571	-0.022558	-0.085422
Zn12	Zn	1.674904	0.310775	0.247911
O13	O	1.070168	-0.303296	-0.356880
O14	O	1.403501	0.030037	-0.023546
O15	O	1.736835	0.363370	0.309787
O16	O	1.235746	-0.264644	-0.402409
O17	O	1.569079	0.068689	-0.069076
O18	O	1.902412	0.402022	0.264257
O19	O	1.115585	-0.342013	-0.191335
O20	O	1.448919	-0.008679	0.141998
O21	O	1.782252	0.324654	0.475331
O22	O	1.024776	-0.162593	-0.311437
O23	O	1.358109	0.170741	0.021897
O24	O	1.691443	0.504074	0.355230
O25	O	1.235670	-0.341993	-0.311417
O26	O	1.569003	-0.008660	0.021916
O27	O	1.902336	0.324674	0.355250
O28	O	1.115762	-0.162578	-0.402421
O29	O	1.449095	0.170755	-0.069087
O30	O	1.782429	0.504089	0.264246
O31	O	1.024675	-0.264679	-0.191344
O32	O	1.358009	0.068655	0.141989
O33	O	1.691342	0.401988	0.475323
O34	O	0.904646	-0.264627	-0.311377
O35	O	1.237979	0.068707	0.021957
O36	O	1.571312	0.402040	0.355290
O37	O	1.024695	-0.341902	-0.522397
O38	O	1.358029	-0.008569	-0.189063
O39	O	1.691362	0.324765	0.144270
O40	O	0.904611	-0.341921	-0.402315
O41	O	1.237944	-0.008588	-0.068982
O42	O	1.571278	0.324745	0.264352
O43	O	1.115716	-0.264592	-0.522442
O44	O	1.449049	0.068741	-0.189109
O45	O	1.782383	0.402074	0.144225
O46	O	1.115540	-0.444027	-0.311357
O47	O	1.448873	-0.110694	0.021976
O48	O	1.782206	0.222640	0.355310
O49	O	1.024595	-0.443988	-0.402304
O50	O	1.357928	-0.110654	-0.068971
O51	O	1.691262	0.222679	0.264363
C52	C	0.877758	-0.303271	-0.356841
C53	C	1.211091	0.030063	-0.023508
C54	C	1.544424	0.363396	0.309826
C55	C	0.795443	-0.303275	-0.356842
C56	C	1.128777	0.030058	-0.023509
C57	C	1.462110	0.363392	0.309825
C58	C	0.496352	-0.303314	-0.356904
C59	C	0.829686	0.030019	-0.023571
C60	C	1.163019	0.363352	0.309762
C61	C	0.527675	-0.254439	-0.299967
C62	C	0.861008	0.078894	0.033366
C63	C	1.194341	0.412227	0.366699
C64	C	0.613293	-0.254571	-0.299724
C65	C	0.946626	0.078763	0.033609
C66	C	1.279960	0.412096	0.366942
C67	C	0.644735	-0.303294	-0.356873
C68	C	0.978068	0.030039	-0.023540
C69	C	1.311402	0.363372	0.309793
C70	C	0.613618	-0.369607	-0.335543
C71	C	0.946951	-0.036273	-0.002210
C72	C	1.280284	0.297060	0.331124
C73	C	0.527972	-0.369335	-0.335147
C74	C	0.861306	-0.036002	-0.001814
C75	C	1.194639	0.297332	0.331519
C76	C	0.527967	-0.286453	-0.435305
C77	C	0.861301	0.046880	-0.101972
C78	C	1.194634	0.380213	0.231362
C79	C	0.613618	-0.284977	-0.434877
C80	C	0.946951	0.048357	-0.101544
C81	C	1.280285	0.381690	0.231789
C82	C	0.728594	-0.303287	-0.356857
C83	C	1.061928	0.030046	-0.023524
C84	C	1.395261	0.363380	0.309810
C85	C	0.412493	-0.303326	-0.356919
C86	C	0.745826	0.030007	-0.023585
C87	C	1.079160	0.363341	0.309748
C88	C	1.070071	-0.466848	-0.356839
C89	C	1.403404	-0.133515	-0.023505
C90	C	1.736738	0.199819	0.309828
C91	C	1.070097	-0.536816	-0.356846
C92	C	1.403431	-0.203483	-0.023512
C93	C	1.736764	0.129851	0.309821
C94	C	1.117494	-0.569682	-0.309538
C95	C	1.450827	-0.236349	0.023795
C96	C	1.784161	0.096984	0.357128
C97	C	1.117529	-0.635425	-0.309555
C98	C	1.450862	-0.302091	0.023778
C99	C	1.784196	0.031242	0.357112
C100	C	1.070153	-0.668299	-0.356871
C101	C	1.403487	-0.334965	-0.023538
C102	C	1.736820	-0.001632	0.309795
C103	C	1.022753	-0.635424	-0.404188
C104	C	1.356086	-0.302091	-0.070855
C105	C	1.689420	0.031242	0.262479
C106	C	1.022725	-0.569683	-0.404175
C107	C	1.356058	-0.236350	-0.070842
C108	C	1.689392	0.096984	0.262491
N109	N	1.005369	-0.771559	-0.362504
N110	N	1.338703	-0.438226	-0.029171
N111	N	1.672036	-0.104893	0.304163
N112	N	1.005398	-0.834011	-0.362512
N113	N	1.338731	-0.500677	-0.029178
N114	N	1.672065	-0.167344	0.304155
C115	C	1.070236	-0.866373	-0.356914
C116	C	1.403570	-0.533040	-0.023580
C117	C	1.736903	-0.199707	0.309753
N118	N	1.135046	-0.833925	-0.351293
N119	N	1.468380	-0.500592	-0.017960
N120	N	1.801713	-0.167258	0.315374
N121	N	1.135017	-0.771468	-0.351282
N122	N	1.468350	-0.438135	-0.017948
N123	N	1.801683	-0.104801	0.315385
C124	C	1.070179	-0.739584	-0.356891
C125	C	1.403512	-0.406251	-0.023557
C126	C	1.736846	-0.072917	0.309776
C127	C	1.117675	-0.970525	-0.309622
C128	C	1.451008	-0.637192	0.023712
C129	C	1.784342	-0.303858	0.357045
C130	C	1.117711	-1.036269	-0.309644
C131	C	1.451044	-0.702935	0.023690
C132	C	1.784378	-0.369602	0.357023
C133	C	1.022929	-1.036267	-0.404273
C134	C	1.356262	-0.702934	-0.070940
C135	C	1.689595	-0.369600	0.262394
C136	C	1.022899	-0.970525	-0.404255
C137	C	1.356233	-0.637191	-0.070922
C138	C	1.689566	-0.303858	0.262412
C139	C	1.070271	-0.937658	-0.356925
C140	C	1.403605	-0.604324	-0.023592
C141	C	1.736938	-0.270991	0.309741
C142	C	1.263330	-0.303322	-0.356919
C143	C	1.596663	0.030011	-0.023585
C144	C	1.929997	0.363344	0.309748
C145	C	1.345644	-0.303334	-0.356936
C146	C	1.678977	0.030000	-0.023602
C147	C	2.012311	0.363333	0.309731
C148	C	1.070212	-0.303239	-0.550042
C149	C	1.403545	0.030094	-0.216708
C150	C	1.736879	0.363428	0.116625
C151	C	1.070231	-0.303214	-0.632356
C152	C	1.403564	0.030119	-0.299022
C153	C	1.736898	0.363452	0.034311
C154	C	1.070286	-0.139106	-0.356937
C155	C	1.403619	0.194227	-0.023604
C156	C	1.736952	0.527561	0.309730
C157	C	1.070336	-0.069138	-0.356961
C158	C	1.403669	0.264195	-0.023628
C159	C	1.737003	0.597529	0.309705
C160	C	1.070271	-0.303175	-0.931447
C161	C	1.403604	0.030158	-0.598114
C162	C	1.736937	0.363492	-0.264780
C163	C	1.127727	-0.254705	-0.900150
C164	C	1.461060	0.078628	-0.566817
C165	C	1.794394	0.411961	-0.233484
C166	C	1.127548	-0.254525	-0.814532
C167	C	1.460881	0.078808	-0.481199
C168	C	1.794215	0.412141	-0.147865
C169	C	1.070252	-0.303195	-0.783064
C170	C	1.403585	0.030139	-0.449731
C171	C	1.736918	0.363472	-0.116398
C172	C	0.992235	-0.285166	-0.814132
C173	C	1.325568	0.048167	-0.480799
C174	C	1.658901	0.381501	-0.147466
C175	C	0.992579	-0.284803	-0.899778
C176	C	1.325912	0.048531	-0.566444
C177	C	1.659245	0.381864	-0.233111
C178	C	1.090144	-0.369798	-0.899855
C179	C	1.423478	-0.036465	-0.566522
C180	C	1.756811	0.296869	-0.233189
C181	C	1.091857	-0.369458	-0.814205
C182	C	1.425190	-0.036125	-0.480872
C183	C	1.758523	0.297208	-0.147539
C184	C	1.070236	-0.303207	-0.699205
C185	C	1.403569	0.030127	-0.365871
C186	C	1.736903	0.363460	-0.032538
C187	C	1.070281	-0.303162	-1.015306
C188	C	1.403615	0.030172	-0.681973
C189	C	1.736948	0.363505	-0.348640
C190	C	1.070167	-0.303308	-0.164469
C191	C	1.403500	0.030025	0.168864
C192	C	1.736834	0.363359	0.502198
C193	C	1.070292	-0.303155	-0.082155
C194	C	1.403625	0.030178	0.251178
C195	C	1.736958	0.363511	0.584511
H196	H	0.633983	-0.406998	-0.375715
H197	H	0.967316	-0.073665	-0.042382
H198	H	1.300649	0.259669	0.290952
H199	H	0.633746	-0.265717	-0.241630
H200	H	0.967080	0.067616	0.091703
H201	H	1.300413	0.400949	0.425036
N202	N	1.034718	-0.417638	-0.926666
N203	N	1.368052	-0.084305	-0.593333
N204	N	1.701385	0.249028	-0.260000
H205	H	1.047764	-0.460347	-0.906195
H206	H	1.381098	-0.127014	-0.572862
H207	H	1.714431	0.206320	-0.239528
H208	H	0.983691	-0.405357	-0.909338
H209	H	1.317024	-0.072024	-0.576005
H210	H	1.650358	0.261310	-0.242672
H211	H	0.984181	-0.662194	-0.442715
H212	H	1.317514	-0.328861	-0.109381
H213	H	1.650848	0.004472	0.223952
N214	N	0.970264	-0.220293	-0.926263
N215	N	1.303597	0.113040	-0.592930
N216	N	1.636930	0.446373	-0.259597
H217	H	1.011448	-0.201646	-0.956901
H218	H	1.344781	0.131687	-0.623568
H219	H	1.678114	0.465020	-0.290235
H220	H	0.924082	-0.223701	-0.957296
H221	H	1.257415	0.109632	-0.623962
H222	H	1.590749	0.442966	-0.290629
H223	H	0.507960	-0.383634	-0.277832
H224	H	0.841294	-0.050300	0.055501
H225	H	1.174627	0.283033	0.388834
N226	N	1.110527	-0.189689	-0.928671
N227	N	1.443860	0.143644	-0.595338
N228	N	1.777194	0.476978	-0.262004
H229	H	1.113113	-0.189564	-0.984409
H230	H	1.446446	0.143770	-0.651075
H231	H	1.779779	0.477103	-0.317742
H232	H	1.059256	-0.177140	-0.912359
H233	H	1.392589	0.156193	-0.579026
H234	H	1.725923	0.489527	-0.245692
H235	H	0.984301	-0.943763	-0.442774
H236	H	1.317634	-0.610430	-0.109441
H237	H	1.650968	-0.277096	0.223893
N238	N	0.641978	-0.388881	-0.260444
N239	N	0.975311	-0.055547	0.072890
N240	N	1.308644	0.277786	0.406223
H241	H	0.674975	-0.354759	-0.240131
H242	H	1.008308	-0.021426	0.093202
H243	H	1.341641	0.311908	0.426536
H244	H	0.598861	-0.395645	-0.225910
H245	H	0.932194	-0.062312	0.107424
H246	H	1.265528	0.271022	0.440757
N247	N	0.501114	-0.333600	-0.491495
N248	N	0.834447	-0.000267	-0.158162
N249	N	1.167780	0.333067	0.175171
H250	H	0.471832	-0.311273	-0.531063
H251	H	0.805165	0.022060	-0.197729
H252	H	1.138498	0.355393	0.135604
H253	H	0.544908	-0.355379	-0.514684
H254	H	0.878241	-0.022045	-0.181351
H255	H	1.211575	0.311288	0.151983
H256	H	0.506395	-0.238940	-0.454697
H257	H	0.839728	0.094394	-0.121364
H258	H	1.173062	0.427727	0.211969
N259	N	1.110111	-0.189152	-0.787412
N260	N	1.443444	0.144181	-0.454078
N261	N	1.776777	0.477514	-0.120745
H262	H	1.109922	-0.188763	-0.731617
H263	H	1.443256	0.144570	-0.398284
H264	H	1.776589	0.477904	-0.064951
H265	H	1.148801	-0.158925	-0.806232
H266	H	1.482135	0.174408	-0.472899
H267	H	1.815468	0.507742	-0.139566
H268	H	0.984358	-1.063032	-0.442802
H269	H	1.317691	-0.729699	-0.109469
H270	H	1.651024	-0.396366	0.223865
N271	N	1.204149	-0.269580	-0.786702
N272	N	1.537482	0.063753	-0.453369
N273	N	1.870815	0.397087	-0.120035
H274	H	1.238339	-0.276381	-0.830070
H275	H	1.571673	0.056952	-0.496737
H276	H	1.905006	0.390286	-0.163404
H277	H	1.222977	-0.233512	-0.755774
H278	H	1.556310	0.099822	-0.422441
H279	H	1.889643	0.433155	-0.089107
N280	N	0.933921	-0.329513	-0.927186
N281	N	1.267255	0.003820	-0.593852
N282	N	1.600588	0.337154	-0.260519
H283	H	0.896837	-0.305747	-0.958097
H284	H	1.230171	0.027586	-0.624764
H285	H	1.563504	0.360919	-0.291431
H286	H	0.957709	-0.363367	-0.958156
H287	H	1.291042	-0.030033	-0.624822
H288	H	1.624376	0.303300	-0.291489
N289	N	0.971599	-0.534227	-0.455196
N290	N	1.304933	-0.200893	-0.121863
N291	N	1.638266	0.132440	0.211471
H292	H	0.983074	-0.545620	-0.508124
H293	H	1.316407	-0.212286	-0.174791
H294	H	1.649740	0.121047	0.158542
H295	H	0.918718	-0.545727	-0.443580
H296	H	1.252052	-0.212394	-0.110246
H297	H	1.585385	0.120939	0.223087
H298	H	0.633962	-0.236178	-0.450961
H299	H	0.967295	0.097155	-0.117628
H300	H	1.300628	0.430489	0.215706
N301	N	0.641962	-0.328693	-0.494088
N302	N	0.975295	0.004640	-0.160755
N303	N	1.308628	0.337974	0.172579
H304	H	0.697670	-0.326491	-0.495922
H305	H	1.031003	0.006842	-0.162589
H306	H	1.364336	0.340176	0.170744
H307	H	0.626094	-0.373082	-0.482434
H308	H	0.959428	-0.039749	-0.149101
H309	H	1.292761	0.293584	0.184233
H310	H	1.156069	-0.542924	-0.271002
H311	H	1.489402	-0.209591	0.062332
H312	H	1.822736	0.123743	0.395665
N313	N	1.168652	-0.670884	-0.258530
N314	N	1.501986	-0.337551	0.074804
N315	N	1.835319	-0.004218	0.408137
H316	H	1.198658	-0.640087	-0.228546
H317	H	1.531992	-0.306754	0.104787
H318	H	1.865325	0.026579	0.438120
H319	H	1.138533	-0.698204	-0.224237
H320	H	1.471866	-0.364871	0.109096
H321	H	1.805199	-0.031538	0.442430
N322	N	1.168767	-0.935070	-0.258579
N323	N	1.502100	-0.601736	0.074755
N324	N	1.835434	-0.268403	0.408088
H325	H	1.198803	-0.965869	-0.228615
H326	H	1.532137	-0.632536	0.104719
H327	H	1.865470	-0.299202	0.438052
H328	H	1.203008	-0.907745	-0.288752
H329	H	1.536341	-0.574412	0.044582
H330	H	1.869674	-0.241079	0.377915
N331	N	1.167904	-0.387472	-0.787305
N332	N	1.501237	-0.054139	-0.453972
N333	N	1.834570	0.279194	-0.120638
H334	H	1.181493	-0.430131	-0.807511
H335	H	1.514827	-0.096798	-0.474178
H336	H	1.848160	0.236536	-0.140845
H337	H	1.205020	-0.355325	-0.804848
H338	H	1.538353	-0.021992	-0.471515
H339	H	1.871687	0.311342	-0.138181
H340	H	1.156312	-1.063027	-0.271122
H341	H	1.489645	-0.729694	0.062212
H342	H	1.822978	-0.396361	0.395545
N343	N	0.500508	-0.419204	-0.387674
N344	N	0.833842	-0.085870	-0.054341
N345	N	1.167175	0.247463	0.278992
H346	H	0.519193	-0.409962	-0.439130
H347	H	0.852526	-0.076629	-0.105797
H348	H	1.185859	0.256704	0.227537
H349	H	0.519228	-0.461628	-0.371197
H350	H	0.852561	-0.128295	-0.037864
H351	H	1.185895	0.205038	0.295470
N352	N	1.204612	-0.269471	-0.927440
N353	N	1.537946	0.063862	-0.594107
N354	N	1.871279	0.397196	-0.260774
H355	H	1.202948	-0.307721	-0.960359
H356	H	1.536282	0.025612	-0.627026
H357	H	1.869615	0.358945	-0.293692
H358	H	1.224370	-0.232505	-0.956326
H359	H	1.557703	0.100828	-0.622992
H360	H	1.891036	0.434161	-0.289659
N361	N	0.933983	-0.330484	-0.787133
N362	N	1.267317	0.002849	-0.453800
N363	N	1.600650	0.336183	-0.120467
H364	H	0.957663	-0.363215	-0.754424
H365	H	1.290997	-0.029881	-0.421090
H366	H	1.624330	0.303452	-0.087757
H367	H	0.895335	-0.306818	-0.758097
H368	H	1.228668	0.026516	-0.424764
H369	H	1.562001	0.359849	-0.091431
N370	N	0.969507	-0.221372	-0.785747
N371	N	1.302840	0.111961	-0.452414
N372	N	1.636173	0.445295	-0.119080
H373	H	1.009628	-0.204059	-0.752771
H374	H	1.342961	0.129275	-0.419437
H375	H	1.676294	0.462608	-0.086104
H376	H	0.961540	-0.192016	-0.828853
H377	H	1.294874	0.141318	-0.495520
H378	H	1.628207	0.474651	-0.162187
H379	H	0.506125	-0.265460	-0.242211
H380	H	0.839459	0.067873	0.091122
H381	H	1.172792	0.401206	0.424455
N382	N	1.164206	-0.391525	-0.928479
N383	N	1.497539	-0.058191	-0.595145
N384	N	1.830873	0.275142	-0.261812
H385	H	1.185627	-0.358396	-0.962220
H386	H	1.518960	-0.025062	-0.628887
H387	H	1.852294	0.308271	-0.295553
H388	H	1.198777	-0.398741	-0.885528
H389	H	1.532110	-0.065407	-0.552195
H390	H	1.865444	0.267926	-0.218862
N391	N	1.040459	-0.419871	-0.785832
N392	N	1.373792	-0.086538	-0.452498
N393	N	1.707125	0.246795	-0.119165
H394	H	1.002267	-0.400383	-0.752241
H395	H	1.335600	-0.067049	-0.418908
H396	H	1.668934	0.266284	-0.085574
H397	H	1.014969	-0.440801	-0.828905
H398	H	1.348302	-0.107467	-0.495571
H399	H	1.681636	0.225866	-0.162238
H400	H	0.507104	-0.205116	-0.313191
H401	H	0.840437	0.128217	0.020142
H402	H	1.173771	0.461551	0.353476
N403	N	0.641171	-0.189436	-0.317428
N404	N	0.974504	0.143897	0.015905
N405	N	1.307837	0.477231	0.349238
H406	H	0.597824	-0.160380	-0.325461
H407	H	0.931157	0.172954	0.007873
H408	H	1.264490	0.506287	0.341206
H409	H	0.672068	-0.173478	-0.274952
H410	H	1.005401	0.159856	0.058382
H411	H	1.338735	0.493189	0.391715
