data_functionalizedCrystal
_audit_creation_method	'MofGen! by Chris Wilmer'
_symmetry_space_group_name_H-M	'P1'
_symmetry_Int_Tables_number	1
_symmetry_cell_setting	triclinic
loop_
_symmetry_equiv_pos_as_xyz
  x,y,z
_cell_length_a	25.639242
_cell_length_b	25.639240
_cell_length_c	25.639233
_cell_angle_alpha	89.974071
_cell_angle_beta	89.977834
_cell_angle_gamma	90.028283
loop_
_atom_site_label
_atom_site_type_symbol
_atom_site_fract_x
_atom_site_fract_y
_atom_site_fract_z
Zn1	Zn	0.799247	-0.208277	-0.295716
Zn2	Zn	1.049247	0.041723	-0.045716
Zn3	Zn	1.299247	0.291723	0.204284
Zn4	Zn	1.549247	0.541723	0.454284
Zn5	Zn	0.799179	-0.295696	-0.208270
Zn6	Zn	1.049179	-0.045696	0.041730
Zn7	Zn	1.299179	0.204304	0.291730
Zn8	Zn	1.549179	0.454304	0.541730
Zn9	Zn	0.711823	-0.208269	-0.208280
Zn10	Zn	0.961823	0.041731	0.041720
Zn11	Zn	1.211823	0.291731	0.291720
Zn12	Zn	1.461823	0.541731	0.541720
Zn13	Zn	0.711777	-0.295676	-0.295659
Zn14	Zn	0.961777	-0.045676	-0.045659
Zn15	Zn	1.211777	0.204324	0.204341
Zn16	Zn	1.461777	0.454324	0.454341
O17	O	0.755506	-0.251979	-0.251981
O18	O	1.005506	-0.001979	-0.001981
O19	O	1.255506	0.248021	0.248019
O20	O	1.505506	0.498021	0.498019
O21	O	0.872403	-0.219884	-0.284135
O22	O	1.122403	0.030116	-0.034135
O23	O	1.372403	0.280116	0.215865
O24	O	1.622403	0.530116	0.465865
O25	O	0.787582	-0.284103	-0.135106
O26	O	1.037582	-0.034103	0.114894
O27	O	1.287582	0.215897	0.364894
O28	O	1.537582	0.465897	0.614894
O29	O	0.723467	-0.135105	-0.219907
O30	O	0.973467	0.114895	0.030093
O31	O	1.223467	0.364895	0.280093
O32	O	1.473467	0.614895	0.530093
O33	O	0.872353	-0.284111	-0.219889
O34	O	1.122353	-0.034111	0.030111
O35	O	1.372353	0.215889	0.280111
O36	O	1.622353	0.465889	0.530111
O37	O	0.787697	-0.135111	-0.284146
O38	O	1.037697	0.114889	-0.034146
O39	O	1.287697	0.364889	0.215854
O40	O	1.537697	0.614889	0.465854
O41	O	0.723402	-0.219871	-0.135114
O42	O	0.973402	0.030129	0.114886
O43	O	1.223402	0.280129	0.364886
O44	O	1.473402	0.530129	0.614886
O45	O	0.638652	-0.219853	-0.219852
O46	O	0.888652	0.030147	0.030148
O47	O	1.138652	0.280147	0.280148
O48	O	1.388652	0.530147	0.530148
O49	O	0.723389	-0.284078	-0.368832
O50	O	0.973389	-0.034078	-0.118832
O51	O	1.223389	0.215922	0.131168
O52	O	1.473389	0.465922	0.381168
O53	O	0.638618	-0.284070	-0.284049
O54	O	0.888618	-0.034070	-0.034049
O55	O	1.138618	0.215930	0.215951
O56	O	1.388618	0.465930	0.465951
O57	O	0.787653	-0.219866	-0.368874
O58	O	1.037653	0.030134	-0.118874
O59	O	1.287653	0.280134	0.131126
O60	O	1.537653	0.530134	0.381126
O61	O	0.787538	-0.368858	-0.219834
O62	O	1.037538	-0.118858	0.030166
O63	O	1.287538	0.131142	0.280166
O64	O	1.537538	0.381142	0.530166
O65	O	0.723324	-0.368844	-0.284039
O66	O	0.973324	-0.118844	-0.034039
O67	O	1.223324	0.131156	0.215961
O68	O	1.473324	0.381156	0.465961
C69	C	0.619664	-0.251959	-0.251946
C70	C	0.869664	-0.001959	-0.001946
C71	C	1.119664	0.248041	0.248054
C72	C	1.369664	0.498041	0.498054
C73	C	0.561550	-0.251963	-0.251943
C74	C	0.811550	-0.001963	-0.001943
C75	C	1.061550	0.248037	0.248057
C76	C	1.311550	0.498037	0.498057
C77	C	0.755433	-0.387822	-0.251940
C78	C	1.005433	-0.137822	-0.001940
C79	C	1.255433	0.112178	0.248060
C80	C	1.505433	0.362178	0.498060
C81	C	0.755449	-0.445936	-0.251940
C82	C	1.005449	-0.195936	-0.001940
C83	C	1.255449	0.054064	0.248060
C84	C	1.505449	0.304064	0.498060
C85	C	0.201178	-0.285473	-0.285377
C86	C	0.451178	-0.035473	-0.035377
C87	C	0.701178	0.214527	0.214623
C88	C	0.951178	0.464527	0.464623
C89	C	0.146574	-0.285477	-0.285385
C90	C	0.396574	-0.035477	-0.035385
C91	C	0.646574	0.214523	0.214615
C92	C	0.896574	0.464523	0.464615
O93	O	0.118330	-0.313943	-0.313782
O94	O	0.368330	-0.063943	-0.063782
O95	O	0.618330	0.186057	0.186218
O96	O	0.868330	0.436057	0.436218
N97	N	0.119267	-0.251994	-0.252015
N98	N	0.369267	-0.001994	-0.002015
N99	N	0.619267	0.248006	0.247985
N100	N	0.869267	0.498006	0.497985
C101	C	0.146568	-0.218502	-0.218639
C102	C	0.396568	0.031498	0.031361
C103	C	0.646568	0.281498	0.281361
C104	C	0.896568	0.531498	0.531361
O105	O	0.118328	-0.190022	-0.190256
O106	O	0.368328	0.059978	0.059744
O107	O	0.618328	0.309978	0.309744
O108	O	0.868328	0.559978	0.559744
C109	C	0.201171	-0.218496	-0.218634
C110	C	0.451171	0.031504	0.031366
C111	C	0.701171	0.281504	0.281366
C112	C	0.951171	0.531504	0.531366
C113	C	0.228475	-0.251985	-0.252002
C114	C	0.478475	-0.001985	-0.002002
C115	C	0.728475	0.248015	0.247998
C116	C	0.978475	0.498015	0.497998
C117	C	0.228482	-0.318959	-0.318743
C118	C	0.478482	-0.068959	-0.068743
C119	C	0.728482	0.181041	0.181257
C120	C	0.978482	0.431041	0.431257
C121	C	0.283082	-0.318956	-0.318734
C122	C	0.533082	-0.068956	-0.068734
C123	C	0.783082	0.181044	0.181266
C124	C	1.033082	0.431044	0.431266
C125	C	0.310379	-0.285468	-0.285359
C126	C	0.560379	-0.035468	-0.035359
C127	C	0.810379	0.214532	0.214641
C128	C	1.060379	0.464532	0.464641
C129	C	0.283076	-0.251983	-0.251993
C130	C	0.533076	-0.001983	-0.001993
C131	C	0.783076	0.248017	0.248007
C132	C	1.033076	0.498017	0.498007
C133	C	0.228471	-0.185002	-0.185260
C134	C	0.478471	0.064998	0.064740
C135	C	0.728471	0.314998	0.314740
C136	C	0.978471	0.564998	0.564740
C137	C	0.283078	-0.184999	-0.185258
C138	C	0.533078	0.065001	0.064742
C139	C	0.783078	0.315001	0.314742
C140	C	1.033078	0.565001	0.564742
C141	C	0.310382	-0.218488	-0.218626
C142	C	0.560382	0.031512	0.031374
C143	C	0.810382	0.281512	0.281374
C144	C	1.060382	0.531512	0.531374
C145	C	0.364973	-0.218492	-0.218609
C146	C	0.614973	0.031508	0.031391
C147	C	0.864973	0.281508	0.281391
C148	C	1.114973	0.531508	0.531391
N149	N	0.392279	-0.251974	-0.251979
N150	N	0.642279	-0.001974	-0.001979
N151	N	0.892279	0.248026	0.248021
N152	N	1.142279	0.498026	0.498021
C153	C	0.364983	-0.285463	-0.285354
C154	C	0.614983	-0.035463	-0.035354
C155	C	0.864983	0.214537	0.214646
C156	C	1.114983	0.464537	0.464646
C157	C	0.031897	-0.218515	-0.218653
C158	C	0.281897	0.031485	0.031347
C159	C	0.531897	0.281485	0.281347
C160	C	0.781897	0.531485	0.531347
C161	C	-0.022705	-0.218523	-0.218655
C162	C	0.227295	0.031477	0.031345
C163	C	0.477295	0.281477	0.281345
C164	C	0.727295	0.531477	0.531345
C165	C	-0.022695	-0.285497	-0.285402
C166	C	0.227305	-0.035497	-0.035402
C167	C	0.477305	0.214503	0.214598
C168	C	0.727305	0.464503	0.464598
C169	C	0.031908	-0.285492	-0.285397
C170	C	0.281908	-0.035492	-0.035397
C171	C	0.531908	0.214508	0.214603
C172	C	0.781908	0.464508	0.464603
C173	C	0.059204	-0.251998	-0.252023
C174	C	0.309204	-0.001998	-0.002023
C175	C	0.559204	0.248002	0.247977
C176	C	0.809204	0.498002	0.497977
C177	C	0.479648	-0.285455	-0.285332
C178	C	0.729648	-0.035455	-0.035332
C179	C	0.979648	0.214545	0.214668
C180	C	1.229648	0.464545	0.464668
C181	C	0.534253	-0.285451	-0.285318
C182	C	0.784253	-0.035451	-0.035318
C183	C	1.034253	0.214549	0.214682
C184	C	1.284253	0.464549	0.464682
C185	C	0.534239	-0.218475	-0.218573
C186	C	0.784239	0.031525	0.031427
C187	C	1.034239	0.281525	0.281427
C188	C	1.284239	0.531525	0.531427
C189	C	0.479638	-0.218481	-0.218585
C190	C	0.729638	0.031519	0.031415
C191	C	0.979638	0.281519	0.281415
C192	C	1.229638	0.531519	0.531415
C193	C	0.452344	-0.251972	-0.251968
C194	C	0.702344	-0.001972	-0.001968
C195	C	0.952344	0.248028	0.248032
C196	C	1.202344	0.498028	0.498032
O197	O	0.393252	-0.190038	-0.190228
O198	O	0.643252	0.059962	0.059772
O199	O	0.893252	0.309962	0.309772
O200	O	1.143252	0.559962	0.559772
O201	O	0.393229	-0.313933	-0.313736
O202	O	0.643229	-0.063933	-0.063736
O203	O	0.893229	0.186067	0.186264
O204	O	1.143229	0.436067	0.436264
C205	C	0.788967	-0.806264	-0.285491
C206	C	1.038967	-0.556264	-0.035491
C207	C	1.288967	-0.306264	0.214509
C208	C	1.538967	-0.056264	0.464509
C209	C	0.788983	-0.860868	-0.285501
C210	C	1.038983	-0.610868	-0.035501
C211	C	1.288983	-0.360868	0.214499
C212	C	1.538983	-0.110868	0.464499
O213	O	0.817394	-0.889074	-0.313985
O214	O	1.067394	-0.639074	-0.063985
O215	O	1.317394	-0.389074	0.186015
O216	O	1.567394	-0.139074	0.436015
N217	N	0.755579	-0.888218	-0.252032
N218	N	1.005579	-0.638218	-0.002032
N219	N	1.255579	-0.388218	0.247968
N220	N	1.505579	-0.138218	0.497968
C221	C	0.722154	-0.860962	-0.218553
C222	C	0.972154	-0.610962	0.031447
C223	C	1.222154	-0.360962	0.281447
C224	C	1.472154	-0.110962	0.531447
O225	O	0.693742	-0.889240	-0.190086
O226	O	0.943742	-0.639240	0.059914
O227	O	1.193742	-0.389240	0.309914
O228	O	1.443742	-0.139240	0.559914
C229	C	0.722136	-0.806359	-0.218546
C230	C	0.972136	-0.556359	0.031454
C231	C	1.222136	-0.306359	0.281454
C232	C	1.472136	-0.056359	0.531454
C233	C	0.755546	-0.779011	-0.252014
C234	C	1.005546	-0.529011	-0.002014
C235	C	1.255546	-0.279011	0.247986
C236	C	1.505546	-0.029011	0.497986
C237	C	0.822374	-0.778916	-0.318956
C238	C	1.072374	-0.528916	-0.068956
C239	C	1.322374	-0.278916	0.181044
C240	C	1.572374	-0.028916	0.431044
C241	C	0.822359	-0.724315	-0.318945
C242	C	1.072359	-0.474315	-0.068945
C243	C	1.322359	-0.224315	0.181055
C244	C	1.572359	0.025685	0.431055
C245	C	0.788938	-0.697062	-0.285468
C246	C	1.038938	-0.447062	-0.035468
C247	C	1.288938	-0.197062	0.214532
C248	C	1.538938	0.052938	0.464532
C249	C	0.755531	-0.724410	-0.252002
C250	C	1.005531	-0.474410	-0.002002
C251	C	1.255531	-0.224410	0.247998
C252	C	1.505531	0.025590	0.497998
C253	C	0.688708	-0.779103	-0.185070
C254	C	0.938708	-0.529103	0.064930
C255	C	1.188708	-0.279103	0.314930
C256	C	1.438708	-0.029103	0.564930
C257	C	0.688693	-0.724496	-0.185066
C258	C	0.938693	-0.474496	0.064934
C259	C	1.188693	-0.224496	0.314934
C260	C	1.438693	0.025504	0.564934
C261	C	0.722103	-0.697148	-0.218534
C262	C	0.972103	-0.447148	0.031466
C263	C	1.222103	-0.197148	0.281466
C264	C	1.472103	0.052852	0.531466
C265	C	0.722095	-0.642557	-0.218514
C266	C	0.972095	-0.392557	0.031486
C267	C	1.222095	-0.142557	0.281486
C268	C	1.472095	0.107443	0.531486
N269	N	0.755498	-0.615206	-0.251983
N270	N	1.005498	-0.365206	-0.001983
N271	N	1.255498	-0.115206	0.248017
N272	N	1.505498	0.134794	0.498017
C273	C	0.788920	-0.642459	-0.285460
C274	C	1.038920	-0.392459	-0.035460
C275	C	1.288920	-0.142459	0.214540
C276	C	1.538920	0.107541	0.464540
C277	C	0.722193	-0.975633	-0.218572
C278	C	0.972193	-0.725633	0.031428
C279	C	1.222193	-0.475633	0.281428
C280	C	1.472193	-0.225633	0.531428
C281	C	0.722213	-1.030235	-0.218577
C282	C	0.972213	-0.780235	0.031423
C283	C	1.222213	-0.530235	0.281423
C284	C	1.472213	-0.280235	0.531423
C285	C	0.789041	-1.030137	-0.285526
C286	C	1.039041	-0.780137	-0.035526
C287	C	1.289041	-0.530137	0.214474
C288	C	1.539041	-0.280137	0.464474
C289	C	0.789024	-0.975534	-0.285518
C290	C	1.039024	-0.725534	-0.035518
C291	C	1.289024	-0.475534	0.214482
C292	C	1.539024	-0.225534	0.464482
C293	C	0.755597	-0.948282	-0.252042
C294	C	1.005597	-0.698282	-0.002042
C295	C	1.255597	-0.448282	0.247958
C296	C	1.505597	-0.198282	0.497958
C297	C	0.788887	-0.527794	-0.285433
C298	C	1.038887	-0.277794	-0.035433
C299	C	1.288887	-0.027794	0.214567
C300	C	1.538887	0.222206	0.464567
C301	C	0.788870	-0.473189	-0.285417
C302	C	1.038870	-0.223189	-0.035417
C303	C	1.288870	0.026811	0.214583
C304	C	1.538870	0.276811	0.464583
C305	C	0.722040	-0.473291	-0.218471
C306	C	0.972040	-0.223291	0.031529
C307	C	1.222040	0.026709	0.281529
C308	C	1.472040	0.276709	0.531529
C309	C	0.722058	-0.527892	-0.218484
C310	C	0.972058	-0.277892	0.031516
C311	C	1.222058	-0.027892	0.281516
C312	C	1.472058	0.222108	0.531516
C313	C	0.755483	-0.555142	-0.251970
C314	C	1.005483	-0.305142	-0.001970
C315	C	1.255483	-0.055142	0.248030
C316	C	1.505483	0.194858	0.498030
O317	O	0.693697	-0.614316	-0.190046
O318	O	0.943697	-0.364316	0.059954
O319	O	1.193697	-0.114316	0.309954
O320	O	1.443697	0.135684	0.559954
O321	O	0.817322	-0.614175	-0.313927
O322	O	1.067322	-0.364175	-0.063927
O323	O	1.317322	-0.114175	0.186073
O324	O	1.567322	0.135825	0.436073
C325	C	0.891879	-0.252000	-0.252017
C326	C	1.141879	-0.002000	-0.002017
C327	C	1.391879	0.248000	0.247983
C328	C	1.641879	0.498000	0.497983
C329	C	0.949993	-0.252009	-0.252032
C330	C	1.199993	-0.002009	-0.002032
C331	C	1.449993	0.247991	0.247968
C332	C	1.699993	0.497991	0.497968
C333	C	0.755523	-0.251970	-0.388354
C334	C	1.005523	-0.001970	-0.138354
C335	C	1.255523	0.248030	0.111646
C336	C	1.505523	0.498030	0.361646
C337	C	0.755530	-0.251966	-0.446468
C338	C	1.005530	-0.001966	-0.196468
C339	C	1.255530	0.248034	0.053532
C340	C	1.505530	0.498034	0.303532
C341	C	0.755595	-0.115606	-0.252034
C342	C	1.005595	0.134394	-0.002034
C343	C	1.255595	0.384394	0.247966
C344	C	1.505595	0.634394	0.497966
C345	C	0.755632	-0.057492	-0.252056
C346	C	1.005632	0.192508	-0.002056
C347	C	1.255632	0.442508	0.247944
C348	C	1.505632	0.692508	0.497944
C349	C	0.789035	-0.218432	-0.806859
C350	C	1.039035	0.031568	-0.556859
C351	C	1.289035	0.281568	-0.306859
C352	C	1.539035	0.531568	-0.056859
C353	C	0.789041	-0.218417	-0.861463
C354	C	1.039041	0.031583	-0.611463
C355	C	1.289041	0.281583	-0.361463
C356	C	1.539041	0.531583	-0.111463
O357	O	0.817486	-0.189967	-0.889723
O358	O	1.067486	0.060033	-0.639723
O359	O	1.317486	0.310033	-0.389723
O360	O	1.567486	0.560033	-0.139723
N361	N	0.755588	-0.251844	-0.888751
N362	N	1.005588	-0.001844	-0.638751
N363	N	1.255588	0.248156	-0.388751
N364	N	1.505588	0.498156	-0.138751
C365	C	0.722122	-0.285283	-0.861432
C366	C	0.972122	-0.035283	-0.611432
C367	C	1.222122	0.214717	-0.361432
C368	C	1.472122	0.464717	-0.111432
O369	O	0.693668	-0.313713	-0.889656
O370	O	0.943668	-0.063713	-0.639656
O371	O	1.193668	0.186287	-0.389656
O372	O	1.443668	0.436287	-0.139656
C373	C	0.722114	-0.285294	-0.806828
C374	C	0.972114	-0.035294	-0.556828
C375	C	1.222114	0.214706	-0.306828
C376	C	1.472114	0.464706	-0.056828
C377	C	0.755573	-0.251870	-0.779543
C378	C	1.005573	-0.001870	-0.529543
C379	C	1.255573	0.248130	-0.279543
C380	C	1.505573	0.498130	-0.029543
C381	C	0.822491	-0.185009	-0.779574
C382	C	1.072491	0.064991	-0.529574
C383	C	1.322491	0.314991	-0.279574
C384	C	1.572491	0.564991	-0.029574
C385	C	0.822485	-0.185025	-0.724973
C386	C	1.072485	0.064975	-0.474973
C387	C	1.322485	0.314975	-0.224973
C388	C	1.572485	0.564975	0.025027
C389	C	0.789023	-0.218462	-0.697658
C390	C	1.039023	0.031538	-0.447658
C391	C	1.289023	0.281538	-0.197658
C392	C	1.539023	0.531538	0.052342
C393	C	0.755567	-0.251885	-0.724943
C394	C	1.005567	-0.001885	-0.474943
C395	C	1.255567	0.248115	-0.224943
C396	C	1.505567	0.498115	0.025057
C397	C	0.688646	-0.318731	-0.779510
C398	C	0.938646	-0.068731	-0.529510
C399	C	1.188646	0.181269	-0.279510
C400	C	1.438646	0.431269	-0.029510
C401	C	0.688640	-0.318739	-0.724903
C402	C	0.938640	-0.068739	-0.474903
C403	C	1.188640	0.181261	-0.224903
C404	C	1.438640	0.431261	0.025097
C405	C	0.722099	-0.285314	-0.697618
C406	C	0.972099	-0.035314	-0.447618
C407	C	1.222099	0.214686	-0.197618
C408	C	1.472099	0.464686	0.052382
C409	C	0.722099	-0.285338	-0.643027
C410	C	0.972099	-0.035338	-0.393027
C411	C	1.222099	0.214662	-0.143027
C412	C	1.472099	0.464662	0.106973
N413	N	0.755552	-0.251912	-0.615739
N414	N	1.005552	-0.001912	-0.365739
N415	N	1.255552	0.248088	-0.115739
N416	N	1.505552	0.498088	0.134261
C417	C	0.789014	-0.218474	-0.643055
C418	C	1.039014	0.031526	-0.393055
C419	C	1.289014	0.281526	-0.143055
C420	C	1.539014	0.531526	0.106945
C421	C	0.722143	-0.285256	-0.976102
C422	C	0.972143	-0.035256	-0.726102
C423	C	1.222143	0.214744	-0.476102
C424	C	1.472143	0.464744	-0.226102
C425	C	0.722154	-0.285247	-1.030705
C426	C	0.972154	-0.035247	-0.780705
C427	C	1.222154	0.214753	-0.530705
C428	C	1.472154	0.464753	-0.280705
C429	C	0.789072	-0.218381	-1.030733
C430	C	1.039072	0.031619	-0.780733
C431	C	1.289072	0.281619	-0.530733
C432	C	1.539072	0.531619	-0.280733
C433	C	0.789063	-0.218392	-0.976129
C434	C	1.039063	0.031608	-0.726129
C435	C	1.289063	0.281608	-0.476129
C436	C	1.539063	0.531608	-0.226129
C437	C	0.755596	-0.251829	-0.948815
C438	C	1.005596	-0.001829	-0.698815
C439	C	1.255596	0.248171	-0.448815
C440	C	1.505596	0.498171	-0.198815
C441	C	0.789000	-0.218509	-0.528389
C442	C	1.039000	0.031491	-0.278389
C443	C	1.289000	0.281491	-0.028389
C444	C	1.539000	0.531491	0.221611
C445	C	0.788992	-0.218529	-0.473784
C446	C	1.038992	0.031471	-0.223784
C447	C	1.288992	0.281471	0.026216
C448	C	1.538992	0.531471	0.276216
C449	C	0.722072	-0.285393	-0.473761
C450	C	0.972072	-0.035393	-0.223761
C451	C	1.222072	0.214607	0.026239
C452	C	1.472072	0.464607	0.276239
C453	C	0.722081	-0.285375	-0.528362
C454	C	0.972081	-0.035375	-0.278362
C455	C	1.222081	0.214625	-0.028362
C456	C	1.472081	0.464625	0.221638
C457	C	0.755547	-0.251929	-0.555674
C458	C	1.005547	-0.001929	-0.305674
C459	C	1.255547	0.248071	-0.055674
C460	C	1.505547	0.498071	0.194326
O461	O	0.693668	-0.313773	-0.614732
O462	O	0.943668	-0.063773	-0.364732
O463	O	1.193668	0.186227	-0.114732
O464	O	1.443668	0.436227	0.135268
O465	O	0.817459	-0.190044	-0.614823
O466	O	1.067459	0.059956	-0.364823
O467	O	1.317459	0.309956	-0.114823
O468	O	1.567459	0.559956	0.135177
C469	C	0.755520	-0.251951	-0.116139
C470	C	1.005520	-0.001951	0.133861
C471	C	1.255520	0.248049	0.383861
C472	C	1.505520	0.498049	0.633861
C473	C	0.755614	-0.251807	-0.058025
C474	C	1.005614	-0.001807	0.191975
C475	C	1.255614	0.248193	0.441975
C476	C	1.505614	0.498193	0.691975
H477	H	0.556481	-0.312723	-0.312491
H478	H	0.806481	-0.062723	-0.062491
H479	H	1.056481	0.187277	0.187509
H480	H	1.306481	0.437277	0.437509
H481	H	0.661503	-0.801360	-0.157817
H482	H	0.911503	-0.551360	0.092183
H483	H	1.161503	-0.301360	0.342183
H484	H	1.411503	-0.051360	0.592183
H485	H	0.849590	-0.801099	-0.346221
H486	H	1.099590	-0.551099	-0.096221
H487	H	1.349590	-0.301099	0.153779
H488	H	1.599590	-0.051099	0.403779
H489	H	0.206250	-0.157734	-0.158087
H490	H	0.456250	0.092266	0.091913
H491	H	0.706250	0.342266	0.341913
H492	H	0.956250	0.592266	0.591913
H493	H	0.694974	-0.953447	-0.191308
H494	H	0.944974	-0.703447	0.058692
H495	H	1.194974	-0.453447	0.308692
H496	H	1.444974	-0.203447	0.558692
H497	H	0.694913	-0.312471	-1.052916
H498	H	0.944913	-0.062471	-0.802916
H499	H	1.194913	0.187529	-0.552916
H500	H	1.444913	0.437529	-0.302916
H501	H	0.305300	-0.157721	-0.158083
H502	H	0.555300	0.092279	0.091917
H503	H	0.805300	0.342279	0.341917
H504	H	1.055300	0.592279	0.591917
H505	H	0.816228	-0.953270	-0.312771
H506	H	1.066228	-0.703270	-0.062771
H507	H	1.316228	-0.453270	0.187229
H508	H	1.566228	-0.203270	0.437229
H509	H	-0.044931	-0.191258	-0.191478
H510	H	0.205069	0.058742	0.058522
H511	H	0.455069	0.308742	0.308522
H512	H	0.705069	0.558742	0.558522
H513	H	0.457406	-0.191213	-0.191412
H514	H	0.707406	0.058787	0.058588
H515	H	0.957406	0.308787	0.308588
H516	H	1.207406	0.558787	0.558588
H517	H	0.556474	-0.191211	-0.191398
H518	H	0.806474	0.058789	0.058602
H519	H	1.056474	0.308789	0.308602
H520	H	1.306474	0.558789	0.558602
H521	H	0.305308	-0.346225	-0.345907
H522	H	0.555308	-0.096225	-0.095907
H523	H	0.805308	0.153775	0.154093
H524	H	1.055308	0.403775	0.404093
H525	H	0.661471	-0.702310	-0.157806
H526	H	0.911471	-0.452310	0.092194
H527	H	1.161471	-0.202310	0.342194
H528	H	1.411471	0.047690	0.592194
H529	H	0.054118	-0.191241	-0.191472
H530	H	0.304118	0.058759	0.058528
H531	H	0.554118	0.308759	0.308528
H532	H	0.804118	0.558759	0.558528
H533	H	0.849740	-0.157777	-0.801809
H534	H	1.099740	0.092223	-0.551809
H535	H	1.349740	0.342223	-0.301809
H536	H	1.599740	0.592223	-0.051809
H537	H	0.816079	-0.450924	-0.312671
H538	H	1.066079	-0.200924	-0.062671
H539	H	1.316079	0.049076	0.187329
H540	H	1.566079	0.299076	0.437329
H541	H	0.695013	-1.052497	-0.191318
H542	H	0.945013	-0.802497	0.058682
H543	H	1.195013	-0.552497	0.308682
H544	H	1.445013	-0.302497	0.558682
H545	H	0.816101	-0.549975	-0.312704
H546	H	1.066101	-0.299975	-0.062704
H547	H	1.316101	-0.049975	0.187296
H548	H	1.566101	0.200025	0.437296
H549	H	0.849563	-0.702052	-0.346199
H550	H	1.099563	-0.452052	-0.096199
H551	H	1.349563	-0.202052	0.153801
H552	H	1.599563	0.047948	0.403801
H553	H	0.816308	-0.191174	-0.953917
H554	H	1.066308	0.058826	-0.703917
H555	H	1.316308	0.308826	-0.453917
H556	H	1.566308	0.558826	-0.203917
H557	H	0.816241	-0.191310	-0.451571
H558	H	1.066241	0.058690	-0.201571
H559	H	1.316241	0.308690	0.048429
H560	H	1.566241	0.558690	0.298429
H561	H	0.849730	-0.157806	-0.702763
H562	H	1.099730	0.092194	-0.452763
H563	H	1.349730	0.342194	-0.202763
H564	H	1.599730	0.592194	0.047237
H565	H	0.816254	-1.052336	-0.312786
H566	H	1.066254	-0.802336	-0.062786
H567	H	1.316254	-0.552336	0.187214
H568	H	1.566254	-0.302336	0.437214
H569	H	0.816249	-0.191272	-0.550621
H570	H	1.066249	0.058728	-0.300621
H571	H	1.316249	0.308728	-0.050621
H572	H	1.566249	0.558728	0.199379
H573	H	0.694857	-0.550160	-0.191228
H574	H	0.944857	-0.300160	0.058772
H575	H	1.194857	-0.050160	0.308772
H576	H	1.444857	0.199840	0.558772
H577	H	0.694830	-0.451094	-0.191212
H578	H	0.944830	-0.201094	0.058788
H579	H	1.194830	0.048906	0.308788
H580	H	1.444830	0.298906	0.558788
H581	H	0.816317	-0.191153	-1.052983
H582	H	1.066317	0.058847	-0.802983
H583	H	1.316317	0.308847	-0.552983
H584	H	1.566317	0.558847	-0.302983
H585	H	0.694889	-0.312487	-0.953866
H586	H	0.944889	-0.062487	-0.703866
H587	H	1.194889	0.187513	-0.453866
H588	H	1.444889	0.437513	-0.203866
H589	H	0.661400	-0.345949	-0.801716
H590	H	0.911400	-0.095949	-0.551716
H591	H	1.161400	0.154051	-0.301716
H592	H	1.411400	0.404051	-0.051716
H593	H	0.661380	-0.345963	-0.702666
H594	H	0.911380	-0.095963	-0.452666
H595	H	1.161380	0.154037	-0.202666
H596	H	1.411380	0.404037	0.047334
H597	H	0.694830	-0.312619	-0.451511
H598	H	0.944830	-0.062619	-0.201511
H599	H	1.194830	0.187381	0.048489
H600	H	1.444830	0.437381	0.298489
H601	H	0.457431	-0.312726	-0.312517
H602	H	0.707431	-0.062726	-0.062517
H603	H	0.957431	0.187274	0.187483
H604	H	1.207431	0.437274	0.437483
H605	H	0.206262	-0.346229	-0.345924
H606	H	0.456262	-0.096229	-0.095924
H607	H	0.706262	0.153771	0.154076
H608	H	0.956262	0.403771	0.404076
H609	H	0.694841	-0.312597	-0.550578
H610	H	0.944841	-0.062597	-0.300578
H611	H	1.194841	0.187403	-0.050578
H612	H	1.444841	0.437403	0.199422
H613	H	0.054135	-0.312760	-0.312570
H614	H	0.304135	-0.062760	-0.062570
H615	H	0.554135	0.187240	0.187430
H616	H	0.804135	0.437240	0.437430
H617	H	-0.044930	-0.312763	-0.312580
H618	H	0.205070	-0.062763	-0.062580
H619	H	0.455070	0.187237	0.187420
H620	H	0.705070	0.437237	0.437420
