data_functionalizedCrystal
_audit_creation_method	'MofGen! by Chris Wilmer'
_symmetry_space_group_name_H-M	'P1'
_symmetry_Int_Tables_number	1
_symmetry_cell_setting	triclinic
loop_
_symmetry_equiv_pos_as_xyz
  x,y,z
_cell_length_a	13.032831
_cell_length_b	25.639239
_cell_length_c	13.032268
_cell_angle_alpha	97.141717
_cell_angle_beta	90.886977
_cell_angle_gamma	82.842759
loop_
_atom_site_label
_atom_site_type_symbol
_atom_site_fract_x
_atom_site_fract_y
_atom_site_fract_z
Zn1	Zn	1.498234	-0.353075	-0.780741
Zn2	Zn	1.519922	-0.430970	-0.608740
Zn3	Zn	1.348108	-0.331235	-0.586988
Zn4	Zn	1.326172	-0.428143	-0.758866
O5	O	1.423109	-0.385856	-0.683834
O6	O	1.645024	-0.373731	-0.776183
O7	O	1.515387	-0.409782	-0.461940
O8	O	1.368126	-0.260977	-0.612741
O9	O	1.660959	-0.430960	-0.649815
O10	O	1.478423	-0.277023	-0.755090
O11	O	1.389156	-0.336508	-0.445959
O12	O	1.201284	-0.333767	-0.591530
O13	O	1.330740	-0.426142	-0.905683
O14	O	1.185169	-0.404965	-0.717808
O15	O	1.457153	-0.370990	-0.921754
O16	O	1.494117	-0.503750	-0.628604
O17	O	1.351770	-0.501673	-0.738901
C18	C	1.155911	-0.366689	-0.649935
C19	C	1.041600	-0.358504	-0.635458
C20	C	0.982702	-0.390128	-0.691390
C21	C	0.864555	-0.381668	-0.676428
C22	C	1.422942	-0.521683	-0.683765
C23	C	1.422960	-0.579799	-0.683782
C24	C	1.497387	-0.941263	-0.626536
C25	C	1.497425	-0.995870	-0.626555
O26	O	1.560532	-1.025027	-0.577808
N27	N	1.423281	-1.022111	-0.683925
C28	C	1.349101	-0.993742	-0.741288
O29	O	1.286040	-1.021077	-0.790088
C30	C	1.349068	-0.939136	-0.741275
C31	C	1.423210	-0.912897	-0.683893
C32	C	1.571523	-0.915024	-0.569160
C33	C	1.571484	-0.860419	-0.569140
C34	C	1.497307	-0.832054	-0.626496
C35	C	1.423171	-0.858293	-0.683872
C36	C	1.274894	-0.910769	-0.798643
C37	C	1.274868	-0.856159	-0.798625
C38	C	1.349010	-0.829920	-0.741243
C39	C	1.348955	-0.775323	-0.741209
N40	N	1.423098	-0.749082	-0.683839
C41	C	1.497275	-0.777448	-0.626482
C42	C	1.349176	-1.108419	-0.741314
C43	C	1.349204	-1.163024	-0.741322
C44	C	1.497529	-1.165149	-0.626590
C45	C	1.497496	-1.110542	-0.626577
C46	C	1.423320	-1.082179	-0.683944
C47	C	1.497185	-0.662774	-0.626444
C48	C	1.497137	-0.608165	-0.626425
C49	C	1.348815	-0.606046	-0.741161
C50	C	1.348860	-0.660650	-0.741176
C51	C	1.423054	-0.689013	-0.683815
O52	O	1.285883	-0.746133	-0.789934
O53	O	1.560333	-0.750108	-0.577701
C54	C	1.691350	-0.405097	-0.717865
C55	C	1.805658	-0.413297	-0.732368
C56	C	1.389080	-0.400687	-0.952077
C57	C	1.374579	-0.407007	-1.066386
C58	C	1.423302	-0.249501	-0.683929
C59	C	1.423384	-0.191395	-0.683970
C60	C	1.430661	-0.382537	-1.125301
C61	C	1.415675	-0.389069	-1.243446
C62	C	1.457064	-0.371048	-0.416642
C63	C	1.471765	-0.364595	-0.302358
H64	H	1.004556	-0.325165	-0.576500
H65	H	0.827516	-0.348327	-0.617466
C66	C	1.510513	-0.347699	-1.075284
N67	N	1.570659	-0.321459	-1.037612
H68	H	1.557930	-1.188254	-0.579892
C69	C	1.578698	-0.579305	-0.563292
N70	N	1.640127	-0.557569	-0.515741
H71	H	1.356556	-0.414852	-1.280468
C72	C	1.193332	-0.939620	-0.861772
N73	N	1.131897	-0.961349	-0.909327
C74	C	0.855690	-0.458337	-0.812030
N75	N	0.893374	-0.492262	-0.872029
C76	C	1.551625	-0.329758	-1.252349
N77	N	1.611777	-0.303519	-1.214680
C78	C	1.578797	-0.693966	-0.563337
N79	N	1.640262	-0.717458	-0.515798
C80	C	1.267229	-0.574834	-0.804255
N81	N	1.205783	-0.551324	-0.851784
C82	C	1.267633	-1.191879	-0.804436
N83	N	1.206195	-1.213612	-0.851980
H84	H	1.631859	-0.839059	-0.522418
H85	H	1.315465	-0.432789	-1.103413
C86	C	1.653126	-0.946216	-0.506051
N87	N	1.714588	-0.969706	-0.458506
C88	C	1.267575	-1.077225	-0.804431
N89	N	1.206118	-1.053732	-0.851978
C90	C	1.032740	-0.435167	-0.771045
N91	N	1.070428	-0.469092	-0.831041
H92	H	1.557869	-1.089182	-0.579852
C93	C	1.267298	-0.689513	-0.804294
N94	N	1.205870	-0.711250	-0.851846
C95	C	1.193266	-0.824962	-0.861736
N96	N	1.131802	-0.801466	-0.909269
