data_functionalizedCrystal
_audit_creation_method	'MofGen! by Chris Wilmer'
_symmetry_space_group_name_H-M	'P1'
_symmetry_Int_Tables_number	1
_symmetry_cell_setting	triclinic
loop_
_symmetry_equiv_pos_as_xyz
  x,y,z
_cell_length_a	6.817900
_cell_length_b	9.109307
_cell_length_c	16.015572
_cell_angle_alpha	83.168971
_cell_angle_beta	104.485554
_cell_angle_gamma	111.764999
loop_
_atom_site_label
_atom_site_type_symbol
_atom_site_fract_x
_atom_site_fract_y
_atom_site_fract_z
V1	V	-4.006507	-0.062931	-0.274060
O2	O	-3.941818	0.160401	-0.252370
O3	O	-4.008741	-0.276141	-0.288028
O4	O	-3.926198	0.007091	-0.386359
O5	O	-4.024932	-0.124792	-0.153359
V6	V	-4.487709	-0.044377	-0.257698
O7	O	-4.272858	-0.103630	-0.309950
O8	O	-4.671556	-0.003678	-0.221808
O9	O	-4.262269	0.168833	-0.243730
O10	O	-4.669796	-0.267709	-0.279388
O11	O	-4.586682	0.017484	-0.378399
O12	O	-4.344812	-0.114400	-0.145399
C13	C	-3.867091	-0.330274	-0.287793
C14	C	-3.949991	-0.504132	-0.299963
C15	C	-3.761799	0.031018	-0.413222
C16	C	-3.777756	0.086858	-0.505131
C17	C	-4.184095	-0.408779	-0.919519
C18	C	-4.199081	-0.356258	-1.005873
C19	C	-4.057563	-0.084532	-0.961016
C20	C	-4.042554	-0.137030	-0.874656
C21	C	-4.105826	-0.299155	-0.853915
C22	C	-3.964286	-0.027406	-0.809052
C23	C	-3.949290	-0.079901	-0.722699
C24	C	-4.012561	-0.242020	-0.701951
C25	C	-4.090830	-0.351650	-0.767562
C26	C	-3.901030	0.134718	-0.829794
C27	C	-3.822761	0.244342	-0.764190
C28	C	-3.807749	0.191848	-0.677836
C29	C	-3.871021	0.029729	-0.657087
C30	C	-3.729481	0.301478	-0.612224
C31	C	-3.714484	0.248983	-0.525872
C32	C	-3.856024	-0.022766	-0.570735
C33	C	-4.067263	0.222957	-0.243963
C34	C	-3.963600	0.396815	-0.231799
C35	C	-4.172555	-0.138334	-0.118532
C36	C	-4.135835	-0.194166	-0.026622
H37	H	-3.911879	-0.554989	-0.164114
O38	O	-3.915535	0.185983	-0.913635
C39	C	-3.842869	0.352582	-0.917873
H40	H	-3.857659	0.397428	-0.857072
H41	H	-3.945950	0.393137	-0.976833
H42	H	-3.666244	0.401899	-0.923143
H43	H	-4.262811	-0.445539	-1.059289
H44	H	-4.001734	-0.552334	-0.367653
O45	O	-3.916768	-0.180236	-0.550563
C46	C	-3.789376	-0.244701	-0.580714
H47	H	-3.722721	-0.166342	-0.635628
H48	H	-3.893222	-0.368518	-0.605049
H49	H	-3.649178	-0.251375	-0.525847
H50	H	-4.000353	-0.284759	-0.631636
H51	H	-3.650752	0.338250	-0.472454
O52	O	-4.151574	-0.509120	-0.747390
C53	C	-4.024182	-0.573586	-0.777541
H54	H	-3.957527	-0.495226	-0.832455
H55	H	-4.128027	-0.697402	-0.801876
H56	H	-3.883983	-0.580259	-0.722675
O57	O	-4.245140	-0.566311	-0.899500
C58	C	-4.317057	-0.651811	-0.975910
H59	H	-4.371128	-0.576644	-1.032542
H60	H	-4.459059	-0.765145	-0.969134
H61	H	-4.179143	-0.682782	-0.987842
O62	O	-3.996104	0.072897	-0.981316
C63	C	-4.026178	0.095726	-1.071602
H64	H	-4.025574	-0.012041	-1.101014
H65	H	-3.889323	0.205265	-1.087548
H66	H	-4.187950	0.112415	-1.099252
O67	O	-3.760975	0.401872	-0.784226
C68	C	-3.540573	0.476724	-0.744953
H69	H	-3.491899	0.401647	-0.687121
H70	H	-3.514381	0.598093	-0.722495
H71	H	-3.437219	0.490962	-0.793482
O72	O	-3.668047	0.459012	-0.632231
C73	C	-3.595700	0.544517	-0.555807
H74	H	-3.669211	0.465423	-0.502485
H75	H	-3.647923	0.651882	-0.567615
H76	H	-3.411468	0.585390	-0.535524
