data_functionalizedCrystal
_audit_creation_method	'MofGen! by Chris Wilmer'
_symmetry_space_group_name_H-M	'P1'
_symmetry_Int_Tables_number	1
_symmetry_cell_setting	triclinic
loop_
_symmetry_equiv_pos_as_xyz
  x,y,z
_cell_length_a	21.395364
_cell_length_b	14.908520
_cell_length_c	14.908748
_cell_angle_alpha	89.821209
_cell_angle_beta	93.303344
_cell_angle_gamma	93.335646
loop_
_atom_site_label
_atom_site_type_symbol
_atom_site_fract_x
_atom_site_fract_y
_atom_site_fract_z
Zn1	Zn	0.965833	-0.328428	0.529050
Zn2	Zn	0.953728	-0.487437	0.387359
Zn3	Zn	0.854703	-0.337131	0.378705
Zn4	Zn	0.855350	-0.478792	0.537674
O5	O	0.907404	-0.407947	0.458197
O6	O	1.051906	-0.349497	0.510267
O7	O	0.935255	-0.474759	0.260384
O8	O	0.874240	-0.210145	0.391418
O9	O	1.043013	-0.466320	0.406167
O10	O	0.955887	-0.203751	0.501876
O11	O	0.862502	-0.364330	0.254026
O12	O	0.767110	-0.355946	0.399780
O13	O	0.875343	-0.451585	0.662357
O14	O	0.767585	-0.460024	0.516574
O15	O	0.956514	-0.341114	0.656021
O16	O	0.935882	-0.612122	0.414529
O17	O	0.863605	-0.605770	0.524965
C18	C	0.744613	-0.407992	0.458174
C19	C	0.674971	-0.408032	0.458187
C20	C	0.646911	-0.347291	0.512486
C21	C	0.581477	-0.347267	0.512488
C22	C	0.544104	-0.407999	0.458202
C23	C	0.572171	-0.468745	0.403891
C24	C	0.637605	-0.468761	0.403884
C25	C	0.437025	-0.489393	0.455645
C26	C	0.371593	-0.489378	0.455659
C27	C	0.342286	-0.407949	0.458219
C28	C	0.378421	-0.326531	0.460784
C29	C	0.443854	-0.326547	0.460776
C30	C	0.473153	-0.407988	0.458203
C31	C	0.243276	-0.347176	0.512523
C32	C	0.177840	-0.347151	0.512519
C33	C	0.168536	-0.468637	0.403927
C34	C	0.233970	-0.468654	0.403926
C35	C	0.271337	-0.407925	0.458229
C36	C	0.898518	-0.641572	0.471642
C37	C	0.894776	-0.741516	0.477423
C38	C	0.963092	-0.935869	0.373384
C39	C	0.959577	-1.029775	0.378813
C40	C	0.884236	-1.023236	0.493716
C41	C	0.887751	-0.929330	0.488286
C42	C	0.927179	-0.885650	0.428117
C43	C	0.930690	-0.791742	0.422684
C44	C	0.855352	-0.785205	0.537590
C45	C	0.851838	-0.879111	0.543020
C46	C	1.070830	-0.407902	0.458220
C47	C	1.140472	-0.407883	0.458230
C48	C	0.917351	-0.394414	0.692727
C49	C	0.921590	-0.388647	0.792670
C50	C	0.916341	-0.173409	0.444720
C51	C	0.920150	-0.073463	0.438976
C52	C	0.969821	-0.323009	0.930237
C53	C	0.965842	-0.328424	0.836332
C54	C	0.881316	-0.443462	0.842920
C55	C	0.885296	-0.438047	0.936825
C56	C	0.929549	-0.377818	0.980481
C57	C	0.933526	-0.372399	1.074387
C58	C	0.849003	-0.487440	1.080974
C59	C	0.845024	-0.492855	0.987068
C60	C	0.897490	-0.421447	1.224580
C61	C	0.893252	-0.427213	1.124637
H62	H	0.558626	-0.297800	0.556704
C63	C	0.832645	-0.509709	0.794889
H64	H	0.836044	-0.505079	0.731766
H65	H	0.840163	-0.569236	0.813750
H66	H	0.791697	-0.495668	0.809507
C67	C	0.840876	-1.071291	0.559904
H68	H	0.819993	-1.027934	0.591733
H69	H	0.810765	-1.109976	0.527599
H70	H	0.865125	-1.105599	0.601231
C71	C	0.815849	-0.729962	0.597802
H72	H	0.823590	-0.667778	0.585957
H73	H	0.772620	-0.746190	0.585480
H74	H	0.826975	-0.741827	0.659121
H75	H	0.998636	-0.283794	0.795427
H76	H	0.808996	-0.541895	0.951511
H77	H	0.541738	-0.518193	0.359690
H78	H	0.969556	-0.323353	1.109930
C79	C	0.469255	-0.578971	0.452837
H80	H	0.438366	-0.627456	0.451326
H81	H	0.492613	-0.580743	0.400646
H82	H	0.496664	-0.583981	0.504821
H83	H	0.256816	-0.518120	0.359714
C84	C	0.999075	-1.085018	0.318602
H85	H	0.991339	-1.147202	0.330454
H86	H	0.987952	-1.073148	0.257288
H87	H	1.042307	-1.068794	0.330930
C88	C	0.127437	-0.535441	0.344208
H89	H	0.153523	-0.571617	0.311864
H90	H	0.101865	-0.572686	0.380796
H91	H	0.101571	-0.503225	0.303101
C92	C	0.331849	-0.578929	0.452844
H93	H	0.288683	-0.567259	0.453228
H94	H	0.339138	-0.610760	0.399705
H95	H	0.343200	-0.614013	0.503880
C96	C	0.668471	-0.535587	0.344161
H97	H	0.636845	-0.571758	0.311832
H98	H	0.693658	-0.503397	0.303056
H99	H	0.693949	-0.572848	0.380759
C100	C	1.006458	-0.887818	0.307200
H101	H	1.027345	-0.931177	0.275381
H102	H	0.982218	-0.853499	0.265877
H103	H	1.036574	-0.849143	0.339518
C104	C	1.018495	-0.256760	0.978261
H105	H	1.041912	-0.224895	0.934888
H106	H	0.997572	-0.215479	1.012641
H107	H	1.046040	-0.289043	1.016872
C108	C	0.804708	-0.547741	1.136243
H109	H	0.813418	-0.535897	1.198423
H110	H	0.762457	-0.535489	1.120090
H111	H	0.810932	-0.609044	1.124323
H112	H	0.677331	-0.297840	0.556703
C113	C	0.974061	-0.743694	0.356505
H114	H	0.994951	-0.787055	0.324693
H115	H	0.949827	-0.709375	0.315176
H116	H	1.004175	-0.705019	0.388827
H117	H	0.819738	-0.914688	0.592010
H118	H	0.154996	-0.297683	0.556734
H119	H	0.473272	-0.260255	0.462862
H120	H	0.273701	-0.297722	0.556734
C121	C	0.346193	-0.236954	0.463603
H122	H	0.302049	-0.248601	0.463231
H123	H	0.360347	-0.205131	0.516740
H124	H	0.356294	-0.201875	0.412565
