data_functionalizedCrystal
_audit_creation_method	'MofGen! by Chris Wilmer'
_symmetry_space_group_name_H-M	'P1'
_symmetry_Int_Tables_number	1
_symmetry_cell_setting	triclinic
loop_
_symmetry_equiv_pos_as_xyz
  x,y,z
_cell_length_a	18.101395
_cell_length_b	16.959455
_cell_length_c	16.959447
_cell_angle_alpha	89.984772
_cell_angle_beta	90.029468
_cell_angle_gamma	89.974126
loop_
_atom_site_label
_atom_site_type_symbol
_atom_site_fract_x
_atom_site_fract_y
_atom_site_fract_z
Zn1	Zn	-0.294918	-1.208323	0.446932
Zn2	Zn	0.205082	-0.708323	0.946932
Zn3	Zn	-0.418771	-1.208220	0.314756
Zn4	Zn	0.081229	-0.708220	0.814756
Zn5	Zn	-0.294937	-1.076152	0.314768
Zn6	Zn	0.205063	-0.576152	0.814768
Zn7	Zn	-0.418711	-1.076091	0.446892
Zn8	Zn	0.081289	-0.576091	0.946892
O9	O	-0.356834	-1.142196	0.380837
O10	O	0.143166	-0.642196	0.880837
O11	O	-0.311365	-1.318920	0.429411
O12	O	0.188635	-0.818920	0.929411
O13	O	-0.402377	-1.190683	0.204146
O14	O	0.097623	-0.690683	0.704146
O15	O	-0.191302	-1.093753	0.332322
O16	O	0.308698	-0.593753	0.832322
O17	O	-0.402359	-1.318845	0.332301
O18	O	0.097641	-0.818845	0.832301
O19	O	-0.191288	-1.190859	0.429422
O20	O	0.308712	-0.690859	0.929422
O21	O	-0.311397	-1.093653	0.204155
O22	O	0.188603	-0.593653	0.704155
O23	O	-0.311338	-0.965533	0.332283
O24	O	0.188662	-0.465533	0.832283
O25	O	-0.402257	-1.093649	0.557509
O26	O	0.097743	-0.593649	1.057509
O27	O	-0.402275	-0.965488	0.429354
O28	O	0.097725	-0.465488	0.929354
O29	O	-0.311307	-1.190800	0.557538
O30	O	0.188693	-0.690800	1.057538
O31	O	-0.522396	-1.190624	0.332262
O32	O	-0.022396	-0.690624	0.832262
O33	O	-0.522352	-1.093550	0.429342
O34	O	-0.022352	-0.593550	0.929342
C35	C	-0.356803	-0.936830	0.380816
C36	C	0.143197	-0.436830	0.880816
C37	C	-0.356807	-0.848974	0.380825
C38	C	0.143193	-0.348974	0.880825
C39	C	-0.549245	-1.142091	0.380814
C40	C	-0.049245	-0.642091	0.880814
C41	C	-0.631559	-1.142118	0.380830
C42	C	-0.131559	-0.642118	0.880830
C43	C	-0.309421	-0.477497	0.330387
C44	C	0.190579	0.022503	0.830387
C45	C	-0.404261	-0.477499	0.431311
C46	C	0.095739	0.022501	0.931311
C47	C	-0.404254	-0.560045	0.431308
C48	C	0.095746	-0.060045	0.931308
C49	C	-0.356830	-0.601321	0.380842
C50	C	0.143170	-0.101321	0.880842
C51	C	-0.309414	-0.560050	0.330380
C52	C	0.190586	-0.060050	0.830380
C53	C	-0.451674	-0.601321	0.481763
C54	C	0.048326	-0.101321	0.981763
C55	C	-0.451669	-0.683872	0.481761
C56	C	0.048331	-0.183872	0.981761
C57	C	-0.404241	-0.725150	0.431299
C58	C	0.095759	-0.225150	0.931299
C59	C	-0.356822	-0.683874	0.380836
C60	C	0.143178	-0.183874	0.880836
C61	C	-0.309399	-0.725150	0.330370
C62	C	0.190601	-0.225150	0.830370
C63	C	-0.261976	-0.683876	0.279910
C64	C	0.238024	-0.183876	0.779910
C65	C	-0.261986	-0.601327	0.279918
C66	C	0.238014	-0.101327	0.779918
C67	C	-0.404231	-0.807698	0.431291
C68	C	0.095769	-0.307698	0.931291
C69	C	-0.309391	-0.807703	0.330363
C70	C	0.190609	-0.307703	0.830363
C71	C	-0.930650	-1.142291	0.380873
C72	C	-0.430650	-0.642291	0.880873
C73	C	-0.899328	-1.081356	0.442105
C74	C	-0.399328	-0.581356	0.942105
C75	C	-0.813710	-1.081066	0.441913
C76	C	-0.313710	-0.581066	0.941913
C77	C	-0.782268	-1.142205	0.380852
C78	C	-0.282268	-0.642205	0.880852
C79	C	-0.813420	-1.119658	0.297548
C80	C	-0.313420	-0.619658	0.797548
C81	C	-0.899065	-1.119266	0.297914
C82	C	-0.399065	-0.619266	0.797914
C83	C	-0.899000	-1.225907	0.402213
C84	C	-0.399000	-0.725907	0.902213
C85	C	-0.813349	-1.225415	0.404040
C86	C	-0.313349	-0.725415	0.904040
C87	C	-0.698408	-1.142158	0.380836
C88	C	-0.198408	-0.642158	0.880836
C89	C	-1.014509	-1.142337	0.380884
C90	C	-0.514509	-0.642337	0.880884
C91	C	-0.163673	-1.142324	0.380878
C92	C	0.336327	-0.642324	0.880878
C93	C	-0.081358	-1.142379	0.380895
C94	C	0.418642	-0.642379	0.880895
C95	C	-0.356773	-1.142229	0.587005
C96	C	0.143227	-0.642229	1.087005
C97	C	-0.356747	-1.142243	0.674862
C98	C	0.143253	-0.642243	1.174862
C99	C	-0.356858	-0.348365	0.380855
C100	C	0.143142	0.151635	0.880855
C101	C	-0.356845	-0.436221	0.380853
C102	C	0.143155	0.063779	0.880853
C103	C	-0.356842	-1.142209	0.175471
C104	C	0.143158	-0.642209	0.675471
C105	C	-0.356660	-1.142348	0.087615
C106	C	0.143340	-0.642348	0.587615
C107	C	-0.404022	-1.091756	1.046325
C108	C	0.095978	-0.591756	1.546325
C109	C	-0.309315	-1.192920	1.046351
C110	C	0.190685	-0.692920	1.546351
C111	C	-0.309331	-1.192899	0.963805
C112	C	0.190669	-0.692899	1.463805
C113	C	-0.356694	-1.142306	0.922515
C114	C	0.143306	-0.642306	1.422515
C115	C	-0.404041	-1.091735	0.963771
C116	C	0.095959	-0.591735	1.463771
C117	C	-0.261990	-1.243475	0.922542
C118	C	0.238010	-0.743475	1.422542
C119	C	-0.262004	-1.243456	0.839991
C120	C	0.237996	-0.743456	1.339991
C121	C	-0.309364	-1.192859	0.798700
C122	C	0.190636	-0.692859	1.298700
C123	C	-0.356713	-1.142285	0.839962
C124	C	0.143287	-0.642285	1.339962
C125	C	-0.404076	-1.091693	0.798672
C126	C	0.095924	-0.591693	1.298672
C127	C	-0.451421	-1.041114	0.839932
C128	C	0.048579	-0.541114	1.339932
C129	C	-0.451401	-1.041138	0.922480
C130	C	0.048599	-0.541138	1.422480
C131	C	-0.309384	-1.192836	0.716152
C132	C	0.190616	-0.692836	1.216152
C133	C	-0.404094	-1.091672	0.716118
C134	C	0.095906	-0.591672	1.216118
H135	H	-0.270768	-0.841304	0.289273
H136	H	0.229232	-0.341304	0.789273
H137	H	-0.489987	-0.999926	0.806303
H138	H	0.010013	-0.499926	1.306303
H139	H	-0.792031	-1.059184	0.279147
H140	H	-0.292031	-0.559184	0.779147
F141	F	-0.454702	-0.851621	0.484985
F142	F	0.045298	-0.351621	0.984985
H143	H	-0.793282	-1.019089	0.427778
H144	H	-0.293282	-0.519089	0.927778
H145	H	-0.489949	-0.999962	0.956081
H146	H	0.010051	-0.499962	1.456081
F147	F	-0.502161	-0.557389	0.535447
F148	F	-0.002161	-0.057389	1.035447
F149	F	-0.927163	-1.252777	0.480259
F150	F	-0.427163	-0.752777	0.980259
H151	H	-0.223434	-1.284669	0.956166
H152	H	0.276566	-0.784669	1.456166
F153	F	-0.258950	-0.433571	0.276690
F154	F	0.241050	0.066429	0.776690
F155	F	-0.454406	-1.037927	1.090236
F156	F	0.045594	-0.537927	1.590236
H157	H	-0.270759	-1.234114	1.079974
H158	H	0.229241	-0.734114	1.579974
H159	H	-0.919103	-1.058143	0.279837
H160	H	-0.419103	-0.558143	0.779837
F161	F	-0.259004	-1.246666	0.672244
F162	F	0.240996	-0.746666	1.172244
H163	H	-0.223453	-1.284640	0.806405
H164	H	0.276547	-0.784640	1.306405
H165	H	-0.792645	-1.095172	0.503683
H166	H	-0.292645	-0.595172	1.003683
H167	H	-0.442876	-0.443888	0.472393
H168	H	0.057124	0.056112	0.972393
F169	F	-0.502138	-0.727792	0.535465
F170	F	-0.002138	-0.227792	1.035465
H171	H	-0.919875	-1.095322	0.504074
H172	H	-0.419875	-0.595322	1.004074
F173	F	-0.926153	-1.174753	0.236245
F174	F	-0.426153	-0.674753	0.736245
H175	H	-0.792985	-1.242417	0.465347
H176	H	-0.292985	-0.742417	0.965347
H177	H	-0.223367	-0.717493	0.238818
H178	H	0.276633	-0.217493	0.738818
F179	F	-0.927549	-1.000841	0.423875
F180	F	-0.427549	-0.500841	0.923875
F181	F	-0.785364	-1.287898	0.350001
F182	F	-0.285364	-0.787898	0.850001
H183	H	-0.793055	-1.162645	0.250681
H184	H	-0.293055	-0.662645	0.750681
F185	F	-0.925487	-1.285250	0.343931
F186	F	-0.425487	-0.785250	0.843931
H187	H	-0.442657	-1.050466	0.682506
H188	H	0.057343	-0.550466	1.182506
F189	F	-0.211520	-0.557396	0.226220
F190	F	0.288480	-0.057396	0.726220
