data_functionalizedCrystal
_audit_creation_method	'MofGen! by Chris Wilmer'
_symmetry_space_group_name_H-M	'P1'
_symmetry_Int_Tables_number	1
_symmetry_cell_setting	triclinic
loop_
_symmetry_equiv_pos_as_xyz
  x,y,z
_cell_length_a	10.654550
_cell_length_b	10.654562
_cell_length_c	17.766277
_cell_angle_alpha	89.987841
_cell_angle_beta	90.006571
_cell_angle_gamma	95.512497
loop_
_atom_site_label
_atom_site_type_symbol
_atom_site_fract_x
_atom_site_fract_y
_atom_site_fract_z
O1	O	-0.176477	1.667841	-0.062644
O2	O	-0.193266	1.302364	-0.062635
O3	O	-0.002133	1.493505	-0.062634
O4	O	-0.367610	1.476699	-0.062645
O5	O	-0.002122	1.493471	0.062554
O6	O	-0.193256	1.302330	0.062553
O7	O	-0.176467	1.667807	0.062544
Cu8	Cu	-0.184860	1.485065	0.073980
Cu9	Cu	-0.184872	1.485105	-0.074070
O10	O	-0.367600	1.476665	0.062544
C11	C	-0.192025	1.255549	-0.000040
C12	C	-0.188327	1.116107	-0.000036
C13	C	-0.186596	1.050558	0.068199
C14	C	-0.183131	0.919535	0.068186
C15	C	-0.183133	0.919623	-0.068301
C16	C	-0.186589	1.050644	-0.068288
C17	C	-0.188334	1.116021	0.136451
C18	C	-0.186605	1.050472	0.204691
C19	C	-0.183140	0.919449	0.204678
C20	C	-0.181404	0.853977	0.136426
C21	C	-0.414403	1.477916	-0.000052
C22	C	-0.553847	1.481608	-0.000057
C23	C	-0.633327	1.369067	-0.000047
C24	C	-0.764348	1.372544	-0.000041
C25	C	-0.736395	1.601112	-0.000053
C26	C	-0.605377	1.597634	-0.000064
C27	C	-0.581797	1.253041	-0.000040
C28	C	-0.661279	1.140491	-0.000029
C29	C	-0.792300	1.143968	-0.000023
C30	C	-0.843839	1.259994	-0.000029
C31	C	0.044671	1.492254	-0.000040
C32	C	0.184114	1.488563	-0.000041
C33	C	-0.177708	1.714621	-0.000053
C34	C	-0.181406	1.854064	-0.000062
N35	N	-0.184851	1.485046	0.178110
N36	N	-0.184872	1.485134	-0.178201
C37	C	-0.100259	1.569712	0.217497
C38	C	-0.100254	1.569719	0.296299
C39	C	-0.184862	1.485073	0.335710
C40	C	-0.269460	1.400391	0.296314
C41	C	-0.269454	1.400378	0.217513
C42	C	-0.299099	1.469613	0.460545
C43	C	-0.299106	1.469635	0.539344
C44	C	-0.184877	1.485106	0.578757
C45	C	-0.070637	1.500582	0.539361
C46	C	-0.070632	1.500569	0.460561
C47	C	-0.184876	1.485077	0.421156
C48	C	-0.100272	1.569784	0.703590
C49	C	-0.100264	1.569783	0.782393
C50	C	-0.269481	1.400461	0.782407
C51	C	-0.269478	1.400457	0.703605
C52	C	-0.184875	1.485125	0.664201
H53	H	-0.188009	1.103789	0.260259
O54	O	-0.351491	1.318103	0.665304
C55	C	-0.376635	1.146870	0.576324
C56	C	-0.283613	1.240048	0.619666
H57	H	-0.321793	1.083757	0.539403
H58	H	-0.437095	1.086279	0.617989
H59	H	-0.439898	1.201665	0.539451
H60	H	-0.220269	1.185355	0.656540
H61	H	-0.223241	1.300639	0.577960
O62	O	-0.786399	1.713843	-0.000187
C63	C	-0.802572	1.910308	-0.065024
C64	C	-0.745885	1.782672	-0.064977
H65	H	-0.769817	1.966004	-0.117393
H66	H	-0.909873	1.893534	-0.065062
H67	H	-0.769921	1.965917	-0.012613
H68	H	-0.778438	1.726997	-0.117379
H69	H	-0.638590	1.799536	-0.064900
H70	H	-0.178580	0.747290	0.136421
O71	O	-0.528035	1.706871	0.000030
C72	C	-0.363913	1.835612	0.064891
C73	C	-0.451407	1.711838	0.064874
H74	H	-0.301955	1.839681	0.117319
H75	H	-0.301809	1.839724	0.012530
H76	H	-0.423275	1.919113	0.064858
H77	H	-0.392144	1.628268	0.064934
H78	H	-0.513516	1.707837	0.117230
H79	H	-0.181723	0.866304	-0.123869
H80	H	-0.031379	1.638723	0.671506
H81	H	-0.031368	1.638650	0.185417
O82	O	-0.188335	1.114124	-0.134637
C83	C	-0.187919	1.100401	-0.270016
C84	C	-0.185969	1.028351	-0.194929
H85	H	-0.185981	1.031089	-0.318781
H86	H	-0.277297	1.150988	-0.273470
H87	H	-0.101825	1.172495	-0.273379
H88	H	-0.272002	0.956196	-0.191516
H89	H	-0.096535	0.977850	-0.191506
H90	H	-0.031366	1.638666	0.328374
O91	O	-0.869639	1.034728	0.000083
C92	C	-1.033709	0.905954	0.064976
C93	C	-0.946220	1.029731	0.064937
H94	H	-1.095629	0.901861	0.117413
H95	H	-1.095851	0.901861	0.012624
H96	H	-0.974344	0.822456	0.064942
H97	H	-1.005487	1.113299	0.064998
H98	H	-0.884073	1.033714	0.117285
H99	H	-0.031373	1.638724	0.814463
O100	O	0.040447	1.515548	0.422408
C101	C	0.267055	1.546302	0.430730
C102	C	0.141351	1.529329	0.474031
H103	H	0.348668	1.557475	0.472448
H104	H	0.276315	1.460098	0.393877
H105	H	0.269231	1.633997	0.393798
H106	H	0.139088	1.441681	0.511004
H107	H	0.132142	1.615599	0.510837
H108	H	0.022379	1.513179	0.571449
O109	O	-0.351717	1.318114	0.820565
C110	C	-0.519605	1.150224	0.812261
C111	C	-0.426523	1.243401	0.768950
H112	H	-0.580127	1.089813	0.770550
H113	H	-0.464861	1.086935	0.849149
H114	H	-0.582798	1.205017	0.849159
H115	H	-0.363306	1.188712	0.732011
H116	H	-0.481345	1.306690	0.732110
H117	H	-0.181722	0.866084	0.260242
H118	H	-0.475115	1.250198	-0.000043
H119	H	-0.392127	1.457042	0.571414
O120	O	-0.409992	1.454766	0.422178
C121	C	-0.546889	1.544494	0.333209
C122	C	-0.421260	1.561456	0.376601
H123	H	-0.556051	1.630750	0.296362
H124	H	-0.549152	1.456813	0.296281
H125	H	-0.628518	1.533391	0.374910
H126	H	-0.339560	1.572613	0.334954
H127	H	-0.419106	1.649115	0.413540
O128	O	-0.351521	1.317992	0.334562
C129	C	-0.423115	1.100265	0.358677
C130	C	-0.330094	1.193451	0.315328
H131	H	-0.405841	0.999554	0.343131
H132	H	-0.408589	1.114711	0.421773
H133	H	-0.523852	1.117556	0.343179
H134	H	-0.229320	1.176216	0.330763
H135	H	-0.344729	1.178983	0.252243
O136	O	-0.351813	1.318262	0.179284
C137	C	-0.569508	1.246511	0.155204
C138	C	-0.476374	1.339595	0.198534
H139	H	-0.670236	1.263708	0.170764
H140	H	-0.555087	1.261044	0.092105
H141	H	-0.552137	1.145794	0.170706
H142	H	-0.493689	1.440348	0.183095
H143	H	-0.490817	1.324952	0.261622
H144	H	-0.191159	1.222705	0.136469
H145	H	-0.619307	1.046026	-0.000030
H146	H	-0.950526	1.262816	-0.000028
