data_functionalizedCrystal
_audit_creation_method	'MofGen! by Chris Wilmer'
_symmetry_space_group_name_H-M	'P1'
_symmetry_Int_Tables_number	1
_symmetry_cell_setting	triclinic
loop_
_symmetry_equiv_pos_as_xyz
  x,y,z
_cell_length_a	6.817900
_cell_length_b	19.453172
_cell_length_c	19.453114
_cell_angle_alpha	96.317064
_cell_angle_beta	101.709288
_cell_angle_gamma	101.710488
loop_
_atom_site_label
_atom_site_type_symbol
_atom_site_fract_x
_atom_site_fract_y
_atom_site_fract_z
V1	V	-3.998005	-0.097914	-0.219330
O2	O	-3.995098	0.003953	-0.214817
O3	O	-3.941032	-0.193423	-0.218154
O4	O	-3.941025	-0.096738	-0.314839
O5	O	-3.995104	-0.093402	-0.117463
V6	V	-4.483855	-0.085691	-0.207106
O7	O	-4.254158	-0.124727	-0.246143
O8	O	-4.677900	-0.058877	-0.180293
O9	O	-4.317622	0.009819	-0.208281
O10	O	-4.604159	-0.187557	-0.211619
O11	O	-4.604153	-0.090203	-0.308973
O12	O	-4.317628	-0.086867	-0.111597
C13	C	-3.784225	-0.216696	-0.214778
C14	C	-3.818872	-0.294778	-0.214454
C15	C	-4.247899	-0.855852	-0.216325
C16	C	-4.215361	-0.782485	-0.216625
C17	C	-4.017282	-0.742102	-0.212598
C18	C	-3.851722	-0.775088	-0.208253
C19	C	-3.884261	-0.848452	-0.207947
N20	N	-3.850595	-0.630535	-0.250130
N21	N	-3.819697	-0.560842	-0.250423
C22	C	-3.919231	-0.521058	-0.213521
N23	N	-4.050866	-0.553601	-0.176325
N24	N	-4.081774	-0.623301	-0.176035
C25	C	-3.981978	-0.662549	-0.212930
C26	C	-4.049499	-0.408526	-0.218186
C27	C	-4.016951	-0.335157	-0.218482
C28	C	-3.653311	-0.327762	-0.210117
C29	C	-3.685861	-0.401129	-0.209815
C30	C	-3.883960	-0.441507	-0.213853
C31	C	-3.784216	-0.093364	-0.338108
C32	C	-3.818856	-0.093034	-0.416189
C33	C	-4.016595	-0.096405	-0.456457
C34	C	-4.049143	-0.096096	-0.529823
C35	C	-3.883948	-0.092429	-0.562920
C36	C	-3.686179	-0.089054	-0.522641
C37	C	-3.653632	-0.089356	-0.449276
N38	N	-3.820875	-0.129523	-0.681834
N39	N	-3.851806	-0.129238	-0.751529
C40	C	-3.981996	-0.091516	-0.783965
N41	N	-4.080122	-0.054100	-0.744076
N42	N	-4.049196	-0.054389	-0.674375
C43	C	-3.919218	-0.092100	-0.642472
C44	C	-4.215040	-0.094551	-0.903785
C45	C	-4.247579	-0.094237	-0.977151
C46	C	-3.884612	-0.087202	-0.969969
C47	C	-3.852075	-0.087509	-0.896603
C48	C	-4.017299	-0.091187	-0.863516
C49	C	-4.137771	0.033088	-0.211656
C50	C	-4.082361	0.111169	-0.211984
C51	C	-4.137780	-0.090243	-0.088324
C52	C	-4.082379	-0.090569	-0.010242
H53	H	-4.409203	-0.888724	-0.219611
H54	H	-4.210174	-0.098844	-0.562617
O55	O	-3.525820	-0.085401	-0.554853
C56	C	-3.501958	-0.023861	-0.587331
H57	H	-3.653798	-0.006485	-0.598194
H58	H	-3.377590	0.020578	-0.550472
C59	C	-3.252291	-0.061479	-0.644583
C60	C	-3.438789	-0.040142	-0.657930
H61	H	-3.213316	-0.071520	-0.688130
H62	H	-3.268361	-0.102939	-0.622700
H63	H	-3.148674	-0.024443	-0.613865
H64	H	-3.542408	-0.077181	-0.688640
H65	H	-3.422735	0.001312	-0.679820
O66	O	-4.241896	-0.447705	-0.221976
C67	C	-4.314551	-0.422321	-0.163493
H68	H	-4.178243	-0.393211	-0.118418
H69	H	-4.415821	-0.384236	-0.180092
C70	C	-4.608664	-0.521119	-0.193439
C71	C	-4.441246	-0.485370	-0.138075
H72	H	-4.686824	-0.560009	-0.177761
H73	H	-4.559721	-0.538219	-0.232842
H74	H	-4.693033	-0.489374	-0.207266
H75	H	-4.356868	-0.517113	-0.124255
H76	H	-4.490179	-0.468276	-0.098669
H77	H	-4.350164	-0.755628	-0.220155
O78	O	-4.177646	-0.303054	-0.222789
C79	C	-4.199734	-0.270548	-0.284333
H80	H	-4.047001	-0.259579	-0.301115
H81	H	-4.323009	-0.307437	-0.329074
C82	C	-4.451241	-0.213499	-0.247839
C83	C	-4.263647	-0.200022	-0.268448
H84	H	-4.490675	-0.169997	-0.238043
H85	H	-4.436367	-0.235401	-0.206377
H86	H	-4.553948	-0.244242	-0.285127
H87	H	-4.160938	-0.169287	-0.231157
H88	H	-4.278505	-0.178114	-0.309903
O89	O	-3.659357	-0.735773	-0.204252
C90	C	-3.599620	-0.683424	-0.143062
H91	H	-3.742596	-0.672411	-0.126368
H92	H	-3.501418	-0.703079	-0.098087
C93	C	-3.298276	-0.628095	-0.180031
C94	C	-3.473883	-0.614564	-0.159530
H95	H	-3.220707	-0.585619	-0.190187
H96	H	-3.338516	-0.663365	-0.221254
H97	H	-3.216465	-0.644476	-0.142548
H98	H	-3.555702	-0.598192	-0.197016
H99	H	-3.433653	-0.579289	-0.118313
O100	O	-3.461539	-0.085986	-0.410098
C101	C	-3.400030	-0.024828	-0.357683
H102	H	-3.490504	0.016031	-0.375020
H103	H	-3.431389	-0.039838	-0.305259
C104	C	-3.057144	-0.043121	-0.326532
C105	C	-3.168253	0.007065	-0.347828
H106	H	-2.914171	-0.023449	-0.320450
H107	H	-3.098584	-0.084326	-0.361843
H108	H	-3.083299	-0.055626	-0.282847
H109	H	-3.142117	0.019562	-0.391516
H110	H	-3.126803	0.048273	-0.312524
H111	H	-3.492031	-0.294882	-0.206836
H112	H	-3.749455	-0.875303	-0.204414
H113	H	-3.551061	-0.427980	-0.206283
O114	O	-4.439820	-0.097542	-1.016170
C115	C	-4.578646	-0.100834	-0.971227
H116	H	-4.513872	-0.122375	-0.921438
H117	H	-4.601525	-0.045307	-0.955508
C118	C	-4.866440	-0.123881	-1.071778
C119	C	-4.786892	-0.150344	-1.010628
H120	H	-4.994900	-0.154418	-1.096082
H121	H	-4.772911	-0.121660	-1.102057
H122	H	-4.885489	-0.077608	-1.058669
H123	H	-4.767820	-0.196612	-1.023738
H124	H	-4.880423	-0.152573	-0.980352
H125	H	-4.151135	-0.099397	-0.429523
H126	H	-4.349574	-0.097543	-0.876844
H127	H	-3.750103	-0.084211	-0.996914
H128	H	-3.691060	-0.084772	-0.863817
