data_functionalizedCrystal
_audit_creation_method	'MofGen! by Chris Wilmer'
_symmetry_space_group_name_H-M	'P1'
_symmetry_Int_Tables_number	1
_symmetry_cell_setting	triclinic
loop_
_symmetry_equiv_pos_as_xyz
  x,y,z
_cell_length_a	10.723023
_cell_length_b	17.019294
_cell_length_c	9.198806
_cell_angle_alpha	86.117847
_cell_angle_beta	89.996513
_cell_angle_gamma	83.929680
loop_
_atom_site_label
_atom_site_type_symbol
_atom_site_fract_x
_atom_site_fract_y
_atom_site_fract_z
O1	O	1.655493	0.110633	-0.134725
O2	O	2.155493	0.610633	0.365275
O3	O	1.292178	0.121224	-0.136056
O4	O	1.792178	0.621224	0.363944
O5	O	1.483971	0.001151	-0.121015
O6	O	1.983971	0.501151	0.378985
O7	O	1.463701	0.230706	-0.149766
O8	O	1.963701	0.730706	0.350234
O9	O	1.483956	0.001151	0.120770
O10	O	1.983956	0.501151	0.620770
O11	O	1.292163	0.121224	0.105729
O12	O	1.792163	0.621224	0.605729
O13	O	1.655478	0.110633	0.107060
O14	O	2.155478	0.610633	0.607060
Cu15	Cu	1.473819	0.115928	0.128471
Cu16	Cu	1.973819	0.615928	0.628471
Cu17	Cu	1.473837	0.115929	-0.157467
Cu18	Cu	1.973837	0.615929	0.342533
O19	O	1.463685	0.230706	0.092019
O20	O	1.963685	0.730706	0.592019
C21	C	1.245683	0.120453	-0.015068
C22	C	1.745683	0.620453	0.484932
C23	C	1.107164	0.118148	-0.014782
C24	C	1.607164	0.618148	0.485218
C25	C	1.045400	0.117120	0.110598
C26	C	1.545400	0.617120	0.610598
C27	C	0.902233	0.114737	0.110897
C28	C	1.402233	0.614737	0.610897
C29	C	1.483195	-0.028243	0.003556
C30	C	1.983195	0.471757	0.503556
C31	C	1.480889	-0.115825	0.014516
C32	C	1.980889	0.384175	0.514516
C33	C	1.479817	-0.156967	-0.112131
C34	C	1.979817	0.343033	0.387869
C35	C	1.477642	-0.239260	-0.101829
C36	C	1.977642	0.260740	0.398171
C37	C	1.476549	-0.280410	0.035123
C38	C	1.976549	0.219590	0.535123
C39	C	1.477617	-0.239262	0.161779
C40	C	1.977617	0.260738	0.661779
C41	C	1.479783	-0.156970	0.151475
C42	C	1.979783	0.343030	0.651475
C43	C	1.470002	-0.528878	0.072828
C44	C	1.970002	-0.028878	0.572828
C45	C	1.467840	-0.611176	0.083122
C46	C	1.967840	-0.111176	0.583122
C47	C	1.467862	-0.611168	-0.180487
C48	C	1.967862	-0.111168	0.319513
C49	C	1.470036	-0.528875	-0.190778
C50	C	1.970036	-0.028875	0.309222
C51	C	1.471097	-0.487734	-0.064122
C52	C	1.971097	0.012266	0.435878
C53	C	1.474330	-0.364527	0.045657
C54	C	1.974330	0.135473	0.545657
C55	C	1.473307	-0.403618	-0.074658
C56	C	1.973307	0.096382	0.425342
C57	C	1.701974	0.111404	-0.013931
C58	C	2.201974	0.611404	0.486069
C59	C	1.840492	0.113709	-0.014227
C60	C	2.340492	0.613709	0.485773
C61	C	1.464462	0.260100	-0.032555
C62	C	1.964462	0.760100	0.467445
C63	C	1.466768	0.347682	-0.043525
C64	C	1.966768	0.847682	0.456475
N65	N	1.473816	0.115928	0.329585
N66	N	1.973816	0.615928	0.829585
N67	N	1.473851	0.115923	-0.358581
N68	N	1.973851	0.615923	0.141419
C69	C	1.554347	0.065290	0.408126
C70	C	2.054347	0.565290	0.908126
C71	C	1.554367	0.065287	0.575538
C72	C	2.054367	0.565287	1.075538
H73	H	1.054053	0.117262	-0.121902
H74	H	1.554053	0.617262	0.378098
Br75	Br	1.481314	-0.101130	-0.298003
Br76	Br	1.981314	0.398870	0.201997
Br77	Br	1.669299	-0.006968	0.688063
Br78	Br	2.169299	0.493032	1.188063
Br79	Br	1.476185	-0.295092	-0.273715
Br80	Br	1.976185	0.204908	0.226285
Br81	Br	1.358935	0.188194	0.528902
Br82	Br	1.858935	0.688194	1.028902
Br83	Br	1.476113	-0.295106	0.347644
Br84	Br	1.976113	0.204894	0.847644
Br85	Br	0.813711	0.113273	0.289818
Br86	Br	1.313711	0.613273	0.789818
H87	H	1.404879	0.159276	0.386283
H88	H	1.904879	0.659276	0.886283
H89	H	1.480638	-0.123472	0.254605
H90	H	1.980638	0.376528	0.754605
H91	H	1.466996	-0.644674	-0.283603
H92	H	1.966996	-0.144674	0.216397
Br93	Br	1.668930	-0.007168	0.313665
Br94	Br	2.168930	0.492832	0.813665
H95	H	1.473444	-0.398040	0.157163
H96	H	1.973444	0.101960	0.657163
Br97	Br	1.133911	0.118588	0.289151
Br98	Br	1.633911	0.618588	0.789151
Br99	Br	1.466369	-0.667023	0.268997
Br100	Br	1.966369	-0.167023	0.768997
Br101	Br	0.929003	0.115192	-0.193157
Br102	Br	1.429003	0.615192	0.306843
H103	H	1.470928	-0.495376	-0.302298
H104	H	1.970928	0.004624	0.197702
H105	H	1.470891	-0.495392	0.175961
H106	H	1.970891	0.004608	0.675961
H107	H	1.474189	-0.370109	-0.186163
H108	H	1.974189	0.129891	0.313837
