data_functionalizedCrystal
_audit_creation_method	'MofGen! by Chris Wilmer'
_symmetry_space_group_name_H-M	'P1'
_symmetry_Int_Tables_number	1
_symmetry_cell_setting	triclinic
loop_
_symmetry_equiv_pos_as_xyz
  x,y,z
_cell_length_a	16.625547
_cell_length_b	25.639239
_cell_length_c	16.625539
_cell_angle_alpha	90.031810
_cell_angle_beta	90.024822
_cell_angle_gamma	90.039221
loop_
_atom_site_label
_atom_site_type_symbol
_atom_site_fract_x
_atom_site_fract_y
_atom_site_fract_z
Zn1	Zn	1.232586	-0.208151	0.455981
Zn2	Zn	1.482586	0.041849	0.705981
Zn3	Zn	1.732586	0.291849	0.955981
Zn4	Zn	1.982586	0.541849	1.205981
Zn5	Zn	1.232450	-0.295589	0.321140
Zn6	Zn	1.482450	-0.045589	0.571140
Zn7	Zn	1.732450	0.204411	0.821140
Zn8	Zn	1.982450	0.454411	1.071140
Zn9	Zn	1.097748	-0.208169	0.321152
Zn10	Zn	1.347748	0.041831	0.571152
Zn11	Zn	1.597748	0.291831	0.821152
Zn12	Zn	1.847748	0.541831	1.071152
Zn13	Zn	1.097679	-0.295557	0.455920
Zn14	Zn	1.347679	-0.045557	0.705920
Zn15	Zn	1.597679	0.204443	0.955920
Zn16	Zn	1.847679	0.454443	1.205920
O17	O	1.165116	-0.251866	0.388548
O18	O	1.415116	-0.001866	0.638548
O19	O	1.665116	0.248134	0.888548
O20	O	1.915116	0.498134	1.138548
O21	O	1.345401	-0.219755	0.438115
O22	O	1.595401	0.030245	0.688115
O23	O	1.845401	0.280245	0.938115
O24	O	2.095401	0.530245	1.188115
O25	O	1.214553	-0.284013	0.208309
O26	O	1.464553	-0.034013	0.458309
O27	O	1.714553	0.215987	0.708309
O28	O	1.964553	0.465987	0.958309
O29	O	1.115721	-0.135001	0.339068
O30	O	1.365721	0.114999	0.589068
O31	O	1.615721	0.364999	0.839068
O32	O	1.865721	0.614999	1.089068
O33	O	1.345300	-0.283995	0.339048
O34	O	1.595300	-0.033995	0.589048
O35	O	1.845300	0.216005	0.839048
O36	O	2.095300	0.466005	1.089048
O37	O	1.214786	-0.134988	0.438126
O38	O	1.464786	0.115012	0.688126
O39	O	1.714786	0.365012	0.938126
O40	O	1.964786	0.615012	1.188126
O41	O	1.115588	-0.219786	0.208318
O42	O	1.365588	0.030214	0.458318
O43	O	1.615588	0.280214	0.708318
O44	O	1.865588	0.530214	0.958318
O45	O	0.984907	-0.219755	0.339008
O46	O	1.234907	0.030245	0.589008
O47	O	1.484907	0.280245	0.839008
O48	O	1.734907	0.530245	1.089008
O49	O	1.115603	-0.283941	0.568761
O50	O	1.365603	-0.033941	0.818761
O51	O	1.615603	0.216059	1.068761
O52	O	1.865603	0.466059	1.318761
O53	O	0.984856	-0.283959	0.438022
O54	O	1.234856	-0.033959	0.688022
O55	O	1.484856	0.216041	0.938022
O56	O	1.734856	0.466041	1.188022
O57	O	1.214719	-0.219724	0.568806
O58	O	1.464719	0.030276	0.818806
O59	O	1.714719	0.280276	1.068806
O60	O	1.964719	0.530276	1.318806
O61	O	1.214486	-0.368750	0.338989
O62	O	1.464486	-0.118750	0.588989
O63	O	1.714486	0.131250	0.838989
O64	O	1.964486	0.381250	1.088989
O65	O	1.115471	-0.368726	0.438011
O66	O	1.365471	-0.118726	0.688011
O67	O	1.615471	0.131274	0.938011
O68	O	1.865471	0.381274	1.188011
C69	C	0.955625	-0.251856	0.388510
C70	C	1.205625	-0.001856	0.638510
C71	C	1.455625	0.248144	0.888510
C72	C	1.705625	0.498144	1.138510
C73	C	0.866004	-0.251864	0.388513
C74	C	1.116004	-0.001864	0.638513
C75	C	1.366004	0.248136	0.888513
C76	C	1.616004	0.498136	1.138513
C77	C	1.164978	-0.387709	0.388509
C78	C	1.414978	-0.137709	0.638509
C79	C	1.664978	0.112291	0.888509
C80	C	1.914978	0.362291	1.138509
C81	C	1.164993	-0.445823	0.388520
C82	C	1.414993	-0.195823	0.638520
C83	C	1.664993	0.054177	0.888520
C84	C	1.914993	0.304177	1.138520
C85	C	0.793221	-0.251865	0.388523
C86	C	1.043221	-0.001865	0.638523
C87	C	1.293221	0.248135	0.888523
C88	C	1.543221	0.498135	1.138523
C89	C	0.701913	-0.251868	0.388543
C90	C	0.951913	-0.001868	0.638543
C91	C	1.201913	0.248132	0.888543
C92	C	1.451913	0.498132	1.138543
C93	C	0.629137	-0.251873	0.388564
C94	C	0.879137	-0.001873	0.638564
C95	C	1.129137	0.248127	0.888564
C96	C	1.379137	0.498127	1.138564
C97	C	0.537822	-0.251877	0.388583
C98	C	0.787822	-0.001877	0.638583
C99	C	1.037822	0.248123	0.888583
C100	C	1.287822	0.498123	1.138583
C101	C	1.113549	-0.697017	0.440093
C102	C	1.363549	-0.447017	0.690093
C103	C	1.613549	-0.197017	0.940093
C104	C	1.863549	0.052983	1.190093
C105	C	1.113519	-0.642412	0.440083
C106	C	1.363519	-0.392412	0.690083
C107	C	1.613519	-0.142412	0.940083
C108	C	1.863519	0.107588	1.190083
O109	O	1.069647	-0.614176	0.483906
O110	O	1.319647	-0.364176	0.733906
O111	O	1.569647	-0.114176	0.983906
O112	O	1.819647	0.135824	1.233906
N113	N	1.165094	-0.615097	0.388562
N114	N	1.415094	-0.365097	0.638562
N115	N	1.665094	-0.115097	0.888562
N116	N	1.915094	0.134903	1.138562
C117	C	1.216709	-0.642388	0.337052
C118	C	1.466709	-0.392388	0.587052
C119	C	1.716709	-0.142388	0.837052
C120	C	1.966709	0.107612	1.087052
O121	O	1.260576	-0.614140	0.293229
O122	O	1.510576	-0.364140	0.543229
O123	O	1.760576	-0.114140	0.793229
O124	O	2.010576	0.135860	1.043229
C125	C	1.216742	-0.696992	0.337066
C126	C	1.466742	-0.446992	0.587066
C127	C	1.716742	-0.196992	0.837066
C128	C	1.966742	0.053008	1.087066
C129	C	1.165157	-0.724304	0.388585
C130	C	1.415157	-0.474304	0.638585
C131	C	1.665157	-0.224304	0.888585
C132	C	1.915157	0.025696	1.138585
C133	C	1.061969	-0.724329	0.491608
C134	C	1.311969	-0.474329	0.741608
C135	C	1.561969	-0.224329	0.991608
C136	C	1.811969	0.025671	1.241608
C137	C	1.061998	-0.778930	0.491616
C138	C	1.311998	-0.528930	0.741616
C139	C	1.561998	-0.278930	0.991616
C140	C	1.811998	-0.028930	1.241616
C141	C	1.113607	-0.806218	0.440109
C142	C	1.363607	-0.556218	0.690109
C143	C	1.613607	-0.306218	0.940109
C144	C	1.863607	-0.056218	1.190109
C145	C	1.165186	-0.778905	0.388593
C146	C	1.415186	-0.528905	0.638593
C147	C	1.665186	-0.278905	0.888593
C148	C	1.915186	-0.028905	1.138593
C149	C	1.268360	-0.724282	0.285561
C150	C	1.518360	-0.474282	0.535561
C151	C	1.768360	-0.224282	0.785561
C152	C	2.018360	0.025718	1.035561
C153	C	1.268390	-0.778889	0.285580
C154	C	1.518390	-0.528889	0.535580
C155	C	1.768390	-0.278889	0.785580
C156	C	2.018390	-0.028889	1.035580
C157	C	1.216805	-0.806202	0.337099
C158	C	1.466805	-0.556202	0.587099
C159	C	1.716805	-0.306202	0.837099
C160	C	1.966805	-0.056202	1.087099
C161	C	1.216824	-0.860793	0.337094
C162	C	1.466824	-0.610793	0.587094
C163	C	1.716824	-0.360793	0.837094
C164	C	1.966824	-0.110793	1.087094
N165	N	1.165249	-0.888109	0.388615
N166	N	1.415249	-0.638109	0.638615
N167	N	1.665249	-0.388109	0.888615
N168	N	1.915249	-0.138109	1.138615
C169	C	1.113640	-0.860821	0.440123
C170	C	1.363640	-0.610821	0.690123
C171	C	1.613640	-0.360821	0.940123
C172	C	1.863640	-0.110821	1.190123
C173	C	1.216636	-0.527718	0.337027
C174	C	1.466636	-0.277718	0.587027
C175	C	1.716636	-0.027718	0.837027
C176	C	1.966636	0.222282	1.087027
C177	C	1.216599	-0.473115	0.337009
C178	C	1.466599	-0.223115	0.587009
C179	C	1.716599	0.026885	0.837009
C180	C	1.966599	0.276885	1.087009
C181	C	1.113410	-0.473143	0.440041
C182	C	1.363410	-0.223143	0.690041
C183	C	1.613410	0.026857	0.940041
C184	C	1.863410	0.276857	1.190041
C185	C	1.113443	-0.527746	0.440055
C186	C	1.363443	-0.277746	0.690055
C187	C	1.613443	-0.027746	0.940055
C188	C	1.863443	0.222254	1.190055
C189	C	1.165060	-0.555033	0.388549
C190	C	1.415060	-0.305033	0.638549
C191	C	1.665060	-0.055033	0.888549
C192	C	1.915060	0.194967	1.138549
C193	C	1.113704	-0.975486	0.440136
C194	C	1.363704	-0.725486	0.690136
C195	C	1.613704	-0.475486	0.940136
C196	C	1.863704	-0.225486	1.190136
C197	C	1.113736	-1.030091	0.440137
C198	C	1.363736	-0.780091	0.690137
C199	C	1.613736	-0.530091	0.940137
C200	C	1.863736	-0.280091	1.190137
C201	C	1.216927	-1.030059	0.337107
C202	C	1.466927	-0.780059	0.587107
C203	C	1.716927	-0.530059	0.837107
C204	C	1.966927	-0.280059	1.087107
C205	C	1.216894	-0.975458	0.337103
C206	C	1.466894	-0.725458	0.587103
C207	C	1.716894	-0.475458	0.837103
C208	C	1.966894	-0.225458	1.087103
C209	C	1.165279	-0.948173	0.388624
C210	C	1.415279	-0.698173	0.638624
C211	C	1.665279	-0.448173	0.888624
C212	C	1.915279	-0.198173	1.138624
O213	O	1.260676	-0.889064	0.293296
O214	O	1.510676	-0.639064	0.543296
O215	O	1.760676	-0.389064	0.793296
O216	O	2.010676	-0.139064	1.043296
O217	O	1.069788	-0.889076	0.483946
O218	O	1.319788	-0.639076	0.733946
O219	O	1.569788	-0.389076	0.983946
O220	O	1.819788	-0.139076	1.233946
C221	C	1.375425	-0.251877	0.388587
C222	C	1.625425	-0.001877	0.638587
C223	C	1.875425	0.248123	0.888587
C224	C	2.125425	0.498123	1.138587
C225	C	1.465046	-0.251881	0.388603
C226	C	1.715046	-0.001881	0.638603
C227	C	1.965046	0.248119	0.888603
C228	C	2.215046	0.498119	1.138603
C229	C	1.165168	-0.251827	0.598857
C230	C	1.415168	-0.001827	0.848857
C231	C	1.665168	0.248173	1.098857
C232	C	1.915168	0.498173	1.348857
C233	C	1.165191	-0.251811	0.688478
C234	C	1.415191	-0.001811	0.938478
C235	C	1.665191	0.248189	1.188478
C236	C	1.915191	0.498189	1.438478
C237	C	1.165276	-0.115493	0.388605
C238	C	1.415276	0.134507	0.638605
C239	C	1.665276	0.384507	0.888605
C240	C	1.915276	0.634507	1.138605
C241	C	1.165344	-0.057379	0.388629
C242	C	1.415344	0.192621	0.638629
C243	C	1.665344	0.442621	0.888629
C244	C	1.915344	0.692621	1.138629
C245	C	1.165110	-0.251867	0.179057
C246	C	1.415110	-0.001867	0.429057
C247	C	1.665110	0.248133	0.679057
C248	C	1.915110	0.498133	0.929057
C249	C	1.165244	-0.251737	0.089437
C250	C	1.415244	-0.001737	0.339437
C251	C	1.665244	0.248263	0.589437
C252	C	1.915244	0.498263	0.839437
C253	C	1.165228	-0.251752	1.016654
C254	C	1.415228	-0.001752	1.266654
C255	C	1.665228	0.248248	1.516654
C256	C	1.915228	0.498248	1.766654
C257	C	1.165215	-0.251770	0.925346
C258	C	1.415215	-0.001770	1.175346
C259	C	1.665215	0.248230	1.425346
C260	C	1.915215	0.498230	1.675346
C261	C	1.165210	-0.251782	0.852569
C262	C	1.415210	-0.001782	1.102569
C263	C	1.665210	0.248218	1.352569
C264	C	1.915210	0.498218	1.602569
C265	C	1.165196	-0.251799	0.761255
C266	C	1.415196	-0.001799	1.011255
C267	C	1.665196	0.248201	1.261255
C268	C	1.915196	0.498201	1.511255
H269	H	1.071727	-1.052327	0.482092
H270	H	1.321727	-0.802327	0.732092
H271	H	1.571727	-0.552327	0.982092
H272	H	1.821727	-0.302327	1.232092
H273	H	1.258890	-0.953220	0.295143
H274	H	1.508890	-0.703220	0.545143
H275	H	1.758890	-0.453220	0.795143
H276	H	2.008890	-0.203220	1.045143
H277	H	1.310365	-0.702052	0.243610
H278	H	1.560365	-0.452052	0.493610
H279	H	1.810365	-0.202052	0.743610
H280	H	2.060365	0.047948	0.993610
H281	H	1.019991	-0.801163	0.533567
H282	H	1.269991	-0.551163	0.783567
H283	H	1.519991	-0.301163	1.033567
H284	H	1.769991	-0.051163	1.283567
H285	H	1.310426	-0.801103	0.243639
H286	H	1.560426	-0.551103	0.493639
H287	H	1.810426	-0.301103	0.743639
H288	H	2.060426	-0.051103	0.993639
C289	C	1.273699	-1.060082	0.280460
C290	C	1.523699	-0.810082	0.530460
C291	C	1.773699	-0.560082	0.780460
C292	C	2.023699	-0.310082	1.030460
H293	H	1.266332	-1.096513	0.287856
H294	H	1.516332	-0.846513	0.537856
H295	H	1.766332	-0.596513	0.787856
H296	H	2.016332	-0.346513	1.037856
H297	H	1.261937	-1.051171	0.226267
H298	H	1.511937	-0.801171	0.476267
H299	H	1.761937	-0.551171	0.726267
H300	H	2.011937	-0.301171	0.976267
H301	H	1.327864	-1.051092	0.292327
H302	H	1.577864	-0.801092	0.542327
H303	H	1.827864	-0.551092	0.792327
H304	H	2.077864	-0.301092	1.042327
H305	H	1.019943	-0.702117	0.533556
H306	H	1.269943	-0.452117	0.783556
H307	H	1.519943	-0.202117	1.033556
H308	H	1.769943	0.047883	1.283556
H309	H	1.071676	-0.953277	0.482089
H310	H	1.321676	-0.703277	0.732089
H311	H	1.571676	-0.453277	0.982089
H312	H	1.821676	-0.203277	1.232089
C313	C	1.056648	-0.443120	0.496707
C314	C	1.306648	-0.193120	0.746707
C315	C	1.556648	0.056880	0.996707
C316	C	1.806648	0.306880	1.246707
H317	H	1.064027	-0.406689	0.489323
H318	H	1.314027	-0.156689	0.739323
H319	H	1.564027	0.093311	0.989323
H320	H	1.814027	0.343311	1.239323
H321	H	1.002481	-0.452106	0.484864
H322	H	1.252481	-0.202106	0.734864
H323	H	1.502481	0.047894	0.984864
H324	H	1.752481	0.297894	1.234864
H325	H	1.068434	-0.452035	0.550898
H326	H	1.318434	-0.202035	0.800898
H327	H	1.568434	0.047965	1.050898
H328	H	1.818434	0.297965	1.300898
H329	H	1.258595	-0.450881	0.295048
H330	H	1.508595	-0.200881	0.545048
H331	H	1.758595	0.049119	0.795048
H332	H	2.008595	0.299119	1.045048
C333	C	1.056708	-0.557786	0.496733
C334	C	1.306708	-0.307786	0.746733
C335	C	1.556708	-0.057786	0.996733
C336	C	1.806708	0.192214	1.246733
H337	H	1.025973	-0.533709	0.527408
H338	H	1.275973	-0.283709	0.777408
H339	H	1.525973	-0.033709	1.027408
H340	H	1.775973	0.216291	1.277408
H341	H	1.021605	-0.579128	0.465867
H342	H	1.271605	-0.329128	0.715867
H343	H	1.521605	-0.079128	0.965867
H344	H	1.771605	0.170872	1.215867
H345	H	1.087551	-0.579045	0.531907
H346	H	1.337551	-0.329045	0.781907
H347	H	1.587551	-0.079045	1.031907
H348	H	1.837551	0.170955	1.281907
H349	H	1.258667	-0.549931	0.295078
H350	H	1.508667	-0.299931	0.545078
H351	H	1.758667	-0.049931	0.795078
H352	H	2.008667	0.200069	1.045078
