data_functionalizedCrystal
_audit_creation_method	'MofGen! by Chris Wilmer'
_symmetry_space_group_name_H-M	'P1'
_symmetry_Int_Tables_number	1
_symmetry_cell_setting	triclinic
loop_
_symmetry_equiv_pos_as_xyz
  x,y,z
_cell_length_a	10.489763
_cell_length_b	11.792241
_cell_length_c	10.868271
_cell_angle_alpha	90.000150
_cell_angle_beta	89.997594
_cell_angle_gamma	95.629112
loop_
_atom_site_label
_atom_site_type_symbol
_atom_site_fract_x
_atom_site_fract_y
_atom_site_fract_z
O1	O	-1.693491	0.160259	0.102254
O2	O	-1.193491	0.660259	0.602254
O3	O	-1.322247	0.175263	0.102267
O4	O	-0.822247	0.675263	0.602267
O5	O	-1.516878	0.002616	0.102267
O6	O	-1.016878	0.502616	0.602267
O7	O	-1.498860	0.332907	0.102253
O8	O	-0.998860	0.832907	0.602253
O9	O	-1.516862	0.002609	-0.102377
O10	O	-1.016862	0.502609	0.397623
O11	O	-1.322231	0.175257	-0.102378
O12	O	-0.822231	0.675257	0.397622
O13	O	-1.693475	0.160252	-0.102391
O14	O	-1.193475	0.660252	0.397609
Zn15	Zn	-1.507850	0.167753	-0.134876
Zn16	Zn	-1.007850	0.667753	0.365124
Zn17	Zn	-1.507872	0.167762	0.134752
Zn18	Zn	-1.007872	0.667762	0.634752
O19	O	-1.498844	0.332900	-0.102392
O20	O	-0.998844	0.832900	0.397608
C21	C	-1.274712	0.174121	-0.000054
C22	C	-0.774712	0.674121	0.499946
C23	C	-1.133096	0.170715	-0.000048
C24	C	-0.633096	0.670715	0.499952
C25	C	-1.065331	0.060850	-0.000056
C26	C	-0.565331	0.560850	0.499944
C27	C	-0.973036	0.112743	0.100838
C28	C	-0.473036	0.612743	0.600838
C29	C	-0.973054	0.112763	-0.100925
C30	C	-0.473054	0.612763	0.399075
C31	C	-1.042666	0.222653	0.100930
C32	C	-0.542666	0.722653	0.600930
C33	C	-1.042694	0.222658	-0.100925
C34	C	-0.542694	0.722658	0.399075
C35	C	-0.950426	0.274631	-0.000006
C36	C	-0.450426	0.774631	0.499994
C37	C	-0.741012	0.161376	-0.000071
C38	C	-0.241012	0.661376	0.499929
C39	C	-0.882636	0.164729	-0.000079
C40	C	-0.382636	0.664729	0.499921
C41	C	-1.515738	-0.039682	-0.000051
C42	C	-1.015738	0.460318	0.499949
C43	C	-1.512351	-0.165705	-0.000037
C44	C	-1.012351	0.334295	0.499963
C45	C	-1.499984	0.375197	-0.000071
C46	C	-0.999984	0.875197	0.499929
C47	C	-1.503371	0.501220	-0.000077
C48	C	-1.003371	1.001220	0.499923
N49	N	-1.507845	0.167746	-0.318890
N50	N	-1.007845	0.667746	0.181110
C51	C	-1.509601	0.731950	-0.000046
C52	C	-1.009601	1.231950	0.499954
C53	C	-1.506140	0.603555	-0.000063
C54	C	-1.006140	1.103555	0.499937
C55	C	-1.507865	0.167760	-0.569896
C56	C	-1.007865	0.667760	-0.069896
C57	C	-1.507850	0.167756	-0.430219
C58	C	-1.007850	0.667756	0.069781
N59	N	-1.507887	0.167760	0.318766
N60	N	-1.007887	0.667760	0.818766
H61	H	-0.942228	0.066254	-0.186225
H62	H	-0.442228	0.566254	0.313775
C63	C	-1.132826	-0.061169	0.000086
C64	C	-0.632826	0.438831	0.500086
N65	N	-1.183666	-0.153072	0.000199
N66	N	-0.683666	0.346928	0.500199
H67	H	-0.942187	0.066260	0.186143
H68	H	-0.442187	0.566260	0.686143
H69	H	-1.073342	0.269106	0.186326
H70	H	-0.573342	0.769106	0.686326
H71	H	-1.073574	0.269103	-0.186234
H72	H	-0.573574	0.769103	0.313766
H73	H	-0.900695	0.365034	0.000045
H74	H	-0.400695	0.865034	0.500045
