data_functionalizedCrystal
_audit_creation_method	'MofGen! by Chris Wilmer'
_symmetry_space_group_name_H-M	'P1'
_symmetry_Int_Tables_number	1
_symmetry_cell_setting	triclinic
loop_
_symmetry_equiv_pos_as_xyz
  x,y,z
_cell_length_a	13.635800
_cell_length_b	10.943574
_cell_length_c	10.992410
_cell_angle_alpha	88.197298
_cell_angle_beta	108.764651
_cell_angle_gamma	71.162154
loop_
_atom_site_label
_atom_site_type_symbol
_atom_site_fract_x
_atom_site_fract_y
_atom_site_fract_z
V1	V	2.057314	-0.178630	0.400566
O2	O	2.036179	0.008584	0.392969
O3	O	2.046291	-0.354194	0.397799
O4	O	2.046107	-0.175883	0.575279
O5	O	2.036363	-0.170962	0.214261
V6	V	2.295737	-0.156237	0.378285
O7	O	2.195267	-0.227751	0.449439
O8	O	2.382884	-0.107116	0.329412
O9	O	2.195158	0.019326	0.381052
O10	O	2.375571	-0.343451	0.385882
O11	O	2.375387	-0.163906	0.564591
O12	O	2.195341	-0.158985	0.203573
V13	V	2.557314	-0.178630	0.400566
O14	O	2.536179	0.008584	0.392969
O15	O	2.546291	-0.354194	0.397799
O16	O	2.546107	-0.175883	0.575279
O17	O	2.536363	-0.170962	0.214261
V18	V	2.795737	-0.156237	0.378285
O19	O	2.695267	-0.227751	0.449439
O20	O	2.882884	-0.107116	0.329412
O21	O	2.695158	0.019326	0.381052
O22	O	2.875571	-0.343451	0.385882
O23	O	2.875387	-0.163906	0.564591
O24	O	2.695341	-0.158985	0.203573
C25	C	1.971576	-0.396992	0.391473
C26	C	2.003293	-0.540518	0.390375
C27	C	1.944717	-0.703521	0.382407
C28	C	2.001287	-0.637722	0.492825
C29	C	1.946290	-0.604416	0.280021
C30	C	2.116457	-0.730463	0.498972
C31	C	2.061424	-0.697149	0.286071
C32	C	2.118079	-0.631398	0.396520
C33	C	1.971342	-0.169537	0.617864
C34	C	2.002908	-0.168452	0.760693
C35	C	2.101543	0.062118	0.387375
C36	C	2.059446	0.205642	0.388480
C37	C	2.101778	-0.165335	0.160980
C38	C	2.059830	-0.166413	0.018150
C39	C	2.471576	-0.396992	0.391473
C40	C	2.503293	-0.540518	0.390375
C41	C	2.471342	-0.169537	0.617864
C42	C	2.502908	-0.168452	0.760693
C43	C	1.936459	-0.158567	0.955818
C44	C	1.903685	-0.160231	0.807334
C45	C	2.102051	-0.295752	0.837777
C46	C	2.134207	-0.294626	0.986344
C47	C	2.072827	-0.048128	0.948350
C48	C	2.037472	-0.047524	0.799337
C49	C	2.601543	0.062118	0.387375
C50	C	2.559446	0.205642	0.388480
C51	C	2.601778	-0.165335	0.160980
C52	C	2.559830	-0.166413	0.018150
C53	C	2.437334	-0.736760	0.381579
C54	C	2.404134	-0.587389	0.382211
C55	C	2.538639	-0.579342	0.270557
C56	C	2.570916	-0.728612	0.269281
C57	C	2.636710	-0.767382	0.514895
C58	C	2.602024	-0.618142	0.517502
C59	C	2.436459	-0.158567	0.955818
C60	C	2.403685	-0.160231	0.807334
C61	C	2.602051	-0.295752	0.837777
C62	C	2.634207	-0.294626	0.986344
C63	C	2.572827	-0.048128	0.948350
C64	C	2.537472	-0.047524	0.799337
H65	H	1.975571	-0.611192	0.580256
O66	O	2.497556	-0.751937	0.143274
H67	H	2.449996	-0.809926	0.164545
H68	H	2.329360	-0.068697	0.754007
H69	H	1.874024	-0.549698	0.187516
O70	O	2.358704	-0.036491	0.980791
H71	H	2.300106	0.024130	0.886649
H72	H	2.424080	-0.243556	1.003797
H73	H	2.726678	-0.808701	0.521172
O74	O	1.920057	-0.271144	1.019366
H75	H	1.832706	-0.264670	0.974657
H76	H	1.829360	-0.068697	0.754007
O77	O	2.214883	-0.589463	0.404467
H78	H	2.190250	-0.482364	0.404369
O79	O	2.420287	-0.798557	0.494266
H80	H	2.392286	-0.722521	0.552411
H81	H	2.087113	-0.723712	0.198637
O82	O	2.445454	-0.507166	0.145880
H83	H	2.373900	-0.443611	0.168942
H84	H	2.375187	-0.246400	0.782506
H85	H	2.465745	0.046647	0.746994
O86	O	2.201674	-0.309824	0.799645
H87	H	2.224515	-0.402286	0.759234
O88	O	2.366254	-0.553078	0.495608
H89	H	2.293901	-0.582702	0.486156
H90	H	2.225220	-0.305696	1.028974
O91	O	2.624000	-0.413238	1.047628
H92	H	2.596186	-0.470858	0.971081
O93	O	2.754759	-0.309282	1.042834
H94	H	2.806149	-0.403035	1.023705
H95	H	2.659065	-0.769695	0.269089
H96	H	1.877759	-0.066404	0.974661
H97	H	2.677251	-0.306365	0.808972
H98	H	1.875187	-0.246400	0.782506
H99	H	2.379460	-0.757421	0.290374
H100	H	2.126521	-0.384190	1.032601
O101	O	2.071879	-0.414691	0.803867
H102	H	1.986366	-0.383451	0.732177
H103	H	2.021267	0.048541	0.968723
H104	H	1.965745	0.046647	0.746994
H105	H	2.188649	-0.785018	0.591598
O106	O	2.131568	-0.045503	0.756238
H107	H	2.155282	-0.131049	0.706392
H108	H	2.162324	-0.052754	0.989190
O109	O	2.632600	-0.833306	0.634987
H110	H	2.546284	-0.798288	0.633935
O111	O	2.635044	-0.539092	0.272374
H112	H	2.610777	-0.470019	0.182824
O113	O	2.571879	-0.414691	0.803867
H114	H	2.486366	-0.383451	0.732177
O115	O	2.305580	-0.517565	0.261316
H116	H	2.281483	-0.590479	0.202164
H117	H	1.871788	-0.735431	0.376563
O118	O	2.504527	0.079929	0.975318
H119	H	2.460550	0.060692	1.038781
O120	O	2.569227	-0.587195	0.634866
H121	H	2.483014	-0.516707	0.602814
O122	O	2.701195	-0.577954	0.535238
H123	H	2.681578	-0.501693	0.453350
H124	H	2.608527	-0.046029	0.766825
H125	H	2.662324	-0.052754	0.989190
