data_functionalizedCrystal
_audit_creation_method	'MofGen! by Chris Wilmer'
_symmetry_space_group_name_H-M	'P1'
_symmetry_Int_Tables_number	1
_symmetry_cell_setting	triclinic
loop_
_symmetry_equiv_pos_as_xyz
  x,y,z
_cell_length_a	12.759401
_cell_length_b	18.101395
_cell_length_c	12.759393
_cell_angle_alpha	90.033445
_cell_angle_beta	90.018496
_cell_angle_gamma	90.031265
loop_
_atom_site_label
_atom_site_type_symbol
_atom_site_fract_x
_atom_site_fract_y
_atom_site_fract_z
Zn1	Zn	1.606136	-0.294783	0.593968
Zn2	Zn	2.106136	0.205217	1.093968
Zn3	Zn	1.605980	-0.418644	0.418282
Zn4	Zn	2.105980	0.081356	0.918282
Zn5	Zn	1.430438	-0.294822	0.418307
Zn6	Zn	1.930438	0.205178	0.918307
Zn7	Zn	1.430376	-0.418587	0.593923
Zn8	Zn	1.930376	0.081413	1.093923
O9	O	1.518232	-0.356709	0.506120
O10	O	2.018232	0.143291	1.006120
O11	O	1.753136	-0.311221	0.570671
O12	O	2.253136	0.188779	1.070671
O13	O	1.582654	-0.402259	0.271264
O14	O	2.082654	0.097741	0.771264
O15	O	1.453835	-0.191183	0.441638
O16	O	1.953835	0.308817	0.941638
O17	O	1.753021	-0.402221	0.441595
O18	O	2.253021	0.097779	0.941595
O19	O	1.582920	-0.191155	0.570695
O20	O	2.082920	0.308845	1.070695
O21	O	1.453684	-0.311287	0.271283
O22	O	1.953684	0.188713	0.771283
O23	O	1.283408	-0.311232	0.441595
O24	O	1.783408	0.188768	0.941595
O25	O	1.453730	-0.402124	0.740950
O26	O	1.953730	0.097876	1.240950
O27	O	1.283363	-0.402162	0.570619
O28	O	1.783363	0.097838	1.070619
O29	O	1.582860	-0.311166	0.740983
O30	O	2.082860	0.188834	1.240983
O31	O	1.582594	-0.522270	0.441552
O32	O	2.082594	-0.022270	0.941552
O33	O	1.453579	-0.522228	0.570595
O34	O	1.953579	-0.022228	1.070595
C35	C	1.245265	-0.356695	0.506106
C36	C	1.745265	0.143305	1.006106
C37	C	1.128488	-0.356707	0.506125
C38	C	1.628488	0.143293	1.006125
C39	C	1.073630	-0.404131	0.573197
C40	C	1.573630	0.095869	1.073197
C41	C	0.963906	-0.404140	0.573208
C42	C	1.463906	0.095860	1.073208
C43	C	0.963908	-0.309301	0.439066
C44	C	1.463908	0.190699	0.939066
C45	C	1.073630	-0.309288	0.439061
C46	C	1.573630	0.190712	0.939061
C47	C	1.073628	-0.458887	0.650639
C48	C	1.573628	0.041113	1.150639
C49	C	0.963904	-0.458897	0.650650
C50	C	1.463904	0.041103	1.150650
C51	C	1.518092	-0.549120	0.506089
C52	C	2.018092	-0.049120	1.006089
C53	C	1.518128	-0.631434	0.506111
C54	C	2.018128	-0.131434	1.006111
C55	C	1.518358	-0.930525	0.506168
C56	C	2.018358	-0.430525	1.006168
C57	C	1.437374	-0.899204	0.587559
C58	C	1.937374	-0.399204	1.087559
C59	C	1.436989	-0.813586	0.587305
C60	C	1.936989	-0.313586	1.087305
C61	C	1.518244	-0.782142	0.506140
C62	C	2.018244	-0.282142	1.006140
C63	C	1.488263	-0.813302	0.395415
C64	C	1.988263	-0.313302	0.895415
C65	C	1.487741	-0.898947	0.395903
C66	C	1.987741	-0.398947	0.895903
C67	C	1.629501	-0.898866	0.534526
C68	C	2.129501	-0.398866	1.034526
C69	C	1.628847	-0.813215	0.536954
C70	C	2.128847	-0.313215	1.036954
C71	C	1.518181	-0.698283	0.506118
C72	C	2.018181	-0.198283	1.006118
C73	C	1.518418	-1.014384	0.506182
C74	C	2.018418	-0.514384	1.006182
C75	C	1.792265	-0.356723	0.506135
C76	C	2.292265	0.143277	1.006135
C77	C	1.909042	-0.356729	0.506141
C78	C	2.409042	0.143271	1.006141
C79	C	1.518306	-0.356634	0.780153
C80	C	2.018306	0.143366	1.280153
C81	C	1.518337	-0.356602	0.896930
C82	C	2.018337	0.143398	1.396930
C83	C	1.518402	-0.163547	0.506174
C84	C	2.018402	0.336453	1.006174
C85	C	1.518474	-0.081233	0.506197
C86	C	2.018474	0.418767	1.006197
C87	C	1.518219	-0.356730	0.233153
C88	C	2.018219	0.143270	0.733153
C89	C	1.518392	-0.356553	0.116376
C90	C	2.018392	0.143447	0.616376
C91	C	1.585584	-0.309236	0.951811
C92	C	2.085584	0.190764	1.451811
C93	C	1.585609	-0.309209	1.061535
C94	C	2.085609	0.190791	1.561535
C95	C	1.451137	-0.403922	1.061488
C96	C	1.951137	0.096078	1.561488
C97	C	1.451108	-0.403944	0.951766
C98	C	1.951108	0.096056	1.451766
C99	C	1.663224	-0.254556	0.951839
C100	C	2.163224	0.245444	1.451839
C101	C	1.663249	-0.254529	1.061563
C102	C	2.163249	0.245471	1.561563
H103	H	1.455746	-0.792516	0.669407
H104	H	1.955746	-0.292516	1.169407
C105	C	1.377199	-0.456000	1.121811
C106	C	1.877199	0.044000	1.621811
H107	H	1.386851	-0.449206	1.195018
H108	H	1.886851	0.050794	1.695018
H109	H	1.306613	-0.445164	1.103828
H110	H	1.806613	0.054836	1.603828
H111	H	1.392535	-0.505765	1.103810
H112	H	1.892535	-0.005765	1.603810
H113	H	0.934085	-0.516239	0.628715
H114	H	1.434085	-0.016239	1.128715
C115	C	1.462359	-0.927043	0.698809
C116	C	1.962359	-0.427043	1.198809
H117	H	1.522410	-0.958011	0.696622
H118	H	2.022410	-0.458011	1.196622
H119	H	1.475737	-0.886088	0.743442
H120	H	1.975737	-0.386088	1.243442
H121	H	1.404317	-0.954251	0.724984
H122	H	1.904317	-0.454251	1.224984
H123	H	0.919229	-0.270693	0.384467
H124	H	1.419229	0.229307	0.884467
H125	H	1.544168	-0.919669	0.333192
H126	H	2.044168	-0.419669	0.833192
H127	H	1.656833	-0.920408	0.613890
H128	H	2.156833	-0.420408	1.113890
H129	H	1.740488	-0.275117	0.917802
H130	H	2.240488	0.224883	1.417802
H131	H	1.107620	-0.513341	0.621352
H132	H	1.607620	-0.013341	1.121352
H133	H	1.118291	-0.270667	0.384452
H134	H	1.618291	0.229333	0.884452
H135	H	1.651456	-0.792845	0.618442
H136	H	2.151456	-0.292845	1.118442
H137	H	1.744614	-0.269890	1.091341
H138	H	2.244614	0.230110	1.591341
C139	C	1.326757	-0.928357	0.562503
C140	C	1.826757	-0.428357	1.062503
H141	H	1.329713	-0.959532	0.502652
H142	H	1.829713	-0.459532	1.002652
H143	H	1.300947	-0.955597	0.620647
H144	H	1.800947	-0.455597	1.120647
H145	H	1.281370	-0.887923	0.548727
H146	H	1.781370	-0.387923	1.048727
H147	H	1.103443	-0.443592	0.732046
H148	H	1.603443	0.056408	1.232046
H149	H	1.406496	-0.918992	0.371879
H150	H	1.906496	-0.418992	0.871879
H151	H	0.929915	-0.438424	0.728003
H152	H	1.429915	0.061576	1.228003
H153	H	1.354607	-0.793164	0.568521
H154	H	1.854607	-0.293164	1.068521
H155	H	1.545393	-0.792936	0.333119
H156	H	2.045393	-0.292936	0.833119
C157	C	1.623969	-0.180912	1.107571
C158	C	2.123969	0.319088	1.607571
H159	H	1.606465	-0.148145	1.052133
H160	H	2.106465	0.351855	1.552133
H161	H	1.563714	-0.189695	1.149468
H162	H	2.063714	0.310305	1.649468
H163	H	1.677510	-0.159475	1.149485
H164	H	2.177510	0.340525	1.649485
H165	H	1.692377	-0.791806	0.481993
H166	H	2.192377	-0.291806	0.981993
C167	C	1.377129	-0.456040	0.891396
C168	C	1.877129	0.043960	1.391396
H169	H	1.386731	-0.449269	0.818195
H170	H	1.886731	0.050731	1.318195
H171	H	1.392453	-0.505797	0.909356
H172	H	1.892453	-0.005797	1.409356
H173	H	1.306552	-0.445181	0.909380
H174	H	1.806552	0.054819	1.409380
C175	C	1.379665	-0.784429	0.362383
C176	C	1.879665	-0.284429	0.862383
H177	H	1.352451	-0.753395	0.415912
H178	H	1.852451	-0.253395	0.915912
H179	H	1.385947	-0.757101	0.299159
H180	H	1.885947	-0.257101	0.799159
H181	H	1.333589	-0.824988	0.351722
H182	H	1.833589	-0.324988	0.851722
H183	H	1.689837	-0.919120	0.475245
H184	H	2.189837	-0.419120	0.975245
H185	H	1.641479	-0.197204	0.922086
H186	H	2.141479	0.302796	1.422086
