data_functionalizedCrystal
_audit_creation_method	'MofGen! by Chris Wilmer'
_symmetry_space_group_name_H-M	'P1'
_symmetry_Int_Tables_number	1
_symmetry_cell_setting	triclinic
loop_
_symmetry_equiv_pos_as_xyz
  x,y,z
_cell_length_a	16.625547
_cell_length_b	18.050590
_cell_length_c	16.625539
_cell_angle_alpha	89.970044
_cell_angle_beta	89.975178
_cell_angle_gamma	90.018489
loop_
_atom_site_label
_atom_site_type_symbol
_atom_site_fract_x
_atom_site_fract_y
_atom_site_fract_z
Zn1	Zn	1.232702	-0.295659	-0.455992
Zn2	Zn	1.732702	0.204341	0.044008
Zn3	Zn	1.232615	-0.419857	-0.321155
Zn4	Zn	1.732615	0.080143	0.178845
Zn5	Zn	1.097864	-0.295685	-0.321162
Zn6	Zn	1.597864	0.204315	0.178838
Zn7	Zn	1.097844	-0.419812	-0.455935
Zn8	Zn	1.597844	0.080188	0.044065
O9	O	1.165256	-0.357753	-0.388561
O10	O	1.665256	0.142247	0.111439
O11	O	1.345523	-0.312142	-0.438126
O12	O	1.845523	0.187858	0.061874
O13	O	1.214712	-0.403415	-0.208323
O14	O	1.714712	0.096585	0.291677
O15	O	1.115796	-0.191757	-0.339074
O16	O	1.615796	0.308243	0.160926
O17	O	1.345459	-0.403390	-0.339062
O18	O	1.845459	0.096610	0.160938
O19	O	1.214861	-0.191738	-0.438133
O20	O	1.714861	0.308262	0.061867
O21	O	1.115711	-0.312186	-0.208329
O22	O	1.615711	0.187814	0.291671
O23	O	0.985029	-0.312143	-0.339019
O24	O	1.485029	0.187857	0.160981
O25	O	1.115761	-0.403313	-0.568775
O26	O	1.615761	0.096687	-0.068775
O27	O	0.985014	-0.403338	-0.438036
O28	O	1.485014	0.096662	0.061964
O29	O	1.214841	-0.312099	-0.568817
O30	O	1.714841	0.187901	-0.068817
O31	O	1.214692	-0.523776	-0.339007
O32	O	1.714692	-0.023776	0.160993
O33	O	1.115676	-0.523742	-0.438029
O34	O	1.615676	-0.023742	0.061971
C35	C	0.955766	-0.357739	-0.388523
C36	C	1.455766	0.142261	0.111477
C37	C	0.866144	-0.357751	-0.388526
C38	C	1.366144	0.142249	0.111474
C39	C	0.793362	-0.357752	-0.388536
C40	C	1.293362	0.142248	0.111464
C41	C	0.702054	-0.357756	-0.388556
C42	C	1.202054	0.142244	0.111444
C43	C	0.629277	-0.357763	-0.388576
C44	C	1.129277	0.142237	0.111424
C45	C	0.537963	-0.357768	-0.388596
C46	C	1.037963	0.142232	0.111404
C47	C	1.165194	-0.550705	-0.388529
C48	C	1.665194	-0.050705	0.111471
C49	C	1.165242	-0.633251	-0.388542
C50	C	1.665242	-0.133251	0.111458
C51	C	1.219198	-0.832693	-0.334769
C52	C	1.719198	-0.332693	0.165231
C53	C	1.238896	-0.882024	-0.408360
C54	C	1.738896	-0.382024	0.091640
C55	C	1.165287	-0.784382	-0.388574
C56	C	1.665287	-0.284382	0.111426
C57	C	1.145672	-0.882132	-0.315016
C58	C	1.645672	-0.382132	0.184984
C59	C	1.165333	-0.930367	-0.388599
C60	C	1.665333	-0.430367	0.111401
C61	C	1.185022	-0.832625	-0.462204
C62	C	1.685022	-0.332625	0.037796
C63	C	1.091765	-0.832730	-0.368810
C64	C	1.591765	-0.332730	0.131190
C65	C	1.111434	-0.882038	-0.442452
C66	C	1.611434	-0.382038	0.057548
C67	C	1.165263	-0.700283	-0.388559
C68	C	1.665263	-0.200283	0.111441
C69	C	1.165357	-1.014463	-0.388622
C70	C	1.665357	-0.514463	0.111378
C71	C	1.375565	-0.357768	-0.388600
C72	C	1.875565	0.142232	0.111400
C73	C	1.465186	-0.357775	-0.388616
C74	C	1.965186	0.142225	0.111384
C75	C	1.165309	-0.357698	-0.598870
C76	C	1.665309	0.142302	-0.098870
C77	C	1.165331	-0.357674	-0.688491
C78	C	1.665331	0.142326	-0.188491
C79	C	1.165341	-0.164048	-0.388611
C80	C	1.665341	0.335952	0.111389
C81	C	1.165376	-0.081502	-0.388632
C82	C	1.665376	0.418498	0.111368
C83	C	1.165368	-0.357591	-1.016667
C84	C	1.665368	0.142409	-0.516667
C85	C	1.165356	-0.357617	-0.925358
C86	C	1.665356	0.142383	-0.425358
C87	C	1.165350	-0.357633	-0.852582
C88	C	1.665350	0.142367	-0.352582
C89	C	1.165337	-0.357658	-0.761268
C90	C	1.665337	0.142342	-0.261268
C91	C	1.165251	-0.357755	-0.179070
C92	C	1.665251	0.142245	0.320930
C93	C	1.165384	-0.357569	-0.089449
C94	C	1.665384	0.142431	0.410551
H95	H	1.264804	-0.811025	-0.289314
H96	H	1.764804	-0.311025	0.210686
C97	C	1.123226	-0.911508	-0.230966
C98	C	1.623226	-0.411508	0.269034
C99	C	1.048048	-0.960349	-0.220037
C100	C	1.548048	-0.460349	0.279963
C101	C	1.025610	-0.989722	-0.135987
C102	C	1.525610	-0.489722	0.364013
C103	C	1.078350	-0.970253	-0.062865
C104	C	1.578350	-0.470253	0.437135
C105	C	1.153533	-0.921409	-0.073792
C106	C	1.653533	-0.421409	0.426208
C107	C	1.175971	-0.892036	-0.157843
C108	C	1.675971	-0.392036	0.342157
H109	H	1.009002	-0.974764	-0.274168
H110	H	1.509002	-0.474764	0.225832
H111	H	0.969954	-1.025880	-0.127899
H112	H	1.469954	-0.525880	0.372101
H113	H	1.061740	-0.991997	-0.000646
H114	H	1.561740	-0.491997	0.499354
H115	H	1.192579	-0.906995	-0.019661
H116	H	1.692579	-0.406995	0.480339
H117	H	1.231627	-0.855879	-0.165931
H118	H	1.731627	-0.355879	0.334069
H119	H	1.029587	-0.811059	-0.352056
H120	H	1.529587	-0.311059	0.147944
H121	H	1.201570	-0.810971	-0.524475
H122	H	1.701570	-0.310971	-0.024475
C123	C	1.322915	-0.911280	-0.430970
C124	C	1.822915	-0.411280	0.069030
C125	C	1.396124	-0.891796	-0.378351
C126	C	1.896124	-0.391796	0.121649
C127	C	1.480145	-0.921047	-0.400956
C128	C	1.980145	-0.421047	0.099044
C129	C	1.490958	-0.969783	-0.476180
C130	C	1.990958	-0.469783	0.023820
C131	C	1.417748	-0.989270	-0.528804
C132	C	1.917748	-0.489270	-0.028804
C133	C	1.333726	-0.960019	-0.506199
C134	C	1.833726	-0.460019	-0.006199
H135	H	1.388121	-0.855716	-0.322661
H136	H	1.888121	-0.355716	0.177339
H137	H	1.534341	-0.906621	-0.362000
H138	H	2.034341	-0.406621	0.138000
H139	H	1.553156	-0.991437	-0.492914
H140	H	2.053156	-0.491437	0.007086
H141	H	1.425750	-1.025350	-0.584494
H142	H	1.925750	-0.525350	-0.084494
H143	H	1.279531	-0.974445	-0.545155
H144	H	1.779531	-0.474445	-0.045155
C145	C	1.049870	-0.911132	-0.504001
C146	C	1.549870	-0.411132	-0.004001
C147	C	1.058898	-0.891389	-0.593674
C148	C	1.558898	-0.391389	-0.093674
C149	C	0.997338	-0.920485	-0.655225
C150	C	1.497338	-0.420485	-0.155225
C151	C	0.926752	-0.969324	-0.627103
C152	C	1.426752	-0.469324	-0.127103
C153	C	0.917721	-0.989070	-0.537426
C154	C	1.417721	-0.489070	-0.037426
C155	C	0.979281	-0.959974	-0.475875
C156	C	1.479281	-0.459974	0.024125
H157	H	1.111153	-0.855233	-0.614495
H158	H	1.611153	-0.355233	-0.114495
H159	H	1.004023	-0.905868	-0.721610
H160	H	1.504023	-0.405868	-0.221610
H161	H	0.881182	-0.990863	-0.672667
H162	H	1.381182	-0.490863	-0.172667
H163	H	0.865466	-1.025226	-0.516605
H164	H	1.365466	-0.525226	-0.016605
H165	H	0.972595	-0.974591	-0.409490
H166	H	1.472595	-0.474591	0.090510
