data_functionalizedCrystal
_audit_creation_method	'MofGen! by Chris Wilmer'
_symmetry_space_group_name_H-M	'P1'
_symmetry_Int_Tables_number	1
_symmetry_cell_setting	triclinic
loop_
_symmetry_equiv_pos_as_xyz
  x,y,z
_cell_length_a	13.032831
_cell_length_b	13.897447
_cell_length_c	13.032268
_cell_angle_alpha	82.850929
_cell_angle_beta	89.113023
_cell_angle_gamma	82.824382
loop_
_atom_site_label
_atom_site_type_symbol
_atom_site_fract_x
_atom_site_fract_y
_atom_site_fract_z
Zn1	Zn	1.498459	-0.651421	0.780831
Zn2	Zn	1.831792	-0.318088	1.114164
Zn3	Zn	2.165125	0.015246	1.447498
Zn4	Zn	1.520196	-0.795136	0.608850
Zn5	Zn	1.853530	-0.461802	0.942183
Zn6	Zn	2.186863	-0.128469	1.275517
Zn7	Zn	1.348318	-0.611126	0.587072
Zn8	Zn	1.681652	-0.277793	0.920406
Zn9	Zn	2.014985	0.055541	1.253739
Zn10	Zn	1.326445	-0.789920	0.758975
Zn11	Zn	1.659778	-0.456587	1.092309
Zn12	Zn	1.993111	-0.123254	1.425642
O13	O	1.423354	-0.711901	0.683932
O14	O	1.756688	-0.378567	1.017265
O15	O	2.090021	-0.045234	1.350599
O16	O	1.645262	-0.689531	0.776278
O17	O	1.978595	-0.356198	1.109611
O18	O	2.311929	-0.022865	1.442945
O19	O	1.515648	-0.756045	0.462045
O20	O	1.848981	-0.422712	0.795378
O21	O	2.182314	-0.089379	1.128711
O22	O	1.368292	-0.481500	0.612807
O23	O	1.701625	-0.148167	0.946141
O24	O	2.034958	0.185167	1.279474
O25	O	1.661233	-0.795118	0.649925
O26	O	1.994566	-0.461784	0.983258
O27	O	2.327899	-0.128451	1.316591
O28	O	1.478599	-0.511105	0.755161
O29	O	1.811932	-0.177771	1.088494
O30	O	2.145266	0.155562	1.421828
O31	O	1.389370	-0.620854	0.446044
O32	O	1.722703	-0.287521	0.779378
O33	O	2.056036	0.045812	1.112711
O34	O	1.201497	-0.615797	0.591615
O35	O	1.534830	-0.282464	0.924948
O36	O	1.868163	0.050869	1.258281
O37	O	1.331011	-0.786229	0.905791
O38	O	1.664344	-0.452896	1.239124
O39	O	1.997678	-0.119562	1.572458
O40	O	1.185426	-0.747157	0.717911
O41	O	1.518759	-0.413823	1.051245
O42	O	1.852093	-0.080490	1.384578
O43	O	1.457389	-0.684474	0.921848
O44	O	1.790722	-0.351141	1.255182
O45	O	2.124056	-0.017807	1.588515
O46	O	1.494438	-0.929415	0.628732
O47	O	1.827771	-0.596082	0.962065
O48	O	2.161104	-0.262748	1.295399
O49	O	1.352089	-0.925583	0.739028
O50	O	1.685423	-0.592250	1.072362
O51	O	2.018756	-0.258917	1.405695
C52	C	1.156144	-0.676539	0.650029
C53	C	1.489478	-0.343206	0.983362
C54	C	1.822811	-0.009873	1.316695
C55	C	1.041828	-0.661437	0.635549
C56	C	1.375161	-0.328104	0.968882
C57	C	1.708494	0.005230	1.302216
C58	C	0.982950	-0.719783	0.691489
C59	C	1.316283	-0.386449	1.024822
C60	C	1.649617	-0.053116	1.358156
C61	C	0.864797	-0.704175	0.676525
C62	C	1.198131	-0.370842	1.009858
C63	C	1.531464	-0.037509	1.343192
C64	C	1.423274	-0.962502	0.683898
C65	C	1.756607	-0.629168	1.017231
C66	C	2.089940	-0.295835	1.350564
C67	C	1.423329	-1.069726	0.683929
C68	C	1.756662	-0.736392	1.017263
C69	C	2.089996	-0.403059	1.350596
C70	C	1.423376	-1.156804	0.683959
C71	C	1.756709	-0.823471	1.017292
C72	C	2.090042	-0.490138	1.350626
C73	C	1.423445	-1.266049	0.683995
C74	C	1.756778	-0.932716	1.017328
C75	C	2.090111	-0.599382	1.350661
C76	C	1.691608	-0.747401	0.717969
C77	C	2.024941	-0.414068	1.051302
C78	C	2.358274	-0.080734	1.384635
C79	C	1.805921	-0.762529	0.732473
C80	C	2.139255	-0.429196	1.065806
C81	C	2.472588	-0.095862	1.399139
C82	C	1.389335	-0.739265	0.952179
C83	C	1.722669	-0.405931	1.285512
C84	C	2.056002	-0.072598	1.618846
C85	C	1.374838	-0.750926	1.066490
C86	C	1.708172	-0.417592	1.399823
C87	C	2.041505	-0.084259	1.733157
C88	C	1.423460	-0.460327	0.683993
C89	C	1.756794	-0.126994	1.017326
C90	C	2.090127	0.206339	1.350659
C91	C	1.423506	-0.353122	0.684019
C92	C	1.756839	-0.019788	1.017352
C93	C	2.090172	0.313545	1.350685
C94	C	1.457300	-0.684581	0.416736
C95	C	1.790634	-0.351248	0.750070
C96	C	2.123967	-0.017915	1.083403
C97	C	1.471996	-0.672675	0.302451
C98	C	1.805330	-0.339342	0.635785
C99	C	2.138663	-0.006009	0.969118
C100	C	1.430904	-0.705778	1.125398
C101	C	1.764238	-0.372445	1.458732
C102	C	2.097571	-0.039111	1.792065
C103	C	1.415923	-0.717829	1.243545
C104	C	1.749256	-0.384496	1.576878
C105	C	2.082589	-0.051162	1.910211
H106	H	0.842979	-0.824035	0.791454
H107	H	1.176312	-0.490702	1.124787
H108	H	1.509645	-0.157368	1.458121
H109	H	1.489992	-0.658200	1.088364
H110	H	1.823326	-0.324867	1.421697
H111	H	2.156659	0.008467	1.755031
Br112	Br	1.570509	-0.593389	1.240747
Br113	Br	1.903843	-0.260055	1.574080
Br114	Br	2.237176	0.073278	1.907414
Br115	Br	1.276335	-0.830213	1.128203
Br116	Br	1.609668	-0.496880	1.461536
Br117	Br	1.943002	-0.163546	1.794869
H118	H	1.020014	-0.781286	0.750463
H119	H	1.353347	-0.447953	1.083797
H120	H	1.686680	-0.114619	1.417130
H121	H	1.004763	-0.599927	0.576583
H122	H	1.338096	-0.266594	0.909916
H123	H	1.671430	0.066739	1.243249
Br124	Br	1.317415	-0.797120	1.305253
Br125	Br	1.650749	-0.463787	1.638586
Br126	Br	1.984082	-0.130453	1.971919
H127	H	0.827737	-0.642661	0.617555
H128	H	1.161071	-0.309328	0.950888
H129	H	1.494404	0.024005	1.284221
