data_functionalizedCrystal
_audit_creation_method	'MofGen! by Chris Wilmer'
_symmetry_space_group_name_H-M	'P1'
_symmetry_Int_Tables_number	1
_symmetry_cell_setting	triclinic
loop_
_symmetry_equiv_pos_as_xyz
  x,y,z
_cell_length_a	27.732048
_cell_length_b	10.723024
_cell_length_c	9.198806
_cell_angle_alpha	89.998891
_cell_angle_beta	89.998433
_cell_angle_gamma	96.444738
loop_
_atom_site_label
_atom_site_type_symbol
_atom_site_fract_x
_atom_site_fract_y
_atom_site_fract_z
O1	O	-0.641849	0.148462	-0.120699
O2	O	-0.501195	0.171036	-0.120742
O3	O	-0.574767	-0.021961	-0.120718
O4	O	-0.568278	0.341460	-0.120724
O5	O	-0.574761	-0.021962	0.121067
O6	O	-0.501190	0.171036	0.121043
O7	O	-0.641843	0.148462	0.121086
Cu8	Cu	-0.571516	0.159749	0.143141
Cu9	Cu	-0.571523	0.159749	-0.142798
O10	O	-0.568272	0.341459	0.121061
C11	C	-0.483183	0.170562	0.000145
C12	C	-0.429519	0.169135	0.000128
C13	C	-0.574291	-0.068442	0.000172
C14	C	-0.572879	-0.206937	0.000164
C15	C	-0.659856	0.148936	0.000196
C16	C	-0.713519	0.150363	0.000203
C17	C	-0.091356	0.274201	0.000189
C18	C	0.110336	0.268907	0.000202
O19	O	0.140995	0.364983	0.000264
N20	N	0.130171	0.154468	0.000202
C21	C	0.099578	0.041344	0.000207
O22	O	0.121077	-0.056116	0.000222
C23	C	-0.102113	0.046639	0.000205
C24	C	-0.121945	0.161086	0.000191
C25	C	-0.111188	0.388639	0.000177
C26	C	-0.161608	0.389961	0.000166
C27	C	-0.192197	0.276846	0.000167
C28	C	-0.172365	0.162408	0.000179
C29	C	-0.132704	-0.066484	0.000221
C30	C	-0.183130	-0.065150	0.000224
C31	C	-0.202961	0.049297	0.000210
C32	C	-0.253373	0.050615	0.000169
N33	N	-0.273207	0.165055	0.000170
C34	C	-0.242619	0.278170	0.000169
C35	C	0.205470	0.038571	0.000206
C36	C	0.255892	0.037247	0.000204
C37	C	0.266647	0.264811	0.000202
C38	C	0.216223	0.266134	0.000193
C39	C	0.185635	0.153011	0.000207
C40	C	-0.348506	0.280938	0.000144
C41	C	-0.398931	0.282251	0.000127
C42	C	-0.409681	0.054687	0.000137
C43	C	-0.359260	0.053374	0.000146
C44	C	-0.328673	0.166510	0.000155
O45	O	-0.284061	-0.045409	0.000124
O46	O	-0.264127	0.375615	0.000186
C47	C	-0.040936	0.272879	0.000201
C48	C	-0.021104	0.158441	0.000213
C49	C	-0.051692	0.045326	0.000214
C50	C	0.029318	0.157117	0.000211
C51	C	0.059907	0.270232	0.000210
C52	C	0.040072	0.384672	0.000210
C53	C	-0.010348	0.385994	0.000199
C54	C	-0.031858	-0.069114	0.000214
C55	C	0.018563	-0.070427	0.000223
C56	C	0.049151	0.042689	0.000222
C57	C	-0.568747	0.387939	0.000168
C58	C	-0.570160	0.526435	0.000167
N59	N	-0.571514	0.159748	0.344255
C60	C	-0.528993	0.603122	0.000153
C61	C	-0.530453	0.746265	0.000152
N62	N	-0.571528	0.159740	-0.343912
C63	C	-0.602405	0.078362	0.416462
C64	C	-0.602412	0.078357	0.583875
H65	H	-0.415074	0.375451	0.000115
H66	H	-0.056759	-0.161228	0.000218
H67	H	-0.434595	-0.037408	0.000132
H68	H	-0.608122	0.727179	0.000182
C69	C	-0.216774	-0.189598	0.000232
N70	N	-0.242114	-0.283332	0.000233
C71	C	-0.314867	0.405394	0.000145
N72	N	-0.289531	0.499134	0.000136
H73	H	-0.495211	0.812156	0.000150
H74	H	-0.177750	0.483156	0.000154
C75	C	-0.638118	-0.015789	0.332547
N76	N	-0.665016	-0.086712	0.269344
H77	H	-0.628861	0.008684	0.645970
C78	C	-0.619234	0.580898	0.000184
N79	N	-0.656199	0.621917	0.000201
C80	C	-0.535797	0.253878	0.572212
N81	N	-0.508884	0.324782	0.509026
C82	C	-0.077548	0.513086	0.000181
N83	N	-0.052213	0.606829	0.000176
C84	C	0.194414	0.392033	0.000194
N85	N	0.177989	0.486866	0.000200
C86	C	0.300303	0.389239	0.000212
N87	N	0.325655	0.482953	0.000232
C88	C	0.277701	-0.088653	0.000210
N89	N	0.294125	-0.183486	0.000226
H90	H	-0.545072	0.229418	0.406374
H91	H	0.180569	-0.053553	0.000217
C92	C	-0.110902	-0.192387	0.000265
N93	N	-0.094481	-0.287224	0.000310
C94	C	-0.479919	0.548659	0.000151
N95	N	-0.442954	0.507640	0.000157
H96	H	-0.343113	-0.039818	0.000136
C97	C	0.073729	0.509099	0.000214
N98	N	0.099082	0.602812	0.000228
H99	H	-0.026490	0.479189	0.000190
C100	C	0.040370	-0.196336	0.000247
N101	N	0.056795	-0.291169	0.000282
