data_functionalizedCrystal
_audit_creation_method	'MofGen! by Chris Wilmer'
_symmetry_space_group_name_H-M	'P1'
_symmetry_Int_Tables_number	1
_symmetry_cell_setting	triclinic
loop_
_symmetry_equiv_pos_as_xyz
  x,y,z
_cell_length_a	14.560438
_cell_length_b	14.560438
_cell_length_c	14.560438
_cell_angle_alpha	60.000069
_cell_angle_beta	89.999635
_cell_angle_gamma	60.000378
loop_
_atom_site_label
_atom_site_type_symbol
_atom_site_fract_x
_atom_site_fract_y
_atom_site_fract_z
Zr1	Zr	0.884754	1.005292	-0.120514
O2	O	0.738108	1.196893	-0.267158
O3	O	0.929709	0.813691	-0.075562
O4	O	0.929709	1.005295	-0.267163
O5	O	0.738109	1.005286	0.075584
O6	O	1.080847	1.005298	-0.267164
O7	O	0.738108	1.005289	-0.075557
O8	O	1.080847	0.662553	0.075575
O9	O	0.738109	1.348031	-0.267155
O10	O	1.061675	0.892501	-0.056388
O11	O	0.948882	0.892497	0.056407
O12	O	0.948882	1.118086	-0.169178
O13	O	0.836090	1.118082	-0.056383
Zr14	Zr	1.125803	1.005292	0.120537
Zr15	Zr	1.125803	1.005296	-0.120516
Zr16	Zr	0.884755	1.005288	0.120538
Zr17	Zr	0.884755	1.246339	-0.120509
Zr18	Zr	1.125802	0.764244	0.120532
O19	O	1.080848	1.196892	0.075585
O20	O	1.080848	1.196898	-0.267160
O21	O	0.738109	1.196887	0.075587
O22	O	1.272449	0.813691	0.267181
O23	O	1.272448	0.813697	-0.075565
O24	O	0.929710	0.813685	0.267183
O25	O	1.272449	1.005298	-0.075561
O26	O	1.080848	1.005288	0.267186
O27	O	0.929710	1.005286	0.267187
O28	O	1.272449	1.005295	0.075580
O29	O	0.929710	1.348034	-0.267156
O30	O	1.080848	0.662550	0.267179
O31	O	1.272449	0.662553	0.267178
O32	O	1.272448	0.662556	0.075574
O33	O	0.738109	1.348027	-0.075551
O34	O	0.929710	1.348030	-0.075552
O35	O	1.061675	0.892497	0.169201
O36	O	1.174468	0.892501	0.056405
O37	O	1.061675	1.118086	-0.056384
O38	O	0.948883	1.118082	0.056411
C39	C	1.005278	0.703778	0.000006
C40	C	1.005278	0.601447	0.000004
C41	C	1.064152	0.553373	-0.058874
C42	C	1.064157	0.457213	-0.058864
C43	C	0.946403	0.457215	0.058905
C44	C	0.946406	0.553366	0.058900
C45	C	0.703764	1.005287	0.000014
C46	C	0.601433	1.005285	0.000014
C47	C	0.612231	0.887534	0.058885
C48	C	0.516076	0.887540	0.058886
C49	C	0.398328	1.123059	-0.058864
C50	C	0.494482	1.123051	-0.058858
C51	C	1.306793	1.005297	0.000009
C52	C	1.409124	1.005299	0.000009
C53	C	1.005278	1.005297	-0.301508
C54	C	1.005278	1.005299	-0.403841
C55	C	1.005279	1.306806	0.000017
C56	C	1.005279	1.409137	0.000019
C57	C	1.088541	1.005301	-0.451918
C58	C	1.088545	1.005290	-0.548064
C59	C	0.922012	1.005278	-0.548051
C60	C	0.922014	1.005281	-0.451902
C61	C	1.005279	1.005286	0.301531
C62	C	1.005279	1.005285	0.403864
C63	C	1.306793	0.703783	0.000004
C64	C	1.409124	0.601454	0.000001
C65	C	1.005279	0.703773	0.301525
C66	C	1.005278	0.601440	0.403856
C67	C	1.306793	0.703778	0.301523
C68	C	1.409124	0.601447	0.403854
C69	C	0.703764	1.306806	-0.301500
C70	C	0.601433	1.409137	-0.403831
C71	C	0.703765	1.306800	0.000019
C72	C	0.601434	1.409130	0.000022
C73	C	1.005279	1.306811	-0.301502
C74	C	1.005279	1.409144	-0.403834
C75	C	1.398325	0.553377	-0.058875
C76	C	1.494480	0.457235	-0.058881
C77	C	1.612228	0.457252	0.058873
C78	C	1.516075	0.553399	0.058872
C79	C	1.064154	0.553362	0.510809
C80	C	1.064141	0.457218	0.606956
C81	C	0.946375	0.457235	0.489184
C82	C	0.946383	0.553384	0.393040
C83	C	1.516076	0.553371	0.393053
C84	C	1.612223	0.457228	0.489207
C85	C	1.494453	0.457242	0.606959
C86	C	1.398308	0.553389	0.510806
H87	H	0.898471	0.418056	0.106854
H88	H	0.485681	1.218944	-0.106795
H89	H	1.112091	0.592516	-0.106829
C90	C	0.830428	1.005255	-0.600925
N91	N	0.761445	1.005236	-0.640748
H92	H	1.156346	1.005289	-0.587204
H93	H	1.311245	0.592512	-0.106824
C94	C	1.128916	0.404330	0.724604
N95	N	1.177708	0.364494	0.813219
C96	C	0.830370	1.005364	-0.399058
N97	N	0.761333	1.005456	-0.359270
C98	C	0.881654	0.606233	0.123691
N99	N	0.832893	0.646044	0.172499
C100	C	1.527958	0.606286	0.123644
N101	N	1.536906	0.646123	0.172427
H102	H	1.485660	0.418100	0.694048
C103	C	1.729880	0.404373	0.123638
N104	N	1.818495	0.364541	0.172425
C105	C	0.881602	0.404357	0.477298
N106	N	0.832816	0.364526	0.468343
H107	H	0.699312	0.791641	0.106835
H108	H	1.311217	0.592536	0.519608
H109	H	1.699306	0.418090	0.480406
H110	H	0.524878	0.791655	0.106826
C111	C	1.482592	0.404350	-0.123645
N112	N	1.473635	0.364516	-0.172426
C113	C	1.180142	1.005306	-0.399047
N114	N	1.249141	1.005303	-0.359223
C115	C	1.128932	0.606229	0.522713
N116	N	1.177721	0.646050	0.531683
H117	H	1.112099	0.418073	-0.106806
H118	H	0.898433	0.592533	0.305948
H119	H	1.524888	0.592499	0.305972
H120	H	0.311239	1.218940	-0.106797
