data_functionalizedCrystal
_audit_creation_method	'MofGen! by Chris Wilmer'
_symmetry_space_group_name_H-M	'P1'
_symmetry_Int_Tables_number	1
_symmetry_cell_setting	triclinic
loop_
_symmetry_equiv_pos_as_xyz
  x,y,z
_cell_length_a	16.120530
_cell_length_b	12.827892
_cell_length_c	12.827885
_cell_angle_alpha	90.029786
_cell_angle_beta	87.081295
_cell_angle_gamma	92.888896
loop_
_atom_site_label
_atom_site_type_symbol
_atom_site_fract_x
_atom_site_fract_y
_atom_site_fract_z
Zn1	Zn	1.274619	0.497099	-0.671825
Zn2	Zn	1.524619	0.747099	-0.421825
Zn3	Zn	1.774619	0.997099	-0.171825
Zn4	Zn	2.024619	1.247099	0.078175
Zn5	Zn	1.274534	0.671871	-0.497080
Zn6	Zn	1.524534	0.921871	-0.247080
Zn7	Zn	1.774534	1.171871	0.002920
Zn8	Zn	2.024534	1.421871	0.252920
Zn9	Zn	1.135196	0.488277	-0.488241
Zn10	Zn	1.385196	0.738277	-0.238241
Zn11	Zn	1.635196	0.988277	0.011759
Zn12	Zn	1.885196	1.238277	0.261759
Zn13	Zn	1.135185	0.662925	-0.662927
Zn14	Zn	1.385185	0.912925	-0.412927
Zn15	Zn	1.635185	1.162925	-0.162927
Zn16	Zn	1.885185	1.412925	0.087073
O17	O	1.204884	0.580043	-0.580018
O18	O	1.454884	0.830043	-0.330018
O19	O	1.704884	1.080043	-0.080018
O20	O	1.954884	1.330043	0.169982
O21	O	1.391274	0.527718	-0.656068
O22	O	1.641274	0.777718	-0.406068
O23	O	1.891274	1.027718	-0.156068
O24	O	2.141274	1.277718	0.093932
O25	O	1.256020	0.647568	-0.349669
O26	O	1.506020	0.897568	-0.099669
O27	O	1.756020	1.147568	0.150331
O28	O	2.006020	1.397568	0.400331
O29	O	1.153731	0.343213	-0.512619
O30	O	1.403731	0.593213	-0.262619
O31	O	1.653731	0.843213	-0.012619
O32	O	1.903731	1.093213	0.237381
O33	O	1.391212	0.656122	-0.527683
O34	O	1.641212	0.906122	-0.277683
O35	O	1.891212	1.156122	-0.027683
O36	O	2.141212	1.406122	0.222317
O37	O	1.256164	0.349695	-0.647497
O38	O	1.506164	0.599695	-0.397497
O39	O	1.756164	0.849695	-0.147497
O40	O	2.006164	1.099695	0.102503
O41	O	1.153649	0.512683	-0.343176
O42	O	1.403649	0.762683	-0.093176
O43	O	1.653649	1.012683	0.156824
O44	O	1.903649	1.262683	0.406824
O45	O	1.018528	0.504008	-0.503991
O46	O	1.268528	0.754008	-0.253991
O47	O	1.518528	1.004008	-0.003991
O48	O	1.768528	1.254008	0.246009
O49	O	1.153712	0.640876	-0.810346
O50	O	1.403712	0.890876	-0.560346
O51	O	1.653712	1.140876	-0.310346
O52	O	1.903712	1.390876	-0.060346
O53	O	1.018520	0.632322	-0.632332
O54	O	1.268520	0.882322	-0.382332
O55	O	1.518520	1.132322	-0.132332
O56	O	1.768520	1.382322	0.117668
O57	O	1.256154	0.519044	-0.816883
O58	O	1.506154	0.769044	-0.566883
O59	O	1.756154	1.019044	-0.316883
O60	O	2.006154	1.269044	-0.066883
O61	O	1.256009	0.816917	-0.519055
O62	O	1.506009	1.066917	-0.269055
O63	O	1.756009	1.316917	-0.019055
O64	O	2.006009	1.566917	0.230945
O65	O	1.153630	0.810345	-0.640902
O66	O	1.403630	1.060345	-0.390902
O67	O	1.653630	1.310345	-0.140902
O68	O	1.903630	1.560345	0.109098
C69	C	0.988274	0.566238	-0.566237
C70	C	1.238274	0.816238	-0.316237
C71	C	1.488274	1.066238	-0.066237
C72	C	1.738274	1.316238	0.183763
C73	C	0.895607	0.560357	-0.560366
C74	C	1.145607	0.810357	-0.310366
C75	C	1.395607	1.060357	-0.060366
C76	C	1.645607	1.310357	0.189634
C77	C	1.204831	0.851549	-0.579997
C78	C	1.454831	1.101549	-0.329997
C79	C	1.704831	1.351549	-0.079997
C80	C	1.954831	1.601549	0.170003
C81	C	1.204885	0.967706	-0.580027
C82	C	1.454885	1.217706	-0.330027
C83	C	1.704885	1.467706	-0.080027
C84	C	1.954885	1.717706	0.169973
C85	C	1.204959	0.307477	-0.580065
C86	C	1.454959	0.557477	-0.330065
C87	C	1.704959	0.807477	-0.080065
C88	C	1.954959	1.057477	0.169935
C89	C	1.204991	0.191326	-0.580084
C90	C	1.454991	0.441326	-0.330084
C91	C	1.704991	0.691326	-0.080084
C92	C	1.954991	0.941326	0.169916
C93	C	0.725944	0.549596	-0.549657
C94	C	0.975944	0.799596	-0.299657
C95	C	1.225944	1.049596	-0.049657
C96	C	1.475944	1.299596	0.200343
C97	C	0.684664	0.610566	-0.610456
C98	C	0.934664	0.860566	-0.360456
C99	C	1.184664	1.110566	-0.110456
C100	C	1.434664	1.360566	0.139544
C101	C	0.590258	0.604579	-0.604497
C102	C	0.840258	0.854579	-0.354497
C103	C	1.090258	1.104579	-0.104497
C104	C	1.340258	1.354579	0.145503
C105	C	0.820359	0.555582	-0.555614
C106	C	1.070359	0.805582	-0.305614
C107	C	1.320359	1.055582	-0.055614
C108	C	1.570359	1.305582	0.194386
C109	C	1.422339	0.593902	-0.593854
C110	C	1.672339	0.843902	-0.343854
C111	C	1.922339	1.093902	-0.093854
C112	C	2.172339	1.343902	0.156146
C113	C	1.515006	0.599808	-0.599750
C114	C	1.765006	0.849808	-0.349750
C115	C	2.015006	1.099808	-0.099750
C116	C	2.265006	1.349808	0.150250
C117	C	1.204941	0.579946	-0.852592
C118	C	1.454941	0.829946	-0.602592
C119	C	1.704941	1.079946	-0.352592
C120	C	1.954941	1.329946	-0.102592
C121	C	1.204966	0.579905	-0.968747
C122	C	1.454966	0.829905	-0.718747
C123	C	1.704966	1.079905	-0.468747
C124	C	1.954966	1.329905	-0.218747
C125	C	1.255606	1.022712	-0.519808
C126	C	1.505606	1.272712	-0.269808
C127	C	1.755606	1.522712	-0.019808
C128	C	2.005606	1.772712	0.230192
C129	C	1.255663	1.142766	-0.519838
C130	C	1.505663	1.392766	-0.269838
C131	C	1.755663	1.642766	-0.019838
C132	C	2.005663	1.892766	0.230162
C133	C	1.154325	0.513148	-1.017320
C134	C	1.404325	0.763148	-0.767320
C135	C	1.654325	1.013148	-0.517320
C136	C	1.904325	1.263148	-0.267320
C137	C	1.154350	0.513104	-1.137372
C138	C	1.404350	0.763104	-0.887372
C139	C	1.654350	1.013104	-0.637372
C140	C	1.904350	1.263104	-0.387372
C141	C	1.204874	0.580067	-0.308508
C142	C	1.454874	0.830067	-0.058508
C143	C	1.704874	1.080067	0.191492
C144	C	1.954874	1.330067	0.441492
C145	C	1.205011	0.579824	-0.192364
C146	C	1.455011	0.829824	0.057636
C147	C	1.705011	1.079824	0.307636
C148	C	1.955011	1.329824	0.557636
H149	H	0.720225	0.667260	-0.666985
H150	H	0.970225	0.917260	-0.416985
H151	H	1.220225	1.167260	-0.166985
H152	H	1.470225	1.417260	0.083015
O153	O	1.313203	1.205396	-0.451559
O154	O	1.563203	1.455396	-0.201559
O155	O	1.813203	1.705396	0.048441
O156	O	2.063203	1.955396	0.298441
H157	H	1.304229	1.289863	-0.462312
H158	H	1.554229	1.539863	-0.212312
H159	H	1.804229	1.789863	0.037688
H160	H	2.054229	2.039863	0.287688
H161	H	1.161561	1.144042	-0.631639
H162	H	1.411561	1.394042	-0.381639
H163	H	1.661561	1.644042	-0.131639
H164	H	1.911561	1.894042	0.118361
O165	O	0.678833	0.474521	-0.474775
O166	O	0.928833	0.724521	-0.224775
O167	O	1.178833	0.974521	0.025225
O168	O	1.428833	1.224521	0.275225
H169	H	0.695488	0.393551	-0.493854
H170	H	0.945488	0.643551	-0.243854
H171	H	1.195488	0.893551	0.006146
H172	H	1.445488	1.143551	0.256146
H173	H	1.248337	0.637026	-1.016040
H174	H	1.498337	0.887026	-0.766040
H175	H	1.748337	1.137026	-0.516040
H176	H	1.998337	1.387026	-0.266040
H177	H	1.298991	0.980928	-0.468233
H178	H	1.548991	1.230928	-0.218233
H179	H	1.798991	1.480928	0.031767
H180	H	2.048991	1.730928	0.281767
H181	H	1.161507	1.009493	-0.631610
H182	H	1.411507	1.259493	-0.381610
H183	H	1.661507	1.509493	-0.131610
H184	H	1.911507	1.759493	0.118390
H185	H	1.110949	0.456031	-0.970026
H186	H	1.360949	0.706031	-0.720026
H187	H	1.610949	0.956031	-0.470026
H188	H	1.860949	1.206031	-0.220026
O189	O	1.096930	0.437380	-1.192712
O190	O	1.346930	0.687380	-0.942712
O191	O	1.596930	0.937380	-0.692712
O192	O	1.846930	1.187380	-0.442712
H193	H	1.054540	0.481466	-1.239739
H194	H	1.304540	0.731466	-0.989739
H195	H	1.554540	0.981466	-0.739739
H196	H	1.804540	1.231466	-0.489739
O197	O	1.262452	0.655538	-1.137042
O198	O	1.512452	0.905538	-0.887042
O199	O	1.762452	1.155538	-0.637042
O200	O	2.012452	1.405538	-0.387042
H201	H	1.225080	0.706306	-1.084933
H202	H	1.475080	0.956306	-0.834933
H203	H	1.725080	1.206306	-0.584933
H204	H	1.975080	1.456306	-0.334933
