data_functionalizedCrystal
_audit_creation_method	'MofGen! by Chris Wilmer'
_symmetry_space_group_name_H-M	'P1'
_symmetry_Int_Tables_number	1
_symmetry_cell_setting	triclinic
loop_
_symmetry_equiv_pos_as_xyz
  x,y,z
_cell_length_a	10.654549
_cell_length_b	27.731996
_cell_length_c	9.730223
_cell_angle_alpha	89.989651
_cell_angle_beta	89.997731
_cell_angle_gamma	83.553082
loop_
_atom_site_label
_atom_site_type_symbol
_atom_site_fract_x
_atom_site_fract_y
_atom_site_fract_z
O1	O	1.664953	0.067887	-0.114278
O2	O	1.299199	0.074355	-0.114290
O3	O	1.493469	0.000793	-0.114254
O4	O	1.470682	0.141448	-0.114314
O5	O	1.493457	0.000791	0.114326
O6	O	1.299187	0.074353	0.114290
O7	O	1.664940	0.067885	0.114302
Zn8	Zn	1.482062	0.071118	0.150588
Zn9	Zn	1.482078	0.071121	-0.150576
O10	O	1.470670	0.141446	0.114266
C11	C	1.252415	0.073879	-0.000001
C12	C	1.113032	0.072458	-0.000004
C13	C	0.900733	0.114431	-0.000016
C14	C	1.031696	0.115770	-0.000025
C15	C	1.063399	0.027804	0.000012
C16	C	0.932437	0.026466	0.000011
C17	C	1.492995	-0.017218	0.000041
C18	C	1.491585	-0.070883	0.000055
C19	C	1.482721	-0.403654	-0.124612
C20	C	1.477367	-0.605345	-0.124636
O21	O	1.476627	-0.631420	-0.230604
N22	N	1.476695	-0.630568	-0.000038
C23	C	1.477354	-0.605364	0.124574
O24	O	1.476647	-0.631444	0.230552
C25	C	1.482699	-0.403673	0.124597
C26	C	1.483383	-0.378454	-0.000009
C27	C	1.483404	-0.378435	-0.249208
C28	C	1.484749	-0.328015	-0.249200
C29	C	1.485412	-0.302815	-0.124597
C30	C	1.484729	-0.328034	-0.000001
C31	C	1.483349	-0.378469	0.249208
C32	C	1.484682	-0.328043	0.249203
C33	C	1.485366	-0.302824	0.124597
C34	C	1.486736	-0.252414	0.124609
N35	N	1.487408	-0.227192	0.000011
C36	C	1.486746	-0.252392	-0.124592
C37	C	1.474550	-0.711255	0.124553
C38	C	1.473216	-0.761677	0.124548
C39	C	1.473227	-0.761655	-0.124663
C40	C	1.474570	-0.711232	-0.124656
C41	C	1.475222	-0.686032	-0.000044
C42	C	1.489572	-0.146507	-0.124567
C43	C	1.490923	-0.096084	-0.124549
C44	C	1.490905	-0.096110	0.124662
C45	C	1.489561	-0.146529	0.124644
C46	C	1.488891	-0.171727	0.000019
O47	O	1.487464	-0.226308	0.230521
O48	O	1.487425	-0.226302	-0.230553
C49	C	1.481376	-0.454073	-0.124619
C50	C	1.480693	-0.479293	-0.000023
C51	C	1.481355	-0.454092	0.124580
C52	C	1.479359	-0.529715	-0.000029
C53	C	1.478697	-0.554916	-0.124632
C54	C	1.479368	-0.529693	-0.249230
C55	C	1.480714	-0.479274	-0.249222
C56	C	1.480683	-0.479315	0.249177
C57	C	1.479340	-0.529734	0.249160
C58	C	1.478677	-0.554935	0.124557
C59	C	1.711724	0.068360	0.000010
C60	C	1.851107	0.069781	0.000004
C61	C	1.471144	0.159457	-0.000032
C62	C	1.472554	0.213122	-0.000055
N63	N	1.482060	0.071116	0.356124
N64	N	1.482090	0.071119	-0.356113
C65	C	1.568111	0.038557	0.428066
C66	C	1.568124	0.038557	0.571949
C67	C	1.396029	0.103680	0.571936
C68	C	1.396012	0.103677	0.428055
H69	H	0.892033	-0.009895	0.000023
H70	H	1.482860	-0.398947	-0.350680
H71	H	1.325932	0.130191	0.369476
O72	O	1.491526	-0.071658	-0.245720
C73	C	1.490680	-0.104718	-0.355694
H74	H	1.449950	-0.138793	-0.319164
H75	H	1.430084	-0.087277	-0.442844
H76	H	1.591319	-0.114818	-0.394003
H77	H	1.485194	-0.307527	0.350679
O78	O	0.821906	0.156551	-0.000099
C79	C	0.893798	0.196247	-0.000088
H80	H	0.991801	0.184305	-0.043353
H81	H	0.844878	0.226620	-0.066470
H82	H	0.902846	0.209914	0.109565
O83	O	1.651767	0.006996	0.641984
C84	C	1.728740	0.033161	0.725156
H85	H	1.677969	0.070804	0.746699
H86	H	1.749023	0.013058	0.826341
H87	H	1.821470	0.036779	0.669687
O88	O	1.472352	-0.786150	-0.245669
C89	C	1.362796	-0.810212	-0.253086
H90	H	1.287164	-0.791444	-0.182372
H91	H	1.326251	-0.809065	-0.363285
H92	H	1.386380	-0.849583	-0.219599
O93	O	1.079956	0.159132	-0.000296
C94	C	1.154778	0.162534	-0.118673
H95	H	1.124311	0.137169	-0.201395
H96	H	1.142231	0.201448	-0.158437
H97	H	1.258293	0.151737	-0.091912
H98	H	1.325972	0.130191	0.630516
O99	O	1.651563	0.006849	0.358284
C100	C	1.632099	-0.041063	0.393552
H101	H	1.531565	-0.041645	0.433103
H102	H	1.647026	-0.065285	0.298974
H103	H	1.701967	-0.055003	0.477095
O104	O	1.142583	-0.014224	0.000093
C105	C	1.268816	-0.003470	0.000060
H106	H	1.273077	0.034512	0.043316
H107	H	1.328706	-0.031050	0.066439
H108	H	1.306740	-0.005175	-0.109599
H109	H	1.481270	-0.458745	-0.350689
H110	H	1.472678	-0.782207	0.226015
O111	O	1.489088	-0.171037	-0.245545
C112	C	1.597122	-0.205309	-0.253042
H113	H	1.633185	-0.214589	-0.144864
H114	H	1.571710	-0.239605	-0.305818
H115	H	1.673827	-0.189447	-0.314507
H116	H	1.485302	-0.307486	-0.350667
H117	H	1.475087	-0.690742	0.226033
O118	O	1.475168	-0.686808	-0.245820
C119	C	1.474335	-0.719871	-0.355789
H120	H	1.433615	-0.753947	-0.319254
H121	H	1.413735	-0.702434	-0.442942
H122	H	1.574976	-0.729966	-0.394095
H123	H	1.482793	-0.398994	0.350676
H124	H	1.491450	-0.075583	0.226110
O125	O	1.488853	-0.170954	0.245806
C126	C	1.489767	-0.137898	0.355783
H127	H	1.450967	-0.100082	0.319253
H128	H	1.428381	-0.149602	0.442926
H129	H	1.590688	-0.137280	0.394103
H130	H	1.478835	-0.550220	-0.350686
O131	O	1.478447	-0.554194	0.370253
C132	C	1.369984	-0.536743	0.446038
H133	H	1.294331	-0.519305	0.373106
H134	H	1.332560	-0.568182	0.502570
H135	H	1.395353	-0.508631	0.523720
O136	O	1.481505	-0.454793	0.370134
C137	C	1.591098	-0.430756	0.377613
H138	H	1.627568	-0.424895	0.269430
H139	H	1.567581	-0.394155	0.430368
H140	H	1.666762	-0.453779	0.439089
