data_functionalizedCrystal
_audit_creation_method	'MofGen! by Chris Wilmer'
_symmetry_space_group_name_H-M	'P1'
_symmetry_Int_Tables_number	1
_symmetry_cell_setting	triclinic
loop_
_symmetry_equiv_pos_as_xyz
  x,y,z
_cell_length_a	10.686551
_cell_length_b	17.077404
_cell_length_c	17.077402
_cell_angle_alpha	90.023108
_cell_angle_beta	94.409396
_cell_angle_gamma	94.396964
loop_
_atom_site_label
_atom_site_type_symbol
_atom_site_fract_x
_atom_site_fract_y
_atom_site_fract_z
Zn1	Zn	-0.713481	-1.234147	0.278394
Zn2	Zn	-0.502461	-1.223971	0.419757
Zn3	Zn	-0.502489	-1.092797	0.288509
Zn4	Zn	-0.713408	-1.102843	0.409626
O5	O	-0.607960	-1.163439	0.349071
O6	O	-0.685508	-1.342645	0.297153
O7	O	-0.325882	-1.198107	0.410820
O8	O	-0.530519	-1.111602	0.177318
O9	O	-0.530473	-1.335169	0.401012
O10	O	-0.685534	-1.215451	0.169887
O11	O	-0.325902	-1.101734	0.314392
O12	O	-0.530448	-0.984282	0.304568
O13	O	-0.890000	-1.128724	0.383745
O14	O	-0.685410	-0.991663	0.393552
O15	O	-0.890054	-1.225192	0.287329
O16	O	-0.530402	-1.207849	0.528262
O17	O	-0.685383	-1.118857	0.520819
C18	C	-0.607925	-0.959490	0.349059
C19	C	-0.607940	-0.872241	0.349071
C20	C	-0.607909	-1.163361	0.553022
C21	C	-0.607930	-1.163402	0.640271
C22	C	-0.937093	-1.179214	0.333279
C23	C	-1.077350	-1.185936	0.326549
C24	C	-0.280107	-1.147772	0.364746
C25	C	-0.139850	-1.141202	0.371255
C26	C	-0.607995	-1.368185	0.349085
C27	C	-0.608011	-1.455436	0.349090
C28	C	-0.688499	-0.835108	0.395487
C29	C	-0.688519	-0.753129	0.395488
C30	C	-0.607973	-0.708283	0.349076
C31	C	-0.527410	-0.745421	0.302655
C32	C	-0.527398	-0.827399	0.302650
C33	C	-0.527441	-0.574553	0.302669
C34	C	-0.527452	-0.492568	0.302674
C35	C	-0.688562	-0.500282	0.395506
C36	C	-0.688549	-0.582260	0.395502
C37	C	-0.607985	-0.619393	0.349081
C38	C	-0.608038	-1.163541	0.144323
C39	C	-0.608071	-1.163584	0.057072
C40	C	-0.527318	-1.209795	0.685106
C41	C	-0.527350	-1.209835	0.767085
C42	C	-0.607989	-1.163477	0.804227
C43	C	-0.688610	-1.117081	0.759385
C44	C	-0.688583	-1.117046	0.677408
C45	C	-0.688658	-1.117156	0.930253
C46	C	-0.688683	-1.117190	1.012236
C47	C	-0.527425	-1.209945	1.019931
C48	C	-0.527398	-1.209910	0.937953
C49	C	-0.608018	-1.163514	0.893117
H50	H	-1.086058	-1.097762	0.414680
H51	H	-0.461848	-0.604783	0.264861
C52	C	-0.438852	-0.443240	0.251616
N53	N	-0.372117	-0.406085	0.213157
H54	H	-0.461706	-1.247613	0.803587
C55	C	-1.150024	-1.244628	0.267880
N56	N	-1.204764	-1.288832	0.223690
H57	H	-0.461730	-1.247654	0.907713
C58	C	-0.777107	-0.884432	0.446545
N59	N	-0.843853	-0.921580	0.485001
H60	H	-0.754117	-0.722900	0.433285
C61	C	-0.438812	-0.696088	0.251599
N62	N	-0.372074	-0.658931	0.213145
H63	H	-0.754273	-1.079339	0.789632
H64	H	-0.754130	-0.618772	0.433299
H65	H	-0.754164	-0.470045	0.433301
C66	C	-0.438774	-0.868244	0.251591
N67	N	-0.372021	-0.899008	0.213130
C68	C	-0.438604	-1.260792	0.644258
N69	N	-0.371785	-1.299207	0.613494
C70	C	-0.438753	-1.260989	1.069251
N71	N	-0.371967	-1.299434	1.106403
C72	C	-0.777403	-1.066203	1.053090
N73	N	-0.844233	-1.027801	1.083861
H74	H	-0.754312	-1.079378	0.893749
C75	C	-0.777264	-1.066010	0.628088
N76	N	-0.844064	-1.027570	0.590942
