data_functionalizedCrystal
_audit_creation_method	'MofGen! by Chris Wilmer'
_symmetry_space_group_name_H-M	'P1'
_symmetry_Int_Tables_number	1
_symmetry_cell_setting	triclinic
loop_
_symmetry_equiv_pos_as_xyz
  x,y,z
_cell_length_a	19.805407
_cell_length_b	19.120786
_cell_length_c	19.805399
_cell_angle_alpha	87.529549
_cell_angle_beta	89.983114
_cell_angle_gamma	92.465080
loop_
_atom_site_label
_atom_site_type_symbol
_atom_site_fract_x
_atom_site_fract_y
_atom_site_fract_z
Zn1	Zn	1.023227	-0.279637	-0.371216
Zn2	Zn	1.523227	0.220363	0.128784
Zn3	Zn	1.018320	-0.397099	-0.253195
Zn4	Zn	1.518320	0.102901	0.246805
Zn5	Zn	0.910046	-0.279659	-0.258039
Zn6	Zn	1.410046	0.220341	0.241961
Zn7	Zn	0.905180	-0.397059	-0.366344
Zn8	Zn	1.405180	0.102941	0.133656
O9	O	0.964193	-0.338363	-0.312199
O10	O	1.464193	0.161637	0.187801
O11	O	1.117292	-0.295226	-0.355572
O12	O	1.617292	0.204774	0.144428
O13	O	1.003941	-0.381546	-0.159120
O14	O	1.503941	0.118454	0.340880
O15	O	0.929150	-0.181366	-0.277119
O16	O	1.429150	0.318634	0.222881
O17	O	1.113688	-0.381525	-0.268863
O18	O	1.613688	0.118475	0.231137
O19	O	1.012303	-0.181349	-0.360269
O20	O	1.512303	0.318651	0.139731
O21	O	0.924392	-0.295264	-0.162679
O22	O	1.424392	0.204736	0.337321
O23	O	0.814684	-0.295225	-0.272395
O24	O	1.314684	0.204775	0.227605
O25	O	0.920856	-0.381456	-0.461708
O26	O	1.420856	0.118544	0.038292
O27	O	0.811109	-0.381478	-0.351965
O28	O	1.311109	0.118522	0.148035
O29	O	1.007585	-0.295187	-0.465287
O30	O	1.507585	0.204813	0.034713
O31	O	0.999222	-0.495384	-0.264138
O32	O	1.499222	0.004616	0.235862
O33	O	0.916099	-0.495354	-0.347268
O34	O	1.416099	0.004646	0.152732
C35	C	0.788338	-0.338350	-0.312177
C36	C	1.288338	0.161650	0.187823
C37	C	0.713105	-0.338361	-0.312183
C38	C	1.213105	0.161639	0.187817
C39	C	0.956618	-0.520855	-0.304664
C40	C	1.456618	-0.020855	0.195336
C41	C	0.953440	-0.598925	-0.301463
C42	C	1.453440	-0.098925	0.198537
C43	C	0.675915	-0.383341	-0.353543
C44	C	1.175915	0.116659	0.146457
C45	C	0.605226	-0.383342	-0.353553
C46	C	1.105226	0.116658	0.146447
C47	C	0.571730	-0.338367	-0.312198
C48	C	1.071730	0.161633	0.187802
C49	C	0.608926	-0.293382	-0.270837
C50	C	1.108926	0.206618	0.229163
C51	C	0.679613	-0.293378	-0.270832
C52	C	1.179613	0.206622	0.229168
C53	C	0.323852	-0.293398	-0.270859
C54	C	0.823852	0.206602	0.229141
C55	C	0.253159	-0.293407	-0.270866
C56	C	0.753159	0.206593	0.229134
C57	C	0.249465	-0.383362	-0.353580
C58	C	0.749465	0.116638	0.146420
C59	C	0.320152	-0.383357	-0.353574
C60	C	0.820152	0.116643	0.146426
C61	C	0.357342	-0.338371	-0.312216
C62	C	0.857342	0.161629	0.187784
C63	C	0.433991	-0.338369	-0.312207
C64	C	0.933991	0.161631	0.187793
C65	C	0.495082	-0.338371	-0.312203
C66	C	0.995082	0.161629	0.187797
C67	C	0.995208	-0.635534	-0.343286
C68	C	1.495208	-0.135534	0.156714
C69	C	0.992218	-0.708889	-0.340280
C70	C	1.492218	-0.208889	0.159720
C71	C	0.947464	-0.745635	-0.295446
C72	C	1.447464	-0.245635	0.204554
C73	C	0.905691	-0.709021	-0.253621
C74	C	1.405691	-0.209021	0.246379
C75	C	0.908678	-0.635667	-0.256631
C76	C	1.408678	-0.135667	0.243369
C77	C	0.936279	-0.967121	-0.284193
C78	C	1.436279	-0.467121	0.215807
C79	C	0.933297	-1.040480	-0.281184
C80	C	1.433297	-0.540480	0.218816
C81	C	1.019823	-1.040343	-0.367844
C82	C	1.519823	-0.540343	0.132156
C83	C	1.022809	-0.966988	-0.370847
C84	C	1.522809	-0.466988	0.129153
C85	C	0.981034	-0.930380	-0.329025
C86	C	1.481034	-0.430380	0.170975
C87	C	0.944408	-0.820616	-0.292371
C88	C	1.444408	-0.320616	0.207629
C89	C	0.984086	-0.855400	-0.332104
C90	C	1.484086	-0.355400	0.167896
C91	C	1.140736	-0.338377	-0.312220
C92	C	1.640736	0.161623	0.187780
C93	C	1.215967	-0.338383	-0.312230
C94	C	1.715967	0.161617	0.187770
C95	C	0.964225	-0.338315	-0.488743
C96	C	1.464225	0.161685	0.011257
C97	C	0.964239	-0.338294	-0.563976
C98	C	1.464239	0.161706	-0.063976
C99	C	0.971816	-0.155159	-0.319778
C100	C	1.471816	0.344841	0.180222
C101	C	0.975065	-0.077089	-0.323007
C102	C	1.475065	0.422911	0.176993
C103	C	0.922830	-0.293362	-0.601173
C104	C	1.422830	0.206638	-0.101173
C105	C	0.922840	-0.293349	-0.671862
C106	C	1.422840	0.206651	-0.171862
C107	C	0.964262	-0.338263	-0.705353
C108	C	1.464262	0.161737	-0.205353
C109	C	1.005673	-0.383200	-0.668151
C110	C	1.505673	0.116800	-0.168151
C111	C	1.005659	-0.383217	-0.597463
C112	C	1.505659	0.116783	-0.097463
C113	C	1.005729	-0.383134	-0.953227
C114	C	1.505729	0.116866	-0.453227
C115	C	1.005741	-0.383113	-1.023920
C116	C	1.505741	0.116887	-0.523920
C117	C	0.922910	-0.293266	-1.027626
C118	C	1.422910	0.206734	-0.527626
C119	C	0.922896	-0.293283	-0.956938
C120	C	1.422896	0.206717	-0.456938
C121	C	0.964304	-0.338222	-0.919742
C122	C	1.464304	0.161778	-0.419742
C123	C	0.964291	-0.338237	-0.843093
C124	C	1.464291	0.161763	-0.343093
C125	C	0.964279	-0.338245	-0.782001
C126	C	1.464279	0.161755	-0.282001
C127	C	0.964203	-0.338361	-0.136343
C128	C	1.464203	0.161639	0.363657
C129	C	0.964329	-0.338184	-0.061118
C130	C	1.464329	0.161816	0.438882
H131	H	0.703182	-0.419967	-0.387216
H132	H	1.203182	0.080033	0.112784
H133	H	0.869248	-0.738945	-0.217120
H134	H	1.369248	-0.238945	0.282880
O135	O	1.046057	-0.426647	-1.056487
O136	O	1.546057	0.073353	-0.556487
C137	C	1.091437	-0.386651	-1.099045
C138	C	1.591437	0.113349	-0.599045
H139	H	1.097918	-0.331339	-1.080029
H140	H	1.597918	0.168661	-0.580029
H141	H	1.070622	-0.384212	-1.152716
H142	H	1.570622	0.115788	-0.652716
C143	C	1.152410	-0.488912	-1.122074
C144	C	1.652410	0.011088	-0.622074
C145	C	1.160375	-0.420977	-1.098715
C146	C	1.660375	0.079023	-0.598715
H147	H	1.194933	-0.510086	-1.121874
H148	H	1.694933	-0.010086	-0.621874
H149	H	1.121836	-0.515858	-1.093404
H150	H	1.621836	-0.015858	-0.593404
H151	H	1.135062	-0.486869	-1.166798
H152	H	1.635062	0.013131	-0.666798
H153	H	1.177714	-0.423021	-1.053989
H154	H	1.677714	0.076979	-0.553989
H155	H	1.190954	-0.394031	-1.127377
H156	H	1.690954	0.105969	-0.627377
H157	H	1.059252	-0.937071	-0.407354
H158	H	1.559252	-0.437071	0.092646
H159	H	0.574949	-0.419969	-0.387231
H160	H	1.074949	0.080031	0.112769
O161	O	0.220589	-0.249816	-0.230611
O162	O	0.720589	0.250184	0.269389
C163	C	0.178023	-0.289754	-0.185195
C164	C	0.678023	0.210246	0.314805
H165	H	0.197034	-0.345066	-0.178647
H166	H	0.697034	0.154934	0.321353
H167	H	0.124355	-0.292208	-0.206016
H168	H	0.624355	0.207792	0.293984
C169	C	0.154994	-0.187415	-0.124347
C170	C	0.654994	0.312585	0.375653
C171	C	0.178347	-0.255348	-0.116300
C172	C	0.678347	0.244652	0.383700
H173	H	0.155191	-0.166190	-0.081851
H174	H	0.655191	0.333810	0.418149
H175	H	0.183670	-0.160507	-0.154947
H176	H	0.683670	0.339493	0.345053
H177	H	0.110273	-0.189469	-0.141700
H178	H	0.610273	0.310531	0.358300
H179	H	0.223071	-0.253293	-0.098956
H180	H	0.723071	0.246707	0.401044
H181	H	0.149679	-0.282255	-0.085696
H182	H	0.649679	0.217745	0.414304
H183	H	0.874665	-0.605861	-0.222575
H184	H	1.374665	-0.105861	0.277425
O185	O	1.038591	-0.599764	-0.386874
O186	O	1.538591	-0.099764	0.113126
C187	C	1.001752	-0.557353	-0.432305
C188	C	1.501752	-0.057353	0.067695
H189	H	0.950919	-0.546425	-0.408832
H190	H	1.450919	-0.046425	0.091168
H191	H	0.993131	-0.585599	-0.481298
H192	H	1.493131	-0.085599	0.018702
C193	C	1.104256	-0.501056	-0.476288
C194	C	1.604256	-0.001056	0.023712
C195	C	1.041825	-0.487628	-0.447455
C196	C	1.541825	0.012372	0.052545
H197	H	1.128975	-0.458047	-0.485637
H198	H	1.628975	0.041953	0.014363
H199	H	1.129076	-0.529631	-0.445683
H200	H	1.629076	-0.029631	0.054317
H201	H	1.097063	-0.524595	-0.517112
H202	H	1.597063	-0.024595	-0.017112
H203	H	1.049018	-0.464097	-0.406628
H204	H	1.549018	0.035903	0.093372
H205	H	1.017007	-0.459048	-0.478055
H206	H	1.517007	0.040952	0.021945
O207	O	0.895683	-0.931675	-0.243491
O208	O	1.395683	-0.431675	0.256509
C209	C	0.855536	-0.979840	-0.203284
C210	C	1.355536	-0.479840	0.296716
H211	H	0.881135	-1.032106	-0.198830
H212	H	1.381135	-0.532106	0.301170
H213	H	0.803792	-0.987670	-0.227694
H214	H	1.303792	-0.487670	0.272306
C215	C	0.815559	-0.887079	-0.137877
C216	C	1.315559	-0.387079	0.362123
C217	C	0.847002	-0.951271	-0.132401
C218	C	1.347002	-0.451271	0.367599
H219	H	0.810292	-0.869456	-0.094154
H220	H	1.310292	-0.369456	0.405846
H221	H	0.842604	-0.854628	-0.164967
H222	H	1.342604	-0.354628	0.335033
H223	H	0.772442	-0.893613	-0.158221
H224	H	1.272442	-0.393613	0.341779
H225	H	0.890121	-0.944735	-0.112066
H226	H	1.390121	-0.444735	0.387934
H227	H	0.819964	-0.983720	-0.105306
H228	H	1.319964	-0.483720	0.394694
H229	H	0.907971	-0.850542	-0.255865
H230	H	1.407971	-0.350542	0.244135
H231	H	1.020523	-0.825480	-0.368610
H232	H	1.520523	-0.325480	0.131390
H233	H	0.219177	-0.419989	-0.387258
H234	H	0.719177	0.080011	0.112742
H235	H	1.053833	-1.070157	-0.401894
H236	H	1.553833	-0.570157	0.098106
O237	O	0.882528	-0.249710	-0.568749
O238	O	1.382528	0.250290	-0.068749
C239	C	0.845993	-0.210039	-0.616742
C240	C	1.345993	0.289961	-0.116742
H241	H	0.842465	-0.238797	-0.665939
H242	H	1.342465	0.261203	-0.165939
H243	H	0.872998	-0.156693	-0.626471
H244	H	1.372998	0.343307	-0.126471
C245	C	0.778703	-0.164599	-0.529143
C246	C	1.278703	0.335401	-0.029143
C247	C	0.774365	-0.199923	-0.589566
C248	C	1.274365	0.300077	-0.089566
H249	H	0.734521	-0.158356	-0.512379
H250	H	1.234521	0.341644	-0.012379
H251	H	0.803319	-0.191324	-0.496808
H252	H	1.303319	0.308676	0.003192
H253	H	0.801210	-0.120148	-0.537259
H254	H	1.301210	0.379852	-0.037259
H255	H	0.751866	-0.244377	-0.581448
H256	H	1.251866	0.255623	-0.081448
H257	H	0.749744	-0.173205	-0.621899
H258	H	1.249744	0.326795	-0.121899
H259	H	0.347422	-0.419983	-0.387247
H260	H	0.847422	0.080017	0.112753
O261	O	0.359868	-0.249677	-0.230623
O262	O	0.859868	0.250323	0.269377
C263	C	0.315143	-0.209971	-0.194138
C264	C	0.815143	0.290029	0.305862
H265	H	0.263564	-0.238747	-0.190561
H266	H	0.763564	0.261253	0.309439
H267	H	0.309839	-0.156663	-0.221215
H268	H	0.809839	0.343337	0.278785
C269	C	0.406478	-0.164396	-0.126931
C270	C	0.906478	0.335604	0.373069
C271	C	0.343129	-0.199741	-0.122534
C272	C	0.843129	0.300259	0.377466
H273	H	0.423742	-0.158082	-0.082764
H274	H	0.923742	0.341918	0.417236
H275	H	0.436611	-0.191143	-0.151513
H276	H	0.936611	0.308857	0.348487
H277	H	0.402050	-0.119976	-0.149499
H278	H	0.902050	0.380024	0.350501
H279	H	0.347560	-0.244163	-0.099975
H280	H	0.847560	0.255837	0.400025
H281	H	0.312997	-0.173001	-0.097946
H282	H	0.812997	0.326999	0.402054
H283	H	0.889118	-0.256764	-0.702145
H284	H	1.389118	0.243236	-0.202145
H285	H	0.889168	-0.256706	-0.929674
H286	H	1.389168	0.243294	-0.429674
H287	H	1.039396	-0.419774	-0.695425
H288	H	1.539396	0.080226	-0.195425
H289	H	1.039383	-0.419799	-0.567178
H290	H	1.539383	0.080201	-0.067178
O291	O	0.882584	-0.249651	-1.063683
O292	O	1.382584	0.250349	-0.563683
C293	C	0.814482	-0.265010	-1.045775
C294	C	1.314482	0.234990	-0.545775
H295	H	0.811949	-0.292024	-0.993333
H296	H	1.311949	0.207976	-0.493333
H297	H	0.790186	-0.301108	-1.084060
H298	H	1.290186	0.198892	-0.584060
C299	C	0.779446	-0.163352	-1.109745
C300	C	1.279446	0.336648	-0.609745
C301	C	0.776334	-0.196526	-1.045333
C302	C	1.276334	0.303474	-0.545333
H303	H	0.755913	-0.121109	-1.109475
H304	H	1.255913	0.378891	-0.609475
H305	H	0.825327	-0.153006	-1.121813
H306	H	1.325327	0.346994	-0.621813
H307	H	0.759200	-0.193442	-1.141643
H308	H	1.259200	0.306558	-0.641643
H309	H	0.796588	-0.166440	-1.013438
H310	H	1.296588	0.333560	-0.513438
H311	H	0.730455	-0.206866	-1.033259
H312	H	1.230455	0.293134	-0.533259
O313	O	0.576460	-0.249727	-0.230571
O314	O	1.076460	0.250273	0.269429
C315	C	0.593061	-0.264995	-0.162454
C316	C	1.093061	0.235005	0.337546
H317	H	0.643266	-0.291989	-0.159889
H318	H	1.143266	0.208011	0.340111
H319	H	0.551774	-0.301080	-0.138113
H320	H	1.051774	0.198920	0.361887
C321	C	0.537489	-0.163311	-0.127545
C322	C	1.037489	0.336689	0.372455
C323	C	0.599154	-0.196460	-0.124394
C324	C	1.099154	0.303540	0.375606
H325	H	0.541244	-0.121036	-0.104066
H326	H	1.041244	0.378964	0.395934
H327	H	0.526302	-0.153025	-0.173436
H328	H	1.026302	0.346975	0.326564
H329	H	0.503089	-0.193389	-0.107262
H330	H	1.003089	0.306611	0.392738
H331	H	0.633551	-0.166385	-0.144684
H332	H	1.133551	0.333615	0.355316
H333	H	0.610347	-0.206739	-0.078505
H334	H	1.110347	0.293261	0.421495
O335	O	1.032871	-0.744342	-0.380922
O336	O	1.532871	-0.244342	0.119078
C337	C	1.073009	-0.696180	-0.421141
C338	C	1.573009	-0.196180	0.078859
H339	H	1.077485	-0.643904	-0.395568
H340	H	1.577485	-0.143904	0.104432
H341	H	1.048524	-0.688374	-0.472853
H342	H	1.548524	-0.188374	0.027147
C343	C	1.138386	-0.788938	-0.461178
C344	C	1.638386	-0.288938	0.038822
C345	C	1.143888	-0.724734	-0.429765
C346	C	1.643888	-0.224734	0.070235
H347	H	1.182107	-0.806552	-0.466500
H348	H	1.682107	-0.306552	0.033500
H349	H	1.111343	-0.821387	-0.434083
H350	H	1.611343	-0.321387	0.065917
H351	H	1.117979	-0.782424	-0.504267
H352	H	1.617979	-0.282424	-0.004267
H353	H	1.164287	-0.731250	-0.386673
H354	H	1.664287	-0.231250	0.113327
H355	H	1.170936	-0.692287	-0.456852
H356	H	1.670936	-0.192287	0.043148
H357	H	1.039438	-0.419734	-0.922950
H358	H	1.539438	0.080266	-0.422950
H359	H	0.709893	-0.256747	-0.237156
H360	H	1.209893	0.243253	0.262844
H361	H	0.896849	-1.070396	-0.244675
H362	H	1.396849	-0.570396	0.255325
