data_functionalizedCrystal
_audit_creation_method	'MofGen! by Chris Wilmer'
_symmetry_space_group_name_H-M	'P1'
_symmetry_Int_Tables_number	1
_symmetry_cell_setting	triclinic
loop_
_symmetry_equiv_pos_as_xyz
  x,y,z
_cell_length_a	14.519709
_cell_length_b	11.792254
_cell_length_c	10.868271
_cell_angle_alpha	89.995741
_cell_angle_beta	89.993918
_cell_angle_gamma	83.939371
loop_
_atom_site_label
_atom_site_type_symbol
_atom_site_fract_x
_atom_site_fract_y
_atom_site_fract_z
O1	O	0.126460	1.506199	-0.102324
O2	O	0.139475	1.175787	-0.102327
O3	O	-0.001238	1.349754	-0.102314
O4	O	0.267174	1.332233	-0.102337
O5	O	-0.001244	1.349739	0.102330
O6	O	0.139470	1.175773	0.102318
O7	O	0.126455	1.506184	0.102321
Zn8	Zn	0.132961	1.340977	0.134811
Zn9	Zn	0.132968	1.340995	-0.134817
O10	O	0.267168	1.332218	0.102308
C11	C	0.138652	1.133494	-0.000005
C12	C	0.136199	1.007495	-0.000006
C13	C	0.134205	0.905169	-0.000011
C14	C	0.131711	0.776796	-0.000011
C15	C	-0.035604	1.348930	0.000008
C16	C	-0.137994	1.346483	0.000009
C17	C	-0.512923	1.337475	-0.000023
C18	C	-0.408606	1.339976	-0.000014
C19	C	-0.325462	1.341979	-0.000006
C20	C	-0.221138	1.344481	0.000001
C21	C	0.301534	1.333042	-0.000017
C22	C	0.403924	1.335489	-0.000026
C23	C	0.127277	1.548478	-0.000004
C24	C	0.129731	1.674477	-0.000011
N25	N	0.132956	1.340972	0.318825
N26	N	0.132967	1.341009	-0.318831
C27	C	0.132967	1.340989	0.569831
C28	C	0.132963	1.340976	0.430153
