data_functionalizedCrystal
_audit_creation_method	'MofGen! by Chris Wilmer'
_symmetry_space_group_name_H-M	'P1'
_symmetry_Int_Tables_number	1
_symmetry_cell_setting	triclinic
loop_
_symmetry_equiv_pos_as_xyz
  x,y,z
_cell_length_a	17.038272
_cell_length_b	10.540539
_cell_length_c	9.616153
_cell_angle_alpha	90.000094
_cell_angle_beta	90.001349
_cell_angle_gamma	87.818524
loop_
_atom_site_label
_atom_site_type_symbol
_atom_site_fract_x
_atom_site_fract_y
_atom_site_fract_z
O1	O	-1.038954	-0.275808	-0.115461
O2	O	-0.811299	-0.271428	-0.115502
O3	O	-0.930320	-0.089396	-0.115479
O4	O	-0.919933	-0.457840	-0.115484
O5	O	-0.930304	-0.089398	0.115813
O6	O	-0.811282	-0.271431	0.115790
O7	O	-1.038938	-0.275810	0.115831
Zn8	Zn	-0.925107	-0.273621	0.152533
Zn9	Zn	-0.925129	-0.273617	-0.152204
O10	O	-0.919916	-0.457842	0.115807
C11	C	-0.782139	-0.267446	0.000139
C12	C	-0.695278	-0.255562	0.000123
C13	C	-0.929533	-0.042021	0.000164
C14	C	-0.927202	0.099144	0.000157
C15	C	-1.068097	-0.279792	0.000187
C16	C	-1.154958	-0.291676	0.000194
C17	C	-0.645791	-0.364672	0.000122
C18	C	-0.564176	-0.353498	0.000142
C19	C	-0.532050	-0.233213	0.000151
C20	C	-0.581544	-0.124094	0.000156
C21	C	-0.663157	-0.135270	0.000147
C22	C	-0.286065	-0.193733	0.000189
C23	C	-0.204446	-0.182566	0.000194
C24	C	-0.187084	-0.411971	0.000182
C25	C	-0.268699	-0.423136	0.000165
C26	C	-0.318186	-0.314017	0.000177
C27	C	-0.448627	-0.221788	0.000167
C28	C	-0.401607	-0.325443	0.000171
C29	C	-0.920703	-0.505217	0.000161
C30	C	-0.923034	-0.646382	0.000160
N31	N	-0.925098	-0.273623	0.360507
C32	C	-0.837895	0.290901	-0.000379
C33	C	-0.840258	0.144063	0.000142
C34	C	-0.969035	0.156897	0.132243
C35	C	-0.966067	0.303719	0.132354
C36	C	-0.967854	0.304075	-0.130668
C37	C	-0.968655	0.157018	-0.132414
N38	N	-0.925144	-0.273606	-0.360178
C39	C	-0.861235	-0.370633	0.580865
C40	C	-0.861376	-0.371032	0.419697
C41	C	-1.006891	-0.311386	0.418971
C42	C	-1.006543	-0.312082	0.580189
C43	C	-0.907983	-0.138588	0.580417
C44	C	-0.906106	-0.139277	0.419190
H45	H	-0.671941	-0.462621	0.000113
H46	H	-1.028596	0.345854	0.138357
F47	F	-0.968888	-0.044075	0.630249
F48	F	-1.051510	0.117625	-0.142833
F49	F	-1.049937	0.358147	-0.131817
F50	F	-0.875473	-0.500613	0.633776
F51	F	-0.797234	0.092389	-0.123618
F52	F	-0.925637	0.344350	0.261392
H53	H	-0.807097	0.105398	0.094973
F54	F	-0.511511	-0.469629	0.000135
H55	H	-0.422461	-0.123851	0.000214
F56	F	-0.715825	-0.019139	0.000152
F57	F	-0.928962	0.106724	-0.260152
F58	F	-0.931036	0.104763	0.260709
H59	H	-0.800602	-0.347232	0.380171
F60	F	-1.026949	-0.439046	0.366182
H61	H	-0.939722	0.338254	-0.230780
F62	F	-0.547351	0.003923	0.000176
F63	F	-0.435800	-0.453455	0.000166
H64	H	-0.800271	-0.347094	0.619665
F65	F	-1.070572	-0.221957	0.368861
H66	H	-0.872406	-0.471045	0.381118
H67	H	-1.021552	-0.410820	0.617779
F68	F	-0.302883	-0.551160	0.000147
H69	H	-0.803683	0.324298	0.093800
F70	F	-0.793010	0.332469	-0.124189
H71	H	-1.032884	0.128587	0.137165
F72	F	-0.831659	-0.094001	0.633609
H73	H	-1.055624	-0.244671	0.619187
H74	H	-0.845935	-0.110824	0.380979
H75	H	-0.146783	-0.500809	0.000176
F76	F	-0.170258	-0.054536	0.000229
H77	H	-0.949569	-0.063011	0.378903
H78	H	-0.326348	-0.104880	0.000200
