data_functionalizedCrystal
_audit_creation_method	'MofGen! by Chris Wilmer'
_symmetry_space_group_name_H-M	'P1'
_symmetry_Int_Tables_number	1
_symmetry_cell_setting	triclinic
loop_
_symmetry_equiv_pos_as_xyz
  x,y,z
_cell_length_a	14.853566
_cell_length_b	23.532357
_cell_length_c	13.330367
_cell_angle_alpha	89.999416
_cell_angle_beta	89.995932
_cell_angle_gamma	83.231353
loop_
_atom_site_label
_atom_site_type_symbol
_atom_site_fract_x
_atom_site_fract_y
_atom_site_fract_z
O1	O	1.195536	0.074343	-0.083370
O2	O	0.932977	0.083201	-0.083388
O3	O	1.072197	-0.004127	-0.083358
O4	O	1.056315	0.161671	-0.083400
O5	O	1.072176	-0.004113	0.083489
O6	O	0.932955	0.083215	0.083459
O7	O	1.195514	0.074357	0.083477
Cu8	Cu	1.064233	0.078787	0.098703
Cu9	Cu	1.064258	0.078771	-0.098613
O10	O	1.056294	0.161685	0.083447
C11	C	0.899382	0.082807	0.000034
C12	C	0.799312	0.081605	0.000028
C13	C	0.376195	0.076511	-0.090902
C14	C	0.376194	0.076527	0.091001
C15	C	0.470215	0.077656	0.090998
C16	C	0.517231	0.078214	0.000043
C17	C	0.470225	0.077642	-0.090908
C18	C	0.517226	0.078233	0.181948
C19	C	0.611253	0.079363	0.181948
C20	C	0.658272	0.079917	0.090992
C21	C	0.611261	0.079345	0.000037
C22	C	0.658276	0.079902	-0.090918
C23	C	0.611268	0.079326	-0.181874
C24	C	0.517244	0.078196	-0.181864
C25	C	0.752296	0.081047	0.090982
C26	C	0.752306	0.081033	-0.090924
C27	C	1.071789	-0.025338	0.000069
C28	C	1.070595	-0.088562	0.000078
C29	C	1.063109	-0.480614	-0.090925
C30	C	1.061973	-0.540018	-0.090931
O31	O	1.061365	-0.570744	-0.168279
N32	N	1.061398	-0.569724	0.000017
C33	C	1.061950	-0.540022	0.090975
O34	O	1.061356	-0.570744	0.168332
C35	C	1.063079	-0.480618	0.090980
C36	C	1.063663	-0.450916	0.000027
C37	C	1.063691	-0.450911	-0.181870
C38	C	1.064828	-0.391511	-0.181864
C39	C	1.065383	-0.361813	-0.090912
C40	C	1.064800	-0.391516	0.000033
C41	C	1.063624	-0.450916	0.181938
C42	C	1.064752	-0.391508	0.181935
C43	C	1.065336	-0.361806	0.090982
C44	C	1.066491	-0.302418	0.090991
N45	N	1.067066	-0.272712	0.000044
C46	C	1.066511	-0.302409	-0.090908
C47	C	1.059578	-0.664774	0.090958
C48	C	1.058455	-0.724177	0.090955
C49	C	1.058477	-0.724169	-0.090952
C50	C	1.059606	-0.664765	-0.090947
C51	C	1.060152	-0.635068	0.000011
C52	C	1.068900	-0.177665	-0.090888
C53	C	1.070041	-0.118260	-0.090874
C54	C	1.070014	-0.118273	0.091032
C55	C	1.068878	-0.177673	0.091018
C56	C	1.068318	-0.207367	0.000050
O57	O	1.067096	-0.271654	0.168300
O58	O	1.067093	-0.271679	-0.168252
C59	C	1.229109	0.074751	0.000053
C60	C	1.329180	0.075954	0.000053
C61	C	1.056702	0.182897	0.000018
C62	C	1.057896	0.246120	0.000002
N63	N	1.064222	0.078799	0.237484
N64	N	1.064277	0.078755	-0.237395
C65	C	1.118625	0.113365	0.710091
C66	C	1.009918	0.044154	0.710091
C67	C	1.009905	0.044162	0.605073
C68	C	1.064254	0.078773	0.552559
C69	C	1.118616	0.113374	0.605063
C70	C	0.955551	0.009558	0.552560
C71	C	0.955536	0.009565	0.447536
C72	C	1.009881	0.044178	0.395020
C73	C	1.064245	0.078781	0.447531
C74	C	1.118593	0.113391	0.395017
C75	C	1.172953	0.147998	0.447526
C76	C	1.172961	0.147987	0.552547
C77	C	1.009873	0.044189	0.289998
C78	C	1.118584	0.113400	0.289989
H79	H	0.337907	0.076077	0.165052
C80	C	0.755381	0.081097	0.262715
C81	C	0.662923	0.079990	0.281923
H82	H	0.787279	0.081485	0.324436
H83	H	0.777963	0.048097	0.225355
H84	H	0.763605	0.114466	0.225338
H85	H	0.654699	0.046618	0.319293
H86	H	0.640335	0.112993	0.319298
C87	C	0.907222	-0.021139	0.286550
C88	C	0.895765	-0.028460	0.389821
H89	H	0.870319	-0.044613	0.250921
H90	H	0.890120	0.017809	0.269368
H91	H	0.968997	-0.031659	0.269322
H92	H	0.833991	-0.017936	0.407050
H93	H	0.912862	-0.067417	0.407010
H94	H	1.060080	-0.640585	-0.165009
H95	H	1.162881	0.141543	0.752849
C96	C	0.983331	-0.591635	0.196514
C97	C	1.060191	-0.632134	0.190949
H98	H	0.983707	-0.571489	0.258246
H99	H	0.983841	-0.565441	0.142363
H100	H	0.930317	-0.610511	0.192723
H101	H	1.113206	-0.613257	0.194732
H102	H	1.059689	-0.658331	0.245115
C103	C	0.742862	0.080907	-0.270732
C104	C	0.803982	0.081649	-0.190906
H105	H	0.774766	0.081292	-0.332455
H106	H	0.713378	0.047282	-0.266938
H107	H	0.699001	0.113651	-0.266945
H108	H	0.847840	0.048903	-0.194689
H109	H	0.833480	0.115278	-0.194702
H110	H	1.058023	-0.748360	-0.165010
C111	C	1.221200	0.178736	0.286527
C112	C	1.232691	0.186042	0.389795
H113	H	1.258075	0.202225	0.250886
H114	H	1.238316	0.139793	0.269319
H115	H	1.159415	0.189245	0.269340
H116	H	1.294474	0.175528	0.406983
H117	H	1.215580	0.224993	0.407010
H118	H	0.478938	0.077783	0.255998
H119	H	1.070470	-0.094082	0.165083
H120	H	1.057994	-0.748357	0.165018
H121	H	1.068439	-0.201835	-0.164963
H122	H	0.790565	0.081522	0.165037
C123	C	0.373111	0.076465	-0.262619
C124	C	0.465569	0.077569	-0.281836
H125	H	0.341208	0.076083	-0.324338
H126	H	0.364886	0.043100	-0.225249
H127	H	0.350534	0.109469	-0.225251
H128	H	0.488148	0.044563	-0.319197
H129	H	0.473800	0.110938	-0.319222
C130	C	1.221251	0.178698	0.713537
C131	C	1.232716	0.186020	0.610267
H132	H	1.258147	0.202174	0.749171
H133	H	1.159481	0.189208	0.730757
H134	H	1.238366	0.139745	0.730720
H135	H	1.215595	0.224971	0.593082
H136	H	1.294499	0.175512	0.593040
C137	C	0.907229	-0.021147	0.713548
C138	C	0.895811	-0.028485	0.610277
H139	H	0.870339	-0.044631	0.749178
H140	H	0.968996	-0.031636	0.730790
H141	H	0.890078	0.017805	0.730713
H142	H	0.912968	-0.067436	0.593110
H143	H	0.834030	-0.017999	0.593028
C144	C	1.069942	-0.124227	-0.270685
C145	C	1.070676	-0.085612	-0.190856
H146	H	1.070327	-0.104071	-0.332407
H147	H	1.122075	-0.151701	-0.266900
H148	H	1.016916	-0.143092	-0.266895
H149	H	1.123706	-0.066750	-0.194642
H150	H	1.018538	-0.058128	-0.194644
H151	H	1.065300	-0.367333	-0.255928
H152	H	1.063237	-0.475085	-0.255938
H153	H	1.162837	0.141587	0.247239
H154	H	0.965676	0.015972	0.752854
H155	H	1.063150	-0.475090	0.256002
C156	C	1.064591	-0.397486	0.361743
C157	C	1.065345	-0.358866	0.281922
H158	H	1.064960	-0.377333	0.423469
H159	H	1.011576	-0.416351	0.357939
H160	H	1.116735	-0.424960	0.357963
H161	H	1.013197	-0.331394	0.285698
H162	H	1.118366	-0.339991	0.285728
H163	H	1.068411	-0.201858	0.165080
H164	H	0.649559	0.079784	-0.255929
H165	H	0.965617	0.016011	0.247250
H166	H	0.337917	0.076040	-0.164956
