data_functionalizedCrystal
_audit_creation_method	'MofGen! by Chris Wilmer'
_symmetry_space_group_name_H-M	'P1'
_symmetry_Int_Tables_number	1
_symmetry_cell_setting	triclinic
loop_
_symmetry_equiv_pos_as_xyz
  x,y,z
_cell_length_a	19.121102
_cell_length_b	29.839131
_cell_length_c	19.120904
_cell_angle_alpha	92.409150
_cell_angle_beta	90.088173
_cell_angle_gamma	87.595578
loop_
_atom_site_label
_atom_site_type_symbol
_atom_site_fract_x
_atom_site_fract_y
_atom_site_fract_z
Zn1	Zn	1.054749	-0.219753	-0.442036
Zn2	Zn	1.059636	-0.291816	-0.324791
Zn3	Zn	0.942520	-0.213364	-0.319821
Zn4	Zn	0.937448	-0.291514	-0.436994
O5	O	0.998588	-0.254112	-0.380911
O6	O	1.153501	-0.232113	-0.430674
O7	O	1.048269	-0.278861	-0.226027
O8	O	0.957485	-0.151347	-0.336063
O9	O	1.157092	-0.285057	-0.344535
O10	O	1.039939	-0.156042	-0.425855
O11	O	0.962224	-0.221223	-0.222376
O12	O	0.843743	-0.220930	-0.331174
O13	O	0.948840	-0.284542	-0.535767
O14	O	0.840017	-0.278346	-0.417260
O15	O	1.035020	-0.231820	-0.539472
O16	O	1.043351	-0.354640	-0.339645
O17	O	0.953579	-0.354418	-0.422080
C18	C	0.816443	-0.248912	-0.373131
C19	C	0.738519	-0.246699	-0.369819
C20	C	0.699992	-0.275595	-0.413013
C21	C	0.626774	-0.273510	-0.409905
C22	C	0.592086	-0.242531	-0.363599
C23	C	0.630619	-0.213632	-0.320403
C24	C	0.703835	-0.215716	-0.323515
C25	C	0.371117	-0.234741	-0.351966
C26	C	0.297896	-0.232660	-0.348855
C27	C	0.294056	-0.292537	-0.438359
C28	C	0.367274	-0.294620	-0.441464
C29	C	0.405800	-0.265720	-0.398271
C30	C	0.517246	-0.240400	-0.360419
C31	C	0.480639	-0.267849	-0.401455
C32	C	0.998463	-0.370830	-0.380870
C33	C	0.998473	-0.420765	-0.380879
C34	C	1.045411	-0.730519	-0.338056
C35	C	1.045496	-0.918195	-0.338087
O36	O	1.085306	-0.942551	-0.301646
N37	N	0.998731	-0.941559	-0.380970
C38	C	0.951945	-0.918001	-0.423851
O39	O	0.912175	-0.942181	-0.460332
C40	C	0.951864	-0.730326	-0.423824
C41	C	0.998627	-0.706964	-0.380933
C42	C	1.092171	-0.707157	-0.295169
C43	C	1.092146	-0.660241	-0.295159
C44	C	1.045362	-0.636686	-0.338036
C45	C	0.998602	-0.660048	-0.380923
C46	C	0.905081	-0.706770	-0.466708
C47	C	0.905066	-0.659848	-0.466699
C48	C	0.951829	-0.636486	-0.423808
C49	C	0.951794	-0.589577	-0.423789
N50	N	0.998559	-0.566213	-0.380906
C51	C	1.045343	-0.589768	-0.338030
C52	C	0.951990	-1.016534	-0.423862
C53	C	0.952010	-1.063452	-0.423868
C54	C	1.045562	-1.063642	-0.338104
C55	C	1.045539	-1.016723	-0.338095
C56	C	0.998755	-0.993169	-0.380979
C57	C	1.045288	-0.491240	-0.338011
C58	C	1.045257	-0.444319	-0.338003
C59	C	0.951708	-0.444133	-0.423769
C60	C	0.951735	-0.491049	-0.423775
C61	C	0.998531	-0.514602	-0.380894
O62	O	0.912011	-0.565193	-0.460217
O63	O	1.085117	-0.565581	-0.301566
C64	C	1.045435	-0.777435	-0.338066
C65	C	0.998676	-0.800797	-0.380953
C66	C	0.951891	-0.777243	-0.423830
C67	C	0.998695	-0.847716	-0.380959
C68	C	1.045479	-0.871270	-0.338082
C69	C	1.092244	-0.847906	-0.295199
C70	C	1.092220	-0.800990	-0.295189
C71	C	0.905126	-0.800607	-0.466712
C72	C	0.905154	-0.847523	-0.466718
C73	C	0.951938	-0.871078	-0.423842
C74	C	1.181445	-0.259331	-0.388721
C75	C	1.259368	-0.261556	-0.392050
C76	C	0.990819	-0.258860	-0.563768
C77	C	0.987508	-0.260884	-0.641691
C78	C	0.998732	-0.136939	-0.380967
C79	C	0.998794	-0.087007	-0.380991
C80	C	1.030820	-0.234387	-0.680230
C81	C	1.027700	-0.236286	-0.753446
C82	C	0.981272	-0.264686	-0.788123
C83	C	0.937956	-0.291184	-0.749580
C84	C	0.941072	-0.289282	-0.676364
C85	C	0.969615	-0.271800	-1.009090
C86	C	0.966503	-0.273701	-1.082311
C87	C	1.056247	-0.218802	-1.086172
C88	C	1.059362	-0.216905	-1.012955
C89	C	1.016043	-0.243401	-0.974418
C90	C	0.978084	-0.266629	-0.862963
C91	C	1.019228	-0.241455	-0.899580
C92	C	1.006368	-0.249350	-0.198766
C93	C	1.009815	-0.247204	-0.120849
H94	H	0.402476	-0.211211	-0.316789
C95	C	0.593087	-0.179951	-0.270104
C96	C	0.642501	-0.155084	-0.232956
C97	C	0.607954	-0.124049	-0.186619
H98	H	0.565802	-0.195447	-0.238232
H99	H	0.563424	-0.160266	-0.295750
H100	H	0.672152	-0.174767	-0.207312
H101	H	0.669787	-0.139578	-0.264810
H102	H	0.578291	-0.104363	-0.212264
H103	H	0.580671	-0.139549	-0.154751
H104	H	0.641476	-0.107170	-0.161413
H105	H	1.057027	-0.218330	-0.871343
H106	H	0.905796	-0.310854	-0.644987
C107	C	1.103152	-0.189974	-1.128045
C108	C	1.061702	-0.161131	-1.168379
C109	C	1.104887	-0.134561	-1.206954
H110	H	1.132475	-0.208720	-1.157964
H111	H	1.131235	-0.172761	-1.096928
H112	H	1.033632	-0.178342	-1.199493
H113	H	1.032381	-0.142375	-1.138478
H114	H	1.132969	-0.117349	-1.175836
H115	H	1.134207	-0.153311	-1.236868
H116	H	1.076769	-0.114985	-1.234320
C117	C	0.916201	-0.304591	-1.120008
C118	C	0.954069	-0.335618	-1.163712
C119	C	0.907758	-0.364081	-1.198444
H120	H	0.884453	-0.287324	-1.147328
H121	H	0.890855	-0.320126	-1.086597
H122	H	0.979404	-0.320084	-1.197119
H123	H	0.985815	-0.352895	-1.136409
H124	H	0.882412	-0.379617	-1.165033
H125	H	0.876013	-0.346811	-1.225761
H126	H	0.933445	-0.385139	-1.228096
H127	H	0.913614	-0.424947	-0.458676
H128	H	1.130227	-0.641222	-0.260236
C129	C	0.737738	-0.309160	-0.463336
C130	C	0.777909	-0.286134	-0.510119
C131	C	0.812695	-0.317039	-0.556482
H132	H	0.704381	-0.326084	-0.488686
H133	H	0.767455	-0.328817	-0.437697
H134	H	0.748194	-0.266484	-0.535755
H135	H	0.811278	-0.269211	-0.484788
H136	H	0.842412	-0.336696	-0.530844
H137	H	0.779333	-0.333961	-0.581828
H138	H	0.839960	-0.301420	-0.588226
H139	H	1.062971	-0.214710	-0.784821
H140	H	1.130272	-0.726330	-0.260254
H141	H	0.900150	-0.314306	-0.777819
C142	C	1.096391	-0.991443	-0.291507
C143	C	1.137372	-1.022120	-0.253973
C144	C	1.184234	-0.998852	-0.211055
H145	H	1.070972	-0.971605	-0.259733
H146	H	1.125809	-0.974693	-0.319635
H147	H	1.107958	-1.038863	-0.225847
H148	H	1.162806	-1.041959	-0.285729
H149	H	1.213652	-0.982102	-0.239183
H150	H	1.158809	-0.979015	-0.179285
H151	H	1.212050	-1.019663	-0.185588
H152	H	1.097171	-0.193780	-0.984727
H153	H	1.130336	-0.867092	-0.260286
C154	C	0.927795	-0.297523	-0.900659
C155	C	0.965670	-0.328545	-0.944366
C156	C	0.919367	-0.357013	-0.979099
H157	H	0.896040	-0.280259	-0.927977
H158	H	0.902455	-0.313063	-0.867248
H159	H	0.990998	-0.313007	-0.977773
H160	H	0.997422	-0.345819	-0.917066
H161	H	0.894027	-0.372553	-0.945688
H162	H	0.887615	-0.339745	-1.006413
H163	H	0.945058	-0.378067	-1.008753
H164	H	0.934351	-0.293382	-0.977722
C165	C	0.585070	-0.304942	-0.456825
C166	C	0.631120	-0.332529	-0.498023
C167	C	0.592728	-0.361497	-0.541246
H168	H	0.555224	-0.287827	-0.486274
H169	H	0.557642	-0.323000	-0.428743
H170	H	0.658536	-0.314473	-0.526102
H171	H	0.660966	-0.349654	-0.468592
H172	H	0.565300	-0.379555	-0.513165
H173	H	0.562884	-0.344379	-0.570691
H174	H	0.623968	-0.380222	-0.569200
H175	H	0.395512	-0.319847	-0.479171
H176	H	0.269654	-0.207429	-0.311151
C177	C	0.252102	-0.323856	-0.485226
C178	C	0.180557	-0.315396	-0.472606
C179	C	0.141887	-0.344234	-0.515777
H180	H	0.264420	-0.354120	-0.475431
H181	H	0.262076	-0.318887	-0.532872
H182	H	0.170587	-0.320368	-0.424970
H183	H	0.168217	-0.285137	-0.482404
H184	H	0.151862	-0.339265	-0.563423
H185	H	0.154212	-0.374496	-0.505979
H186	H	0.093340	-0.338494	-0.507224
H187	H	0.867030	-0.781432	-0.501629
H188	H	0.866970	-0.640673	-0.501623
H189	H	0.508885	-0.293070	-0.439160
C190	C	0.745760	-0.184419	-0.276579
C191	C	0.789685	-0.209838	-0.233372
C192	C	0.828324	-0.181022	-0.190134
H193	H	0.714702	-0.165661	-0.248489
H194	H	0.773247	-0.166391	-0.304653
H195	H	0.762201	-0.227859	-0.205301
H196	H	0.820757	-0.228595	-0.261443
H197	H	0.855810	-0.162994	-0.218207
H198	H	0.797259	-0.162265	-0.162048
H199	H	0.858135	-0.198264	-0.160817
C200	C	0.479542	-0.206836	-0.310061
C201	C	0.439390	-0.229862	-0.263261
C202	C	0.404650	-0.198957	-0.216862
H203	H	0.449815	-0.187166	-0.335650
H204	H	0.512946	-0.189927	-0.284734
H205	H	0.405990	-0.246764	-0.288586
H206	H	0.469101	-0.249531	-0.237656
H207	H	0.438054	-0.182048	-0.191535
H208	H	0.374927	-0.179288	-0.242457
H209	H	0.377408	-0.214576	-0.185099
H210	H	1.083395	-0.510411	-0.303095
C211	C	1.095998	-0.419009	-0.291319
C212	C	1.083754	-0.428226	-0.221298
C213	C	1.130487	-0.404925	-0.178277
H214	H	1.089334	-0.387684	-0.297356
H215	H	1.142672	-0.428283	-0.303591
H216	H	1.037091	-0.418949	-0.209030
H217	H	1.090423	-0.459547	-0.215239
H218	H	1.177162	-0.414199	-0.190548
H219	H	1.123820	-0.373601	-0.184320
H220	H	1.122191	-0.411178	-0.130763
C221	C	0.901314	-1.088794	-0.470551
C222	C	0.913586	-1.079596	-0.540575
C223	C	0.866907	-1.102937	-0.583605
H224	H	0.854624	-1.079548	-0.458333
H225	H	0.908025	-1.120118	-0.464467
H226	H	0.906870	-1.048280	-0.546656
H227	H	0.960267	-1.088845	-0.552815
H228	H	0.873618	-1.134260	-0.577521
H229	H	0.820220	-1.093688	-0.571380
H230	H	0.875232	-1.096702	-0.631121
C231	C	0.901300	-0.990947	-0.470513
C232	C	0.939026	-0.966283	-0.517190
C233	C	0.892351	-0.942715	-0.560179
H234	H	0.871889	-0.971069	-0.442446
H235	H	0.873465	-1.011574	-0.496089
H236	H	0.966848	-0.945659	-0.491617
H237	H	0.968435	-0.986151	-0.545272
H238	H	0.864516	-0.963341	-0.585755
H239	H	0.862942	-0.922839	-0.532107
H240	H	0.917941	-0.925981	-0.591859
C241	C	0.854281	-0.732046	-0.513356
C242	C	0.813328	-0.701368	-0.550915
C243	C	0.766528	-0.724635	-0.593904
H244	H	0.824833	-0.748811	-0.485297
H245	H	0.879767	-0.751871	-0.545110
H246	H	0.787843	-0.681551	-0.519165
H247	H	0.842757	-0.684601	-0.578987
H248	H	0.792014	-0.744460	-0.625659
H249	H	0.737084	-0.741400	-0.565840
H250	H	0.738740	-0.703824	-0.619398
H251	H	1.083656	-1.082829	-0.303192
C252	C	0.900933	-0.516337	-0.470415
C253	C	0.859967	-0.485664	-0.507973
C254	C	0.813173	-0.508939	-0.550959
H255	H	0.871493	-0.533106	-0.442354
H256	H	0.926424	-0.536159	-0.502170
H257	H	0.834478	-0.465850	-0.476222
H258	H	0.889388	-0.468894	-0.536048
H259	H	0.838664	-0.528761	-0.582714
H260	H	0.783738	-0.525708	-0.522892
H261	H	0.785376	-0.488132	-0.576452
C262	C	1.143074	-0.775712	-0.248602
C263	C	1.184057	-0.806391	-0.211073
C264	C	1.230921	-0.783125	-0.168155
H265	H	1.117657	-0.755875	-0.216824
H266	H	1.172491	-0.758961	-0.276729
H267	H	1.154644	-0.823135	-0.182948
H268	H	1.209489	-0.826229	-0.242833
H269	H	1.260338	-0.766374	-0.196283
H270	H	1.205499	-0.763289	-0.136382
H271	H	1.258739	-0.803938	-0.142692
H272	H	0.867068	-0.866540	-0.501645
C273	C	1.081250	-0.203507	-0.642711
C274	C	1.118498	-0.180699	-0.692136
C275	C	1.164953	-0.152242	-0.657602
H276	H	1.113054	-0.220772	-0.615448
H277	H	1.055686	-0.182402	-0.613029
H278	H	1.144060	-0.201801	-0.721807
H279	H	1.086713	-0.163425	-0.719401
H280	H	1.139390	-0.131138	-0.627919
H281	H	1.196752	-0.169511	-0.630340
H282	H	1.190227	-0.136761	-0.691131
