data_functionalizedCrystal
_audit_creation_method	'MofGen! by Chris Wilmer'
_symmetry_space_group_name_H-M	'P1'
_symmetry_Int_Tables_number	1
_symmetry_cell_setting	triclinic
loop_
_symmetry_equiv_pos_as_xyz
  x,y,z
_cell_length_a	10.654550
_cell_length_b	10.654551
_cell_length_c	9.130313
_cell_angle_alpha	89.998309
_cell_angle_beta	89.999724
_cell_angle_gamma	84.485146
loop_
_atom_site_label
_atom_site_type_symbol
_atom_site_fract_x
_atom_site_fract_y
_atom_site_fract_z
O1	O	1.667840	0.176399	-0.121680
O2	O	1.302362	0.193205	-0.121706
O3	O	1.493503	0.002063	-0.121693
O4	O	1.476699	0.367541	-0.121693
O5	O	1.493490	0.002057	0.121906
O6	O	1.302349	0.193199	0.121893
O7	O	1.667827	0.176393	0.121919
Cu8	Cu	1.485087	0.184796	0.144148
Cu9	Cu	1.485102	0.184802	-0.143935
O10	O	1.476685	0.367535	0.121906
C11	C	1.255557	0.191968	0.000090
C12	C	1.116114	0.188276	0.000080
C13	C	1.036629	0.300818	0.000084
C14	C	0.905608	0.297341	0.000110
C15	C	0.933570	0.068772	0.000120
C16	C	1.064588	0.072249	0.000105
C17	C	1.492262	-0.044738	0.000103
C18	C	1.488570	-0.184181	0.000093
C19	C	1.486845	-0.249690	-0.132690
C20	C	1.483365	-0.380711	-0.132684
C21	C	1.483340	-0.380702	0.132901
C22	C	1.486811	-0.249683	0.132893
C23	C	1.486865	-0.249697	-0.286024
C24	C	1.483384	-0.380717	-0.286018
C25	C	1.714631	0.177630	0.000120
C26	C	1.854075	0.181322	0.000120
C27	C	1.477926	0.414336	0.000107
C28	C	1.481619	0.553779	0.000107
N29	N	1.485085	0.184790	0.346771
N30	N	1.485114	0.184798	-0.346558
C31	C	1.569751	0.100188	0.423429
C32	C	1.569763	0.100189	0.576765
C33	C	1.400438	0.269404	0.576774
C34	C	1.400421	0.269396	0.423440
H35	H	1.488209	-0.196350	0.241018
N36	N	1.661099	0.008957	0.659448
H37	H	1.714732	-0.044631	0.587607
H38	H	1.717029	0.057583	0.723043
H39	H	0.840895	0.388984	0.000116
N40	N	1.371904	-0.188364	-0.363991
H41	H	1.399160	-0.139006	-0.450915
H42	H	1.318137	-0.255564	-0.398686
H43	H	1.481906	-0.434050	0.241022
H44	H	1.078576	0.395294	0.000074
N45	N	0.877996	-0.056366	0.000156
H46	H	0.782935	-0.041495	0.000165
H47	H	0.906994	-0.105671	-0.090146
H48	H	1.578466	-0.220129	-0.333592
N49	N	1.309127	0.360654	0.659466
H50	H	1.321985	0.347825	0.768236
H51	H	1.324399	0.449886	0.632650
H52	H	1.331470	0.338290	0.361021
N53	N	1.150321	-0.049147	0.000113
H54	H	1.133632	-0.099720	-0.090183
H55	H	1.241104	-0.029237	0.000164
N56	N	1.362056	-0.419872	-0.349064
H57	H	1.381475	-0.475636	-0.437222
H58	H	1.317453	-0.467734	-0.272585
N59	N	1.598348	-0.442048	-0.363982
H60	H	1.652165	-0.374916	-0.398769
H61	H	1.648708	-0.500927	-0.294427
H62	H	1.638687	0.031295	0.361009
