data_functionalizedCrystal
_audit_creation_method	'MofGen! by Chris Wilmer'
_symmetry_space_group_name_H-M	'P1'
_symmetry_Int_Tables_number	1
_symmetry_cell_setting	triclinic
loop_
_symmetry_equiv_pos_as_xyz
  x,y,z
_cell_length_a	14.519709
_cell_length_b	10.489716
_cell_length_c	13.596369
_cell_angle_alpha	89.998063
_cell_angle_beta	90.000291
_cell_angle_gamma	84.104640
loop_
_atom_site_label
_atom_site_type_symbol
_atom_site_fract_x
_atom_site_fract_y
_atom_site_fract_z
O1	O	1.224769	0.167205	-0.081654
O2	O	1.724769	0.667205	0.418346
O3	O	0.956398	0.186896	-0.081683
O4	O	1.456398	0.686896	0.418317
O5	O	1.096702	-0.008613	-0.081672
O6	O	1.596702	0.491387	0.418328
O7	O	1.084465	0.362714	-0.081666
O8	O	1.584465	0.862714	0.418334
O9	O	1.096688	-0.008623	0.081911
O10	O	1.596688	0.491377	0.581911
O11	O	0.956384	0.186885	0.081900
O12	O	1.456384	0.686885	0.581900
O13	O	1.224755	0.167195	0.081929
O14	O	1.724755	0.667195	0.581929
Zn15	Zn	1.090567	0.177039	0.107887
Zn16	Zn	1.590567	0.677039	0.607887
Zn17	Zn	1.090586	0.177052	-0.107641
Zn18	Zn	1.590586	0.677052	0.392359
O19	O	1.084451	0.362704	0.081917
O20	O	1.584451	0.862704	0.581917
C21	C	0.922026	0.185973	0.000104
C22	C	1.422026	0.685973	0.500104
C23	C	0.819630	0.183223	0.000093
C24	C	1.319630	0.683223	0.500093
C25	C	1.095775	-0.056141	0.000117
C26	C	1.595775	0.443859	0.500117
C27	C	1.093025	-0.197743	0.000108
C28	C	1.593025	0.302257	0.500108
C29	C	0.444680	0.173100	0.000138
C30	C	0.944680	0.673100	0.500138
C31	C	0.549003	0.175911	0.000125
C32	C	1.049003	0.675911	0.500125
C33	C	0.632152	0.178161	0.000114
C34	C	1.132152	0.678161	0.500114
C35	C	0.736481	0.180973	0.000103
C36	C	1.236481	0.680973	0.500103
C37	C	1.179063	-0.296314	0.000126
C38	C	1.679063	0.203686	0.500126
C39	C	1.133606	-0.373196	-0.080531
C40	C	1.633606	0.126804	0.419469
C41	C	1.133572	-0.373170	0.080748
C42	C	1.633572	0.126830	0.580748
C43	C	1.047603	-0.272760	-0.080616
C44	C	1.547603	0.227240	0.419384
C45	C	1.047582	-0.272729	0.080736
C46	C	1.547582	0.227271	0.580736
C47	C	1.002060	-0.349560	0.000059
C48	C	1.502060	0.150440	0.500059
C49	C	1.259126	0.168118	0.000139
C50	C	1.759126	0.668118	0.500139
C51	C	1.361523	0.170868	0.000144
C52	C	1.861523	0.670868	0.500144
C53	C	1.085377	0.410232	0.000127
C54	C	1.585377	0.910232	0.500127
C55	C	1.088128	0.551834	0.000129
C56	C	1.588128	1.051834	0.500129
N57	N	1.090561	0.177028	0.254978
N58	N	1.590561	0.677028	0.754978
N59	N	1.090599	0.177052	-0.254733
N60	N	1.590599	0.677052	0.245267
C61	C	1.090584	0.177054	0.656269
C62	C	1.590584	0.677054	1.156269
C63	C	1.090575	0.177051	0.544618
C64	C	1.590575	0.677051	1.044618
C65	C	1.090573	0.177042	0.455627
C66	C	1.590573	0.677042	0.955627
C67	C	1.090563	0.177037	0.343969
C68	C	1.590563	0.677037	0.843969
H69	H	1.253902	-0.272417	0.000052
H70	H	1.753902	0.227583	0.500052
F71	F	1.000157	-0.215332	0.169861
F72	F	1.500157	0.284668	0.669861
H73	H	1.169904	-0.417025	0.148936
H74	H	1.669904	0.082975	0.648936
F75	F	0.904168	-0.380476	-0.000005
F76	F	1.404168	0.119524	0.499995
H77	H	1.169932	-0.417065	-0.148715
H78	H	1.669932	0.082935	0.351285
F79	F	1.000165	-0.215664	-0.169846
F80	F	1.500165	0.284336	0.330154
