data_functionalizedCrystal
_audit_creation_method	'MofGen! by Chris Wilmer'
_symmetry_space_group_name_H-M	'P1'
_symmetry_Int_Tables_number	1
_symmetry_cell_setting	triclinic
loop_
_symmetry_equiv_pos_as_xyz
  x,y,z
_cell_length_a	10.723023
_cell_length_b	11.026607
_cell_length_c	9.198806
_cell_angle_alpha	89.998911
_cell_angle_beta	89.996513
_cell_angle_gamma	96.526782
loop_
_atom_site_label
_atom_site_type_symbol
_atom_site_fract_x
_atom_site_fract_y
_atom_site_fract_z
O1	O	1.693992	0.170514	-0.120873
O2	O	2.193992	0.670514	0.379127
O3	O	1.334363	0.186836	-0.120879
O4	O	1.834363	0.686836	0.379121
O5	O	1.484372	0.001774	-0.120871
O6	O	1.984372	0.501774	0.379129
O7	O	1.543983	0.355576	-0.120881
O8	O	2.043983	0.855576	0.379119
O9	O	1.484356	0.001773	0.120914
O10	O	1.984356	0.501773	0.620914
O11	O	1.334347	0.186836	0.120906
O12	O	1.834347	0.686836	0.620906
O13	O	1.693977	0.170513	0.120912
O14	O	2.193977	0.670513	0.620912
Cu15	Cu	1.514161	0.178674	0.142986
Cu16	Cu	2.014161	0.678674	0.642986
Cu17	Cu	1.514179	0.178675	-0.142953
Cu18	Cu	2.014179	0.678675	0.357047
O19	O	1.543968	0.355576	0.120904
O20	O	2.043968	0.855576	0.620904
C21	C	1.287599	0.185649	0.000013
C22	C	1.787599	0.685649	0.500013
C23	C	1.148278	0.182095	0.000011
C24	C	1.648278	0.682095	0.500011
C25	C	1.086156	0.180511	0.125262
C26	C	1.586156	0.680511	0.625262
C27	C	0.942160	0.176838	0.125262
C28	C	1.442160	0.676838	0.625262
C29	C	1.473367	-0.043529	0.000020
C30	C	1.973367	0.456471	0.500020
C31	C	1.440583	-0.178516	0.000014
C32	C	1.940583	0.321484	0.500014
C33	C	1.531104	-0.251568	0.000013
C34	C	2.031104	0.248432	0.500013
C35	C	1.497223	-0.391084	0.000007
C36	C	1.997223	0.108916	0.500007
C37	C	1.740740	0.171701	0.000017
C38	C	2.240740	0.671701	0.500017
C39	C	1.880062	0.175254	0.000010
C40	C	2.380062	0.675254	0.500010
C41	C	1.554973	0.400878	0.000011
C42	C	2.054973	0.900878	0.500011
C43	C	1.587756	0.535865	0.000007
C44	C	2.087756	1.035865	0.500007
N45	N	1.514157	0.178673	0.344100
N46	N	2.014157	0.678673	0.844100
N47	N	1.514190	0.178667	-0.344067
N48	N	2.014190	0.678667	0.155933
C49	C	1.577067	0.100628	0.416300
C50	C	2.077067	0.600628	0.916300
C51	C	1.577086	0.100624	0.583713
C52	C	2.077086	0.600624	1.083713
H53	H	0.933478	0.176624	-0.107227
H54	H	1.433478	0.676624	0.392773
F55	F	1.306500	-0.231765	-0.000002
F56	F	1.806500	0.268235	0.499998
H57	H	1.633684	-0.210823	0.000024
H58	H	2.133684	0.289177	0.500024
F59	F	1.443766	0.266002	0.425297
F60	F	1.943766	0.766002	0.925297
H61	H	1.460333	0.245492	0.593854
H62	H	1.960333	0.745492	1.093854
F63	F	1.721847	-0.410893	0.000002
F64	F	2.221847	0.089107	0.500002
H65	H	1.139575	0.181866	0.232493
H66	H	1.639575	0.681866	0.732493
H67	H	1.394636	-0.431824	-0.000004
H68	H	1.894636	0.068176	0.499996
H69	H	0.888737	0.175482	0.232494
H70	H	1.388737	0.675482	0.732494
H71	H	1.094858	0.180730	-0.107220
H72	H	1.594858	0.680730	0.392780
H73	H	1.630909	0.033809	0.354177
H74	H	2.130909	0.533809	0.854177
F75	F	1.647495	0.013291	0.664864
F76	F	2.147495	0.513291	1.164864
