data_functionalizedCrystal
_audit_creation_method	'MofGen! by Chris Wilmer'
_symmetry_space_group_name_H-M	'P1'
_symmetry_Int_Tables_number	1
_symmetry_cell_setting	triclinic
loop_
_symmetry_equiv_pos_as_xyz
  x,y,z
_cell_length_a	11.169417
_cell_length_b	11.169416
_cell_length_c	11.169409
_cell_angle_alpha	90.031307
_cell_angle_beta	90.020564
_cell_angle_gamma	90.011027
loop_
_atom_site_label
_atom_site_type_symbol
_atom_site_fract_x
_atom_site_fract_y
_atom_site_fract_z
Zn1	Zn	-1.834973	0.477683	-0.678551
Zn2	Zn	-1.584973	0.727683	-0.428551
Zn3	Zn	-1.334973	0.977683	-0.178551
Zn4	Zn	-1.084973	1.227683	0.071449
Zn5	Zn	-1.834860	0.678423	-0.477871
Zn6	Zn	-1.584860	0.928423	-0.227871
Zn7	Zn	-1.334860	1.178423	0.022129
Zn8	Zn	-1.084860	1.428423	0.272129
Zn9	Zn	-1.634256	0.477755	-0.477885
Zn10	Zn	-1.384256	0.727755	-0.227885
Zn11	Zn	-1.134256	0.977755	0.022115
Zn12	Zn	-0.884256	1.227755	0.272115
Zn13	Zn	-1.634267	0.678325	-0.678516
Zn14	Zn	-1.384267	0.928325	-0.428516
Zn15	Zn	-1.134267	1.178325	-0.178516
Zn16	Zn	-0.884267	1.428325	0.071484
O17	O	-1.734589	0.578047	-0.578206
O18	O	-1.484589	0.828047	-0.328206
O19	O	-1.234589	1.078047	-0.078206
O20	O	-0.984589	1.328047	0.171794
O21	O	-2.002907	0.504321	-0.651939
O22	O	-1.752907	0.754321	-0.401939
O23	O	-1.502907	1.004321	-0.151939
O24	O	-1.252907	1.254321	0.098061
O25	O	-1.808198	0.651875	-0.309923
O26	O	-1.558198	0.901875	-0.059923
O27	O	-1.308198	1.151875	0.190077
O28	O	-1.058198	1.401875	0.440077
O29	O	-1.660924	0.309796	-0.504524
O30	O	-1.410924	0.559796	-0.254524
O31	O	-1.160924	0.809796	-0.004524
O32	O	-0.910924	1.059796	0.245476
O33	O	-2.002825	0.651804	-0.504500
O34	O	-1.752825	0.901804	-0.254500
O35	O	-1.502825	1.151804	-0.004500
O36	O	-1.252825	1.401804	0.245500
O37	O	-1.808390	0.309742	-0.651953
O38	O	-1.558390	0.559742	-0.401953
O39	O	-1.308390	0.809742	-0.151953
O40	O	-1.058390	1.059742	0.098047
O41	O	-1.660815	0.504446	-0.309934
O42	O	-1.410815	0.754446	-0.059934
O43	O	-1.160815	1.004446	0.190066
O44	O	-0.910815	1.254446	0.440066
O45	O	-1.466308	0.504351	-0.504491
O46	O	-1.216308	0.754351	-0.254491
O47	O	-0.966308	1.004351	-0.004491
O48	O	-0.716308	1.254351	0.245509
O49	O	-1.660942	0.651638	-0.846470
O50	O	-1.410942	0.901638	-0.596470
O51	O	-1.160942	1.151638	-0.346470
O52	O	-0.910942	1.401638	-0.096470
O53	O	-1.466316	0.651709	-0.651893
O54	O	-1.216316	0.901709	-0.401893
O55	O	-0.966316	1.151709	-0.151893
O56	O	-0.716316	1.401709	0.098107
O57	O	-1.808400	0.504227	-0.846496
O58	O	-1.558400	0.754227	-0.596496
O59	O	-1.308400	1.004227	-0.346496
O60	O	-1.058400	1.254227	-0.096496
O61	O	-1.808208	0.846360	-0.504467
O62	O	-1.558208	1.096360	-0.254467
O63	O	-1.308208	1.346360	-0.004467
O64	O	-1.058208	1.596360	0.245533
O65	O	-1.660833	0.846288	-0.651880
O66	O	-1.410833	1.096288	-0.401880
O67	O	-1.160833	1.346288	-0.151880
O68	O	-0.910833	1.596288	0.098120
C69	C	-1.422764	0.578028	-0.578190
C70	C	-1.172764	0.828028	-0.328190
C71	C	-0.922764	1.078028	-0.078190
C72	C	-0.672764	1.328028	0.171810
C73	C	-1.289364	0.578049	-0.578212
C74	C	-1.039364	0.828049	-0.328212
C75	C	-0.789364	1.078049	-0.078212
C76	C	-0.539364	1.328049	0.171788
C77	C	-1.734542	0.889871	-0.578194
C78	C	-1.484542	1.139871	-0.328194
C79	C	-1.234542	1.389871	-0.078194
C80	C	-0.984542	1.639871	0.171806
C81	C	-1.734632	1.023271	-0.578229
C82	C	-1.484632	1.273271	-0.328229
C83	C	-1.234632	1.523271	-0.078229
C84	C	-0.984632	1.773271	0.171771
C85	C	-1.734685	0.577914	-0.891248
C86	C	-1.484685	0.827914	-0.641248
C87	C	-1.234685	1.077914	-0.391248
C88	C	-0.984685	1.327914	-0.141248
C89	C	-1.734726	0.577857	-1.024649
C90	C	-1.484726	0.827857	-0.774649
C91	C	-1.234726	1.077857	-0.524649
C92	C	-0.984726	1.327857	-0.274649
C93	C	-2.047631	0.578066	-0.578222
C94	C	-1.797631	0.828066	-0.328222
C95	C	-1.547631	1.078066	-0.078222
C96	C	-1.297631	1.328066	0.171778
C97	C	-2.181031	0.578074	-0.578229
C98	C	-1.931031	0.828074	-0.328229
C99	C	-1.681031	1.078074	-0.078229
C100	C	-1.431031	1.328074	0.171771
C101	C	-1.734668	0.265004	-0.578244
C102	C	-1.484668	0.515004	-0.328244
C103	C	-1.234668	0.765004	-0.078244
C104	C	-0.984668	1.015004	0.171756
C105	C	-1.734702	0.131604	-0.578260
C106	C	-1.484702	0.381604	-0.328260
C107	C	-1.234702	0.631604	-0.078260
C108	C	-0.984702	0.881604	0.171740
C109	C	-1.734562	0.578092	-0.266381
C110	C	-1.484562	0.828092	-0.016381
C111	C	-1.234562	1.078092	0.233619
C112	C	-0.984562	1.328092	0.483619
C113	C	-1.734754	0.577811	-0.132982
C114	C	-1.484754	0.827811	0.117018
C115	C	-1.234754	1.077811	0.367018
C116	C	-0.984754	1.327811	0.617018
