data_functionalizedCrystal
_audit_creation_method	'MofGen! by Chris Wilmer'
_symmetry_space_group_name_H-M	'P1'
_symmetry_Int_Tables_number	1
_symmetry_cell_setting	triclinic
loop_
_symmetry_equiv_pos_as_xyz
  x,y,z
_cell_length_a	14.519709
_cell_length_b	27.732048
_cell_length_c	12.996460
_cell_angle_alpha	89.988908
_cell_angle_beta	90.000034
_cell_angle_gamma	83.161400
loop_
_atom_site_label
_atom_site_type_symbol
_atom_site_fract_x
_atom_site_fract_y
_atom_site_fract_z
O1	O	1.222766	0.063362	-0.085445
O2	O	0.954160	0.070824	-0.085477
O3	O	1.096805	-0.003264	-0.085440
O4	O	1.080121	0.137450	-0.085482
O5	O	1.096791	-0.003268	0.085693
O6	O	0.954145	0.070820	0.085656
O7	O	1.222752	0.063358	0.085689
Cu8	Cu	1.088447	0.067089	0.101299
Cu9	Cu	1.088464	0.067093	-0.101087
O10	O	1.080106	0.137446	0.085652
C11	C	0.919799	0.070474	0.000086
C12	C	0.817435	0.069432	0.000074
C13	C	0.442606	0.065596	0.000122
C14	C	0.546896	0.066661	0.000108
C15	C	0.630018	0.067514	0.000097
C16	C	0.734314	0.068579	0.000085
C17	C	1.096448	-0.021274	0.000129
C18	C	1.095393	-0.074934	0.000138
C19	C	1.173048	-0.413378	0.000094
C20	C	1.169135	-0.615057	0.000080
O21	O	1.240145	-0.645973	0.000043
N22	N	1.084552	-0.634585	0.000070
C23	C	1.000941	-0.603690	0.000058
O24	O	0.928909	-0.624927	0.000039
C25	C	1.004855	-0.402012	0.000065
C26	C	1.089444	-0.382487	0.000085
C27	C	1.257630	-0.393853	0.000113
C28	C	1.258607	-0.343436	0.000122
C29	C	1.175003	-0.312545	0.000113
C30	C	1.090421	-0.332071	0.000094
C31	C	0.921246	-0.371118	0.000045
C32	C	0.922232	-0.320696	0.000045
C33	C	1.006820	-0.301171	0.000064
C34	C	1.007794	-0.250763	0.000094
N35	N	1.092377	-0.231235	0.000104
C36	C	1.175981	-0.262126	0.000113
C37	C	0.998893	-0.709574	0.000056
C38	C	0.997914	-0.759993	0.000056
C39	C	1.166108	-0.771356	0.000076
C40	C	1.167086	-0.720936	0.000083
C41	C	1.083476	-0.690045	0.000065
C42	C	1.178028	-0.156247	0.000133
C43	C	1.178998	-0.105825	0.000147
C44	C	1.010804	-0.094466	0.000122
C45	C	1.009833	-0.144883	0.000114
C46	C	1.093453	-0.175773	0.000116
O47	O	0.936822	-0.219818	0.000119
O48	O	1.248004	-0.240879	0.000109
C49	C	1.172071	-0.463795	0.000085
C50	C	1.087489	-0.483320	0.000066
C51	C	1.003885	-0.452429	0.000057
C52	C	1.086510	-0.533740	0.000066
C53	C	1.170115	-0.564631	0.000076
C54	C	1.254698	-0.545103	0.000085
C55	C	1.255675	-0.494686	0.000094
C56	C	0.919302	-0.471957	0.000048
C57	C	0.918331	-0.522375	0.000039
C58	C	1.001936	-0.553266	0.000049
C59	C	1.257113	0.063708	0.000124
C60	C	1.359476	0.064750	0.000129
C61	C	1.080464	0.155456	0.000080
C62	C	1.081518	0.209116	0.000065
N63	N	1.088442	0.067085	0.243646
N64	N	1.088477	0.067093	-0.243434
C65	C	1.088463	0.067094	0.663460
C66	C	1.088454	0.067093	0.546655
C67	C	1.088453	0.067090	0.453557
C68	C	1.088443	0.067088	0.336744
H69	H	1.247882	-0.089931	0.000166
O70	O	0.839132	-0.390132	-0.000122
C71	C	0.740386	-0.440410	-0.088861
C72	C	0.833428	-0.418920	-0.088782
H73	H	0.735735	-0.463681	-0.160546
H74	H	0.735677	-0.463770	-0.017298
H75	H	0.680828	-0.409654	-0.088827
H76	H	0.893039	-0.449645	-0.088853
H77	H	0.838056	-0.395548	-0.160339
O78	O	1.259338	-0.186179	0.000185
C79	C	1.426265	-0.192116	0.000158
C80	C	1.334251	-0.158163	0.000115
H81	H	1.486856	-0.169478	0.000079
H82	H	1.430074	-0.216004	0.071792
H83	H	1.429979	-0.216007	-0.071447
H84	H	1.330475	-0.134241	0.071671
H85	H	1.330481	-0.134308	-0.071567
H86	H	1.235965	-0.705043	0.000098
H87	H	1.234182	-0.796516	0.000084
H88	H	1.327488	-0.327544	0.000134
H89	H	0.929034	-0.775885	0.000058
O90	O	0.840925	-0.290759	0.000073
C91	C	0.673998	-0.284813	-0.000027
C92	C	0.766006	-0.318771	-0.000037
H93	H	0.613402	-0.307448	-0.000138
H94	H	0.670171	-0.260941	0.071611
H95	H	0.670310	-0.260907	-0.071628
H96	H	0.769755	-0.342708	0.071515
H97	H	0.769794	-0.342611	-0.071722
O98	O	0.929620	-0.064433	-0.000073
C99	C	0.833173	-0.000877	-0.088725
C100	C	0.925137	-0.034871	-0.088635
H101	H	0.829528	0.023040	-0.160309
H102	H	0.772506	-0.023464	-0.088807
H103	H	0.829433	0.022984	-0.017074
H104	H	0.928968	-0.058739	-0.160274
H105	H	0.985761	-0.012255	-0.088499
O106	O	1.338935	-0.423787	0.000171
C107	C	1.505861	-0.429720	0.000149
C108	C	1.413845	-0.395768	0.000096
H109	H	1.566450	-0.407080	0.000067
H110	H	1.509670	-0.453604	0.071789
H111	H	1.509579	-0.453615	-0.071450
H112	H	1.410065	-0.371843	0.071647
H113	H	1.410075	-0.371917	-0.071591
O114	O	0.927585	-0.163773	0.000052
C115	C	0.760864	-0.147174	0.000078
C116	C	0.853944	-0.125723	0.000140
H117	H	0.701301	-0.116421	0.000171
H118	H	0.756148	-0.170465	-0.071570
H119	H	0.756238	-0.170525	0.071669
H120	H	0.858633	-0.102351	-0.071402
H121	H	0.858621	-0.102460	0.071835
H122	H	0.930803	-0.684426	0.000042
H123	H	1.324556	-0.478794	0.000110
O124	O	1.335828	-0.575184	0.000046
C125	C	1.408838	-0.657900	0.000096
C126	C	1.316898	-0.623886	0.000125
H127	H	1.393566	-0.697282	0.000182
H128	H	1.450517	-0.650820	-0.071536
H129	H	1.450502	-0.650773	0.071703
H130	H	1.275159	-0.630992	-0.071433
H131	H	1.275289	-0.630972	0.071804
H132	H	0.849444	-0.538266	0.000032
H133	H	0.851220	-0.446810	0.000038
