data_functionalizedCrystal
_audit_creation_method	'MofGen! by Chris Wilmer'
_symmetry_space_group_name_H-M	'P1'
_symmetry_Int_Tables_number	1
_symmetry_cell_setting	triclinic
loop_
_symmetry_equiv_pos_as_xyz
  x,y,z
_cell_length_a	15.944545
_cell_length_b	14.421503
_cell_length_c	12.837942
_cell_angle_alpha	90.005286
_cell_angle_beta	90.837444
_cell_angle_gamma	90.004847
loop_
_atom_site_label
_atom_site_type_symbol
_atom_site_fract_x
_atom_site_fract_y
_atom_site_fract_z
O1	O	1.125224	0.077051	-0.133650
O2	O	0.881993	0.077066	-0.150140
O3	O	0.998215	0.077053	0.009008
O4	O	1.009002	0.077063	-0.292798
O5	O	0.998195	-0.077171	0.008984
O6	O	0.881973	-0.077158	-0.150164
O7	O	1.125204	-0.077173	-0.133674
Cu8	Cu	1.003587	-0.091247	-0.141921
Cu9	Cu	1.003610	0.091140	-0.141893
O10	O	1.008982	-0.077160	-0.292822
C11	C	0.850634	-0.000044	-0.149469
C12	C	0.757224	-0.000039	-0.147420
C13	C	0.478210	-0.000052	-0.042650
C14	C	0.532823	-0.076093	-0.093173
C15	C	0.420996	-0.000055	-0.140113
C16	C	0.532825	0.075959	-0.093176
C17	C	0.586196	-0.000045	-0.143698
C18	C	0.474378	-0.076158	-0.190610
C19	C	0.474375	0.075962	-0.190599
C20	C	0.528961	-0.000097	-0.241193
C21	C	0.325828	-0.000061	-0.138045
C22	C	0.681361	-0.000046	-0.145773
N23	N	1.003577	-0.219528	-0.141940
C24	C	0.949823	-0.469176	-0.215497
C25	C	1.027333	-0.530983	-0.235621
C26	C	1.003595	-0.408690	-0.141916
C27	C	0.926107	-0.530977	-0.121817
C28	C	1.003607	-0.591411	-0.141894
C29	C	1.081147	-0.469136	-0.162085
C30	C	0.979869	-0.469125	-0.048241
C31	C	1.057430	-0.530903	-0.068324
C32	C	1.003588	-0.303429	-0.141931
C33	C	1.003623	-0.696670	-0.141878
C34	C	1.156563	-0.000061	-0.134346
C35	C	1.249973	-0.000060	-0.136395
C36	C	0.994561	-0.000058	0.047616
C37	C	0.983693	-0.000056	0.162694
N38	N	1.003626	0.219421	-0.141866
C39	C	1.012636	-0.000047	-0.331431
C40	C	1.023504	-0.000043	-0.446509
C41	C	1.114346	-0.000045	0.403647
C42	C	1.104138	-0.000043	0.511773
C43	C	0.953072	-0.000043	0.487075
C44	C	0.963279	-0.000045	0.378949
C45	C	1.043919	-0.000047	0.337239
C46	C	1.054126	-0.000056	0.229111
C47	C	0.903059	-0.000050	0.204414
C48	C	0.892852	-0.000048	0.312541
H49	H	0.904404	-0.442073	-0.277773
H50	H	1.180006	-0.000056	0.369687
C51	C	1.118939	-0.567298	0.015755
C52	C	1.192934	-0.629580	-0.015285
C53	C	1.254445	-0.665976	0.068788
C54	C	1.241961	-0.640091	0.183900
C55	C	1.167962	-0.577806	0.214945
C56	C	1.106451	-0.541409	0.130872
H57	H	1.202179	-0.648745	-0.100502
H58	H	1.309224	-0.712084	0.045806
H59	H	1.287495	-0.667034	0.246136
H60	H	1.158718	-0.558641	0.300163
H61	H	1.051672	-0.495301	0.153854
C62	C	0.837575	-0.567670	-0.098844
C63	C	0.821519	-0.672853	-0.093683
C64	C	0.732986	-0.709541	-0.070716
C65	C	0.660508	-0.641044	-0.052911
C66	C	0.676562	-0.535853	-0.058071
C67	C	0.765095	-0.499166	-0.081038
H68	H	0.875173	-0.723565	-0.106864
H69	H	0.721103	-0.787410	-0.066896
H70	H	0.594971	-0.668202	-0.035910
H71	H	0.622908	-0.485142	-0.044890
H72	H	0.776978	-0.421297	-0.084858
C73	C	0.567453	-0.162942	-0.037584
C74	C	0.543112	-0.260173	-0.077346
C75	C	0.577737	-0.347018	-0.021749
C76	C	0.636704	-0.336632	0.073609
C77	C	0.661049	-0.239397	0.113376
C78	C	0.626424	-0.152552	0.057779
H79	H	0.499458	-0.267864	-0.147940
H80	H	0.559715	-0.418997	-0.051187
H81	H	0.662336	-0.400920	0.114766
H82	H	0.704703	-0.231705	0.183970
H83	H	0.644446	-0.080572	0.087217
C84	C	0.804153	-0.000042	0.358431
C85	C	0.776357	-0.080122	0.429368
C86	C	0.687657	-0.080117	0.475257
C87	C	0.626754	-0.000032	0.450209
C88	C	0.654549	0.080053	0.379269
C89	C	0.743249	0.080048	0.333380
H90	H	0.821442	-0.139410	0.447913
H91	H	0.667081	-0.139402	0.527772
H92	H	0.561093	-0.000029	0.484179
H93	H	0.609464	0.139341	0.360724
H94	H	0.763825	0.139333	0.280865
C95	C	0.439901	-0.163100	-0.246190
C96	C	0.344558	-0.179190	-0.254494
C97	C	0.310079	-0.266130	-0.310071
C98	C	0.370943	-0.336981	-0.357346
C99	C	0.466291	-0.320893	-0.349044
C100	C	0.500770	-0.233953	-0.293466
H101	H	0.299498	-0.126740	-0.219497
H102	H	0.239496	-0.278038	-0.316217
H103	H	0.345420	-0.401339	-0.398488
H104	H	0.511351	-0.373343	-0.384041
H105	H	0.571354	-0.222045	-0.287321
H106	H	1.146705	-0.442085	-0.179171
C107	C	1.142826	-0.000056	0.183225
C108	C	1.203733	-0.080135	0.208278
C109	C	1.292436	-0.080132	0.162396
C110	C	1.320230	-0.000050	0.091462
C111	C	1.259322	0.080035	0.066406
C112	C	1.170619	0.080032	0.112288
H113	H	1.183159	-0.139422	0.260790
H114	H	1.337524	-0.139417	0.180944
H115	H	1.385893	-0.000048	0.057497
H116	H	1.279896	0.139322	0.013893
H117	H	1.125531	0.139316	0.093739
H118	H	0.959768	-0.441933	0.030943
H119	H	1.161488	-0.000037	0.565840
H120	H	1.047411	-0.558153	-0.314830
C121	C	0.864378	-0.000018	0.532979
C122	C	0.836574	-0.080082	0.603932
C123	C	0.747881	-0.080048	0.649842
C124	C	0.686992	0.000051	0.624798
C125	C	0.714795	0.080121	0.553841
C126	C	0.803488	0.080087	0.507932
H127	H	0.881648	-0.139381	0.622474
H128	H	0.727300	-0.139322	0.702369
H129	H	0.621337	0.000076	0.658783
H130	H	0.669721	0.139420	0.535299
H131	H	0.824069	0.139361	0.455404
H132	H	0.448727	0.140254	-0.231714
C133	C	0.447994	-0.000145	0.070741
C134	C	0.471988	-0.080700	0.144046
C135	C	0.441774	-0.080794	0.257436
C136	C	0.387567	-0.000333	0.297520
C137	C	0.363570	0.080229	0.224214
C138	C	0.393783	0.080323	0.110824
H139	H	0.512118	-0.140268	0.114374
H140	H	0.459539	-0.140432	0.311701
H141	H	0.365202	-0.000402	0.381458
H142	H	0.323440	0.139797	0.253885
H143	H	0.376019	0.139961	0.056558
C144	C	0.567451	0.162805	-0.037545
C145	C	0.662794	0.179150	-0.030107
C146	C	0.697418	0.265990	0.025532
C147	C	0.636698	0.336485	0.073735
C148	C	0.541349	0.320143	0.066299
C149	C	0.506725	0.233302	0.010660
H150	H	0.707748	0.126963	-0.065791
H151	H	0.768002	0.278088	0.031036
H152	H	0.662328	0.400770	0.114922
H153	H	0.496395	0.372329	0.101983
H154	H	0.436141	0.221205	0.005156
C155	C	0.825581	-0.000056	0.131366
C156	C	0.761865	0.080022	0.136048
C157	C	0.684388	0.080009	0.063001
C158	C	0.670627	-0.000083	-0.014728
C159	C	0.734345	-0.080168	-0.019413
C160	C	0.811822	-0.080154	0.053633
H161	H	0.772049	0.139317	0.193590
H162	H	0.637220	0.139294	0.066470
H163	H	0.613274	-0.000092	-0.068802
H164	H	0.724161	-0.139462	-0.076956
H165	H	0.858991	-0.139439	0.050165
H166	H	0.551172	-0.000138	-0.325194
