data_functionalizedCrystal
_audit_creation_method	'MofGen! by Chris Wilmer'
_symmetry_space_group_name_H-M	'P1'
_symmetry_Int_Tables_number	1
_symmetry_cell_setting	triclinic
loop_
_symmetry_equiv_pos_as_xyz
  x,y,z
_cell_length_a	11.169417
_cell_length_b	19.805405
_cell_length_c	19.805398
_cell_angle_alpha	89.969674
_cell_angle_beta	89.991171
_cell_angle_gamma	90.027289
loop_
_atom_site_label
_atom_site_type_symbol
_atom_site_fract_x
_atom_site_fract_y
_atom_site_fract_z
Zn1	Zn	1.834698	-0.269456	-0.382634
Zn2	Zn	2.334698	0.230544	0.117366
Zn3	Zn	1.834570	-0.382647	-0.269442
Zn4	Zn	2.334570	0.117353	0.230558
Zn5	Zn	1.634022	-0.269479	-0.269467
Zn6	Zn	2.134022	0.230521	0.230533
Zn7	Zn	1.633935	-0.382610	-0.382598
Zn8	Zn	2.133935	0.117390	0.117402
O9	O	1.734306	-0.326048	-0.326035
O10	O	2.234306	0.173952	0.173965
O11	O	2.002631	-0.284477	-0.367624
O12	O	2.502631	0.215523	0.132376
O13	O	1.807949	-0.367659	-0.174729
O14	O	2.307949	0.132341	0.325271
O15	O	1.660733	-0.174759	-0.284505
O16	O	2.160733	0.325241	0.215495
O17	O	2.002536	-0.367637	-0.284462
O18	O	2.502536	0.132363	0.215538
O19	O	1.808168	-0.174743	-0.367648
O20	O	2.308168	0.325257	0.132352
O21	O	1.660608	-0.284515	-0.174747
O22	O	2.160608	0.215485	0.325253
O23	O	1.466061	-0.284480	-0.284469
O24	O	1.966061	0.215520	0.215531
O25	O	1.660584	-0.367576	-0.477319
O26	O	2.160584	0.132424	0.022681
O27	O	1.465997	-0.367597	-0.367586
O28	O	1.965997	0.132403	0.132414
O29	O	1.808084	-0.284442	-0.477346
O30	O	2.308084	0.215558	0.022654
O31	O	1.807865	-0.477358	-0.284427
O32	O	2.307865	0.022642	0.215573
O33	O	1.660459	-0.477332	-0.367562
O34	O	2.160459	0.022668	0.132438
C35	C	1.422482	-0.326038	-0.326027
C36	C	1.922482	0.173962	0.173973
C37	C	1.289082	-0.326050	-0.326039
C38	C	1.789082	0.173950	0.173961
C39	C	1.734171	-0.501904	-0.326003
C40	C	2.234171	-0.001904	0.173997
C41	C	1.734223	-0.577136	-0.326011
C42	C	2.234223	-0.077136	0.173989
C43	C	1.811052	-0.612472	-0.282768
C44	C	2.311052	-0.112472	0.217232
C45	C	1.811103	-0.683160	-0.282783
C46	C	2.311103	-0.183160	0.217217
C47	C	1.734318	-0.718512	-0.326038
C48	C	2.234318	-0.218512	0.173962
C49	C	1.657486	-0.683171	-0.369286
C50	C	2.157486	-0.183171	0.130714
C51	C	1.657442	-0.612484	-0.369274
C52	C	2.157442	-0.112484	0.130726
C53	C	1.657663	-0.968244	-0.369336
C54	C	2.157663	-0.468244	0.130664
C55	C	1.657711	-1.038936	-0.369343
C56	C	2.157711	-0.538936	0.130657
C57	C	1.811324	-1.038920	-0.282845
C58	C	2.311324	-0.538920	0.217155
C59	C	1.811280	-0.968233	-0.282833
C60	C	2.311280	-0.468233	0.217167
C61	C	1.734453	-0.932899	-0.326083
C62	C	2.234453	-0.432899	0.173917
C63	C	1.734400	-0.856250	-0.326067
C64	C	2.234400	-0.356250	0.173933
C65	C	1.734364	-0.795159	-0.326051
C66	C	2.234364	-0.295159	0.173949
C67	C	2.047349	-0.326059	-0.326044
C68	C	2.547349	0.173941	0.173956
C69	C	2.180749	-0.326063	-0.326048
C70	C	2.680749	0.173937	0.173952
C71	C	1.734338	-0.326002	-0.502578
C72	C	2.234338	0.173998	-0.002578
C73	C	1.734352	-0.325983	-0.577810
C74	C	2.234352	0.174017	-0.077810
C75	C	1.734475	-0.149505	-0.326083
C76	C	2.234475	0.350495	0.173917
C77	C	1.734546	-0.074273	-0.326103
C78	C	2.234546	0.425727	0.173897
C79	C	1.811262	-0.369168	-1.039589
C80	C	2.311262	0.130832	-0.539589
C81	C	1.811229	-0.369187	-0.968901
C82	C	2.311229	0.130813	-0.468901
C83	C	1.734501	-0.325906	-0.933572
C84	C	2.234501	0.174094	-0.433572
C85	C	1.657793	-0.282610	-0.968935
C86	C	2.157793	0.217390	-0.468935
C87	C	1.657821	-0.282595	-1.039622
C88	C	2.157821	0.217405	-0.539622
C89	C	1.657677	-0.282668	-0.683862
C90	C	2.157677	0.217332	-0.183862
C91	C	1.657658	-0.282684	-0.613170
C92	C	2.157658	0.217316	-0.113170
C93	C	1.811085	-0.369259	-0.613140
C94	C	2.311085	0.130741	-0.113140
C95	C	1.811113	-0.369244	-0.683828
C96	C	2.311113	0.130756	-0.183828
C97	C	1.734401	-0.325951	-0.719185
C98	C	2.234401	0.174049	-0.219185
C99	C	1.734436	-0.325932	-0.795833
C100	C	2.234436	0.174068	-0.295833
C101	C	1.734471	-0.325921	-0.856925
C102	C	2.234471	0.174079	-0.356925
C103	C	1.734343	-0.326045	-0.150179
C104	C	2.234343	0.173955	0.349821
C105	C	1.734562	-0.325874	-0.074948
C106	C	2.234562	0.174126	0.425052
H107	H	1.873663	-0.711927	-0.247570
H108	H	2.373663	-0.211927	0.252430
H109	H	1.873800	-0.939452	-0.247609
H110	H	2.373800	-0.439452	0.252391
H111	H	1.873885	-1.067698	-0.247632
H112	H	2.373885	-0.567698	0.252368
H113	H	1.595173	-0.247438	-0.584407
H114	H	2.095173	0.252562	-0.084407
H115	H	1.595212	-0.247416	-0.712641
H116	H	2.095212	0.252584	-0.212641
H117	H	1.873596	-0.404485	-0.712589
H118	H	2.373596	0.095515	-0.212589
C119	C	1.574302	-1.077198	-0.416387
C120	C	2.074302	-0.577198	0.083613
C121	C	1.507035	-1.031125	-0.454276
C122	C	2.007035	-0.531125	0.045724
C123	C	1.430203	-1.066347	-0.497623
C124	C	1.930203	-0.566347	0.002377
H125	H	1.521949	-1.104817	-0.390552
H126	H	2.021949	-0.604817	0.109448
H127	H	1.620176	-1.104717	-0.445937
H128	H	2.120176	-0.604717	0.054063
H129	H	1.461165	-1.003617	-0.424730
H130	H	1.961165	-0.503617	0.075270
H131	H	1.559357	-1.003504	-0.480125
H132	H	2.059357	-0.503504	0.019875
H133	H	1.476076	-1.093866	-0.527172
H134	H	1.976076	-0.593866	-0.027172
H135	H	1.377857	-1.093965	-0.471782
H136	H	1.877857	-0.593965	0.028218
H137	H	1.384561	-1.035092	-0.523340
H138	H	1.884561	-0.535092	-0.023340
H139	H	1.873748	-0.404409	-1.068349
H140	H	2.373748	0.095591	-0.568349
C141	C	1.574440	-0.929856	-0.416371
C142	C	2.074440	-0.429856	0.083629
C143	C	1.642304	-0.889226	-0.459799
C144	C	2.142304	-0.389226	0.040201
C145	C	1.565674	-0.853859	-0.503145
C146	C	2.065674	-0.353859	-0.003145
H147	H	1.522135	-0.902267	-0.390530
H148	H	2.022135	-0.402267	0.109470
H149	H	1.528739	-0.961017	-0.442168
H150	H	2.028739	-0.461017	0.057832
H151	H	1.687985	-0.858068	-0.434005
H152	H	2.187985	-0.358068	0.065995
H153	H	1.694606	-0.916798	-0.485655
H154	H	2.194606	-0.416798	0.014345
H155	H	1.519973	-0.885021	-0.528941
H156	H	2.019973	-0.385021	-0.028941
H157	H	1.513373	-0.826275	-0.477298
H158	H	2.013373	-0.326275	0.022702
H159	H	1.611709	-0.826293	-0.532619
H160	H	2.111709	-0.326293	-0.032619
C161	C	1.574618	-0.235644	-0.930458
C162	C	2.074618	0.264356	-0.430458
C163	C	1.591033	-0.244908	-0.860985
C164	C	2.091033	0.255092	-0.360985
C165	C	1.514446	-0.201646	-0.825521
C166	C	2.014446	0.298354	-0.325521
H167	H	1.493924	-0.245502	-0.941960
H168	H	1.993924	0.254498	-0.441960
H169	H	1.592243	-0.190151	-0.942020
H170	H	2.092243	0.309849	-0.442020
H171	H	1.573399	-0.290391	-0.849428
H172	H	2.073399	0.209609	-0.349428
H173	H	1.671711	-0.235046	-0.849464
H174	H	2.171711	0.264954	-0.349464
H175	H	1.532071	-0.156153	-0.837082
H176	H	2.032071	0.343847	-0.337082
H177	H	1.433757	-0.211507	-0.837028
H178	H	1.933757	0.288493	-0.337028
H179	H	1.525581	-0.207921	-0.778380
H180	H	2.025581	0.292079	-0.278380
C181	C	1.894489	-0.574007	-0.235913
C182	C	2.394489	-0.074007	0.264087
C183	C	1.971321	-0.533349	-0.274265
C184	C	2.471321	-0.033349	0.225735
C185	C	2.048194	-0.497902	-0.231125
C186	C	2.548194	0.002098	0.268875
H187	H	1.940367	-0.605101	-0.210147
H188	H	2.440367	-0.105101	0.289853
H189	H	1.848632	-0.546436	-0.206404
H190	H	2.348632	-0.046436	0.293596
H191	H	2.017174	-0.560918	-0.303762
H192	H	2.517174	-0.060918	0.196238
H193	H	1.925476	-0.502243	-0.300030
H194	H	2.425476	-0.002243	0.199970
H195	H	2.002336	-0.470331	-0.201617
H196	H	2.502336	0.029669	0.298383
H197	H	2.094063	-0.529001	-0.205362
H198	H	2.594063	-0.029001	0.294638
H199	H	2.100326	-0.470307	-0.257141
H200	H	2.600326	0.029693	0.242859
C201	C	1.574270	-0.721516	-0.416363
C202	C	2.074270	-0.221516	0.083637
C203	C	1.600332	-0.704278	-0.483342
C204	C	2.100332	-0.204278	0.016658
C205	C	1.523705	-0.739593	-0.526728
C206	C	2.023705	-0.239593	-0.026728
H207	H	1.493592	-0.710005	-0.406508
H208	H	1.993592	-0.210005	0.093492
H209	H	1.585308	-0.768682	-0.410222
H210	H	2.085308	-0.268682	0.089778
H211	H	1.589284	-0.657122	-0.489481
H212	H	2.089284	-0.157122	0.010519
H213	H	1.680996	-0.715791	-0.493219
H214	H	2.180996	-0.215791	0.006781
H215	H	1.534743	-0.786759	-0.520587
H216	H	2.034743	-0.286759	-0.020587
H217	H	1.443031	-0.728079	-0.516867
H218	H	1.943031	-0.228079	-0.016867
H219	H	1.541384	-0.727907	-0.572179
H220	H	2.041384	-0.227907	-0.072179
H221	H	1.873671	-0.404450	-0.940115
H222	H	2.373671	0.095550	-0.440115
C223	C	1.574228	-0.574079	-0.416307
C224	C	2.074228	-0.074079	0.083693
C225	C	1.642114	-0.533451	-0.459725
C226	C	2.142114	-0.033451	0.040275
C227	C	1.565502	-0.498070	-0.503070
C228	C	2.065502	0.001930	-0.003070
H229	H	1.521927	-0.546489	-0.390465
H230	H	2.021927	-0.046489	0.109535
H231	H	1.528522	-0.605233	-0.442110
H232	H	2.028522	-0.105233	0.057890
H233	H	1.687799	-0.502301	-0.433924
H234	H	2.187799	-0.002301	0.066076
H235	H	1.694411	-0.561024	-0.485582
H236	H	2.194411	-0.061024	0.014418
H237	H	1.519796	-0.529224	-0.528874
H238	H	2.019796	-0.029224	-0.028874
H239	H	1.513205	-0.470484	-0.477223
H240	H	2.013205	0.029516	0.022777
H241	H	1.611552	-0.470504	-0.532539
H242	H	2.111552	0.029496	-0.032539
H243	H	1.873544	-0.404513	-0.584344
H244	H	2.373544	0.095487	-0.084344
C245	C	1.574502	-0.235514	-1.077892
C246	C	2.074502	0.264486	-0.577892
C247	C	1.507323	-0.197601	-1.031825
C248	C	2.007323	0.302399	-0.531825
C249	C	1.430562	-0.154218	-1.067053
C250	C	1.930562	0.345782	-0.567053
H251	H	1.522090	-0.261325	-1.105462
H252	H	2.022090	0.238675	-0.605462
H253	H	1.620423	-0.205982	-1.105462
H254	H	2.120423	0.294018	-0.605462
H255	H	1.461406	-0.227129	-1.004267
H256	H	1.961406	0.272871	-0.504267
H257	H	1.559704	-0.171777	-1.004253
H258	H	2.059704	0.328223	-0.504253
H259	H	1.476483	-0.124686	-1.094623
H260	H	1.976483	0.375314	-0.594623
H261	H	1.378158	-0.180034	-1.094622
H262	H	1.878158	0.319966	-0.594622
H263	H	1.384980	-0.128484	-1.035802
H264	H	1.884980	0.371516	-0.535802
