data_functionalizedCrystal
_audit_creation_method	'MofGen! by Chris Wilmer'
_symmetry_space_group_name_H-M	'P1'
_symmetry_Int_Tables_number	1
_symmetry_cell_setting	triclinic
loop_
_symmetry_equiv_pos_as_xyz
  x,y,z
_cell_length_a	13.339070
_cell_length_b	11.804783
_cell_length_c	13.261948
_cell_angle_alpha	92.333730
_cell_angle_beta	80.573318
_cell_angle_gamma	99.433819
loop_
_atom_site_label
_atom_site_type_symbol
_atom_site_fract_x
_atom_site_fract_y
_atom_site_fract_z
O1	O	-1.298241	0.249920	0.465632
O2	O	-1.007267	0.229154	0.401565
O3	O	-1.168541	0.194323	0.294036
O4	O	-1.136966	0.284752	0.573161
O5	O	-1.202480	0.010846	0.338988
O6	O	-1.041206	0.045678	0.446518
O7	O	-1.332180	0.066444	0.510584
Cu8	Cu	-1.189792	0.039308	0.482655
Cu9	Cu	-1.149655	0.256290	0.429494
O10	O	-1.170905	0.101275	0.618113
C11	C	-0.987147	0.133908	0.413219
C12	C	-0.876634	0.123454	0.380961
C13	C	-0.497935	0.204726	0.631790
C14	C	-0.601767	0.214553	0.662101
C15	C	-0.670489	0.191779	0.591818
C16	C	-0.635369	0.159176	0.491220
C17	C	-0.531526	0.149357	0.460904
C18	C	-0.704079	0.136410	0.420932
C19	C	-0.668960	0.103807	0.320334
C20	C	-0.565127	0.093989	0.290024
C21	C	-0.496405	0.116763	0.360306
C22	C	-0.807922	0.146229	0.451248
C23	C	-0.841513	0.090860	0.280362
C24	C	-0.737682	0.081033	0.250052
N25	N	-1.218029	-0.113305	0.520048
C26	C	-1.053582	-0.557882	0.302287
C27	C	-1.032202	-0.442398	0.273988
C28	C	-1.078656	-0.360120	0.335501
C29	C	-1.146496	-0.393335	0.425316
C30	C	-1.167885	-0.508831	0.453613
C31	C	-1.192959	-0.311069	0.486828
C32	C	-1.260798	-0.344284	0.576643
C33	C	-1.282183	-0.459769	0.604936
C34	C	-1.235728	-0.542048	0.543423
C35	C	-1.171570	-0.195573	0.458531
C36	C	-1.285873	-0.146522	0.609857
C37	C	-1.307253	-0.262005	0.638156
C38	C	-0.352300	0.161687	0.498931
C39	C	-0.462814	0.172132	0.531192
C40	C	-1.186865	0.090776	0.280057
C41	C	-1.190890	0.055591	0.171428
N42	N	-1.121426	0.408901	0.392096
C43	C	-1.211268	-0.060953	0.144876
C44	C	-1.215035	-0.093994	0.042808
C45	C	-1.198415	-0.010494	-0.032719
C46	C	-1.178029	0.106052	-0.006168
C47	C	-1.174270	0.139097	0.095911
C48	C	-1.161416	0.189556	-0.081684
C49	C	-1.141030	0.306102	-0.055134
C50	C	-1.137271	0.339141	0.046936
C51	C	-1.153891	0.255641	0.122463
C52	C	-1.165175	0.156511	-0.183764
C53	C	-1.128176	0.356561	-0.232729
C54	C	-1.124410	0.389602	-0.130661
C55	C	-1.152581	0.204824	0.632092
C56	C	-1.148555	0.240017	0.740719
H57	H	-0.536535	0.067454	0.208107
O58	O	-0.841882	0.178048	0.548956
C59	C	-0.788730	0.287525	0.570231
H60	H	-0.712259	0.304202	0.516158
H61	H	-0.773754	0.291143	0.652591
H62	H	-0.837195	0.355754	0.559150
H63	H	-1.323701	-0.079529	0.659946
H64	H	-0.441973	0.223275	0.689000
O65	O	-0.771327	0.201322	0.621441
C66	C	-0.787584	0.235007	0.725294
H67	H	-0.724653	0.210297	0.764719
H68	H	-0.865880	0.189988	0.763820
H69	H	-0.785366	0.331971	0.731323
H70	H	-1.224806	-0.128926	0.206378
O71	O	-1.057855	-0.247881	0.308195
C72	C	-1.014165	-0.181229	0.385447
H73	H	-1.037240	-0.228587	0.461006
H74	H	-1.043204	-0.095191	0.393548
H75	H	-0.926726	-0.166013	0.364256
O76	O	-0.395536	0.107330	0.330707
C77	C	-0.352471	0.183912	0.250452
H78	H	-0.416254	0.205089	0.210263
H79	H	-0.295208	0.142364	0.193408
H80	H	-0.311127	0.266207	0.282787
H81	H	-1.201482	-0.037403	-0.115826
O82	O	-1.104739	0.502853	-0.104966
C83	C	-1.181275	0.559717	-0.132160
H84	H	-1.218223	0.508658	-0.195110
H85	H	-1.144944	0.649173	-0.160879
H86	H	-1.242545	0.567302	-0.062484
O87	O	-1.373025	-0.294192	0.725498
C88	C	-1.334725	-0.236405	0.809828
H89	H	-1.247976	-0.208780	0.789385
H90	H	-1.351934	-0.296325	0.877930
H91	H	-1.373292	-0.157385	0.830362
H92	H	-1.150827	0.282537	0.205577
O93	O	-1.111856	0.437630	-0.306150
C94	C	-1.026079	0.420396	-0.379283
H95	H	-0.974734	0.370742	-0.343439
H96	H	-0.980606	0.507113	-0.406334
H97	H	-1.053534	0.369401	-0.447211
O98	O	-1.184821	0.043334	-0.209692
C99	C	-1.101227	0.014145	-0.279858
H100	H	-1.056778	0.094675	-0.320619
H101	H	-1.131228	-0.050515	-0.338432
H102	H	-1.048082	-0.025327	-0.237262
O103	O	-0.966245	-0.410322	0.186742
C104	C	-0.929847	-0.507707	0.138504
H105	H	-0.937038	-0.577494	0.197383
H106	H	-0.845657	-0.483292	0.102756
H107	H	-0.977410	-0.541081	0.076367
O108	O	-1.256579	-0.654177	0.571084
C109	C	-1.326444	-0.665862	0.663527
H110	H	-1.321682	-0.580072	0.706595
H111	H	-1.306182	-0.733434	0.712401
H112	H	-1.407961	-0.693528	0.646340
O113	O	-0.908405	0.068727	0.212223
C114	C	-1.007580	0.084409	0.260544
H115	H	-1.013748	0.074802	0.346624
H116	H	-1.067624	0.017196	0.230549
H117	H	-1.021564	0.173908	0.243534
H118	H	-0.709071	0.054496	0.168141
O119	O	-1.234800	-0.207249	0.017186
C120	C	-1.248686	-0.273863	0.105735
H121	H	-1.208831	-0.222481	0.166708
H122	H	-1.214021	-0.355656	0.086296
H123	H	-1.334433	-0.297317	0.135804
H124	H	-1.116334	-0.168541	0.385403
H125	H	-1.015773	-0.624883	0.252208
O126	O	-0.635719	0.246179	0.759866
C127	C	-0.552797	0.264200	0.815393
H128	H	-0.490127	0.214348	0.777248
H129	H	-0.580903	0.233131	0.896960
H130	H	-0.520310	0.359690	0.816873
O131	O	-1.348210	-0.491919	0.692131
C132	C	-1.445617	-0.463426	0.686020
H133	H	-1.436462	-0.391424	0.628887
H134	H	-1.481905	-0.433745	0.764437
H135	H	-1.497252	-0.542067	0.659797
O136	O	-1.117259	0.452371	0.072597
C137	C	-1.020074	0.500984	0.020078
H138	H	-0.971258	0.430479	-0.002426
H139	H	-0.980015	0.566747	0.071811
H140	H	-1.030359	0.545037	-0.051617
