data_functionalizedCrystal
_audit_creation_method	'MofGen! by Chris Wilmer'
_symmetry_space_group_name_H-M	'P1'
_symmetry_Int_Tables_number	1
_symmetry_cell_setting	triclinic
loop_
_symmetry_equiv_pos_as_xyz
  x,y,z
_cell_length_a	20.919287
_cell_length_b	23.196402
_cell_length_c	23.196401
_cell_angle_alpha	60.007332
_cell_angle_beta	86.857711
_cell_angle_gamma	58.217450
loop_
_atom_site_label
_atom_site_type_symbol
_atom_site_fract_x
_atom_site_fract_y
_atom_site_fract_z
Zr1	Zr	0.616795	0.630980	-0.106252
O2	O	0.514560	0.751242	-0.193224
O3	O	0.648127	0.510719	-0.079593
O4	O	0.648108	0.630982	-0.199858
O5	O	0.514604	0.630978	0.021912
O6	O	0.753464	0.630982	-0.205088
O7	O	0.514579	0.630979	-0.072959
O8	O	0.753497	0.415854	0.010044
O9	O	0.514571	0.846106	-0.193220
O10	O	0.740126	0.560184	-0.072124
O11	O	0.661519	0.560183	0.002580
O12	O	0.661497	0.701777	-0.139016
O13	O	0.582891	0.701775	-0.064312
Zr14	Zr	0.784866	0.630979	0.036713
Zr15	Zr	0.784826	0.630981	-0.114594
Zr16	Zr	0.616836	0.630978	0.045055
Zr17	Zr	0.616812	0.782277	-0.106247
Zr18	Zr	0.784849	0.479681	0.036708
O19	O	0.753535	0.751240	0.010054
O20	O	0.753477	0.751243	-0.205085
O21	O	0.514617	0.751239	0.021915
O22	O	0.887101	0.510716	0.123685
O23	O	0.887044	0.510720	-0.091454
O24	O	0.648184	0.510715	0.135546
O25	O	0.887057	0.630981	-0.091450
O26	O	0.753553	0.630977	0.130319
O27	O	0.648197	0.630977	0.135550
O28	O	0.887083	0.630979	0.003420
O29	O	0.648132	0.846107	-0.199851
O30	O	0.753529	0.415852	0.130312
O31	O	0.887091	0.415852	0.123682
O32	O	0.887059	0.415854	0.003413
O33	O	0.514603	0.846105	-0.072952
O34	O	0.648164	0.846105	-0.079582
O35	O	0.740164	0.560182	0.069477
O36	O	0.818771	0.560183	-0.005226
O37	O	0.740142	0.701776	-0.072119
O38	O	0.661535	0.701775	0.002585
C39	C	0.700809	0.441730	-0.034775
C40	C	0.700802	0.377500	-0.034777
C41	C	0.758858	0.295071	0.014601
C42	C	0.758863	0.234710	0.014607
C43	C	0.700819	0.256784	-0.034776
C44	C	0.642753	0.339227	-0.084159
C45	C	0.642744	0.399585	-0.084159
C46	C	0.682730	0.201198	-0.097670
C47	C	0.682743	0.140839	-0.097670
C48	C	0.700840	0.070622	-0.034774
C49	C	0.718940	0.060763	0.028125
C50	C	0.718931	0.121121	0.028124
C51	C	0.700821	0.191342	-0.034781
C52	C	0.758905	-0.077260	0.014615
C53	C	0.758905	-0.137620	0.014622
C54	C	0.642797	-0.033100	-0.084150
C55	C	0.642794	0.027257	-0.084151
C56	C	0.700852	0.005172	-0.034769
C57	C	0.490651	0.630978	-0.024335
C58	C	0.419317	0.630978	-0.020794
C59	C	0.385791	0.630981	-0.071396
C60	C	0.318768	0.630977	-0.068065
C61	C	0.285270	0.630975	-0.014134
C62	C	0.318802	0.630970	0.036473
C63	C	0.385827	0.630968	0.033145
C64	C	0.082902	0.630974	-0.001466
C65	C	0.015871	0.630978	0.001857
C66	C	0.015842	0.630983	-0.102681
C67	C	0.082865	0.630987	-0.106007
C68	C	0.116394	0.630977	-0.055398
C69	C	0.216760	0.630973	-0.010729
C70	C	0.184906	0.630973	-0.058800
C71	C	0.911011	0.630980	-0.045204
C72	C	0.982344	0.630981	-0.048745
C73	C	0.700780	0.630982	-0.224031
C74	C	0.700763	0.630983	-0.288265
C75	C	0.700852	0.820229	-0.034763
C76	C	0.700859	0.884459	-0.034761
C77	C	0.659724	0.704891	-0.353355
C78	C	0.659744	0.704892	-0.413712
C79	C	0.700792	0.630981	-0.408973
C80	C	0.741841	0.557064	-0.343871
C81	C	0.741826	0.557065	-0.283517
C82	C	0.694956	0.574355	-0.476002
C83	C	0.694965	0.574357	-0.536356
C84	C	0.700842	0.630975	-0.595123
C85	C	0.706694	0.687605	-0.593534
C86	C	0.706680	0.687606	-0.533180
C87	C	0.700813	0.630972	-0.474413
C88	C	0.659822	0.704889	-0.725661
C89	C	0.659848	0.704887	-0.786017
C90	C	0.741940	0.557057	-0.716174
C91	C	0.741920	0.557061	-0.655820
C92	C	0.700856	0.630979	-0.660568
C93	C	0.700881	0.630976	0.154493
C94	C	0.700898	0.630975	0.218726
C95	C	0.910990	0.441730	-0.045210
C96	C	0.982316	0.377501	-0.048753
C97	C	0.700860	0.441727	0.154487
C98	C	0.700870	0.377496	0.218718
C99	C	0.911040	0.441728	0.144052
C100	C	0.982383	0.377497	0.204742
C101	C	0.490621	0.820231	-0.213591
C102	C	0.419278	0.884462	-0.274281
C103	C	0.490672	0.820228	-0.024329
C104	C	0.419346	0.884458	-0.020785
C105	C	0.700802	0.820232	-0.224025
C106	C	0.700792	0.884463	-0.288257
C107	C	0.974759	0.347339	-0.085343
C108	C	1.041771	0.286997	-0.088686
C109	C	1.116339	0.256814	-0.055435
C110	C	1.123893	0.286983	-0.018844
C111	C	1.056882	0.347328	-0.015505
C112	C	0.741926	0.347332	0.283808
C113	C	0.741932	0.286989	0.344167
C114	C	0.700886	0.256807	0.339433
C115	C	0.659825	0.286977	0.274337
C116	C	0.659815	0.347323	0.213980
C117	C	1.056925	0.347335	0.194248
C118	C	1.123966	0.286992	0.251267
C119	C	1.116463	0.256809	0.318780
C120	C	1.041912	0.286977	0.329273
C121	C	0.974873	0.347323	0.272255
C122	C	0.344736	0.914631	-0.263787
C123	C	0.277695	0.974993	-0.320806
C124	C	0.285198	1.005180	-0.388318
C125	C	0.359749	0.975007	-0.398812
C126	C	0.426788	0.914651	-0.341793
C127	C	0.426902	0.914626	0.015798
C128	C	0.359890	0.974985	0.019125
C129	C	0.285323	1.005170	-0.014129
C130	C	0.277768	0.974998	-0.050717
C131	C	0.344779	0.914645	-0.054047
C132	C	0.741846	0.914626	-0.283502
C133	C	0.741852	0.974970	-0.343849
C134	C	0.700799	1.005153	-0.408951
C135	C	0.659744	0.974984	-0.413705
C136	C	0.659743	0.914637	-0.353358
H137	H	0.806175	-0.095244	0.054828
H138	H	0.700901	0.207669	0.388585
Br139	Br	0.604014	0.873715	-0.359824
H140	H	0.595465	0.466706	-0.124368
H141	H	0.806180	-0.204740	0.054836
Br142	Br	0.528092	0.873677	0.060932
H143	H	1.184662	0.262435	0.242711
H144	H	1.035605	0.262441	-0.118482
Br145	Br	0.714668	0.764451	-0.673285
Br146	Br	0.564015	-0.003134	-0.151166
H147	H	0.230604	1.054325	-0.434740
Br148	Br	0.564000	0.139132	-0.151169
H149	H	0.365849	0.999593	-0.453787
H150	H	0.366057	0.999540	0.048921
Br151	Br	0.837645	0.265096	0.081623
Br152	Br	1.207276	0.174916	-0.059973
H153	H	0.212184	0.630970	-0.102709
H154	H	0.230764	1.054313	-0.011412
Br155	Br	0.604153	0.805200	-0.874360
H156	H	0.806140	0.167584	0.054819
H157	H	0.217000	0.999549	-0.312249
H158	H	0.217046	0.999584	-0.077790
H159	H	0.487482	0.890087	-0.350346
Br160	Br	1.225098	0.246009	0.026282
H161	H	0.775372	0.262432	0.397165
Br162	Br	0.743526	-0.034539	0.113491
Br163	Br	0.334510	0.873705	-0.103697
Br164	Br	0.431332	0.630956	0.101826
H165	H	0.626290	0.765081	-0.357228
H166	H	0.914049	0.371913	-0.112430
H167	H	0.775276	0.890060	-0.230498
H168	H	0.775282	0.999527	-0.339965
Br169	Br	0.700807	1.087054	-0.490844
H170	H	1.063046	0.371878	0.014294
H171	H	0.626406	0.262393	0.270493
Br172	Br	0.604025	1.015963	-0.502063
H173	H	0.775351	0.371900	0.287675
H174	H	0.668009	0.148872	-0.148886
Br175	Br	0.658165	0.296492	-0.183037
Br176	Br	0.743494	0.107741	0.113483
Br177	Br	0.604093	0.388249	0.125646
Br178	Br	0.273348	0.630959	0.109672
H179	H	1.171057	0.207671	0.365202
Br180	Br	1.031743	0.246005	0.420902
H181	H	0.413058	0.630988	-0.115315
Br182	Br	0.563972	0.369187	-0.151175
Br183	Br	0.687012	0.497512	-0.538510
Br184	Br	0.273267	0.630976	-0.136739
Br185	Br	0.873711	0.388247	0.286509
H186	H	0.110138	0.630988	-0.149922
Br187	Br	0.687054	0.497460	-0.396229
Br188	Br	1.067130	0.388289	0.102630
H189	H	-0.011463	0.630990	-0.143884
Br190	Br	-0.029590	0.630981	0.075054
H191	H	0.189479	0.630974	0.033181
H192	H	0.110195	0.630968	0.039741
Br193	Br	0.604046	0.805203	-0.502062
Br194	Br	0.714621	0.764456	-0.531023
Br195	Br	0.604114	0.805204	-0.732101
H196	H	0.775335	0.496877	-0.602819
Br197	Br	0.797664	0.456747	-0.709735
H198	H	0.775264	0.496885	-0.340016
H199	H	0.338611	0.890057	-0.208820
H200	H	0.775246	0.496878	-0.230515
