data_functionalizedCrystal
_audit_creation_method	'MofGen! by Chris Wilmer'
_symmetry_space_group_name_H-M	'P1'
_symmetry_Int_Tables_number	1
_symmetry_cell_setting	triclinic
loop_
_symmetry_equiv_pos_as_xyz
  x,y,z
_cell_length_a	19.288864
_cell_length_b	14.044190
_cell_length_c	17.766277
_cell_angle_alpha	89.989261
_cell_angle_beta	89.976791
_cell_angle_gamma	88.164010
loop_
_atom_site_label
_atom_site_type_symbol
_atom_site_fract_x
_atom_site_fract_y
_atom_site_fract_z
O1	O	0.928951	0.118215	-0.062846
O2	O	0.727715	0.134162	-0.062796
O3	O	0.825310	-0.011784	-0.062805
O4	O	0.831356	0.264160	-0.062836
O5	O	0.825291	-0.011791	0.062383
O6	O	0.727696	0.134154	0.062393
O7	O	0.928932	0.118207	0.062343
Cu8	Cu	0.828312	0.126180	0.073798
Cu9	Cu	0.828335	0.126189	-0.074252
O10	O	0.831337	0.264153	0.062352
C11	C	0.701796	0.133645	-0.000195
C12	C	0.624593	0.132105	-0.000175
C13	C	0.822655	-0.047091	-0.000208
C14	C	0.814765	-0.152283	-0.000200
C15	C	0.585401	0.217739	-0.000197
C16	C	0.512861	0.216292	-0.000205
C17	C	0.479516	0.129205	-0.000207
C18	C	0.518718	0.043560	-0.000181
C19	C	0.591256	0.045010	-0.000165
C20	C	0.366861	0.060749	-0.044083
C21	C	0.294324	0.059303	-0.044104
C22	C	0.255783	0.124731	-0.000252
C23	C	0.289788	0.191621	0.043611
C24	C	0.362327	0.193071	0.043627
C25	C	0.400861	0.127624	-0.000223
C26	C	0.137934	0.208802	-0.000281
C27	C	0.065393	0.207351	-0.000284
C28	C	0.071251	0.034617	-0.000268
C29	C	0.143791	0.036071	-0.000257
C30	C	0.177128	0.123165	-0.000267
C31	C	0.856297	-0.402747	-0.000240
C32	C	0.800353	-0.344879	-0.000220
C33	C	0.808374	-0.237709	-0.000209
C34	C	0.848277	-0.509927	-0.000251
C35	C	0.954851	0.118724	-0.000260
C36	C	1.032053	0.120264	-0.000285
C37	C	0.833991	0.299460	-0.000247
C38	C	0.841881	0.404652	-0.000260
N39	N	0.828301	0.126173	0.177929
N40	N	0.828351	0.126188	-0.178382
C41	C	0.871533	0.061580	0.217311
C42	C	0.871537	0.061576	0.296113
C43	C	0.828316	0.126181	0.335529
C44	C	0.785075	0.190779	0.296137
C45	C	0.785068	0.190775	0.217337
C46	C	0.824567	0.212524	0.460359
C47	C	0.824579	0.212529	0.539158
C48	C	0.828335	0.126192	0.578576
C49	C	0.832094	0.039847	0.539185
C50	C	0.832086	0.039843	0.460385
C51	C	0.828319	0.126192	0.420975
C52	C	0.871574	0.061589	0.703404
C53	C	0.871573	0.061583	0.782207
C54	C	0.785115	0.190795	0.782230
C55	C	0.785112	0.190792	0.703428
C56	C	0.828346	0.126190	0.664020
H57	H	0.612539	0.288658	-0.000206
O58	O	0.470572	0.308654	-0.000230
H59	H	0.483112	0.350340	-0.051263
O60	O	0.738517	0.260490	0.824746
H61	H	0.751953	0.334325	0.809594
H62	H	0.835144	-0.030462	0.428316
O63	O	0.728928	-0.385864	-0.000196
H64	H	0.700327	-0.361399	-0.051210
H65	H	0.910213	-0.371803	-0.000245
O66	O	0.738430	0.260443	0.174858
H67	H	0.745682	0.249580	0.113442
O68	O	0.633530	-0.047361	-0.000142
H69	H	0.689572	-0.031721	-0.000127
O70	O	0.918151	-0.008106	0.174805
H71	H	0.948209	-0.053030	0.215435
H72	H	0.390011	0.247532	0.079344
H73	H	0.258410	0.244899	0.079320
O74	O	0.173899	0.302733	-0.000276
H75	H	0.134456	0.362039	-0.000278
O76	O	0.918175	-0.008084	0.338605
H77	H	0.948240	-0.053000	0.297964
H78	H	0.835152	-0.030457	0.571277
H79	H	0.906775	0.008983	0.671317
H80	H	0.906775	0.008979	0.814273
H81	H	0.749911	0.243394	0.671360
H82	H	0.821496	0.282835	0.428271
O83	O	0.820540	0.305657	0.581637
H84	H	0.771797	0.345268	0.566542
O85	O	0.023115	0.299718	-0.000305
H86	H	0.058486	0.360519	-0.000315
O87	O	0.035299	-0.059316	-0.000270
H88	H	-0.021727	-0.045939	-0.000288
H89	H	0.175702	-0.033662	-0.000243
H90	H	0.266642	0.004841	-0.079822
O91	O	0.738461	0.260468	0.338643
H92	H	0.745735	0.249627	0.400055
H93	H	0.491564	-0.027346	-0.000193
O94	O	0.408429	-0.009820	-0.091388
H95	H	0.372598	-0.056562	-0.121900
