data_functionalizedCrystal
_audit_creation_method	'MofGen! by Chris Wilmer'
_symmetry_space_group_name_H-M	'P1'
_symmetry_Int_Tables_number	1
_symmetry_cell_setting	triclinic
loop_
_symmetry_equiv_pos_as_xyz
  x,y,z
_cell_length_a	18.050589
_cell_length_b	12.759401
_cell_length_c	12.759393
_cell_angle_alpha	90.022017
_cell_angle_beta	89.971089
_cell_angle_gamma	89.970957
loop_
_atom_site_label
_atom_site_type_symbol
_atom_site_fract_x
_atom_site_fract_y
_atom_site_fract_z
Zn1	Zn	-0.295612	-1.606163	-0.594071
Zn2	Zn	0.204388	-1.106163	-0.094071
Zn3	Zn	-0.419818	-1.606014	-0.418394
Zn4	Zn	0.080182	-1.106014	0.081606
Zn5	Zn	-0.295648	-1.430463	-0.418401
Zn6	Zn	0.204352	-0.930463	0.081599
Zn7	Zn	-0.419766	-1.430412	-0.594026
Zn8	Zn	0.080234	-0.930412	-0.094026
O9	O	-0.357711	-1.518263	-0.506223
O10	O	0.142289	-1.018263	-0.006223
O11	O	-0.312095	-1.753164	-0.570782
O12	O	0.187905	-1.253164	-0.070782
O13	O	-0.403384	-1.582686	-0.271374
O14	O	0.096616	-1.082686	0.228626
O15	O	-0.191719	-1.453854	-0.441726
O16	O	0.308281	-0.953854	0.058274
O17	O	-0.403349	-1.753055	-0.441713
O18	O	0.096651	-1.253055	0.058287
O19	O	-0.191692	-1.582939	-0.570789
O20	O	0.308308	-1.082939	-0.070789
O21	O	-0.312157	-1.453709	-0.271379
O22	O	0.187843	-0.953709	0.228621
O23	O	-0.312107	-1.283435	-0.441683
O24	O	0.187893	-0.783435	0.058317
O25	O	-0.403260	-1.453767	-0.741053
O26	O	0.096740	-0.953767	-0.241053
O27	O	-0.403295	-1.283398	-0.570714
O28	O	0.096705	-0.783398	-0.070714
O29	O	-0.312044	-1.582890	-0.741086
O30	O	0.187956	-1.082890	-0.241086
O31	O	-0.523736	-1.582636	-0.441670
O32	O	-0.023736	-1.082636	0.058330
O33	O	-0.523698	-1.453622	-0.570706
O34	O	-0.023698	-0.953622	-0.070706
C35	C	-0.357700	-1.245295	-0.506195
C36	C	0.142300	-0.745295	-0.006195
C37	C	-0.357713	-1.128519	-0.506207
C38	C	0.142287	-0.628519	-0.006207
C39	C	-0.550663	-1.518136	-0.506205
C40	C	-0.050663	-1.018136	-0.006205
C41	C	-0.633209	-1.518178	-0.506233
C42	C	-0.133209	-1.018178	-0.006233
C43	C	-0.832666	-1.448089	-0.576379
C44	C	-0.332666	-0.948089	-0.076379
C45	C	-0.882113	-1.422474	-0.480509
C46	C	-0.382113	-0.922474	0.019491
C47	C	-0.784340	-1.518281	-0.506247
C48	C	-0.284340	-1.018281	-0.006247
C49	C	-0.881974	-1.543948	-0.602127
C50	C	-0.381974	-1.043948	-0.102127
C51	C	-0.930325	-1.518379	-0.506269
C52	C	-0.430325	-1.018379	-0.006269
C53	C	-0.832699	-1.492616	-0.410326
C54	C	-0.332699	-0.992616	0.089674
C55	C	-0.832556	-1.614134	-0.532010
C56	C	-0.332556	-1.114134	-0.032010
C57	C	-0.881981	-1.588555	-0.436074
C58	C	-0.381981	-1.088555	0.063926
C59	C	-0.700241	-1.518222	-0.506236
C60	C	-0.200241	-1.018222	-0.006236
C61	C	-1.014421	-1.518438	-0.506269
C62	C	-0.514421	-1.018438	-0.006269
C63	C	-0.405267	-1.073665	-0.573287
C64	C	0.094733	-0.573665	-0.073287
C65	C	-0.405269	-0.963941	-0.573305
C66	C	0.094731	-0.463941	-0.073305
C67	C	-0.310161	-0.963934	-0.439155
C68	C	0.189839	-0.463934	0.060845
C69	C	-0.310156	-1.073656	-0.439143
C70	C	0.189844	-0.573656	0.060857
C71	C	-0.164006	-1.518419	-0.506263
C72	C	0.335994	-1.018419	-0.006263
C73	C	-0.081460	-1.518485	-0.506281
C74	C	0.418540	-1.018485	-0.006281
C75	C	-0.357642	-1.518339	-0.780256
C76	C	0.142358	-1.018339	-0.280256
C77	C	-0.357613	-1.518372	-0.897033
C78	C	0.142387	-1.018372	-0.397033
C79	C	-0.357721	-0.792296	-0.506245
C80	C	0.142279	-0.292296	-0.006245
C81	C	-0.357720	-0.909073	-0.506237
C82	C	0.142280	-0.409073	-0.006237
C83	C	-0.405059	-1.585557	-1.061628
C84	C	0.094941	-1.085557	-0.561628
C85	C	-0.405095	-1.585532	-0.951904
C86	C	0.094905	-1.085532	-0.451904
C87	C	-0.310098	-1.451225	-0.951892
C88	C	0.189902	-0.951225	-0.451892
C89	C	-0.310067	-1.451246	-1.061615
C90	C	0.189933	-0.951246	-0.561615
C91	C	-0.357727	-1.518247	-0.233256
C92	C	0.142273	-1.018247	0.266744
C93	C	-0.357547	-1.518418	-0.116479
C94	C	0.142453	-1.018418	0.383521
H95	H	-0.811012	-1.388643	-0.635603
H96	H	-0.311012	-0.888643	-0.135603
C97	C	-0.257799	-1.377392	-1.121956
C98	C	0.242201	-0.877392	-0.621956
H99	H	-0.229519	-1.337395	-1.073567
H100	H	0.270481	-0.837395	-0.573567
H101	H	-0.286194	-1.331602	-1.164746
H102	H	0.213806	-0.831602	-0.664746
H103	H	-0.225429	-1.417625	-1.164769
H104	H	0.274571	-0.917625	-0.664769
H105	H	-0.271442	-0.919252	-0.384552
H106	H	0.228558	-0.419252	0.115448
C107	C	-0.457575	-1.134015	-0.647053
C108	C	0.042425	-0.634015	-0.147053
H109	H	-0.450769	-1.207219	-0.637433
H110	H	0.049231	-0.707219	-0.137433
H111	H	-0.446771	-1.116078	-0.717673
H112	H	0.053229	-0.616078	-0.217673
H113	H	-0.507462	-1.115990	-0.631546
H114	H	-0.007462	-0.615990	-0.131546
C115	C	-0.803586	-1.463204	-0.300772
C116	C	-0.303586	-0.963204	0.199228
H117	H	-0.750956	-1.463310	-0.301443
H118	H	-0.250956	-0.963310	0.198557
H119	H	-0.820864	-1.512782	-0.250919
H120	H	-0.320864	-1.012782	0.249081
H121	H	-0.820967	-1.395353	-0.282377
H122	H	-0.320967	-0.895353	0.217623
C123	C	-0.911522	-1.313030	-0.451075
C124	C	-0.411522	-0.813030	0.048925
H125	H	-0.894642	-1.263202	-0.500964
H126	H	-0.394642	-0.763202	-0.000964
H127	H	-0.893926	-1.294347	-0.383453
H128	H	-0.393926	-0.794347	0.116547
H129	H	-0.964147	-1.314019	-0.450675
H130	H	-0.464147	-0.814019	0.049325
H131	H	-0.271427	-1.118320	-0.384519
H132	H	0.228573	-0.618320	0.115481
H133	H	-0.443721	-1.640252	-1.106296
H134	H	0.056279	-1.140252	-0.606296
H135	H	-0.903498	-1.647956	-0.376707
H136	H	-0.403498	-1.147956	0.123293
H137	H	-0.810774	-1.695130	-0.553826
H138	H	-0.310774	-1.195130	-0.053826
H139	H	-0.903619	-1.565618	-0.683204
H140	H	-0.403619	-1.065618	-0.183204
C141	C	-0.257876	-1.377336	-0.891543
C142	C	0.242124	-0.877336	-0.391543
H143	H	-0.229582	-1.337343	-0.939928
H144	H	0.270418	-0.837343	-0.439928
H145	H	-0.225529	-1.417532	-0.848747
H146	H	0.274471	-0.917532	-0.348747
H147	H	-0.286307	-1.331527	-0.848734
H148	H	0.213693	-0.831527	-0.348734
H149	H	-0.443991	-0.919284	-0.627929
H150	H	0.056009	-0.419284	-0.127929
H151	H	-0.443784	-1.640203	-0.907248
H152	H	0.056216	-1.140203	-0.407248
