data_functionalizedCrystal
_audit_creation_method	'MofGen! by Chris Wilmer'
_symmetry_space_group_name_H-M	'P1'
_symmetry_Int_Tables_number	1
_symmetry_cell_setting	triclinic
loop_
_symmetry_equiv_pos_as_xyz
  x,y,z
_cell_length_a	10.654550
_cell_length_b	9.482900
_cell_length_c	10.654550
_cell_angle_alpha	99.426343
_cell_angle_beta	95.515097
_cell_angle_gamma	99.384101
loop_
_atom_site_label
_atom_site_type_symbol
_atom_site_fract_x
_atom_site_fract_y
_atom_site_fract_z
O1	O	1.687264	0.121012	-0.156886
O2	O	1.321781	0.120989	-0.173696
O3	O	1.512925	0.120996	0.017448
O4	O	1.496120	0.121005	-0.348029
O5	O	1.474100	-0.120798	-0.021535
O6	O	1.282957	-0.120805	-0.212678
O7	O	1.648439	-0.120781	-0.195868
Cu8	Cu	1.462153	-0.142871	-0.207833
Cu9	Cu	1.508067	0.143078	-0.161731
O10	O	1.457296	-0.120788	-0.387012
C11	C	1.255571	0.000089	-0.191953
C12	C	1.116126	0.000080	-0.188263
N13	N	1.429869	-0.343992	-0.240257
C14	C	1.036644	0.000104	-0.300801
C15	C	0.905627	0.000129	-0.297320
C16	C	0.933588	0.000112	-0.068753
C17	C	1.064601	0.000076	-0.072237
C18	C	1.020501	0.000120	-0.432761
C19	C	0.889484	0.000145	-0.429280
C20	C	1.498536	-0.416189	-0.171288
C21	C	1.471684	-0.583607	-0.198276
C22	C	1.714650	0.000122	-0.177610
C23	C	1.854097	0.000140	-0.181299
C24	C	1.492279	0.000100	0.044755
C25	C	1.488588	0.000105	0.184199
N26	N	1.540362	0.344200	-0.129297
C27	C	1.477942	0.000110	-0.414318
C28	C	1.481635	0.000115	-0.553761
C29	C	1.601130	0.000108	0.263685
C30	C	1.597655	0.000118	0.394707
C31	C	1.369085	0.000116	0.366744
C32	C	1.372563	0.000117	0.235725
C33	C	1.733092	0.000103	0.279830
C34	C	1.729617	0.000113	0.410852
H35	H	1.129308	0.000036	0.019399
H36	H	0.827052	-0.104243	-0.485991
H37	H	0.864001	0.101345	-0.462686
H38	H	1.577200	-0.354058	-0.092256
H39	H	1.393007	-0.645735	-0.277303
C40	C	1.323590	-0.427916	-0.347021
C41	C	1.357075	-0.532577	-0.460148
C42	C	1.250793	-0.616496	-0.566914
C43	C	1.111027	-0.595754	-0.560554
C44	C	1.077536	-0.491087	-0.447423
C45	C	1.183817	-0.407168	-0.340657
H46	H	1.460544	-0.547937	-0.464860
H47	H	1.275587	-0.693977	-0.650662
H48	H	1.032351	-0.657876	-0.639589
H49	H	0.974067	-0.475728	-0.442711
H50	H	1.159024	-0.329687	-0.256909
H51	H	1.619030	-0.593673	-0.050260
C52	C	1.824759	0.136799	0.262193
C53	C	1.942510	0.121435	0.191304
C54	C	2.034173	0.258127	0.173666
C55	C	2.008085	0.410184	0.226916
C56	C	1.890328	0.425554	0.297810
C57	C	1.798665	0.288862	0.315448
H58	H	1.961828	0.008868	0.151880
H59	H	2.121345	0.246748	0.121185
H60	H	2.075939	0.511372	0.213859
H61	H	1.871011	0.538121	0.337233
H62	H	1.711493	0.300241	0.367929
H63	H	1.280923	0.000135	0.171015
C64	C	1.767219	-0.140926	0.208953
C65	C	1.672485	-0.238030	0.098191
C66	C	1.706609	-0.379062	0.027314
C67	C	1.835467	-0.422991	0.067199
C68	C	1.930210	-0.325885	0.177967
C69	C	1.896086	-0.184853	0.248844
H70	H	1.577089	-0.205514	0.068661
H71	H	1.636473	-0.450946	-0.054684
H72	H	1.860728	-0.527391	0.014732
H73	H	2.025606	-0.358401	0.207497
H74	H	1.966222	-0.112969	0.330841
H75	H	1.274621	0.000127	0.408713
H76	H	0.891623	0.000131	0.025715
H77	H	1.786261	0.104516	0.473327
H78	H	1.763092	-0.101072	0.436299
H79	H	1.033584	-0.101074	-0.500686
H80	H	1.072919	0.104514	-0.457949
