data_functionalizedCrystal
_audit_creation_method	'MofGen! by Chris Wilmer'
_symmetry_space_group_name_H-M	'P1'
_symmetry_Int_Tables_number	1
_symmetry_cell_setting	triclinic
loop_
_symmetry_equiv_pos_as_xyz
  x,y,z
_cell_length_a	19.805407
_cell_length_b	21.295417
_cell_length_c	21.295411
_cell_angle_alpha	89.979403
_cell_angle_beta	89.976284
_cell_angle_gamma	90.027018
loop_
_atom_site_label
_atom_site_type_symbol
_atom_site_fract_x
_atom_site_fract_y
_atom_site_fract_z
Zn1	Zn	1.034760	-0.250726	-0.355902
Zn2	Zn	1.368093	0.082607	-0.022568
Zn3	Zn	1.701426	0.415941	0.310765
Zn4	Zn	1.034656	-0.355978	-0.250629
Zn5	Zn	1.367990	-0.022645	0.082704
Zn6	Zn	1.701323	0.310689	0.416038
Zn7	Zn	0.921563	-0.250722	-0.250648
Zn8	Zn	1.254896	0.082612	0.082685
Zn9	Zn	1.588229	0.415945	0.416018
Zn10	Zn	0.921531	-0.355956	-0.355862
Zn11	Zn	1.254865	-0.022623	-0.022529
Zn12	Zn	1.588198	0.310710	0.310804
O13	O	0.978127	-0.303345	-0.303260
O14	O	1.311461	0.029988	0.030073
O15	O	1.644794	0.363321	0.363406
O16	O	1.129462	-0.264699	-0.341946
O17	O	1.462796	0.068635	-0.008612
O18	O	1.796129	0.401968	0.324721
O19	O	1.019624	-0.342022	-0.162542
O20	O	1.352957	-0.008689	0.170791
O21	O	1.686291	0.324644	0.504124
O22	O	0.936635	-0.162633	-0.264635
O23	O	1.269968	0.170701	0.068698
O24	O	1.603301	0.504034	0.402032
O25	O	1.129387	-0.342027	-0.264602
O26	O	1.462720	-0.008693	0.068731
O27	O	1.796053	0.324640	0.402064
O28	O	1.019800	-0.162636	-0.341964
O29	O	1.353133	0.170697	-0.008631
O30	O	1.686467	0.504031	0.324702
O31	O	0.936535	-0.264691	-0.162556
O32	O	1.269868	0.068642	0.170777
O33	O	1.603201	0.401976	0.504110
O34	O	0.826842	-0.264670	-0.264597
O35	O	1.160175	0.068663	0.068737
O36	O	1.493509	0.401996	0.402070
O37	O	0.936581	-0.341990	-0.443957
O38	O	1.269915	-0.008657	-0.110624
O39	O	1.603248	0.324676	0.222710
O40	O	0.826819	-0.341986	-0.341897
O41	O	1.160152	-0.008653	-0.008564
O42	O	1.493486	0.324681	0.324770
O43	O	1.019770	-0.264678	-0.443986
O44	O	1.353103	0.068655	-0.110653
O45	O	1.686436	0.401989	0.222681
O46	O	1.019594	-0.444064	-0.264564
O47	O	1.352927	-0.110731	0.068769
O48	O	1.686260	0.222602	0.402103
O49	O	0.936481	-0.444049	-0.341878
O50	O	1.269815	-0.110715	-0.008545
O51	O	1.603148	0.222618	0.324788
C52	C	0.802271	-0.303326	-0.303245
C53	C	1.135605	0.030008	0.030088
C54	C	1.468938	0.363341	0.363422
C55	C	0.727039	-0.303332	-0.303254
C56	C	1.060373	0.030001	0.030080
C57	C	1.393706	0.363334	0.363413
C58	C	0.691735	-0.263139	-0.343587
C59	C	1.025069	0.070194	-0.010254
C60	C	1.358402	0.403528	0.323079
C61	C	0.621047	-0.263142	-0.343590
C62	C	0.954380	0.070191	-0.010257
C63	C	1.287714	0.403524	0.323077
C64	C	0.585664	-0.303343	-0.303261
C65	C	0.918997	0.029991	0.030072
C66	C	1.252331	0.363324	0.363406
C67	C	0.620973	-0.343538	-0.262923
C68	C	0.954306	-0.010205	0.070411
C69	C	1.287639	0.323129	0.403744
C70	C	0.691660	-0.343531	-0.262918
C71	C	1.024993	-0.010198	0.070416
C72	C	1.358327	0.323136	0.403749
C73	C	0.335899	-0.343566	-0.262942
C74	C	0.669233	-0.010233	0.070391
C75	C	1.002566	0.323100	0.403725
C76	C	0.265207	-0.343571	-0.262952
C77	C	0.598541	-0.010238	0.070382
C78	C	0.931874	0.323095	0.403715
C79	C	0.265287	-0.263178	-0.343614
C80	C	0.598620	0.070156	-0.010281
C81	C	0.931953	0.403489	0.323052
C82	C	0.335974	-0.263171	-0.343609
C83	C	0.669307	0.070163	-0.010276
C84	C	1.002640	0.403496	0.323057
C85	C	0.371276	-0.303363	-0.303269
C86	C	0.704610	0.029970	0.030065
C87	C	1.037943	0.363303	0.363398
C88	C	0.447925	-0.303358	-0.303266
C89	C	0.781258	0.029975	0.030068
C90	C	1.114592	0.363308	0.363401
C91	C	0.509017	-0.303351	-0.303267
C92	C	0.842350	0.029982	0.030067
C93	C	1.175683	0.363315	0.363400
C94	C	0.978041	-0.466897	-0.303229
C95	C	1.311375	-0.133564	0.030105
C96	C	1.644708	0.199770	0.363438
C97	C	0.978066	-0.536865	-0.303236
C98	C	1.311400	-0.203532	0.030097
C99	C	1.644733	0.129802	0.363431
C100	C	1.021346	-0.569676	-0.343530
C101	C	1.354679	-0.236343	-0.010197
C102	C	1.688012	0.096990	0.323137
C103	C	1.021370	-0.635419	-0.343546
C104	C	1.354703	-0.302086	-0.010212
C105	C	1.688036	0.031248	0.323121
C106	C	0.978121	-0.668348	-0.303256
C107	C	1.311454	-0.335014	0.030078
C108	C	1.644788	-0.001681	0.363411
C109	C	0.934833	-0.635529	-0.262959
C110	C	1.268167	-0.302195	0.070374
C111	C	1.601500	0.031138	0.403708
C112	C	0.934806	-0.569787	-0.262949
C113	C	1.268139	-0.236454	0.070384
C114	C	1.601472	0.096879	0.403718
N115	N	0.973004	-0.771600	-0.248165
N116	N	1.306337	-0.438266	0.085169
N117	N	1.639670	-0.104933	0.418502
N118	N	0.973034	-0.834051	-0.248176
N119	N	1.306367	-0.500718	0.085157
N120	N	1.639700	-0.167385	0.418491
C121	C	0.978200	-0.866422	-0.303284
C122	C	1.311533	-0.533089	0.030049
C123	C	1.644867	-0.199756	0.363382
N124	N	0.983349	-0.833983	-0.358382
N125	N	1.316682	-0.500649	-0.025049
N126	N	1.650015	-0.167316	0.308285
N127	N	0.983322	-0.771526	-0.358370
N128	N	1.316656	-0.438192	-0.025037
N129	N	1.649989	-0.104859	0.308297
C130	C	0.978146	-0.739633	-0.303262
C131	C	1.311479	-0.406300	0.030071
C132	C	1.644812	-0.072966	0.363404
C133	C	1.021508	-0.970519	-0.343599
C134	C	1.354841	-0.637186	-0.010265
C135	C	1.688174	-0.303852	0.323068
C136	C	1.021527	-1.036263	-0.343615
C137	C	1.354860	-0.702929	-0.010282
C138	C	1.688194	-0.369596	0.323052
C139	C	0.934994	-1.036371	-0.263023
C140	C	1.268328	-0.703038	0.070311
C141	C	1.601661	-0.369705	0.403644
C142	C	0.934971	-0.970629	-0.263012
C143	C	1.268305	-0.637295	0.070322
C144	C	1.601638	-0.303962	0.403655
C145	C	0.978232	-0.937707	-0.303299
C146	C	1.311565	-0.604373	0.030034
C147	C	1.644899	-0.271040	0.363368
C148	C	1.154670	-0.303366	-0.303276
C149	C	1.488003	0.029968	0.030057
C150	C	1.821337	0.363301	0.363391
C151	C	1.229902	-0.303374	-0.303283
C152	C	1.563235	0.029959	0.030051
C153	C	1.896569	0.363292	0.363384
C154	C	0.978184	-0.303332	-0.467451
C155	C	1.311517	0.030001	-0.134117
C156	C	1.644850	0.363335	0.199216
C157	C	0.978208	-0.303326	-0.537419
C158	C	1.311541	0.030007	-0.204086
C159	C	1.644874	0.363340	0.129248
C160	C	0.978232	-0.139155	-0.303306
C161	C	1.311566	0.194178	0.030027
C162	C	1.644899	0.527512	0.363360
C163	C	0.978277	-0.069187	-0.303326
C164	C	1.311611	0.264146	0.030008
C165	C	1.644944	0.597480	0.363341
C166	C	1.021522	-0.263068	-0.570302
C167	C	1.354855	0.070265	-0.236968
C168	C	1.688189	0.403598	0.096365
C169	C	1.021521	-0.263041	-0.636044
C170	C	1.354854	0.070292	-0.302711
C171	C	1.688188	0.403626	0.030623
C172	C	0.978213	-0.303283	-0.668901
C173	C	1.311546	0.030050	-0.335568
C174	C	1.644879	0.363384	-0.002235
C175	C	0.934890	-0.343544	-0.636011
C176	C	1.268223	-0.010211	-0.302677
C177	C	1.601557	0.323122	0.030656
C178	C	0.934887	-0.343566	-0.570269
C179	C	1.268221	-0.010233	-0.236936
C180	C	1.601554	0.323101	0.096397
N181	N	0.972992	-0.358351	-0.772118
N182	N	1.306325	-0.025017	-0.438785
N183	N	1.639658	0.308316	-0.105451
N184	N	0.972998	-0.358328	-0.834569
N185	N	1.306331	-0.024995	-0.501236
N186	N	1.639665	0.308338	-0.167903
C187	C	0.978217	-0.303219	-0.866976
C188	C	1.311550	0.030114	-0.533643
C189	C	1.644884	0.363447	-0.200310
N190	N	0.983443	-0.248132	-0.834572
N191	N	1.316776	0.085201	-0.501239
N192	N	1.650109	0.418534	-0.167906
N193	N	0.983440	-0.248155	-0.772115
N194	N	1.316773	0.085178	-0.438782
N195	N	1.650106	0.418511	-0.105449
C196	C	0.978211	-0.303264	-0.740187
C197	C	1.311544	0.030069	-0.406854
C198	C	1.644877	0.363403	-0.073520
C199	C	1.021533	-0.262928	-0.971145
C200	C	1.354866	0.070405	-0.637811
C201	C	1.688199	0.403739	-0.304478
C202	C	1.021527	-0.262900	-1.036888
C203	C	1.354860	0.070434	-0.703555
C204	C	1.688194	0.403767	-0.370222
C205	C	0.934900	-0.343409	-1.036854
C206	C	1.268233	-0.010075	-0.703520
C207	C	1.601566	0.323258	-0.370187
C208	C	0.934902	-0.343431	-0.971111
C209	C	1.268235	-0.010098	-0.637778
C210	C	1.601569	0.323235	-0.304445
C211	C	0.978222	-0.303192	-0.938261
C212	C	1.311555	0.030141	-0.604927
C213	C	1.644889	0.363475	-0.271594
C214	C	0.978110	-0.303313	-0.139709
C215	C	1.311444	0.030020	0.193624
C216	C	1.644777	0.363353	0.526958
C217	C	0.978218	-0.303142	-0.069741
C218	C	1.311551	0.030192	0.263592
C219	C	1.644884	0.363525	0.596926
H220	H	0.236535	-0.230448	-0.376459
H221	H	0.569868	0.102885	-0.043126
H222	H	0.903201	0.436218	0.290207
C223	C	0.843833	-0.352329	-0.496306
C224	C	1.177166	-0.018996	-0.162973
C225	C	1.510500	0.314337	0.170360
C226	C	0.887276	-0.387825	-0.534122
C227	C	1.220609	-0.054492	-0.200789
C228	C	1.553942	0.278842	0.132544
H229	H	0.814438	-0.379655	-0.473994
H230	H	1.147772	-0.046322	-0.140661
H231	H	1.481105	0.287011	0.192673
H232	H	0.869628	-0.328374	-0.467333
H233	H	1.202962	0.004959	-0.134000
H234	H	1.536295	0.338293	0.199333
H235	H	0.817962	-0.324892	-0.521949
H236	H	1.151296	0.008441	-0.188616
H237	H	1.484629	0.341774	0.144718
H238	H	0.913150	-0.415259	-0.508479
H239	H	1.246483	-0.081926	-0.175146
H240	H	1.579817	0.251408	0.158187
H241	H	0.861478	-0.411791	-0.563099
H242	H	1.194811	-0.078458	-0.229765
H243	H	1.528144	0.254876	0.103568
C244	C	0.843983	-1.110371	-0.254217
C245	C	1.177317	-0.777038	0.079117
C246	C	1.510650	-0.443705	0.412450
C247	C	0.887449	-1.072558	-0.218738
C248	C	1.220782	-0.739224	0.114595
C249	C	1.554116	-0.405891	0.447929
H250	H	0.814631	-1.132715	-0.226877
H251	H	1.147964	-0.799382	0.106456
H252	H	1.481297	-0.466048	0.439790
H253	H	0.818074	-1.084728	-0.281613
H254	H	1.151408	-0.751395	0.051721
H255	H	1.484741	-0.418062	0.385054
H256	H	0.869769	-1.139323	-0.278214
H257	H	1.203102	-0.805990	0.055119
H258	H	1.536436	-0.472656	0.388452
H259	H	0.861663	-1.043603	-0.194744
H260	H	1.194997	-0.710270	0.138590
H261	H	1.528330	-0.376936	0.471923
H262	H	0.913361	-1.098203	-0.191331
H263	H	1.246694	-0.764870	0.142002
H264	H	1.580027	-0.431536	0.475336
C265	C	0.541595	-0.178488	-0.352504
C266	C	0.874928	0.154845	-0.019171
C267	C	1.208261	0.488179	0.314162
C268	C	0.582239	-0.218964	-0.387929
C269	C	0.915572	0.114369	-0.054596
C270	C	1.248905	0.447702	0.278738
H271	H	0.517639	-0.151212	-0.379880
H272	H	0.850973	0.182121	-0.046546
H273	H	1.184306	0.515455	0.286787
H274	H	0.510411	-0.202429	-0.328490
H275	H	0.843744	0.130904	0.004843
H276	H	1.177077	0.464238	0.338177
H277	H	0.569174	-0.154365	-0.325126
H278	H	0.902507	0.178969	0.008207
H279	H	1.235840	0.512302	0.341541
H280	H	0.554659	-0.243091	-0.415304
H281	H	0.887992	0.090242	-0.081971
H282	H	1.221326	0.423575	0.251362
H283	H	0.613426	-0.195021	-0.411954
H284	H	0.946760	0.138312	-0.078621
H285	H	1.280093	0.471646	0.254713
C286	C	0.843851	-0.352191	-0.897148
C287	C	1.177185	-0.018858	-0.563815
C288	C	1.510518	0.314476	-0.230482
C289	C	0.887294	-0.387690	-0.934961
C290	C	1.220628	-0.054356	-0.601628
C291	C	1.553961	0.278977	-0.268295
H292	H	0.814456	-0.379516	-0.874834
H293	H	1.147789	-0.046182	-0.541501
H294	H	1.481123	0.287151	-0.208168
H295	H	0.869646	-0.328234	-0.868177
H296	H	1.202979	0.005099	-0.534844
H297	H	1.536313	0.338433	-0.201510
H298	H	0.817981	-0.324756	-0.922793
H299	H	1.151314	0.008577	-0.589460
H300	H	1.484648	0.341911	-0.256127
H301	H	0.913168	-0.415122	-0.909316
H302	H	1.246502	-0.081789	-0.575982
H303	H	1.579835	0.251545	-0.242649
H304	H	0.861497	-0.411658	-0.963936
H305	H	1.194830	-0.078324	-0.630603
H306	H	1.528163	0.255009	-0.297269
H307	H	0.720539	-0.230405	-0.376430
H308	H	1.053873	0.102929	-0.043096
H309	H	1.387206	0.436262	0.290237
C310	C	0.849275	-0.576499	-0.183289
C311	C	1.182609	-0.243166	0.150044
C312	C	1.515942	0.090167	0.483378
C313	C	0.887234	-0.533717	-0.218650
C314	C	1.220567	-0.200384	0.114683
C315	C	1.553901	0.132949	0.448016
H316	H	0.819911	-0.554229	-0.155938
H317	H	1.153244	-0.220896	0.177395
H318	H	1.486577	0.112438	0.510729
H319	H	0.823380	-0.602143	-0.210698
H320	H	1.156714	-0.268810	0.122635
H321	H	1.490047	0.064523	0.455968
H322	H	0.878794	-0.602133	-0.159241
H323	H	1.212128	-0.268800	0.174092
H324	H	1.545461	0.064533	0.507426
H325	H	0.857715	-0.508086	-0.242702
H326	H	1.191048	-0.174753	0.090631
H327	H	1.524382	0.158581	0.423965
H328	H	0.913131	-0.508062	-0.191238
H329	H	1.246464	-0.174729	0.142096
H330	H	1.579797	0.158604	0.475429
C331	C	1.054578	-0.156305	-1.057129
C332	C	1.387912	0.177029	-0.723796
C333	C	1.721245	0.510362	-0.390463
C334	C	1.069143	-0.218641	-1.073032
C335	C	1.402476	0.114693	-0.739698
C336	C	1.735809	0.448026	-0.406365
H337	H	1.083978	-0.128982	-1.079440
H338	H	1.417312	0.204352	-0.746107
H339	H	1.750645	0.537685	-0.412773
H340	H	1.009115	-0.147083	-1.067891
H341	H	1.342448	0.186250	-0.734557
H342	H	1.675781	0.519583	-0.401224
H343	H	1.060777	-0.150572	-1.013273
H344	H	1.394110	0.182761	-0.679939
H345	H	1.727444	0.516094	-0.346606
H346	H	1.062939	-0.224374	-1.116888
H347	H	1.396273	0.108959	-0.783555
H348	H	1.729606	0.442292	-0.450221
H349	H	1.114617	-0.227865	-1.062275
H350	H	1.447951	0.105468	-0.728941
H351	H	1.781284	0.438801	-0.395608
C352	C	0.415511	-0.178507	-0.352502
C353	C	0.748844	0.154827	-0.019169
C354	C	1.082178	0.488160	0.314165
C355	C	0.374869	-0.218982	-0.387939
C356	C	0.708202	0.114351	-0.054605
C357	C	1.041535	0.447685	0.278728
H358	H	0.439525	-0.151228	-0.379870
H359	H	0.772859	0.182105	-0.046537
H360	H	1.106192	0.515438	0.286797
H361	H	0.387929	-0.154391	-0.325129
H362	H	0.721263	0.178942	0.008205
H363	H	1.054596	0.512275	0.341538
H364	H	0.446650	-0.202453	-0.328482
H365	H	0.779983	0.130881	0.004851
H366	H	1.113317	0.464214	0.338185
H367	H	0.343726	-0.195036	-0.411955
H368	H	0.677060	0.138297	-0.078622
H369	H	1.010393	0.471630	0.254711
H370	H	0.402453	-0.243100	-0.415323
H371	H	0.735786	0.090234	-0.081990
H372	H	1.069120	0.423567	0.251344
H373	H	1.056803	-0.230159	-0.944396
H374	H	1.390136	0.103174	-0.611063
H375	H	1.723469	0.436508	-0.277730
C376	C	0.599155	-0.450087	-0.232064
C377	C	0.932488	-0.116753	0.101270
C378	C	1.265821	0.216580	0.434603
C379	C	0.582082	-0.387729	-0.218592
C380	C	0.915415	-0.054395	0.114741
C381	C	1.248749	0.278938	0.448074
H382	H	0.575148	-0.477369	-0.204693
H383	H	0.908482	-0.144035	0.128640
H384	H	1.241815	0.189298	0.461973
H385	H	0.587587	-0.459358	-0.274338
H386	H	0.920920	-0.126024	0.058996
H387	H	1.254254	0.207309	0.392329
H388	H	0.646307	-0.455825	-0.226285
H389	H	0.979641	-0.122492	0.107048
H390	H	1.312974	0.210841	0.440381
H391	H	0.534930	-0.381989	-0.224375
H392	H	0.868263	-0.048656	0.108958
H393	H	1.201597	0.284678	0.442292
H394	H	0.593645	-0.378455	-0.176308
H395	H	0.926979	-0.045121	0.157025
H396	H	1.260312	0.288212	0.490359
C397	C	0.799986	-0.379215	-0.227090
C398	C	1.133319	-0.045882	0.106243
C399	C	1.466652	0.287452	0.439577
C400	C	0.730470	-0.387713	-0.218582
C401	C	1.063803	-0.054379	0.114752
C402	C	1.397136	0.278954	0.448085
H403	H	0.823943	-0.406488	-0.199713
H404	H	1.157276	-0.073155	0.133620
H405	H	1.490610	0.260179	0.466953
H406	H	0.811586	-0.388492	-0.269362
H407	H	1.144919	-0.055159	0.063972
H408	H	1.478253	0.278175	0.397305
H409	H	0.811573	-0.336903	-0.217955
H410	H	1.144907	-0.003569	0.115379
H411	H	1.478240	0.329764	0.448712
H412	H	0.718881	-0.430024	-0.227722
H413	H	1.052215	-0.096691	0.105611
H414	H	1.385548	0.236642	0.438945
H415	H	0.718865	-0.378440	-0.176300
H416	H	1.052198	-0.045107	0.157033
H417	H	1.385531	0.288226	0.490366
H418	H	1.056569	-0.542873	-0.376336
H419	H	1.389902	-0.209540	-0.043002
H420	H	1.723236	0.123794	0.290331
H421	H	0.236400	-0.376309	-0.230109
H422	H	0.569734	-0.042976	0.103225
H423	H	0.903067	0.290358	0.436558
C424	C	0.896452	-0.379135	-1.137611
C425	C	1.229786	-0.045801	-0.804278
C426	C	1.563119	0.287532	-0.470945
C427	C	0.887301	-0.387652	-1.072963
C428	C	1.220635	-0.054318	-0.739630
C429	C	1.553968	0.279015	-0.406296
H430	H	0.867069	-0.406453	-1.159904
H431	H	1.200403	-0.073120	-0.826571
H432	H	1.533736	0.260213	-0.493238
H433	H	0.886565	-0.336842	-1.148382
H434	H	1.219898	-0.003509	-0.815049
H435	H	1.553232	0.329824	-0.481715
H436	H	0.941928	-0.388343	-1.148392
H437	H	1.275262	-0.055010	-0.815058
H438	H	1.608595	0.278323	-0.481725
H439	H	0.841826	-0.378438	-1.062182
H440	H	1.175160	-0.045105	-0.728848
H441	H	1.508493	0.288228	-0.395515
H442	H	0.897184	-0.429954	-1.062188
H443	H	1.230517	-0.096621	-0.728854
H444	H	1.563851	0.236713	-0.395521
H445	H	1.056607	-0.662139	-0.376365
H446	H	1.389940	-0.328806	-0.043032
H447	H	1.723274	0.004528	0.290301
C448	C	0.896461	-0.736354	-0.227185
C449	C	1.229795	-0.403021	0.106149
C450	C	1.563128	-0.069688	0.439482
C451	C	0.887295	-0.671721	-0.218670
C452	C	1.220628	-0.338388	0.114663
C453	C	1.553962	-0.005055	0.447997
H454	H	0.867112	-0.758696	-0.199840
H455	H	1.200446	-0.425363	0.133494
H456	H	1.533779	-0.092030	0.466827
H457	H	0.886537	-0.747112	-0.269468
H458	H	1.219870	-0.413779	0.063866
H459	H	1.553204	-0.080446	0.397199
H460	H	0.941950	-0.747089	-0.218010
H461	H	1.275283	-0.413755	0.115324
H462	H	1.608617	-0.080422	0.448657
H463	H	0.841807	-0.660987	-0.227849
H464	H	1.175140	-0.327653	0.105484
H465	H	1.508474	0.005680	0.438817
H466	H	0.897214	-0.660959	-0.176377
H467	H	1.230548	-0.327626	0.156956
H468	H	1.563881	0.005707	0.490290
H469	H	0.364634	-0.376294	-0.230095
H470	H	0.697968	-0.042961	0.103238
H471	H	1.031301	0.290372	0.436572
H472	H	1.056770	-1.062977	-0.376430
H473	H	1.390103	-0.729643	-0.043097
H474	H	1.723437	-0.396310	0.290236
C475	C	1.107030	-0.977013	-0.423273
C476	C	1.440364	-0.643679	-0.089940
C477	C	1.773697	-0.310346	0.243393
C478	C	1.069045	-0.934326	-0.387892
C479	C	1.402379	-0.600993	-0.054559
C480	C	1.735712	-0.267659	0.278774
H481	H	1.136373	-0.954668	-0.450622
H482	H	1.469706	-0.621335	-0.117289
H483	H	1.803039	-0.288002	0.216044
H484	H	1.132950	-1.002645	-0.395876
H485	H	1.466284	-0.669312	-0.062543
H486	H	1.799617	-0.335978	0.270790
H487	H	1.077527	-1.002668	-0.447324
H488	H	1.410860	-0.669334	-0.113991
H489	H	1.744193	-0.336001	0.219342
H490	H	1.098549	-0.908674	-0.363837
H491	H	1.431882	-0.575341	-0.030504
H492	H	1.765215	-0.242007	0.302829
H493	H	1.043123	-0.908683	-0.415293
H494	H	1.376457	-0.575349	-0.081959
H495	H	1.709790	-0.242016	0.251374
H496	H	0.899732	-0.943912	-0.230198
H497	H	1.233065	-0.610579	0.103135
H498	H	1.566399	-0.277245	0.436469
H499	H	1.056796	-0.230301	-0.543559
H500	H	1.390129	0.103032	-0.210225
H501	H	1.723462	0.436365	0.123108
H502	H	1.056791	-0.230254	-0.662823
H503	H	1.390125	0.103079	-0.329489
H504	H	1.723458	0.436412	0.003844
C505	C	0.896441	-0.379267	-0.736773
C506	C	1.229775	-0.045933	-0.403440
C507	C	1.563108	0.287400	-0.070107
C508	C	0.887288	-0.387783	-0.672125
C509	C	1.220622	-0.054450	-0.338792
C510	C	1.553955	0.278884	-0.005458
H511	H	0.867054	-0.406581	-0.759067
H512	H	1.200387	-0.073248	-0.425733
H513	H	1.533721	0.260086	-0.092400
H514	H	0.886561	-0.336973	-0.747544
H515	H	1.219894	-0.003639	-0.414210
H516	H	1.553227	0.329694	-0.080877
H517	H	0.941916	-0.388481	-0.747554
H518	H	1.275249	-0.055148	-0.414220
H519	H	1.608583	0.278185	-0.080887
H520	H	0.841815	-0.378564	-0.661344
H521	H	1.175148	-0.045230	-0.328011
H522	H	1.508481	0.288103	0.005323
H523	H	0.897164	-0.430087	-0.661350
H524	H	1.230498	-0.096753	-0.328017
H525	H	1.563831	0.236580	0.005316
