data_functionalizedCrystal
_audit_creation_method	'MofGen! by Chris Wilmer'
_symmetry_space_group_name_H-M	'P1'
_symmetry_Int_Tables_number	1
_symmetry_cell_setting	triclinic
loop_
_symmetry_equiv_pos_as_xyz
  x,y,z
_cell_length_a	21.295418
_cell_length_b	17.077402
_cell_length_c	17.077395
_cell_angle_alpha	90.028524
_cell_angle_beta	89.965068
_cell_angle_gamma	89.961304
loop_
_atom_site_label
_atom_site_type_symbol
_atom_site_fract_x
_atom_site_fract_y
_atom_site_fract_z
Zn1	Zn	0.962334	0.312187	-0.444240
Zn2	Zn	0.962267	0.443458	-0.312971
Zn3	Zn	0.857074	0.312247	-0.312944
Zn4	Zn	0.857041	0.443451	-0.444150
O5	O	0.909679	0.377836	-0.378576
O6	O	1.050415	0.329578	-0.426876
O7	O	0.948298	0.426082	-0.203120
O8	O	0.871079	0.202392	-0.330386
O9	O	1.050365	0.426023	-0.330433
O10	O	0.948413	0.202348	-0.426849
O11	O	0.871013	0.329681	-0.203100
O12	O	0.768980	0.329673	-0.330299
O13	O	0.871023	0.426009	-0.554009
O14	O	0.768956	0.426068	-0.426696
O15	O	0.948382	0.329570	-0.554075
O16	O	0.948267	0.553304	-0.330346
O17	O	0.870958	0.553299	-0.426723
C18	C	0.909618	0.581784	-0.378545
C19	C	0.909650	0.669033	-0.378558
C20	C	0.746127	0.377877	-0.378486
C21	C	0.676159	0.377913	-0.378466
C22	C	0.909706	0.377782	-0.583320
C23	C	0.909718	0.377760	-0.670570
C24	C	0.643297	0.428173	-0.428585
C25	C	0.577554	0.428153	-0.428620
C26	C	0.544677	0.377883	-0.378522
C27	C	0.577547	0.327614	-0.328400
C28	C	0.643289	0.327629	-0.328372
N29	N	0.441409	0.371751	-0.309865
N30	N	0.378957	0.371741	-0.309894
C31	C	0.346602	0.377833	-0.378605
N32	N	0.379058	0.383950	-0.447288
N33	N	0.441515	0.383964	-0.447258
C34	C	0.473391	0.377861	-0.378548
C35	C	0.242454	0.428074	-0.428767
C36	C	0.176710	0.428049	-0.428803
C37	C	0.176705	0.327514	-0.328576
C38	C	0.242447	0.327535	-0.328547
C39	C	0.275318	0.377819	-0.378641
C40	C	1.073869	0.377795	-0.378667
C41	C	1.143837	0.377777	-0.378706
C42	C	0.909757	0.173091	-0.378625
C43	C	0.909790	0.085841	-0.378645
C44	C	0.949946	0.710000	-0.328428
C45	C	0.949977	0.791981	-0.328448
C46	C	0.909708	0.832993	-0.378594
C47	C	0.869410	0.792020	-0.428729
C48	C	0.869383	0.710041	-0.428713
C49	C	0.869468	0.962890	-0.428759
C50	C	0.869495	1.044874	-0.428775
C51	C	0.950062	1.044830	-0.328495
C52	C	0.950035	0.962851	-0.328478
C53	C	0.909736	0.921884	-0.378612
C54	C	0.950068	0.327437	-1.046420
C55	C	0.950055	0.327465	-0.964440
C56	C	0.909769	0.377685	-0.923419
C57	C	0.869498	0.427887	-0.964384
C58	C	0.869515	0.427863	-1.046363
C59	C	0.869466	0.427933	-0.793513
C60	C	0.869448	0.427956	-0.711529
C61	C	0.950006	0.327534	-0.711591
C62	C	0.950023	0.327510	-0.793570
C63	C	0.909751	0.377711	-0.834528
C64	C	0.909688	0.377832	-0.174628
C65	C	0.909799	0.377634	-0.087379
H66	H	0.670056	0.469117	-0.469376
H67	H	0.982789	0.825333	-0.287627
H68	H	0.836700	0.468781	-0.930978
H69	H	0.836625	0.825418	-0.469563
Br70	Br	0.132093	0.259281	-0.260593
Br71	Br	0.687891	0.259413	-0.260349
H72	H	0.269204	0.286612	-0.287731
Br73	Br	0.814779	0.907292	-0.496802
Br74	Br	0.814865	0.495994	-1.101950
Br75	Br	1.004679	0.259427	-0.656006
Br76	Br	0.814811	0.496065	-0.849100
H77	H	0.269219	0.469014	-0.469560
H78	H	0.550792	0.469080	-0.469436
H79	H	0.836571	0.676686	-0.469534
H80	H	0.550775	0.286682	-0.287611
H81	H	0.982877	1.078189	-0.287676
H82	H	0.149954	0.468975	-0.469621
Br83	Br	1.004594	0.654349	-0.260361
H84	H	0.982822	0.929459	-0.287641
H85	H	0.836716	1.078264	-0.469623
Br86	Br	1.004711	0.259340	-0.908856
Br87	Br	1.004736	0.259266	-1.102083
H88	H	0.836630	0.468832	-0.678132
Br89	Br	1.004707	0.259366	-0.849241
