data_functionalizedCrystal
_audit_creation_method	'MofGen! by Chris Wilmer'
_symmetry_space_group_name_H-M	'P1'
_symmetry_Int_Tables_number	1
_symmetry_cell_setting	triclinic
loop_
_symmetry_equiv_pos_as_xyz
  x,y,z
_cell_length_a	17.038272
_cell_length_b	9.130313
_cell_length_c	10.654550
_cell_angle_alpha	89.994910
_cell_angle_beta	92.201757
_cell_angle_gamma	89.994752
loop_
_atom_site_label
_atom_site_type_symbol
_atom_site_fract_x
_atom_site_fract_y
_atom_site_fract_z
O1	O	1.038886	0.121616	-0.272866
O2	O	0.811231	0.121659	-0.268533
O3	O	0.930293	0.121627	-0.088446
O4	O	0.919825	0.121647	-0.452953
O5	O	0.930292	-0.121972	-0.088437
O6	O	0.811230	-0.121940	-0.268524
O7	O	1.038885	-0.121983	-0.272857
Cu8	Cu	0.925058	-0.144204	-0.270689
Cu9	Cu	0.925059	0.143880	-0.270700
O10	O	0.919824	-0.121951	-0.452943
C11	C	0.782081	-0.000135	-0.264588
C12	C	0.695222	-0.000119	-0.252831
N13	N	0.925062	-0.346827	-0.270681
N14	N	0.925060	0.346502	-0.270699
C15	C	0.645711	-0.000114	-0.360775
C16	C	0.564098	-0.000135	-0.349720
C17	C	0.531999	-0.000150	-0.230720
C18	C	0.581517	-0.000159	-0.122768
C19	C	0.663127	-0.000149	-0.133824
C20	C	0.286023	-0.000192	-0.191663
C21	C	0.204406	-0.000197	-0.180615
C22	C	0.186993	-0.000176	-0.407568
C23	C	0.268606	-0.000157	-0.418614
C24	C	0.318117	-0.000174	-0.310661
C25	C	0.448578	-0.000167	-0.219418
C26	C	0.401536	-0.000167	-0.321965
C27	C	1.068036	-0.000186	-0.276802
C28	C	1.154895	-0.000193	-0.288559
C29	C	0.929524	-0.000171	-0.041572
C30	C	0.927224	-0.000169	0.098084
C31	C	0.977881	0.423140	-0.191134
C32	C	0.977884	0.576477	-0.191128
C33	C	0.872239	0.576525	-0.350255
C34	C	0.872241	0.423191	-0.350267
C35	C	0.920593	-0.000150	-0.499817
C36	C	0.922892	-0.000143	-0.639474
C37	C	0.997326	-0.000182	0.171061
C38	C	0.995160	-0.000163	0.302283
C39	C	0.852785	-0.000126	0.287540
C40	C	0.854952	-0.000133	0.156320
H41	H	0.671839	-0.000101	-0.457677
F42	F	0.780336	-0.000109	0.078648
F43	F	1.034098	0.341529	-0.106454
F44	F	0.775872	-0.000087	0.349530
H45	H	1.020896	0.638871	-0.126340
H46	H	0.829234	0.638980	-0.415036
H47	H	0.829227	0.360788	-0.415065
H48	H	0.523789	-0.000129	-0.437620
F49	F	1.074244	-0.000217	0.109086
H50	H	0.178274	-0.000208	-0.083706
F51	F	0.302763	-0.000133	-0.545269
F52	F	0.134296	-0.000161	-0.522450
H53	H	1.052244	-0.000170	0.361695
H54	H	0.555375	-0.000193	-0.025876
F55	F	0.338705	-0.000209	-0.076768
F56	F	0.414408	-0.000178	-0.092773
H57	H	0.427675	-0.000163	-0.418854
F58	F	0.715821	-0.000159	-0.018935
