data_functionalizedCrystal
_audit_creation_method	'MofGen! by Chris Wilmer'
_symmetry_space_group_name_H-M	'P1'
_symmetry_Int_Tables_number	1
_symmetry_cell_setting	triclinic
loop_
_symmetry_equiv_pos_as_xyz
  x,y,z
_cell_length_a	18.215407
_cell_length_b	14.909383
_cell_length_c	18.215399
_cell_angle_alpha	93.273811
_cell_angle_beta	89.982632
_cell_angle_gamma	86.723416
loop_
_atom_site_label
_atom_site_type_symbol
_atom_site_fract_x
_atom_site_fract_y
_atom_site_fract_z
Zn1	Zn	1.141995	-0.359196	-0.433005
Zn2	Zn	1.641995	0.140804	0.066995
Zn3	Zn	1.149011	-0.510051	-0.317053
Zn4	Zn	1.649011	-0.010051	0.182947
Zn5	Zn	1.018929	-0.359218	-0.309959
Zn6	Zn	1.518929	0.140782	0.190041
Zn7	Zn	1.025998	-0.509993	-0.440080
Zn8	Zn	1.525998	-0.009993	0.059920
O9	O	1.083983	-0.434614	-0.375024
O10	O	1.583983	0.065386	0.124976
O11	O	1.245911	-0.379223	-0.417632
O12	O	1.745911	0.120777	0.082368
O13	O	1.131733	-0.490076	-0.213129
O14	O	1.631733	0.009924	0.286871
O15	O	1.029359	-0.232982	-0.320352
O16	O	1.529359	0.267018	0.179648
O17	O	1.251065	-0.490055	-0.332442
O18	O	1.751065	0.009945	0.167558
O19	O	1.119775	-0.232966	-0.410754
O20	O	1.619775	0.267034	0.089246
O21	O	1.036162	-0.379259	-0.207917
O22	O	1.536162	0.120741	0.292083
O23	O	0.916882	-0.379203	-0.327212
O24	O	1.416882	0.120797	0.172788
O25	O	1.041408	-0.489956	-0.542124
O26	O	1.541408	0.010044	-0.042124
O27	O	0.922076	-0.489977	-0.422811
O28	O	1.422076	0.010023	0.077189
O29	O	1.126631	-0.379166	-0.536927
O30	O	1.626631	0.120834	-0.036927
O31	O	1.138588	-0.636276	-0.339302
O32	O	1.638588	-0.136276	0.160698
O33	O	1.048211	-0.636233	-0.429690
O34	O	1.548211	-0.136233	0.070310
C35	C	0.892776	-0.434587	-0.375010
C36	C	1.392776	0.065413	0.124990
C37	C	0.810977	-0.434596	-0.375023
C38	C	1.310977	0.065404	0.124977
C39	C	0.620104	-0.377005	-0.419461
C40	C	1.120104	0.122995	0.080539
C41	C	0.543246	-0.377013	-0.419464
C42	C	1.043246	0.122987	0.080536
C43	C	0.548616	-0.492249	-0.330602
C44	C	1.048616	0.007751	0.169398
C45	C	0.625473	-0.492236	-0.330596
C46	C	1.125473	0.007764	0.169404
C47	C	0.661215	-0.434615	-0.375029
C48	C	1.161215	0.065385	0.124971
C49	C	0.507500	-0.434636	-0.375038
C50	C	1.007500	0.065364	0.124962
C51	C	0.424167	-0.434645	-0.375041
C52	C	0.924167	0.065355	0.124959
C53	C	0.744553	-0.434605	-0.375026
C54	C	1.244553	0.065395	0.124974
C55	C	1.094948	-0.668985	-0.386049
C56	C	1.594948	-0.168985	0.113951
C57	C	1.099706	-0.769250	-0.390791
C58	C	1.599706	-0.269250	0.109209
C59	C	1.014582	-0.957829	-0.305478
C60	C	1.514582	-0.457829	0.194522
C61	C	1.019051	-1.052036	-0.309931
C62	C	1.519051	-0.552036	0.190069
C63	C	1.113114	-1.051875	-0.404144
C64	C	1.613114	-0.551875	0.095856
C65	C	1.108646	-0.957668	-0.399691
C66	C	1.608646	-0.457668	0.100309
C67	C	1.059378	-0.910647	-0.350358
C68	C	1.559378	-0.410647	0.149642
C69	C	1.054906	-0.816438	-0.345909
C70	C	1.554906	-0.316438	0.154091
C71	C	1.148973	-0.816279	-0.440118
C72	C	1.648973	-0.316279	0.059882
C73	C	1.153441	-0.910486	-0.444571
C74	C	1.653441	-0.410486	0.055429
C75	C	1.275938	-0.434643	-0.375039
C76	C	1.775938	0.065357	0.124961
C77	C	1.357737	-0.434655	-0.375045
C78	C	1.857737	0.065345	0.124955
C79	C	1.084025	-0.434552	-0.566974
C80	C	1.584025	0.065448	-0.066974
C81	C	1.084043	-0.434526	-0.648772
C82	C	1.584043	0.065474	-0.148772
C83	C	1.072996	-0.199328	-0.363972
C84	C	1.572996	0.300672	0.136028
C85	C	1.068314	-0.099063	-0.359263
C86	C	1.568314	0.400937	0.140737
C87	C	1.128433	-0.376784	-0.834258
C88	C	1.628433	0.123216	-0.334258
C89	C	1.128440	-0.376757	-0.911116
C90	C	1.628440	0.123243	-0.411116
C91	C	1.039699	-0.492128	-0.916517
C92	C	1.539699	0.007872	-0.416517
C93	C	1.039688	-0.492149	-0.839661
C94	C	1.539688	0.007851	-0.339661
C95	C	1.084059	-0.434478	-0.798533
C96	C	1.584059	0.065522	-0.298533
C97	C	1.084078	-0.434431	-0.952247
C98	C	1.584078	0.065569	-0.452247
C99	C	1.084086	-0.434403	-1.035580
C100	C	1.584086	0.065597	-0.535580
C101	C	1.084051	-0.434505	-0.715196
C102	C	1.584051	0.065495	-0.215196
C103	C	1.083981	-0.434611	-0.183818
C104	C	1.583981	0.065389	0.316182
C105	C	1.084094	-0.434384	-0.102009
C106	C	1.584094	0.065616	0.397991
H107	H	0.519505	-0.539163	-0.294426
H108	H	1.019505	-0.039163	0.205574
H109	H	0.658946	-0.539150	-0.294410
H110	H	1.158946	-0.039150	0.205590
C111	C	1.000716	-0.764717	-0.291644
C112	C	1.500716	-0.264717	0.208356
H113	H	0.974683	-0.806312	-0.265549
H114	H	1.474683	-0.306312	0.234451
H115	H	0.966888	-0.727975	-0.318026
H116	H	1.466888	-0.227975	0.181974
H117	H	1.027151	-0.727965	-0.257866
H118	H	1.527151	-0.227965	0.242134
C119	C	0.960387	-0.906104	-0.251220
C120	C	1.460387	-0.406104	0.248780
H121	H	0.934349	-0.947697	-0.225127
H122	H	1.434349	-0.447697	0.274873
H123	H	0.926565	-0.869362	-0.277609
H124	H	1.426565	-0.369362	0.222391
H125	H	0.986818	-0.869352	-0.217439
H126	H	1.486818	-0.369352	0.282561
H127	H	0.649203	-0.330084	-0.455639
H128	H	1.149203	0.169916	0.044361
C129	C	0.990876	-0.555614	-0.800357
C130	C	1.490876	-0.055614	-0.300357
H131	H	0.997219	-0.547358	-0.748694
H132	H	1.497219	-0.047358	-0.248694
H133	H	1.004476	-0.616223	-0.815796
H134	H	1.504476	-0.116223	-0.315796
H135	H	0.940811	-0.542396	-0.812325
H136	H	1.440811	-0.042396	-0.312325
H137	H	0.982574	-1.090448	-0.273385
H138	H	1.482574	-0.590448	0.226615
H139	H	1.153231	-1.090175	-0.444303
H140	H	1.653231	-0.590175	0.055697
C141	C	0.498027	-0.313646	-0.468342
C142	C	0.998027	0.186354	0.031658
H143	H	0.530324	-0.279335	-0.494807
H144	H	1.030324	0.220665	0.005193
H145	H	0.466189	-0.274300	-0.438397
H146	H	0.966189	0.225700	0.061603
H147	H	0.469679	-0.348214	-0.501992
H148	H	0.969679	0.151786	-0.001992
H149	H	1.164561	-0.329822	-0.800774
H150	H	1.664561	0.170178	-0.300774
C151	C	1.207628	-0.962213	-0.498836
C152	C	1.707628	-0.462213	0.001164
H153	H	1.203871	-1.025078	-0.495065
H154	H	1.703871	-0.525078	0.004935
H155	H	1.256349	-0.946735	-0.487387
H156	H	1.756349	-0.446735	0.012613
H157	H	1.196082	-0.946747	-0.547543
H158	H	1.696082	-0.446747	-0.047543
H159	H	1.003575	-0.539084	-0.950013
H160	H	1.503575	-0.039084	-0.450013
C161	C	1.198254	-0.764382	-0.489486
C162	C	1.698254	-0.264382	0.010514
H163	H	1.228231	-0.805881	-0.519506
H164	H	1.728231	-0.305881	-0.019506
H165	H	1.228592	-0.727620	-0.459628
H166	H	1.728592	-0.227620	0.040372
H167	H	1.168335	-0.727637	-0.519793
H168	H	1.668335	-0.227637	-0.019793
H169	H	1.164573	-0.329775	-0.940199
H170	H	1.664573	0.170225	-0.440199
