data_functionalizedCrystal
_audit_creation_method	'MofGen! by Chris Wilmer'
_symmetry_space_group_name_H-M	'P1'
_symmetry_Int_Tables_number	1
_symmetry_cell_setting	triclinic
loop_
_symmetry_equiv_pos_as_xyz
  x,y,z
_cell_length_a	23.532407
_cell_length_b	14.971506
_cell_length_c	22.610064
_cell_angle_alpha	89.991454
_cell_angle_beta	89.999397
_cell_angle_gamma	83.235533
loop_
_atom_site_label
_atom_site_type_symbol
_atom_site_fract_x
_atom_site_fract_y
_atom_site_fract_z
O1	O	0.074262	1.186155	-0.049195
O2	O	0.083138	0.925664	-0.049196
O3	O	-0.004198	1.063765	-0.049185
O4	O	0.161598	1.048054	-0.049206
O5	O	-0.004185	1.063740	0.049185
O6	O	0.083150	0.925639	0.049173
O7	O	0.074275	1.186131	0.049174
Zn8	Zn	0.078715	1.055881	0.064792
Zn9	Zn	0.078698	1.055913	-0.064814
O10	O	0.161610	1.048030	0.049163
C11	C	0.082745	0.892331	-0.000011
C12	C	0.081549	0.793048	-0.000011
C13	C	-0.025409	1.063352	0.000002
C14	C	-0.088631	1.062149	0.000006
C15	C	0.128294	0.354271	-0.000023
C16	C	0.129413	0.447560	-0.000026
C17	C	0.078101	0.505322	-0.000017
C18	C	0.025665	0.469791	-0.000011
C19	C	0.024547	0.376505	-0.000012
C20	C	0.028000	0.664230	-0.000006
C21	C	0.029118	0.757523	-0.000003
C22	C	0.132867	0.735285	-0.000020
C23	C	0.131748	0.641998	-0.000022
C24	C	0.079313	0.606474	-0.000014
C25	C	-0.487413	1.136330	-0.000026
C26	C	-0.546818	1.135213	-0.000031
O27	O	-0.583265	1.203980	-0.000052
N28	N	-0.569800	1.053112	-0.000030
C29	C	-0.533373	0.972123	-0.000032
O30	O	-0.558375	0.902188	-0.000033
C31	C	-0.473969	0.973242	-0.000032
C32	C	-0.450991	1.055348	-0.000026
C33	C	-0.464435	1.218430	-0.000021
C34	C	-0.405034	1.219547	-0.000015
C35	C	-0.368611	1.138564	-0.000015
C36	C	-0.391590	1.056465	-0.000020
C37	C	-0.437543	0.892254	-0.000037
C38	C	-0.378136	0.893379	-0.000037
C39	C	-0.355158	0.975485	-0.000032
C40	C	-0.295767	0.976599	-0.000014
N41	N	-0.272785	1.058700	-0.000014
C42	C	-0.309207	1.139683	-0.000015
C43	C	-0.658126	0.969781	-0.000033
C44	C	-0.717528	0.968662	-0.000030
C45	C	-0.730970	1.131752	-0.000029
C46	C	-0.671566	1.132870	-0.000029
C47	C	-0.635144	1.051882	-0.000034
C48	C	-0.184461	1.142022	-0.000002
C49	C	-0.125054	1.143132	0.000006
C50	C	-0.111618	0.980042	0.000002
C51	C	-0.171019	0.978932	-0.000003
C52	C	-0.207440	1.059929	-0.000007
O53	O	-0.259285	0.907869	0.000005
O54	O	-0.284197	1.209607	-0.000022
C55	C	0.182822	1.048442	-0.000025
C56	C	0.246044	1.049645	-0.000033
C57	C	0.074668	1.219463	-0.000012
C58	C	0.075863	1.318747	-0.000016
N59	N	0.078726	1.055866	0.153244
N60	N	0.078682	1.055936	-0.153266
C61	C	0.040032	1.117067	0.561891
C62	C	0.040028	1.117072	0.623811
O63	O	0.007137	1.169069	0.655834
N64	N	0.078686	1.055913	0.654782
C65	C	0.117347	0.994739	0.623829
O66	O	0.150229	0.942718	0.655858
C67	C	0.117348	0.994731	0.561910
C68	C	0.078691	1.055900	0.530943
C69	C	0.001377	1.178230	0.530923
C70	C	0.001382	1.178227	0.469008
C71	C	0.040042	1.117060	0.438060
C72	C	0.078696	1.055896	0.469027
C73	C	0.156006	0.933554	0.530959
C74	C	0.156004	0.933550	0.469036
C75	C	0.117347	0.994719	0.438069
C76	C	0.117361	0.994725	0.376164
N77	N	0.078702	1.055884	0.345193
C78	C	0.040043	1.117051	0.376141
C79	C	0.117342	0.994760	0.753863
C80	C	0.117344	0.994771	0.815780
C81	C	0.040023	1.117103	0.815758
C82	C	0.040024	1.117095	0.753839
C83	C	0.078683	1.055919	0.722892
C84	C	0.040056	1.117040	0.246113
C85	C	0.040066	1.117033	0.184192
C86	C	0.117385	0.994698	0.184221
C87	C	0.117377	0.994708	0.246136
C88	C	0.078708	1.055882	0.277081
O89	O	0.150233	0.942752	0.344101
O90	O	0.007162	1.169055	0.344104
H91	H	0.170080	0.307247	-0.000027
O92	O	-0.040320	1.244189	0.435609
H93	H	-0.067204	1.286710	0.467540
O94	O	0.159043	0.928782	0.720481
H95	H	0.203451	0.939790	0.732361
O96	O	-0.072325	0.892702	0.000001
H97	H	-0.080497	0.853372	0.040094
H98	H	0.187484	0.883744	0.556164
O99	O	0.189425	0.773591	-0.000034
H100	H	0.181584	0.848163	-0.000040
H101	H	0.148863	0.944899	0.159013
O102	O	-0.100273	1.231696	0.000002
H103	H	-0.114906	1.270580	0.040091
O104	O	-0.028554	0.625909	0.000007
H105	H	-0.064048	0.681745	0.000022
O106	O	-0.029680	0.532091	0.000006
H107	H	-0.031659	0.575147	-0.040082
H108	H	0.187484	0.883730	0.443842
O109	O	0.159071	0.928737	0.279543
H110	H	0.185952	0.886201	0.247618
H111	H	-0.652862	1.199728	-0.000025
O112	O	-0.380252	1.308104	-0.000015
H113	H	-0.353506	1.312519	-0.040107
O114	O	-0.032003	0.338181	0.000002
H115	H	-0.067497	0.394017	0.000016
O116	O	-0.338853	0.806024	-0.000041
H117	H	-0.311467	0.802622	0.040053
H118	H	0.172108	0.476479	-0.000038
H119	H	-0.494085	1.284380	-0.000023
H120	H	0.173532	0.594970	-0.000025
H121	H	-0.012665	0.804551	-0.000001
O122	O	-0.223739	1.229380	0.000002
H123	H	-0.197772	1.286650	0.000013
O124	O	-0.770259	1.219103	-0.000036
H125	H	-0.815425	1.204524	-0.000044
H126	H	0.008544	1.166908	0.840967
O127	O	-0.001639	1.182996	0.150791
H128	H	0.022376	1.226259	0.122576
H129	H	-0.030106	1.228040	0.556116
O130	O	-0.742310	0.880106	-0.000028
H131	H	-0.706998	0.823986	-0.000030
O132	O	0.159059	0.928818	0.849171
H133	H	0.151735	0.859155	0.837299
O134	O	-0.618842	0.882425	-0.000023
H135	H	-0.644808	0.825153	-0.000015
H136	H	-0.456241	0.825394	-0.000046
H137	H	-0.189729	0.912075	0.000009
O138	O	-0.001642	1.183029	0.279486
H139	H	-0.028512	1.225561	0.247542
O140	O	-0.001675	1.183060	0.720439
H141	H	-0.028557	1.225587	0.752367
