data_functionalizedCrystal
_audit_creation_method	'MofGen! by Chris Wilmer'
_symmetry_space_group_name_H-M	'P1'
_symmetry_Int_Tables_number	1
_symmetry_cell_setting	triclinic
loop_
_symmetry_equiv_pos_as_xyz
  x,y,z
_cell_length_a	10.268362
_cell_length_b	10.654553
_cell_length_c	10.654541
_cell_angle_alpha	84.486365
_cell_angle_beta	90.005050
_cell_angle_gamma	90.004730
loop_
_atom_site_label
_atom_site_type_symbol
_atom_site_fract_x
_atom_site_fract_y
_atom_site_fract_z
O1	O	0.108305	1.667834	0.176457
O2	O	0.108306	1.302356	0.193251
O3	O	0.108298	1.493500	0.002114
O4	O	0.108314	1.476690	0.367593
O5	O	-0.108303	1.493483	0.002106
O6	O	-0.108294	1.302340	0.193243
O7	O	-0.108296	1.667817	0.176449
Cu8	Cu	-0.128072	1.485077	0.184845
Cu9	Cu	0.128083	1.485097	0.184854
O10	O	-0.108287	1.476674	0.367585
C11	C	0.000006	1.255550	0.192011
C12	C	0.000007	1.116107	0.188314
N13	N	-0.308238	1.485072	0.184838
C14	C	-0.000002	1.492258	-0.044688
C15	C	0.000000	1.488567	-0.184131
C16	C	-0.573909	1.485090	0.184852
C17	C	-0.426071	1.485076	0.184848
N18	N	0.308249	1.485111	0.184852
C19	C	0.000008	1.714623	0.177688
C20	C	0.000016	1.854066	0.181385
C21	C	0.236160	1.854092	0.181409
C22	C	0.354232	1.919613	0.183162
C23	C	0.354232	2.050632	0.186632
C24	C	0.236149	2.116132	0.188348
C25	C	0.118077	2.050611	0.186595
C26	C	0.118090	1.919589	0.183128
C27	C	-0.118065	2.050586	0.186562
C28	C	-0.118068	1.919566	0.183100
C29	C	-0.236148	2.116086	0.188277
C30	C	-0.354222	2.050563	0.186534
C31	C	-0.354218	1.919537	0.183065
C32	C	-0.236139	1.854045	0.181348
C33	C	-0.000017	1.717131	-0.212094
C34	C	-0.000028	1.829673	-0.291585
C35	C	-0.000024	1.826198	-0.422603
C36	C	-0.000005	1.710167	-0.474132
C37	C	0.000006	1.597624	-0.394642
C38	C	-0.000002	1.601112	-0.263622
C39	C	0.000033	1.369064	-0.366679
C40	C	0.000020	1.372536	-0.235660
C41	C	0.000052	1.253033	-0.418208
C42	C	0.000054	1.140488	-0.338717
C43	C	0.000049	1.143968	-0.207692
C44	C	0.000031	1.259994	-0.156170
C45	C	0.000016	1.477916	0.414387
C46	C	0.000022	1.481606	0.553831
H47	H	0.236172	1.747407	0.178600
H48	H	0.000079	1.046024	-0.380684
H49	H	-0.236124	1.747361	0.178530
H50	H	0.000064	1.052321	-0.142977
C51	C	-0.000023	1.922339	-0.635866
C52	C	-0.000033	1.949903	-0.509988
H53	H	-0.000019	1.998710	-0.689811
H54	H	-0.075547	1.874808	-0.651589
H55	H	0.075521	1.874821	-0.651568
H56	H	-0.075581	1.997413	-0.494283
H57	H	0.075500	1.997454	-0.494258
H58	H	0.450376	2.103980	0.188057
H59	H	0.000019	1.262838	-0.049490
C60	C	0.111423	1.185859	-0.598268
C61	C	0.000064	1.249213	-0.562225
H62	H	0.111430	1.183507	-0.687180
H63	H	0.111423	1.102237	-0.558309
H64	H	0.186940	1.228881	-0.573777
H65	H	-0.075453	1.206185	-0.586709
H66	H	0.000052	1.332849	-0.602200
H67	H	0.236159	2.222816	0.191158
C68	C	-0.000053	1.846557	-0.039635
C69	C	-0.000032	1.720954	-0.068078
H70	H	-0.000055	1.848916	0.049276
H71	H	-0.075586	1.887948	-0.074444
H72	H	0.075482	1.887983	-0.074431
H73	H	-0.075572	1.679530	-0.033289
H74	H	0.075509	1.679546	-0.033253
H75	H	0.450373	1.866269	0.181760
H76	H	-0.000055	1.924143	-0.249615
H77	H	-0.236139	2.222769	0.191095
H78	H	-0.450356	2.103905	0.187923
H79	H	0.000015	1.707347	-0.580815
H80	H	-0.450366	1.866196	0.181643
