data_functionalizedCrystal
_audit_creation_method	'MofGen! by Chris Wilmer'
_symmetry_space_group_name_H-M	'P1'
_symmetry_Int_Tables_number	1
_symmetry_cell_setting	triclinic
loop_
_symmetry_equiv_pos_as_xyz
  x,y,z
_cell_length_a	11.169416
_cell_length_b	21.295420
_cell_length_c	11.169409
_cell_angle_alpha	89.975608
_cell_angle_beta	90.030874
_cell_angle_gamma	89.995618
loop_
_atom_site_label
_atom_site_type_symbol
_atom_site_fract_x
_atom_site_fract_y
_atom_site_fract_z
Zn1	Zn	-0.477901	-0.962435	0.678701
Zn2	Zn	-0.678641	-0.962377	0.478023
Zn3	Zn	-0.477950	-0.857161	0.478019
Zn4	Zn	-0.678520	-0.857165	0.678652
O5	O	-0.578253	-0.909784	0.578349
O6	O	-0.504560	-1.050517	0.652103
O7	O	-0.652091	-0.948394	0.310073
O8	O	-0.309994	-0.871148	0.504659
O9	O	-0.652043	-1.050474	0.504666
O10	O	-0.309958	-0.948493	0.652099
O11	O	-0.504644	-0.871092	0.310070
O12	O	-0.504526	-0.769072	0.504612
O13	O	-0.651836	-0.871155	0.846608
O14	O	-0.651883	-0.769075	0.652016
O15	O	-0.504442	-0.948497	0.846644
O16	O	-0.846575	-0.948398	0.504618
O17	O	-0.846485	-0.871099	0.652019
C18	C	-0.578197	-0.746233	0.578309
C19	C	-0.578203	-0.676265	0.578320
C20	C	-0.501597	-0.176828	0.655234
C21	C	-0.501592	-0.242571	0.655236
C22	C	-0.578253	-0.275425	0.578352
C23	C	-0.654946	-0.242532	0.501482
C24	C	-0.654958	-0.176791	0.501490
N25	N	-0.587324	-0.378618	0.473268
N26	N	-0.587306	-0.441070	0.473263
C27	C	-0.578225	-0.473500	0.578325
N28	N	-0.569138	-0.441120	0.683393
N29	N	-0.569150	-0.378663	0.683396
C30	C	-0.578249	-0.346711	0.578335
C31	C	-0.501536	-0.577671	0.655199
C32	C	-0.501540	-0.643415	0.655203
C33	C	-0.654888	-0.643375	0.501438
C34	C	-0.654891	-0.577632	0.501444
C35	C	-0.578209	-0.544784	0.578323
C36	C	-0.890078	-0.909759	0.578340
C37	C	-1.023477	-0.909806	0.578376
C38	C	-0.265210	-0.909827	0.578384
C39	C	-0.131810	-0.909845	0.578399
C40	C	-0.578120	-0.909833	0.891392
C41	C	-0.578063	-0.909853	1.024792
C42	C	-0.578295	-0.073975	0.578380
C43	C	-0.578275	-0.143943	0.578369
C44	C	-0.578299	-0.909773	0.266524
C45	C	-0.578018	-0.909874	0.133125
H46	H	-0.439097	-0.550925	0.717798
F47	F	-0.419975	-0.277577	0.737048
F48	F	-0.736489	-0.542631	0.419618
H49	H	-0.439161	-0.150088	0.717840
F50	F	-0.736569	-0.141790	0.419672
F51	F	-0.736538	-0.277499	0.419660
H52	H	-0.439102	-0.670189	0.717805
H53	H	-0.717316	-0.670124	0.438847
