data_functionalizedCrystal
_audit_creation_method	'MofGen! by Chris Wilmer'
_symmetry_space_group_name_H-M	'P1'
_symmetry_Int_Tables_number	1
_symmetry_cell_setting	triclinic
loop_
_symmetry_equiv_pos_as_xyz
  x,y,z
_cell_length_a	18.101398
_cell_length_b	18.101390
_cell_length_c	12.759399
_cell_angle_alpha	89.970129
_cell_angle_beta	90.013268
_cell_angle_gamma	89.985301
loop_
_atom_site_label
_atom_site_type_symbol
_atom_site_fract_x
_atom_site_fract_y
_atom_site_fract_z
Zn1	Zn	1.132206	-0.418657	-0.418278
Zn2	Zn	1.132136	-0.294822	-0.593990
Zn3	Zn	1.008364	-0.294840	-0.418320
Zn4	Zn	1.008350	-0.418632	-0.593910
O5	O	1.070264	-0.356738	-0.506125
O6	O	1.235829	-0.402233	-0.441603
O7	O	1.115693	-0.191192	-0.570739
O8	O	1.024827	-0.311282	-0.271294
O9	O	1.235778	-0.311252	-0.570698
O10	O	1.115813	-0.402250	-0.271263
O11	O	1.024759	-0.191205	-0.441675
O12	O	0.904729	-0.311258	-0.441597
O13	O	1.024803	-0.522269	-0.570560
O14	O	0.904719	-0.402208	-0.570602
O15	O	1.115800	-0.522287	-0.441525
O16	O	1.115680	-0.311228	-0.741001
O17	O	1.024735	-0.402191	-0.740942
C18	C	0.877853	-0.356733	-0.506096
C19	C	0.795539	-0.356748	-0.506109
C20	C	1.070308	-0.549900	-0.506029
C21	C	1.070327	-0.632214	-0.505988
C22	C	0.644831	-0.356747	-0.506128
C23	C	0.613495	-0.413882	-0.587420
C24	C	0.527877	-0.413712	-0.587749
C25	C	0.496448	-0.356747	-0.506148
C26	C	0.527506	-0.278606	-0.535703
C27	C	0.613151	-0.278937	-0.536281
C28	C	0.613288	-0.377071	-0.395080
C29	C	0.527638	-0.378792	-0.395689
C30	C	0.412589	-0.356742	-0.506157
C31	C	0.728690	-0.356747	-0.506122
C32	C	1.070367	-0.931305	-0.505922
C33	C	1.127808	-0.899991	-0.425022
C34	C	1.127628	-0.814373	-0.424722
C35	C	1.070347	-0.782923	-0.505955
C36	C	0.992325	-0.814002	-0.475871
C37	C	0.992669	-0.899647	-0.475264
C38	C	1.090261	-0.899720	-0.617115
C39	C	1.091973	-0.814070	-0.616548
C40	C	1.070332	-0.699063	-0.505975
C41	C	1.070377	-1.015165	-0.505900
C42	C	1.263426	-0.356744	-0.506154
C43	C	1.345740	-0.356746	-0.506167
C44	C	1.070218	-0.356721	-0.779092
C45	C	1.070267	-0.356739	-0.895869
C46	C	1.070263	-0.164327	-0.506144
C47	C	1.070387	-0.082014	-0.505889
C48	C	1.117676	-0.309428	-0.950727
C49	C	1.117723	-0.309453	-1.060451
C50	C	1.022947	-0.404101	-1.060449
C51	C	1.022903	-0.404079	-0.950727
C52	C	1.070330	-0.356771	-0.232091
C53	C	1.070358	-0.356785	-0.115315
H54	H	0.506879	-0.471643	-0.569311
O55	O	1.164330	-0.928345	-0.653356
H56	H	1.157196	-0.959497	-0.727575
H57	H	0.506043	-0.261136	-0.615978
O58	O	0.500742	-0.454963	-0.366153
H59	H	0.548877	-0.492062	-0.354448
H60	H	0.633879	-0.234907	-0.479603
H61	H	1.114458	-0.793899	-0.342349
H62	H	1.156243	-0.270882	-0.906063
H63	H	0.984384	-0.442643	-1.105128
O64	O	0.971769	-0.455109	-0.891544
H65	H	0.934098	-0.421918	-0.841626
O66	O	0.640799	-0.490861	-0.563291
H67	H	0.677000	-0.489225	-0.493107
O68	O	0.641974	-0.396245	-0.695804
H69	H	0.594644	-0.384770	-0.748690
H70	H	0.507371	-0.400229	-0.670041
H71	H	0.633109	-0.261759	-0.617442
O72	O	0.499304	-0.327731	-0.311221
H73	H	0.522364	-0.344840	-0.234335
H74	H	1.156329	-0.270929	-1.105111
H75	H	0.975806	-0.919636	-0.393984
H76	H	0.948414	-0.920360	-0.531625
O77	O	0.500550	-0.220662	-0.459682
H78	H	0.464640	-0.247006	-0.399890
O79	O	1.204692	-0.927293	-0.449651
H80	H	1.220618	-0.908891	-0.529503
O81	O	0.641930	-0.451273	-0.359307
H82	H	0.624761	-0.494406	-0.416103
H83	H	0.633553	-0.335461	-0.334519
O84	O	1.110568	-0.928500	-0.316513
H85	H	1.113418	-0.989752	-0.316395
O86	O	1.204265	-0.786533	-0.449657
H87	H	1.243629	-0.807111	-0.389651
O88	O	0.934084	-0.787011	-0.551500
H89	H	0.960193	-0.751070	-0.611473
O90	O	0.969579	-0.785620	-0.369393
H91	H	1.013713	-0.749388	-0.337730
H92	H	1.149391	-0.793756	-0.639233
H93	H	1.053180	-0.792658	-0.680064
H94	H	1.048428	-0.919976	-0.677394
