data_functionalizedCrystal
_audit_creation_method	'MofGen! by Chris Wilmer'
_symmetry_space_group_name_H-M	'P1'
_symmetry_Int_Tables_number	1
_symmetry_cell_setting	triclinic
loop_
_symmetry_equiv_pos_as_xyz
  x,y,z
_cell_length_a	10.723024
_cell_length_b	17.038272
_cell_length_c	9.198806
_cell_angle_alpha	89.996565
_cell_angle_beta	89.996352
_cell_angle_gamma	87.789713
loop_
_atom_site_label
_atom_site_type_symbol
_atom_site_fract_x
_atom_site_fract_y
_atom_site_fract_z
O1	O	1.667337	0.109720	-0.120885
O2	O	1.305156	0.120222	-0.120890
O3	O	1.484094	0.001144	-0.120876
O4	O	1.488399	0.228799	-0.120899
O5	O	1.484079	0.001144	0.120909
O6	O	1.305141	0.120222	0.120895
O7	O	1.667322	0.109720	0.120900
Cu8	Cu	1.486230	0.114971	0.142975
Cu9	Cu	1.486248	0.114971	-0.142964
O10	O	1.488384	0.228798	0.120886
C11	C	1.258578	0.119458	0.000002
C12	C	1.119813	0.117171	0.000000
C13	C	1.050993	0.183801	-0.000007
C14	C	0.907571	0.181440	-0.000009
C15	C	1.480171	-0.028006	0.000016
C16	C	1.468489	-0.114864	0.000016
C17	C	1.575744	-0.164385	0.000019
C18	C	1.564760	-0.245996	0.000005
C19	C	1.446520	-0.278084	-0.000002
C20	C	1.339256	-0.228557	-0.000009
C21	C	1.350241	-0.146947	-0.000006
C22	C	1.407711	-0.524057	-0.000022
C23	C	1.396734	-0.605673	-0.000021
C24	C	1.622239	-0.623107	-0.000010
C25	C	1.633214	-0.541495	0.000002
C26	C	1.525950	-0.491974	-0.000013
C27	C	1.435289	-0.361504	-0.000011
C28	C	1.537182	-0.408556	-0.000014
C29	C	1.713900	0.110484	0.000005
C30	C	1.852666	0.112771	-0.000003
C31	C	1.492307	0.257948	-0.000009
C32	C	1.503989	0.344806	-0.000018
N33	N	1.486226	0.114970	0.344089
N34	N	1.486261	0.114966	-0.344078
C35	C	1.561337	0.064752	0.416291
C36	C	1.561356	0.064749	0.583704
H37	H	1.672028	-0.138265	0.000033
H38	H	1.652100	-0.286314	0.000011
H39	H	0.848415	0.238480	-0.000021
H40	H	0.911814	0.055727	-0.000005
O41	O	1.409585	0.166368	0.418027
C42	C	1.351535	0.302041	0.464957
C43	C	1.438395	0.243918	0.381112
H44	H	1.374814	0.364752	0.435165
H45	H	1.250351	0.291532	0.435107
H46	H	1.365191	0.292859	0.586765
H47	H	1.424850	0.253065	0.259285
H48	H	1.539547	0.254441	0.411082
H49	H	1.709567	-0.663435	-0.000001
O50	O	1.638238	0.013494	0.342383
C51	C	1.850282	-0.031393	0.295514
C52	C	1.763315	0.026690	0.379304
H53	H	1.951426	-0.020734	0.325310
H54	H	1.827227	-0.094131	0.325408
H55	H	1.836569	-0.022280	0.173697
H56	H	1.776980	0.017649	0.501140
H57	H	1.786391	0.089406	0.349289
O58	O	1.063501	0.047009	0.000262
C59	C	1.035912	-0.075331	0.125484
C60	C	1.099737	0.004111	0.125387
H61	H	1.065205	-0.110043	0.226621
H62	H	0.930276	-0.064785	0.125575
H63	H	1.065073	-0.110000	0.024252
H64	H	1.070676	0.038822	0.226601
H65	H	1.205362	-0.006491	0.125220
H66	H	1.421957	0.157965	0.593840
H67	H	1.729498	-0.515375	0.000008
H68	H	1.300443	-0.631796	-0.000003
H69	H	1.098254	0.242594	-0.000005
O70	O	1.303392	-0.476072	0.000047
C71	C	1.078563	-0.467400	-0.000023
C72	C	1.196607	-0.521837	-0.000075
H73	H	0.992197	-0.504379	-0.000153
H74	H	1.077975	-0.428777	0.101190
H75	H	1.078134	-0.428735	-0.101184
H76	H	1.197113	-0.560551	0.101017
H77	H	1.197149	-0.560408	-0.101355
O78	O	1.638008	0.013347	0.657610
C79	C	1.696050	-0.122330	0.704533
C80	C	1.609182	-0.064200	0.620715
H81	H	1.672758	-0.185039	0.674758
H82	H	1.797230	-0.111825	0.674643
H83	H	1.682416	-0.113152	0.826345
H84	H	1.622705	-0.073343	0.498883
H85	H	1.508034	-0.074719	0.650726
H86	H	1.242982	-0.254689	-0.000024
H87	H	1.262902	-0.106627	-0.000008
H88	H	1.633453	-0.382426	-0.000040
H89	H	1.339017	-0.387640	-0.000014
