data_functionalizedCrystal
_audit_creation_method	'MofGen! by Chris Wilmer'
_symmetry_space_group_name_H-M	'P1'
_symmetry_Int_Tables_number	1
_symmetry_cell_setting	triclinic
loop_
_symmetry_equiv_pos_as_xyz
  x,y,z
_cell_length_a	23.532407
_cell_length_b	23.532407
_cell_length_c	8.140239
_cell_angle_alpha	90.008156
_cell_angle_beta	89.997376
_cell_angle_gamma	82.848678
loop_
_atom_site_label
_atom_site_type_symbol
_atom_site_fract_x
_atom_site_fract_y
_atom_site_fract_z
O1	O	0.755258	0.069134	0.136425
O2	O	1.088591	0.402467	0.469758
O3	O	1.421925	0.735801	0.803092
O4	O	0.589395	0.079137	0.136476
O5	O	0.922728	0.412470	0.469809
O6	O	1.256061	0.745804	0.803142
O7	O	0.677328	-0.008796	0.136419
O8	O	1.010661	0.324537	0.469752
O9	O	1.343995	0.657871	0.803085
O10	O	0.667325	0.157067	0.136482
O11	O	1.000658	0.490401	0.469815
O12	O	1.333992	0.823734	0.803149
O13	O	0.677323	-0.008797	-0.136808
O14	O	1.010657	0.324536	0.196525
O15	O	1.343990	0.657870	0.529858
O16	O	0.589390	0.079136	-0.136752
O17	O	0.922723	0.412470	0.196582
O18	O	1.256057	0.745803	0.529915
O19	O	0.755253	0.069133	-0.136802
O20	O	1.088587	0.402466	0.196531
O21	O	1.421920	0.735800	0.529865
Zn22	Zn	0.672321	0.074134	-0.180158
Zn23	Zn	1.005654	0.407468	0.153176
Zn24	Zn	1.338988	0.740801	0.486509
Zn25	Zn	0.672327	0.074136	0.179831
Zn26	Zn	1.005661	0.407469	0.513164
Zn27	Zn	1.338994	0.740802	0.846498
O28	O	0.667320	0.157066	-0.136745
O29	O	1.000653	0.490400	0.196588
O30	O	1.333987	0.823733	0.529921
C31	C	0.568176	0.078882	-0.000132
C32	C	0.901510	0.412215	0.333201
C33	C	1.234843	0.745549	0.666535
C34	C	0.504959	0.078116	-0.000114
C35	C	0.838293	0.411449	0.333219
C36	C	1.171626	0.744783	0.666553
C37	C	0.677071	-0.030013	-0.000199
C38	C	1.010404	0.303321	0.333134
C39	C	1.343738	0.636654	0.666468
C40	C	0.676305	-0.093230	-0.000211
C41	C	1.009638	0.240104	0.333122
C42	C	1.342972	0.573437	0.666455
C43	C	0.105856	0.125350	-0.000170
C44	C	0.439190	0.458683	0.333163
C45	C	0.772523	0.792016	0.666496
C46	C	0.046456	0.124638	-0.000181
C47	C	0.379789	0.457971	0.333153
C48	C	0.713123	0.791305	0.666486
O49	O	0.009711	0.168424	-0.000224
O50	O	0.343045	0.501757	0.333110
O51	O	0.676378	0.835091	0.666443
N52	N	0.023830	0.072362	-0.000198
N53	N	0.357163	0.405695	0.333135
N54	N	0.690496	0.739028	0.666469
C55	C	0.060607	0.020794	-0.000221
C56	C	0.393941	0.354127	0.333112
C57	C	0.727274	0.687460	0.666445
O58	O	0.035908	-0.023737	-0.000239
O59	O	0.369241	0.309596	0.333095
O60	O	0.702574	0.642930	0.666428
C61	C	0.120006	0.021506	-0.000223
C62	C	0.453340	0.354839	0.333110
C63	C	0.786673	0.688172	0.666444
C64	C	0.142629	0.073785	-0.000189
C65	C	0.475962	0.407119	0.333144
C66	C	0.809296	0.740452	0.666478
C67	C	0.128479	0.177625	-0.000138
C68	C	0.461813	0.510958	0.333195
C69	C	0.795146	0.844292	0.666528
C70	C	0.187876	0.178336	-0.000125
C71	C	0.521209	0.511670	0.333208
C72	C	0.854542	0.845003	0.666542
C73	C	0.224649	0.126772	-0.000144
C74	C	0.557982	0.460105	0.333190
C75	C	0.891315	0.793439	0.666523
C76	C	0.202025	0.074496	-0.000176
C77	C	0.535359	0.407830	0.333158
C78	C	0.868692	0.741163	0.666491
C79	C	0.156783	-0.030062	-0.000258
C80	C	0.490116	0.303271	0.333075
C81	C	0.823450	0.636605	0.666408
C82	C	0.216185	-0.029345	-0.000261
C83	C	0.549519	0.303988	0.333072
C84	C	0.882852	0.637321	0.666406
C85	C	0.238808	0.022934	-0.000227
C86	C	0.572141	0.356268	0.333106
C87	C	0.905475	0.689601	0.666440
C88	C	0.298194	0.023643	-0.000181
C89	C	0.631528	0.356977	0.333152
C90	C	0.964861	0.690310	0.666486
N91	N	0.320820	0.075920	-0.000164
N92	N	0.654154	0.409253	0.333170
N93	N	0.987487	0.742586	0.666503
C94	C	0.284048	0.127484	-0.000145
C95	C	0.617381	0.460817	0.333188
C96	C	0.950714	0.794151	0.666522
C97	C	-0.064135	0.019302	-0.000221
C98	C	0.269198	0.352635	0.333112
C99	C	0.602532	0.685969	0.666445
C100	C	-0.123533	0.018589	-0.000208
C101	C	0.209800	0.351923	0.333125
C102	C	0.543134	0.685256	0.666458
C103	C	-0.137680	0.122434	-0.000170
C104	C	0.195653	0.455768	0.333163
C105	C	0.528986	0.789101	0.666496
C106	C	-0.078281	0.123146	-0.000172
C107	C	0.255052	0.456480	0.333161
C108	C	0.588385	0.789813	0.666495
C109	C	-0.041509	0.071578	-0.000204
C110	C	0.291824	0.404912	0.333129
C111	C	0.625158	0.738245	0.666463
C112	C	0.408784	0.128974	-0.000116
C113	C	0.742118	0.462307	0.333218
C114	C	1.075451	0.795640	0.666551
C115	C	0.468186	0.129680	-0.000095
C116	C	0.801520	0.463014	0.333238
C117	C	1.134853	0.796347	0.666571
C118	C	0.482329	0.025836	-0.000142
C119	C	0.815662	0.359169	0.333192
C120	C	1.148995	0.692503	0.666525
C121	C	0.422932	0.025129	-0.000153
C122	C	0.756265	0.358462	0.333180
C123	C	1.089598	0.691796	0.666513
C124	C	0.386160	0.076702	-0.000146
C125	C	0.719494	0.410036	0.333188
C126	C	1.052827	0.743369	0.666521
O127	O	0.334974	-0.020119	-0.000145
O128	O	0.668307	0.313214	0.333189
O129	O	1.001640	0.646547	0.666522
O130	O	0.308755	0.172007	-0.000150
O131	O	0.642089	0.505340	0.333184
O132	O	0.975422	0.838674	0.666517
C133	C	0.723539	-0.492333	-0.000136
C134	C	1.056872	-0.158999	0.333198
C135	C	1.390205	0.174334	0.666531
C136	C	0.722827	-0.551733	-0.000123
C137	C	1.056160	-0.218400	0.333210
C138	C	1.389494	0.114934	0.666544
O139	O	0.766613	-0.588478	-0.000076
O140	O	1.099946	-0.255144	0.333258
O141	O	1.433280	0.078189	0.666591
N142	N	0.670551	-0.574359	-0.000108
N143	N	1.003884	-0.241026	0.333225
N144	N	1.337217	0.092307	0.666558
C145	C	0.618983	-0.537582	-0.000090
C146	C	0.952316	-0.204248	0.333244
C147	C	1.285649	0.129085	0.666577
O148	O	0.574452	-0.562281	-0.000074
O149	O	0.907785	-0.228948	0.333259
O150	O	1.241119	0.104385	0.666592
C151	C	0.619695	-0.478182	-0.000091
C152	C	0.953028	-0.144849	0.333243
C153	C	1.286361	0.188484	0.666576
C154	C	0.671974	-0.455560	-0.000122
C155	C	1.005308	-0.122227	0.333211
C156	C	1.338641	0.211107	0.666545
C157	C	0.775814	-0.469710	-0.000165
C158	C	1.109147	-0.136376	0.333168
C159	C	1.442481	0.196957	0.666501
C160	C	0.776525	-0.410313	-0.000181
C161	C	1.109859	-0.076980	0.333152
C162	C	1.443192	0.256353	0.666486
C163	C	0.724961	-0.373540	-0.000167
C164	C	1.058294	-0.040207	0.333166
C165	C	1.391628	0.293126	0.666499
C166	C	0.672685	-0.396164	-0.000138
C167	C	1.006019	-0.062830	0.333196
C168	C	1.339352	0.270503	0.666529
C169	C	0.568127	-0.441406	-0.000060
C170	C	0.901460	-0.108073	0.333273
C171	C	1.234794	0.225261	0.666607
C172	C	0.568844	-0.382004	-0.000060
C173	C	0.902177	-0.048670	0.333274
C174	C	1.235510	0.284663	0.666607
C175	C	0.621123	-0.359381	-0.000091
C176	C	0.954457	-0.026048	0.333242
C177	C	1.287790	0.307286	0.666576
C178	C	0.621832	-0.299995	-0.000140
C179	C	0.955166	0.033339	0.333194
C180	C	1.288499	0.366672	0.666527
N181	N	0.674109	-0.277368	-0.000154
N182	N	1.007442	0.055965	0.333179
N183	N	1.340775	0.389298	0.666512
C184	C	0.725673	-0.314141	-0.000168
C185	C	1.059006	0.019192	0.333165
C186	C	1.392340	0.352525	0.666498
C187	C	0.617491	-0.662324	-0.000085
C188	C	0.950824	-0.328991	0.333249
C189	C	1.284158	0.004343	0.666582
C190	C	0.616778	-0.721722	-0.000096
C191	C	0.950112	-0.388389	0.333238
C192	C	1.283445	-0.055055	0.666571
C193	C	0.720623	-0.735869	-0.000126
C194	C	1.053957	-0.402536	0.333207
C195	C	1.387290	-0.069203	0.666541
C196	C	0.721335	-0.676470	-0.000127
C197	C	1.054669	-0.343137	0.333206
C198	C	1.388002	-0.009804	0.666540
C199	C	0.669767	-0.639698	-0.000100
C200	C	1.003101	-0.306365	0.333234
C201	C	1.336434	0.026969	0.666567
C202	C	0.727163	-0.189405	-0.000203
C203	C	1.060496	0.143929	0.333131
C204	C	1.393829	0.477262	0.666464
C205	C	0.727869	-0.130003	-0.000225
C206	C	1.061203	0.203331	0.333108
C207	C	1.394536	0.536664	0.666441
C208	C	0.624025	-0.115860	-0.000186
C209	C	0.957358	0.217473	0.333147
C210	C	1.290692	0.550806	0.666481
C211	C	0.623318	-0.175257	-0.000172
C212	C	0.956651	0.158076	0.333161
C213	C	1.289985	0.491409	0.666494
C214	C	0.674891	-0.212029	-0.000175
C215	C	1.008225	0.121305	0.333158
C216	C	1.341558	0.454638	0.666492
O217	O	0.578070	-0.263215	-0.000180
O218	O	0.911403	0.070118	0.333153
O219	O	1.244736	0.403451	0.666487
O220	O	0.770196	-0.289433	-0.000162
O221	O	1.103529	0.043900	0.333171
O222	O	1.436863	0.377233	0.666505
C223	C	0.776472	0.069388	-0.000191
C224	C	1.109805	0.402722	0.333142
C225	C	1.443138	0.736055	0.666476
C226	C	0.839689	0.070154	-0.000198
C227	C	1.173022	0.403487	0.333135
C228	C	1.506355	0.736821	0.666468
C229	C	0.667577	0.178283	-0.000124
C230	C	1.000910	0.511616	0.333209
C231	C	1.334244	0.844949	0.666543
C232	C	0.668343	0.241500	-0.000101
C233	C	1.001676	0.574833	0.333233
C234	C	1.335010	0.908167	0.666566
N235	N	0.672321	0.074133	-0.425840
N236	N	1.005654	0.407467	-0.092507
N237	N	1.338987	0.740800	0.240827
N238	N	0.672332	0.074132	0.425514
N239	N	1.005665	0.407466	0.758847
N240	N	1.338999	0.740799	1.092180
H241	H	0.486602	0.172255	-0.000067
H242	H	0.819935	0.505588	0.333267
H243	H	1.153269	0.838921	0.666600
H244	H	0.769159	-0.219337	-0.000199
H245	H	1.102492	0.113996	0.333135
H246	H	1.435826	0.447329	0.666468
O247	O	0.398530	-0.031258	-0.000179
O248	O	0.731863	0.302075	0.333154
O249	O	1.065196	0.635408	0.666488
H250	H	0.371812	-0.034063	-0.111553
H251	H	0.705145	0.299270	0.221780
H252	H	1.038478	0.632603	0.555114
O253	O	-0.147932	-0.037797	-0.000241
O254	O	0.185402	0.295536	0.333092
O255	O	0.518735	0.628870	0.666426
H256	H	-0.112376	-0.073530	-0.000268
H257	H	0.220957	0.259803	0.333066
H258	H	0.554290	0.593137	0.666399
O259	O	0.568412	-0.076190	-0.000166
O260	O	0.901746	0.257144	0.333167
O261	O	1.235079	0.590477	0.666500
H262	H	0.543374	-0.084197	-0.111521
H263	H	0.876707	0.249136	0.221812
H264	H	1.210041	0.582470	0.555146
H265	H	0.819097	-0.391900	-0.000200
H266	H	1.152430	-0.058567	0.333133
H267	H	1.485763	0.274767	0.666467
H268	H	0.206289	0.220908	-0.000097
H269	H	0.539622	0.554241	0.333237
H270	H	0.872956	0.887574	0.666570
H271	H	0.762610	-0.765821	-0.000131
H272	H	1.095943	-0.432488	0.333202
H273	H	1.429276	-0.099154	0.666536
O274	O	0.255847	-0.084967	-0.000307
O275	O	0.589180	0.248366	0.333027
O276	O	0.922514	0.581700	0.666360
H277	H	0.283249	-0.087131	0.111050
H278	H	0.616582	0.246203	0.444383
H279	H	0.949916	0.579536	0.777716
H280	H	0.817806	-0.499645	-0.000171
H281	H	1.151140	-0.166312	0.333163
H282	H	1.484473	0.167022	0.666496
H283	H	0.770443	-0.111587	-0.000255
H284	H	1.103777	0.221746	0.333078
H285	H	1.437110	0.555080	0.666412
H286	H	0.098544	0.219617	-0.000129
H287	H	0.431877	0.552951	0.333204
H288	H	0.765211	0.886284	0.666538
H289	H	0.575496	-0.632386	-0.000077
H290	H	0.908829	-0.299053	0.333257
H291	H	1.242162	0.034280	0.666590
O292	O	0.777721	-0.652071	-0.000130
O293	O	1.111055	-0.318737	0.333203
O294	O	1.444388	0.014596	0.666537
H295	H	0.813454	-0.687626	-0.000126
H296	H	1.146788	-0.354292	0.333207
H297	H	1.480121	-0.020959	0.666540
H298	H	0.580748	-0.193677	-0.000192
H299	H	0.914081	0.139656	0.333141
H300	H	1.247414	0.472989	0.666474
O301	O	-0.024473	-0.036321	-0.000232
O302	O	0.308860	0.297013	0.333101
O303	O	0.642193	0.630346	0.666435
H304	H	-0.050191	-0.072787	-0.000230
H305	H	0.283142	0.260546	0.333103
H306	H	0.616476	0.593880	0.666437
H307	H	0.138375	-0.072634	-0.000287
H308	H	0.471708	0.260700	0.333046
H309	H	0.805041	0.594033	0.666379
O310	O	0.560392	-0.746121	-0.000083
O311	O	0.893725	-0.412787	0.333250
O312	O	1.227058	-0.079454	0.666583
H313	H	0.524659	-0.710565	-0.000067
H314	H	0.857992	-0.377232	0.333266
H315	H	1.191326	-0.043899	0.666600
H316	H	0.525555	-0.459814	-0.000024
H317	H	0.858889	-0.126481	0.333309
H318	H	1.192222	0.206852	0.666642
H319	H	0.526850	-0.352066	-0.000035
H320	H	0.860183	-0.018732	0.333298
H321	H	1.193516	0.314601	0.666632
O322	O	0.521999	-0.029777	-0.000187
O323	O	0.855332	0.303557	0.333146
O324	O	1.188665	0.636890	0.666480
H325	H	0.549404	-0.031937	0.111163
H326	H	0.882737	0.301396	0.444497
H327	H	1.216070	0.634730	0.777830
O328	O	0.369128	0.184597	-0.000093
O329	O	0.702461	0.517931	0.333240
O330	O	1.035794	0.851264	0.666573
H331	H	0.394847	0.221063	-0.000053
H332	H	0.728180	0.554396	0.333281
H333	H	1.061513	0.887729	0.666614
H334	H	-0.059867	0.165717	-0.000154
H335	H	0.273467	0.499050	0.333180
H336	H	0.606800	0.832384	0.666513
O337	O	-0.177348	0.178054	-0.000178
O338	O	0.155986	0.511387	0.333155
O339	O	0.489319	0.844720	0.666488
H340	H	-0.222451	0.168771	-0.000206
H341	H	0.110883	0.502104	0.333127
H342	H	0.444216	0.835437	0.666461
