data_functionalizedCrystal
_audit_creation_method	'MofGen! by Chris Wilmer'
_symmetry_space_group_name_H-M	'P1'
_symmetry_Int_Tables_number	1
_symmetry_cell_setting	triclinic
loop_
_symmetry_equiv_pos_as_xyz
  x,y,z
_cell_length_a	21.395362
_cell_length_b	21.295417
_cell_length_c	21.395356
_cell_angle_alpha	89.969378
_cell_angle_beta	89.957023
_cell_angle_gamma	90.046383
loop_
_atom_site_label
_atom_site_type_symbol
_atom_site_fract_x
_atom_site_fract_y
_atom_site_fract_z
Zn1	Zn	0.957854	-0.250358	-0.354573
Zn2	Zn	1.207854	-0.000358	-0.104573
Zn3	Zn	1.457854	0.249642	0.145427
Zn4	Zn	1.707854	0.499642	0.395427
Zn5	Zn	0.957759	-0.355627	-0.249790
Zn6	Zn	1.207759	-0.105627	0.000210
Zn7	Zn	1.457759	0.144373	0.250210
Zn8	Zn	1.707759	0.394373	0.500210
Zn9	Zn	0.853071	-0.250404	-0.249774
Zn10	Zn	1.103071	-0.000404	0.000226
Zn11	Zn	1.353071	0.249596	0.250226
Zn12	Zn	1.603071	0.499596	0.500226
Zn13	Zn	0.853039	-0.355623	-0.354495
Zn14	Zn	1.103039	-0.105623	-0.104495
Zn15	Zn	1.353039	0.144377	0.145505
Zn16	Zn	1.603039	0.394377	0.395505
O17	O	0.905431	-0.303003	-0.302158
O18	O	1.155431	-0.053003	-0.052158
O19	O	1.405431	0.196997	0.197842
O20	O	1.655431	0.446997	0.447842
O21	O	1.045520	-0.264305	-0.340713
O22	O	1.295520	-0.014305	-0.090713
O23	O	1.545520	0.235695	0.159287
O24	O	1.795520	0.485695	0.409287
O25	O	0.943846	-0.341690	-0.162110
O26	O	1.193846	-0.091690	0.087890
O27	O	1.443846	0.158310	0.337890
O28	O	1.693846	0.408310	0.587890
O29	O	0.867024	-0.162309	-0.263702
O30	O	1.117024	0.087691	-0.013702
O31	O	1.367024	0.337691	0.236298
O32	O	1.617024	0.587691	0.486298
O33	O	1.045450	-0.341645	-0.263729
O34	O	1.295450	-0.091645	-0.013729
O35	O	1.545450	0.158355	0.236271
O36	O	1.795450	0.408355	0.486271
O37	O	0.944008	-0.162275	-0.340697
O38	O	1.194008	0.087725	-0.090697
O39	O	1.444008	0.337725	0.159303
O40	O	1.694008	0.587725	0.409303
O41	O	0.866932	-0.264383	-0.162098
O42	O	1.116932	-0.014383	0.087902
O43	O	1.366932	0.235617	0.337902
O44	O	1.616932	0.485617	0.587902
O45	O	0.765389	-0.264380	-0.263626
O46	O	1.015389	-0.014380	-0.013626
O47	O	1.265389	0.235620	0.236374
O48	O	1.515389	0.485620	0.486374
O49	O	0.866969	-0.341638	-0.442183
O50	O	1.116969	-0.091638	-0.192183
O51	O	1.366969	0.158362	0.057817
O52	O	1.616969	0.408362	0.307817
O53	O	0.765365	-0.341683	-0.340564
O54	O	1.015365	-0.091683	-0.090564
O55	O	1.265365	0.158317	0.159436
O56	O	1.515365	0.408317	0.409436
O57	O	0.943977	-0.264301	-0.442240
O58	O	1.193977	-0.014301	-0.192240
O59	O	1.443977	0.235699	0.057760
O60	O	1.693977	0.485699	0.307760
O61	O	0.943814	-0.443716	-0.263653
O62	O	1.193814	-0.193716	-0.013653
O63	O	1.443814	0.056284	0.236347
O64	O	1.693814	0.306284	0.486347
O65	O	0.866877	-0.443713	-0.340579
O66	O	1.116877	-0.193713	-0.090579
O67	O	1.366877	0.056287	0.159421
O68	O	1.616877	0.306287	0.409421
C69	C	0.742643	-0.303036	-0.302085
C70	C	0.992643	-0.053036	-0.052085
C71	C	1.242643	0.196964	0.197915
C72	C	1.492643	0.446964	0.447915
C73	C	0.673002	-0.303066	-0.302069
C74	C	0.923002	-0.053066	-0.052069
C75	C	1.173002	0.196934	0.197931
C76	C	1.423002	0.446934	0.447931
C77	C	0.640293	-0.343371	-0.342070
C78	C	0.890293	-0.093371	-0.092070
C79	C	1.140293	0.156629	0.157930
C80	C	1.390293	0.406629	0.407930
C81	C	0.574858	-0.343356	-0.342098
C82	C	0.824858	-0.093356	-0.092098
C83	C	1.074858	0.156644	0.157902
C84	C	1.324858	0.406644	0.407902
C85	C	0.542134	-0.303042	-0.302114
C86	C	0.792134	-0.053042	-0.052114
C87	C	1.042134	0.196958	0.197886
C88	C	1.292134	0.446958	0.447886
C89	C	0.574851	-0.262728	-0.262109
C90	C	0.824851	-0.012728	-0.012109
C91	C	1.074851	0.237272	0.237891
C92	C	1.324851	0.487272	0.487891
C93	C	0.640285	-0.262741	-0.262087
C94	C	0.890285	-0.012741	-0.012087
C95	C	1.140285	0.237259	0.237913
C96	C	1.390285	0.487259	0.487913
C97	C	0.438410	-0.297979	-0.245709
C98	C	0.688410	-0.047979	0.004291
C99	C	0.938410	0.202021	0.254291
C100	C	1.188410	0.452021	0.504291
C101	C	0.372977	-0.297972	-0.245730
C102	C	0.622977	-0.047972	0.004270
C103	C	0.872977	0.202028	0.254270
C104	C	1.122977	0.452028	0.504270
C105	C	0.340313	-0.303000	-0.302183
C106	C	0.590313	-0.053000	-0.052183
C107	C	0.840313	0.197000	0.197817
C108	C	1.090313	0.447000	0.447817
C109	C	0.373090	-0.308050	-0.358616
C110	C	0.623090	-0.058050	-0.108616
C111	C	0.873090	0.191950	0.141384
C112	C	1.123090	0.441950	0.391384
C113	C	0.438524	-0.308062	-0.358594
C114	C	0.688524	-0.058062	-0.108594
C115	C	0.938524	0.191938	0.141406
C116	C	1.188524	0.441938	0.391406
C117	C	0.471181	-0.303024	-0.302134
C118	C	0.721181	-0.053024	-0.052134
C119	C	0.971181	0.196976	0.197866
C120	C	1.221181	0.446976	0.447866
C121	C	0.236651	-0.343291	-0.342218
C122	C	0.486651	-0.093291	-0.092218
C123	C	0.736651	0.156709	0.157782
C124	C	0.986651	0.406709	0.407782
C125	C	0.171215	-0.343271	-0.342247
C126	C	0.421215	-0.093271	-0.092247
C127	C	0.671215	0.156729	0.157753
C128	C	0.921215	0.406729	0.407753
C129	C	0.171209	-0.262647	-0.262252
C130	C	0.421209	-0.012647	-0.012252
C131	C	0.671209	0.237353	0.237748
C132	C	0.921209	0.487353	0.487748
C133	C	0.236645	-0.262664	-0.262229
C134	C	0.486645	-0.012664	-0.012229
C135	C	0.736645	0.237336	0.237771
C136	C	0.986645	0.487336	0.487771
C137	C	0.269362	-0.302989	-0.302211
C138	C	0.519362	-0.052989	-0.052211
C139	C	0.769362	0.197011	0.197789
C140	C	1.019362	0.447011	0.447789
C141	C	0.905349	-0.466555	-0.302123
C142	C	1.155349	-0.216555	-0.052123
C143	C	1.405349	0.033445	0.197877
C144	C	1.655349	0.283445	0.447877
C145	C	0.905371	-0.536523	-0.302129
C146	C	1.155371	-0.286523	-0.052129
C147	C	1.405371	-0.036523	0.197871
C148	C	1.655371	0.213477	0.447871
C149	C	0.945468	-0.569370	-0.262115
C150	C	1.195468	-0.319370	-0.012115
C151	C	1.445468	-0.069370	0.237885
C152	C	1.695468	0.180630	0.487885
C153	C	0.945497	-0.635113	-0.262129
C154	C	1.195497	-0.385113	-0.012129
C155	C	1.445497	-0.135113	0.237871
C156	C	1.695497	0.114887	0.487871
C157	C	0.905418	-0.668005	-0.302151
C158	C	1.155418	-0.418005	-0.052151
C159	C	1.405418	-0.168005	0.197849
C160	C	1.655418	0.081995	0.447849
C161	C	0.865319	-0.635150	-0.342173
C162	C	1.115319	-0.385150	-0.092173
C163	C	1.365319	-0.135150	0.157827
C164	C	1.615319	0.114850	0.407827
C165	C	0.865295	-0.569409	-0.342162
C166	C	1.115295	-0.319409	-0.092162
C167	C	1.365295	-0.069409	0.157838
C168	C	1.615295	0.180591	0.407838
N169	N	0.850609	-0.771286	-0.306903
N170	N	1.100609	-0.521286	-0.056903
N171	N	1.350609	-0.271286	0.193097
N172	N	1.600609	-0.021286	0.443097
N173	N	0.850633	-0.833738	-0.306910
N174	N	1.100633	-0.583738	-0.056910
N175	N	1.350633	-0.333738	0.193090
N176	N	1.600633	-0.083738	0.443090
C177	C	0.905489	-0.866080	-0.302187
C178	C	1.155489	-0.616080	-0.052187
C179	C	1.405489	-0.366080	0.197813
C180	C	1.655489	-0.116080	0.447813
N181	N	0.960320	-0.833611	-0.297445
N182	N	1.210320	-0.583611	-0.047445
N183	N	1.460320	-0.333611	0.202555
N184	N	1.710320	-0.083611	0.452555
N185	N	0.960295	-0.771154	-0.297435
N186	N	1.210295	-0.521154	-0.047435
N187	N	1.460295	-0.271154	0.202565
N188	N	1.710295	-0.021154	0.452565
C189	C	0.905440	-0.739291	-0.302167
C190	C	1.155440	-0.489291	-0.052167
C191	C	1.405440	-0.239291	0.197833
C192	C	1.655440	0.010709	0.447833
C193	C	0.945621	-0.970213	-0.262186
C194	C	1.195621	-0.720213	-0.012186
C195	C	1.445621	-0.470213	0.237814
C196	C	1.695621	-0.220213	0.487814
C197	C	0.945651	-1.035956	-0.262204
C198	C	1.195651	-0.785956	-0.012204
C199	C	1.445651	-0.535956	0.237796
C200	C	1.695651	-0.285956	0.487796
C201	C	0.865467	-1.035993	-0.342245
C202	C	1.115467	-0.785993	-0.092245
C203	C	1.365467	-0.535993	0.157755
C204	C	1.615467	-0.285993	0.407755
C205	C	0.865442	-0.970250	-0.342230
C206	C	1.115442	-0.720250	-0.092230
C207	C	1.365442	-0.470250	0.157770
C208	C	1.615442	-0.220250	0.407770
C209	C	0.905518	-0.937364	-0.302197
C210	C	1.155518	-0.687364	-0.052197
C211	C	1.405518	-0.437364	0.197803
C212	C	1.655518	-0.187364	0.447803
C213	C	1.068854	-0.302970	-0.302231
C214	C	1.318854	-0.052970	-0.052231
C215	C	1.568854	0.197030	0.197769
C216	C	1.818854	0.447030	0.447769
C217	C	1.138496	-0.302956	-0.302262
C218	C	1.388496	-0.052956	-0.052262
C219	C	1.638496	0.197044	0.197738
C220	C	1.888496	0.447044	0.447738
C221	C	0.905480	-0.302964	-0.465581
C222	C	1.155480	-0.052964	-0.215581
C223	C	1.405480	0.197036	0.034419
C224	C	1.655480	0.447036	0.284419
C225	C	0.905501	-0.302947	-0.535223
C226	C	1.155501	-0.052947	-0.285223
C227	C	1.405501	0.197053	-0.035223
C228	C	1.655501	0.447053	0.214777
C229	C	0.905530	-0.138813	-0.302206
C230	C	1.155530	0.111187	-0.052206
C231	C	1.405530	0.361187	0.197794
C232	C	1.655530	0.611187	0.447794
C233	C	0.905573	-0.068845	-0.302227
C234	C	1.155573	0.181155	-0.052227
C235	C	1.405573	0.431155	0.197773
C236	C	1.655573	0.681155	0.447773
C237	C	0.865463	-0.262689	-0.567920
C238	C	1.115463	-0.012689	-0.317920
C239	C	1.365463	0.237311	-0.067920
C240	C	1.615463	0.487311	0.182080
C241	C	0.865461	-0.262678	-0.633355
C242	C	1.115461	-0.012678	-0.383355
C243	C	1.365461	0.237322	-0.133355
C244	C	1.615461	0.487322	0.116645
C245	C	0.905508	-0.302917	-0.666091
C246	C	1.155508	-0.052917	-0.416091
C247	C	1.405508	0.197083	-0.166091
C248	C	1.655508	0.447083	0.083909
C249	C	0.945549	-0.343183	-0.633386
C250	C	1.195549	-0.093183	-0.383386
C251	C	1.445549	0.156817	-0.133386
C252	C	1.695549	0.406817	0.116614
C253	C	0.945546	-0.343198	-0.567952
C254	C	1.195546	-0.093198	-0.317952
C255	C	1.445546	0.156802	-0.067952
C256	C	1.695546	0.406802	0.182048
C257	C	0.961960	-0.307851	-0.769796
C258	C	1.211960	-0.057851	-0.519796
C259	C	1.461960	0.192149	-0.269796
C260	C	1.711960	0.442149	-0.019796
C261	C	0.961965	-0.307831	-0.835229
C262	C	1.211965	-0.057831	-0.585229
C263	C	1.461965	0.192169	-0.335229
C264	C	1.711965	0.442169	-0.085229
C265	C	0.905518	-0.302875	-0.867912
C266	C	1.155518	-0.052875	-0.617912
C267	C	1.405518	0.197125	-0.367912
C268	C	1.655518	0.447125	-0.117912
C269	C	0.849066	-0.297925	-0.835153
C270	C	1.099066	-0.047925	-0.585153
C271	C	1.349066	0.202075	-0.335153
C272	C	1.599066	0.452075	-0.085153
C273	C	0.849063	-0.297940	-0.769719
C274	C	1.099063	-0.047940	-0.519719
C275	C	1.349063	0.202060	-0.269719
C276	C	1.599063	0.452060	-0.019719
C277	C	0.905516	-0.302906	-0.737043
C278	C	1.155516	-0.052906	-0.487043
C279	C	1.405516	0.197094	-0.237043
C280	C	1.655516	0.447094	0.012957
C281	C	0.865474	-0.262602	-0.971562
C282	C	1.115474	-0.012602	-0.721562
C283	C	1.365474	0.237398	-0.471562
C284	C	1.615474	0.487398	-0.221562
C285	C	0.865471	-0.262595	-1.036998
C286	C	1.115471	-0.012595	-0.786998
C287	C	1.365471	0.237405	-0.536998
C288	C	1.615471	0.487405	-0.286998
C289	C	0.945565	-0.343097	-1.037028
C290	C	1.195565	-0.093097	-0.787028
C291	C	1.445565	0.156903	-0.537028
C292	C	1.695565	0.406903	-0.287028
C293	C	0.945563	-0.343108	-0.971592
C294	C	1.195563	-0.093108	-0.721592
C295	C	1.445563	0.156892	-0.471592
C296	C	1.695563	0.406892	-0.221592
C297	C	0.905518	-0.302857	-0.938863
C298	C	1.155518	-0.052857	-0.688863
C299	C	1.405518	0.197143	-0.438863
C300	C	1.655518	0.447143	-0.188863
C301	C	0.905418	-0.302997	-0.139370
C302	C	1.155418	-0.052997	0.110630
C303	C	1.405418	0.197003	0.360630
C304	C	1.655418	0.447003	0.610630
C305	C	0.905518	-0.302836	-0.069729
C306	C	1.155518	-0.052836	0.180271
C307	C	1.405518	0.197164	0.430271
C308	C	1.655518	0.447164	0.680271
H309	H	0.144584	-0.376091	-0.374825
H310	H	0.394584	-0.126091	-0.124825
H311	H	0.644584	0.123909	0.125175
H312	H	0.894584	0.373909	0.375175
Br313	Br	0.810931	-0.679788	-0.396494
Br314	Br	1.060931	-0.429788	-0.146494
Br315	Br	1.310931	-0.179788	0.103506
Br316	Br	1.560931	0.070212	0.353506
H317	H	0.832643	-0.542664	-0.374747
H318	H	1.082643	-0.292664	-0.124747
H319	H	1.332643	-0.042664	0.125253
H320	H	1.582643	0.207336	0.375253
Br321	Br	0.328500	-0.291120	-0.169143
Br322	Br	0.578500	-0.041120	0.080857
Br323	Br	0.828500	0.208880	0.330857
Br324	Br	1.078500	0.458880	0.580857
H325	H	0.144566	-0.229820	-0.229699
H326	H	0.394566	0.020180	0.020301
H327	H	0.644566	0.270180	0.270301
H328	H	0.894566	0.520180	0.520301
Br329	Br	0.281039	-0.207961	-0.207938
Br330	Br	0.531039	0.042039	0.042062
Br331	Br	0.781039	0.292039	0.292062
Br332	Br	1.031039	0.542039	0.542062
H333	H	0.464999	-0.293882	-0.199735
H334	H	0.714999	-0.043882	0.050265
H335	H	0.964999	0.206118	0.300265
H336	H	1.214999	0.456118	0.550265
Br337	Br	0.684679	-0.208035	-0.207796
Br338	Br	0.934679	0.041965	0.042204
Br339	Br	1.184679	0.291965	0.292204
Br340	Br	1.434679	0.541965	0.542204
Br341	Br	0.999865	-0.524742	-0.207794
Br342	Br	1.249865	-0.274742	0.042206
Br343	Br	1.499865	-0.024742	0.292206
Br344	Br	1.749865	0.225258	0.542206
Br345	Br	0.328769	-0.314873	-0.435237
Br346	Br	0.578769	-0.064873	-0.185237
Br347	Br	0.828769	0.185127	0.064763
Br348	Br	1.078769	0.435127	0.314763
Br349	Br	0.999907	-0.397743	-0.927214
Br350	Br	1.249907	-0.147743	-0.677214
Br351	Br	1.499907	0.102257	-0.427214
Br352	Br	1.749907	0.352257	-0.177214
H353	H	0.978174	-0.375860	-1.063680
H354	H	1.228174	-0.125860	-0.813680
H355	H	1.478174	0.124140	-0.563680
H356	H	1.728174	0.374140	-0.313680
H357	H	0.832853	-0.229916	-0.541276
H358	H	1.082853	0.020084	-0.291276
H359	H	1.332853	0.270084	-0.041276
H360	H	1.582853	0.520084	0.208724
Br361	Br	0.530442	-0.208011	-0.207849
Br362	Br	0.780442	0.041989	0.042151
Br363	Br	1.030442	0.291989	0.292151
Br364	Br	1.280442	0.541989	0.542151
H365	H	0.832867	-0.229828	-0.944912
H366	H	1.082867	0.020172	-0.694912
H367	H	1.332867	0.270172	-0.444912
H368	H	1.582867	0.520172	-0.194912
H369	H	0.978255	-0.943436	-0.229590
H370	H	1.228255	-0.693436	0.020410
H371	H	1.478255	-0.443436	0.270410
H372	H	1.728255	-0.193436	0.520410
Br373	Br	0.530457	-0.398058	-0.396391
Br374	Br	0.780457	-0.148058	-0.146391
Br375	Br	1.030457	0.101942	0.103609
Br376	Br	1.280457	0.351942	0.353609
Br377	Br	1.000080	-1.080536	-0.207900
Br378	Br	1.250080	-0.830536	0.042100
Br379	Br	1.500080	-0.580536	0.292100
Br380	Br	1.750080	-0.330536	0.542100
Br381	Br	0.811080	-1.080626	-0.396568
Br382	Br	1.061080	-0.830626	-0.146568
Br383	Br	1.311080	-0.580626	0.103432
Br384	Br	1.561080	-0.330626	0.353432
H385	H	0.832858	-0.229892	-0.659982
H386	H	1.082858	0.020108	-0.409982
H387	H	1.332858	0.270108	-0.159982
H388	H	1.582858	0.520108	0.090018
Br389	Br	0.281057	-0.398014	-0.396480
Br390	Br	0.531057	-0.148014	-0.146480
Br391	Br	0.781057	0.101986	0.103520
Br392	Br	1.031057	0.351986	0.353520
Br393	Br	0.999919	-0.679701	-0.207820
Br394	Br	1.249919	-0.429701	0.042180
Br395	Br	1.499919	-0.179701	0.292180
Br396	Br	1.749919	0.070299	0.542180
Br397	Br	0.811020	-0.925669	-0.396537
Br398	Br	1.061020	-0.675669	-0.146537
Br399	Br	1.311020	-0.425669	0.103463
Br400	Br	1.561020	-0.175669	0.353463
H401	H	0.803097	-0.293910	-0.743050
H402	H	1.053097	-0.043910	-0.493050
H403	H	1.303097	0.206090	-0.243050
H404	H	1.553097	0.456090	0.006950
H405	H	0.465209	-0.312172	-0.404544
H406	H	0.715209	-0.062172	-0.154544
H407	H	0.965209	0.187828	0.095456
H408	H	1.215209	0.437828	0.345456
Br409	Br	0.772455	-0.291191	-0.879500
Br410	Br	1.022455	-0.041191	-0.629500
Br411	Br	1.272455	0.208809	-0.379500
Br412	Br	1.522455	0.458809	-0.129500
H413	H	0.832863	-0.229814	-1.063619
H414	H	1.082863	0.020186	-0.813619
H415	H	1.332863	0.270186	-0.563619
H416	H	1.582863	0.520186	-0.313619
H417	H	1.007932	-0.311859	-0.861896
H418	H	1.257932	-0.061859	-0.611896
H419	H	1.507932	0.188141	-0.361896
H420	H	1.757932	0.438141	-0.111896
Br421	Br	1.038572	-0.314585	-0.725448
Br422	Br	1.288572	-0.064585	-0.475448
Br423	Br	1.538572	0.185415	-0.225448
Br424	Br	1.788572	0.435415	0.024552
H425	H	0.978156	-0.375947	-0.660043
H426	H	1.228156	-0.125947	-0.410043
H427	H	1.478156	0.124053	-0.160043
H428	H	1.728156	0.374053	0.089957
Br429	Br	0.999887	-0.397839	-0.523574
Br430	Br	1.249887	-0.147839	-0.273574
Br431	Br	1.499887	0.102161	-0.023574
Br432	Br	1.749887	0.352161	0.226426
H433	H	0.666927	-0.376206	-0.374628
H434	H	0.916927	-0.126206	-0.124628
H435	H	1.166927	0.123794	0.125372
H436	H	1.416927	0.373794	0.375372
