data_functionalizedCrystal
_audit_creation_method	'MofGen! by Chris Wilmer'
_symmetry_space_group_name_H-M	'P1'
_symmetry_Int_Tables_number	1
_symmetry_cell_setting	triclinic
loop_
_symmetry_equiv_pos_as_xyz
  x,y,z
_cell_length_a	16.992695
_cell_length_b	16.109301
_cell_length_c	14.586319
_cell_angle_alpha	90.005214
_cell_angle_beta	89.998424
_cell_angle_gamma	92.935148
loop_
_atom_site_label
_atom_site_type_symbol
_atom_site_fract_x
_atom_site_fract_y
_atom_site_fract_z
O1	O	1.040345	-0.176288	-0.076209
O2	O	0.812060	-0.174354	-0.076219
O3	O	0.932474	-0.054709	-0.076204
O4	O	0.919932	-0.295934	-0.076223
O5	O	0.932466	-0.054706	0.076277
O6	O	0.812052	-0.174352	0.076262
O7	O	1.040337	-0.176286	0.076272
Cu8	Cu	0.926194	-0.175318	0.090190
Cu9	Cu	0.926204	-0.175321	-0.090136
O10	O	0.919923	-0.295931	0.076257
C11	C	0.782844	-0.171865	0.000021
C12	C	0.695802	-0.164441	0.000017
C13	C	0.931962	-0.023699	0.000037
C14	C	0.930439	0.068698	0.000038
C15	C	1.069553	-0.178775	0.000031
C16	C	1.156595	-0.186198	0.000028
C17	C	1.206854	-0.114572	0.000031
C18	C	1.288639	-0.121552	0.000033
C19	C	1.320163	-0.200159	0.000027
C20	C	1.269898	-0.271791	0.000027
C21	C	1.188115	-0.264810	0.000031
C22	C	1.563754	-0.229092	0.000021
C23	C	1.645543	-0.236067	0.000015
C24	C	1.664278	-0.085828	0.000023
C25	C	1.582493	-0.078854	0.000021
C26	C	1.532235	-0.150486	0.000026
N27	N	1.403760	-0.207296	0.000027
N28	N	1.448639	-0.143349	0.000032
C29	C	0.920435	-0.326941	0.000015
C30	C	0.921959	-0.419338	0.000007
N31	N	0.926192	-0.175316	0.217021
C32	C	0.998348	0.286439	0.000026
C33	C	0.996911	0.373256	0.000019
C34	C	0.854044	0.362915	0.000016
C35	C	0.855482	0.276100	0.000017
C36	C	0.927636	0.237865	0.000027
C37	C	0.924761	0.411496	0.000018
C38	C	0.923202	0.505626	0.000010
C39	C	0.929196	0.143729	0.000033
N40	N	0.926211	-0.175317	-0.216968
C41	C	0.979529	-0.122357	0.452034
C42	C	0.979531	-0.122355	0.548016
C43	C	0.872869	-0.228278	0.548012
C44	C	0.872863	-0.228276	0.452033
C45	C	0.926198	-0.175316	0.404046
C46	C	0.926206	-0.175317	0.596007
C47	C	0.926208	-0.175316	0.700074
C48	C	0.926195	-0.175316	0.299972
H49	H	1.181194	-0.050562	0.000030
N50	N	1.342854	-0.044304	0.000025
H51	H	1.377202	-0.043847	0.056549
H52	H	1.310424	0.006513	-0.000012
N53	N	1.076169	0.245200	0.000036
H54	H	1.107149	0.262561	-0.056490
H55	H	1.066286	0.182843	0.000075
H56	H	1.054491	0.412802	0.000016
H57	H	0.795298	0.394057	0.000010
H58	H	0.797897	0.236549	0.000015
H59	H	1.295572	-0.335794	0.000027
H60	H	1.671207	-0.300082	0.000023
H61	H	1.022957	-0.079233	0.412966
H62	H	1.022958	-0.079231	0.587085
H63	H	0.829446	-0.271398	0.587092
N64	N	0.815331	-0.285396	0.400274
H65	H	0.824343	-0.345011	0.416963
H66	H	0.823445	-0.277285	0.332206
N67	N	1.548493	0.005929	0.000031
H68	H	1.592742	0.050246	0.000035
H69	H	1.514969	0.012095	0.056560
N70	N	1.133913	-0.342070	0.000043
H71	H	1.144045	-0.376134	-0.056481
H72	H	1.077341	-0.325662	0.000089
N73	N	1.718480	-0.008570	0.000027
H74	H	1.752832	-0.008113	-0.056497
H75	H	1.752777	-0.008162	0.056590
N76	N	1.509553	-0.306348	0.000130
H77	H	1.541936	-0.357202	0.000156
H78	H	1.475165	-0.306791	-0.056359
