data_functionalizedCrystal
_audit_creation_method	'MofGen! by Chris Wilmer'
_symmetry_space_group_name_H-M	'P1'
_symmetry_Int_Tables_number	1
_symmetry_cell_setting	triclinic
loop_
_symmetry_equiv_pos_as_xyz
  x,y,z
_cell_length_a	19.377625
_cell_length_b	14.560438
_cell_length_c	14.560438
_cell_angle_alpha	59.997992
_cell_angle_beta	75.508567
_cell_angle_gamma	52.472043
loop_
_atom_site_label
_atom_site_type_symbol
_atom_site_fract_x
_atom_site_fract_y
_atom_site_fract_z
Zr1	Zr	0.686775	1.005168	-0.349179
O2	O	0.572980	1.196766	-0.457934
O3	O	0.721646	0.813576	-0.315837
O4	O	0.721668	1.005166	-0.507444
O5	O	0.572956	1.005176	-0.115187
O6	O	0.838970	1.005158	-0.546501
O7	O	0.572959	1.005176	-0.266327
O8	O	0.838932	0.662439	-0.203752
O9	O	0.572994	1.347895	-0.457936
O10	O	0.824075	0.892373	-0.330768
O11	O	0.736532	0.892379	-0.188826
O12	O	0.736557	1.117951	-0.414418
O13	O	0.649014	1.117957	-0.272476
Zr14	Zr	0.873854	1.005155	-0.170419
Zr15	Zr	0.873858	1.005155	-0.411470
Zr16	Zr	0.686771	1.005168	-0.108127
Zr17	Zr	0.686798	1.246202	-0.349183
Zr18	Zr	0.873831	0.764121	-0.170415
O19	O	0.838983	1.196747	-0.203760
O20	O	0.838988	1.196748	-0.546504
O21	O	0.572974	1.196765	-0.115190
O22	O	0.987649	0.813557	-0.061663
O23	O	0.987655	0.813558	-0.404408
O24	O	0.721641	0.813576	0.026907
O25	O	0.987673	1.005147	-0.404411
O26	O	0.838961	1.005157	-0.012153
O27	O	0.721659	1.005165	0.026904
O28	O	0.987670	1.005147	-0.253270
O29	O	0.721700	1.347885	-0.507450
O30	O	0.838929	0.662438	-0.012148
O31	O	0.987635	0.662428	-0.061661
O32	O	0.987638	0.662429	-0.253265
O33	O	0.572991	1.347895	-0.266332
O34	O	0.721697	1.347884	-0.315846
O35	O	0.824072	0.892372	-0.105179
O36	O	0.911615	0.892366	-0.247121
O37	O	0.824097	1.117945	-0.330772
O38	O	0.736554	1.117950	-0.188829
C39	C	0.780286	0.703666	-0.259794
C40	C	0.780276	0.601341	-0.259792
C41	C	0.844912	0.470020	-0.198049
C42	C	0.844949	0.373839	-0.198052
C43	C	0.715710	0.540317	-0.321551
C44	C	0.715670	0.636494	-0.321541
C45	C	0.919530	0.373904	-0.126751
C46	C	0.919567	0.277724	-0.126754
C47	C	0.546302	1.005178	-0.181882
C48	C	0.466880	1.005183	-0.155437
C49	C	0.205671	1.005151	-0.484725
C50	C	0.131046	1.005146	-0.459842
C51	C	0.131064	1.005146	-0.293324
C52	C	0.205688	1.005157	-0.318195
C53	C	0.242986	1.005158	-0.413897
C54	C	0.243003	1.005164	-0.247367
C55	C	0.317623	1.005168	-0.272234
C56	C	0.354928	1.005166	-0.367929
C57	C	0.317606	1.005162	-0.438763
C58	C	0.205707	1.005154	-0.151663
C59	C	0.243023	1.005161	-0.080834
C60	C	0.317640	1.005174	-0.105704
C61	C	0.354945	1.005172	-0.201399
C62	C	0.354962	1.005178	-0.034869
C63	C	0.429582	1.005182	-0.059736
C64	C	0.429565	1.005176	-0.226266
C65	C	1.014327	1.005145	-0.337716
C66	C	1.093749	1.005140	-0.364160
C67	C	0.780319	1.005162	-0.561317
C68	C	0.780321	1.005162	-0.663650
C69	C	0.780343	1.306658	-0.259803
C70	C	0.780353	1.408983	-0.259805
C71	C	0.844939	1.005163	-0.733250
C72	C	0.844935	1.005158	-0.829397
C73	C	0.715686	1.005156	-0.786338
C74	C	0.715695	1.005152	-0.690189
C75	C	0.919558	1.005170	-0.758113
C76	C	0.919554	1.005165	-0.854261
C77	C	0.780310	1.005161	0.041720
C78	C	0.780308	1.005161	0.144053
C79	C	1.014298	0.703649	-0.337711
C80	C	1.093710	0.601319	-0.364154
C81	C	0.780281	0.703665	0.041725
C82	C	0.780270	0.601340	0.144059
C83	C	1.014294	0.703649	-0.036192
C84	C	1.093704	0.601318	0.039698
C85	C	0.546335	1.306675	-0.483405
C86	C	0.466925	1.409005	-0.559295
C87	C	0.546331	1.306674	-0.181886
C88	C	0.466919	1.409004	-0.155444
C89	C	0.780348	1.306658	-0.561322
C90	C	0.780359	1.408984	-0.663657
C91	C	1.085308	0.553267	-0.420244
C92	C	1.159917	0.457129	-0.445110
C93	C	1.242927	0.409040	-0.413878
C94	C	1.251327	0.457102	-0.357785
C95	C	1.176719	0.553243	-0.332927
C96	C	1.176700	0.553259	0.001242
C97	C	1.251322	0.457122	0.072537
C98	C	1.242945	0.409039	0.182288
C99	C	1.159940	0.457107	0.220745
C100	C	1.085320	0.553249	0.149450
C101	C	0.383929	1.457076	-0.520839
C102	C	0.309307	1.553243	-0.592134
C103	C	0.317684	1.601331	-0.701885
C104	C	0.400689	1.553257	-0.740342
C105	C	0.475309	1.457098	-0.669047
C106	C	0.475321	1.457067	-0.099363
C107	C	0.400712	1.553230	-0.074524
C108	C	0.317702	1.601323	-0.105759
C109	C	0.309302	1.553257	-0.161848
C110	C	0.383910	1.457102	-0.186693
C111	C	0.825961	0.553259	0.235798
C112	C	0.825943	0.457119	0.331951
C113	C	0.734543	0.457144	0.244611
C114	C	0.734556	0.553290	0.148463
C115	C	0.878733	0.553239	0.286223
C116	C	0.878715	0.457099	0.382375
H117	H	0.459930	1.005191	-0.304201
H118	H	0.983285	0.914771	-0.708046
H119	H	0.100669	1.005138	-0.517527
H120	H	0.542886	1.417960	-0.700373
H121	H	1.303670	0.330754	-0.434125
H122	H	0.849392	0.643247	0.296011
H123	H	0.407569	1.592350	-0.028851
H124	H	0.377056	1.417972	-0.232353
H125	H	0.946290	0.517103	0.255000
H126	H	1.017724	0.592420	-0.445695
H127	H	1.318924	0.417933	-0.332362
H128	H	0.906527	1.098439	-0.770588
H129	H	0.542905	1.417917	-0.073916
H130	H	0.256959	1.679619	-0.085522
H131	H	0.697323	0.418011	0.248211
H132	H	0.241705	1.592429	-0.187275
H133	H	0.663110	0.568924	-0.371824
H134	H	0.843905	0.493230	0.444889
H135	H	0.697340	0.592446	0.073772
H136	H	0.948577	0.367076	0.411311
H137	H	0.983307	0.214744	-0.156264
H138	H	0.663070	1.005146	-0.807956
H139	H	0.663035	0.743420	-0.371815
H140	H	1.183573	0.592355	-0.287248
H141	H	1.017744	0.592366	0.180777
H142	H	0.236035	1.005165	-0.562660
H143	H	1.318901	0.417995	0.041206
H144	H	0.978863	0.373942	-0.163316
H145	H	0.913087	0.363075	-0.042489
H146	H	1.303713	0.330754	0.240329
H147	H	0.906539	0.218040	-0.045937
H148	H	0.978899	0.911894	-0.857210
H149	H	1.153133	0.417943	0.310112
H150	H	0.913125	1.095568	-0.923421
H151	H	1.153060	0.418009	-0.490782
H152	H	0.377092	1.417927	-0.431477
H153	H	0.415691	1.005163	-0.388171
H154	H	0.407499	1.592423	-0.829709
H155	H	0.347971	1.005177	-0.516698
H156	H	0.241728	1.592368	-0.560801
H157	H	0.256916	1.679629	-0.759926
H158	H	1.183537	0.592395	-0.088120
H159	H	0.144949	1.005144	-0.131418
H160	H	0.212648	1.005155	-0.002912
H161	H	0.100690	1.005140	-0.215402
H162	H	0.324589	1.005164	0.043055
H163	H	0.459965	1.005186	-0.002059
H164	H	0.663084	1.005135	-0.633514
