data_functionalizedCrystal
_audit_creation_method	'MofGen! by Chris Wilmer'
_symmetry_space_group_name_H-M	'P1'
_symmetry_Int_Tables_number	1
_symmetry_cell_setting	triclinic
loop_
_symmetry_equiv_pos_as_xyz
  x,y,z
_cell_length_a	11.169417
_cell_length_b	17.640280
_cell_length_c	11.169409
_cell_angle_alpha	101.234358
_cell_angle_beta	90.019824
_cell_angle_gamma	78.801822
loop_
_atom_site_label
_atom_site_type_symbol
_atom_site_fract_x
_atom_site_fract_y
_atom_site_fract_z
Zn1	Zn	1.931511	-0.314589	0.582049
Zn2	Zn	1.971974	-0.446792	0.340816
Zn3	Zn	1.730812	-0.314638	0.381369
Zn4	Zn	1.771358	-0.446728	0.541481
O5	O	1.851414	-0.380687	0.461429
O6	O	2.104830	-0.332133	0.550056
O7	O	1.939948	-0.429309	0.178231
O8	O	1.723532	-0.204024	0.441939
O9	O	2.134558	-0.429262	0.372823
O10	O	1.870985	-0.203988	0.589378
O11	O	1.762767	-0.332215	0.208025
O12	O	1.568238	-0.332153	0.402602
O13	O	1.792638	-0.429152	0.714827
O14	O	1.598028	-0.429199	0.520235
O15	O	1.910301	-0.332071	0.744632
O16	O	1.979264	-0.557391	0.333485
O17	O	1.831873	-0.557344	0.480912
C18	C	1.539585	-0.380675	0.461417
C19	C	1.406189	-0.380689	0.461435
C20	C	1.914392	-0.586047	0.398422
C21	C	1.941444	-0.673901	0.371508
C22	C	1.646394	-0.962856	0.666331
C23	C	1.671816	-1.045408	0.641003
C24	C	1.825390	-1.045391	0.487642
C25	C	1.799985	-0.962838	0.512961
C26	C	1.710485	-0.921576	0.602306
C27	C	1.864076	-0.921558	0.448937
C28	C	1.838668	-0.839012	0.474250
C29	C	1.749170	-0.797745	0.563589
C30	C	1.685077	-0.839030	0.627620
C31	C	1.953570	-0.962821	0.359586
C32	C	2.017661	-0.921542	0.295561
C33	C	1.992259	-0.838994	0.320881
C34	C	1.902761	-0.797727	0.410219
C35	C	2.056352	-0.797709	0.256849
C36	C	2.030944	-0.715162	0.282163
C37	C	1.877353	-0.715180	0.435532
C38	C	2.164460	-0.380699	0.461441
C39	C	2.297861	-0.380705	0.461446
C40	C	1.851479	-0.380599	0.774498
C41	C	1.851507	-0.380562	0.907910
C42	C	1.788222	-0.174525	0.524708
C43	C	1.761294	-0.086671	0.551674
C44	C	1.851400	-0.380717	0.149595
C45	C	1.851537	-0.380532	0.016252
H46	H	1.804482	-0.681583	0.508295
H47	H	2.083133	-0.681552	0.230026
F48	F	1.980642	-1.050676	0.332680
F49	F	1.603583	-1.089338	0.709143
H50	H	2.129214	-0.831316	0.184097
H51	H	1.728476	-0.730530	0.584189
F52	F	2.112911	-0.965464	0.200479
F53	F	1.920641	-1.089313	0.392559
H54	H	1.612206	-0.805433	0.700383
H55	H	1.573523	-0.929259	0.739094
