data_functionalizedCrystal
_audit_creation_method	'MofGen! by Chris Wilmer'
_symmetry_space_group_name_H-M	'P1'
_symmetry_Int_Tables_number	1
_symmetry_cell_setting	triclinic
loop_
_symmetry_equiv_pos_as_xyz
  x,y,z
_cell_length_a	14.971486
_cell_length_b	17.699083
_cell_length_c	13.448316
_cell_angle_alpha	89.992503
_cell_angle_beta	89.998199
_cell_angle_gamma	83.448572
loop_
_atom_site_label
_atom_site_type_symbol
_atom_site_fract_x
_atom_site_fract_y
_atom_site_fract_z
O1	O	1.186608	0.098633	-0.082580
O2	O	1.686608	0.598633	0.417420
O3	O	0.926168	0.110445	-0.082607
O4	O	1.426168	0.610445	0.417393
O5	O	1.063746	-0.005632	-0.082584
O6	O	1.563746	0.494368	0.417416
O7	O	1.049030	0.214710	-0.082603
O8	O	1.549030	0.714710	0.417397
O9	O	1.063729	-0.005639	0.082800
O10	O	1.563729	0.494361	0.582800
O11	O	0.926150	0.110438	0.082777
O12	O	1.426150	0.610438	0.582777
O13	O	1.186591	0.098626	0.082804
O14	O	1.686591	0.598626	0.582804
Cu15	Cu	1.056369	0.104531	0.097891
Cu16	Cu	1.556369	0.604531	0.597891
Cu17	Cu	1.056390	0.104540	-0.097694
Cu18	Cu	1.556390	0.604540	0.402306
O19	O	1.049013	0.214703	0.082781
O20	O	1.549013	0.714703	0.582781
C21	C	0.892836	0.109913	0.000082
C22	C	1.392836	0.609913	0.500082
C23	C	0.793544	0.108330	0.000071
C24	C	1.293544	0.608330	0.500071
C25	C	1.063210	-0.033834	0.000108
C26	C	1.563210	0.466166	0.500108
C27	C	1.061628	-0.117856	0.000109
C28	C	1.561628	0.382144	0.500109
C29	C	0.736085	0.176522	0.000067
C30	C	1.236085	0.676522	0.500067
C31	C	0.642790	0.175030	0.000082
C32	C	1.142790	0.675030	0.500082
C33	C	0.606958	0.105346	0.000094
C34	C	1.106958	0.605346	0.500094
C35	C	0.664425	0.037148	0.000102
C36	C	1.164425	0.537148	0.500102
C37	C	0.757717	0.038641	0.000094
C38	C	1.257717	0.538641	0.500094
C39	C	0.469973	0.034042	0.000116
C40	C	0.969973	0.534042	0.500116
C41	C	0.376674	0.032549	0.000122
C42	C	0.876674	0.532549	0.500122
C43	C	0.355046	0.170431	0.000104
C44	C	0.855046	0.670431	0.500104
C45	C	0.448339	0.171924	0.000096
C46	C	0.948339	0.671924	0.500096
C47	C	0.505799	0.103726	0.000102
C48	C	1.005799	0.603726	0.500102
C49	C	1.142384	-0.166278	0.000118
C50	C	1.642384	0.333722	0.500118
C51	C	1.140892	-0.245225	0.000110
C52	C	1.640892	0.254775	0.500110
C53	C	1.058644	-0.275748	0.000098
C54	C	1.558644	0.224252	0.500098
C55	C	0.977882	-0.227320	0.000085
C56	C	1.477882	0.272680	0.500085
C57	C	0.979375	-0.148374	0.000087
C58	C	1.479375	0.351626	0.500087
C59	C	0.971860	-0.545698	0.000076
C60	C	1.471860	-0.045698	0.500076
C61	C	0.970374	-0.624649	0.000077
C62	C	1.470374	-0.124649	0.500077
C63	C	1.133378	-0.642548	0.000099
C64	C	1.633378	-0.142548	0.500099
C65	C	1.134871	-0.563603	0.000101
C66	C	1.634871	-0.063603	0.500101
C67	C	1.054109	-0.515181	0.000083
C68	C	1.554109	-0.015181	0.500083
C69	C	1.055728	-0.429578	0.000090
C70	C	1.555728	0.070422	0.500090
C71	C	1.057024	-0.361350	0.000097
C72	C	1.557024	0.138650	0.500097
C73	C	1.219923	0.099158	0.000114
C74	C	1.719923	0.599158	0.500114
C75	C	1.319214	0.100741	0.000117
C76	C	1.819214	0.600741	0.500117
C77	C	1.049549	0.242905	0.000087
C78	C	1.549549	0.742905	0.500087
C79	C	1.051131	0.326927	0.000080
C80	C	1.551131	0.826927	0.500080
N81	N	1.056361	0.104525	0.235456
N82	N	1.556361	0.604525	0.735456
N83	N	1.056404	0.104540	-0.235258
N84	N	1.556404	0.604540	0.264742
C85	C	1.117300	0.053147	0.287506
C86	C	1.617300	0.553147	0.787506
C87	C	1.117306	0.053147	0.391610
C88	C	1.617306	0.553147	0.891610
C89	C	1.056376	0.104528	0.443660
C90	C	1.556376	0.604528	0.943660
C91	C	0.995431	0.155908	0.391602
C92	C	1.495431	0.655908	0.891602
C93	C	0.995422	0.155904	0.287501
C94	C	1.495422	0.655904	0.787501
C95	C	0.995456	0.155913	0.608582
C96	C	1.495456	0.655913	1.108582
C97	C	0.995466	0.155918	0.712691
C98	C	1.495466	0.655918	1.212691
C99	C	1.117339	0.053155	0.712691
C100	C	1.617339	0.553155	1.212691
C101	C	1.117330	0.053152	0.608590
C102	C	1.617330	0.553152	1.108590
C103	C	1.056386	0.104533	0.556539
C104	C	1.556386	0.604533	1.056539
H105	H	0.765252	0.233267	0.000056
H106	H	1.265252	0.733267	0.500056
C107	C	0.928382	0.212405	0.448851
C108	C	1.428382	0.712405	0.948851
H109	H	0.892074	0.242992	0.402939
H110	H	1.392074	0.742992	0.902939
H111	H	0.960461	0.243968	0.489464
H112	H	1.460461	0.743968	0.989464
H113	H	0.891223	0.185100	0.489456
H114	H	1.391223	0.685100	0.989456
H115	H	1.166919	0.011310	0.245134
H116	H	1.666919	0.511310	0.745134
C117	C	1.232858	-0.132709	0.000131
C118	C	1.732858	0.367291	0.500131
H119	H	1.280739	-0.172858	0.000127
H120	H	1.780739	0.327142	0.500127
H121	H	1.236826	-0.102290	0.057804
H122	H	1.736826	0.397710	0.557804
H123	H	1.236834	-0.102281	-0.057549
H124	H	1.736834	0.397719	0.442451
C125	C	1.222218	-0.695811	0.000108
C126	C	1.722218	-0.195811	0.500108
H127	H	1.271414	-0.666324	0.000126
H128	H	1.771414	-0.166324	0.500126
H129	H	1.225036	-0.726974	-0.057566
H130	H	1.725036	-0.226974	0.442434
H131	H	1.225016	-0.726985	0.057787
H132	H	1.725016	-0.226985	0.557787
C133	C	0.879899	-0.658227	0.000056
C134	C	1.379899	-0.158227	0.500056
H135	H	0.890580	-0.712179	0.000069
H136	H	1.390580	-0.212179	0.500069
H137	H	0.846664	-0.641610	-0.057624
H138	H	1.346664	-0.141610	0.442376
H139	H	0.846644	-0.641617	0.057729
H140	H	1.346644	-0.141617	0.557729
H141	H	0.635242	-0.019590	0.000126
H142	H	1.135242	0.480410	0.500126
C143	C	0.820923	-0.036370	0.000089
C144	C	1.320923	0.463630	0.500089
H145	H	0.786222	-0.078086	0.000087
H146	H	1.286222	0.421914	0.500087
H147	H	0.857771	-0.038659	0.057757
H148	H	1.357771	0.461341	0.557757
H149	H	0.857760	-0.038648	-0.057596
H150	H	1.357760	0.461352	0.442404
H151	H	0.906099	-0.506282	0.000062
H152	H	1.406099	-0.006282	0.500062
H153	H	0.910914	-0.252178	0.000069
H154	H	1.410914	0.247822	0.500069
H155	H	0.516756	-0.021492	0.000122
H156	H	1.016756	0.478508	0.500122
H157	H	0.596010	0.230559	0.000077
H158	H	1.096010	0.730559	0.500077
H159	H	1.206652	-0.284648	0.000120
H160	H	1.706652	0.215352	0.500120
C161	C	0.337259	-0.044102	0.000141
C162	C	0.837259	0.455898	0.500141
H163	H	0.384840	-0.084504	0.000157
H164	H	0.884840	0.415496	0.500157
H165	H	0.301314	-0.047550	-0.057529
H166	H	0.801314	0.452450	0.442471
H167	H	0.301316	-0.047545	0.057824
H168	H	0.801316	0.452455	0.557824
H169	H	0.945799	0.197740	0.245122
H170	H	1.445799	0.697740	0.745122
H171	H	1.166962	0.011319	0.755077
H172	H	1.666962	0.511319	1.255077
C173	C	1.184346	-0.003362	0.448861
C174	C	1.684346	0.496638	0.948861
H175	H	1.220641	-0.033955	0.402952
H176	H	1.720641	0.466045	0.902952
H177	H	1.152256	-0.034918	0.489486
H178	H	1.652256	0.465082	0.989486
H179	H	1.221519	0.023930	0.489456
H180	H	1.721519	0.523930	0.989456
C181	C	0.487754	0.248575	0.000085
C182	C	0.987754	0.748575	0.500085
H183	H	0.440172	0.288977	0.000093
H184	H	0.940172	0.788977	0.500093
H185	H	0.523698	0.252025	-0.057590
H186	H	1.023698	0.752025	0.442410
H187	H	0.523698	0.252016	0.057764
H188	H	1.023698	0.752016	0.557764
H189	H	1.201846	-0.538756	0.000115
H190	H	1.701846	-0.038756	0.500115
C191	C	0.928389	0.212387	0.769945
C192	C	1.428389	0.712387	1.269945
H193	H	0.892067	0.242967	0.724038
H194	H	1.392067	0.742967	1.224038
H195	H	0.960439	0.243961	0.810575
H196	H	1.460439	0.743961	1.310575
H197	H	0.891248	0.185054	0.810536
H198	H	1.391248	0.685054	1.310536
H199	H	0.913615	-0.108949	0.000079
H200	H	1.413615	0.391051	0.500079
H201	H	1.166948	0.011317	0.566210
H202	H	1.666948	0.511317	1.066210
H203	H	0.308257	0.225960	0.000104
H204	H	0.808257	0.725960	0.500104
H205	H	0.945826	0.197751	0.566206
H206	H	1.445826	0.697751	1.066206
