data_functionalizedCrystal
_audit_creation_method	'MofGen! by Chris Wilmer'
_symmetry_space_group_name_H-M	'P1'
_symmetry_Int_Tables_number	1
_symmetry_cell_setting	triclinic
loop_
_symmetry_equiv_pos_as_xyz
  x,y,z
_cell_length_a	17.038272
_cell_length_b	17.038272
_cell_length_c	16.098538
_cell_angle_alpha	87.079695
_cell_angle_beta	87.069734
_cell_angle_gamma	88.888444
loop_
_atom_site_label
_atom_site_type_symbol
_atom_site_fract_x
_atom_site_fract_y
_atom_site_fract_z
O1	O	1.052033	-0.167266	-0.069152
O2	O	1.552033	0.332734	0.430848
O3	O	0.824222	-0.164557	-0.069177
O4	O	1.324222	0.335443	0.430823
O5	O	0.936773	-0.052006	-0.069158
O6	O	1.436773	0.447994	0.430842
O7	O	0.939482	-0.279817	-0.069171
O8	O	1.439482	0.220183	0.430829
O9	O	0.930197	-0.058553	0.069354
O10	O	1.430197	0.441447	0.569354
O11	O	0.817646	-0.171104	0.069335
O12	O	1.317646	0.328896	0.569335
O13	O	1.045456	-0.173813	0.069359
O14	O	1.545456	0.326187	0.569359
Zn15	Zn	0.930507	-0.173498	0.091339
Zn16	Zn	1.430507	0.326502	0.591339
Zn17	Zn	0.939172	-0.164872	-0.091156
Zn18	Zn	1.439172	0.335128	0.408844
O19	O	0.932905	-0.286364	0.069341
O20	O	1.432905	0.213636	0.569341
C21	C	0.791641	-0.165367	0.000076
C22	C	1.291641	0.334633	0.500076
C23	C	0.704358	-0.158019	0.000067
C24	C	1.204358	0.341981	0.500067
C25	C	0.658749	-0.225482	0.000064
C26	C	1.158749	0.274518	0.500064
C27	C	0.576737	-0.218574	0.000075
C28	C	1.076737	0.281426	0.500075
C29	C	0.540335	-0.144201	0.000085
C30	C	1.040335	0.355799	0.500085
C31	C	0.585950	-0.076733	0.000090
C32	C	1.085950	0.423267	0.500090
C33	C	0.667961	-0.083642	0.000084
C34	C	1.167961	0.416358	0.500084
C35	C	0.292946	-0.119792	0.000108
C36	C	0.792946	0.380208	0.500108
C37	C	0.210929	-0.112887	0.000112
C38	C	0.710929	0.387113	0.500112
C39	C	0.201722	-0.254729	0.000098
C40	C	0.701722	0.245271	0.500098
C41	C	0.283734	-0.261632	0.000088
C42	C	0.783734	0.238368	0.500088
C43	C	0.329342	-0.194164	0.000098
C44	C	0.829342	0.305836	0.500098
C45	C	0.456505	-0.137138	0.000094
C46	C	0.956505	0.362862	0.500094
C47	C	0.413170	-0.201228	0.000094
C48	C	0.913170	0.298772	0.500094
C49	C	0.931022	-0.025987	0.000097
C50	C	1.431022	0.474013	0.500097
C51	C	0.923674	0.061297	0.000096
C52	C	1.423674	0.561297	0.500096
C53	C	1.078037	-0.173002	0.000105
C54	C	1.578037	0.326998	0.500105
C55	C	1.165320	-0.180351	0.000108
C56	C	1.665320	0.319649	0.500108
C57	C	0.938656	-0.312383	0.000083
C58	C	1.438656	0.187617	0.500083
C59	C	0.946005	-0.399666	0.000079
C60	C	1.446005	0.100334	0.500079
N61	N	0.924599	-0.179385	0.215887
N62	N	1.424599	0.320615	0.715887
C63	C	0.991137	0.106906	0.000104
C64	C	1.491137	0.606906	0.500104
C65	C	0.984229	0.188918	0.000096
C66	C	1.484229	0.688918	0.500096
C67	C	0.909856	0.225320	0.000085
C68	C	1.409856	0.725320	0.500085
C69	C	0.842388	0.179705	0.000074
C70	C	1.342388	0.679705	0.500074
C71	C	0.849297	0.097694	0.000077
C72	C	1.349297	0.597694	0.500077
C73	C	0.885446	0.472708	0.000071
C74	C	1.385446	0.972708	0.500071
C75	C	0.878541	0.554725	0.000071
C76	C	1.378541	1.054725	0.500071
C77	C	1.020383	0.563932	0.000091
C78	C	1.520383	1.063932	0.500091
C79	C	1.027286	0.481920	0.000098
C80	C	1.527286	0.981920	0.500098
C81	C	0.959818	0.436312	0.000083
C82	C	1.459818	0.936312	0.500083
C83	C	0.902792	0.309149	0.000079
C84	C	1.402792	0.809149	0.500079
C85	C	0.966882	0.352485	0.000084
C86	C	1.466882	0.852485	0.500084
N87	N	0.945085	-0.158979	-0.215705
N88	N	1.445085	0.341021	0.284295
C89	C	0.972390	-0.131633	0.259480
C90	C	1.472390	0.368367	0.759480
C91	C	0.968265	-0.135759	0.346668
C92	C	1.468265	0.364241	0.846668
C93	C	0.916352	-0.187642	0.390262
C94	C	1.416352	0.312358	0.890262
C95	C	0.868556	-0.235395	0.346663
C96	C	1.368556	0.264605	0.846663
C97	C	0.872678	-0.231265	0.259476
C98	C	1.372678	0.268735	0.759476
C99	C	0.901410	-0.202602	0.653510
C100	C	1.401410	0.297398	1.153510
C101	C	0.897294	-0.206731	0.740702
C102	C	1.397294	0.293269	1.240702
C103	C	0.997003	-0.107093	0.740702
C104	C	1.497003	0.392907	1.240702
C105	C	1.001123	-0.102971	0.653513
C106	C	1.501123	0.397029	1.153513
C107	C	0.953324	-0.150721	0.609922
C108	C	1.453324	0.349279	1.109922
C109	C	0.912136	-0.191862	0.479383
C110	C	1.412136	0.308138	0.979383
C111	C	0.957536	-0.146496	0.520803
C112	C	1.457536	0.353504	1.020803
H113	H	0.330070	-0.064854	0.000117
H114	H	0.830070	0.435146	0.500117
O115	O	0.762168	0.218960	0.000071
O116	O	1.262168	0.718960	0.500071
H117	H	0.768695	0.283649	0.000083
H118	H	1.268695	0.783649	0.500083
H119	H	1.075312	0.601075	0.000101
H120	H	1.575312	1.101075	0.500101
O121	O	0.841297	-0.262686	0.787731
O122	O	1.341297	0.237314	1.287731
H123	H	0.780202	-0.247767	0.771020
H124	H	1.280202	0.252233	1.271020
O125	O	1.019810	-0.084259	0.393693
O126	O	1.519810	0.415741	0.893693
H127	H	1.058286	-0.121767	0.433411
H128	H	1.558286	0.378233	0.933411
H129	H	1.043394	-0.060724	0.618021
H130	H	1.543394	0.439276	1.118021
H131	H	1.035918	-0.068216	0.776202
H132	H	1.535918	0.431784	1.276202
O133	O	0.546695	0.003487	0.000103
O134	O	1.046695	0.503487	0.500103
H135	H	0.482005	-0.003041	0.000099
H136	H	0.982005	0.496959	0.500099
H137	H	0.164579	-0.309658	0.000092
H138	H	0.664579	0.190342	0.500092
H139	H	0.442811	-0.261782	0.000091
H140	H	0.942811	0.238218	0.500091
H141	H	0.869870	-0.234107	0.514884
H142	H	1.369870	0.265893	1.014884
H143	H	0.842238	0.338796	0.000072
H144	H	1.342238	0.838796	0.500072
H145	H	0.830508	0.435584	0.000059
H146	H	1.330508	0.935584	0.500059
H147	H	0.688381	-0.286045	0.000056
H148	H	1.188381	0.213955	0.500056
O149	O	0.798322	0.593992	0.000050
O150	O	1.298322	1.093992	0.500050
H151	H	0.752568	0.548502	0.000030
H152	H	1.252568	1.048502	0.500030
H153	H	0.181294	-0.052321	0.000118
H154	H	0.681294	0.447679	0.500118
O155	O	0.776534	0.048495	0.000077
O156	O	1.276534	0.548495	0.500077
H157	H	0.723656	0.087583	0.000079
H158	H	1.223656	0.587583	0.500079
H159	H	1.027437	0.322844	0.000074
H160	H	1.527437	0.822844	0.500074
H161	H	0.705095	-0.028706	0.000086
H162	H	1.205095	0.471294	0.500086
O163	O	0.322986	-0.341854	0.000097
O164	O	0.822986	0.158146	0.500097
H165	H	0.307703	-0.371874	-0.056352
H166	H	0.807703	0.128126	0.443648
O167	O	0.849866	-0.254110	0.606497
O168	O	1.349866	0.245890	1.106497
H169	H	0.813085	-0.290886	0.651461
H170	H	1.313085	0.209114	1.151461
O171	O	0.417243	-0.056922	0.000104
O172	O	0.917243	0.443078	0.500104
H173	H	0.382772	-0.047713	-0.056349
H174	H	0.882772	0.452287	0.443651
O175	O	0.812566	-0.291360	0.393676
O176	O	1.312566	0.208640	0.893676
H177	H	0.817735	-0.286218	0.461626
H178	H	1.317735	0.213782	0.961626
O179	O	1.013515	-0.090534	0.473778
O180	O	1.513515	0.409466	0.973778
H181	H	1.074614	-0.105431	0.490492
H182	H	1.574614	0.394569	0.990492
H183	H	0.833760	-0.270148	0.223984
H184	H	1.333760	0.229852	0.723984
O185	O	0.527541	-0.291337	0.000072
O186	O	1.027541	0.208663	0.500072
H187	H	0.566632	-0.344213	0.000055
H188	H	1.066632	0.155787	0.500055
O189	O	1.071354	0.067645	0.000108
O190	O	1.571354	0.567645	0.500108
H191	H	1.117105	0.113142	0.000102
H192	H	1.617105	0.613142	0.500102
H193	H	1.087848	0.452287	0.000107
H194	H	1.587848	0.952287	0.500107
H195	H	1.039165	0.226050	0.000104
H196	H	1.539165	0.726050	0.500104
O197	O	1.028378	-0.075671	0.212462
O198	O	1.528378	0.424329	0.712462
H199	H	1.060910	-0.043153	0.257426
H200	H	1.560910	0.456847	0.757426
