data_functionalizedCrystal
_audit_creation_method	'MofGen! by Chris Wilmer'
_symmetry_space_group_name_H-M	'P1'
_symmetry_Int_Tables_number	1
_symmetry_cell_setting	triclinic
loop_
_symmetry_equiv_pos_as_xyz
  x,y,z
_cell_length_a	15.995350
_cell_length_b	23.532407
_cell_length_c	15.072220
_cell_angle_alpha	89.994175
_cell_angle_beta	89.991149
_cell_angle_gamma	83.170526
loop_
_atom_site_label
_atom_site_type_symbol
_atom_site_fract_x
_atom_site_fract_y
_atom_site_fract_z
O1	O	1.110385	0.073404	-0.073717
O2	O	0.866535	0.082469	-0.073736
O3	O	0.995813	-0.004967	-0.073710
O4	O	0.981107	0.160840	-0.073743
O5	O	0.995781	-0.004962	0.073856
O6	O	0.866503	0.082474	0.073829
O7	O	1.110354	0.073409	0.073848
Zn8	Zn	0.988423	0.077942	0.097268
Zn9	Zn	0.988465	0.077935	-0.097155
O10	O	0.981075	0.160845	0.073822
C11	C	0.835327	0.082096	0.000044
C12	C	0.742386	0.080973	0.000038
C13	C	0.404672	0.076938	0.000057
C14	C	0.452624	0.014668	0.000399
C15	C	0.549305	0.015792	0.000060
C16	C	0.572216	0.078939	0.000048
C17	C	0.530892	0.109650	-0.084222
C18	C	0.434269	0.108086	-0.084286
C19	C	0.433883	0.109378	0.083523
C20	C	0.530828	0.109363	0.084631
C21	C	0.666904	0.080074	0.000040
C22	C	0.309984	0.075805	0.000059
C23	C	0.995423	-0.026182	0.000075
C24	C	0.994297	-0.089404	0.000082
C25	C	1.063739	-0.488239	0.000039
C26	C	1.062693	-0.547644	0.000032
O27	O	1.127067	-0.584141	0.000004
N28	N	0.985837	-0.570566	0.000027
C29	C	0.910022	-0.534080	0.000019
O30	O	0.844554	-0.559031	0.000013
C31	C	0.911069	-0.474677	0.000019
C32	C	0.987930	-0.451758	0.000034
C33	C	1.140594	-0.465320	0.000052
C34	C	1.141640	-0.405920	0.000061
C35	C	1.065830	-0.369439	0.000056
C36	C	0.988975	-0.392358	0.000042
C37	C	0.835255	-0.438192	0.000005
C38	C	0.836308	-0.378785	0.000005
C39	C	0.913169	-0.355867	0.000020
C40	C	0.914212	-0.296477	0.000046
N41	N	0.991068	-0.273555	0.000051
C42	C	1.066877	-0.310036	0.000056
C43	C	0.907829	-0.658831	0.000016
C44	C	0.906781	-0.718233	0.000022
C45	C	1.059453	-0.731793	0.000034
C46	C	1.060500	-0.672389	0.000034
C47	C	0.984685	-0.635909	0.000022
C48	C	1.069067	-0.185291	0.000075
C49	C	1.070106	-0.125885	0.000087
C50	C	0.917435	-0.112330	0.000071
C51	C	0.916396	-0.171731	0.000063
C52	C	0.992219	-0.208210	0.000062
O53	O	0.849872	-0.259945	0.000070
O54	O	1.132335	-0.285076	0.000051
C55	C	1.141561	0.073781	0.000066
C56	C	1.234502	0.074905	0.000067
C57	C	0.981465	0.182060	0.000035
C58	C	0.982591	0.245281	0.000023
N59	N	0.988401	0.077946	0.229957
N60	N	0.988494	0.077927	-0.229844
C61	C	0.988463	0.077933	0.589158
C62	C	0.919059	0.124562	0.551537
C63	C	0.919216	0.124732	0.448711
C64	C	0.988431	0.077940	0.410954
C65	C	1.075688	0.090918	0.448249
C66	C	1.075299	0.091250	0.551107
C67	C	0.971391	0.018188	0.551269
C68	C	0.969383	0.018587	0.448405
C69	C	0.988419	0.077942	0.310241
C70	C	0.988482	0.077932	0.689872
H71	H	0.401740	0.155290	0.084084
H72	H	1.022010	-0.016511	0.575598
C73	C	0.933348	0.183302	0.586146
C74	C	0.929255	0.183413	0.678940
C75	C	0.942429	0.237511	0.710853
H76	H	0.891178	0.211273	0.563199
H77	H	0.987243	0.191948	0.567805
H78	H	0.875367	0.174774	0.697272
H79	H	0.971423	0.155453	0.701910
H80	H	0.996325	0.246157	0.692512
H81	H	0.900258	0.265478	0.687900
H82	H	0.939662	0.237592	0.773816
H83	H	1.132698	-0.107228	0.000101
C84	C	0.835041	-0.072810	0.000102
C85	C	0.767501	-0.105590	0.000107
C86	C	0.691588	-0.069202	0.000139
H87	H	0.832181	-0.049341	-0.051345
H88	H	0.832215	-0.049364	0.051581
H89	H	0.770326	-0.129026	-0.051366
H90	H	0.770334	-0.129058	0.051550
H91	H	0.688762	-0.045757	0.051617
H92	H	0.688736	-0.045735	-0.051309
H93	H	0.645753	-0.091438	0.000151
C94	C	1.151478	-0.224796	0.000124
C95	C	1.219000	-0.192000	0.000161
C96	C	1.294928	-0.228372	0.000224
H97	H	1.154384	-0.248261	-0.051323
H98	H	1.154281	-0.248247	0.051602
H99	H	1.216199	-0.168559	-0.051312
H100	H	1.216122	-0.168537	0.051604
H101	H	1.297731	-0.251823	0.051703
H102	H	1.297825	-0.251835	-0.051223
H103	H	1.340750	-0.206125	0.000258
H104	H	0.844194	-0.736887	0.000026
C105	C	1.032568	-0.029769	0.414091
C106	C	1.090407	-0.007319	0.358210
C107	C	1.148641	-0.051845	0.326597
H108	H	1.003836	-0.056233	0.381925
H109	H	1.061581	-0.048733	0.462725
H110	H	1.061398	0.011635	0.309583
H111	H	1.119160	0.019140	0.390356
H112	H	1.177654	-0.070808	0.375231
H113	H	1.119902	-0.078306	0.294435
H114	H	1.187897	-0.036618	0.288684
H115	H	0.434296	-0.010221	0.060832
C116	C	0.751829	-0.463098	0.000161
C117	C	0.746719	-0.496800	0.076084
C118	C	0.669871	-0.519746	0.076259
H119	H	0.748180	-0.486022	-0.051243
H120	H	0.706811	-0.432873	0.000200
H121	H	0.791725	-0.527021	0.076037
H122	H	0.750353	-0.473889	0.127500
H123	H	0.624853	-0.489521	0.076298
H124	H	0.666229	-0.542668	0.024852
H125	H	0.666390	-0.542611	0.127775
H126	H	0.853973	0.116956	0.576295
C127	C	0.550915	0.170735	0.091549
C128	C	0.594109	0.177682	0.170864
C129	C	0.612637	0.234209	0.177253
H130	H	0.500057	0.196083	0.090893
H131	H	0.585058	0.179015	0.042738
H132	H	0.559967	0.169408	0.219661
H133	H	0.644976	0.152347	0.171537
H134	H	0.646780	0.242490	0.128443
H135	H	0.561775	0.259553	0.176594
H136	H	0.641953	0.238929	0.231064
C137	C	1.225064	-0.381009	0.000245
C138	C	1.230134	-0.347318	0.076174
C139	C	1.306981	-0.324371	0.076375
H140	H	1.228739	-0.358077	-0.051155
H141	H	1.270084	-0.411233	0.000292
H142	H	1.185127	-0.317098	0.076120
H143	H	1.226474	-0.370237	0.127586
H144	H	1.352000	-0.354595	0.076421
H145	H	1.310648	-0.301441	0.024972
H146	H	1.310434	-0.301513	0.127896
C147	C	0.888501	0.001473	0.586001
C148	C	0.903590	-0.049972	0.633201
C149	C	0.827250	-0.065376	0.665220
H150	H	0.851967	-0.003301	0.537590
H151	H	0.863022	0.030694	0.624132
H152	H	0.929057	-0.079186	0.595072
H153	H	0.940111	-0.045212	0.681624
H154	H	0.801770	-0.036155	0.703351
H155	H	0.790721	-0.070147	0.616803
H156	H	0.837478	-0.100280	0.697255
C157	C	1.223000	-0.504828	0.000108
C158	C	1.290519	-0.472030	0.000141
C159	C	1.366449	-0.508400	0.000212
H160	H	1.225909	-0.528296	-0.051335
H161	H	1.225802	-0.528275	0.051590
H162	H	1.287718	-0.448592	-0.051336
H163	H	1.287638	-0.448563	0.051580
H164	H	1.369251	-0.531847	0.051695
H165	H	1.369349	-0.531866	-0.051231
H166	H	1.412269	-0.486152	0.000243
H167	H	1.128547	0.057860	0.423791
H168	H	0.905198	0.008737	0.424031
H169	H	0.577922	-0.008349	0.060468
C170	C	0.549384	0.171472	-0.088472
C171	C	0.636570	0.172909	-0.092216
C172	C	0.653638	0.229848	-0.096142
H173	H	0.527341	0.191347	-0.037146
H174	H	0.523872	0.189245	-0.139938
H175	H	0.662072	0.155143	-0.040755
H176	H	0.658633	0.153046	-0.143540
H177	H	0.628126	0.247621	-0.147608
H178	H	0.631590	0.249718	-0.044815
H179	H	0.712794	0.230830	-0.098691
C180	C	0.390599	0.169003	-0.089357
C181	C	0.303243	0.168056	-0.089433
C182	C	0.262992	0.224160	-0.094098
H183	H	0.406956	0.186602	-0.142297
H184	H	0.406187	0.190102	-0.039516
H185	H	0.287662	0.146965	-0.139271
H186	H	0.286861	0.150468	-0.036499
H187	H	0.278579	0.245259	-0.044256
H188	H	0.279355	0.241755	-0.147038
H189	H	0.203716	0.223526	-0.094142
H190	H	0.413503	0.089023	0.147397
H191	H	0.853809	-0.190392	0.000076
C192	C	0.410290	0.078174	-0.168295
C193	C	0.482766	0.061682	-0.218519
C194	C	0.460716	0.034117	-0.295908
H195	H	0.372142	0.103571	-0.202090
H196	H	0.384329	0.045257	-0.152923
H197	H	0.508714	0.094595	-0.233892
H198	H	0.520922	0.036278	-0.184750
H199	H	0.434755	0.001200	-0.280536
H200	H	0.422567	0.059518	-0.329696
H201	H	0.509887	0.022919	-0.329991
C202	C	1.144035	-0.647620	-0.000006
C203	C	1.210196	-0.692290	-0.000022
C204	C	1.287163	-0.669498	-0.000075
H205	H	1.147732	-0.624738	0.051437
H206	H	1.147676	-0.624745	-0.051488
H207	H	1.206557	-0.715155	0.051455
H208	H	1.206527	-0.715175	-0.051461
H209	H	1.290804	-0.646623	-0.051557
H210	H	1.290851	-0.646616	0.051369
H211	H	1.332062	-0.699802	-0.000094
C212	C	0.754081	-0.339084	-0.000050
C213	C	0.771438	-0.282154	-0.000063
C214	C	0.695714	-0.245566	-0.000124
H215	H	0.722471	-0.345965	0.051390
H216	H	0.722554	-0.345996	-0.051535
H217	H	0.802952	-0.275244	0.051417
H218	H	0.803036	-0.275254	-0.051499
H219	H	0.664186	-0.252479	-0.051609
H220	H	0.664109	-0.252452	0.051317
H221	H	0.707480	-0.206935	-0.000141
C222	C	0.426963	-0.018414	-0.079756
C223	C	0.498067	-0.035561	-0.131716
C224	C	0.474461	-0.066041	-0.205557
H225	H	0.386970	0.005339	-0.113950
H226	H	0.402721	-0.051222	-0.060400
H227	H	0.522296	-0.002759	-0.151073
H228	H	0.538069	-0.059322	-0.097549
H229	H	0.450219	-0.098849	-0.186201
H230	H	0.434467	-0.042285	-0.239743
H231	H	0.522702	-0.077684	-0.240817
H232	H	1.121181	-0.761507	0.000034
H233	H	0.854341	0.116999	0.423497
H234	H	1.091182	0.133993	0.422473
H235	H	0.846088	-0.629131	0.000014
C236	C	0.933512	0.183869	0.415823
C237	C	0.864671	0.206545	0.364317
C238	C	0.877809	0.261027	0.334017
H239	H	0.983262	0.181103	0.380889
H240	H	0.939357	0.208217	0.465151
H241	H	0.858836	0.182204	0.314996
H242	H	0.814913	0.209326	0.399232
H243	H	0.883654	0.285374	0.383345
H244	H	0.927561	0.258255	0.299086
H245	H	0.831100	0.276421	0.299074
C246	C	0.567319	0.079418	0.167786
C247	C	0.502625	0.058847	0.216377
C248	C	0.536218	0.031250	0.292975
H249	H	0.593457	0.105724	0.203056
H250	H	0.607846	0.048336	0.151510
H251	H	0.462113	0.089925	0.232654
H252	H	0.476481	0.032534	0.181134
H253	H	0.576744	0.000168	0.276700
H254	H	0.562355	0.057560	0.328238
H255	H	0.492330	0.017285	0.325950
C256	C	1.095425	0.149393	0.582906
C257	C	1.107826	0.183892	0.509507
C258	C	1.126355	0.237461	0.538760
H259	H	1.145107	0.144670	0.617970
H260	H	1.049886	0.167058	0.617465
H261	H	1.153361	0.166231	0.474963
H262	H	1.058154	0.188631	0.474435
H263	H	1.080817	0.255126	0.573319
H264	H	1.176036	0.232732	0.573825
H265	H	1.134764	0.260877	0.488965
C266	C	1.146254	0.047673	0.584122
C267	C	1.189286	0.021164	0.511454
C268	C	1.254658	-0.018977	0.541828
H269	H	1.123554	0.019641	0.619131
H270	H	1.184121	0.066465	0.619001
H271	H	1.151427	0.002373	0.476589
H272	H	1.212006	0.049182	0.476437
H273	H	1.292524	-0.000186	0.576708
H274	H	1.231950	-0.047006	0.576837
H275	H	1.283868	-0.036965	0.492528
H276	H	0.559457	0.088316	-0.146929
H277	H	0.577378	-0.008516	-0.060444
