data_functionalizedCrystal
_audit_creation_method	'MofGen! by Chris Wilmer'
_symmetry_space_group_name_H-M	'P1'
_symmetry_Int_Tables_number	1
_symmetry_cell_setting	triclinic
loop_
_symmetry_equiv_pos_as_xyz
  x,y,z
_cell_length_a	13.897449
_cell_length_b	13.897441
_cell_length_c	13.897448
_cell_angle_alpha	89.970373
_cell_angle_beta	89.981028
_cell_angle_gamma	90.018596
loop_
_atom_site_label
_atom_site_type_symbol
_atom_site_fract_x
_atom_site_fract_y
_atom_site_fract_z
Zn1	Zn	-1.474682	-0.545381	-0.383960
Zn2	Zn	-1.141349	-0.212048	-0.050627
Zn3	Zn	-0.808016	0.121285	0.282706
Zn4	Zn	-1.474582	-0.384083	-0.545279
Zn5	Zn	-1.141249	-0.050749	-0.211946
Zn6	Zn	-0.807916	0.282584	0.121387
Zn7	Zn	-1.313377	-0.384100	-0.384004
Zn8	Zn	-0.980044	-0.050766	-0.050670
Zn9	Zn	-0.646711	0.282567	0.282663
Zn10	Zn	-1.313353	-0.545335	-0.545219
Zn11	Zn	-0.980020	-0.212002	-0.211885
Zn12	Zn	-0.646686	0.121331	0.121448
O13	O	-1.393999	-0.464725	-0.464616
O14	O	-1.060665	-0.131391	-0.131282
O15	O	-0.727332	0.201942	0.202051
O16	O	-1.609651	-0.523997	-0.405367
O17	O	-1.276317	-0.190663	-0.072034
O18	O	-0.942984	0.142670	0.261300
O19	O	-1.453166	-0.249103	-0.523929
O20	O	-1.119833	0.084230	-0.190596
O21	O	-0.786500	0.417564	0.142737
O22	O	-1.334827	-0.405520	-0.249016
O23	O	-1.001494	-0.072187	0.084317
O24	O	-0.668160	0.261146	0.417650
O25	O	-1.609577	-0.405491	-0.523887
O26	O	-1.276244	-0.072158	-0.190554
O27	O	-0.942910	0.261175	0.142779
O28	O	-1.453337	-0.524013	-0.248985
O29	O	-1.120004	-0.190680	0.084349
O30	O	-0.786670	0.142653	0.417682
O31	O	-1.334730	-0.249116	-0.405441
O32	O	-1.001397	0.084218	-0.072107
O33	O	-0.668063	0.417551	0.261226
O34	O	-1.178393	-0.405476	-0.405382
O35	O	-0.845059	-0.072142	-0.072049
O36	O	-0.511726	0.261191	0.261285
O37	O	-1.334785	-0.680323	-0.523784
O38	O	-1.001452	-0.346990	-0.190451
O39	O	-0.668119	-0.013656	0.142883
O40	O	-1.178375	-0.523935	-0.523826
O41	O	-0.845041	-0.190601	-0.190493
O42	O	-0.511708	0.142732	0.142841
O43	O	-1.453313	-0.680357	-0.405308
O44	O	-1.119980	-0.347023	-0.071975
O45	O	-0.786647	-0.013690	0.261358
O46	O	-1.453143	-0.405447	-0.680253
O47	O	-1.119810	-0.072113	-0.346920
O48	O	-0.786476	0.261220	-0.013586
O49	O	-1.334688	-0.523918	-0.680208
O50	O	-1.001355	-0.190585	-0.346875
O51	O	-0.668022	0.142748	-0.013542
C52	C	-1.143384	-0.464703	-0.464603
C53	C	-0.810051	-0.131369	-0.131269
C54	C	-0.476718	0.201964	0.202064
C55	C	-1.036171	-0.464716	-0.464620
C56	C	-0.702837	-0.131383	-0.131287
C57	C	-0.369504	0.201951	0.202046
C58	C	-1.393928	-0.464697	-0.715230
C59	C	-1.060595	-0.131363	-0.381897
C60	C	-0.727262	0.201970	-0.048563
C61	C	-1.393987	-0.464717	-0.822444
C62	C	-1.060653	-0.131384	-0.489111
C63	C	-0.727320	0.201950	-0.155777
C64	C	-1.394058	-0.716318	-0.464535
C65	C	-1.060724	-0.382984	-0.131201
C66	C	-0.727391	-0.049651	0.202132
C67	C	-1.394083	-0.823532	-0.464500
C68	C	-1.060750	-0.490198	-0.131167
C69	C	-0.727416	-0.156865	0.202167
C70	C	-1.645592	-0.464747	-0.464629
C71	C	-1.312258	-0.131414	-0.131296
C72	C	-0.978925	0.201919	0.202037
C73	C	-1.752806	-0.464757	-0.464635
C74	C	-1.419472	-0.131424	-0.131302
C75	C	-1.086139	0.201910	0.202032
C76	C	-0.839875	-0.464741	-0.464624
C77	C	-0.506542	-0.131408	-0.131290
C78	C	-0.173209	0.201925	0.202043
C79	C	-0.949108	-0.464725	-0.464619
C80	C	-0.615775	-0.131391	-0.131286
C81	C	-0.282441	0.201942	0.202048
C82	C	-1.394103	-0.910602	-0.464473
C83	C	-1.060769	-0.577268	-0.131139
C84	C	-0.727436	-0.243935	0.202194
C85	C	-1.394130	-1.019834	-0.464429
C86	C	-1.060797	-0.686501	-0.131096
C87	C	-0.727464	-0.353167	0.202237
C88	C	-1.393995	-0.214110	-0.464627
C89	C	-1.060662	0.119223	-0.131293
C90	C	-0.727329	0.452556	0.202040
C91	C	-1.394157	-0.106897	-0.464389
C92	C	-1.060824	0.226436	-0.131056
C93	C	-0.727491	0.559770	0.202277
C94	C	-1.394088	-0.464778	-1.018739
C95	C	-1.060754	-0.131444	-0.685406
C96	C	-0.727421	0.201889	-0.352072
C97	C	-1.394029	-0.464747	-0.909506
C98	C	-1.060695	-0.131413	-0.576173
C99	C	-0.727362	0.201920	-0.242840
C100	C	-1.394096	-0.464774	-0.213023
C101	C	-1.060762	-0.131440	0.120311
C102	C	-0.727429	0.201893	0.453644
C103	C	-1.394137	-0.464795	-0.105809
C104	C	-1.060804	-0.131461	0.227525
C105	C	-0.727470	0.201872	0.560858
