data_functionalizedCrystal
_audit_creation_method	'MofGen! by Chris Wilmer'
_symmetry_space_group_name_H-M	'P1'
_symmetry_Int_Tables_number	1
_symmetry_cell_setting	triclinic
loop_
_symmetry_equiv_pos_as_xyz
  x,y,z
_cell_length_a	12.759401
_cell_length_b	21.295417
_cell_length_c	21.295420
_cell_angle_alpha	90.018953
_cell_angle_beta	90.003195
_cell_angle_gamma	90.030668
loop_
_atom_site_label
_atom_site_type_symbol
_atom_site_fract_x
_atom_site_fract_y
_atom_site_fract_z
Zn1	Zn	1.605981	-0.250695	0.355857
Zn2	Zn	2.105981	0.249305	0.855857
Zn3	Zn	1.605874	-0.355942	0.250583
Zn4	Zn	2.105874	0.144058	0.750583
Zn5	Zn	1.430330	-0.250691	0.250608
Zn6	Zn	1.930330	0.249309	0.750608
Zn7	Zn	1.430223	-0.355931	0.355820
Zn8	Zn	1.930223	0.144069	0.855820
O9	O	1.518102	-0.303315	0.303217
O10	O	2.018102	0.196685	0.803217
O11	O	1.752988	-0.264663	0.341897
O12	O	2.252988	0.235337	0.841897
O13	O	1.582588	-0.341983	0.162497
O14	O	2.082588	0.158017	0.662497
O15	O	1.453720	-0.162602	0.264596
O16	O	1.953720	0.337398	0.764596
O17	O	1.752909	-0.341987	0.264552
O18	O	2.252909	0.158013	0.764552
O19	O	1.582770	-0.162605	0.341922
O20	O	2.082770	0.337395	0.841922
O21	O	1.453616	-0.264656	0.162516
O22	O	1.953616	0.235344	0.662516
O23	O	1.283295	-0.264645	0.264560
O24	O	1.783295	0.235355	0.764560
O25	O	1.453538	-0.341968	0.443915
O26	O	1.953538	0.158032	0.943915
O27	O	1.283217	-0.341964	0.341859
O28	O	1.783217	0.158036	0.841859
O29	O	1.582667	-0.264652	0.443942
O30	O	2.082667	0.235348	0.943942
O31	O	1.582484	-0.444030	0.264517
O32	O	2.082484	0.055970	0.764517
O33	O	1.453434	-0.444021	0.341834
O34	O	1.953434	0.055979	0.841834
C35	C	1.245135	-0.303303	0.303209
C36	C	1.745135	0.196697	0.803209
C37	C	1.128358	-0.303313	0.303220
C38	C	1.628358	0.196687	0.803220
C39	C	1.517965	-0.466866	0.303182
C40	C	2.017965	0.033134	0.803182
C41	C	1.518002	-0.536834	0.303188
C42	C	2.018002	-0.036834	0.803188
C43	C	1.073483	-0.343638	0.343403
C44	C	1.573483	0.156362	0.843403
C45	C	0.963759	-0.343646	0.343410
C46	C	1.463759	0.156354	0.843410
C47	C	0.963795	-0.263003	0.263045
C48	C	1.463795	0.236997	0.763045
C49	C	1.073517	-0.262992	0.263042
C50	C	1.573517	0.237008	0.763042
C51	C	1.128324	-0.383959	0.383581
C52	C	1.628324	0.116041	0.883581
C53	C	1.073448	-0.424287	0.423766
C54	C	1.573448	0.075713	0.923766
C55	C	0.963724	-0.424295	0.423773
C56	C	1.463724	0.075705	0.923773
C57	C	0.908876	-0.383975	0.383594
C58	C	1.408876	0.116025	0.883594
C59	C	1.585258	-0.569684	0.262970
C60	C	2.085258	-0.069684	0.762970
C61	C	1.585307	-0.635427	0.262985
C62	C	2.085307	-0.135427	0.762985
C63	C	1.518081	-0.668317	0.303210
C64	C	2.018081	-0.168317	0.803210
C65	C	1.450821	-0.635459	0.343436
C66	C	1.950821	-0.135459	0.843436
C67	C	1.450781	-0.569718	0.343425
C68	C	1.950781	-0.069718	0.843425
N69	N	1.426172	-0.771584	0.308006
N70	N	1.926172	-0.271584	0.808006
N71	N	1.426213	-0.834035	0.308013
N72	N	1.926213	-0.334035	0.808013
C73	C	1.518199	-0.866391	0.303246
C74	C	2.018199	-0.366391	0.803246
N75	N	1.610145	-0.833937	0.298460
N76	N	2.110145	-0.333937	0.798460
N77	N	1.610103	-0.771480	0.298451
N78	N	2.110103	-0.271480	0.798451
C79	C	1.518118	-0.739602	0.303227
C80	C	2.018118	-0.239602	0.803227
C81	C	1.585514	-0.970527	0.263041
C82	C	2.085514	-0.470527	0.763041
C83	C	1.585565	-1.036271	0.263060
C84	C	2.085565	-0.536271	0.763060
C85	C	1.451070	-1.036301	0.343508
C86	C	1.951070	-0.536301	0.843508
C87	C	1.451028	-0.970559	0.343493
C88	C	1.951028	-0.470559	0.843493
C89	C	1.518249	-0.937676	0.303256
C90	C	2.018249	-0.437676	0.803256
C91	C	1.792135	-0.303327	0.303226
C92	C	2.292135	0.196673	0.803226
C93	C	1.908912	-0.303332	0.303230
C94	C	2.408912	0.196668	0.803230
C95	C	1.518103	-0.303309	0.467407
C96	C	2.018103	0.196691	0.967407
C97	C	1.518103	-0.303307	0.537376
C98	C	2.018103	0.196693	1.037376
C99	C	1.518269	-0.139124	0.303266
C100	C	2.018269	0.360876	0.803266
C101	C	1.518340	-0.069156	0.303287
C102	C	2.018340	0.430844	0.803287
C103	C	1.585293	-0.263055	1.036849
C104	C	2.085293	0.236945	1.536849
C105	C	1.585305	-0.263056	0.971106
C106	C	2.085305	0.236944	1.471106
C107	C	1.518077	-0.303309	0.938215
C108	C	2.018077	0.196691	1.438215
C109	C	1.450852	-0.343575	0.971072
C110	C	1.950852	0.156425	1.471072
C111	C	1.450850	-0.343577	1.036813
C112	C	1.950850	0.156423	1.536813
N113	N	1.426109	-0.308131	0.834989
N114	N	1.926109	0.191869	1.334989
N115	N	1.426114	-0.308125	0.772538
N116	N	1.926114	0.191875	1.272538
C117	C	1.518079	-0.303306	0.740140
C118	C	2.018079	0.196694	1.240140
N119	N	1.610042	-0.298481	0.772553
N120	N	2.110042	0.201519	1.272553
N121	N	1.610036	-0.298483	0.835010
N122	N	2.110036	0.201517	1.335010
C123	C	1.518071	-0.303312	0.866930
C124	C	2.018071	0.196688	1.366930
C125	C	1.585317	-0.263047	0.636006
C126	C	2.085317	0.236953	1.136006
C127	C	1.585330	-0.263053	0.570262
C128	C	2.085330	0.236947	1.070262
C129	C	1.450868	-0.343568	0.570229
C130	C	1.950868	0.156432	1.070229
C131	C	1.450864	-0.343566	0.635971
C132	C	1.950864	0.156434	1.135971
C133	C	1.518088	-0.303302	0.668856
C134	C	2.018088	0.196698	1.168856
C135	C	1.518089	-0.303328	1.139666
C136	C	2.018089	0.196672	1.639666
C137	C	1.518073	-0.303313	1.069697
C138	C	2.018073	0.196687	1.569697
H139	H	1.118113	-0.457110	0.456482
H140	H	1.618113	0.042890	0.956482
H141	H	1.217667	-0.383958	0.383578
H142	H	1.717667	0.116042	0.883578
C143	C	1.644978	-0.227292	1.137637
C144	C	2.144978	0.272708	1.637637
C145	C	1.659178	-0.218795	1.072995
C146	C	2.159178	0.281205	1.572995
H147	H	1.690586	-0.199962	1.159952
H148	H	2.190586	0.300038	1.659952
H149	H	1.660331	-0.269580	1.148396
H150	H	2.160331	0.230420	1.648396
H151	H	1.574389	-0.218085	1.148402
H152	H	2.074389	0.281915	1.648402
H153	H	1.729766	-0.228006	1.062229
H154	H	2.229766	0.271994	1.562229
H155	H	1.643833	-0.176497	1.062232
H156	H	2.143833	0.323503	1.562232
H157	H	0.919048	-0.457128	0.456499
H158	H	1.419048	0.042872	0.956499
H159	H	1.640253	-0.943752	0.230280
H160	H	2.140253	-0.443752	0.730280
H161	H	1.640339	-1.063016	0.230311
H162	H	2.140339	-0.563016	0.730311
H163	H	1.396087	-0.662242	0.376189
H164	H	1.896087	-0.162242	0.876189
H165	H	1.640076	-0.230271	0.543518
H166	H	2.140076	0.269729	1.043518
C167	C	1.718191	-0.183456	0.977736
C168	C	2.218191	0.316544	1.477736
C169	C	1.659190	-0.218797	0.934988
C170	C	2.159190	0.281203	1.434988
H171	H	1.763798	-0.156130	0.955438
H172	H	2.263798	0.343870	1.455438
H173	H	1.758362	-0.210880	1.003365
H174	H	2.258362	0.289120	1.503365
H175	H	1.672424	-0.159383	1.003388
H176	H	2.172424	0.340617	1.503388
H177	H	1.704957	-0.242873	0.909339
H178	H	2.204957	0.257127	1.409339
H179	H	1.619016	-0.191369	0.909348
H180	H	2.119016	0.308631	1.409348
H181	H	1.396012	-0.542970	0.376176
H182	H	1.896012	-0.042970	0.876176
C183	C	1.391140	-0.379314	0.870279
C184	C	1.891140	0.120686	1.370279
C185	C	1.376949	-0.387820	0.934920
C186	C	1.876949	0.112180	1.434920
H187	H	1.345511	-0.406629	0.847963
H188	H	1.845511	0.093371	1.347963
H189	H	1.461713	-0.388528	0.859507
H190	H	1.961713	0.111472	1.359507
H191	H	1.375802	-0.337016	0.859529
H192	H	1.875802	0.162984	1.359529
H193	H	1.392295	-0.430117	0.945672
H194	H	1.892295	0.069883	1.445672
H195	H	1.306360	-0.378610	0.945697
H196	H	1.806360	0.121390	1.445697
H197	H	1.396257	-0.943811	0.376240
H198	H	1.896257	-0.443811	0.876240
C199	C	1.273136	-1.056619	0.374086
C200	C	1.773136	-0.556619	0.874086
C201	C	1.377175	-1.072446	0.387727
C202	C	1.877175	-0.572446	0.887727
H203	H	1.227520	-1.078933	0.401390
H204	H	1.727520	-0.578933	0.901390
H205	H	1.257831	-1.067427	0.331790
H206	H	1.757831	-0.567427	0.831790
H207	H	1.263498	-1.012763	0.379835
H208	H	1.763498	-0.512763	0.879835
H209	H	1.386815	-1.116301	0.381973
H210	H	1.886815	-0.616301	0.881973
H211	H	1.392485	-1.061642	0.430033
H212	H	1.892485	-0.561642	0.930033
H213	H	1.640078	-0.662179	0.230234
H214	H	2.140078	-0.162179	0.730234
C215	C	1.391164	-0.379314	0.469441
C216	C	1.891164	0.120686	0.969441
C217	C	1.376968	-0.387816	0.534083
C218	C	1.876968	0.112184	1.034083
H219	H	1.345537	-0.406631	0.447126
H220	H	1.845537	0.093369	0.947126
H221	H	1.461738	-0.388529	0.458672
H222	H	1.961738	0.111471	0.958672
H223	H	1.375827	-0.337016	0.458688
H224	H	1.875827	0.162984	0.958688
H225	H	1.392313	-0.430112	0.544837
H226	H	1.892313	0.069888	1.044837
H227	H	1.306378	-0.378605	0.544856
H228	H	1.806378	0.121395	1.044856
C229	C	1.436195	-0.428248	0.709861
C230	C	1.936195	0.071752	1.209861
C231	C	1.376969	-0.387822	0.672079
C232	C	1.876969	0.112178	1.172079
H233	H	1.390575	-0.455576	0.732147
H234	H	1.890575	0.044424	1.232147
H235	H	1.476216	-0.404274	0.738857
H236	H	1.976216	0.095726	1.238857
H237	H	1.481950	-0.452319	0.684199
H238	H	1.981950	0.047681	1.184199
H239	H	1.331220	-0.363747	0.697742
H240	H	1.831220	0.136253	1.197742
H241	H	1.336931	-0.411798	0.643079
H242	H	1.836931	0.088202	1.143079
C243	C	0.751677	-0.427859	0.427390
C244	C	1.251677	0.072141	0.927390
C245	C	0.788264	-0.383961	0.383624
C246	C	1.288264	0.116039	0.883624
H247	H	0.677218	-0.427848	0.427409
H248	H	1.177218	0.072152	0.927409
H249	H	0.776549	-0.417037	0.468018
H250	H	1.276549	0.082963	0.968018
H251	H	0.776438	-0.468467	0.416416
H252	H	1.276438	0.031533	0.916416
H253	H	0.763510	-0.343352	0.394600
H254	H	1.263510	0.156648	0.894600
H255	H	0.763381	-0.394780	0.342986
H256	H	1.263381	0.105220	0.842986
C257	C	1.317940	-0.423162	1.030175
C258	C	1.817940	0.076838	1.530175
C259	C	1.376948	-0.387828	1.072924
C260	C	1.876948	0.112172	1.572924
H261	H	1.272311	-0.450476	1.052471
H262	H	1.772311	0.049524	1.552471
H263	H	1.363694	-0.447242	1.004532
H264	H	1.863694	0.052758	1.504532
H265	H	1.277783	-0.395728	1.004538
H266	H	1.777783	0.104272	1.504538
H267	H	1.417111	-0.415261	1.098559
H268	H	1.917111	0.084739	1.598559
H269	H	1.331189	-0.363746	1.098579
H270	H	1.831189	0.136254	1.598579
H271	H	1.640054	-0.230261	0.662782
H272	H	2.140054	0.269739	1.162782
H273	H	0.919129	-0.230177	0.230333
H274	H	1.419129	0.269823	0.730333
H275	H	1.118198	-0.230152	0.230326
H276	H	1.618198	0.269848	0.730326
H277	H	1.639995	-0.542913	0.230209
H278	H	2.139995	-0.042913	0.730209
