data_functionalizedCrystal
_audit_creation_method	'MofGen! by Chris Wilmer'
_symmetry_space_group_name_H-M	'P1'
_symmetry_Int_Tables_number	1
_symmetry_cell_setting	triclinic
loop_
_symmetry_equiv_pos_as_xyz
  x,y,z
_cell_length_a	11.026660
_cell_length_b	17.699083
_cell_length_c	16.776229
_cell_angle_alpha	89.994959
_cell_angle_beta	89.999849
_cell_angle_gamma	84.066242
loop_
_atom_site_label
_atom_site_type_symbol
_atom_site_fract_x
_atom_site_fract_y
_atom_site_fract_z
O1	O	0.153388	-1.025151	0.066270
O2	O	0.173346	-0.807515	0.066274
O3	O	-0.013232	-0.898297	0.066272
O4	O	0.339966	-0.934370	0.066273
O5	O	-0.013232	-0.898284	-0.066304
O6	O	0.173346	-0.807502	-0.066302
O7	O	0.153387	-1.025138	-0.066306
Zn8	Zn	0.163366	-0.916318	-0.087354
Zn9	Zn	0.163367	-0.916335	0.087322
O10	O	0.339965	-0.934356	-0.066304
C11	C	0.172631	-0.779213	-0.000013
C12	C	0.170486	-0.694900	-0.000012
C13	C	-0.058423	-0.891635	-0.000015
C14	C	-0.193078	-0.871797	-0.000010
C15	C	0.169475	-0.655287	-0.072280
C16	C	0.167440	-0.576065	-0.072280
C17	C	0.166425	-0.536458	-0.000012
C18	C	0.167433	-0.576077	0.072262
C19	C	0.169459	-0.655297	0.072262
C20	C	0.159260	-0.256592	0.072264
C21	C	0.157237	-0.177367	0.072259
C22	C	0.157242	-0.177360	-0.072278
C23	C	0.159268	-0.256580	-0.072278
C24	C	0.160269	-0.296191	-0.000005
C25	C	0.162473	-0.382092	-0.000005
C26	C	0.164230	-0.450559	-0.000011
C27	C	-0.406219	-0.906078	-0.000013
C28	C	-0.267046	-0.926583	-0.000012
C29	C	0.385156	-0.941018	-0.000015
C30	C	0.519811	-0.960856	-0.000015
C31	C	0.154095	-0.053440	-0.000016
C32	C	0.156218	-0.137751	-0.000010
N33	N	0.163365	-0.916311	-0.206565
C34	C	0.236846	-0.972222	-0.248279
C35	C	0.236841	-0.972230	-0.331731
C36	C	0.163362	-0.916323	-0.373468
C37	C	0.089872	-0.860410	-0.331747
C38	C	0.089871	-0.860406	-0.248297
C39	C	0.089874	-0.860425	-0.668295
C40	C	0.089883	-0.860432	-0.751751
C41	C	0.236844	-0.972249	-0.751729
C42	C	0.236843	-0.972245	-0.668278
C43	C	0.163349	-0.916334	-0.626566
C44	C	0.163354	-0.916327	-0.536077
C45	C	0.163363	-0.916326	-0.463954
N46	N	0.163359	-0.916346	0.206533
H47	H	0.170312	-0.687530	-0.131129
H48	H	-0.445923	-0.843999	-0.000008
N49	N	-0.245635	-0.789557	-0.000020
H50	H	-0.217262	-0.763507	0.049125
H51	H	-0.337595	-0.786622	-0.000053
N52	N	-0.427613	-1.043090	-0.000016
H53	H	-0.335645	-1.046082	-0.000016
H54	H	-0.456074	-1.069085	-0.049167
N55	N	0.316113	-1.032557	-0.796719
H56	H	0.304965	-1.024081	-0.855918
H57	H	0.292041	-1.084320	-0.782122
H58	H	0.030043	-0.814904	-0.785731
H59	H	0.296689	-1.017744	-0.214303
N60	N	0.010610	-0.800125	-0.623310
H61	H	-0.035933	-0.764709	-0.662415
H62	H	0.063567	-0.770338	-0.588688
H63	H	0.170284	-0.687549	0.131110
H64	H	-0.227348	-0.988666	0.000017
N65	N	0.010612	-0.800106	-0.203301
H66	H	-0.035937	-0.764689	-0.242402
H67	H	0.063570	-0.770319	-0.168678
H68	H	0.296675	-1.017759	-0.365691
H69	H	0.156421	-0.145098	-0.131126
N70	N	0.166345	-0.533336	-0.150225
H71	H	0.166442	-0.570396	-0.196007
H72	H	0.241108	-0.504991	-0.153614
N73	N	0.160375	-0.299299	-0.150224
H74	H	0.159425	-0.262182	-0.196007
H75	H	0.086049	-0.328067	-0.153373
N76	N	0.156139	-0.134645	0.150209
H77	H	0.157076	-0.171758	0.195994
H78	H	0.080131	-0.097673	0.153347
N79	N	0.160330	-0.299309	0.150212
H80	H	0.159381	-0.262196	0.195991
H81	H	0.236333	-0.336285	0.153368
H82	H	0.166597	-0.543823	0.131104
N83	N	0.010608	-0.800114	-0.376758
H84	H	0.021760	-0.808598	-0.435954
H85	H	0.034682	-0.748349	-0.362178
N86	N	0.316095	-1.032544	-0.623263
H87	H	0.362642	-1.067967	-0.662352
H88	H	0.263122	-1.062322	-0.588636
