data_functionalizedCrystal
_audit_creation_method	'MofGen! by Chris Wilmer'
_symmetry_space_group_name_H-M	'P1'
_symmetry_Int_Tables_number	1
_symmetry_cell_setting	triclinic
loop_
_symmetry_equiv_pos_as_xyz
  x,y,z
_cell_length_a	17.019311
_cell_length_b	16.098538
_cell_length_c	16.992695
_cell_angle_alpha	87.084303
_cell_angle_beta	87.024688
_cell_angle_gamma	96.609511
loop_
_atom_site_label
_atom_site_type_symbol
_atom_site_fract_x
_atom_site_fract_y
_atom_site_fract_z
O1	O	1.059922	0.145259	0.092561
O2	O	0.830272	0.128790	0.106126
O3	O	0.944177	0.136966	-0.014795
O4	O	0.946017	0.137083	0.213482
O5	O	0.937521	-0.002025	-0.007759
O6	O	0.823617	-0.010201	0.113162
O7	O	1.053266	0.006268	0.099597
Zn8	Zn	0.937385	-0.024034	0.107496
Zn9	Zn	0.946154	0.159092	0.098226
O10	O	0.939362	-0.001908	0.220518
C11	C	0.797424	0.057177	0.109267
C12	C	0.709460	0.050870	0.108136
C13	C	0.211774	0.011395	0.101954
C14	C	0.294425	0.017324	0.103017
C15	C	0.339379	0.096053	0.099707
C16	C	0.301678	0.168859	0.095342
C17	C	0.219028	0.162930	0.094285
C18	C	0.589109	0.117746	0.102713
C19	C	0.671765	0.123670	0.103768
C20	C	0.664506	-0.027866	0.111445
C21	C	0.581856	-0.033788	0.110382
C22	C	0.544161	0.039017	0.106021
C23	C	0.423862	0.102115	0.100791
C24	C	0.459679	0.032955	0.104943
N25	N	0.931406	-0.149012	0.113823
C26	C	0.979772	-0.189126	0.062517
C27	C	0.975597	-0.276614	0.066950
C28	C	0.923060	-0.323988	0.122693
C29	C	0.874689	-0.283869	0.174001
C30	C	0.878860	-0.196382	0.169564
C31	C	0.907939	-0.588323	0.138765
C32	C	0.903773	-0.675816	0.143199
C33	C	1.004680	-0.668556	0.036147
C34	C	1.008850	-0.581067	0.031718
C35	C	0.960476	-0.540956	0.083023
C36	C	0.918794	-0.413415	0.127227
C37	C	0.964739	-0.451530	0.078485
C38	C	1.086115	0.077882	0.096455
C39	C	1.174078	0.084196	0.097587
C40	C	0.938481	0.067304	-0.040479
C41	C	0.931414	0.066808	-0.127490
N42	N	0.952138	0.284071	0.091894
C43	C	0.945058	0.067756	0.246201
C44	C	0.952125	0.068257	0.333213
C45	C	0.883936	0.063367	0.383775
C46	C	0.890582	0.063854	0.465530
C47	C	0.965417	0.069225	0.496721
C48	C	1.033611	0.074118	0.446152
C49	C	1.026965	0.073637	0.364398
C50	C	0.992962	0.071220	0.740187
C51	C	0.999603	0.071698	0.821947
C52	C	0.856573	0.061436	0.841320
C53	C	0.849933	0.060950	0.759564
C54	C	0.918128	0.065847	0.709002
N55	N	0.972211	0.069721	0.580287
N56	N	0.911333	0.065358	0.625437
H57	H	0.338285	0.232962	0.092652
Cl58	Cl	0.837721	-0.735365	0.213285
H59	H	1.048491	0.075202	0.699029
Cl60	Cl	1.127690	0.080877	0.485363
Cl61	Cl	0.808638	-0.343422	0.244075
H62	H	0.708364	0.187784	0.101079
Cl63	Cl	0.525347	-0.132766	0.114561
Cl64	Cl	0.711898	-0.119387	0.116933
Cl65	Cl	0.804854	0.057715	0.529091
Cl66	Cl	1.036400	-0.327044	0.002449
H67	H	0.423074	-0.031146	0.107642
Cl68	Cl	0.541733	0.209274	0.097226
Cl69	Cl	1.030780	-0.391975	0.008408
Cl70	Cl	0.755851	0.054201	0.720359
Cl71	Cl	0.171638	0.254454	0.088798
H72	H	1.060545	0.076071	0.847339
H73	H	0.801053	0.057450	0.882495
Cl74	Cl	0.789852	0.056609	0.344572
H75	H	1.051629	-0.542497	-0.013672
Cl76	Cl	0.480383	0.201086	0.096620
Cl77	Cl	0.818052	-0.145955	0.234063
Cl78	Cl	1.045826	-0.129579	-0.007560
Cl79	Cl	1.065486	-0.718985	-0.028350
H80	H	0.325113	-0.041958	0.106571
H81	H	0.868552	-0.555671	0.180541
H82	H	0.876019	-0.451994	0.172615
H83	H	0.175178	-0.052715	0.104653
Cl84	Cl	1.112692	0.079790	0.300833
