data_functionalizedCrystal
_audit_creation_method	'MofGen! by Chris Wilmer'
_symmetry_space_group_name_H-M	'P1'
_symmetry_Int_Tables_number	1
_symmetry_cell_setting	triclinic
loop_
_symmetry_equiv_pos_as_xyz
  x,y,z
_cell_length_a	19.805407
_cell_length_b	19.805404
_cell_length_c	19.805399
_cell_angle_alpha	89.970203
_cell_angle_beta	89.973922
_cell_angle_gamma	90.027967
loop_
_atom_site_label
_atom_site_type_symbol
_atom_site_fract_x
_atom_site_fract_y
_atom_site_fract_z
Zn1	Zn	-1.034722	0.269504	0.382827
Zn2	Zn	-1.034631	0.382692	0.269634
Zn3	Zn	-0.921537	0.269520	0.269638
Zn4	Zn	-0.921494	0.382653	0.382768
O5	O	-0.978096	0.326092	0.326217
O6	O	-1.129426	0.284528	0.367834
O7	O	-1.019608	0.367703	0.174918
O8	O	-0.936607	0.174801	0.284679
O9	O	-1.129360	0.367687	0.284672
O10	O	-1.019763	0.174789	0.367838
O11	O	-0.936518	0.284555	0.174921
O12	O	-0.826814	0.284518	0.284623
O13	O	-0.936534	0.367621	0.477492
O14	O	-0.826783	0.367637	0.367738
O15	O	-1.019722	0.284490	0.477535
O16	O	-1.019567	0.477404	0.284615
O17	O	-0.936446	0.477375	0.367734
C18	C	-0.802240	0.326075	0.326175
C19	C	-0.727008	0.326084	0.326173
C20	C	-0.978011	0.501948	0.326182
C21	C	-0.978036	0.577180	0.326190
C22	C	-0.978134	0.326050	0.502760
C23	C	-0.978150	0.326032	0.577992
C24	C	-0.265218	0.369446	0.369447
C25	C	-0.335907	0.369445	0.369435
C26	C	-0.371246	0.326102	0.326223
C27	C	-0.335893	0.282761	0.283016
C28	C	-0.265206	0.282765	0.283025
C29	C	-0.620967	0.282743	0.282978
C30	C	-0.691659	0.282741	0.282973
C31	C	-0.691667	0.369424	0.369388
C32	C	-0.620980	0.369428	0.369397
C33	C	-0.585634	0.326090	0.326187
C34	C	-0.508985	0.326091	0.326200
C35	C	-0.447893	0.326096	0.326214
C36	C	-0.154639	0.326107	0.326251
C37	C	-0.229871	0.326107	0.326244
C38	C	-0.978200	0.149550	0.326266
C39	C	-0.978244	0.074318	0.326287
C40	C	-1.021488	1.038906	0.369613
C41	C	-1.021461	0.968218	0.369597
C42	C	-0.978187	0.932942	0.326259
C43	C	-0.934941	0.968358	0.282928
C44	C	-0.934972	1.039045	0.282941
C45	C	-0.934818	0.683285	0.282875
C46	C	-0.934789	0.612593	0.282868
C47	C	-1.021306	0.612457	0.369532
C48	C	-1.021337	0.683145	0.369545
C49	C	-0.978094	0.718555	0.326212
C50	C	-0.978125	0.795203	0.326228
C51	C	-0.978152	0.856295	0.326245
C52	C	-0.978097	0.326086	0.150361
C53	C	-0.978212	0.325913	0.075129
C54	C	-1.021467	0.282743	0.613359
C55	C	-1.021474	0.282724	0.684048
C56	C	-0.978167	0.325996	0.719367
C57	C	-0.934845	0.369286	0.683995
C58	C	-0.934835	0.369302	0.613307
C59	C	-0.934883	0.369223	0.969068
C60	C	-0.934898	0.369206	1.039760
C61	C	-1.021522	0.282645	1.039808
C62	C	-1.021512	0.282661	0.969121
C63	C	-0.978188	0.325948	0.933755
C64	C	-0.978180	0.325968	0.857106
C65	C	-0.978178	0.325980	0.796014
H66	H	-0.364684	0.404738	0.404614
O67	O	-0.892857	0.411335	1.073995
C68	C	-0.907610	0.478802	1.056718
H69	H	-0.933618	0.480222	1.005401
H70	H	-0.942401	0.501597	1.096504
C71	C	-0.809654	0.518045	1.116453
C72	C	-0.841592	0.519789	1.053421
H73	H	-0.768931	0.543330	1.114422
H74	H	-0.799715	0.472592	1.128095
H75	H	-0.838653	0.537040	1.149601
H76	H	-0.812596	0.500787	1.020276
H77	H	-0.851524	0.565241	1.041773
H78	H	-0.236427	0.247472	0.247847
O79	O	-1.063579	0.240765	0.718483
C80	C	-1.107287	0.279291	0.759369
H81	H	-1.083389	0.330583	0.769934
H82	H	-1.157443	0.286735	0.732149
C83	C	-1.148909	0.179037	0.813556
C84	C	-1.119555	0.242032	0.826536
H85	H	-1.156480	0.156053	0.854986
H86	H	-1.119465	0.153081	0.786009
H87	H	-1.190703	0.185249	0.790871
H88	H	-1.077759	0.235819	0.849213
H89	H	-1.148993	0.267987	0.854089
H90	H	-1.056673	0.939386	0.404876
O91	O	-0.726063	0.240733	0.240957
C92	C	-0.766899	0.279217	0.197163
H93	H	-0.777476	0.330539	0.220947
H94	H	-0.739628	0.286595	0.146992
C95	C	-0.821066	0.178927	0.155756
C96	C	-0.834061	0.241959	0.184971
H97	H	-0.862494	0.155944	0.148233
H98	H	-0.793553	0.152999	0.185259
H99	H	-0.798339	0.185084	0.113950
H100	H	-0.856780	0.235801	0.226780
H101	H	-0.861580	0.267886	0.155474
H102	H	-0.899581	0.404517	0.712757
O103	O	-0.892893	0.411309	0.934652
C104	C	-0.931387	0.455057	0.893772
H105	H	-0.982692	0.431196	0.883190
H106	H	-0.938801	0.505207	0.921007
C107	C	-0.831099	0.496637	0.839618
C108	C	-0.894111	0.467328	0.826617
H109	H	-0.808105	0.504210	0.798195
H110	H	-0.805165	0.467165	0.867161
H111	H	-0.837287	0.538426	0.862316
H112	H	-0.887922	0.425537	0.803927
H113	H	-0.920043	0.496794	0.799069
O114	O	-0.725929	0.411623	0.411325
C115	C	-0.708628	0.479065	0.396405
H116	H	-0.657289	0.480436	0.370389
H117	H	-0.748381	0.501819	0.361563
C118	C	-0.768434	0.518462	0.494272
C119	C	-0.705376	0.520146	0.462323
H120	H	-0.766431	0.543804	0.534932
H121	H	-0.780093	0.473025	0.504323
H122	H	-0.801555	0.537423	0.465229
H123	H	-0.672258	0.501178	0.491362
H124	H	-0.693712	0.565581	0.452279
H125	H	-0.236450	0.404738	0.404639
O126	O	-1.063583	1.073066	0.411740
C127	C	-1.101731	1.026649	0.449990
H128	H	-1.104075	0.976280	0.422257
H129	H	-1.076904	1.019113	0.501364
C130	C	-1.170892	1.116029	0.493901
C131	C	-1.173776	1.054167	0.459835
H132	H	-1.215333	1.133004	0.499978
H133	H	-1.145190	1.147302	0.468133
H134	H	-1.150200	1.109741	0.536710
H135	H	-1.194460	1.060458	0.417025
H136	H	-1.199484	1.022896	0.485596
H137	H	-0.592196	0.247457	0.247791
H138	H	-0.899759	1.067876	0.247660
H139	H	-0.899549	0.583873	0.247574
H140	H	-0.592210	0.404720	0.404587
H141	H	-0.364672	0.247473	0.247829
O142	O	-1.063438	0.717306	0.411665
C143	C	-1.101590	0.670892	0.449914
H144	H	-1.103928	0.620520	0.422186
H145	H	-1.076771	0.663363	0.501293
C146	C	-1.170762	0.760275	0.493804
C147	C	-1.173638	0.698409	0.459744
H148	H	-1.215204	0.777250	0.499871
H149	H	-1.145057	0.791546	0.468036
H150	H	-1.150077	0.753993	0.536616
H151	H	-1.194315	0.704694	0.416930
H152	H	-1.199348	0.667140	0.485505
O153	O	-1.063297	0.577954	0.411558
C154	C	-1.053984	0.508000	0.402268
H155	H	-1.031848	0.498400	0.350007
H156	H	-1.017906	0.487944	0.442372
C157	C	-1.149639	0.483436	0.472729
C158	C	-1.122456	0.471644	0.408538
H159	H	-1.191875	0.461009	0.476599
H160	H	-1.155912	0.530565	0.478990
H161	H	-1.119568	0.466722	0.506142
H162	H	-1.152523	0.488365	0.375127
H163	H	-1.116189	0.424516	0.402271
H164	H	-1.056735	0.247508	0.584607
O165	O	-1.063539	0.240609	1.074269
C166	C	-1.054274	0.249880	1.144233
H167	H	-1.002027	0.272038	1.153867
H168	H	-1.094402	0.285923	1.164297
C169	C	-1.124694	0.154171	1.168710
C170	C	-1.060521	0.181381	1.180543
H171	H	-1.128551	0.111919	1.191109
H172	H	-1.130938	0.147927	1.121574
H173	H	-1.158128	0.184214	1.185431
H174	H	-1.027090	0.151343	1.163815
H175	H	-1.054272	0.187619	1.227677
H176	H	-1.056779	0.247426	0.940368
H177	H	-0.899607	0.712107	0.247591
O178	O	-0.892927	0.933989	0.240892
C179	C	-0.902182	0.864005	0.250159
H180	H	-0.924313	0.854294	0.302416
H181	H	-0.938241	0.843938	0.210047
C182	C	-0.806503	0.839709	0.179695
C183	C	-0.833680	0.827782	0.243880
H184	H	-0.764249	0.817364	0.175819
H185	H	-0.800269	0.886859	0.173449
H186	H	-0.836559	0.822987	0.146275
H187	H	-0.803628	0.844511	0.277298
H188	H	-0.839907	0.780634	0.250132
H189	H	-0.899555	0.404545	0.584512
