data_functionalizedCrystal
_audit_creation_method	'MofGen! by Chris Wilmer'
_symmetry_space_group_name_H-M	'P1'
_symmetry_Int_Tables_number	1
_symmetry_cell_setting	triclinic
loop_
_symmetry_equiv_pos_as_xyz
  x,y,z
_cell_length_a	10.540539
_cell_length_b	15.995292
_cell_length_c	9.016244
_cell_angle_alpha	89.995562
_cell_angle_beta	90.007258
_cell_angle_gamma	96.002946
loop_
_atom_site_label
_atom_site_type_symbol
_atom_site_fract_x
_atom_site_fract_y
_atom_site_fract_z
O1	O	-1.684238	0.117996	-0.123281
O2	O	-1.314668	0.129114	-0.123301
O3	O	-1.509594	0.001725	-0.123270
O4	O	-1.489312	0.245385	-0.123313
O5	O	-1.509558	0.001730	0.123411
O6	O	-1.314632	0.129119	0.123380
O7	O	-1.684202	0.118001	0.123399
Cu8	Cu	-1.499414	0.123561	0.145914
Cu9	Cu	-1.499456	0.123555	-0.145815
O10	O	-1.489276	0.245391	0.123368
C11	C	-1.267359	0.128283	0.000037
C12	C	-1.126446	0.125788	0.000031
N13	N	-1.499393	0.123565	0.351100
C14	C	-1.508751	-0.029473	0.000073
C15	C	-1.506276	-0.122441	0.000080
C16	C	-1.731511	0.118832	0.000058
C17	C	-1.872424	0.121327	0.000055
C18	C	-0.944363	0.030203	0.000624
C19	C	-1.090946	0.032731	0.000052
C20	C	-1.064165	0.170568	-0.140838
C21	C	-0.917665	0.167392	-0.140941
C22	C	-0.917109	0.169292	0.139581
C23	C	-1.064078	0.170149	0.141428
C24	C	-1.490120	0.276589	0.000022
C25	C	-1.492594	0.369556	0.000006
C26	C	-1.501692	0.707349	0.000054
C27	C	-1.361000	0.683195	0.000593
C28	C	-1.358326	0.586504	0.000022
C29	C	-1.497178	0.539766	0.000031
C30	C	-1.567538	0.569296	-0.140823
C31	C	-1.569232	0.666097	-0.140926
C32	C	-1.572063	0.665954	0.139596
C33	C	-1.566849	0.569431	0.141443
C34	C	-1.494634	0.445055	0.000013
C35	C	-1.504240	0.802060	0.000062
C36	C	-1.394800	0.191483	0.586116
C37	C	-1.395031	0.191736	0.414224
C38	C	-1.631835	0.143441	0.413441
C39	C	-1.631257	0.143924	0.585386
C40	C	-1.472850	0.035553	0.585657
C41	C	-1.469802	0.036121	0.413703
N42	N	-1.499456	0.123554	0.648999
H43	H	-1.134040	-0.002503	0.101034
Cl44	Cl	-1.487753	0.540285	0.302330
Cl45	Cl	-1.503996	0.709165	0.304439
Cl46	Cl	-1.754942	0.069138	0.350316
Cl47	Cl	-0.869043	0.122795	0.304439
Cl48	Cl	-1.590680	-0.042509	0.648440
H49	H	-1.675621	0.680569	0.140563
H50	H	-1.307088	0.711894	-0.099862
Cl51	Cl	-1.156152	-0.021819	-0.156373
Cl52	Cl	-1.272804	0.557580	-0.156164
Cl53	Cl	-1.242309	0.173293	0.649983
Cl54	Cl	-1.127850	0.119557	0.302327
H55	H	-1.520532	0.692628	-0.246226
H56	H	-1.655841	0.206918	0.370353
H57	H	-1.378377	0.016636	0.629104
Cl58	Cl	-1.243012	0.173326	0.349147
H59	H	-1.668193	0.537063	0.149961
H60	H	-1.085557	0.238907	-0.146092
Cl61	Cl	-1.420678	0.291719	0.652751
Cl62	Cl	-1.728495	0.689519	-0.150745
H63	H	-1.412014	0.257024	0.373067
H64	H	-1.669715	0.538039	-0.146054
H65	H	-1.372376	0.021055	0.372959
Cl66	Cl	-1.754988	0.070424	0.649612
H67	H	-1.541075	-0.016858	0.370739
Cl68	Cl	-0.842147	0.270716	-0.150834
Cl69	Cl	-1.273245	0.556609	0.155903
H70	H	-1.654707	0.208127	0.625465
Cl71	Cl	-1.492152	0.537887	-0.302689
H72	H	-0.916280	-0.006558	0.101650
H73	H	-0.889935	0.134291	-0.246230
Cl74	Cl	-0.898538	-0.026326	-0.154454
H75	H	-1.107206	0.139457	-0.245665
Cl76	Cl	-1.099994	0.274901	0.154539
Cl77	Cl	-0.842736	0.273065	0.141035
H78	H	-1.306754	0.710866	0.101606
