data_functionalizedCrystal
_audit_creation_method	'MofGen! by Chris Wilmer'
_symmetry_space_group_name_H-M	'P1'
_symmetry_Int_Tables_number	1
_symmetry_cell_setting	triclinic
loop_
_symmetry_equiv_pos_as_xyz
  x,y,z
_cell_length_a	12.759401
_cell_length_b	16.625546
_cell_length_c	12.759393
_cell_angle_alpha	90.035119
_cell_angle_beta	90.019802
_cell_angle_gamma	90.021554
loop_
_atom_site_label
_atom_site_type_symbol
_atom_site_fract_x
_atom_site_fract_y
_atom_site_fract_z
Zn1	Zn	1.606210	-0.320982	0.593954
Zn2	Zn	1.939543	0.012351	0.927288
Zn3	Zn	2.272876	0.345684	1.260621
Zn4	Zn	1.606077	-0.455837	0.418260
Zn5	Zn	1.939410	-0.122503	0.751594
Zn6	Zn	2.272744	0.210830	1.084927
Zn7	Zn	1.430508	-0.321019	0.418293
Zn8	Zn	1.763842	0.012314	0.751626
Zn9	Zn	2.097175	0.345647	1.084960
Zn10	Zn	1.430476	-0.455774	0.593901
Zn11	Zn	1.763810	-0.122441	0.927234
Zn12	Zn	2.097143	0.210892	1.260568
O13	O	1.518318	-0.388403	0.506102
O14	O	1.851651	-0.055070	0.839436
O15	O	2.184984	0.278263	1.172769
O16	O	1.753213	-0.338881	0.570657
O17	O	2.086546	-0.005548	0.903990
O18	O	2.419880	0.327785	1.237324
O19	O	1.582745	-0.437994	0.271244
O20	O	1.916078	-0.104661	0.604577
O21	O	2.249412	0.228672	0.937910
O22	O	1.453884	-0.208182	0.441631
O23	O	1.787218	0.125151	0.774964
O24	O	2.120551	0.458485	1.108298
O25	O	1.753116	-0.437958	0.441575
O26	O	2.086449	-0.104625	0.774909
O27	O	2.419782	0.228708	1.108242
O28	O	1.582971	-0.208155	0.570689
O29	O	1.916305	0.125179	0.904022
O30	O	2.249638	0.458512	1.237355
O31	O	1.453756	-0.338945	0.271268
O32	O	1.787089	-0.005611	0.604601
O33	O	2.120422	0.327722	0.937934
O34	O	1.283483	-0.338885	0.441579
O35	O	1.616816	-0.005551	0.774913
O36	O	1.950150	0.327782	1.108246
O37	O	1.453830	-0.437852	0.740929
O38	O	1.787163	-0.104519	1.074263
O39	O	2.120497	0.228814	1.407596
O40	O	1.283460	-0.437888	0.570598
O41	O	1.616793	-0.104555	0.903931
O42	O	1.950126	0.228778	1.237264
O43	O	1.582940	-0.338821	0.740969
O44	O	1.916274	-0.005488	1.074302
O45	O	2.249607	0.327845	1.407635
O46	O	1.582714	-0.568661	0.441524
O47	O	1.916048	-0.235327	0.774857
O48	O	2.249381	0.098006	1.108190
O49	O	1.453701	-0.568615	0.570566
O50	O	1.787035	-0.235282	0.903899
O51	O	2.120368	0.098052	1.237233
C52	C	1.245350	-0.388384	0.506087
C53	C	1.578684	-0.055051	0.839420
C54	C	1.912017	0.278282	1.172754
C55	C	1.128574	-0.388396	0.506105
C56	C	1.461907	-0.055062	0.839438
C57	C	1.795240	0.278271	1.172772
C58	C	1.518218	-0.597894	0.506058
C59	C	1.851552	-0.264561	0.839392
C60	C	2.184885	0.068773	1.172725
C61	C	1.518272	-0.687515	0.506075
C62	C	1.851605	-0.354182	0.839408
C63	C	2.184939	-0.020848	1.172741
C64	C	0.964026	-0.336918	0.573429
C65	C	1.297359	-0.003585	0.906762
C66	C	1.630693	0.329748	1.240096
C67	C	1.073750	-0.336903	0.573422
C68	C	1.407084	-0.003569	0.906755
C69	C	1.740417	0.329764	1.240089
C70	C	1.073668	-0.439914	0.438798
C71	C	1.407001	-0.106581	0.772132
C72	C	1.740334	0.226753	1.105465
C73	C	0.963946	-0.439933	0.438812
C74	C	1.297279	-0.106600	0.772145
C75	C	1.630612	0.226733	1.105478
C76	C	1.518455	-1.015691	0.506184
C77	C	1.851789	-0.682357	0.839517
C78	C	2.185122	-0.349024	1.172851
C79	C	1.518401	-0.924382	0.506156
C80	C	1.851734	-0.591049	0.839490
C81	C	2.185068	-0.257716	1.172823
C82	C	1.518363	-0.851606	0.506129
C83	C	1.851696	-0.518273	0.839462
C84	C	2.185029	-0.184939	1.172795
C85	C	1.518310	-0.760292	0.506102
C86	C	1.851643	-0.426958	0.839436
C87	C	2.184977	-0.093625	1.172769
C88	C	1.792351	-0.388423	0.506118
C89	C	2.125684	-0.055089	0.839452
C90	C	2.459018	0.278244	1.172785
C91	C	1.909128	-0.388431	0.506125
C92	C	2.242461	-0.055098	0.839459
C93	C	2.575794	0.278236	1.172792
C94	C	1.518396	-0.388326	0.780136
C95	C	1.851730	-0.054992	1.113469
C96	C	2.185063	0.278341	1.446802
C97	C	1.518430	-0.388293	0.896912
C98	C	1.851763	-0.054959	1.230246
C99	C	2.185097	0.278374	1.563579
C100	C	1.518446	-0.178094	0.506169
C101	C	1.851780	0.155239	0.839503
C102	C	2.185113	0.488572	1.172836
C103	C	1.518501	-0.088473	0.506198
C104	C	1.851834	0.244860	0.839531
C105	C	2.185168	0.578194	1.172865
C106	C	1.518300	-0.388422	0.233135
C107	C	1.851633	-0.055089	0.566468
C108	C	2.184967	0.278245	0.899802
C109	C	1.518470	-0.388228	0.116359
C110	C	1.851803	-0.054895	0.449692
C111	C	2.185137	0.278439	0.783025
C112	C	1.585663	-0.336719	0.951797
C113	C	1.918996	-0.003386	1.285130
C114	C	2.252329	0.329948	1.618463
C115	C	1.585681	-0.336684	1.061521
C116	C	1.919014	-0.003351	1.394854
C117	C	2.252347	0.329982	1.728187
C118	C	1.451230	-0.439804	1.061467
C119	C	1.784563	-0.106471	1.394800
C120	C	2.117896	0.226863	1.728134
C121	C	1.451208	-0.439834	0.951745
C122	C	1.784541	-0.106501	1.285078
C123	C	2.117874	0.226833	1.618412
H124	H	0.919397	-0.294982	0.628240
H125	H	1.252730	0.038352	0.961573
H126	H	1.586063	0.371685	1.294907
F127	F	1.379695	-0.494658	1.119833
F128	F	1.713028	-0.161324	1.453166
F129	F	2.046362	0.172009	1.786499
F130	F	1.132172	-0.282078	0.645059
F131	F	1.465506	0.051255	0.978392
F132	F	1.798839	0.384589	1.311726
F133	F	1.379640	-0.494725	0.893330
F134	F	1.712974	-0.161392	1.226663
F135	F	2.046307	0.171941	1.559996
F136	F	1.657246	-0.281798	1.119928
F137	F	1.990579	0.051536	1.453261
F138	F	2.323913	0.384869	1.786594
H139	H	0.919246	-0.481886	0.384004
H140	H	1.252579	-0.148552	0.717337
H141	H	1.585913	0.184781	1.050671
F142	F	1.132018	-0.494721	0.367159
F143	F	1.465351	-0.161388	0.700493
F144	F	1.798685	0.171946	1.033826
H145	H	1.640397	-0.294748	0.907155
H146	H	1.973730	0.038585	1.240489
H147	H	2.307063	0.371918	1.573822
