data_functionalizedCrystal
_audit_creation_method	'MofGen! by Chris Wilmer'
_symmetry_space_group_name_H-M	'P1'
_symmetry_Int_Tables_number	1
_symmetry_cell_setting	triclinic
loop_
_symmetry_equiv_pos_as_xyz
  x,y,z
_cell_length_a	17.019311
_cell_length_b	10.654550
_cell_length_c	9.130313
_cell_angle_alpha	90.004369
_cell_angle_beta	86.116755
_cell_angle_gamma	96.060231
loop_
_atom_site_label
_atom_site_type_symbol
_atom_site_fract_x
_atom_site_fract_y
_atom_site_fract_z
O1	O	1.047552	-0.160039	-0.253921
O2	O	0.817999	-0.180430	-0.224972
O3	O	0.938053	0.012587	-0.240103
O4	O	0.927497	-0.353056	-0.238790
O5	O	0.938045	0.012592	0.003497
O6	O	0.817990	-0.180425	0.018628
O7	O	1.047543	-0.160034	-0.010322
Cu8	Cu	0.932766	-0.170229	0.026396
Cu9	Cu	0.932776	-0.170235	-0.261689
O10	O	0.927489	-0.353051	0.004810
C11	C	0.788601	-0.179652	-0.099465
C12	C	0.701018	-0.177328	-0.088420
C13	C	0.205664	-0.164225	-0.019290
C14	C	0.287957	-0.166409	-0.029671
C15	C	0.329110	-0.167494	-0.167651
C16	C	0.287963	-0.166408	-0.295257
C17	C	0.205670	-0.164234	-0.284874
C18	C	0.577579	-0.174068	-0.205643
C19	C	0.659878	-0.176239	-0.216016
C20	C	0.659867	-0.176242	0.049571
C21	C	0.577573	-0.174059	0.059941
C22	C	0.536433	-0.172980	-0.067665
C23	C	0.413227	-0.169722	-0.178265
C24	C	0.452317	-0.170761	-0.057049
C25	C	0.937274	0.059376	-0.118206
C26	C	0.934955	0.198783	-0.117916
C27	C	1.076941	-0.160811	-0.135832
C28	C	1.164524	-0.163136	-0.146887
C29	C	0.928268	-0.399839	-0.117091
C30	C	0.930587	-0.539246	-0.117390
N31	N	0.932765	-0.170223	0.229019
C32	C	1.005641	0.279372	-0.126831
C33	C	1.003458	0.410359	-0.126573
C34	C	0.859896	0.380154	-0.108479
C35	C	0.862080	0.249170	-0.108747
N36	N	0.932783	-0.170231	-0.464313
C37	C	0.985943	-0.084791	0.298968
C38	C	0.985951	-0.084791	0.452304
C39	C	0.879599	-0.255667	0.465728
C40	C	0.879589	-0.255660	0.312395
H41	H	0.321451	-0.167292	0.074232
H42	H	1.064981	0.238352	-0.134300
H43	H	0.836281	-0.325230	0.255439
H44	H	1.061018	0.475971	-0.133836
C45	C	0.821744	-0.348282	0.556197
C46	C	0.744120	-0.327948	0.528753
C47	C	0.690802	-0.413231	0.612080
H48	H	0.830654	-0.432145	0.529992
H49	H	0.829315	-0.336044	0.657555
H50	H	0.736552	-0.340196	0.427418
H51	H	0.735185	-0.244101	0.554965
H52	H	0.698373	-0.400994	0.713438
H53	H	0.699719	-0.497089	0.585868
H54	H	0.638128	-0.399439	0.593481
H55	H	0.804515	0.183550	-0.101491
H56	H	1.029252	-0.015223	0.509252
H57	H	0.544094	-0.173185	-0.309549
H58	H	0.800563	0.421195	-0.101011
C59	C	1.043704	0.008116	0.208705
C60	C	1.090261	0.082956	0.302793
C61	C	1.143472	0.168572	0.219702
H62	H	1.076856	-0.036881	0.144683
H63	H	1.015060	0.060442	0.152553
H64	H	1.118904	0.030637	0.358920
H65	H	1.057131	0.127981	0.366816
H66	H	1.114827	0.220898	0.163550
H67	H	1.176618	0.123565	0.155682
H68	H	1.175062	0.219369	0.283528
H69	H	0.544075	-0.173148	0.172298
C70	C	0.161126	-0.163113	0.130656
C71	C	0.214770	-0.164569	0.240176
C72	C	0.173771	-0.163567	0.378327
H73	H	0.134631	-0.089088	0.139740
H74	H	0.123426	-0.235491	0.141003
H75	H	0.252455	-0.092198	0.229833
H76	H	0.241268	-0.238589	0.231140
H77	H	0.136072	-0.235945	0.388674
H78	H	0.147278	-0.089540	0.387395
H79	H	0.210162	-0.164566	0.452653
H80	H	0.321475	-0.167300	-0.407603
H81	H	0.693381	-0.177133	-0.328381
C82	C	0.704649	-0.177232	0.187984
C83	C	0.760186	-0.070510	0.188739
C84	C	0.801461	-0.071393	0.316218
H85	H	0.668450	-0.176213	0.271756
H86	H	0.731188	-0.251241	0.190157
H87	H	0.733649	0.003481	0.186579
H88	H	0.796402	-0.071506	0.104995
H89	H	0.827999	-0.145402	0.318391
H90	H	0.765256	-0.070378	0.399981
H91	H	0.839152	0.001010	0.316741
C92	C	0.457998	-0.171089	-0.327969
C93	C	0.496979	-0.280312	-0.340634
C94	C	0.538243	-0.281610	-0.478510
H95	H	0.421803	-0.170191	-0.402623
H96	H	0.495757	-0.098781	-0.338240
H97	H	0.459225	-0.352602	-0.330378
H98	H	0.533188	-0.281234	-0.266013
H99	H	0.576001	-0.209302	-0.488781
H100	H	0.502041	-0.280708	-0.553152
H101	H	0.564702	-0.355710	-0.487116
C102	C	0.407778	-0.169647	0.092890
C103	C	0.461414	-0.171091	0.202426
C104	C	0.420406	-0.170075	0.340567
H105	H	0.381282	-0.095622	0.101955
H106	H	0.370079	-0.242025	0.103238
H107	H	0.499099	-0.098719	0.192082
H108	H	0.487912	-0.245110	0.193409
H109	H	0.382707	-0.242454	0.350915
H110	H	0.393911	-0.096049	0.349616
H111	H	0.456790	-0.171066	0.414903
H112	H	0.172175	-0.163350	-0.388777
