data_functionalizedCrystal
_audit_creation_method	'MofGen! by Chris Wilmer'
_symmetry_space_group_name_H-M	'P1'
_symmetry_Int_Tables_number	1
_symmetry_cell_setting	triclinic
loop_
_symmetry_equiv_pos_as_xyz
  x,y,z
_cell_length_a	10.723024
_cell_length_b	15.995350
_cell_length_c	9.798715
_cell_angle_alpha	89.999084
_cell_angle_beta	89.996609
_cell_angle_gamma	83.980122
loop_
_atom_site_label
_atom_site_type_symbol
_atom_site_fract_x
_atom_site_fract_y
_atom_site_fract_z
O1	O	1.655689	0.117435	-0.113475
O2	O	1.292393	0.128675	-0.113479
O3	O	1.483972	0.001224	-0.113475
O4	O	1.464110	0.244886	-0.113478
O5	O	1.483958	0.001224	0.113507
O6	O	1.292379	0.128675	0.113503
O7	O	1.655675	0.117434	0.113507
Zn8	Zn	1.474025	0.123055	0.149544
Zn9	Zn	1.474044	0.123055	-0.149515
O10	O	1.464096	0.244885	0.113504
C11	C	1.245897	0.127857	0.000012
C12	C	1.107374	0.125410	0.000010
C13	C	1.031482	0.196725	0.000008
C14	C	0.888310	0.194197	0.000007
C15	C	1.483144	-0.029975	0.000013
C16	C	1.480682	-0.122940	0.000005
C17	C	1.471842	-0.460738	0.000010
C18	C	1.335403	-0.414088	-0.000501
C19	C	1.337865	-0.317383	0.000011
C20	C	1.476227	-0.293152	0.000007
C21	C	1.543515	-0.333843	0.129623
C22	C	1.540088	-0.430499	0.129732
C23	C	1.542922	-0.430840	-0.128390
C24	C	1.542890	-0.333895	-0.130103
C25	C	1.478712	-0.198441	0.000010
C26	C	1.469360	-0.555450	0.000016
C27	C	1.702171	0.118252	0.000014
C28	C	1.840694	0.120700	0.000007
C29	C	1.464924	0.276085	0.000013
C30	C	1.467386	0.369049	0.000011
N31	N	1.474021	0.123054	0.353643
N32	N	1.474057	0.123049	-0.353615
C33	C	1.554463	0.069305	0.421422
C34	C	1.554483	0.069302	0.578584
H35	H	1.284971	-0.289265	-0.092903
C36	C	1.678811	-0.472971	-0.129585
H37	H	1.692214	-0.508613	-0.052261
H38	H	1.735186	-0.430985	-0.126743
H39	H	1.692856	-0.505326	-0.210481
H40	H	0.823099	0.255248	-0.000000
C41	C	1.647481	0.007140	0.342644
H42	H	1.635269	0.015300	0.247347
H43	H	1.633722	-0.048797	0.365999
H44	H	1.730847	0.016577	0.365973
H45	H	1.623357	0.023288	0.636871
C46	C	1.265920	-0.280144	0.125739
H47	H	1.267168	-0.220845	0.126474
H48	H	1.304608	-0.303403	0.206368
H49	H	1.181581	-0.293199	0.121927
C50	C	1.381013	0.185222	0.567670
H51	H	1.330565	0.218945	0.630595
H52	H	1.328976	0.154860	0.511934
H53	H	1.426108	0.220230	0.511924
H54	H	1.405162	0.169065	0.411967
H55	H	0.905898	0.059646	-0.000001
C56	C	1.261728	-0.439539	-0.126063
H57	H	1.179648	-0.410697	-0.124465
H58	H	1.256504	-0.498448	-0.124348
H59	H	1.303574	-0.425160	-0.206851
H60	H	1.066355	0.062483	-0.000024
H61	H	1.072501	0.259651	0.000015
H62	H	1.281106	-0.433994	0.091931
C63	C	1.473772	-0.455607	0.260611
H64	H	1.449171	-0.406756	0.313210
H65	H	1.529515	-0.493258	0.312436
H66	H	1.401694	-0.482283	0.236926
H67	H	1.493694	-0.306929	-0.225989
H68	H	1.496768	-0.305731	0.226082
H69	H	1.640259	-0.462172	0.135610
H70	H	1.645166	-0.319134	0.134441
H71	H	1.498320	-0.451636	-0.226631
C72	C	1.679200	-0.312367	-0.140682
H73	H	1.697322	-0.278102	-0.065547
H74	H	1.689774	-0.282962	-0.223409
H75	H	1.734607	-0.362766	-0.139582
