data_functionalizedCrystal
_audit_creation_method	'MofGen! by Chris Wilmer'
_symmetry_space_group_name_H-M	'P1'
_symmetry_Int_Tables_number	1
_symmetry_cell_setting	triclinic
loop_
_symmetry_equiv_pos_as_xyz
  x,y,z
_cell_length_a	13.339070
_cell_length_b	15.944551
_cell_length_c	12.376457
_cell_angle_alpha	101.276265
_cell_angle_beta	75.589755
_cell_angle_gamma	99.564016
loop_
_atom_site_label
_atom_site_type_symbol
_atom_site_fract_x
_atom_site_fract_y
_atom_site_fract_z
O1	O	1.361721	0.409519	-0.094056
O2	O	1.067189	0.354248	-0.094048
O3	O	1.222496	0.261484	-0.094042
O4	O	1.206414	0.502283	-0.094062
O5	O	1.183683	0.284634	0.093969
O6	O	1.028376	0.377398	0.093963
O7	O	1.322908	0.432670	0.093955
Zn8	Zn	1.169480	0.408710	0.123810
Zn9	Zn	1.220618	0.378208	-0.123903
O10	O	1.167601	0.525433	0.093949
C11	C	1.010092	0.356487	-0.000041
C12	C	0.897788	0.328657	-0.000038
C13	C	1.202422	0.241610	-0.000036
C14	C	1.200420	0.147897	-0.000036
C15	C	0.533017	0.545045	-0.000074
C16	C	0.638533	0.571195	-0.000081
C17	C	0.703352	0.510563	-0.000069
C18	C	0.662645	0.423776	-0.000053
C19	C	0.557120	0.397623	-0.000055
C20	C	0.727455	0.363140	-0.000050
C21	C	0.686748	0.276354	-0.000033
C22	C	0.581233	0.250205	-0.000035
C23	C	0.516415	0.310837	-0.000046
C24	C	0.832979	0.389294	-0.000048
C25	C	0.857082	0.241871	-0.000029
C26	C	0.751566	0.215722	-0.000022
C27	C	1.099369	-0.090507	-0.000048
C28	C	1.127158	-0.129176	0.092651
C29	C	1.196799	-0.023674	-0.000044
C30	C	1.165448	-0.151979	-0.092713
C31	C	1.193296	-0.189405	-0.000057
C32	C	1.224599	-0.061099	0.092732
C33	C	1.262892	-0.083908	-0.092715
C34	C	1.290747	-0.122540	0.000007
C35	C	1.198814	0.071800	-0.000036
C36	C	1.191287	-0.284874	-0.000058
C37	C	1.380005	0.430431	-0.000054
C38	C	1.492311	0.458260	-0.000065
C39	C	1.187676	0.545308	-0.000059
C40	C	1.189680	0.639019	-0.000067
N41	N	1.134587	0.429527	0.292867
N42	N	1.255518	0.357386	-0.292960
C43	C	1.336516	0.309045	0.647859
C44	C	1.360931	0.294473	0.529520
C45	C	1.304347	0.328235	0.470351
C46	C	1.223343	0.376572	0.529532
C47	C	1.198930	0.391151	0.647883
C48	C	1.166762	0.410341	0.470375
C49	C	1.085758	0.458678	0.529556
C50	C	1.061349	0.473254	0.647895
C51	C	1.117933	0.439492	0.707064
C52	C	1.191175	0.395762	0.352024
C53	C	1.053590	0.477868	0.352048
C54	C	1.029174	0.492440	0.470387
H55	H	0.789267	0.531859	-0.000078
O56	O	0.677894	0.655533	-0.000041
C57	C	0.642859	0.798986	-0.000127
C58	C	0.598142	0.703499	-0.000147
H59	H	0.578406	0.837791	-0.000236
H60	H	0.675371	0.824655	0.078573
H61	H	0.707934	0.805190	-0.078791
H62	H	0.533032	0.697220	0.078464
H63	H	0.565698	0.677873	-0.078899
O64	O	1.094048	0.453695	0.822022
C65	C	0.983561	0.519700	0.991865
C66	C	1.010485	0.503666	0.861676
H67	H	0.916013	0.560117	1.023964
H68	H	0.960245	0.455371	1.024059
H69	H	1.054557	0.555532	1.023953
H70	H	0.939531	0.467862	0.829491
H71	H	1.033842	0.568022	0.829558
H72	H	0.995399	0.512620	0.696080
H73	H	0.480235	0.594401	-0.000092
H74	H	0.430494	0.289550	-0.000040
O75	O	1.058554	-0.153105	0.186064
C76	C	0.880147	-0.164314	0.291727
C77	C	0.957731	-0.137202	0.185883
H78	H	0.798619	-0.151450	0.291628
H79	H	0.879767	-0.235937	0.291256
H80	H	0.904643	-0.125567	0.370706
H81	H	0.933290	-0.175889	0.106848
H82	H	0.958099	-0.065567	0.186454
O83	O	0.998541	0.510760	0.294759
C84	C	0.859462	0.593694	0.307261
C85	C	0.921726	0.556512	0.372290
H86	H	0.797329	0.630677	0.369917
H87	H	0.914509	0.639079	0.251869
H88	H	0.820406	0.538792	0.251843
H89	H	0.960788	0.611357	0.427770
H90	H	0.866631	0.511105	0.427611
H91	H	1.320246	-0.063834	-0.171092
H92	H	0.909859	0.192498	-0.000025
O93	O	0.541848	0.165874	0.000025
C94	C	0.576907	0.022403	-0.000021
C95	C	0.621638	0.117883	-0.000063
H96	H	0.641401	-0.016428	-0.000116
H97	H	0.511895	0.016119	0.078679
H98	H	0.544316	-0.003175	-0.078685
H99	H	0.654286	0.143523	0.078548
H100	H	0.686603	0.124111	-0.078815
H101	H	1.140405	-0.191311	-0.171088
H102	H	1.371680	-0.136832	0.000057
O103	O	1.439457	0.247290	0.472269
C104	C	1.505922	0.110543	0.436703
C105	C	1.416931	0.163943	0.501471
H106	H	1.487751	0.043152	0.460307
H107	H	1.513819	0.105699	0.341893
H108	H	1.582123	0.143274	0.460019
H109	H	1.340680	0.131255	0.478250
H110	H	1.409126	0.168790	0.596266
H111	H	0.963219	0.531797	0.518587
H112	H	0.718409	0.145057	-0.000018
O113	O	1.327871	0.314042	0.355398
C114	C	1.266865	0.253564	0.185595
C115	C	1.240078	0.269603	0.315784
H116	H	1.195908	0.217618	0.153527
H117	H	1.290045	0.317894	0.153392
H118	H	1.334512	0.213252	0.153483
H119	H	1.172413	0.309886	0.347991
H120	H	1.216960	0.205242	0.347910
H121	H	1.018478	-0.076032	0.000046
H122	H	1.249577	-0.021853	0.171188
O123	O	1.391622	0.276355	0.705278
C124	C	1.560062	0.272618	0.741401
C125	C	1.497771	0.309727	0.676327
H126	H	1.645898	0.299570	0.718000
H127	H	1.528788	0.291359	0.836164
H128	H	1.551617	0.199393	0.718154
H129	H	1.506190	0.382954	0.699480
H130	H	1.529060	0.290919	0.581580
H131	H	0.866111	0.459956	-0.000057
H132	H	1.257129	0.356407	0.303849
