data_functionalizedCrystal
_audit_creation_method	'MofGen! by Chris Wilmer'
_symmetry_space_group_name_H-M	'P1'
_symmetry_Int_Tables_number	1
_symmetry_cell_setting	triclinic
loop_
_symmetry_equiv_pos_as_xyz
  x,y,z
_cell_length_a	11.792241
_cell_length_b	11.026607
_cell_length_c	9.482900
_cell_angle_alpha	78.613859
_cell_angle_beta	80.620039
_cell_angle_gamma	83.610284
loop_
_atom_site_label
_atom_site_type_symbol
_atom_site_fract_x
_atom_site_fract_y
_atom_site_fract_z
O1	O	1.526115	-0.185397	0.120750
O2	O	2.026115	0.314603	0.620750
O3	O	1.199178	-0.202567	0.120783
O4	O	1.699178	0.297433	0.620783
O5	O	1.335551	-0.017150	0.120764
O6	O	1.835551	0.482850	0.620764
O7	O	1.389742	-0.370814	0.120769
O8	O	1.889742	0.129186	0.620769
O9	O	1.363299	0.020595	-0.121033
O10	O	1.863299	0.520595	0.378967
O11	O	1.226926	-0.164822	-0.121014
O12	O	1.726926	0.335178	0.378986
O13	O	1.553863	-0.147652	-0.121047
O14	O	2.053863	0.352348	0.378953
Cu15	Cu	1.392928	-0.152791	-0.143108
Cu16	Cu	1.892928	0.347209	0.356892
Cu17	Cu	1.360113	-0.197429	0.142844
Cu18	Cu	1.860113	0.302571	0.642844
O19	O	1.417490	-0.333069	-0.121028
O20	O	1.917490	0.166931	0.378972
C21	C	1.170547	-0.182617	-0.000111
C22	C	1.670547	0.317383	0.499889
C23	C	1.043891	-0.179392	-0.000098
C24	C	1.543891	0.320608	0.499902
N25	N	1.337031	-0.228816	0.343967
N26	N	1.837031	0.271184	0.843967
C27	C	1.339427	0.046998	-0.000132
C28	C	1.839427	0.546998	0.499868
C29	C	1.309623	0.181907	-0.000124
C30	C	1.809623	0.681907	0.499876
C31	C	0.812005	-0.173451	-0.000140
C32	C	1.312005	0.326549	0.499860
C33	C	0.941042	-0.176752	-0.000117
C34	C	1.441042	0.323248	0.499883
C35	C	1.582494	-0.167603	-0.000150
C36	C	2.082494	0.332397	0.499850
C37	C	1.709149	-0.170829	-0.000153
C38	C	2.209149	0.329171	0.499847
C39	C	1.413613	-0.397218	-0.000129
C40	C	1.913613	0.102782	0.499871
C41	C	1.443416	-0.532128	-0.000128
C42	C	1.943416	-0.032128	0.499872
C43	C	1.391914	0.255172	-0.000130
C44	C	1.891914	0.755172	0.499870
C45	C	1.361113	0.394608	-0.000121
C46	C	1.861113	0.894608	0.499879
N47	N	1.416017	-0.121394	-0.344232
N48	N	1.916017	0.378606	0.155768
C49	C	1.386128	-0.162057	0.416160
C50	C	1.886128	0.337943	0.916160
C51	C	1.366913	-0.188163	0.583580
C52	C	1.866913	0.311837	1.083580
H53	H	1.485170	0.214670	-0.000148
H54	H	1.985170	0.714670	0.499852
H55	H	1.267851	0.435104	-0.000103
H56	H	1.767851	0.935104	0.499897
H57	H	1.536665	0.427359	-0.000028
H58	H	2.036665	0.927359	0.499972
C59	C	1.183637	0.236619	-0.000113
C60	C	1.683637	0.736619	0.499887
N61	N	1.088742	0.277827	-0.000109
N62	N	1.588742	0.777827	0.499891
C63	C	1.462131	-0.058731	0.332219
C64	C	1.962131	0.441269	0.832219
N65	N	1.519377	0.019099	0.268997
N66	N	2.019377	0.519099	0.768997
C67	C	1.290904	-0.291493	0.667515
C68	C	1.790904	0.208507	1.167515
N69	N	1.233654	-0.369318	0.730737
N70	N	1.733654	0.130682	1.230737
H71	H	1.472284	-0.044912	0.593636
H72	H	1.972284	0.455088	1.093636
H73	H	1.280777	-0.305302	0.406105
H74	H	1.780777	0.194698	0.906105
