data_functionalizedCrystal
_audit_creation_method	'MofGen! by Chris Wilmer'
_symmetry_space_group_name_H-M	'P1'
_symmetry_Int_Tables_number	1
_symmetry_cell_setting	triclinic
loop_
_symmetry_equiv_pos_as_xyz
  x,y,z
_cell_length_a	12.759395
_cell_length_b	19.121063
_cell_length_c	12.759387
_cell_angle_alpha	92.403868
_cell_angle_beta	89.980929
_cell_angle_gamma	92.470426
loop_
_atom_site_label
_atom_site_type_symbol
_atom_site_fract_x
_atom_site_fract_y
_atom_site_fract_z
Zn1	Zn	1.588321	-0.279550	-0.611793
Zn2	Zn	1.580680	-0.397017	-0.443588
Zn3	Zn	1.412621	-0.279587	-0.436132
Zn4	Zn	1.405079	-0.396967	-0.619224
O5	O	1.496675	-0.338280	-0.527684
O6	O	1.734328	-0.295137	-0.589490
O7	O	1.558346	-0.381476	-0.295580
O8	O	1.442282	-0.181298	-0.453204
O9	O	1.728715	-0.381439	-0.465911
O10	O	1.571368	-0.181270	-0.582261
O11	O	1.434873	-0.295201	-0.290102
O12	O	1.264600	-0.295153	-0.460409
O13	O	1.429428	-0.381355	-0.765257
O14	O	1.259059	-0.381392	-0.594926
O15	O	1.564055	-0.295089	-0.759797
O16	O	1.551033	-0.495294	-0.473116
O17	O	1.422019	-0.495258	-0.602155
C18	C	1.223708	-0.338272	-0.527665
C19	C	1.106931	-0.338285	-0.527683
C20	C	1.101190	-0.428230	-0.667547
C21	C	1.043459	-0.473209	-0.737483
C22	C	0.933737	-0.473217	-0.737496
C23	C	0.881744	-0.428241	-0.667569
C24	C	0.939475	-0.383263	-0.597633
C25	C	1.049199	-0.383261	-0.597625
C26	C	0.945216	-0.293315	-0.457776
C27	C	1.054938	-0.293309	-0.457756
C28	C	0.893223	-0.248339	-0.387849
C29	C	0.950954	-0.203363	-0.317907
C30	C	1.060683	-0.203357	-0.317895
C31	C	1.112669	-0.248330	-0.387821
C32	C	1.484907	-0.520760	-0.539274
C33	C	1.479968	-0.598826	-0.544267
C34	C	1.544871	-0.635497	-0.479485
C35	C	1.540233	-0.708848	-0.484187
C36	C	1.470686	-0.745527	-0.553667
C37	C	1.405780	-0.708851	-0.618457
C38	C	1.410425	-0.635501	-0.613759
C39	C	1.453304	-0.966996	-0.571215
C40	C	1.448663	-1.040351	-0.575906
C41	C	1.583117	-1.040343	-0.441637
C42	C	1.587750	-0.966992	-0.436941
C43	C	1.522849	-0.930322	-0.501734
C44	C	1.465940	-0.820503	-0.558473
C45	C	1.527600	-0.855347	-0.496933
C46	C	1.770708	-0.338289	-0.527703
C47	C	1.887485	-0.338293	-0.527712
C48	C	1.496752	-0.338212	-0.801713
C49	C	1.496785	-0.338184	-0.918488
C50	C	1.508518	-0.155088	-0.516072
C51	C	1.513565	-0.077022	-0.511123
C52	C	1.637042	-0.248305	-1.132244
C53	C	1.707121	-0.203404	-1.074540
C54	C	1.707090	-0.203427	-0.964820
C55	C	1.636974	-0.248358	-0.912801
C56	C	1.566895	-0.293259	-0.970505
C57	C	1.566932	-0.293229	-1.080227
C58	C	1.426706	-0.383085	-0.976192
C59	C	1.426730	-0.383059	-1.085912
C60	C	1.356590	-0.428015	-0.924173
C61	C	1.286505	-0.472914	-0.981877
C62	C	1.286538	-0.472888	-1.091603
C63	C	1.356651	-0.427960	-1.143615
C64	C	1.496662	-0.338297	-0.254718
C65	C	1.496846	-0.338128	-0.137931
H66	H	0.886732	-0.509839	-0.794449
O67	O	1.612371	-0.599947	-0.411849
C68	C	1.588312	-0.617928	-0.308267
H69	H	1.544552	-0.671209	-0.309468
H70	H	1.664004	-0.620421	-0.261384
H71	H	1.536926	-0.576696	-0.270191
H72	H	1.229474	-0.509455	-1.138580
H73	H	1.229427	-0.509496	-0.939514
O74	O	1.219244	-0.248455	-0.387810
C75	C	1.251552	-0.315738	-0.364894
H76	H	1.185719	-0.356212	-0.385314
H77	H	1.324170	-0.328261	-0.413038
H78	H	1.270891	-0.317149	-0.277804
O79	O	1.116871	-0.159762	-0.249913
C80	C	1.177712	-0.199688	-0.184459
H81	H	1.190734	-0.252945	-0.224753
H82	H	1.256707	-0.171063	-0.168625
H83	H	1.134895	-0.207338	-0.107073
O84	O	1.398519	-0.856213	-0.626013
C85	C	1.455619	-0.898558	-0.696652
H86	H	1.534571	-0.909512	-0.660374
H87	H	1.409559	-0.950158	-0.713987
H88	H	1.468901	-0.870245	-0.772712
H89	H	1.356679	-0.427930	-1.232955
H90	H	0.908613	-0.166744	-0.260982
O91	O	1.775128	-0.159782	-1.125235
C92	C	1.760151	-0.169399	-1.234452
H93	H	1.677588	-0.192393	-1.250892
H94	H	1.770695	-0.116781	-1.272818
H95	H	1.820059	-0.206797	-1.267960
O96	O	1.636769	-0.248422	-0.806222
C97	C	1.537253	-0.230391	-0.768362
H98	H	1.475962	-0.242331	-0.832345
H99	H	1.516523	-0.262133	-0.697006
H100	H	1.538799	-0.172132	-0.745120
H101	H	1.764156	-0.166866	-0.917838
O102	O	1.356788	-0.428036	-0.817592
C103	C	1.456314	-0.446098	-0.782129
H104	H	1.517593	-0.434092	-0.844634
H105	H	1.477051	-0.414429	-0.706734
H106	H	1.454777	-0.504377	-0.766341
H107	H	1.593082	-0.738702	-0.431434
O108	O	1.646130	-1.076073	-0.378821
C109	C	1.627108	-1.148678	-0.397846
H110	H	1.592010	-1.158672	-0.479531
H111	H	1.704050	-1.176511	-0.392586
H112	H	1.569884	-1.169563	-0.336808
O113	O	1.381129	-1.076090	-0.643312
C114	C	1.390964	-1.148693	-0.633574
H115	H	1.424779	-1.158730	-0.553164
H116	H	1.310497	-1.176611	-0.642416
H117	H	1.445566	-1.169448	-0.697265
H118	H	1.190531	-0.428233	-0.667536
H119	H	1.085804	-0.509826	-0.794418
O120	O	0.775161	-0.428247	-0.667392
C121	C	0.737296	-0.446218	-0.567808
H122	H	0.801276	-0.434168	-0.506548
H123	H	0.665928	-0.414524	-0.547210
H124	H	0.714065	-0.504493	-0.569137
H125	H	1.644381	-0.937130	-0.380365
O126	O	0.786640	-0.248347	-0.388051
C127	C	0.751172	-0.230386	-0.487644
H128	H	0.813649	-0.242431	-0.548892
H129	H	0.675735	-0.262091	-0.508249
H130	H	0.735451	-0.172114	-0.486324
O131	O	1.390140	-0.931490	-0.634177
C132	C	1.327774	-0.979595	-0.696516
H133	H	1.320863	-1.031907	-0.656829
H134	H	1.246324	-0.958448	-0.706281
H135	H	1.365701	-0.987329	-0.776845
O136	O	1.338364	-0.744556	-0.686006
C137	C	1.395461	-0.786903	-0.756644
H138	H	1.474406	-0.797867	-0.720362
H139	H	1.349391	-0.838500	-0.773987
H140	H	1.408754	-0.758588	-0.832701
H141	H	1.357576	-0.605644	-0.666513
O142	O	1.595097	-0.819798	-0.429299
C143	C	1.571028	-0.837772	-0.325717
H144	H	1.527276	-0.891056	-0.326913
H145	H	1.646716	-0.840257	-0.278823
H146	H	1.519633	-0.796541	-0.287654
H147	H	1.637061	-0.248272	-1.221583
