data_functionalizedCrystal
_audit_creation_method	'MofGen! by Chris Wilmer'
_symmetry_space_group_name_H-M	'P1'
_symmetry_Int_Tables_number	1
_symmetry_cell_setting	triclinic
loop_
_symmetry_equiv_pos_as_xyz
  x,y,z
_cell_length_a	18.101398
_cell_length_b	21.395361
_cell_length_c	21.395355
_cell_angle_alpha	90.021511
_cell_angle_beta	89.970130
_cell_angle_gamma	89.974026
loop_
_atom_site_label
_atom_site_type_symbol
_atom_site_fract_x
_atom_site_fract_y
_atom_site_fract_z
Zn1	Zn	1.132164	0.249590	-0.354337
Zn2	Zn	1.465497	0.582924	-0.021004
Zn3	Zn	1.798830	0.916257	0.312329
Zn4	Zn	1.132048	0.354350	-0.249554
Zn5	Zn	1.465382	0.687683	0.083779
Zn6	Zn	1.798715	1.021017	0.417112
Zn7	Zn	1.008310	0.249582	-0.249564
Zn8	Zn	1.341644	0.582915	0.083769
Zn9	Zn	1.674977	0.916248	0.417102
Zn10	Zn	1.008274	0.354325	-0.354285
Zn11	Zn	1.341607	0.687659	-0.020951
Zn12	Zn	1.674941	1.020992	0.312382
O13	O	1.070199	0.301962	-0.301935
O14	O	1.403532	0.635295	0.031398
O15	O	1.736866	0.968628	0.364732
O16	O	1.235781	0.263501	-0.340455
O17	O	1.569114	0.596834	-0.007122
O18	O	1.902448	0.930167	0.326211
O19	O	1.115601	0.340459	-0.161878
O20	O	1.448935	0.673792	0.171456
O21	O	1.782268	1.007126	0.504789
O22	O	1.024803	0.161905	-0.263489
O23	O	1.358137	0.495238	0.069845
O24	O	1.691470	0.828572	0.403178
O25	O	1.235696	0.340467	-0.263472
O26	O	1.569030	0.673801	0.069862
O27	O	1.902363	1.007134	0.403195
O28	O	1.115798	0.161911	-0.340465
O29	O	1.449131	0.495245	-0.007132
O30	O	1.782464	0.828578	0.326202
O31	O	1.024692	0.263486	-0.161885
O32	O	1.358025	0.596820	0.171448
O33	O	1.691358	0.930153	0.504782
O34	O	0.904673	0.263462	-0.263438
O35	O	1.238006	0.596796	0.069895
O36	O	1.571339	0.930129	0.403229
O37	O	1.024741	0.340425	-0.441970
O38	O	1.358075	0.673758	-0.108636
O39	O	1.691408	1.007092	0.224697
O40	O	0.904646	0.340417	-0.340376
O41	O	1.237979	0.673750	-0.007042
O42	O	1.571313	1.007084	0.326291
O43	O	1.115762	0.263477	-0.442008
O44	O	1.449096	0.596810	-0.108675
O45	O	1.782429	0.930143	0.224658
O46	O	1.115566	0.442025	-0.263421
O47	O	1.448899	0.775358	0.069912
O48	O	1.782233	1.108691	0.403246
O49	O	1.024629	0.442006	-0.340366
O50	O	1.357963	0.775340	-0.007033
O51	O	1.691296	1.108673	0.326301
C52	C	0.877789	0.301936	-0.301902
C53	C	1.211122	0.635270	0.031431
C54	C	1.544455	0.968603	0.364764
C55	C	0.795474	0.301941	-0.301903
C56	C	1.128808	0.635274	0.031430
C57	C	1.462141	0.968607	0.364763
C58	C	1.070101	0.464749	-0.301900
C59	C	1.403435	0.798083	0.031433
C60	C	1.736768	1.131416	0.364766
C61	C	1.070127	0.534391	-0.301906
C62	C	1.403461	0.867724	0.031427
C63	C	1.736794	1.201057	0.364760
C64	C	1.070261	0.301949	-0.465358
C65	C	1.403594	0.635282	-0.132025
C66	C	1.736927	0.968616	0.201308
C67	C	1.070287	0.301944	-0.535000
C68	C	1.403620	0.635277	-0.201666
C69	C	1.736953	0.968610	0.131667
C70	C	0.496383	0.301980	-0.301956
C71	C	0.829717	0.635313	0.031377
C72	C	1.163050	0.968646	0.364711
C73	C	0.527701	0.253320	-0.253785
C74	C	0.861034	0.586653	0.079548
C75	C	1.194368	0.919987	0.412882
C76	C	0.613319	0.253450	-0.253579
C77	C	0.946652	0.586784	0.079754
C78	C	1.279986	0.920117	0.413087
C79	C	0.644766	0.301960	-0.301930
C80	C	0.978099	0.635293	0.031404
C81	C	1.311433	0.968626	0.364737
C82	C	0.613646	0.367957	-0.283884
C83	C	0.946980	0.701291	0.049450
C84	C	1.280313	1.034624	0.382783
C85	C	0.528001	0.367687	-0.283549
C86	C	0.861335	0.701020	0.049785
C87	C	1.194668	1.034354	0.383118
C88	C	0.528006	0.285215	-0.368286
C89	C	0.861339	0.618549	-0.034953
C90	C	1.194672	0.951882	0.298380
C91	C	0.613656	0.283746	-0.367925
C92	C	0.946990	0.617079	-0.034591
C93	C	1.280323	0.950412	0.298742
C94	C	0.728626	0.301953	-0.301916
C95	C	1.061959	0.635286	0.031417
C96	C	1.395292	0.968619	0.364751
C97	C	0.412524	0.301991	-0.301968
C98	C	0.745857	0.635325	0.031365
C99	C	1.079191	0.968658	0.364699
C100	C	1.263361	0.301988	-0.301968
C101	C	1.596694	0.635321	0.031365
C102	C	1.930028	0.968654	0.364698
C103	C	1.345675	0.301999	-0.301982
C104	C	1.679008	0.635332	0.031351
C105	C	2.012342	0.968666	0.364684
C106	C	1.070317	0.138538	-0.301984
C107	C	1.403651	0.471872	0.031349
C108	C	1.736984	0.805205	0.364683
C109	C	1.070368	0.068897	-0.302005
C110	C	1.403701	0.402231	0.031329
C111	C	1.737035	0.735564	0.364662
C112	C	1.117520	0.567092	-0.261882
C113	C	1.450853	0.900426	0.071451
C114	C	1.784186	1.233759	0.404785
C115	C	1.117554	0.632528	-0.261896
C116	C	1.450888	0.965861	0.071437
C117	C	1.784221	1.299195	0.404771
C118	C	1.070183	0.665259	-0.301928
C119	C	1.403516	0.998592	0.031406
C120	C	1.736850	1.331926	0.364739
C121	C	1.022787	0.632549	-0.341960
C122	C	1.356120	0.965883	-0.008626
C123	C	1.689454	1.299216	0.324707
C124	C	1.022759	0.567115	-0.341949
C125	C	1.356093	0.900448	-0.008616
C126	C	1.689426	1.233782	0.324718
C127	C	1.003502	0.768969	-0.306832
C128	C	1.336836	1.102303	0.026501
C129	C	1.670169	1.435636	0.359834
C130	C	1.003529	0.834402	-0.306839
C131	C	1.336862	1.167736	0.026495
C132	C	1.670196	1.501069	0.359828
C133	C	1.070269	0.867080	-0.301965
C134	C	1.403603	1.200413	0.031369
C135	C	1.736936	1.533746	0.364702
C136	C	1.136985	0.834316	-0.297071
C137	C	1.470318	1.167649	0.036263
C138	C	1.803652	1.500983	0.369596
C139	C	1.136957	0.768882	-0.297060
C140	C	1.470290	1.102215	0.036273
C141	C	1.803624	1.435548	0.369607
C142	C	1.070208	0.736211	-0.301944
C143	C	1.403541	1.069545	0.031389
C144	C	1.736875	1.402878	0.364723
C145	C	1.117703	0.970734	-0.261953
C146	C	1.451036	1.304067	0.071380
C147	C	1.784370	1.637401	0.404713
C148	C	1.117739	1.036171	-0.261972
C149	C	1.451072	1.369504	0.071362
C150	C	1.784405	1.702837	0.404695
C151	C	1.022965	1.036191	-0.342032
C152	C	1.356298	1.369524	-0.008699
C153	C	1.689632	1.702857	0.324634
C154	C	1.022936	0.970755	-0.342017
C155	C	1.356269	1.304089	-0.008684
C156	C	1.689603	1.637422	0.324650
C157	C	1.070304	0.938031	-0.301974
C158	C	1.403637	1.271364	0.031359
C159	C	1.736971	1.604698	0.364692
C160	C	1.117679	0.261875	-0.567734
C161	C	1.451013	0.595208	-0.234401
C162	C	1.784346	0.928542	0.098933
C163	C	1.117678	0.261848	-0.633169
C164	C	1.451012	0.595181	-0.299836
C165	C	1.784345	0.928515	0.033497
C166	C	1.070293	0.301901	-0.665868
C167	C	1.403626	0.635234	-0.332535
C168	C	1.736959	0.968568	0.000799
C169	C	1.022891	0.341973	-0.633126
C170	C	1.356224	0.675306	-0.299793
C171	C	1.689557	1.008639	0.033541
C172	C	1.022888	0.341994	-0.567692
C173	C	1.356221	0.675327	-0.234359
C174	C	1.689554	1.008661	0.098975
C175	C	1.064411	0.358316	-0.769530
C176	C	1.397744	0.691649	-0.436197
C177	C	1.731078	1.024983	-0.102864
C178	C	1.064419	0.358296	-0.834963
C179	C	1.397753	0.691629	-0.501630
C180	C	1.731086	1.024962	-0.168297
C181	C	1.070297	0.301835	-0.867689
C182	C	1.403630	0.635168	-0.534356
C183	C	1.736964	0.968501	-0.201022
C184	C	1.076183	0.245393	-0.834974
C185	C	1.409516	0.578726	-0.501640
C186	C	1.742849	0.912059	-0.168307
C187	C	1.076180	0.245414	-0.769540
C188	C	1.409513	0.578747	-0.436206
C189	C	1.742846	0.912081	-0.102873
C190	C	1.070290	0.301882	-0.736821
C191	C	1.403623	0.635215	-0.403487
C192	C	1.736957	0.968549	-0.070154
C193	C	1.117691	0.261734	-0.971376
C194	C	1.451025	0.595067	-0.638042
C195	C	1.784358	0.928400	-0.304709
C196	C	1.117685	0.261706	-1.036812
C197	C	1.451018	0.595039	-0.703479
C198	C	1.784352	0.928372	-0.370146
C199	C	1.022901	0.341836	-1.036768
C200	C	1.356235	0.675169	-0.703434
C201	C	1.689568	1.008502	-0.370101
C202	C	1.022904	0.341858	-0.971332
C203	C	1.356237	0.675191	-0.637999
C204	C	1.689570	1.008525	-0.304666
C205	C	1.070302	0.301808	-0.938640
C206	C	1.403636	0.635141	-0.605307
C207	C	1.736969	0.968474	-0.271974
C208	C	1.070180	0.301929	-0.139148
C209	C	1.403514	0.635263	0.194186
C210	C	1.736847	0.968596	0.527519
C211	C	1.070298	0.301758	-0.069507
C212	C	1.403631	0.635091	0.263827
C213	C	1.736964	0.968425	0.597160
H214	H	0.634360	0.204510	-0.264892
H215	H	0.967694	0.537843	0.068442
H216	H	1.301027	0.871177	0.401775
H217	H	0.506435	0.237928	-0.384693
H218	H	0.839768	0.571262	-0.051360
H219	H	1.173102	0.904595	0.281974
H220	H	0.984292	0.374622	-0.541040
H221	H	1.317625	0.707955	-0.207707
H222	H	1.650958	1.041288	0.125627
H223	H	0.506146	0.264276	-0.204921
H224	H	0.839479	0.597610	0.128412
H225	H	1.172813	0.930943	0.461746
N226	N	1.168780	0.218669	-0.532467
N227	N	1.502114	0.552002	-0.199133
N228	N	1.835447	0.885336	0.134200
H229	H	1.203080	0.244140	-0.505326
H230	H	1.536413	0.577473	-0.171993
H231	H	1.869747	0.910806	0.161341
H232	H	1.198754	0.193283	-0.563171
H233	H	1.532087	0.526617	-0.229838
H234	H	1.865421	0.859950	0.103496
N235	N	0.642005	0.327271	-0.418019
N236	N	0.975338	0.660605	-0.084686
N237	N	1.308672	0.993938	0.248647
H238	H	0.697713	0.325080	-0.419571
H239	H	1.031047	0.658413	-0.086238
H240	H	1.364380	0.991747	0.247095
H241	H	0.626136	0.371451	-0.408159
H242	H	0.959470	0.704784	-0.074826
H243	H	1.292803	1.038117	0.258507
H244	H	1.059631	0.404254	-0.861595
H245	H	1.392965	0.737588	-0.528262
H246	H	1.726298	1.070921	-0.194928
H247	H	0.633767	0.264532	-0.204429
H248	H	0.967100	0.597865	0.128904
H249	H	1.300434	0.931199	0.462237
N250	N	1.168799	0.218628	-0.668482
N251	N	1.502132	0.551962	-0.335149
N252	N	1.835466	0.885295	-0.001816
H253	H	1.221703	0.228376	-0.657116
H254	H	1.555037	0.561709	-0.323783
H255	H	1.888370	0.895043	0.009551
H256	H	1.161546	0.224713	-0.714884
H257	H	1.494880	0.558046	-0.381551
H258	H	1.828213	0.891379	-0.048217
N259	N	1.168810	0.218544	-0.936104
N260	N	1.502144	0.551877	-0.602770
N261	N	1.835477	0.885210	-0.269437
H262	H	1.157347	0.173768	-0.947477
H263	H	1.490681	0.507101	-0.614144
H264	H	1.824014	0.840434	-0.280810
H265	H	1.161592	0.224702	-0.889697
H266	H	1.494925	0.558036	-0.556363
H267	H	1.828259	0.891369	-0.223030
H268	H	1.080970	0.199457	-0.742905
H269	H	1.414303	0.532790	-0.409572
H270	H	1.747636	0.866123	-0.076239
H271	H	0.984311	0.374441	-1.063390
H272	H	1.317645	0.707774	-0.730057
H273	H	1.650978	1.041108	-0.396724
H274	H	0.634002	0.235179	-0.381532
H275	H	0.967335	0.568512	-0.048199
H276	H	1.300668	0.901845	0.285135
H277	H	0.507984	0.381906	-0.235058
H278	H	0.841317	0.715239	0.098276
H279	H	1.174651	1.048572	0.431609
N280	N	0.501185	0.332160	-0.415833
N281	N	0.834518	0.665493	-0.082499
N282	N	1.167852	0.998826	0.250834
H283	H	0.468710	0.364134	-0.394546
H284	H	0.802043	0.697467	-0.061212
H285	H	1.135377	1.030800	0.272121
H286	H	0.471945	0.309906	-0.449303
H287	H	0.805278	0.643239	-0.115969
H288	H	1.138611	0.976572	0.217364
N289	N	1.168855	1.071443	-0.218796
N290	N	1.502188	1.404776	0.114537
N291	N	1.835521	1.738110	0.447870
H292	H	1.161689	1.117862	-0.224880
H293	H	1.495022	1.451195	0.108453
H294	H	1.828355	1.784528	0.441787
H295	H	1.221736	1.059962	-0.228586
H296	H	1.555069	1.393295	0.104747
H297	H	1.888402	1.726629	0.438081
H298	H	0.507131	0.204230	-0.264973
H299	H	0.840465	0.537563	0.068360
H300	H	1.173798	0.870897	0.401694
H301	H	1.156277	0.229073	-1.063464
H302	H	1.489610	0.562406	-0.730130
H303	H	1.822943	0.895740	-0.396797
H304	H	0.635056	0.382423	-0.235916
H305	H	0.968389	0.715756	0.097417
H306	H	1.301722	1.049089	0.430750
N307	N	0.640615	0.417258	-0.328918
N308	N	0.973948	0.750591	0.004415
N309	N	1.307281	1.083924	0.337748
H310	H	0.696362	0.418919	-0.327908
H311	H	1.029696	0.752253	0.005425
H312	H	1.363029	1.085586	0.338758
H313	H	0.619884	0.459275	-0.316411
H314	H	0.953217	0.792609	0.016923
H315	H	1.286550	1.125942	0.350256
N316	N	1.208975	0.869552	-0.291810
N317	N	1.542308	1.202885	0.041523
N318	N	1.875641	1.536218	0.374857
H319	H	1.215914	0.896672	-0.329991
H320	H	1.549247	1.230005	0.003343
H321	H	1.882581	1.563339	0.336676
H322	H	1.251186	0.838827	-0.288687
H323	H	1.584519	1.172161	0.044646
H324	H	1.917852	1.505494	0.377979
N325	N	0.931511	0.733730	-0.312080
N326	N	1.264844	1.067063	0.021254
N327	N	1.598178	1.400396	0.354587
H328	H	0.941615	0.687307	-0.311330
H329	H	1.274949	1.020640	0.022003
H330	H	1.608282	1.353973	0.355337
H331	H	0.906319	0.745160	-0.352605
H332	H	1.239652	1.078494	-0.019272
H333	H	1.572985	1.411827	0.314062
N334	N	0.971690	0.667844	-0.385138
N335	N	1.305024	1.001177	-0.051805
N336	N	1.638357	1.334511	0.281529
H337	H	1.001779	0.694959	-0.414202
H338	H	1.335113	1.028292	-0.080869
H339	H	1.668446	1.361625	0.252464
H340	H	0.937405	0.694991	-0.359606
H341	H	1.270738	1.028325	-0.026273
H342	H	1.604071	1.361658	0.307061
N343	N	1.208911	0.733545	-0.291799
N344	N	1.542244	1.066878	0.041534
N345	N	1.875577	1.400212	0.374867
H346	H	1.198763	0.687135	-0.292535
H347	H	1.532096	1.020469	0.040798
H348	H	1.865429	1.353802	0.374131
H349	H	1.234115	0.744981	-0.251278
H350	H	1.567448	1.078315	0.082056
H351	H	1.900782	1.411648	0.415389
H352	H	1.156275	0.944089	-0.229350
H353	H	1.489609	1.277422	0.103983
H354	H	1.822942	1.610755	0.437317
N355	N	1.168618	0.531797	-0.218704
N356	N	1.501951	0.865130	0.114629
N357	N	1.835285	1.198464	0.447962
H358	H	1.198650	0.562447	-0.193354
H359	H	1.531983	0.895780	0.139979
H360	H	1.865317	1.229113	0.473313
H361	H	1.202862	0.504616	-0.244240
H362	H	1.536195	0.837949	0.089093
H363	H	1.869529	1.171282	0.422426
H364	H	1.059426	0.404281	-0.742891
H365	H	1.392760	0.737615	-0.409557
H366	H	1.726093	1.070948	-0.076224
N367	N	0.971876	1.071484	-0.385215
N368	N	1.305209	1.404817	-0.051882
N369	N	1.638543	1.738151	0.281451
H370	H	0.979086	1.117899	-0.379151
H371	H	1.312419	1.451232	-0.045818
H372	H	1.645752	1.784566	0.287515
H373	H	0.918985	1.060090	-0.375418
H374	H	1.252319	1.393423	-0.042084
H375	H	1.585652	1.726756	0.291249
H376	H	0.984306	0.374582	-0.659754
H377	H	1.317640	0.707915	-0.326420
H378	H	1.650973	1.041249	0.006913
N379	N	1.168673	0.667810	-0.218727
N380	N	1.502006	1.001143	0.114607
N381	N	1.835340	1.334477	0.447940
H382	H	1.198677	0.637150	-0.193359
H383	H	1.532010	0.970483	0.139974
H384	H	1.865343	1.303817	0.473307
H385	H	1.138550	0.694994	-0.189713
H386	H	1.471884	1.028328	0.143620
H387	H	1.805217	1.361661	0.476953
N388	N	0.971814	0.935479	-0.385182
N389	N	1.305147	1.268812	-0.051848
N390	N	1.638481	1.602146	0.281485
H391	H	0.941807	0.966141	-0.410544
H392	H	1.275141	1.299475	-0.077210
H393	H	1.608474	1.632808	0.256123
H394	H	0.937547	0.908369	-0.359641
H395	H	1.270880	1.241702	-0.026308
H396	H	1.604213	1.575035	0.307026
H397	H	0.984166	0.540489	-0.374542
H398	H	1.317499	0.873822	-0.041209
H399	H	1.650833	1.207155	0.292124
H400	H	0.949205	0.861074	-0.310817
H401	H	1.282538	1.194407	0.022516
H402	H	1.615871	1.527740	0.355849
H403	H	0.984316	0.374490	-0.944680
H404	H	1.317649	0.707823	-0.611347
H405	H	1.650982	1.041157	-0.278013
N406	N	0.500550	0.417333	-0.327995
N407	N	0.833883	0.750666	0.005339
N408	N	1.167217	1.083999	0.338672
H409	H	0.544087	0.439298	-0.347715
H410	H	0.877420	0.772632	-0.014382
H411	H	1.210754	1.105965	0.318951
H412	H	0.469586	0.448658	-0.304274
H413	H	0.802919	0.781991	0.029059
H414	H	1.136253	1.115324	0.362393
N415	N	1.082530	0.184490	-0.870260
N416	N	1.415863	0.517823	-0.536926
N417	N	1.749197	0.851157	-0.203593
H418	H	1.081636	0.193038	-0.916676
H419	H	1.414970	0.526371	-0.583343
H420	H	1.748303	0.859705	-0.250009
H421	H	1.039726	0.156475	-0.858804
H422	H	1.373059	0.489808	-0.525470
H423	H	1.706393	0.823141	-0.192137
