data_functionalizedCrystal
_audit_creation_method	'MofGen! by Chris Wilmer'
_symmetry_space_group_name_H-M	'P1'
_symmetry_Int_Tables_number	1
_symmetry_cell_setting	triclinic
loop_
_symmetry_equiv_pos_as_xyz
  x,y,z
_cell_length_a	16.992694
_cell_length_b	16.956984
_cell_length_c	15.455313
_cell_angle_alpha	87.526226
_cell_angle_beta	92.865953
_cell_angle_gamma	83.360821
loop_
_atom_site_label
_atom_site_type_symbol
_atom_site_fract_x
_atom_site_fract_y
_atom_site_fract_z
O1	O	-1.025828	-0.171636	0.072025
O2	O	-0.797661	-0.169790	0.072050
O3	O	-0.925452	-0.055507	0.072030
O4	O	-0.898036	-0.285919	0.072045
O5	O	-0.932751	-0.048993	-0.072233
O6	O	-0.804960	-0.163275	-0.072213
O7	O	-1.033126	-0.165122	-0.072238
Cu8	Cu	-0.919709	-0.163604	-0.085398
Cu9	Cu	-0.911078	-0.171308	0.085210
O10	O	-0.905335	-0.279404	-0.072218
C11	C	-0.772251	-0.164156	-0.000078
C12	C	-0.685666	-0.157066	-0.000068
C13	C	-0.930506	-0.022632	-0.000101
C14	C	-0.934679	0.065623	-0.000101
C15	C	-1.058536	-0.170755	-0.000108
C16	C	-1.145120	-0.177846	-0.000112
C17	C	-0.900281	-0.312280	-0.000085
C18	C	-0.896107	-0.400535	-0.000079
C19	C	-0.630991	-0.225481	-0.000065
C20	C	-0.549637	-0.218814	-0.000077
C21	C	-0.522960	-0.143730	-0.000087
C22	C	-0.577642	-0.075310	-0.000094
C23	C	-0.658995	-0.081978	-0.000087
C24	C	-0.281155	-0.116094	-0.000112
C25	C	-0.199796	-0.109431	-0.000116
C26	C	-0.171796	-0.252935	-0.000101
C27	C	-0.253151	-0.259597	-0.000089
C28	C	-0.307827	-0.191176	-0.000100
N29	N	-0.439804	-0.136913	-0.000097
N30	N	-0.390982	-0.197994	-0.000097
C31	C	-0.864893	0.102154	-0.000089
C32	C	-0.868820	0.185079	-0.000092
C33	C	-0.942533	0.231472	-0.000100
C34	C	-1.012324	0.194936	-0.000115
C35	C	-1.008397	0.112012	-0.000118
C36	C	-0.961972	0.480005	-0.000097
C37	C	-0.965893	0.562934	-0.000091
C38	C	-0.822388	0.553072	-0.000070
C39	C	-0.818468	0.470147	-0.000068
C40	C	-0.888259	0.433618	-0.000087
N41	N	-0.946548	0.316234	-0.000100
N42	N	-0.884244	0.348857	-0.000093
N43	N	-0.905008	-0.176721	0.205207
N44	N	-0.925786	-0.158185	-0.205394
C45	C	-0.959389	-0.128276	0.250592
C46	C	-0.954796	-0.132368	0.341401
C47	C	-0.895819	-0.184901	0.386822
C48	C	-0.841436	-0.233352	0.341430
C49	C	-0.846032	-0.229263	0.250623
C50	C	-0.875999	-0.202547	0.658407
C51	C	-0.871405	-0.206630	0.749220
C52	C	-0.984767	-0.105646	0.749184
C53	C	-0.989355	-0.101559	0.658375
C54	C	-0.934974	-0.150013	0.612992
N55	N	-0.891123	-0.189084	0.479643
N56	N	-0.939675	-0.145834	0.520172
H57	H	-0.652704	-0.286622	-0.000056
H58	H	-0.758443	0.432379	-0.000059
H59	H	-0.505123	-0.274525	-0.000073
H60	H	-0.178080	-0.048286	-0.000123
H61	H	-0.555916	-0.014175	-0.000114
O62	O	-0.814187	-0.257779	0.793308
C63	C	-0.822743	-0.336241	0.771131
H64	H	-0.886471	-0.339644	0.746161
H65	H	-0.808088	-0.378187	0.830865
H66	H	-0.780587	-0.354340	0.718435
O67	O	-0.823148	-0.249493	0.614236
C68	C	-0.780475	-0.201407	0.561719
H69	H	-0.816401	-0.140709	0.548089
H70	H	-0.769139	-0.230871	0.497877
H71	H	-0.721381	-0.193759	0.596723
H72	H	-0.804868	0.064386	-0.000079
H73	H	-1.025922	0.600705	-0.000092
O74	O	-1.046552	-0.050443	0.614223
C75	C	-1.010687	0.003681	0.561671
H76	H	-0.947834	0.007870	0.589034
H77	H	-1.046800	0.064743	0.560631
H78	H	-1.008425	-0.017802	0.492854
H79	H	-0.801750	-0.268714	0.213671
H80	H	-0.703512	-0.026267	-0.000090
H81	H	-1.018801	0.450274	-0.000110
H82	H	-1.072343	0.232715	-0.000127
O83	O	-1.076201	0.076552	0.000029
C84	C	-1.117040	0.096447	0.074730
H85	H	-1.073496	0.113998	0.126957
H86	H	-1.145733	0.043013	0.099802
H87	H	-1.164914	0.148416	0.057835
O88	O	-0.800998	0.220518	0.000075
C89	C	-0.752605	0.193861	0.074788
H90	H	-0.790870	0.171593	0.127002
H91	H	-0.721368	0.245023	0.099872
H92	H	-0.706444	0.143414	0.057904
O93	O	-0.278931	-0.332592	-0.000123
C94	C	-0.213226	-0.391550	-0.000101
H95	H	-0.160724	-0.364531	-0.027419
H96	H	-0.229065	-0.441767	-0.041979
H97	H	-0.196757	-0.416028	0.069110
O98	O	-1.016709	-0.077348	0.206380
C99	C	-1.064697	-0.120706	0.153876
H100	H	-1.030151	-0.180181	0.140282
H101	H	-1.082492	-0.085495	0.090015
H102	H	-1.120251	-0.131501	0.188872
H103	H	-0.999078	-0.092921	0.378353
O104	O	-1.037527	-0.058464	0.793224
C105	C	-1.031218	0.021992	0.770990
H106	H	-0.970012	0.027639	0.746038
H107	H	-1.039841	0.058577	0.830691
H108	H	-1.078700	0.044820	0.718264
O109	O	-0.118581	-0.319312	-0.000136
C110	C	-0.041055	-0.297332	-0.000121
H111	H	-0.043360	-0.233524	-0.027437
H112	H	-0.003321	-0.338730	-0.042005
H113	H	-0.013792	-0.301968	0.069087
O114	O	-0.334150	-0.049554	-0.000081
C115	C	-0.293157	0.018144	-0.000110
H116	H	-0.229677	0.000626	0.027204
H117	H	-0.324329	0.064512	0.041767
H118	H	-0.292316	0.044037	-0.069323
O119	O	-0.754676	0.588686	-0.000097
C120	C	-0.773943	0.671823	-0.000074
H121	H	-0.837525	0.688622	-0.027391
H122	H	-0.731731	0.702084	-0.041953
H123	H	-0.768152	0.691991	0.069137
H124	H	-0.793418	-0.276130	0.378418
