data_functionalizedCrystal
_audit_creation_method	'MofGen! by Chris Wilmer'
_symmetry_space_group_name_H-M	'P1'
_symmetry_Int_Tables_number	1
_symmetry_cell_setting	triclinic
loop_
_symmetry_equiv_pos_as_xyz
  x,y,z
_cell_length_a	19.288859
_cell_length_b	14.971486
_cell_length_c	13.448316
_cell_angle_alpha	90.003552
_cell_angle_beta	90.007000
_cell_angle_gamma	96.626073
loop_
_atom_site_label
_atom_site_type_symbol
_atom_site_fract_x
_atom_site_fract_y
_atom_site_fract_z
O1	O	0.090519	-1.186448	0.082577
O2	O	0.590519	-0.686448	0.582577
O3	O	0.101359	-0.925989	0.082604
O4	O	0.601359	-0.425989	0.582604
O5	O	-0.005167	-1.063748	0.082584
O6	O	0.494833	-0.563748	0.582584
O7	O	0.197045	-1.048690	0.082597
O8	O	0.697045	-0.548690	0.582597
O9	O	-0.005176	-1.063745	-0.082800
O10	O	0.494824	-0.563745	0.417200
O11	O	0.101349	-0.925986	-0.082780
O12	O	0.601349	-0.425986	0.417220
O13	O	0.090510	-1.186445	-0.082807
O14	O	0.590510	-0.686445	0.417193
Cu15	Cu	0.095929	-1.056216	-0.097894
Cu16	Cu	0.595929	-0.556216	0.402106
Cu17	Cu	0.095940	-1.056219	0.097691
Cu18	Cu	0.595940	-0.556219	0.597691
O19	O	0.197036	-1.048687	-0.082787
O20	O	0.697036	-0.548687	0.417213
C21	C	0.100869	-0.892666	-0.000085
C22	C	0.600869	-0.392666	0.499915
C23	C	0.099417	-0.793376	-0.000074
C24	C	0.599417	-0.293376	0.499926
C25	C	-0.031050	-1.063263	-0.000107
C26	C	0.468950	-0.563263	0.499893
C27	C	-0.108159	-1.061811	-0.000105
C28	C	0.391841	-0.561811	0.499895
C29	C	0.090999	-1.219769	-0.000116
C30	C	0.590999	-0.719769	0.499884
C31	C	0.092452	-1.319058	-0.000120
C32	C	0.592452	-0.819058	0.499880
C33	C	-0.671968	-1.132821	-0.000087
C34	C	-0.171968	-0.632821	0.499913
C35	C	-0.599517	-1.134193	-0.000096
C36	C	-0.099517	-0.634193	0.499904
C37	C	-0.555074	-1.053363	-0.000087
C38	C	-0.055074	-0.553363	0.499913
C39	C	-0.583087	-0.971154	-0.000095
C40	C	-0.083087	-0.471154	0.499905
C41	C	-0.655536	-0.969785	-0.000096
C42	C	-0.155536	-0.469785	0.499904
C43	C	-0.433993	-0.993081	0.057859
C44	C	0.066007	-0.493081	0.557859
C45	C	-0.361545	-0.994454	0.057866
C46	C	0.138455	-0.494454	0.557866
C47	C	-0.331614	-1.057583	-0.000088
C48	C	0.168386	-0.557583	0.499912
C49	C	-0.374141	-1.119355	-0.058037
C50	C	0.125859	-0.619355	0.441963
C51	C	-0.446591	-1.117985	-0.058038
C52	C	0.053409	-0.617985	0.441962
C53	C	-0.476513	-1.054838	-0.000086
C54	C	0.023487	-0.554838	0.499914
C55	C	-0.225049	-1.141274	-0.000097
C56	C	0.274951	-0.641274	0.499903
C57	C	-0.152597	-1.142642	-0.000113
C58	C	0.347403	-0.642642	0.499887
C59	C	-0.136168	-0.979601	-0.000102
C60	C	0.363832	-0.479601	0.499898
C61	C	-0.208619	-0.978235	-0.000096
C62	C	0.291381	-0.478235	0.499904
C63	C	-0.253056	-1.059074	-0.000090
C64	C	0.246944	-0.559074	0.499910
C65	C	0.222918	-1.049172	-0.000093
C66	C	0.722918	-0.549172	0.499907
C67	C	0.300027	-1.050624	-0.000089
C68	C	0.800027	-0.550624	0.499911
N69	N	0.095942	-1.056222	0.235256
N70	N	0.595942	-0.556222	0.735256
C71	C	0.161998	-0.735811	-0.000072
C72	C	0.661998	-0.235811	0.499928
C73	C	0.160628	-0.642519	-0.000087
C74	C	0.660628	-0.142519	0.499913
C75	C	0.096678	-0.606794	-0.000097
C76	C	0.596678	-0.106794	0.499903
C77	C	0.034092	-0.664367	-0.000103
C78	C	0.534092	-0.164367	0.499897
C79	C	0.035462	-0.757657	-0.000095
C80	C	0.535462	-0.257657	0.499905
C81	C	0.031241	-0.469920	-0.000117
C82	C	0.531241	0.030080	0.499883
C83	C	0.029871	-0.376624	-0.000123
C84	C	0.529871	0.123376	0.499877
C85	C	0.156408	-0.354782	-0.000108
C86	C	0.656408	0.145218	0.499892
C87	C	0.157778	-0.448072	-0.000100
C88	C	0.657778	0.051928	0.499900
C89	C	0.095192	-0.505638	-0.000104
C90	C	0.595192	-0.005638	0.499896
N91	N	0.095921	-1.056220	-0.235459
N92	N	0.595921	-0.556220	0.264541
C93	C	0.048866	-1.117334	0.287287
C94	C	0.548866	-0.617334	0.787287
C95	C	0.048864	-1.117338	0.391390
C96	C	0.548864	-0.617338	0.891390
C97	C	0.095935	-1.056225	0.443460
C98	C	0.595935	-0.556225	0.943460
C99	C	0.143017	-0.995109	0.391421
C100	C	0.643017	-0.495109	0.891421
C101	C	0.143022	-0.995111	0.287320
C102	C	0.643022	-0.495111	0.787320
C103	C	0.143003	-0.995110	0.608401
C104	C	0.643003	-0.495110	1.108401
C105	C	0.142997	-0.995107	0.712510
C106	C	0.642997	-0.495107	1.212510
C107	C	0.048844	-1.117337	0.712472
C108	C	0.548844	-0.617337	1.212472
C109	C	0.048849	-1.117339	0.608370
C110	C	0.548849	-0.617339	1.108370
C111	C	0.095930	-1.056222	0.556339
C112	C	0.595930	-0.556222	1.056339
H113	H	-0.708144	-1.198647	-0.000087
H114	H	-0.208144	-0.698647	0.499913
Br115	Br	-0.504305	-1.201810	-0.136682
Br116	Br	-0.004305	-0.701810	0.363318
H117	H	-0.261232	-1.207098	-0.000093
H118	H	0.238768	-0.707098	0.499907
H119	H	0.010517	-1.167097	0.565975
H120	H	0.510517	-0.667097	1.065975
H121	H	0.211588	-0.595652	-0.000083
H122	H	0.711588	-0.095652	0.499917
H123	H	0.010510	-1.167101	0.754842
H124	H	0.510510	-0.667101	1.254842
H125	H	0.181343	-0.945345	0.566041
H126	H	0.681343	-0.445345	1.066041
Br127	Br	0.248793	-0.784285	-0.000047
Br128	Br	0.748793	-0.284285	0.499953
Br129	Br	-0.561499	-1.245755	-0.000109
Br130	Br	-0.061499	-0.745755	0.499891
H131	H	-0.015499	-0.804527	-0.000097
H132	H	0.484501	-0.304527	0.499903
Br133	Br	-0.333532	-1.205042	-0.136688
Br134	Br	0.166468	-0.705042	0.363312
H135	H	-0.129797	-1.209580	-0.000117
H136	H	0.370203	-0.709580	0.499883
Br137	Br	-0.075860	-0.869900	-0.000108
Br138	Br	0.424140	-0.369900	0.499892
Br139	Br	0.206919	-0.912174	0.216706
Br140	Br	0.706919	-0.412174	0.716706
Br141	Br	0.244569	-0.496556	-0.000071
Br142	Br	0.744569	0.003444	0.499929
H143	H	-0.231421	-0.911301	-0.000091
H144	H	0.268579	-0.411301	0.499909
Br145	Br	0.206907	-0.912174	0.462084
Br146	Br	0.706907	-0.412174	0.962084
Br147	Br	-0.015027	-1.200273	0.216632
Br148	Br	0.484973	-0.700273	0.716632
Br149	Br	-0.693546	-0.858222	-0.000099
Br150	Br	-0.193546	-0.358222	0.499901
H151	H	-0.326925	-0.944160	0.105056
H152	H	0.173075	-0.444160	0.605056
Br153	Br	-0.015024	-1.200281	0.462008
Br154	Br	0.484976	-0.700281	0.962008
H155	H	0.181329	-0.945343	0.754900
H156	H	0.681329	-0.445343	1.254900
Br157	Br	0.241347	-0.276658	-0.000102
Br158	Br	0.741347	0.223342	0.499898
Br159	Br	-0.053698	-0.548046	-0.000127
Br160	Br	0.446302	-0.048046	0.499873
Br161	Br	-0.056921	-0.328140	-0.000170
Br162	Br	0.443079	0.171860	0.499830
H163	H	-0.458355	-0.941661	0.105045
H164	H	0.041645	-0.441661	0.605045
H165	H	-0.546896	-0.905342	-0.000091
H166	H	-0.046896	-0.405342	0.499909
H167	H	-0.017978	-0.635273	-0.000126
H168	H	0.482022	-0.135273	0.499874
