data_functionalizedCrystal
_audit_creation_method	'MofGen! by Chris Wilmer'
_symmetry_space_group_name_H-M	'P1'
_symmetry_Int_Tables_number	1
_symmetry_cell_setting	triclinic
loop_
_symmetry_equiv_pos_as_xyz
  x,y,z
_cell_length_a	10.654554
_cell_length_b	12.503552
_cell_length_c	10.654550
_cell_angle_alpha	86.445056
_cell_angle_beta	84.485873
_cell_angle_gamma	93.558167
loop_
_atom_site_label
_atom_site_type_symbol
_atom_site_fract_x
_atom_site_fract_y
_atom_site_fract_z
O1	O	1.675026	0.089337	0.169229
O2	O	1.309549	0.089335	0.186029
O3	O	1.500690	0.089332	-0.005110
O4	O	1.483885	0.089340	0.360368
O5	O	1.486299	-0.089310	0.009278
O6	O	1.295157	-0.089307	0.200416
O7	O	1.660635	-0.089305	0.183616
Cu8	Cu	1.476582	-0.105618	0.193330
Cu9	Cu	1.493602	0.105648	0.176315
O10	O	1.469493	-0.089302	0.374755
C11	C	1.255555	0.000014	0.191988
C12	C	1.116112	0.000013	0.188294
N13	N	1.464620	-0.254210	0.205297
C14	C	0.933551	0.000024	0.068806
C15	C	1.064572	0.000013	0.072278
C16	C	1.036623	0.000012	0.300847
C17	C	0.905604	0.000015	0.297375
C18	C	0.949688	0.000029	-0.063157
C19	C	1.080709	0.000018	-0.059686
C20	C	1.523163	-0.526644	0.146732
C21	C	1.447035	-0.473319	0.222900
C22	C	1.456822	-0.351396	0.213103
C23	C	1.513377	-0.648579	0.156527
C24	C	1.714629	0.000019	0.177657
C25	C	1.854072	0.000027	0.181351
C26	C	1.492261	0.000012	-0.044714
C27	C	1.488569	0.000016	-0.184158
N28	N	1.505573	0.254240	0.164339
C29	C	1.601110	0.000014	-0.263641
C30	C	1.597634	0.000021	-0.394663
C31	C	1.369066	0.000029	-0.366704
C32	C	1.372544	0.000029	-0.235686
C33	C	1.733072	0.000004	-0.279784
C34	C	1.729596	0.000012	-0.410805
C35	C	1.477923	0.000020	0.414359
C36	C	1.481615	0.000023	0.553802
H37	H	0.840895	0.000005	0.389021
H38	H	1.775691	0.077145	-0.462660
Br39	Br	1.326156	-0.549843	0.343852
Br40	Br	0.900648	0.128591	-0.143539
H41	H	1.595684	-0.480735	0.074170
H42	H	1.768880	-0.077130	-0.237944
Br43	Br	1.829138	0.124597	-0.240872
H44	H	1.280903	0.000046	-0.170975
Br45	Br	1.211611	0.000053	-0.436644
H46	H	1.078596	0.000002	0.395311
Br47	Br	1.802426	-0.124587	-0.470384
H48	H	1.128489	0.074780	-0.115422
Br49	Br	0.890698	-0.124566	-0.139143
H50	H	1.120133	-0.077119	-0.093350
