data_functionalizedCrystal
_audit_creation_method	'MofGen! by Chris Wilmer'
_symmetry_space_group_name_H-M	'P1'
_symmetry_Int_Tables_number	1
_symmetry_cell_setting	triclinic
loop_
_symmetry_equiv_pos_as_xyz
  x,y,z
_cell_length_a	27.440280
_cell_length_b	23.096457
_cell_length_c	23.096457
_cell_angle_alpha	60.008701
_cell_angle_beta	90.016954
_cell_angle_gamma	59.998890
loop_
_atom_site_label
_atom_site_type_symbol
_atom_site_fract_x
_atom_site_fract_y
_atom_site_fract_z
Zr1	Zr	0.469500	0.633665	-0.075885
O2	O	0.391665	0.754463	-0.168342
O3	O	0.493359	0.512875	-0.047546
O4	O	0.493337	0.633663	-0.168332
O5	O	0.391705	0.633674	0.047726
O6	O	0.573540	0.633652	-0.168320
O7	O	0.391686	0.633675	-0.047556
O8	O	0.573578	0.417585	0.047744
O9	O	0.391667	0.849741	-0.168338
O10	O	0.563391	0.562546	-0.035446
O11	O	0.503550	0.562554	0.035653
O12	O	0.503525	0.704766	-0.106557
O13	O	0.443685	0.704773	-0.035458
Zr14	Zr	0.597444	0.633645	0.076098
Zr15	Zr	0.597414	0.633647	-0.075866
Zr16	Zr	0.469530	0.633663	0.076079
Zr17	Zr	0.469503	0.785622	-0.075879
Zr18	Zr	0.597441	0.481687	0.076091
O19	O	0.573586	0.754434	0.047758
O20	O	0.573542	0.754438	-0.168315
O21	O	0.391708	0.754460	0.047731
O22	O	0.675279	0.512846	0.168554
O23	O	0.675236	0.512850	-0.047519
O24	O	0.493402	0.512872	0.168527
O25	O	0.675239	0.633636	-0.047514
O26	O	0.573607	0.633646	0.168544
O27	O	0.493404	0.633658	0.168532
O28	O	0.675258	0.633634	0.047768
O29	O	0.493342	0.849727	-0.168323
O30	O	0.573603	0.417583	0.168535
O31	O	0.675277	0.417569	0.168550
O32	O	0.675253	0.417571	0.047759
O33	O	0.391691	0.849739	-0.047547
O34	O	0.493366	0.849725	-0.047532
O35	O	0.563419	0.562544	0.106769
O36	O	0.623259	0.562537	0.035670
O37	O	0.563394	0.704756	-0.035440
O38	O	0.503553	0.704763	0.035659
C39	C	0.533468	0.443579	0.000098
C40	C	0.533467	0.379070	0.000095
C41	C	0.564699	0.348765	-0.037020
C42	C	0.564704	0.288143	-0.037014
C43	C	0.533467	0.257839	0.000097
C44	C	0.502233	0.288148	0.037221
C45	C	0.502233	0.348763	0.037220
N46	N	0.482620	0.195450	-0.005057
N47	N	0.482621	0.137870	-0.005060
C48	C	0.533466	0.075207	0.000104
N49	N	0.584309	0.072308	0.005257
N50	N	0.584307	0.129896	0.005256
C51	C	0.533464	0.192111	0.000103
C52	C	0.564707	-0.020832	-0.037007
C53	C	0.564715	-0.081459	-0.036996
C54	C	0.502238	-0.081447	0.037234
C55	C	0.502236	-0.020827	0.037228
C56	C	0.533469	0.009479	0.000104
C57	C	0.373471	0.633677	0.000082
C58	C	0.319168	0.633685	0.000074
C59	C	0.013720	0.559404	0.037245
C60	C	-0.037299	0.559400	0.037251
O61	O	-0.037111	0.496264	0.068841
N62	N	-0.094065	0.633636	0.000131
C63	C	-0.099812	0.707882	-0.036991
O64	O	-0.152780	0.771025	-0.068563
C65	C	-0.048794	0.707885	-0.036993
C66	C	0.007972	0.633644	0.000123
C67	C	0.070482	0.485169	0.074359
C68	C	0.121497	0.485174	0.074351
C69	C	0.115749	0.559414	0.037230
C70	C	0.058986	0.633649	0.000116
C71	C	-0.054541	0.782130	-0.074111
C72	C	-0.003517	0.782127	-0.074109
C73	C	0.053248	0.707886	-0.036993
C74	C	0.104253	0.707894	-0.037013
N75	N	0.161019	0.633658	0.000107
C76	C	0.166767	0.559418	0.037228
C77	C	-0.206950	0.707868	-0.036984
C78	C	-0.257968	0.707865	-0.036987
C79	C	-0.195451	0.559383	0.037257
C80	C	-0.144433	0.559387	0.037255
C81	C	-0.150184	0.633632	0.000136
C82	C	0.273899	0.559433	0.037209
C83	C	0.324916	0.559445	0.037196
C84	C	0.262395	0.707926	-0.037045
C85	C	0.211383	0.707916	-0.037035
C86	C	0.217139	0.633662	0.000097
O87	O	0.104111	0.770997	-0.068585
O88	O	0.219737	0.496285	0.068803
C89	C	0.693473	0.633633	0.000130
C90	C	0.747776	0.633625	0.000138
C91	C	0.533434	0.633658	-0.189977
C92	C	0.533421	0.633659	-0.254490
C93	C	0.533476	0.823730	0.000114
C94	C	0.533478	0.888240	0.000117
C95	C	0.502175	0.707894	-0.321913
C96	C	0.502190	0.707895	-0.382529
C97	C	0.533444	0.633657	-0.375719
C98	C	0.564697	0.559413	-0.308284
C99	C	0.564685	0.559414	-0.247669
N100	N	0.529131	0.578402	-0.443277
N101	N	0.529138	0.578406	-0.500861
C102	C	0.533480	0.633650	-0.558344
N103	N	0.537803	0.688902	-0.556075
N104	N	0.537793	0.688900	-0.498487
C105	C	0.533459	0.633648	-0.441441
C106	C	0.502249	0.707891	-0.691497
C107	C	0.502268	0.707889	-0.752113
C108	C	0.564771	0.559405	-0.677865
C109	C	0.564755	0.559409	-0.617251
C110	C	0.533491	0.633654	-0.624072
C111	C	0.533510	0.633652	0.190190
C112	C	0.533523	0.633651	0.254702
C113	C	0.693469	0.443557	0.000122
C114	C	0.747771	0.379040	0.000127
C115	C	0.533506	0.443576	0.190182
C116	C	0.533518	0.379065	0.254692
C117	C	0.693507	0.443554	0.190205
C118	C	0.747822	0.379035	0.254723
C119	C	0.373437	0.823756	-0.189993
C120	C	0.319123	0.888274	-0.254511
C121	C	0.373475	0.823753	0.000090
C122	C	0.319173	0.888270	0.000085
C123	C	0.533438	0.823734	-0.189969
C124	C	0.533427	0.888245	-0.254479
C125	C	0.742020	0.348747	-0.036999
C126	C	0.793038	0.288134	-0.037008
C127	C	0.849804	0.257811	0.000114
C128	C	0.855554	0.288111	0.037241
C129	C	0.804537	0.348726	0.037245
C130	C	0.564774	0.348765	0.322115
C131	C	0.564782	0.288159	0.382734
C132	C	0.533538	0.257849	0.375929
C133	C	0.502278	0.288155	0.308499
C134	C	0.502266	0.348765	0.247881
C135	C	0.804570	0.348733	0.247909
C136	C	0.855609	0.288120	0.308524
C137	C	0.849898	0.257805	0.375954
C138	C	0.793145	0.288114	0.382767
C139	C	0.742107	0.348730	0.322152
C140	C	0.262375	0.918584	-0.247697
C141	C	0.211335	0.979216	-0.308312
C142	C	0.217046	1.009534	-0.375742
C143	C	0.273800	0.979222	-0.382555
C144	C	0.324837	0.918595	-0.321940
C145	C	0.324924	0.918570	0.037205
C146	C	0.273907	0.979199	0.037197
C147	C	0.217140	1.009524	0.000074
C148	C	0.211391	0.979222	-0.037051
C149	C	0.262407	0.918597	-0.037047
C150	C	0.564677	0.918535	-0.247652
C151	C	0.564678	0.979142	-0.308260
C152	C	0.533424	1.009461	-0.375695
C153	C	0.502173	0.979165	-0.382521
C154	C	0.502176	0.918555	-0.321914
H155	H	0.476799	0.373438	0.067444
H156	H	0.590132	0.373437	-0.067247
H157	H	0.476727	1.003861	-0.437435
H158	H	0.590217	0.373436	0.327669
H159	H	0.476725	0.893900	-0.327483
H160	H	0.590219	0.498959	-0.672319
H161	H	0.533427	1.058814	-0.425039
H162	H	0.257714	0.893903	-0.192797
H163	H	0.590130	0.498961	-0.192769
H164	H	0.891462	0.208447	0.425305
H165	H	0.175483	1.058900	-0.425093
H166	H	0.476804	-0.106120	0.067452
H167	H	0.278442	1.003914	-0.437463
H168	H	0.590126	1.003802	-0.302688
H169	H	0.371043	0.893917	-0.327497
H170	H	0.371142	0.893884	0.067440
H171	H	0.167714	0.424719	0.104572
H172	H	0.476815	0.373427	0.192984
H173	H	0.695803	0.373435	-0.067236
H174	H	-0.098216	0.498933	0.067485
H175	H	0.165129	1.003886	-0.302751
H176	H	0.476792	0.768346	-0.697051
H177	H	0.590240	0.263491	0.437633
H178	H	-0.190779	0.498933	0.067481
H179	H	0.809230	0.373406	0.193010
H180	H	0.476720	0.768351	-0.327473
H181	H	0.175604	1.058888	0.000076
H182	H	0.590138	0.263464	-0.067239
H183	H	0.590128	0.893858	-0.192748
H184	H	-0.211641	0.768331	-0.067214
H185	H	0.788345	0.263472	-0.067241
H186	H	0.075173	0.424711	0.104591
H187	H	0.278599	1.003860	0.067431
H188	H	0.165164	1.003921	-0.067276
H189	H	-0.304185	0.768320	-0.067220
H190	H	0.901816	0.263449	0.302964
H191	H	0.788504	0.263423	0.437677
H192	H	0.809227	0.373383	0.067482
H193	H	0.695902	0.373394	0.327711
H194	H	0.476826	0.768343	-0.807013
H195	H	0.590197	0.498959	-0.562351
H196	H	0.891341	0.208454	0.000105
H197	H	0.257717	0.893929	-0.067272
H198	H	0.533552	0.208497	0.425294
H199	H	0.590141	0.003842	-0.067234
H200	H	0.590144	0.498968	-0.302742
H201	H	0.476800	0.263470	0.067438
H202	H	0.590151	-0.106137	-0.067217
H203	H	0.901780	0.263413	0.067464
H204	H	0.476801	0.003850	0.067449
H205	H	0.371137	0.498986	0.067423
H206	H	0.476839	0.263468	0.302969
H207	H	-0.100754	0.842585	-0.104334
H208	H	0.278595	0.498970	0.067446
H209	H	-0.008207	0.842588	-0.104328
H210	H	0.476744	0.768348	-0.437435
H211	H	0.165161	0.768369	-0.067267
H212	H	0.257725	0.768371	-0.067270
