data_functionalizedCrystal
_audit_creation_method	'MofGen! by Chris Wilmer'
_symmetry_space_group_name_H-M	'P1'
_symmetry_Int_Tables_number	1
_symmetry_cell_setting	triclinic
loop_
_symmetry_equiv_pos_as_xyz
  x,y,z
_cell_length_a	17.699083
_cell_length_b	19.188930
_cell_length_c	16.176319
_cell_angle_alpha	89.988074
_cell_angle_beta	89.998611
_cell_angle_gamma	83.213899
loop_
_atom_site_label
_atom_site_type_symbol
_atom_site_fract_x
_atom_site_fract_y
_atom_site_fract_z
O1	O	1.003963	0.088294	-0.068640
O2	O	0.783569	0.099782	-0.068668
O3	O	0.900126	-0.007610	-0.068637
O4	O	0.887406	0.195687	-0.068671
O5	O	0.900110	-0.007617	0.068856
O6	O	0.783553	0.099775	0.068825
O7	O	1.003947	0.088288	0.068853
Cu8	Cu	0.893748	0.094031	0.081393
Cu9	Cu	0.893767	0.094039	-0.081208
O10	O	0.887390	0.195680	0.068822
C11	C	0.755365	0.099367	0.000075
C12	C	0.671348	0.098132	0.000065
C13	C	0.622644	0.161169	0.000055
C14	C	0.543702	0.160004	0.000065
C15	C	0.513466	0.095802	0.000081
C16	C	0.562176	0.032761	0.000093
C17	C	0.641117	0.033926	0.000088
C18	C	0.243819	0.028060	0.000115
C19	C	0.164873	0.026900	0.000117
C20	C	0.146405	0.154139	0.000092
C21	C	0.225345	0.155304	0.000087
C22	C	0.274049	0.092263	0.000104
C23	C	0.359646	0.093526	0.000094
C24	C	0.427870	0.094538	0.000085
C25	C	0.899706	-0.033625	0.000112
C26	C	0.898469	-0.111131	0.000119
C27	C	0.966861	-0.155978	0.000131
C28	C	0.965699	-0.228804	0.000118
C29	C	0.896142	-0.256778	0.000108
C30	C	0.827741	-0.211921	0.000091
C31	C	0.828905	-0.139098	0.000096
N32	N	0.842968	-0.364845	0.046893
N33	N	0.841868	-0.434025	0.046890
C34	C	0.892632	-0.476191	0.000091
N35	N	0.944550	-0.446565	-0.046694
N36	N	0.945653	-0.377379	-0.046687
C37	C	0.894873	-0.335742	0.000102
C38	C	0.959769	-0.600004	0.000088
C39	C	0.958604	-0.672830	0.000070
C40	C	0.820644	-0.655946	0.000051
C41	C	0.821811	-0.583121	0.000061
C42	C	0.891375	-0.555155	0.000084
C43	C	1.032151	0.088703	0.000108
C44	C	1.116167	0.089938	0.000113
C45	C	0.887810	0.221695	0.000071
C46	C	0.889046	0.299201	0.000059
N47	N	0.893741	0.094025	0.195758
N48	N	0.893781	0.094039	-0.195574
C49	C	0.945367	0.046491	0.239036
C50	C	0.945371	0.046490	0.325584
C51	C	0.893751	0.094027	0.368851
C52	C	0.842119	0.141563	0.325567
C53	C	0.842112	0.141560	0.239022
C54	C	0.842145	0.141576	0.674595
C55	C	0.842157	0.141577	0.761147
C56	C	0.945404	0.046506	0.761157
C57	C	0.945397	0.046503	0.674612
C58	C	0.893763	0.094036	0.631335
C59	C	0.893758	0.094036	0.537491
C60	C	0.893759	0.094031	0.462694
H61	H	0.504050	0.211335	0.000056
H62	H	0.283465	-0.023272	0.000129
N63	N	0.998143	-0.002065	0.805352
N64	N	1.044227	-0.044504	0.766709
H65	H	1.081475	-0.078807	0.797918
N66	N	0.531281	-0.032815	0.000118
N67	N	0.460798	-0.033848	0.000121
H68	H	0.438978	-0.080162	0.000137
N69	N	0.690870	-0.030464	0.000116
N70	N	0.688239	-0.073191	0.058086
H71	H	0.723378	-0.118668	0.058111
N72	N	0.789423	0.190137	0.630384
N73	N	0.789422	0.190135	0.553112
H74	H	0.752188	0.224436	0.521883
N75	N	0.751956	-0.537297	0.000067
N76	N	0.753004	-0.472277	0.000075
H77	H	0.703667	-0.439912	0.000078
N78	N	0.756691	-0.240494	0.000103
N79	N	0.710632	-0.226721	0.058058
H80	H	0.660450	-0.246901	0.058066
H81	H	0.987405	0.007784	0.203814
H82	H	1.016412	-0.577233	0.000103
N83	N	0.789431	0.190133	0.805358
N84	N	0.813300	0.233448	0.853635
H85	H	0.776065	0.267739	0.884861
N86	N	1.037911	-0.127403	0.000156
N87	N	1.053943	-0.088661	0.058118
H88	H	1.104123	-0.068478	0.058135
H89	H	0.800085	0.180266	0.360800
N90	N	0.749592	-0.684511	0.000057
N91	N	0.703531	-0.670740	0.058010
H92	H	0.653347	-0.690917	0.058013
N93	N	0.998109	-0.002072	0.369778
N94	N	1.044196	-0.044510	0.331137
H95	H	1.081444	-0.078811	0.362348
H96	H	1.014299	-0.709345	0.000076
N97	N	1.035570	-0.274615	0.000130
N98	N	1.097673	-0.249636	0.000148
H99	H	1.147020	-0.281987	0.000158
H100	H	0.800071	0.180266	0.203785
N101	N	0.998130	-0.002063	0.630433
N102	N	0.997315	-0.066598	0.640122
H103	H	1.034559	-0.100900	0.608923
N104	N	0.653539	0.226745	0.000032
N105	N	0.695526	0.241594	-0.057930
H106	H	0.717344	0.287909	-0.057944
N107	N	0.256217	0.220891	0.000063
N108	N	0.212722	0.277171	0.000054
H109	H	0.234524	0.323494	0.000039
N110	N	0.096654	0.218536	0.000102
N111	N	0.099293	0.261261	0.058052
H112	H	0.064158	0.306741	0.058059
H113	H	0.140258	-0.025384	0.000131
H114	H	0.773210	-0.102582	0.000086
