data_functionalizedCrystal
_audit_creation_method	'MofGen! by Chris Wilmer'
_symmetry_space_group_name_H-M	'P1'
_symmetry_Int_Tables_number	1
_symmetry_cell_setting	triclinic
loop_
_symmetry_equiv_pos_as_xyz
  x,y,z
_cell_length_a	13.339070
_cell_length_b	11.792241
_cell_length_c	12.376457
_cell_angle_alpha	101.354533
_cell_angle_beta	75.589755
_cell_angle_gamma	99.911355
loop_
_atom_site_label
_atom_site_type_symbol
_atom_site_fract_x
_atom_site_fract_y
_atom_site_fract_z
O1	O	1.364732	0.554298	-0.094048
O2	O	1.069793	0.479486	-0.094041
O3	O	1.224419	0.353927	-0.094037
O4	O	1.210107	0.679857	-0.094053
O5	O	1.185776	0.385262	0.093974
O6	O	1.031151	0.510821	0.093970
O7	O	1.326090	0.585633	0.093963
Zn8	Zn	1.172485	0.553202	0.123817
Zn9	Zn	1.223398	0.511917	-0.123896
O10	O	1.171464	0.711191	0.093958
C11	C	1.012713	0.482516	-0.000035
C12	C	0.900204	0.444848	-0.000032
C13	C	0.537024	0.737736	-0.000064
C14	C	0.642733	0.773131	-0.000070
C15	C	0.707105	0.691063	-0.000060
C16	C	0.665760	0.573595	-0.000045
C17	C	0.560044	0.538195	-0.000047
C18	C	0.730125	0.491522	-0.000044
C19	C	0.688780	0.374054	-0.000028
C20	C	0.583073	0.338661	-0.000030
C21	C	0.518700	0.420728	-0.000040
C22	C	0.835841	0.526922	-0.000041
C23	C	0.858861	0.327381	-0.000025
C24	C	0.753152	0.291986	-0.000018
C25	C	1.204198	0.327027	-0.000032
C26	C	1.201507	0.200184	-0.000033
C27	C	1.196562	-0.032056	-0.000052
C28	C	1.199310	0.097178	-0.000042
C29	C	1.383170	0.582602	-0.000046
C30	C	1.495681	0.620269	-0.000057
C31	C	1.191685	0.738092	-0.000049
C32	C	1.194378	0.864933	-0.000056
N33	N	1.137745	0.581379	0.292874
N34	N	1.258146	0.483733	-0.292953
C35	C	1.338788	0.418302	0.647865
C36	C	1.363097	0.398579	0.529526
C37	C	1.306760	0.444277	0.470357
C38	C	1.226112	0.509702	0.529539
C39	C	1.201806	0.529435	0.647890
C40	C	1.169779	0.555410	0.470382
C41	C	1.089130	0.620835	0.529564
C42	C	1.064828	0.640564	0.647903
C43	C	1.121164	0.594866	0.707072
C44	C	1.194085	0.535677	0.352031
C45	C	1.057103	0.646810	0.352056
C46	C	1.032794	0.666533	0.470396
H47	H	0.484605	0.804541	-0.000082
C48	C	0.977424	0.711795	0.712223
C49	C	1.017835	0.809768	0.780124
C50	C	0.937353	0.875419	0.839378
H51	H	0.925495	0.665422	0.758495
H52	H	0.947357	0.736262	0.660077
H53	H	1.047886	0.785300	0.832264
H54	H	1.069755	0.856169	0.733880
H55	H	0.907285	0.899887	0.787233
H56	H	0.885428	0.829037	0.885644
H57	H	0.964761	0.941906	0.885448
H58	H	0.967129	0.719805	0.518596
H59	H	0.432622	0.391916	-0.000035
H60	H	1.011231	0.684024	0.303882
H61	H	0.549416	0.243008	-0.000030
H62	H	1.428760	0.345312	0.481344
C63	C	0.708074	0.164495	-0.000068
C64	C	0.601727	0.151064	-0.000099
C65	C	0.560170	0.033634	-0.000160
H66	H	0.716539	0.140102	0.065481
H67	H	0.743552	0.118339	-0.065655
H68	H	0.566260	0.197203	0.065481
H69	H	0.593233	0.175431	-0.065643
H70	H	0.595647	-0.012521	-0.065747
H71	H	0.568642	0.009252	0.065390
H72	H	0.488012	0.024504	-0.000192
H73	H	1.259749	0.482408	0.303856
H74	H	0.676390	0.868772	-0.000091
H75	H	1.101370	0.610920	0.803434
H76	H	0.869493	0.622565	-0.000049
H77	H	0.911274	0.260553	-0.000021
C78	C	1.333268	0.422679	0.341874
C79	C	1.415933	0.355575	0.302708
C80	C	1.440370	0.335635	0.184351
H81	H	1.353093	0.495173	0.314946
H82	H	1.273941	0.382154	0.315081
H83	H	1.475248	0.396101	0.329489
H84	H	1.396131	0.283069	0.329604
H85	H	1.381044	0.295110	0.157559
H86	H	1.460192	0.408134	0.157435
H87	H	1.496454	0.290095	0.157762
H88	H	1.384655	0.381108	0.696048
H89	H	0.793178	0.719888	-0.000068
