data_functionalizedCrystal
_audit_creation_method	'MofGen! by Chris Wilmer'
_symmetry_space_group_name_H-M	'P1'
_symmetry_Int_Tables_number	1
_symmetry_cell_setting	triclinic
loop_
_symmetry_equiv_pos_as_xyz
  x,y,z
_cell_length_a	23.532361
_cell_length_b	23.532407
_cell_length_c	12.996460
_cell_angle_alpha	89.989202
_cell_angle_beta	89.998689
_cell_angle_gamma	82.839173
loop_
_atom_site_label
_atom_site_type_symbol
_atom_site_fract_x
_atom_site_fract_y
_atom_site_fract_z
O1	O	0.755277	0.069010	-0.085474
O2	O	0.589410	0.079041	-0.085500
O3	O	0.677346	-0.008907	-0.085467
O4	O	0.667342	0.156958	-0.085507
O5	O	0.677337	-0.008912	0.085666
O6	O	0.589401	0.079036	0.085634
O7	O	0.755268	0.069005	0.085660
Cu8	Cu	0.672334	0.074020	0.101273
Cu9	Cu	0.672345	0.074025	-0.101113
O10	O	0.667333	0.156953	0.085627
C11	C	0.568189	0.078787	0.000064
C12	C	0.504971	0.078032	0.000055
C13	C	0.677086	-0.030126	0.000102
C14	C	0.676320	-0.093343	0.000110
C15	C	0.231732	0.074731	-0.093224
C16	C	0.291132	0.075446	-0.093226
O17	O	0.321862	0.075798	-0.172560
N18	N	0.320832	0.075804	0.000059
C19	C	0.291131	0.075442	0.093353
O20	O	0.321848	0.075812	0.172699
C21	C	0.231733	0.074723	0.093355
C22	C	0.202035	0.074370	0.000063
C23	C	0.202034	0.074377	-0.186507
C24	C	0.142638	0.073664	-0.186504
C25	C	0.112940	0.073303	-0.093217
C26	C	0.142639	0.073657	0.000066
C27	C	0.202033	0.074357	0.186648
C28	C	0.142631	0.073637	0.186641
C29	C	0.112933	0.073285	0.093350
C30	C	0.053546	0.072582	0.093356
N31	N	0.023845	0.072224	0.000071
C32	C	0.053542	0.072584	-0.093216
C33	C	0.415871	0.076951	0.093343
C34	C	0.475268	0.077674	0.093342
C35	C	0.475264	0.077677	-0.093238
C36	C	0.415866	0.076958	-0.093236
C37	C	0.386171	0.076593	0.000057
C38	C	-0.071193	0.071086	-0.093202
C39	C	-0.130595	0.070374	-0.093191
C40	C	-0.130586	0.070369	0.093388
C41	C	-0.071190	0.071083	0.093378
C42	C	-0.041495	0.071440	0.000074
O43	O	0.022778	0.072227	0.172650
O44	O	0.022819	0.072206	-0.172549
C45	C	0.723555	-0.492454	0.000061
C46	C	0.722844	-0.551854	0.000053
O47	O	0.766630	-0.588606	0.000022
N48	N	0.670566	-0.574471	0.000045
C49	C	0.618997	-0.537685	0.000035
O50	O	0.574465	-0.562377	0.000027
C51	C	0.619709	-0.478286	0.000036
C52	C	0.671990	-0.455672	0.000054
C53	C	0.775832	-0.469839	0.000078
C54	C	0.776543	-0.410443	0.000087
C55	C	0.724977	-0.373662	0.000081
C56	C	0.672701	-0.396276	0.000064
C57	C	0.568140	-0.441501	0.000019
C58	C	0.568857	-0.382099	0.000018
C59	C	0.621137	-0.359485	0.000036
C60	C	0.621847	-0.300099	0.000067
N61	N	0.674124	-0.277481	0.000074
C62	C	0.725690	-0.314263	0.000081
C63	C	0.617505	-0.662427	0.000032
C64	C	0.616793	-0.721825	0.000039
C65	C	0.720640	-0.735990	0.000055
C66	C	0.721352	-0.676591	0.000055
C67	C	0.669783	-0.639810	0.000040
C68	C	0.727179	-0.189526	0.000103
C69	C	0.727886	-0.130124	0.000117
C70	C	0.624039	-0.115965	0.000096
C71	C	0.623332	-0.175361	0.000087
C72	C	0.674907	-0.212141	0.000087
O73	O	0.578083	-0.263312	0.000094
O74	O	0.770214	-0.289562	0.000076
C75	C	0.776489	0.069258	0.000094
C76	C	0.839708	0.070014	0.000096
C77	C	0.667592	0.178171	0.000055
C78	C	0.668358	0.241388	0.000041
N79	N	0.672331	0.074015	0.243620
N80	N	0.672353	0.074025	-0.243460
C81	C	0.672344	0.074026	0.663434
C82	C	0.672339	0.074025	0.546629
C83	C	0.672338	0.074021	0.453531
C84	C	0.672332	0.074019	0.336718
H85	H	-0.154773	0.070089	-0.169163
O86	O	0.230887	0.074794	0.277245
C87	C	0.258527	0.124529	0.282831
H88	H	0.235927	0.158801	0.229892
H89	H	0.256936	0.141083	0.365342
H90	H	0.305068	0.113918	0.257779
H91	H	0.118463	0.073374	-0.262472
O92	O	-0.042264	0.071356	0.183931
C93	C	-0.001186	0.022427	0.189536
H94	H	0.009955	0.006089	0.108543
H95	H	0.039071	0.034020	0.229012
H96	H	-0.019367	-0.012390	0.235582
O97	O	-0.042445	0.071461	-0.183928
C98	C	-0.081403	0.070984	-0.266251
H99	H	-0.126203	0.088502	-0.238887
H100	H	-0.068024	0.098851	-0.331503
H101	H	-0.081484	0.025214	-0.294932
H102	H	0.226207	0.074669	-0.262477
H103	H	0.391690	0.076670	-0.169202
O104	O	0.113870	0.073310	0.277362
C105	C	0.152827	0.073760	0.359693
H106	H	0.192706	0.092304	0.332334
H107	H	0.131894	0.101203	0.424937
H108	H	0.165383	0.028138	0.388382
H109	H	0.499442	0.077971	0.169309
H110	H	-0.154776	0.070077	0.169340
O111	O	0.770785	-0.771645	0.000098
C112	C	0.817084	-0.738953	0.000079
H113	H	0.802376	-0.694538	0.032484
H114	H	0.853190	-0.761082	0.049763
H115	H	0.833127	-0.734804	-0.082021
O116	O	0.518797	-0.346313	0.000143
C117	C	0.516084	-0.311552	0.088791
H118	H	0.561269	-0.308804	0.118354
H119	H	0.494607	-0.266783	0.068857
H120	H	0.490184	-0.330959	0.150844
H121	H	0.499455	0.077970	-0.169197
O122	O	0.387110	0.076631	0.184067
C123	C	0.426070	0.077088	0.266392
H124	H	0.465947	0.095632	0.239024
H125	H	0.405137	0.104535	0.331633
H126	H	0.438627	0.031469	0.295091
O127	O	0.778724	-0.108253	0.000084
C128	C	0.824083	-0.153459	0.000110
H129	H	0.808352	-0.193718	-0.032297
H130	H	0.860606	-0.141247	-0.049567
H131	H	0.839968	-0.161967	0.082213
H132	H	0.769176	-0.219466	0.000099
O133	O	0.772101	-0.654558	-0.000073
C134	C	0.775634	-0.620629	-0.088720
H135	H	0.730662	-0.605573	-0.118277
H136	H	0.798113	-0.581862	-0.068787
H137	H	0.800983	-0.647015	-0.150778
H138	H	0.574220	-0.740232	0.000042
H139	H	0.817825	-0.499782	0.000080
O140	O	0.827379	-0.388575	0.000051
C141	C	0.872733	-0.433786	0.000079
H142	H	0.856997	-0.474044	-0.032323
H143	H	0.909257	-0.421580	-0.049602
H144	H	0.888619	-0.442293	0.082182
O145	O	0.567355	-0.626781	0.000078
C146	C	0.521066	-0.659487	0.000046
H147	H	0.535786	-0.703908	0.032444
H148	H	0.484954	-0.637381	0.049729
H149	H	0.505029	-0.663619	-0.082057
H150	H	0.525567	-0.459902	-0.000002
O151	O	0.572498	-0.197237	0.000028
C152	C	0.527138	-0.152032	0.000054
H153	H	0.542872	-0.111761	-0.032323
H154	H	0.490623	-0.164228	-0.049650
H155	H	0.511240	-0.143554	0.082153
O156	O	0.574003	-0.080149	0.000042
C157	C	0.585848	-0.022875	0.000075
H158	H	0.630573	-0.020853	-0.032308
H159	H	0.552967	0.004234	-0.049621
H160	H	0.583582	-0.005691	0.082176
