data_functionalizedCrystal
_audit_creation_method	'MofGen! by Chris Wilmer'
_symmetry_space_group_name_H-M	'P1'
_symmetry_Int_Tables_number	1
_symmetry_cell_setting	triclinic
loop_
_symmetry_equiv_pos_as_xyz
  x,y,z
_cell_length_a	21.295418
_cell_length_b	12.759400
_cell_length_c	12.759393
_cell_angle_alpha	90.030210
_cell_angle_beta	89.959415
_cell_angle_gamma	89.969501
loop_
_atom_site_label
_atom_site_type_symbol
_atom_site_fract_x
_atom_site_fract_y
_atom_site_fract_z
Zn1	Zn	0.962405	0.417775	-0.594609
Zn2	Zn	0.962343	0.593489	-0.418929
Zn3	Zn	0.857134	0.417874	-0.418880
Zn4	Zn	0.857127	0.593461	-0.594502
O5	O	0.909752	0.505650	-0.506730
O6	O	1.050486	0.441054	-0.571370
O7	O	0.948363	0.570247	-0.271901
O8	O	0.871128	0.270839	-0.442215
O9	O	1.050440	0.570151	-0.442299
O10	O	0.948470	0.270767	-0.571322
O11	O	0.871067	0.441223	-0.271865
O12	O	0.769044	0.441195	-0.442111
O13	O	0.871116	0.570102	-0.741537
O14	O	0.769039	0.570198	-0.571140
O15	O	0.948463	0.441026	-0.741616
O16	O	0.948356	0.740507	-0.442195
O17	O	0.871055	0.740486	-0.571188
C18	C	0.909715	0.778617	-0.506708
C19	C	0.909757	0.895394	-0.506734
C20	C	0.746201	0.505705	-0.506609
C21	C	0.676233	0.505754	-0.506582
C22	C	0.909796	0.505550	-0.780764
C23	C	0.909814	0.505508	-0.897540
C24	C	0.643380	0.573015	-0.573667
C25	C	0.577637	0.572989	-0.573714
C26	C	0.544750	0.505713	-0.506658
C27	C	0.577611	0.438439	-0.439568
C28	C	0.643352	0.438460	-0.439530
N29	N	0.441476	0.497516	-0.414766
N30	N	0.379024	0.497503	-0.414805
C31	C	0.346675	0.505646	-0.506769
N32	N	0.379137	0.513824	-0.598696
N33	N	0.441594	0.513842	-0.598656
C34	C	0.473465	0.505683	-0.506692
C35	C	0.242537	0.572882	-0.573911
C36	C	0.176793	0.572849	-0.573960
C37	C	0.176768	0.438305	-0.439804
C38	C	0.242511	0.438333	-0.439765
C39	C	0.275391	0.505627	-0.506817
C40	C	1.073943	0.505595	-0.506852
C41	C	1.143911	0.505572	-0.506904
C42	C	0.909807	0.231616	-0.506775
C43	C	0.909830	0.114840	-0.506794
C44	C	0.950052	0.950232	-0.439642
C45	C	0.950091	1.059956	-0.439674
C46	C	0.869533	1.059994	-0.573894
C47	C	0.869498	0.950272	-0.573866
C48	C	0.990311	0.895353	-0.372510
C49	C	1.030609	0.950192	-0.305411
C50	C	1.030648	1.059916	-0.305444
C51	C	0.990388	1.114801	-0.372575
C52	C	0.950085	0.572614	-1.062150
C53	C	0.950066	0.572662	-0.952426
C54	C	0.869574	0.438310	-0.952384
C55	C	0.869590	0.438269	-1.062107
C56	C	0.990344	0.639765	-1.117030
C57	C	1.030584	0.706965	-1.062194
C58	C	1.030565	0.707012	-0.952469
C59	C	0.990307	0.639860	-0.897582
C60	C	0.909746	0.505673	-0.233763
C61	C	0.909849	0.505419	-0.116987
H62	H	0.550883	0.627760	-0.628347
H63	H	0.550830	0.383661	-0.384972
H64	H	0.269260	0.383567	-0.385132
C65	C	0.825170	0.889938	-0.647659
C66	C	0.753616	0.905149	-0.638936
C67	C	0.709288	0.844813	-0.712732
C68	C	0.736516	0.769266	-0.795250
C69	C	0.808074	0.754051	-0.803976
C70	C	0.852401	0.814387	-0.730180
H71	H	0.733457	0.961077	-0.577848
H72	H	0.656316	0.856076	-0.706271
H73	H	0.703702	0.724601	-0.849877
H74	H	0.828232	0.698124	-0.865064
H75	H	0.905373	0.803124	-0.736640
C76	C	0.825296	0.364439	-0.892010
C77	C	0.830460	0.244995	-0.907120
C78	C	0.786184	0.171120	-0.846747
C79	C	0.736745	0.216687	-0.771265
C80	C	0.731579	0.336137	-0.756152
C81	C	0.775855	0.410012	-0.816525
H82	H	0.867060	0.211258	-0.962999
H83	H	0.790008	0.082695	-0.857935
H84	H	0.703969	0.162000	-0.726573
H85	H	0.694980	0.369874	-0.700272
H86	H	0.772031	0.498437	-0.805337
C87	C	0.679494	0.364476	-0.365724
C88	C	0.670515	0.245046	-0.374502
C89	C	0.706658	0.171064	-0.300691
C90	C	0.751778	0.216512	-0.218101
C91	C	0.760758	0.335948	-0.209319
C92	C	0.724616	0.409930	-0.283130
H93	H	0.637113	0.211397	-0.435643
H94	H	0.700010	0.082649	-0.307193
H95	H	0.778533	0.161746	-0.163462
H96	H	0.794161	0.369597	-0.148178
H97	H	0.731264	0.498344	-0.276629
C98	C	0.278711	0.646894	-0.647673
C99	C	0.242569	0.720873	-0.721480
C100	C	0.278741	0.794885	-0.795242
C101	C	0.351054	0.794919	-0.795196
C102	C	0.387199	0.720938	-0.721386
C103	C	0.351027	0.646926	-0.647624
H104	H	0.189036	0.720850	-0.721516
H105	H	0.251983	0.849650	-0.849881
H106	H	0.377830	0.849707	-0.849799
H107	H	0.440733	0.720960	-0.721350
H108	H	0.377785	0.592160	-0.592985
C109	C	1.074896	0.889823	-0.231575
C110	C	1.074856	0.769133	-0.231534
C111	C	1.119145	0.708767	-0.157698
C112	C	1.163473	0.769091	-0.083903
C113	C	1.163514	0.889788	-0.083941
C114	C	1.119226	0.950154	-0.157778
H115	H	1.042040	0.724472	-0.286164
H116	H	1.119114	0.619419	-0.157669
H117	H	1.196258	0.724404	-0.029245
H118	H	1.196330	0.934449	-0.029312
H119	H	1.119256	1.039501	-0.157806
H120	H	0.670147	0.627810	-0.628268
H121	H	0.150045	0.627619	-0.628595
C122	C	1.074825	0.780931	-0.892147
C123	C	1.119106	0.854792	-0.952517
C124	C	1.163370	0.928709	-0.892198
C125	C	1.163352	0.928766	-0.771508
C126	C	1.119070	0.854903	-0.711131
C127	C	1.074806	0.780985	-0.771450
H128	H	1.119120	0.854752	-1.041866
H129	H	1.196150	0.983388	-0.936894
H130	H	1.196119	0.983485	-0.726855
H131	H	1.119055	0.854943	-0.621782
H132	H	1.042025	0.726307	-0.726755
H133	H	0.149992	0.383523	-0.385211
C134	C	1.074977	1.120238	-0.231643
C135	C	1.069869	1.105258	-0.112193
C136	C	1.114198	1.165577	-0.038386
C137	C	1.163635	1.240876	-0.084030
C138	C	1.168744	1.255860	-0.203487
C139	C	1.124415	1.195541	-0.277294
H140	H	1.033272	1.049514	-0.078399
H141	H	1.110416	1.154485	0.050044
H142	H	1.196450	1.285528	-0.029395
H143	H	1.205342	1.311604	-0.237281
H144	H	1.128198	1.206633	-0.365724
H145	H	0.990366	0.639732	-1.206373
H146	H	0.990282	0.806011	-0.372473
H147	H	0.990428	1.204146	-0.372604
H148	H	0.836755	1.104691	-0.628548
H149	H	1.063359	0.761642	-1.106890
H150	H	0.836828	0.383549	-1.106756
H151	H	0.990287	0.639916	-0.808237
