data_functionalizedCrystal
_audit_creation_method	'MofGen! by Chris Wilmer'
_symmetry_space_group_name_H-M	'P1'
_symmetry_Int_Tables_number	1
_symmetry_cell_setting	triclinic
loop_
_symmetry_equiv_pos_as_xyz
  x,y,z
_cell_length_a	14.971486
_cell_length_b	23.532407
_cell_length_c	13.448316
_cell_angle_alpha	89.988737
_cell_angle_beta	89.998199
_cell_angle_gamma	83.231404
loop_
_atom_site_label
_atom_site_type_symbol
_atom_site_fract_x
_atom_site_fract_y
_atom_site_fract_z
O1	O	1.186163	0.074216	-0.082588
O2	O	0.925669	0.083104	-0.082616
O3	O	1.063771	-0.004238	-0.082583
O4	O	1.048061	0.161558	-0.082621
O5	O	1.063754	-0.004243	0.082801
O6	O	0.925652	0.083099	0.082767
O7	O	1.186146	0.074211	0.082796
Cu8	Cu	1.055897	0.078654	0.097882
Cu9	Cu	1.055918	0.078661	-0.097703
O10	O	1.048044	0.161553	0.082763
C11	C	0.892340	0.082704	0.000072
C12	C	0.793056	0.081513	0.000062
C13	C	0.735288	0.132824	0.000052
C14	C	0.642001	0.131701	0.000067
C15	C	0.606482	0.079267	0.000085
C16	C	0.664257	0.027952	0.000099
C17	C	0.757543	0.029075	0.000091
C18	C	0.469819	0.025615	0.000113
C19	C	0.376527	0.024491	0.000119
C20	C	0.354277	0.128241	0.000089
C21	C	0.447563	0.129364	0.000081
C22	C	0.505331	0.078049	0.000093
C23	C	1.063363	-0.025458	0.000111
C24	C	1.062160	-0.088680	0.000119
C25	C	1.136342	-0.487466	0.000072
C26	C	1.135224	-0.546871	0.000065
O27	O	1.203992	-0.583321	0.000035
N28	N	1.053123	-0.569849	0.000056
C29	C	0.972133	-0.533418	0.000046
O30	O	0.902196	-0.558417	0.000037
C31	C	0.973251	-0.474014	0.000046
C32	C	1.055358	-0.451040	0.000065
C33	C	1.218442	-0.464491	0.000090
C34	C	1.219559	-0.405090	0.000099
C35	C	1.138576	-0.368664	0.000091
C36	C	1.056475	-0.391639	0.000074
C37	C	0.892263	-0.437584	0.000029
C38	C	0.893388	-0.378177	0.000028
C39	C	0.975495	-0.355203	0.000047
C40	C	0.976609	-0.295812	0.000076
N41	N	1.058711	-0.272834	0.000084
C42	C	1.139694	-0.309260	0.000092
C43	C	0.969791	-0.658170	0.000043
C44	C	0.968671	-0.717573	0.000049
C45	C	1.131763	-0.731022	0.000066
C46	C	1.132882	-0.671618	0.000067
C47	C	1.051892	-0.635193	0.000051
C48	C	1.142034	-0.184513	0.000113
C49	C	1.143143	-0.125106	0.000126
C50	C	0.980052	-0.111663	0.000104
C51	C	0.978942	-0.171064	0.000096
C52	C	1.059940	-0.207489	0.000097
O53	O	0.907878	-0.259327	0.000101
O54	O	1.209619	-0.284253	0.000087
C55	C	1.219475	0.074611	0.000105
C56	C	1.318760	0.075802	0.000109
C57	C	1.048453	0.182773	0.000066
C58	C	1.049655	0.245996	0.000052
N59	N	1.055890	0.078650	0.235447
N60	N	1.055933	0.078661	-0.235267
C61	C	1.117060	0.039991	0.287502
C62	C	1.117066	0.039990	0.391605
C63	C	1.055904	0.078652	0.443651
C64	C	0.994728	0.117313	0.391589
C65	C	0.994718	0.117310	0.287488
C66	C	0.994752	0.117317	0.608569
C67	C	0.994762	0.117320	0.712678
C68	C	1.117100	0.039997	0.712686
C69	C	1.117090	0.039994	0.608585
C70	C	1.055914	0.078656	0.556530
H71	H	0.307237	0.170023	0.000084
H72	H	1.210008	-0.106405	0.000144
C73	C	1.184371	-0.002536	0.551336
N74	N	1.235045	-0.034572	0.508216
H75	H	1.284392	-0.494144	0.000092
C76	C	0.804291	-0.338112	0.000014
N77	N	0.737183	-0.307936	0.000008
C78	C	1.184343	-0.002542	0.230261
N79	N	1.235020	-0.034580	0.187149
H80	H	1.207990	-0.214164	0.000110
C81	C	1.309884	-0.379827	0.000109
N82	N	1.377921	-0.360802	0.000112
C83	C	1.184391	-0.002534	0.769949
N84	N	1.235074	-0.034566	0.813084
C85	C	0.533363	-0.030835	0.000122
N86	N	0.581224	-0.073352	0.000122
C87	C	0.337459	-0.033189	0.000141
N88	N	0.308034	-0.076634	0.000157
H89	H	1.166875	0.008511	0.433988
C90	C	1.223205	-0.646352	0.000078
N91	N	1.291240	-0.627326	0.000083
H92	H	1.197704	-0.760691	0.000069
H93	H	0.764199	0.175522	0.000036
C94	C	0.927477	0.159847	0.769926
N95	N	0.876795	0.191877	0.813046
C96	C	0.878347	-0.742838	0.000042
N97	N	0.810312	-0.761865	0.000029
C98	C	0.927433	0.159842	0.230228
N99	N	0.876752	0.191880	0.187101
H100	H	0.914118	-0.081994	0.000101
H101	H	0.635331	-0.014741	0.000128
H102	H	0.912084	-0.189771	0.000109
C103	C	0.880690	-0.618107	0.000038
N104	N	0.813580	-0.587934	0.000034
H105	H	0.944933	0.148797	0.566189
C106	C	0.801937	-0.462842	0.000002
N107	N	0.733898	-0.481865	-0.000022
H108	H	0.594969	0.173484	0.000057
H109	H	0.476478	0.172060	0.000057
C110	C	0.927441	0.159836	0.448844
N111	N	0.876759	0.191865	0.491967
H112	H	0.804577	-0.012707	0.000098
