data_functionalizedCrystal
_audit_creation_method	'MofGen! by Chris Wilmer'
_symmetry_space_group_name_H-M	'P1'
_symmetry_Int_Tables_number	1
_symmetry_cell_setting	triclinic
loop_
_symmetry_equiv_pos_as_xyz
  x,y,z
_cell_length_a	8.597340
_cell_length_b	10.723024
_cell_length_c	7.088929
_cell_angle_alpha	83.718137
_cell_angle_beta	103.954719
_cell_angle_gamma	84.901851
loop_
_atom_site_label
_atom_site_type_symbol
_atom_site_fract_x
_atom_site_fract_y
_atom_site_fract_z
O1	O	2.103244	0.171369	0.187485
O2	O	1.638784	0.191739	0.110971
O3	O	1.881728	-0.000106	0.151001
O4	O	1.860300	0.363215	0.147456
O5	O	1.914194	-0.025802	0.474325
O6	O	1.671250	0.166043	0.434296
O7	O	2.135710	0.145673	0.510810
Cu8	Cu	1.906445	0.153512	0.502075
Cu9	Cu	1.868049	0.183901	0.119706
O10	O	1.892766	0.337519	0.470781
C11	C	1.595546	0.178135	0.262837
C12	C	1.418340	0.175867	0.233644
C13	C	1.896402	-0.059441	0.312404
C14	C	1.891736	-0.197958	0.311628
C15	C	2.027674	-0.273999	0.334020
C16	C	2.022855	-0.417165	0.333219
C17	C	2.178948	0.159278	0.358941
C18	C	2.356153	0.161547	0.388120
C19	C	1.878092	0.396854	0.309374
C20	C	1.882757	0.535373	0.310136
N21	N	1.933462	0.132138	0.771015
N22	N	1.841045	0.205265	-0.149231
H23	H	1.438482	0.151012	0.542715
H24	H	2.029258	0.056360	0.868455
O25	O	2.170783	-0.225262	0.357252
C26	C	2.403551	-0.197623	0.230910
C27	C	2.241491	-0.252853	0.204345
H28	H	2.460783	-0.219932	0.107330
H29	H	2.382017	-0.090833	0.227239
H30	H	2.487887	-0.241293	0.377933
H31	H	2.157074	-0.209280	0.057331
H32	H	2.263149	-0.359644	0.208136
O33	O	1.320023	0.188648	0.049229
C34	C	1.094366	0.310492	-0.188818
C35	C	1.205614	0.296184	0.020057
H36	H	1.001817	0.397415	-0.212457
H37	H	1.169590	0.321726	-0.300515
H38	H	1.029260	0.222860	-0.208071
H39	H	1.270744	0.383787	0.039500
H40	H	1.130304	0.284892	0.131648
O41	O	1.726941	0.295835	0.734664
C42	C	1.629851	0.517869	0.657152
C43	C	1.759200	0.415428	0.788759
H44	H	1.655867	0.614581	0.700866
H45	H	1.632051	0.516225	0.497283
H46	H	1.505794	0.498619	0.675963
H47	H	1.883320	0.434608	0.770118
H48	H	1.756857	0.417097	0.948578
H49	H	2.139229	-0.482504	0.352396
H50	H	1.766378	-0.399297	0.290979
H51	H	1.771786	-0.238846	0.291855
