data_functionalizedCrystal
_audit_creation_method	'MofGen! by Chris Wilmer'
_symmetry_space_group_name_H-M	'P1'
_symmetry_Int_Tables_number	1
_symmetry_cell_setting	triclinic
loop_
_symmetry_equiv_pos_as_xyz
  x,y,z
_cell_length_a	11.792241
_cell_length_b	9.065215
_cell_length_c	7.540329
_cell_angle_alpha	89.999899
_cell_angle_beta	89.999420
_cell_angle_gamma	95.395944
loop_
_atom_site_label
_atom_site_type_symbol
_atom_site_fract_x
_atom_site_fract_y
_atom_site_fract_z
O1	O	-0.166418	1.958835	0.147440
O2	O	0.333582	2.458835	0.647440
O3	O	-0.180073	1.529422	0.147446
O4	O	0.319927	2.029422	0.647446
O5	O	-0.008132	1.754549	0.147453
O6	O	0.491868	2.254549	0.647453
O7	O	-0.338358	1.733708	0.147432
O8	O	0.161642	2.233708	0.647432
O9	O	-0.008123	1.754548	-0.147512
O10	O	0.491877	2.254548	0.352488
O11	O	-0.180063	1.529420	-0.147519
O12	O	0.319937	2.029420	0.352481
O13	O	-0.166408	1.958834	-0.147526
O14	O	0.333592	2.458834	0.352474
Cu15	Cu	-0.173235	1.744127	-0.174455
Cu16	Cu	0.326765	2.244127	0.325545
Cu17	Cu	-0.173246	1.744129	0.174375
Cu18	Cu	0.326754	2.244129	0.674375
O19	O	-0.338349	1.733706	-0.147533
O20	O	0.161651	2.233706	0.352467
C21	C	-0.178756	1.474447	-0.000036
C22	C	0.321244	1.974447	0.499964
C23	C	-0.174835	1.310640	-0.000032
C24	C	0.325165	1.810640	0.499968
C25	C	-0.380652	1.735016	-0.000053
C26	C	0.119348	2.235016	0.499947
C27	C	-0.506687	1.738935	-0.000061
C28	C	-0.006687	2.238935	0.499939
C29	C	-0.737439	1.746140	-0.000016
C30	C	-0.237439	2.246140	0.499984
C31	C	-0.609032	1.742137	-0.000041
C32	C	-0.109032	2.242137	0.499959
C33	C	0.034171	1.753239	-0.000023
C34	C	0.534171	2.253239	0.499977
C35	C	0.160206	1.749321	-0.000003
C36	C	0.660206	2.249321	0.499997
C37	C	-0.167725	2.013809	-0.000040
C38	C	0.332275	2.513809	0.499960
C39	C	-0.171646	2.177615	-0.000032
C40	C	0.328354	2.677615	0.499968
N41	N	-0.173246	1.744131	0.419724
N42	N	0.326754	2.244131	0.919724
N43	N	-0.173226	1.744136	-0.419804
N44	N	0.326774	2.244136	0.080196
