data_functionalizedCrystal
_audit_creation_method	'MofGen! by Chris Wilmer'
_symmetry_space_group_name_H-M	'P1'
_symmetry_Int_Tables_number	1
_symmetry_cell_setting	triclinic
loop_
_symmetry_equiv_pos_as_xyz
  x,y,z
_cell_length_a	19.077236
_cell_length_b	12.594516
_cell_length_c	19.076919
_cell_angle_alpha	92.275735
_cell_angle_beta	89.887323
_cell_angle_gamma	92.304758
loop_
_atom_site_label
_atom_site_type_symbol
_atom_site_fract_x
_atom_site_fract_y
_atom_site_fract_z
Zn1	Zn	1.058347	-0.386368	-0.440560
Zn2	Zn	1.063012	-0.556940	-0.323062
Zn3	Zn	0.945562	-0.385810	-0.318340
Zn4	Zn	0.940833	-0.571140	-0.435801
O5	O	1.001938	-0.475065	-0.379441
O6	O	1.157299	-0.403286	-0.428942
O7	O	1.051363	-0.528063	-0.224104
O8	O	0.960551	-0.236938	-0.334569
O9	O	1.160726	-0.528605	-0.342616
O10	O	1.043413	-0.237348	-0.424364
O11	O	0.965074	-0.402335	-0.220636
O12	O	0.846602	-0.416104	-0.329954
O13	O	0.952490	-0.552806	-0.534763
O14	O	0.843127	-0.552265	-0.416251
O15	O	1.038827	-0.417055	-0.538260
O16	O	1.046777	-0.707771	-0.338001
O17	O	0.957013	-0.718203	-0.420830
C18	C	0.819368	-0.485665	-0.372074
C19	C	0.741263	-0.490227	-0.368939
C20	C	0.702783	-0.427236	-0.412480
C21	C	0.629395	-0.431517	-0.409529
C22	C	0.594489	-0.498795	-0.363039
C23	C	0.632974	-0.561788	-0.319494
C24	C	0.706361	-0.557501	-0.322442
C25	C	0.375198	-0.518595	-0.349391
C26	C	0.301806	-0.522880	-0.346447
C27	C	0.298232	-0.392606	-0.436482
C28	C	0.371620	-0.388330	-0.439429
C29	C	0.410099	-0.451319	-0.395881
N30	N	0.519475	-0.503174	-0.360023
N31	N	0.485112	-0.446933	-0.398894
C32	C	1.001906	-0.751607	-0.379427
C33	C	1.001956	-0.869910	-0.379448
C34	C	1.050831	-0.933451	-0.334449
C35	C	1.065423	-1.007210	-0.399276
C36	C	0.987451	-1.006947	-0.314666
C37	C	1.016579	-0.942112	-0.444309
C38	C	0.938579	-0.941842	-0.359654
C39	C	0.953144	-1.015574	-0.424524
C40	C	1.185222	-0.464423	-0.386837
C41	C	1.263326	-0.459889	-0.389988
C42	C	0.994611	-0.486577	-0.562721
C43	C	0.991488	-0.491482	-0.640824
C44	C	1.001989	-0.197443	-0.379471
C45	C	1.002011	-0.079137	-0.379483
C46	C	1.034970	-0.423112	-0.679338
C47	C	1.032027	-0.427718	-0.752724
C48	C	0.985605	-0.500700	-0.787594
C49	C	0.942119	-0.569073	-0.749074
C50	C	0.945059	-0.564462	-0.675689
C51	C	0.971990	-0.522067	-1.006874
C52	C	0.969055	-0.526676	-1.080264
C53	C	1.058963	-0.385318	-1.083909
C54	C	1.061901	-0.380717	-1.010523
C55	C	1.018412	-0.449086	-0.972009
N56	N	0.982598	-0.505412	-0.862606
N57	N	1.021417	-0.444369	-0.896999
C58	C	1.009278	-0.463518	-0.196876
C59	C	1.012537	-0.458305	-0.118779
H60	H	0.737691	-0.608795	-0.286986
H61	H	1.028815	-0.913671	-0.499154
C62	C	0.741173	-0.353223	-0.463622
N63	N	0.770086	-0.297470	-0.502142
H64	H	0.975160	-1.035526	-0.259865
H65	H	0.598067	-0.380224	-0.444986
C66	C	1.086037	-0.342824	-0.640988
N67	N	1.124499	-0.282345	-0.612105
H68	H	0.884976	-0.913013	-0.342875
C69	C	0.417516	-0.587891	-0.301489
N70	N	0.449392	-0.640089	-0.265408
H71	H	1.067436	-0.372046	-0.784079
H72	H	1.099704	-0.321290	-0.982137
C73	C	1.137859	-1.046131	-0.421917
N74	N	1.192420	-1.075444	-0.438964
H75	H	1.092168	-0.897578	-0.296432
C76	C	1.106789	-0.310104	-1.126279
N77	N	1.142810	-0.253444	-1.158193
H78	H	0.400036	-0.333549	-0.477288
H79	H	0.931251	-0.586109	-1.108653
C80	C	0.594575	-0.635794	-0.268354
N81	N	0.565653	-0.691539	-0.229836
H82	H	0.911834	-1.051253	-0.462639
C83	C	0.924148	-0.597273	-0.964519
N84	N	0.888110	-0.653920	-0.932614
C85	C	0.891048	-0.649345	-0.787433
N86	N	0.852580	-0.709807	-0.816324
H87	H	0.266894	-0.341322	-0.471936
C88	C	0.263411	-0.596895	-0.295303
N89	N	0.234492	-0.652642	-0.256784
C90	C	0.897226	-0.639677	-0.633324
N91	N	0.861196	-0.696329	-0.601414
