data_functionalizedCrystal
_audit_creation_method	'MofGen! by Chris Wilmer'
_symmetry_space_group_name_H-M	'P1'
_symmetry_Int_Tables_number	1
_symmetry_cell_setting	triclinic
loop_
_symmetry_equiv_pos_as_xyz
  x,y,z
_cell_length_a	16.120484
_cell_length_b	13.032951
_cell_length_c	13.032268
_cell_angle_alpha	90.885735
_cell_angle_beta	80.357249
_cell_angle_gamma	93.924003
loop_
_atom_site_label
_atom_site_type_symbol
_atom_site_fract_x
_atom_site_fract_y
_atom_site_fract_z
Zn1	Zn	-0.562161	-1.458757	0.811503
Zn2	Zn	-0.686171	-1.471737	0.646280
Zn3	Zn	-0.527385	-1.311072	0.615845
Zn4	Zn	-0.681663	-1.278305	0.796154
O5	O	-0.614345	-1.379968	0.717445
O6	O	-0.595051	-1.603237	0.808746
O7	O	-0.652440	-1.469571	0.497636
O8	O	-0.415533	-1.338944	0.635486
O9	O	-0.686161	-1.612774	0.687357
O10	O	-0.441083	-1.447447	0.779235
O11	O	-0.535781	-1.351531	0.475276
O12	O	-0.531410	-1.163967	0.620603
O13	O	-0.678478	-1.283096	0.942796
O14	O	-0.644757	-1.139893	0.753075
O15	O	-0.590680	-1.415673	0.954073
O16	O	-0.802037	-1.437797	0.672474
O17	O	-0.798725	-1.295683	0.782586
C18	C	-0.583821	-1.114914	0.681871
C19	C	-0.570785	-1.001518	0.666678
C20	C	-0.830584	-1.364617	0.729193
C21	C	-0.923107	-1.358139	0.734266
C22	C	-0.621129	-0.939086	0.725360
C23	C	-0.607657	-0.821885	0.709658
C24	C	-1.092508	-1.346315	0.743550
C25	C	-1.135364	-1.413801	0.691383
C26	C	-1.229624	-1.407222	0.696548
C27	C	-0.998239	-1.352893	0.738385
C28	C	-0.397266	-1.395403	0.705678
C29	C	-0.304760	-1.401980	0.700664
C30	C	-0.637955	-1.344281	0.986978
C31	C	-0.648017	-1.329074	1.101837
C32	C	-0.644978	-0.646058	0.753151
C33	C	-0.658007	-0.759454	0.768348
C34	C	-0.590773	-1.415578	0.448966
C35	C	-0.580500	-1.431000	0.334122
C36	C	-0.609062	-1.387891	1.158624
C37	C	-0.619460	-1.372175	1.277337
H38	H	-0.674200	-0.972402	0.787227
H39	H	-0.568010	-1.449877	1.119354
H40	H	-1.126608	-1.283602	0.792086
H41	H	-0.539443	-1.492989	1.294858
H42	H	-0.660505	-1.310174	1.316600
C43	C	-0.729714	-0.804450	0.851930
N44	N	-0.783724	-0.838342	0.914882
C45	C	-1.089293	-1.498524	0.625796
N46	N	-1.054588	-1.562331	0.576394
C47	C	-0.703470	-1.245322	1.154881
N48	N	-0.745238	-1.182238	1.194833
H49	H	-0.517708	-0.968202	0.604819
H50	H	-0.554576	-0.788573	0.647795
