data_functionalizedCrystal
_audit_creation_method	'MofGen! by Chris Wilmer'
_symmetry_space_group_name_H-M	'P1'
_symmetry_Int_Tables_number	1
_symmetry_cell_setting	triclinic
loop_
_symmetry_equiv_pos_as_xyz
  x,y,z
_cell_length_a	17.640112
_cell_length_b	17.077402
_cell_length_c	17.077396
_cell_angle_alpha	90.030619
_cell_angle_beta	101.178573
_cell_angle_gamma	78.751909
loop_
_atom_site_label
_atom_site_type_symbol
_atom_site_fract_x
_atom_site_fract_y
_atom_site_fract_z
Zn1	Zn	1.208324	0.069651	-0.201631
Zn2	Zn	1.208235	0.200946	-0.070379
Zn3	Zn	1.076154	0.096244	-0.096872
Zn4	Zn	1.076117	0.227450	-0.228086
O5	O	1.142207	0.148573	-0.149242
O6	O	1.318917	0.064847	-0.162061
O7	O	1.190693	0.187094	0.035949
O8	O	1.093739	-0.017141	-0.110784
O9	O	1.318852	0.161308	-0.065632
O10	O	1.190844	-0.036679	-0.187750
O11	O	1.093654	0.110170	0.016485
O12	O	0.965544	0.135870	-0.136436
O13	O	1.093675	0.206481	-0.334419
O14	O	0.965516	0.232267	-0.232839
O15	O	1.190807	0.090547	-0.314983
O16	O	1.190657	0.314319	-0.091284
O17	O	1.093590	0.333792	-0.207150
C18	C	0.936851	0.189831	-0.190383
C19	C	0.848999	0.207500	-0.208002
C20	C	1.142131	0.352536	-0.149226
C21	C	1.142171	0.439778	-0.149231
C22	C	1.142247	0.148504	-0.353978
C23	C	1.142264	0.148475	-0.441225
C24	C	0.560026	0.014329	-0.015398
C25	C	0.477475	0.030948	-0.031965
C26	C	0.477501	0.131464	-0.132175
C27	C	0.560053	0.114851	-0.115620
C28	C	0.601309	0.056283	-0.057230
C29	C	0.601337	0.156805	-0.157452
C30	C	0.683882	0.140196	-0.140895
C31	C	0.725143	0.081633	-0.082506
C32	C	0.683854	0.039674	-0.040673
C33	C	0.560079	0.215376	-0.215838
C34	C	0.601362	0.257330	-0.257669
C35	C	0.683909	0.240718	-0.241117
C36	C	0.725171	0.182154	-0.182728
C37	C	0.725198	0.282676	-0.282949
C38	C	0.807743	0.266067	-0.266392
C39	C	0.807716	0.165545	-0.166170
C40	C	1.348365	0.107155	-0.107940
C41	C	1.436218	0.089505	-0.090340
C42	C	1.142305	-0.056191	-0.149271
C43	C	1.142347	-0.143449	-0.149283
C44	C	1.192765	0.470592	-0.088943
C45	C	1.192804	0.552565	-0.088955
C46	C	1.142243	0.603723	-0.149253
C47	C	1.091647	0.572903	-0.209547
C48	C	1.091613	0.490931	-0.209537
C49	C	1.091720	0.743758	-0.209562
C50	C	1.091753	0.825736	-0.209571
C51	C	1.192911	0.805392	-0.088980
C52	C	1.192877	0.723420	-0.088970
C53	C	1.142279	0.692606	-0.149263
C54	C	1.091751	0.108411	-0.492346
C55	C	1.091764	0.108391	-0.574324
C56	C	1.142294	0.148430	-0.605178
C57	C	1.192810	0.188498	-0.554051
C58	C	1.192792	0.188523	-0.472075
C59	C	1.192844	0.188442	-0.724914
C60	C	1.192863	0.188417	-0.806895
C61	C	1.091816	0.108310	-0.827163
C62	C	1.091798	0.108335	-0.745187
C63	C	1.142315	0.148402	-0.694065
C64	C	1.142213	0.148576	0.054707
C65	C	1.142350	0.148353	0.141984
H66	H	0.792357	0.068112	-0.069024
H67	H	1.050684	0.075685	-0.868790
H68	H	1.050655	0.075728	-0.720068
H69	H	0.717447	-0.008029	0.006863
H70	H	0.593619	-0.033374	0.032137
C71	C	1.248571	0.839279	-0.022658
H72	H	1.278670	0.797073	0.013259
H73	H	1.283007	0.864288	-0.045818
H74	H	1.218364	0.877380	0.005511
H75	H	0.567761	0.305018	-0.305208
H76	H	0.443865	-0.003227	0.002099
H77	H	0.841357	0.300230	-0.300457
H78	H	1.233987	0.221061	-0.683290
H79	H	0.691595	0.330367	-0.330485
H80	H	1.234009	0.221020	-0.832013
H81	H	1.050483	0.614562	-0.258645
H82	H	1.234043	0.681768	-0.039868
C83	C	1.035961	0.457035	-0.275855
H84	H	1.005849	0.499242	-0.311765
H85	H	1.066164	0.418937	-0.304022
H86	H	1.001523	0.432025	-0.252691
C87	C	1.248398	0.232535	-0.587983
H88	H	1.278476	0.256404	-0.545795
H89	H	1.282857	0.195573	-0.613065
H90	H	1.218154	0.272810	-0.626016
C91	C	0.432115	0.195880	-0.196403
H92	H	0.377042	0.199761	-0.200277
H93	H	0.445630	0.245890	-0.182118
H94	H	0.445668	0.181719	-0.246448
C95	C	1.248383	0.414325	-0.022615
H96	H	1.278526	0.444420	0.013284
H97	H	1.218160	0.388468	0.005564
H98	H	1.282793	0.375382	-0.045777
H99	H	0.492866	0.228897	-0.229316
H100	H	1.234002	0.577649	-0.039862
C101	C	1.036169	0.064368	-0.458409
H102	H	1.043397	0.070113	-0.402265
H103	H	0.983060	0.086521	-0.482482
H104	H	1.047770	0.009289	-0.469536
H105	H	1.050597	0.867385	-0.258683
H106	H	1.233931	0.221140	-0.430451
C107	C	1.036067	0.709864	-0.275886
H108	H	1.005955	0.752071	-0.311795
H109	H	1.066268	0.671765	-0.304054
H110	H	1.001630	0.684855	-0.252719
C111	C	1.036204	0.064315	-0.630553
H112	H	1.006116	0.040464	-0.600435
H113	H	1.001754	0.101251	-0.669427
H114	H	1.066471	0.024024	-0.656477
H115	H	0.841309	0.117842	-0.118635
