data_functionalizedCrystal
_audit_creation_method	'MofGen! by Chris Wilmer'
_symmetry_space_group_name_H-M	'P1'
_symmetry_Int_Tables_number	1
_symmetry_cell_setting	triclinic
loop_
_symmetry_equiv_pos_as_xyz
  x,y,z
_cell_length_a	14.971486
_cell_length_b	19.188930
_cell_length_c	14.048226
_cell_angle_alpha	89.988446
_cell_angle_beta	89.998499
_cell_angle_gamma	83.379455
loop_
_atom_site_label
_atom_site_type_symbol
_atom_site_fract_x
_atom_site_fract_y
_atom_site_fract_z
O1	O	1.186466	0.090988	-0.079062
O2	O	0.926009	0.101884	-0.079090
O3	O	1.063754	-0.005196	-0.079057
O4	O	1.048721	0.198067	-0.079095
O5	O	1.063737	-0.005202	0.079265
O6	O	0.925992	0.101878	0.079232
O7	O	1.186450	0.090982	0.079259
Zn8	Zn	1.056218	0.096429	0.104382
Zn9	Zn	1.056240	0.096437	-0.104213
O10	O	1.048705	0.198061	0.079226
C11	C	0.892678	0.101393	0.000068
C12	C	0.793389	0.099933	0.000058
C13	C	0.735831	0.162839	0.000048
C14	C	0.642539	0.161463	0.000062
C15	C	0.606806	0.097180	0.000080
C16	C	0.664371	0.034269	0.000094
C17	C	0.757662	0.035646	0.000086
C18	C	0.469924	0.031403	0.000108
C19	C	0.376627	0.030026	0.000113
C20	C	0.354801	0.157221	0.000083
C21	C	0.448092	0.158598	0.000076
C22	C	0.505650	0.095686	0.000088
C23	C	1.063259	-0.031211	0.000107
C24	C	1.061797	-0.108721	0.000115
C25	C	1.142622	-0.153384	0.000128
C26	C	1.141249	-0.226213	0.000112
C27	C	1.059047	-0.254374	0.000103
C28	C	0.978212	-0.209700	0.000085
C29	C	0.979587	-0.136874	0.000091
N30	N	0.996208	-0.362583	0.053976
N31	N	0.994907	-0.431766	0.053973
C32	C	1.054899	-0.473796	0.000084
N33	N	1.116254	-0.444031	-0.053790
N34	N	1.117558	-0.374842	-0.053782
C35	C	1.057547	-0.333341	0.000096
C36	C	1.134240	-0.597429	0.000078
C37	C	1.132864	-0.670258	0.000057
C38	C	0.969825	-0.653744	0.000039
C39	C	0.971203	-0.580916	0.000051
C40	C	1.053413	-0.552763	0.000075
C41	C	1.219780	0.091472	0.000100
C42	C	1.319070	0.092932	0.000103
C43	C	1.049200	0.224077	0.000061
C44	C	1.050661	0.301586	0.000046
N45	N	1.056210	0.096422	0.246743
N46	N	1.056256	0.096437	-0.246573
C47	C	1.117223	0.049027	0.296576
C48	C	1.117229	0.049027	0.396233
C49	C	1.056226	0.096426	0.446057
C50	C	0.995207	0.143823	0.396217
C51	C	0.995197	0.143819	0.296561
C52	C	0.995233	0.143828	0.603931
C53	C	0.995243	0.143833	0.703594
C54	C	1.117264	0.049035	0.703603
C55	C	1.117255	0.049032	0.603948
C56	C	1.056236	0.096430	0.554115
H57	H	0.307932	0.208445	0.000078
H58	H	0.905387	-0.544550	0.000046
C59	C	0.928132	0.195969	0.758397
N60	N	0.877581	0.235239	0.799675
H61	H	0.945533	0.182414	0.436789
H62	H	0.347537	-0.022319	0.000130
C63	C	0.928100	0.195962	0.549117
N64	N	0.877536	0.235228	0.507832
H65	H	0.911283	-0.232634	0.000075
C66	C	0.879401	-0.684717	0.000026
N67	N	0.811292	-0.708049	0.000013
H68	H	1.166902	0.010433	0.256016
H69	H	0.913768	-0.100507	0.000080
C70	C	1.224672	-0.566458	0.000091
N71	N	1.292786	-0.543133	0.000097
C72	C	0.533237	-0.037803	0.000117
N73	N	0.580924	-0.089928	0.000117
C74	C	0.487395	0.229312	0.000059
N75	N	0.516999	0.282576	0.000053
H76	H	0.945513	0.182413	0.255988
C77	C	1.233056	-0.122421	0.000146
N78	N	1.301171	-0.099098	0.000158
H79	H	0.635271	-0.018072	0.000122
C80	C	1.230165	-0.275352	0.000133
N81	N	1.297138	-0.312361	0.000151
H82	H	1.166909	0.010434	0.436807
H83	H	1.166932	0.010440	0.563382
H84	H	1.166947	0.010442	0.744183
H85	H	0.595679	0.212688	0.000052
H86	H	0.764917	0.215186	0.000032
H87	H	0.804525	-0.015579	0.000094
H88	H	1.198683	-0.706623	0.000063
