data_functionalizedCrystal
_audit_creation_method	'MofGen! by Chris Wilmer'
_symmetry_space_group_name_H-M	'P1'
_symmetry_Int_Tables_number	1
_symmetry_cell_setting	triclinic
loop_
_symmetry_equiv_pos_as_xyz
  x,y,z
_cell_length_a	10.654551
_cell_length_b	10.654550
_cell_length_c	9.130313
_cell_angle_alpha	90.003780
_cell_angle_beta	90.001552
_cell_angle_gamma	95.514868
loop_
_atom_site_label
_atom_site_type_symbol
_atom_site_fract_x
_atom_site_fract_y
_atom_site_fract_z
O1	O	0.176393	-1.667835	-0.121910
O2	O	0.193199	-1.302356	-0.121885
O3	O	0.002057	-1.493498	-0.121899
O4	O	0.367535	-1.476693	-0.121896
O5	O	0.002062	-1.493496	0.121700
O6	O	0.193204	-1.302354	0.121713
O7	O	0.176398	-1.667832	0.121689
Cu8	Cu	0.184802	-1.485093	0.143944
Cu9	Cu	0.184796	-1.485096	-0.144140
O10	O	0.367540	-1.476691	0.121703
C11	C	0.191968	-1.255557	-0.000083
C12	C	0.188276	-1.116114	-0.000074
N13	N	0.184805	-1.485100	0.346566
C14	C	-0.044739	-1.492263	-0.000103
C15	C	-0.184182	-1.488570	-0.000112
C16	C	-0.249696	-1.486839	-0.132895
C17	C	-0.380717	-1.483359	-0.132888
C18	C	-0.380697	-1.483346	0.132696
C19	C	-0.249678	-1.486817	0.132688
C20	C	-0.184201	-1.488592	-0.265696
C21	C	-0.249716	-1.486863	-0.398490
C22	C	-0.380736	-1.483382	-0.398483
C23	C	-0.446241	-1.481632	-0.265682
C24	C	0.414336	-1.477926	-0.000097
C25	C	0.553779	-1.481619	-0.000097
C26	C	0.177629	-1.714632	-0.000117
C27	C	0.181321	-1.854075	-0.000135
C28	C	0.300817	-1.036629	-0.000095
C29	C	0.297341	-0.905608	-0.000120
C30	C	0.068771	-0.933570	-0.000110
C31	C	0.072249	-1.064589	-0.000074
C32	C	0.416844	-1.088154	-0.000094
C33	C	0.529395	-1.008667	-0.000116
C34	C	0.525918	-0.877647	-0.000142
C35	C	0.409891	-0.826112	-0.000145
N36	N	0.184782	-1.485098	-0.346763
C37	C	0.100196	-1.569760	0.423212
C38	C	0.100181	-1.569756	0.576549
C39	C	0.269395	-1.400430	0.576581
C40	C	0.269403	-1.400428	0.423246
C41	C	0.015599	-1.654431	0.346532
C42	C	-0.069016	-1.739099	0.423178
C43	C	-0.069031	-1.739095	0.576515
C44	C	0.015569	-1.654425	0.653206
H45	H	-0.196371	-1.488276	-0.506611
H46	H	-0.434073	-1.481961	-0.506609
N47	N	0.420598	-1.229466	-0.000049
H48	H	0.331696	-1.272003	-0.000032
H49	H	0.466351	-1.255453	-0.090351
H50	H	0.015541	-1.654420	0.778063
H51	H	0.617562	-0.812931	-0.000145
H52	H	-0.137936	-1.808026	0.638919
N53	N	0.406136	-0.684797	-0.000152
H54	H	0.495038	-0.642260	-0.000157
H55	H	0.360372	-0.658849	-0.090462
N56	N	-0.587554	-1.477860	-0.265669
H57	H	-0.619121	-1.477023	-0.369939
H58	H	-0.628522	-1.554742	-0.213468
H59	H	0.338274	-1.331496	0.639032
N60	N	0.015600	-1.654426	0.181150
H61	H	0.082034	-1.587943	0.144229
H62	H	0.034634	-1.739952	0.144325
N63	N	-0.451344	-1.481476	0.275923
H64	H	-0.544287	-1.479022	0.255779
H65	H	-0.437937	-1.559806	0.333893
N66	N	-0.179003	-1.488676	0.275900
H67	H	-0.240374	-1.487048	0.360029
H68	H	-0.134142	-1.567833	0.281678
N69	N	0.654533	-1.064242	-0.000096
H70	H	0.639661	-1.159303	-0.000079
H71	H	0.703827	-1.035253	-0.090406
H72	H	0.338298	-1.331490	0.360841
H73	H	-0.025693	-0.891600	-0.000137
H74	H	-0.077518	-1.491429	-0.265716
N75	N	-0.049131	-1.150330	-0.000045
H76	H	-0.123161	-1.097811	-0.000062
H77	H	-0.052669	-1.205326	-0.090333
H78	H	-0.137901	-1.808028	0.360729
