data_functionalizedCrystal
_audit_creation_method	'MofGen! by Chris Wilmer'
_symmetry_space_group_name_H-M	'P1'
_symmetry_Int_Tables_number	1
_symmetry_cell_setting	triclinic
loop_
_symmetry_equiv_pos_as_xyz
  x,y,z
_cell_length_a	12.645331
_cell_length_b	12.645330
_cell_length_c	12.645323
_cell_angle_alpha	89.975130
_cell_angle_beta	90.022676
_cell_angle_gamma	89.983329
loop_
_atom_site_label
_atom_site_type_symbol
_atom_site_fract_x
_atom_site_fract_y
_atom_site_fract_z
Zn1	Zn	1.620731	0.422060	0.599446
Zn2	Zn	1.620613	0.599348	0.422186
Zn3	Zn	1.443446	0.422096	0.422191
Zn4	Zn	1.443428	0.599279	0.599402
O5	O	1.532054	0.510695	0.510806
O6	O	1.769063	0.445591	0.575949
O7	O	1.597069	0.575879	0.273840
O8	O	1.467020	0.273744	0.445724
O9	O	1.768976	0.575844	0.445717
O10	O	1.597271	0.273717	0.575953
O11	O	1.466906	0.445653	0.273843
O12	O	1.295096	0.445585	0.445681
O13	O	1.466989	0.575726	0.747755
O14	O	1.295083	0.575761	0.575877
O15	O	1.597253	0.445524	0.747788
O16	O	1.597052	0.747686	0.445674
O17	O	1.466874	0.747635	0.575873
C18	C	1.256625	0.510670	0.510776
C19	C	1.138795	0.510685	0.510788
C20	C	1.531977	0.786125	0.510791
C21	C	1.532041	0.903955	0.510821
C22	C	1.532132	0.510614	0.787312
C23	C	1.532166	0.510579	0.905142
C24	C	0.971204	0.428415	0.429333
C25	C	1.093763	0.428628	0.428974
C26	C	1.094274	0.622359	0.480273
C27	C	0.971676	0.621910	0.479717
C28	C	0.971645	0.482344	0.623072
C29	C	1.094251	0.479849	0.622448
C30	C	1.808560	0.510722	0.510838
C31	C	1.926390	0.510733	0.510851
C32	C	1.532161	0.234190	0.510844
C33	C	1.532206	0.116360	0.510861
C34	C	1.450484	1.071531	0.592982
C35	C	1.450067	0.948972	0.592717
C36	C	1.501796	0.948549	0.399099
C37	C	1.501298	1.071147	0.399597
C38	C	1.644342	1.071047	0.539475
C39	C	1.643654	0.948440	0.541918
C40	C	1.532038	0.510701	0.235377
C41	C	1.532210	0.510437	0.117547
C42	C	1.449964	0.592103	1.072685
C43	C	1.450179	0.592506	0.950125
C44	C	1.643865	0.540899	0.949662
C45	C	1.643414	0.541410	1.072260
C46	C	1.503724	0.398278	1.072340
C47	C	1.501232	0.398951	0.949733
H48	H	1.123864	0.345817	0.448100
H49	H	1.419326	1.099837	0.375357
Br50	Br	1.748746	0.444896	0.901109
Br51	Br	1.142871	0.727320	0.576135
Br52	Br	1.745827	1.119384	0.439803
Br53	Br	0.922099	0.289969	0.460865
Br54	Br	0.919765	0.459314	0.291545
Br55	Br	1.312794	1.123059	0.561817
H56	H	1.468990	0.918818	0.675558
Br57	Br	1.145363	0.663180	0.345003
H58	H	1.667560	0.623400	1.100871
Br59	Br	1.312127	0.560874	0.899947
H60	H	0.943030	0.645984	0.397678
Br61	Br	1.750490	0.897347	0.449496
Br62	Br	1.311505	0.900233	0.561129
H63	H	1.423691	0.370640	1.103244
H64	H	1.366889	0.573311	1.102159
H65	H	1.468585	0.674731	1.103504
Br66	Br	0.920154	0.348985	0.669326
H67	H	1.563628	0.337434	1.101353
Br68	Br	1.748948	0.446508	1.121733
H69	H	0.942031	0.685319	0.536502
H70	H	1.123041	0.447391	0.345814
Br71	Br	1.481727	1.120555	0.731515
H72	H	0.942666	0.542301	0.683810
H73	H	1.558238	1.100805	0.336324
H74	H	1.668424	0.622030	0.918973
H75	H	1.559431	0.919391	0.336240
H76	H	1.420678	0.917936	0.374420
H77	H	1.468983	0.675654	0.920811
H78	H	1.671932	1.101891	0.619558
Br79	Br	1.681675	0.899859	0.678962
H80	H	1.419031	0.376085	0.920634
Br81	Br	1.142777	0.342887	0.660816
H82	H	1.556760	0.334889	0.919112
H83	H	1.124909	0.535432	0.686433
