data_functionalizedCrystal
_audit_creation_method	'MofGen! by Chris Wilmer'
_symmetry_space_group_name_H-M	'P1'
_symmetry_Int_Tables_number	1
_symmetry_cell_setting	triclinic
loop_
_symmetry_equiv_pos_as_xyz
  x,y,z
_cell_length_a	10.654556
_cell_length_b	10.654551
_cell_length_c	9.730223
_cell_angle_alpha	90.006395
_cell_angle_beta	89.997490
_cell_angle_gamma	84.486483
loop_
_atom_site_label
_atom_site_type_symbol
_atom_site_fract_x
_atom_site_fract_y
_atom_site_fract_z
O1	O	1.667827	0.176444	0.114232
O2	O	1.302349	0.193242	0.114246
O3	O	1.493490	0.002104	0.114236
O4	O	1.476686	0.367582	0.114242
O5	O	1.493495	0.002084	-0.114344
O6	O	1.302354	0.193221	-0.114334
O7	O	1.667831	0.176424	-0.114348
Zn8	Zn	1.485093	0.184819	-0.150633
Zn9	Zn	1.485088	0.184846	0.150531
O10	O	1.476690	0.367562	-0.114338
C11	C	1.255554	0.191997	-0.000042
C12	C	1.116111	0.188302	-0.000037
C13	C	0.919563	0.183110	0.124551
C14	C	1.050585	0.186574	0.124560
C15	C	1.050609	0.186552	-0.124651
C16	C	0.919590	0.183078	-0.124658
C17	C	1.492258	-0.044704	-0.000052
C18	C	1.488566	-0.184147	-0.000046
C19	C	1.714627	0.177669	-0.000057
C20	C	1.854070	0.181364	-0.000053
C21	C	1.486830	-0.249640	0.124555
C22	C	1.483350	-0.380660	0.124556
C23	C	1.483347	-0.380685	-0.124654
C24	C	1.486817	-0.249666	-0.124654
C25	C	1.477922	0.414370	-0.000047
C26	C	1.481615	0.553813	-0.000044
N27	N	1.485106	0.184800	-0.356169
N28	N	1.485084	0.184856	0.356067
C29	C	1.408419	0.107804	0.427985
C30	C	1.408433	0.107772	0.571868
C31	C	1.561780	0.261855	0.571902
C32	C	1.561772	0.261879	0.428022
H33	H	1.103971	0.187950	-0.226100
H34	H	1.488250	-0.196299	0.226019
H35	H	1.103905	0.187994	0.226025
O36	O	1.481450	-0.451287	0.258954
H37	H	1.567563	-0.436597	0.318709
H38	H	1.346006	0.045027	0.630418
H39	H	1.488223	-0.196339	-0.226125
O40	O	1.325746	0.024699	0.350370
H41	H	1.272457	-0.028903	0.424558
H42	H	1.481926	-0.434046	-0.226106
O43	O	1.644473	0.344948	0.649508
H44	H	1.631587	0.332001	0.761641
H45	H	1.624209	0.324625	0.369465
O46	O	0.848798	0.181291	-0.258978
H47	H	0.884273	0.096540	-0.318856
O48	O	0.848893	0.181221	0.258938
H49	H	0.916455	0.182995	0.345584
