data_functionalizedCrystal
_audit_creation_method	'MofGen! by Chris Wilmer'
_symmetry_space_group_name_H-M	'P1'
_symmetry_Int_Tables_number	1
_symmetry_cell_setting	triclinic
loop_
_symmetry_equiv_pos_as_xyz
  x,y,z
_cell_length_a	13.262390
_cell_length_b	15.995292
_cell_length_c	11.804365
_cell_angle_alpha	101.831146
_cell_angle_beta	62.657606
_cell_angle_gamma	83.970448
loop_
_atom_site_label
_atom_site_type_symbol
_atom_site_fract_x
_atom_site_fract_y
_atom_site_fract_z
O1	O	1.519271	0.012311	-0.591093
O2	O	1.190899	0.042651	-0.484739
O3	O	1.364096	-0.094877	-0.540836
O4	O	1.346074	0.149839	-0.534996
O5	O	1.318500	-0.058705	-0.328012
O6	O	1.145303	0.078823	-0.271915
O7	O	1.473675	0.048483	-0.378269
Cu8	Cu	1.305326	0.066956	-0.305659
Cu9	Cu	1.359248	0.024178	-0.557349
O10	O	1.300478	0.186011	-0.322172
C11	C	1.126082	0.062363	-0.364718
C12	C	1.000877	0.067198	-0.324166
C13	C	0.747376	0.001943	-0.673920
C14	C	0.865013	-0.002604	-0.712022
C15	C	0.898985	0.014846	-0.615062
C16	C	0.815307	0.036844	-0.479992
C17	C	0.697660	0.041385	-0.441886
C18	C	0.849269	0.054288	-0.383028
C19	C	0.765592	0.076286	-0.247958
C20	C	0.647956	0.080827	-0.209859
C21	C	0.613984	0.063376	-0.306819
C22	C	0.966917	0.049747	-0.421133
C23	C	0.917201	0.089189	-0.189099
C24	C	0.799564	0.093736	-0.150997
C25	C	1.340565	-0.107949	-0.434190
C26	C	1.338368	-0.200790	-0.433487
C27	C	1.330282	-0.538107	-0.430858
C28	C	1.455189	-0.521191	-0.470870
C29	C	1.457669	-0.424721	-0.472124
C30	C	1.334294	-0.370760	-0.432162
C31	C	1.297833	-0.417278	-0.533449
C32	C	1.296349	-0.514008	-0.533058
C33	C	1.241945	-0.472598	-0.290211
C34	C	1.246234	-0.376073	-0.290109
C35	C	1.336556	-0.276182	-0.432901
C36	C	1.328018	-0.632686	-0.430126
C37	C	1.538493	0.028770	-0.498293
C38	C	1.663700	0.023934	-0.538853
C39	C	1.324010	0.199083	-0.428821
C40	C	1.326208	0.291922	-0.429532
N41	N	1.267408	0.097042	-0.128637
N42	N	1.397175	-0.005915	-0.734374
C43	C	1.488231	-0.078180	0.173788
C44	C	1.516914	-0.100943	0.039836
C45	C	1.454540	-0.051449	-0.002289
C46	C	1.363477	0.020813	0.089551
C47	C	1.334797	0.043583	0.223515
C48	C	1.301106	0.070314	0.047438
C49	C	1.210043	0.142576	0.139278
C50	C	1.181367	0.165342	0.273228
C51	C	1.243742	0.115848	0.315353
C52	C	1.329786	0.047544	-0.086526
C53	C	1.176353	0.169307	-0.036799
C54	C	1.147669	0.192071	0.097153
H55	H	0.944859	0.103398	-0.110146
Cl56	Cl	1.500760	-0.545400	-0.360407
Cl57	Cl	1.393233	-0.582715	-0.694961
H58	H	1.149753	-0.481682	-0.259587
H59	H	1.360610	-0.414838	-0.637949
H60	H	1.272481	-0.344585	-0.214943
H61	H	0.994772	0.011144	-0.646093
Cl62	Cl	1.159163	-0.362000	-0.495036
H63	H	1.035036	0.031838	-0.531108
Cl64	Cl	1.444259	-0.043297	-0.201965
Cl65	Cl	1.271858	-0.495245	-0.167551
H66	H	1.154611	-0.337191	-0.253601
Cl67	Cl	1.566645	-0.140388	0.226746
Cl68	Cl	0.970198	-0.030260	-0.881816
Cl69	Cl	1.490597	-0.080070	-0.170688
Cl70	Cl	1.033194	0.282913	0.212621
H71	H	0.719704	-0.012271	-0.752851
H72	H	1.125563	0.209611	-0.071095
H73	H	0.579830	0.098723	-0.099877
H74	H	1.107227	0.224188	0.348004
Cl75	Cl	1.562547	-0.423138	-0.631484
H76	H	1.487952	-0.393425	-0.400863
H77	H	1.591057	-0.159778	-0.034936
Cl78	Cl	1.207676	0.144464	0.483759
H79	H	1.205871	-0.524744	-0.508876
H80	H	0.518196	0.067080	-0.275803
Cl81	Cl	0.694358	0.121389	0.018800
H82	H	1.521673	-0.567421	-0.573055
