data_functionalizedCrystal
_audit_creation_method	'MofGen! by Chris Wilmer'
_symmetry_space_group_name_H-M	'P1'
_symmetry_Int_Tables_number	1
_symmetry_cell_setting	triclinic
loop_
_symmetry_equiv_pos_as_xyz
  x,y,z
_cell_length_a	12.827892
_cell_length_b	21.395362
_cell_length_c	21.395355
_cell_angle_alpha	89.956060
_cell_angle_beta	90.013138
_cell_angle_gamma	89.968728
loop_
_atom_site_label
_atom_site_type_symbol
_atom_site_fract_x
_atom_site_fract_y
_atom_site_fract_z
Zn1	Zn	-0.415711	-0.957926	0.354609
Zn2	Zn	-0.590438	-0.957857	0.249841
Zn3	Zn	-0.415760	-0.853141	0.249810
Zn4	Zn	-0.590459	-0.853138	0.354546
O5	O	-0.503092	-0.905516	0.302202
O6	O	-0.438860	-1.045595	0.340751
O7	O	-0.567278	-0.943938	0.162159
O8	O	-0.269517	-0.867071	0.263725
O9	O	-0.567231	-1.045544	0.263778
O10	O	-0.269482	-0.944056	0.340721
O11	O	-0.438943	-0.867004	0.162137
O12	O	-0.438963	-0.765463	0.263664
O13	O	-0.567267	-0.867067	0.442232
O14	O	-0.567314	-0.765461	0.340613
O15	O	-0.438881	-0.944054	0.442279
O16	O	-0.736677	-0.943935	0.263717
O17	O	-0.736692	-0.866999	0.340643
C18	C	-0.503147	-0.742728	0.302129
C19	C	-0.503196	-0.673087	0.302113
C20	C	-0.774602	-0.905476	0.302191
C21	C	-0.890755	-0.905517	0.302207
C22	C	-0.503071	-0.905568	0.465625
C23	C	-0.503062	-0.905590	0.535266
C24	C	-0.942497	-0.943633	0.264184
C25	C	-1.062548	-0.943675	0.264200
C26	C	-0.230522	-0.905572	0.302227
C27	C	-0.114369	-0.905596	0.302237
C28	C	-0.503037	-1.068939	0.302275
C29	C	-0.503014	-1.138580	0.302306
C30	C	-0.570117	-0.640389	0.342120
C31	C	-0.570091	-0.574953	0.342148
C32	C	-0.503156	-0.542218	0.302157
C33	C	-0.436222	-0.574924	0.262147
C34	C	-0.436242	-0.640358	0.262125
C35	C	-0.494737	-0.438492	0.245752
C36	C	-0.494724	-0.373059	0.245773
C37	C	-0.503088	-0.340398	0.302227
C38	C	-0.511486	-0.373177	0.358661
C39	C	-0.511506	-0.438611	0.358638
C40	C	-0.503126	-0.471266	0.302177
C41	C	-0.569984	-0.236747	0.342268
C42	C	-0.569951	-0.171311	0.342297
C43	C	-0.436087	-0.171283	0.262290
C44	C	-0.436115	-0.236718	0.262267
C45	C	-0.503069	-0.269446	0.302255
C46	C	-0.503038	-0.905500	0.139414
C47	C	-0.502752	-0.905599	0.069773
C48	C	-0.436208	-0.945675	0.568005
C49	C	-0.436163	-0.945674	0.633440
C50	C	-0.502991	-0.905595	0.666135
C51	C	-0.569849	-0.865501	0.633389
C52	C	-0.569885	-0.865499	0.567954
C53	C	-0.597087	-0.900634	0.769804
C54	C	-0.597053	-0.900641	0.835237
C55	C	-0.502880	-0.905598	0.867956
C56	C	-0.408738	-0.910563	0.835233
C57	C	-0.408774	-0.910560	0.769799
C58	C	-0.502959	-0.905592	0.737087
C59	C	-0.435972	-0.945685	0.971646
C60	C	-0.435925	-0.945680	1.037083
C61	C	-0.569621	-0.865510	1.037030
C62	C	-0.569658	-0.865512	0.971595
C63	C	-0.502835	-0.905603	0.938907
H64	H	-0.897922	-0.976236	0.231621
O65	O	-0.642271	-0.136085	0.385405
H66	H	-0.624590	-0.148703	0.434609
O67	O	-0.520552	-0.473967	0.419502
H68	H	-0.450572	-0.503818	0.425948
H69	H	-1.107045	-0.976306	0.231645
O70	O	-0.363939	-0.271986	0.219110
H71	H	-0.375192	-0.322986	0.225816
O72	O	-1.055449	-0.862358	0.345356
H73	H	-1.076284	-0.873068	0.394559
O74	O	-0.363813	-0.988913	1.072401
H75	H	-0.381739	-1.038084	1.059889
H76	H	-0.935333	-0.872919	0.334774
O77	O	-0.698670	-0.895280	0.734522
H78	H	-0.709339	-0.937245	0.704736
H79	H	-0.381744	-0.666980	0.229546
O80	O	-0.307242	-0.915908	0.734506
H81	H	-0.308901	-0.958354	0.704729
O82	O	-0.641927	-0.822269	0.668646
H83	H	-0.630678	-0.829009	0.719648
H84	H	-0.518294	-0.346585	0.404631
H85	H	-0.624635	-0.667032	0.374682
H86	H	-0.624022	-0.832870	1.063650
O87	O	-0.642313	-0.539674	0.385276
H88	H	-0.688889	-0.573425	0.413067
H89	H	-0.381555	-0.978326	0.945030
O90	O	-0.642156	-0.272059	0.385413
H91	H	-0.695276	-0.301819	0.357317
H92	H	-0.381582	-0.144630	0.229732
H93	H	-0.487893	-0.346375	0.199821
O94	O	-0.307151	-0.915894	0.870511
H95	H	-0.322935	-0.915048	0.921508
O96	O	-0.364136	-0.988914	0.532748
H97	H	-0.282115	-0.978186	0.545292
O98	O	-0.641971	-0.822249	0.532637
H99	H	-0.688427	-0.794372	0.566362
H100	H	-0.487922	-0.465080	0.199777
O101	O	-0.364047	-0.539623	0.218999
H102	H	-0.375291	-0.488628	0.225726
H103	H	-0.381717	-0.978315	0.660101
H104	H	-0.624104	-0.832874	0.944939
H105	H	-0.673709	-0.896602	0.861874
