data_functionalizedCrystal
_audit_creation_method	'MofGen! by Chris Wilmer'
_symmetry_space_group_name_H-M	'P1'
_symmetry_Int_Tables_number	1
_symmetry_cell_setting	triclinic
loop_
_symmetry_equiv_pos_as_xyz
  x,y,z
_cell_length_a	10.489746
_cell_length_b	10.489741
_cell_length_c	9.798715
_cell_angle_alpha	89.997135
_cell_angle_beta	89.999231
_cell_angle_gamma	84.540238
loop_
_atom_site_label
_atom_site_type_symbol
_atom_site_fract_x
_atom_site_fract_y
_atom_site_fract_z
O1	O	1.694049	0.179997	-0.113398
O2	O	1.322854	0.196883	-0.113421
O3	O	1.516898	0.002842	-0.113401
O4	O	1.500005	0.374037	-0.113418
O5	O	1.516883	0.002841	0.113581
O6	O	1.322839	0.196882	0.113561
O7	O	1.694034	0.179996	0.113584
Zn8	Zn	1.508434	0.188439	0.149611
Zn9	Zn	1.508454	0.188440	-0.149448
O10	O	1.499990	0.374037	0.113564
C11	C	1.275315	0.195606	0.000067
C12	C	1.133686	0.191786	0.000058
C13	C	0.980828	0.066062	0.000083
C14	C	1.058215	0.128919	0.111991
C15	C	1.058185	0.128949	-0.111796
C16	C	0.958723	0.247900	0.112092
C17	C	0.958688	0.247913	-0.111795
C18	C	1.036025	0.310856	0.000139
C19	C	1.515614	-0.044690	0.000089
C20	C	1.511797	-0.186320	0.000086
C21	C	1.388333	-0.254462	0.000069
C22	C	1.446649	-0.346584	0.111986
C23	C	1.446693	-0.346558	-0.111800
C24	C	1.570164	-0.276576	0.112096
C25	C	1.570191	-0.276540	-0.111791
C26	C	1.628597	-0.368635	0.000154
C27	C	1.741573	0.181273	0.000092
C28	C	1.883202	0.185093	0.000092
C29	C	1.501273	0.421569	0.000070
C30	C	1.505091	0.563198	0.000064
N31	N	1.508431	0.188438	0.353710
N32	N	1.508467	0.188431	-0.353548
C33	C	1.589904	0.106606	0.421496
C34	C	1.589924	0.106602	0.578658
H35	H	1.101633	0.078678	-0.206407
C36	C	1.558294	-0.149215	-0.315818
C37	C	1.640662	-0.234611	-0.239515
H38	H	1.601797	-0.123322	-0.394672
H39	H	1.485342	-0.190181	-0.342686
H40	H	1.531897	-0.076215	-0.261848
H41	H	1.667051	-0.307615	-0.293482
H42	H	1.713637	-0.193645	-0.212649
C43	C	1.662177	-0.113582	0.377146
C44	C	1.684051	0.012056	0.342745
H45	H	1.720298	-0.171945	0.328512
H46	H	1.674571	-0.126015	0.472417
H47	H	1.576831	-0.127998	0.353816
H48	H	1.769396	0.026474	0.366084
H49	H	1.671668	0.024493	0.247452
C50	C	1.141606	0.472741	0.116339
C51	C	1.069085	0.450678	0.000210
H52	H	1.162023	0.559058	0.116381
H53	H	1.093614	0.457285	0.195846
H54	H	1.218375	0.416854	0.115533
H55	H	0.992311	0.506559	0.001021
H56	H	1.117076	0.466147	-0.079317
H57	H	1.659682	0.036547	0.636951
H58	H	0.956107	-0.037439	0.000201
H59	H	1.438688	0.258489	0.412028
H60	H	1.438715	0.258499	0.588169
C61	C	1.204682	-0.041123	0.200045
C62	C	1.116907	0.061091	0.239719
H63	H	1.240914	-0.082996	0.278897
H64	H	1.162005	-0.100092	0.147371
H65	H	1.270666	-0.009595	0.146976
H66	H	1.050917	0.029561	0.292779
H67	H	1.159584	0.120069	0.292415
C68	C	0.767292	0.311427	0.238869
C69	C	0.900304	0.315666	0.239977
H70	H	0.731230	0.353248	0.317827
H71	H	0.732360	0.353414	0.159513
H72	H	0.748080	0.224738	0.238538
H73	H	0.919516	0.402355	0.240297
H74	H	0.935247	0.273681	0.319354
H75	H	0.915193	0.298116	-0.206416
C76	C	1.439581	-0.351423	0.356841
C77	C	1.376125	-0.388463	0.239707
H78	H	1.396031	-0.377269	0.435685
H79	H	1.524918	-0.390884	0.356959
H80	H	1.440808	-0.260989	0.357328
H81	H	1.374906	-0.478897	0.239216
H82	H	1.290765	-0.349005	0.239590
C83	C	1.186952	-0.222544	0.117548
C84	C	1.251303	-0.187424	0.000207
H85	H	1.102362	-0.181149	0.117639
H86	H	1.183584	-0.312706	0.118348
H87	H	1.231262	-0.197574	0.196240
H88	H	1.206998	-0.212403	-0.078485
H89	H	1.254665	-0.097243	-0.000605
H90	H	1.622353	-0.245743	0.206820
H91	H	1.730200	-0.418057	0.000222
H92	H	1.394443	-0.377522	-0.206427
