data_functionalizedCrystal
_audit_creation_method	'MofGen! by Chris Wilmer'
_symmetry_space_group_name_H-M	'P1'
_symmetry_Int_Tables_number	1
_symmetry_cell_setting	triclinic
loop_
_symmetry_equiv_pos_as_xyz
  x,y,z
_cell_length_a	14.044191
_cell_length_b	14.044220
_cell_length_c	7.681481
_cell_angle_alpha	96.267166
_cell_angle_beta	83.749037
_cell_angle_gamma	93.190327
loop_
_atom_site_label
_atom_site_type_symbol
_atom_site_fract_x
_atom_site_fract_y
_atom_site_fract_z
O1	O	1.268914	0.238471	0.146353
O2	O	1.768914	0.738471	0.646353
O3	O	0.992240	0.230159	0.146375
O4	O	1.492240	0.730159	0.646375
O5	O	1.126425	0.095978	0.146347
O6	O	1.626425	0.595978	0.646347
O7	O	1.134729	0.372652	0.146381
O8	O	1.634729	0.872652	0.646381
O9	O	1.142938	0.079422	-0.146514
O10	O	1.642938	0.579422	0.353486
O11	O	1.008753	0.213603	-0.146486
O12	O	1.508753	0.713603	0.353514
O13	O	1.285427	0.221915	-0.146508
O14	O	1.785427	0.721915	0.353492
Zn15	Zn	1.149711	0.215130	-0.192995
Zn16	Zn	1.649711	0.715130	0.307005
Zn17	Zn	1.127956	0.236944	0.192862
Zn18	Zn	1.627956	0.736944	0.692862
O19	O	1.151242	0.356096	-0.146480
O20	O	1.651242	0.856096	0.353520
C21	C	0.964875	0.218245	-0.000053
C22	C	1.464875	0.718245	0.499947
C23	C	0.858731	0.207398	-0.000045
C24	C	1.358731	0.707398	0.499955
C25	C	0.613273	0.264498	-0.000055
C26	C	1.113273	0.764498	0.499945
C27	C	0.664399	0.187581	-0.000062
C28	C	1.164399	0.687581	0.499938
C29	C	0.772535	0.198610	-0.000052
C30	C	1.272535	0.698610	0.499948
C31	C	0.505127	0.253471	-0.000065
C32	C	1.005127	0.753471	0.499935
C33	C	1.131046	0.052078	-0.000084
C34	C	1.631046	0.552078	0.499916
C35	C	1.120201	-0.054065	-0.000085
C36	C	1.620201	0.445935	0.499915
C37	C	1.100374	-0.248402	-0.000058
C38	C	1.600374	0.251598	0.499942
C39	C	1.177288	-0.299530	-0.000059
C40	C	1.677288	0.200470	0.499941
C41	C	1.166256	-0.407665	-0.000044
C42	C	1.666256	0.092335	0.499956
C43	C	1.111405	-0.140256	-0.000073
C44	C	1.611405	0.359744	0.499927
C45	C	1.312792	0.233829	-0.000076
C46	C	1.812792	0.733829	0.499924
C47	C	1.418935	0.244677	-0.000072
C48	C	1.918935	0.744677	0.499928
C49	C	1.146621	0.399996	-0.000045
C50	C	1.646621	0.899996	0.499955
C51	C	1.157465	0.506140	-0.000032
C52	C	1.657465	1.006140	0.499968
N53	N	1.164566	0.200243	-0.456332
N54	N	1.664566	0.700243	0.043668
N55	N	1.113108	0.251824	0.456200
N56	N	1.613108	0.751824	0.956200
H57	H	0.626949	0.113455	0.000053
H58	H	1.126949	0.613455	0.500053
N59	N	1.043518	0.321563	-0.444205
N60	N	1.543518	0.821563	0.055795
H61	H	1.079346	0.371178	-0.367696
H62	H	1.579346	0.871178	0.132304
H63	H	0.993844	0.285754	-0.367831
H64	H	1.493844	0.785754	0.132169
H65	H	1.217106	0.147599	-0.531549
H66	H	1.717106	0.647599	-0.031549
H67	H	0.650713	0.338625	-0.000041
H68	H	1.150713	0.838625	0.499959
H69	H	1.251416	-0.262082	0.000053
H70	H	1.751416	0.237918	0.500053
H71	H	1.026245	-0.285840	-0.000048
H72	H	1.526245	0.214160	0.499952
