data_functionalizedCrystal
_audit_creation_method	'MofGen! by Chris Wilmer'
_symmetry_space_group_name_H-M	'P1'
_symmetry_Int_Tables_number	1
_symmetry_cell_setting	triclinic
loop_
_symmetry_equiv_pos_as_xyz
  x,y,z
_cell_length_a	13.339070
_cell_length_b	14.044220
_cell_length_c	11.804365
_cell_angle_alpha	102.927057
_cell_angle_beta	74.875130
_cell_angle_gamma	104.409086
loop_
_atom_site_label
_atom_site_type_symbol
_atom_site_fract_x
_atom_site_fract_y
_atom_site_fract_z
O1	O	1.405383	0.472644	-0.099085
O2	O	1.105089	0.408756	-0.099076
O3	O	1.250726	0.301532	-0.099069
O4	O	1.259745	0.579868	-0.099093
O5	O	1.212382	0.329720	0.098985
O6	O	1.066744	0.436945	0.098978
O7	O	1.367038	0.500832	0.098969
Cu8	Cu	1.213390	0.471462	0.117057
Cu9	Cu	1.258737	0.438126	-0.117165
O10	O	1.221401	0.608057	0.098961
C11	C	1.047253	0.412058	-0.000048
C12	C	0.932048	0.379890	-0.000044
C13	C	0.589834	0.630011	-0.000084
C14	C	0.698075	0.660237	-0.000092
C15	C	0.756574	0.590153	-0.000079
C16	C	0.706820	0.489838	-0.000060
C17	C	0.598569	0.459607	-0.000062
C18	C	0.765309	0.419749	-0.000057
C19	C	0.715555	0.319434	-0.000038
C20	C	0.607315	0.289209	-0.000040
C21	C	0.548817	0.359293	-0.000052
C22	C	0.873560	0.449980	-0.000055
C23	C	0.882295	0.279576	-0.000034
C24	C	0.774054	0.249350	-0.000026
C25	C	1.227608	0.279274	-0.000041
C26	C	1.215837	0.170953	-0.000039
C27	C	1.194321	-0.027371	-0.000056
C28	C	1.277803	-0.063049	-0.000062
C29	C	1.265832	-0.173403	-0.000071
C30	C	1.206291	0.082993	-0.000047
C31	C	1.424874	0.497530	-0.000062
C32	C	1.540081	0.529697	-0.000074
C33	C	1.244520	0.630314	-0.000069
C34	C	1.256292	0.738634	-0.000078
N35	N	1.181503	0.494911	0.281796
N36	N	1.290631	0.414672	-0.281904
C37	C	1.367201	0.358346	0.655754
C38	C	1.391322	0.340602	0.531094
C39	C	1.338869	0.379178	0.468763
C40	C	1.262292	0.435500	0.531106
C41	C	1.238175	0.453251	0.655778
C42	C	1.209842	0.474083	0.468787
C43	C	1.133265	0.530405	0.531129
C44	C	1.109151	0.548153	0.655790
C45	C	1.161604	0.509578	0.718120
C46	C	1.233960	0.456332	0.344115
C47	C	1.104933	0.551237	0.344138
C48	C	1.080812	0.568980	0.468799
H49	H	0.844709	0.614769	-0.000088
C50	C	1.474073	0.279094	0.463197
C51	C	1.483814	0.271636	0.340682
C52	C	1.559874	0.214798	0.278098
H53	H	1.452714	0.214271	0.483725
H54	H	1.540431	0.310435	0.483311
H55	H	1.417471	0.240293	0.320576
H56	H	1.505187	0.336443	0.320119
H57	H	1.626231	0.246139	0.298212
H58	H	1.538507	0.149978	0.298635
H59	H	1.566500	0.209737	0.194965
H60	H	1.358282	-0.010728	-0.000144
H61	H	1.113865	-0.079700	-0.000056
H62	H	0.566811	0.207524	-0.000038
H63	H	0.738579	0.741912	-0.000116
C64	C	0.526422	0.706099	-0.000350
C65	C	0.569830	0.750328	-0.102268
C66	C	0.511434	0.820421	-0.102565
H67	H	0.528949	0.755983	0.068629
H68	H	0.454833	0.673751	-0.000417
H69	H	0.641401	0.782676	-0.102190
H70	H	0.567302	0.700470	-0.171264
H71	H	0.439845	0.788072	-0.102632
H72	H	0.513965	0.870297	-0.033582
H73	H	0.540872	0.850432	-0.171720
H74	H	1.296309	0.410475	0.293367
C75	C	1.365166	0.360114	0.333417
C76	C	1.402342	0.451303	0.292150
C77	C	1.426591	0.433774	0.167471
H78	H	1.303259	0.325399	0.305082
H79	H	1.418324	0.321090	0.305169
H80	H	1.349187	0.490311	0.320386
H81	H	1.464256	0.486030	0.320452
H82	H	1.479750	0.394750	0.139223
H83	H	1.364680	0.399058	0.139148
H84	H	1.451827	0.495641	0.139455
H85	H	1.409908	0.326949	0.706512
H86	H	1.018462	0.614840	0.519573
C87	C	0.719850	0.140474	-0.000075
C88	C	0.612541	0.129004	-0.000108
C89	C	0.562579	0.028722	-0.000169
H90	H	0.725891	0.120142	0.068976
H91	H	0.752702	0.100560	-0.069165
H92	H	0.579699	0.168905	0.068975
H93	H	0.606469	0.149315	-0.069154
H94	H	0.595431	-0.011193	-0.069259
H95	H	0.568628	0.008398	0.068882
H96	H	0.489768	0.020924	-0.000203
C97	C	1.025950	0.609294	0.723263
C98	C	0.985155	0.639258	0.642000
C99	C	0.908499	0.695572	0.704110
H100	H	1.057353	0.666518	0.771883
H101	H	0.970205	0.569932	0.771886
H102	H	1.040889	0.678619	0.593397
H103	H	0.953732	0.582054	0.593377
H104	H	0.852755	0.656210	0.752733
H105	H	0.939911	0.752791	0.752728
H106	H	0.880804	0.715902	0.648983
H107	H	1.062223	0.582651	0.293390
C108	C	0.927774	0.558833	-0.000135
C109	C	1.035097	0.570309	-0.000165
C110	C	1.085075	0.670573	-0.000256
H111	H	0.894990	0.598821	0.068904
H112	H	0.921674	0.579068	-0.069236
H113	H	1.041191	0.550085	0.068929
H114	H	1.067911	0.530343	-0.069200
H115	H	1.078975	0.690809	-0.069357
H116	H	1.052282	0.710554	0.068785
H117	H	1.157900	0.678371	-0.000287
C118	C	0.945960	0.203555	-0.000205
C119	C	1.028107	0.201450	-0.102081
C120	C	1.086792	0.131448	-0.102276
H121	H	0.900963	0.139427	-0.000264
H122	H	0.975060	0.221639	0.068827
H123	H	0.999008	0.183360	-0.171095
H124	H	1.073128	0.265560	-0.102044
H125	H	1.115893	0.149532	-0.033245
H126	H	1.041787	0.067325	-0.102332
H127	H	1.142541	0.130017	-0.171392
H128	H	1.141963	0.524020	0.819629
H129	H	0.460677	0.334688	-0.000045
