data_functionalizedCrystal
_audit_creation_method	'MofGen! by Chris Wilmer'
_symmetry_space_group_name_H-M	'P1'
_symmetry_Int_Tables_number	1
_symmetry_cell_setting	triclinic
loop_
_symmetry_equiv_pos_as_xyz
  x,y,z
_cell_length_a	27.440280
_cell_length_b	27.440280
_cell_length_c	18.878441
_cell_angle_alpha	59.992727
_cell_angle_beta	90.004987
_cell_angle_gamma	60.007024
loop_
_atom_site_label
_atom_site_type_symbol
_atom_site_fract_x
_atom_site_fract_y
_atom_site_fract_z
Zr1	Zr	0.469577	0.533359	-0.092942
O2	O	0.391770	0.635037	-0.206076
O3	O	0.493419	0.431690	-0.058251
O4	O	0.493430	0.533359	-0.206045
O5	O	0.391762	0.533364	0.058289
O6	O	0.573632	0.533350	-0.206030
O7	O	0.391759	0.533367	-0.058283
O8	O	0.573613	0.351482	0.058346
O9	O	0.391781	0.715232	-0.206087
O10	O	0.563454	0.473498	-0.043456
O11	O	0.503602	0.473502	0.043529
O12	O	0.503614	0.593205	-0.130478
O13	O	0.443762	0.593210	-0.043493
Zr14	Zr	0.597496	0.533339	0.093000
Zr15	Zr	0.597491	0.533344	-0.092919
Zr16	Zr	0.469582	0.533354	0.092977
Zr17	Zr	0.469596	0.661262	-0.092958
Zr18	Zr	0.597477	0.405436	0.093017
O19	O	0.573654	0.635009	0.058309
O20	O	0.573647	0.635015	-0.206043
O21	O	0.391777	0.635030	0.058276
O22	O	0.675303	0.431662	0.206135
O23	O	0.675296	0.431668	-0.058218
O24	O	0.493426	0.431683	0.206101
O25	O	0.675311	0.533334	-0.058231
O26	O	0.573643	0.533339	0.206103
O27	O	0.493440	0.533349	0.206088
O28	O	0.675314	0.533331	0.058341
O29	O	0.493456	0.715221	-0.206068
O30	O	0.573617	0.351478	0.206126
O31	O	0.675291	0.351466	0.206145
O32	O	0.675287	0.351470	0.058364
O33	O	0.391785	0.715229	-0.058306
O34	O	0.493460	0.715217	-0.058287
O35	O	0.563458	0.473493	0.130537
O36	O	0.623310	0.473488	0.043551
O37	O	0.563471	0.593196	-0.043471
O38	O	0.503619	0.593201	0.043514
C39	C	0.533513	0.373362	0.000050
C40	C	0.533505	0.319064	0.000056
C41	C	0.577722	0.040174	0.064267
C42	C	0.577716	0.091196	0.064270
O43	O	0.615297	0.080013	0.118882
N44	N	0.533531	0.160894	0.000039
C45	C	0.489351	0.179570	-0.064205
O46	O	0.451767	0.243538	-0.118839
C47	C	0.489359	0.128548	-0.064211
C48	C	0.533544	0.058850	0.000030
C49	C	0.621904	-0.029521	0.128502
C50	C	0.621909	-0.080539	0.128499
C51	C	0.577731	-0.061863	0.064262
C52	C	0.533549	0.007832	0.000027
C53	C	0.445182	0.147224	-0.128458
C54	C	0.445195	0.096196	-0.128459
C55	C	0.489380	0.026498	-0.064218
C56	C	0.489376	-0.024510	-0.064213
N57	N	0.533562	-0.094208	0.000018
C58	C	0.577740	-0.112884	0.064256
C59	C	0.489337	0.286715	-0.064188
C60	C	0.489326	0.337736	-0.064179
C61	C	0.577692	0.249359	0.064296
C62	C	0.577700	0.198337	0.064289
C63	C	0.533523	0.217017	0.000043
C64	C	0.577746	-0.220023	0.064245
C65	C	0.577745	-0.271042	0.064239
C66	C	0.489381	-0.182660	-0.064237
C67	C	0.489379	-0.131645	-0.064229
C68	C	0.533567	-0.150332	0.000017
O69	O	0.451816	-0.013379	-0.118799
O70	O	0.615321	-0.176852	0.118874
C71	C	0.373535	0.533368	-0.000000
C72	C	0.319232	0.533374	-0.000010
C73	C	0.013770	0.470852	0.045478
C74	C	-0.037248	0.470848	0.045486
O75	O	-0.037072	0.417706	0.084144
N76	N	-0.094001	0.533333	0.000060
C77	C	-0.099734	0.595827	-0.045369
O78	O	-0.152690	0.648975	-0.084006
C79	C	-0.048716	0.595830	-0.045371
C80	C	0.008036	0.533340	0.000050
C81	C	0.070519	0.408367	0.090896
C82	C	0.121534	0.408371	0.090887
C83	C	0.115800	0.470860	0.045460
C84	C	0.059051	0.533344	0.000041
C85	C	-0.054449	0.658322	-0.090795
C86	C	-0.003425	0.658320	-0.090793
C87	C	0.053326	0.595831	-0.045371
C88	C	0.104331	0.595837	-0.045396
N89	N	0.161083	0.533351	0.000030
C90	C	0.166818	0.470863	0.045457
C91	C	-0.206872	0.595815	-0.045360
C92	C	-0.257890	0.595813	-0.045364
C93	C	-0.195401	0.470834	0.045493
C94	C	-0.144383	0.470837	0.045491
C95	C	-0.150120	0.533330	0.000066
C96	C	0.273950	0.470876	0.045434
C97	C	0.324967	0.470886	0.045418
C98	C	0.262473	0.595864	-0.045434
C99	C	0.211461	0.595855	-0.045422
C100	C	0.217203	0.533356	0.000018
O101	O	0.104200	0.648952	-0.084032
O102	O	0.219776	0.417724	0.084097
C103	C	0.693537	0.533330	0.000058
C104	C	0.747840	0.533324	0.000068
C105	C	0.533530	0.533355	-0.232527
C106	C	0.533528	0.533357	-0.311454
C107	C	0.533560	0.693336	0.000009
C108	C	0.533568	0.747634	0.000002
C109	C	0.502293	0.595842	-0.393960
C110	C	0.502299	0.595840	-0.468117
C111	C	0.533537	0.533352	-0.459768
C112	C	0.564776	0.470861	-0.377254
C113	C	0.564773	0.470864	-0.303098
C114	C	0.564778	0.470859	-0.531821
C115	C	0.564780	0.470856	-0.605982
C116	C	0.502303	0.595835	-0.696840
C117	C	0.502301	0.595838	-0.622685
C118	C	0.533539	0.533348	-0.540176
C119	C	0.533542	0.533344	0.232585
C120	C	0.533545	0.533342	0.311513
C121	C	0.693514	0.373343	0.000079
C122	C	0.747809	0.319039	0.000095
C123	C	0.533519	0.373356	0.232606
C124	C	0.533513	0.319056	0.311540
C125	C	0.693520	0.373338	0.232635
C126	C	0.747817	0.319031	0.311579
C127	C	0.373552	0.693361	-0.232577
C128	C	0.319255	0.747667	-0.311521
C129	C	0.373559	0.693355	-0.000020
C130	C	0.319264	0.747660	-0.000037
C131	C	0.533554	0.693342	-0.232547
C132	C	0.533559	0.747642	-0.311482
C133	C	0.742062	0.293542	-0.045321
C134	C	0.793073	0.242524	-0.045323
C135	C	0.849831	0.217001	0.000098
C136	C	0.855577	0.242503	0.045516
C137	C	0.804566	0.293523	0.045512
C138	C	0.564755	0.293552	0.394033
C139	C	0.564747	0.242538	0.468207
C140	C	0.533501	0.217027	0.459887
C141	C	0.502255	0.242536	0.377385
C142	C	0.502260	0.293552	0.303212
C143	C	0.804563	0.293526	0.303247
C144	C	0.855586	0.242506	0.377416
C145	C	0.849862	0.216989	0.459917
C146	C	0.793109	0.242500	0.468248
C147	C	0.742088	0.293522	0.394079
C148	C	0.262509	0.773179	-0.303188
C149	C	0.211487	0.824214	-0.377358
C150	C	0.217211	0.849734	-0.459859
C151	C	0.273963	0.824220	-0.468189
C152	C	0.324985	0.773189	-0.394021
C153	C	0.325011	0.773162	0.045372
C154	C	0.274000	0.824194	0.045353
C155	C	0.217242	0.849719	-0.000070
C156	C	0.211496	0.824214	-0.045485
C157	C	0.262507	0.773187	-0.045471
C158	C	0.564812	0.773137	-0.303133
C159	C	0.564829	0.824151	-0.377293
C160	C	0.533590	0.849673	-0.459801
C161	C	0.502336	0.824172	-0.468148
C162	C	0.502323	0.773156	-0.393989
H163	H	0.453411	-0.167464	-0.116535
Cl164	Cl	0.140149	0.856275	-0.366865
H165	H	0.476861	0.646722	-0.629489
H166	H	0.613727	-0.327794	0.116555
Cl167	Cl	0.140115	0.674414	-0.102542
Cl168	Cl	0.785836	0.210472	-0.102420
Cl169	Cl	0.604118	0.856202	-0.366780
Cl170	Cl	0.433769	0.425352	-0.144931
Cl171	Cl	0.463060	0.856270	-0.571879
H172	H	0.278690	0.844951	0.082338
Cl173	Cl	0.396321	0.741118	-0.404511
Cl174	Cl	0.396357	0.741088	0.102478
H175	H	0.476865	0.646722	-0.535294
Cl176	Cl	0.604060	0.392299	-0.428096
H177	H	0.590200	0.314317	0.400825
H178	H	0.891411	0.175444	0.520303
H179	H	0.901795	0.221715	0.082496
Cl180	Cl	0.077743	0.329799	0.148016
Cl181	Cl	0.192873	0.329809	0.147999
H182	H	0.476871	0.752403	-0.400798
Cl183	Cl	0.463019	0.674404	-0.404467
Cl184	Cl	0.785923	0.210413	0.571970
H185	H	0.175711	0.891269	-0.000075
Cl186	Cl	-0.073042	0.392276	0.102596
H187	H	0.476815	0.221757	0.370623
Cl188	Cl	0.281177	0.392304	0.102558
H189	H	0.257837	0.752404	-0.236018
H190	H	0.175661	0.891286	-0.520244
H191	H	0.613727	-0.235248	0.116560
Cl192	Cl	0.463035	0.674395	-0.800565
H193	H	0.409221	0.111414	-0.180779
Cl194	Cl	0.604048	0.392304	-0.366758
Cl195	Cl	-0.329230	0.674375	-0.102480
H196	H	0.165277	0.845005	-0.082468
Cl197	Cl	0.281150	0.856306	-0.571912
Cl198	Cl	-0.125784	0.736886	-0.147891
H199	H	0.590208	0.419982	-0.235919
Cl200	Cl	0.255271	0.741128	-0.102556
Cl201	Cl	0.677461	-0.168155	0.209261
H202	H	-0.190739	0.419952	0.082480
Cl203	Cl	0.677448	-0.053016	0.209270
H204	H	0.590216	0.419973	-0.599178
Cl205	Cl	0.604090	0.741063	-0.199418
H206	H	0.695852	0.314322	-0.082319
Cl207	Cl	0.811802	0.325566	0.102621
H208	H	0.476821	0.314312	0.236046
H209	H	0.613680	0.141588	0.116600
Cl210	Cl	0.633232	0.225889	0.145049
Cl211	Cl	0.913953	0.152858	0.000096
H212	H	0.371176	0.419997	0.082408
H213	H	0.695885	0.314282	0.400876
Cl214	Cl	0.533610	0.913811	-0.553022
H215	H	0.590193	0.221774	0.535377
Cl216	Cl	-0.214094	0.674386	-0.102481
Cl217	Cl	0.433789	0.310209	-0.144956
H218	H	0.453386	-0.074893	-0.116518
Cl219	Cl	0.389631	0.234836	-0.209222
H220	H	-0.008104	0.709210	-0.127773
H221	H	0.257815	0.646741	-0.082424
H222	H	0.533502	0.175486	0.520290
H223	H	0.809236	0.314294	0.236077
H224	H	0.901791	0.221741	0.370617
