data_functionalizedCrystal
_audit_creation_method	'MofGen! by Chris Wilmer'
_symmetry_space_group_name_H-M	'P1'
_symmetry_Int_Tables_number	1
_symmetry_cell_setting	triclinic
loop_
_symmetry_equiv_pos_as_xyz
  x,y,z
_cell_length_a	9.065218
_cell_length_b	13.330367
_cell_length_c	9.065215
_cell_angle_alpha	89.994022
_cell_angle_beta	85.015291
_cell_angle_gamma	90.007104
loop_
_atom_site_label
_atom_site_type_symbol
_atom_site_fract_x
_atom_site_fract_y
_atom_site_fract_z
O1	O	1.960407	0.083424	0.216336
O2	O	2.460407	0.583424	0.716336
O3	O	1.531122	0.083425	0.234082
O4	O	2.031122	0.583425	0.734082
O5	O	1.754640	0.083420	0.010566
O6	O	2.254640	0.583420	0.510566
O7	O	1.736889	0.083429	0.439851
O8	O	2.236889	0.583429	0.939851
O9	O	1.754605	-0.083427	0.010602
O10	O	2.254605	0.416573	0.510602
O11	O	1.531087	-0.083422	0.234118
O12	O	2.031087	0.416578	0.734118
O13	O	1.960372	-0.083423	0.216371
O14	O	2.460372	0.416577	0.716371
Cu15	Cu	1.745727	-0.098657	0.225248
Cu16	Cu	2.245727	0.401343	0.725248
Cu17	Cu	1.745767	0.098659	0.225206
Cu18	Cu	2.245767	0.598659	0.725206
O19	O	1.736854	-0.083418	0.439887
O20	O	2.236854	0.416582	0.939887
C21	C	1.476118	0.000002	0.232394
C22	C	1.976118	0.500002	0.732394
C23	C	1.312275	0.000002	0.227295
C24	C	1.812275	0.500002	0.727295
N25	N	1.745709	-0.237439	0.225277
N26	N	2.245709	0.262561	0.725277
C27	C	1.836469	-0.710049	0.315921
C28	C	2.336469	-0.210049	0.815921
C29	C	1.655109	-0.710042	0.134431
C30	C	2.155109	-0.210042	0.634431
C31	C	1.655088	-0.605023	0.134454
C32	C	2.155088	-0.105023	0.634454
C33	C	1.745760	-0.552513	0.225210
C34	C	2.245760	-0.052513	0.725210
C35	C	1.836454	-0.605021	0.315943
C36	C	2.336454	-0.105021	0.815943
C37	C	1.564407	-0.552507	0.043711
C38	C	2.064407	-0.052507	0.543711
C39	C	1.564384	-0.447483	0.043729
C40	C	2.064384	0.052517	0.543729
C41	C	1.655049	-0.394970	0.134494
C42	C	2.155049	0.105030	0.634494
C43	C	1.745745	-0.447485	0.225232
C44	C	2.245745	0.052515	0.725232
C45	C	1.836418	-0.394975	0.315988
C46	C	2.336418	0.105025	0.815988
C47	C	1.927107	-0.447487	0.406735
C48	C	2.427107	0.052513	0.906735
C49	C	1.927119	-0.552509	0.406708
C50	C	2.427119	-0.052509	0.906708
C51	C	1.655037	-0.289949	0.134521
C52	C	2.155037	0.210051	0.634521
C53	C	1.836402	-0.289947	0.316010
C54	C	2.336402	0.210053	0.816010
C55	C	2.015376	0.000002	0.218059
C56	C	2.515376	0.500002	0.718059
C57	C	2.179219	0.000009	0.223159
C58	C	2.679219	0.500009	0.723159
C59	C	1.752917	-0.000002	-0.044403
C60	C	2.252917	0.499998	0.455597
C61	C	1.747819	0.000001	-0.208246
C62	C	2.247819	0.500001	0.291754
N63	N	1.745797	0.237440	0.225165
N64	N	2.245797	0.737440	0.725165
C65	C	1.738576	0.000006	0.494856
C66	C	2.238576	0.500006	0.994856
C67	C	1.743674	0.000010	0.658699
C68	C	2.243674	0.500010	1.158699
H69	H	1.910233	-0.247200	0.389923
H70	H	2.410233	0.252800	0.889923
H71	H	2.000939	-0.404720	0.480622
H72	H	2.500939	0.095280	0.980622
H73	H	1.490538	-0.404736	-0.030162
H74	H	1.990538	0.095264	0.469838
H75	H	1.490599	-0.595269	-0.030190
H76	H	1.990599	-0.095269	0.469810
H77	H	1.581203	-0.247198	0.060632
H78	H	2.081203	0.252802	0.560632
H79	H	2.000957	-0.595274	0.480586
H80	H	2.500957	-0.095274	0.980586
H81	H	1.910301	-0.752810	0.389809
H82	H	2.410301	-0.252810	0.889809
H83	H	1.581298	-0.752802	0.060532
H84	H	2.081298	-0.252802	0.560532
