data_functionalizedCrystal
_audit_creation_method	'MofGen! by Chris Wilmer'
_symmetry_space_group_name_H-M	'P1'
_symmetry_Int_Tables_number	1
_symmetry_cell_setting	triclinic
loop_
_symmetry_equiv_pos_as_xyz
  x,y,z
_cell_length_a	10.654550
_cell_length_b	9.730223
_cell_length_c	10.654551
_cell_angle_alpha	90.002638
_cell_angle_beta	95.514820
_cell_angle_gamma	89.999957
loop_
_atom_site_label
_atom_site_type_symbol
_atom_site_fract_x
_atom_site_fract_y
_atom_site_fract_z
O1	O	-1.667840	0.114181	0.176399
O2	O	-1.167840	0.614181	0.676399
O3	O	-1.302361	0.114206	0.193205
O4	O	-0.802361	0.614206	0.693205
O5	O	-1.493503	0.114190	0.002062
O6	O	-0.993503	0.614190	0.502062
O7	O	-1.476698	0.114197	0.367541
O8	O	-0.976698	0.614197	0.867541
O9	O	-1.493490	-0.114390	0.002057
O10	O	-0.993490	0.385610	0.502057
O11	O	-1.302349	-0.114374	0.193199
O12	O	-0.802349	0.385626	0.693199
O13	O	-1.667827	-0.114398	0.176393
O14	O	-1.167827	0.385602	0.676393
Zn15	Zn	-1.485086	-0.150678	0.184795
Zn16	Zn	-0.985086	0.349322	0.684795
Zn17	Zn	-1.485103	0.150486	0.184802
Zn18	Zn	-0.985103	0.650486	0.684802
O19	O	-1.476686	-0.114383	0.367535
O20	O	-0.976686	0.385617	0.867535
C21	C	-1.255557	-0.000081	0.191968
C22	C	-0.755557	0.499919	0.691968
C23	C	-1.116114	-0.000071	0.188276
C24	C	-0.616114	0.499929	0.688276
N25	N	-1.485084	-0.356214	0.184790
N26	N	-0.985084	0.143786	0.684790
C27	C	-1.492262	-0.000097	-0.044738
C28	C	-0.992262	0.499903	0.455262
C29	C	-1.488570	-0.000091	-0.184181
C30	C	-0.988570	0.499909	0.315819
C31	C	-1.714632	-0.000109	0.177630
C32	C	-1.214632	0.499891	0.677630
C33	C	-1.854075	-0.000109	0.181322
C34	C	-1.354075	0.499891	0.681322
C35	C	-1.036629	-0.000073	0.300818
C36	C	-0.536629	0.499927	0.800818
C37	C	-0.905608	-0.000097	0.297341
C38	C	-0.405608	0.499903	0.797341
C39	C	-0.933570	-0.000112	0.068772
C40	C	-0.433570	0.499888	0.568772
C41	C	-1.064589	-0.000097	0.072249
C42	C	-0.564589	0.499903	0.572249
C43	C	-1.569751	-0.428147	0.100188
C44	C	-1.069751	0.071853	0.600188
C45	C	-1.569763	-0.572030	0.100189
C46	C	-1.069763	-0.072030	0.600189
C47	C	-1.400439	-0.572035	0.269404
C48	C	-0.900439	-0.072035	0.769404
C49	C	-1.400421	-0.428154	0.269396
C50	C	-0.900421	0.071846	0.769396
N51	N	-1.485114	0.356022	0.184798
N52	N	-0.985114	0.856022	0.684798
C53	C	-1.486844	0.124510	-0.249682
C54	C	-0.986844	0.624510	0.250318
C55	C	-1.483364	0.124511	-0.380703
C56	C	-0.983364	0.624511	0.119297
C57	C	-1.483342	-0.124699	-0.380710
C58	C	-0.983342	0.375301	0.119290
C59	C	-1.486813	-0.124699	-0.249691
C60	C	-0.986813	0.375301	0.250309
C61	C	-1.477926	-0.000092	0.414336
C62	C	-0.977926	0.499908	0.914336
C63	C	-1.481619	-0.000089	0.553779
C64	C	-0.981619	0.499911	1.053779
H65	H	-1.078576	-0.000062	0.395294
H66	H	-0.578576	0.499938	0.895294
Br67	Br	-1.684648	-0.330520	-0.014637
Br68	Br	-1.184648	0.169480	0.485363
Br69	Br	-1.480953	-0.293803	-0.469624
Br70	Br	-0.980953	0.206197	0.030376
H71	H	-1.129309	-0.000100	-0.019401
H72	H	-0.629309	0.499900	0.480599
H73	H	-1.488211	-0.226170	-0.196358
H74	H	-0.988211	0.273830	0.303642
H75	H	-0.840896	-0.000101	0.388984
H76	H	-0.340896	0.499899	0.888984
H77	H	-1.331469	-0.369583	0.338290
H78	H	-0.831469	0.130417	0.838290
H79	H	-1.488271	0.225974	-0.196348
H80	H	-0.988271	0.725974	0.303652
H81	H	-0.891602	-0.000141	-0.025693
H82	H	-0.391602	0.499859	0.474307
H83	H	-1.638705	-0.630594	0.031297
H84	H	-1.138705	-0.130594	0.531297
Br85	Br	-1.285546	-0.669672	0.384225
Br86	Br	-0.785546	-0.169672	0.884225
H87	H	-1.481955	0.225973	-0.434027
H88	H	-0.981955	0.725973	0.065973
