data_functionalizedCrystal
_audit_creation_method	'MofGen! by Chris Wilmer'
_symmetry_space_group_name_H-M	'P1'
_symmetry_Int_Tables_number	1
_symmetry_cell_setting	triclinic
loop_
_symmetry_equiv_pos_as_xyz
  x,y,z
_cell_length_a	21.395362
_cell_length_b	12.759400
_cell_length_c	21.395356
_cell_angle_alpha	89.976983
_cell_angle_beta	89.957023
_cell_angle_gamma	90.030564
loop_
_atom_site_label
_atom_site_type_symbol
_atom_site_fract_x
_atom_site_fract_y
_atom_site_fract_z
Zn1	Zn	0.957923	-0.417848	-0.354606
Zn2	Zn	0.957857	-0.593540	-0.249837
Zn3	Zn	0.853140	-0.417925	-0.249807
Zn4	Zn	0.853137	-0.593534	-0.354542
O5	O	0.905514	-0.505711	-0.302198
O6	O	1.045592	-0.441124	-0.340747
O7	O	0.943939	-0.570279	-0.162155
O8	O	0.867069	-0.270893	-0.263723
O9	O	1.045544	-0.570205	-0.263774
O10	O	0.944053	-0.270837	-0.340719
O11	O	0.867004	-0.441255	-0.162133
O12	O	0.765462	-0.441249	-0.263661
O13	O	0.867063	-0.570194	-0.442228
O14	O	0.765459	-0.570268	-0.340609
O15	O	0.944050	-0.441118	-0.442275
O16	O	0.943936	-0.740560	-0.263712
O17	O	0.866999	-0.740556	-0.340638
C18	C	0.742727	-0.505767	-0.302125
C19	C	0.673085	-0.505816	-0.302109
C20	C	0.640387	-0.573086	-0.342116
C21	C	0.574952	-0.573060	-0.342144
C22	C	0.542217	-0.505776	-0.302154
C23	C	0.574923	-0.438493	-0.262144
C24	C	0.640357	-0.438513	-0.262122
C25	C	0.438492	-0.497327	-0.245748
C26	C	0.373059	-0.497314	-0.245769
C27	C	0.340396	-0.505707	-0.302223
C28	C	0.373175	-0.514135	-0.358657
C29	C	0.438609	-0.514155	-0.358635
C30	C	0.471265	-0.505746	-0.302174
C31	C	0.236746	-0.572952	-0.342263
C32	C	0.171309	-0.572919	-0.342292
C33	C	0.171281	-0.438358	-0.262287
C34	C	0.236717	-0.438386	-0.262264
C35	C	0.269445	-0.505688	-0.302251
C36	C	0.905477	-0.778679	-0.302185
C37	C	0.905518	-0.895455	-0.302200
C38	C	0.945624	-0.950285	-0.262189
C39	C	0.945663	-1.060009	-0.262209
C40	C	0.865484	-1.060064	-0.342252
C41	C	0.865449	-0.950342	-0.342235
C42	C	0.985693	-0.895398	-0.222154
C43	C	1.025802	-0.950228	-0.182139
C44	C	1.025840	-1.059952	-0.182159
C45	C	0.985770	-1.114846	-0.222193
C46	C	1.068938	-0.505656	-0.302271
C47	C	1.138579	-0.505633	-0.302303
C48	C	0.905563	-0.505646	-0.465621
C49	C	0.905584	-0.505619	-0.535263
C50	C	0.905569	-0.231678	-0.302225
C51	C	0.905592	-0.114902	-0.302236
C52	C	0.865535	-0.438428	-0.567955
C53	C	0.865533	-0.438409	-0.633390
C54	C	0.905591	-0.505569	-0.666131
C55	C	0.945644	-0.572772	-0.633431
C56	C	0.945640	-0.572797	-0.567997
C57	C	0.962045	-0.513802	-0.769837
C58	C	0.962049	-0.513770	-0.835270
C59	C	0.905602	-0.505498	-0.867952
C60	C	0.849148	-0.497236	-0.835193
C61	C	0.849144	-0.497261	-0.769759
C62	C	0.905599	-0.505549	-0.737083
C63	C	0.865547	-0.438283	-0.971596
C64	C	0.865543	-0.438270	-1.037033
C65	C	0.945660	-0.572628	-1.037073
C66	C	0.945657	-0.572646	-0.971638
C67	C	0.905602	-0.505467	-0.938903
C68	C	0.905501	-0.505701	-0.139410
C69	C	0.905602	-0.505432	-0.069770
H70	H	0.548324	-0.627838	-0.374725
C71	C	1.024143	-0.522859	-0.871302
H72	H	1.016062	-0.521647	-0.914952
H73	H	1.044160	-0.586820	-0.860586
H74	H	1.050512	-0.465700	-0.860601
C75	C	0.135281	-0.364333	-0.218306
H76	H	0.091627	-0.373955	-0.224049
H77	H	0.146050	-0.293771	-0.227550
H78	H	0.145947	-0.379616	-0.176184
H79	H	0.978271	-0.627357	-0.945020
H80	H	0.832861	-1.104768	-0.374845
H81	H	0.832792	-0.905700	-0.374817
C82	C	0.821473	-0.364540	-0.531950
H83	H	0.797617	-0.324526	-0.560796
H84	H	0.845449	-0.318767	-0.506445
H85	H	0.794159	-0.404751	-0.506402
C86	C	0.474417	-0.488095	-0.183647
H87	H	0.518081	-0.489304	-0.191715
H88	H	0.463641	-0.545185	-0.157237
H89	H	0.463699	-0.424081	-0.163682
H90	H	0.263340	-0.383613	-0.229683
H91	H	0.978256	-0.627510	-0.541380
H92	H	0.465294	-0.521014	-0.404585
H93	H	0.346582	-0.520967	-0.404627
H94	H	1.008015	-0.520530	-0.743233
H95	H	0.666979	-0.383731	-0.229543
H96	H	0.978259	-0.627454	-0.660093
C97	C	1.069957	-1.120262	-0.138146
H98	H	1.093811	-1.071856	-0.114299
H99	H	1.097261	-1.162989	-0.162151
H100	H	1.046011	-1.163137	-0.110823
H101	H	0.263395	-0.627749	-0.374827
C102	C	0.676385	-0.647104	-0.386107
H103	H	0.647536	-0.687156	-0.409942
H104	H	0.701868	-0.692835	-0.362087
H105	H	0.701954	-0.606973	-0.413443
C106	C	0.135341	-0.646934	-0.386293
H107	H	0.164207	-0.687028	-0.410096
H108	H	0.109859	-0.606816	-0.413649
H109	H	0.109774	-0.692643	-0.362273
H110	H	0.346376	-0.490458	-0.199817
C111	C	0.985816	-1.235540	-0.222216
H112	H	1.015440	-1.260336	-0.192652
H113	H	0.996638	-1.260294	-0.262667
H114	H	0.945395	-1.260449	-0.211331
C115	C	0.538917	-0.364483	-0.218156
H116	H	0.495264	-0.374112	-0.223895
H117	H	0.549680	-0.293916	-0.227395
H118	H	0.549589	-0.379774	-0.176037
C119	C	0.985655	-0.774706	-0.222133
H120	H	1.015265	-0.749868	-0.192564
H121	H	0.945219	-0.749970	-0.211249
H122	H	0.996469	-0.749821	-0.262577
H123	H	0.832921	-0.383689	-0.660013
H124	H	1.058429	-0.905527	-0.149548
H125	H	0.803178	-0.490536	-0.743089
H126	H	0.832931	-0.383583	-0.944943
C127	C	0.787051	-0.488166	-0.871134
H128	H	0.795134	-0.489355	-0.914796
H129	H	0.767016	-0.424224	-0.860411
H130	H	0.760695	-0.545348	-0.860376
C131	C	0.821487	-0.364356	-1.072994
H132	H	0.797638	-0.324347	-1.044125
H133	H	0.794178	-0.404539	-1.098496
H134	H	0.845472	-0.318564	-1.098542
H135	H	0.978277	-0.627309	-1.063730
