data_functionalizedCrystal
_audit_creation_method	'MofGen! by Chris Wilmer'
_symmetry_space_group_name_H-M	'P1'
_symmetry_Int_Tables_number	1
_symmetry_cell_setting	triclinic
loop_
_symmetry_equiv_pos_as_xyz
  x,y,z
_cell_length_a	14.044220
_cell_length_b	10.654550
_cell_length_c	9.130313
_cell_angle_alpha	90.004369
_cell_angle_beta	89.996931
_cell_angle_gamma	91.163096
loop_
_atom_site_label
_atom_site_type_symbol
_atom_site_fract_x
_atom_site_fract_y
_atom_site_fract_z
O1	O	1.259697	-0.302986	-0.121795
O2	O	1.759697	0.197014	0.378205
O3	O	0.983656	-0.292053	-0.121799
O4	O	1.483656	0.207947	0.378201
O5	O	1.128023	-0.115418	-0.121788
O6	O	1.628023	0.384582	0.378212
O7	O	1.115330	-0.479621	-0.121806
O8	O	1.615330	0.020379	0.378194
O9	O	1.128013	-0.115411	0.121811
O10	O	1.628013	0.384589	0.621811
O11	O	0.983646	-0.292046	0.121800
O12	O	1.483646	0.207954	0.621800
O13	O	1.259687	-0.302979	0.121804
O14	O	1.759687	0.197021	0.621804
Cu15	Cu	1.121666	-0.297512	0.144044
Cu16	Cu	1.621666	0.202488	0.644044
Cu17	Cu	1.121678	-0.297520	-0.144040
Cu18	Cu	1.621678	0.202480	0.355960
O19	O	1.115320	-0.479614	0.121792
O20	O	1.615320	0.020386	0.621792
C21	C	0.948305	-0.287263	0.000000
C22	C	1.448305	0.212737	0.500000
C23	C	0.842986	-0.272988	-0.000001
C24	C	1.342986	0.227012	0.499999
C25	C	1.127086	-0.068523	0.000011
C26	C	1.627086	0.431477	0.500011
C27	C	1.124298	0.071201	0.000009
C28	C	1.624298	0.571201	0.500009
C29	C	1.295038	-0.307769	0.000001
C30	C	1.795038	0.192231	0.500001
C31	C	1.400358	-0.322044	-0.000007
C32	C	1.900358	0.177956	0.499993
C33	C	1.593191	-0.348143	-0.000007
C34	C	2.093191	0.151857	0.499993
C35	C	1.650158	-0.246895	-0.000001
C36	C	2.150158	0.253105	0.499999
C37	C	1.757457	-0.261416	-0.000001
C38	C	2.257457	0.238584	0.499999
C39	C	1.485882	-0.333623	-0.000007
C40	C	1.985882	0.166377	0.499993
C41	C	1.116257	-0.526509	-0.000009
C42	C	1.616257	-0.026509	0.499991
C43	C	1.119045	-0.666233	-0.000017
C44	C	1.619045	-0.166233	0.499983
N45	N	1.121664	-0.297507	0.346667
N46	N	1.621664	0.202493	0.846667
C47	C	1.209299	0.142144	0.000009
C48	C	1.709299	0.642144	0.500009
C49	C	1.206673	0.273429	-0.000009
C50	C	1.706673	0.773429	0.499991
C51	C	1.034038	0.262814	-0.000022
C52	C	1.534038	0.762814	0.499978
C53	C	1.036665	0.131532	-0.000014
C54	C	1.536665	0.631532	0.499986
N55	N	1.121686	-0.297516	-0.346662
N56	N	1.621686	0.202484	0.153338
C57	C	1.185612	-0.219331	0.423324
C58	C	1.685612	0.280669	0.923324
C59	C	1.185621	-0.219332	0.576660
C60	C	1.685621	0.280668	1.076660
C61	C	1.057732	-0.375695	0.576670
C62	C	1.557732	0.124305	1.076670
C63	C	1.057719	-0.375687	0.423336
C64	C	1.557719	0.124313	0.923336
H65	H	1.625001	-0.445722	-0.000013
H66	H	2.125001	0.054278	0.499987
H67	H	1.280656	0.093027	0.000025
H68	H	1.780656	0.593027	0.500025
H69	H	1.237692	-0.155673	0.639070
H70	H	1.737692	0.344327	1.139070
N71	N	0.944519	0.324424	-0.000003
N72	N	1.444519	0.824424	0.499997
N73	N	0.868631	0.261061	0.000008
N74	N	1.368631	0.761061	0.500008
H75	H	0.805405	0.304570	0.000031
H76	H	1.305405	0.804570	0.500031
N77	N	1.610274	-0.124460	-0.000027
N78	N	2.110274	0.375540	0.499973
N79	N	1.663774	-0.029260	-0.000039
N80	N	2.163774	0.470740	0.499961
H81	H	1.635603	0.057208	-0.000064
H82	H	2.135603	0.557208	0.499936
N83	N	1.293509	0.345877	-0.000019
N84	N	1.793509	0.845877	0.499981
N85	N	1.371742	0.291989	-0.000007
N86	N	1.871742	0.791989	0.499993
H87	H	1.433074	0.343154	-0.000018
H88	H	1.933074	0.843154	0.499982
N89	N	0.949824	0.059074	-0.000030
N90	N	1.449824	0.559074	0.499970
N91	N	0.871587	0.112953	-0.000043
N92	N	1.371587	0.612953	0.499957
H93	H	0.810258	0.061781	-0.000061
H94	H	1.310258	0.561781	0.499939
H95	H	1.237679	-0.155670	0.360903
H96	H	1.737679	0.344330	0.860903
N97	N	0.992422	-0.455542	0.655012
N98	N	1.492422	0.044458	1.155012
N99	N	0.992442	-0.455541	0.791916
N100	N	1.492442	0.044459	1.291916
H101	H	0.946317	-0.511935	0.847245
H102	H	1.446317	-0.011935	1.347245
N103	N	0.992381	-0.455545	0.345046
N104	N	1.492381	0.044455	0.845046
N105	N	0.935297	-0.525346	0.413513
N106	N	1.435297	-0.025346	0.913513
H107	H	0.889150	-0.581740	0.358222
H108	H	1.389150	-0.081740	0.858222
