data_functionalizedCrystal
_audit_creation_method	'MofGen! by Chris Wilmer'
_symmetry_space_group_name_H-M	'P1'
_symmetry_Int_Tables_number	1
_symmetry_cell_setting	triclinic
loop_
_symmetry_equiv_pos_as_xyz
  x,y,z
_cell_length_a	25.639242
_cell_length_b	25.639239
_cell_length_c	19.120904
_cell_angle_alpha	92.410104
_cell_angle_beta	92.422154
_cell_angle_gamma	90.030990
loop_
_atom_site_label
_atom_site_type_symbol
_atom_site_fract_x
_atom_site_fract_y
_atom_site_fract_z
Zn1	Zn	0.786628	-0.220879	-0.397121
Zn2	Zn	1.286628	0.279121	0.102879
Zn3	Zn	0.790277	-0.304584	-0.279670
Zn4	Zn	1.290277	0.195416	0.220330
Zn5	Zn	0.702929	-0.217153	-0.279686
Zn6	Zn	1.202929	0.282847	0.220314
Zn7	Zn	0.699151	-0.308272	-0.397076
Zn8	Zn	1.199151	0.191728	0.102924
O9	O	0.744746	-0.262722	-0.338388
O10	O	1.244746	0.237278	0.161612
O11	O	0.860277	-0.231999	-0.381554
O12	O	1.360277	0.268001	0.118446
O13	O	0.781799	-0.289883	-0.181390
O14	O	1.281799	0.210117	0.318610
O15	O	0.714086	-0.144483	-0.295289
O16	O	1.214086	0.355517	0.204711
O17	O	0.862958	-0.293496	-0.295263
O18	O	1.362958	0.206504	0.204737
O19	O	0.775579	-0.147221	-0.381569
O20	O	1.275579	0.352779	0.118431
O21	O	0.717625	-0.225648	-0.181401
O22	O	1.217625	0.274352	0.318599
O23	O	0.629263	-0.229225	-0.295245
O24	O	1.129263	0.270775	0.204755
O25	O	0.707646	-0.299782	-0.495364
O26	O	1.207646	0.200218	0.004636
O27	O	0.626487	-0.296169	-0.381491
O28	O	1.126487	0.203831	0.118509
O29	O	0.771915	-0.235575	-0.495398
O30	O	1.271915	0.264425	0.004602
O31	O	0.778135	-0.378238	-0.295219
O32	O	1.278135	0.121762	0.204781
O33	O	0.711185	-0.380948	-0.381476
O34	O	1.211185	0.119052	0.118524
C35	C	0.608904	-0.262693	-0.338366
C36	C	1.108904	0.237307	0.161634
C37	C	0.550790	-0.262694	-0.338372
C38	C	1.050790	0.237306	0.161628
C39	C	0.298206	-0.230763	-0.383402
C40	C	0.798206	0.269237	0.116598
C41	C	0.352810	-0.230757	-0.383398
C42	C	0.852810	0.269243	0.116602
O43	O	0.379864	-0.203585	-0.421679
O44	O	0.879864	0.296415	0.078321
N45	N	0.381516	-0.262717	-0.338396
N46	N	0.881516	0.237283	0.161604
C47	C	0.355614	-0.294687	-0.293401
C48	C	0.855614	0.205313	0.206599
O49	O	0.385044	-0.321871	-0.255123
O50	O	0.885044	0.178129	0.244877
C51	C	0.301010	-0.294695	-0.293409
C52	C	0.801010	0.205305	0.206591
C53	C	0.272307	-0.262729	-0.338408
C54	C	0.772307	0.237271	0.161592
C55	C	0.269503	-0.198800	-0.428399
C56	C	0.769503	0.301200	0.071601
C57	C	0.214902	-0.198805	-0.428401
C58	C	0.714902	0.301195	0.071599
C59	C	0.189004	-0.230772	-0.383408
C60	C	0.689004	0.269228	0.116592
C61	C	0.217707	-0.262734	-0.338411
C62	C	0.717707	0.237266	0.161589
C63	C	0.275109	-0.326668	-0.248417
C64	C	0.775109	0.173332	0.251583
C65	C	0.220502	-0.326673	-0.248429
C66	C	0.720502	0.173327	0.251571
C67	C	0.191799	-0.294708	-0.293429
C68	C	0.691799	0.205292	0.206571
C69	C	0.137208	-0.294706	-0.293421
C70	C	0.637208	0.205294	0.206579
N71	N	0.108503	-0.262747	-0.338422
N72	N	0.608503	0.237253	0.161578
C73	C	0.134401	-0.230780	-0.383416
C74	C	0.634401	0.269220	0.116584
C75	C	0.470285	-0.294669	-0.293388
C76	C	0.970285	0.205331	0.206612
C77	C	0.524887	-0.294659	-0.293376
C78	C	1.024887	0.205341	0.206624
C79	C	0.522080	-0.230730	-0.383374
C80	C	1.022080	0.269270	0.116626
C81	C	0.467476	-0.230738	-0.383382
C82	C	0.967476	0.269262	0.116618
C83	C	0.441579	-0.262710	-0.338390
C84	C	0.941579	0.237290	0.161610
C85	C	0.019736	-0.230792	-0.383418
C86	C	0.519736	0.269208	0.116582
C87	C	-0.034870	-0.230797	-0.383415
C88	C	0.465130	0.269203	0.116585
C89	C	-0.032058	-0.294728	-0.293419
C90	C	0.467942	0.205272	0.206581
C91	C	0.022543	-0.294721	-0.293420
C92	C	0.522543	0.205279	0.206580
C93	C	0.048438	-0.262751	-0.338425
C94	C	0.548438	0.237249	0.161575
O95	O	0.110119	-0.321866	-0.255161
O96	O	0.610119	0.178134	0.244839
O97	O	0.104964	-0.203606	-0.421693
O98	O	0.604964	0.296394	0.078307
C99	C	0.744659	-0.398564	-0.338356
C100	C	1.244659	0.101436	0.161644
C101	C	0.744669	-0.456678	-0.338366
C102	C	1.244669	0.043322	0.161634
C103	C	0.779692	-0.815621	-0.293550
C104	C	1.279692	-0.315621	0.206450
C105	C	0.779712	-0.870225	-0.293560
C106	C	1.279712	-0.370225	0.206440
O107	O	0.809399	-0.897253	-0.255421
O108	O	1.309399	-0.397253	0.244579
N109	N	0.744837	-0.898963	-0.338435
N110	N	1.244837	-0.398963	0.161565
C111	C	0.709943	-0.873093	-0.383308
C112	C	1.209943	-0.373093	0.116692
O113	O	0.680281	-0.902550	-0.421479
O114	O	1.180281	-0.402550	0.078521
C115	C	0.709926	-0.818490	-0.383302
C116	C	1.209926	-0.318490	0.116698
C117	C	0.744800	-0.789755	-0.338419
C118	C	1.244800	-0.289755	0.161581
C119	C	0.814563	-0.786886	-0.248672
C120	C	1.314563	-0.286886	0.251328
C121	C	0.814543	-0.732285	-0.248661
C122	C	1.314543	-0.232285	0.251339
C123	C	0.779650	-0.706419	-0.293530
C124	C	1.279650	-0.206419	0.206470
C125	C	0.744779	-0.735154	-0.338409
C126	C	1.244779	-0.235154	0.161591
C127	C	0.675035	-0.792621	-0.428179
C128	C	1.175035	-0.292621	0.071821
C129	C	0.675021	-0.738013	-0.428169
C130	C	1.175021	-0.238013	0.071831
C131	C	0.709895	-0.709279	-0.383286
C132	C	1.209895	-0.209279	0.116714
C133	C	0.709866	-0.654687	-0.383267
C134	C	1.209866	-0.154687	0.116733
N135	N	0.744741	-0.625950	-0.338392
N136	N	1.244741	-0.125950	0.161608
C137	C	0.779633	-0.651816	-0.293524
C138	C	1.279633	-0.151816	0.206476
C139	C	0.709982	-0.987764	-0.383319
C140	C	1.209982	-0.487764	0.116681
C141	C	0.709996	-1.042366	-0.383323
C142	C	1.209996	-0.542366	0.116677
C143	C	0.779766	-1.039495	-0.293575
C144	C	1.279766	-0.539495	0.206425
C145	C	0.779749	-0.984892	-0.293568
C146	C	1.279749	-0.484892	0.206432
C147	C	0.744857	-0.959027	-0.338444
C148	C	1.244857	-0.459027	0.161556
C149	C	0.779587	-0.537150	-0.293505
C150	C	1.279587	-0.037150	0.206495
C151	C	0.779562	-0.482544	-0.293497
C152	C	1.279562	0.017456	0.206503
C153	C	0.709794	-0.485421	-0.383247
C154	C	1.209794	0.014579	0.116753
C155	C	0.709817	-0.540021	-0.383253
C156	C	1.209817	-0.040021	0.116747
C157	C	0.744718	-0.565885	-0.338380
C158	C	1.244718	-0.065885	0.161620
O159	O	0.680195	-0.627624	-0.421389
O160	O	1.180195	-0.127624	0.078611
O161	O	0.809295	-0.622352	-0.255366
O162	O	1.309295	-0.122352	0.244634
C163	C	0.881118	-0.262752	-0.338411
C164	C	1.381118	0.237248	0.161589
C165	C	0.939232	-0.262764	-0.338421
C166	C	1.439232	0.237236	0.161579
C167	C	0.738952	-0.268506	-0.521577
C168	C	1.238952	0.231494	-0.021577
C169	C	0.736483	-0.270971	-0.599641
C170	C	1.236483	0.229029	-0.099641
C171	C	0.744847	-0.126351	-0.338436
C172	C	1.244847	0.373649	0.161564
C173	C	0.744890	-0.068237	-0.338456
C174	C	1.244890	0.431763	0.161544
C175	C	0.768783	-0.238701	-0.636334
C176	C	1.268783	0.261299	-0.136334
C177	C	0.766456	-0.241014	-0.709684
C178	C	1.266456	0.258986	-0.209684
C179	C	0.731833	-0.275601	-0.746339
C180	C	1.231833	0.224399	-0.246339
C181	C	0.699529	-0.307872	-0.709640
C182	C	1.199529	0.192128	-0.209640
C183	C	0.701853	-0.305555	-0.636292
C184	C	1.201853	0.194445	-0.136292
C185	C	0.723139	-0.284266	-0.967802
C186	C	1.223139	0.215734	-0.467802
C187	C	0.720819	-0.286582	-1.041155
C188	C	1.220819	0.213418	-0.541155
C189	C	0.787745	-0.219723	-1.041194
C190	C	1.287745	0.280277	-0.541194
C191	C	0.790068	-0.217411	-0.967844
C192	C	1.290068	0.282589	-0.467844
C193	C	0.757763	-0.249680	-0.931152
C194	C	1.257763	0.250320	-0.431152
C195	C	0.729455	-0.277968	-0.821314
C196	C	1.229455	0.222032	-0.321314
C197	C	0.760139	-0.247310	-0.856178
C198	C	1.260139	0.252690	-0.356178
C199	C	0.750548	-0.256924	-0.155912
C200	C	1.250548	0.243076	0.344088
C201	C	0.753118	-0.254312	-0.077849
C202	C	1.253118	0.245688	0.422151
H203	H	0.199419	-0.352711	-0.211792
H204	H	0.699419	0.147289	0.288208
H205	H	0.444110	-0.204708	-0.420024
H206	H	0.944110	0.295292	0.079976
H207	H	0.449203	-0.320704	-0.256744
H208	H	0.949203	0.179296	0.243256
Cl209	Cl	0.311179	-0.366847	-0.191832
Cl210	Cl	0.811179	0.133153	0.308168
H211	H	0.842942	-0.708893	-0.212116
H212	H	1.342942	-0.208893	0.287884
Cl213	Cl	0.058627	-0.334910	-0.236853
Cl214	Cl	0.558627	0.165090	0.263147
H215	H	0.681564	-0.966708	-0.419860
H216	H	1.181564	-0.466708	0.080140
H217	H	0.675546	-0.331828	-0.606418
H218	H	1.175546	0.168172	-0.106418
Cl219	Cl	0.812315	-0.195220	-0.590261
Cl220	Cl	1.312315	0.304780	-0.090261
H221	H	0.814046	-0.193450	-1.071076
H222	H	1.314046	0.306550	-0.571076
H223	H	0.681383	-0.464352	-0.419777
H224	H	1.181383	0.035648	0.080223
Cl225	Cl	0.858434	-0.819393	-0.192257
Cl226	Cl	1.358434	-0.319393	0.307743
Cl227	Cl	0.631196	-0.828732	-0.484615
Cl228	Cl	1.131196	-0.328732	0.015385
H229	H	0.646608	-0.716957	-0.464714
H230	H	1.146608	-0.216957	0.035286
Cl231	Cl	0.052281	-0.190599	-0.439995
Cl232	Cl	0.552281	0.309401	0.060005
H233	H	0.788327	-0.219148	-0.826331
H234	H	1.288327	0.280852	-0.326331
Cl235	Cl	0.685932	-0.321450	-0.867400
Cl236	Cl	1.185932	0.178550	-0.367400
Cl237	Cl	0.554648	-0.190543	-0.439939
Cl238	Cl	1.054648	0.309457	0.060061
H239	H	0.681421	-0.563419	-0.419803
H240	H	1.181421	-0.063419	0.080197
Cl241	Cl	0.807087	-0.200468	-0.755809
Cl242	Cl	1.307087	0.299532	-0.255809
Cl243	Cl	-0.064626	-0.334913	-0.236858
Cl244	Cl	0.435374	0.165087	0.263142
Cl245	Cl	0.833598	-0.173929	-0.921769
Cl246	Cl	1.333598	0.326071	-0.421769
Cl247	Cl	0.677285	-0.330062	-1.087235
Cl248	Cl	1.177285	0.169938	-0.587235
H249	H	0.548253	-0.320683	-0.256725
H250	H	1.048253	0.179317	0.243275
Cl251	Cl	0.682527	-0.324834	-0.921685
Cl252	Cl	1.182527	0.175166	-0.421685
Cl253	Cl	0.656000	-0.351351	-0.755721
Cl254	Cl	1.156000	0.148649	-0.255721
H255	H	0.808146	-0.961499	-0.257021
H256	H	1.308146	-0.461499	0.242979
H257	H	0.807960	-0.459150	-0.256946
H258	H	1.307960	0.040850	0.243054
H259	H	-0.058237	-0.204765	-0.420059
H260	H	0.441763	0.295235	0.079941
H261	H	0.191537	-0.172778	-0.465048
H262	H	0.691537	0.327222	0.034952
H263	H	0.808179	-1.060565	-0.257043
H264	H	1.308179	-0.560565	0.242957
Cl265	Cl	0.823462	-0.569655	-0.237091
Cl266	Cl	1.323462	-0.069655	0.262909
Cl267	Cl	0.302051	-0.158608	-0.484971
Cl268	Cl	0.802051	0.341392	0.015029
H269	H	0.681593	-1.065758	-0.419864
H270	H	1.181593	-0.565758	0.080136
