data_functionalizedCrystal
_audit_creation_method	'MofGen! by Chris Wilmer'
_symmetry_space_group_name_H-M	'P1'
_symmetry_Int_Tables_number	1
_symmetry_cell_setting	triclinic
loop_
_symmetry_equiv_pos_as_xyz
  x,y,z
_cell_length_a	10.654545
_cell_length_b	10.654551
_cell_length_c	9.730223
_cell_angle_alpha	89.997362
_cell_angle_beta	89.997167
_cell_angle_gamma	84.484254
loop_
_atom_site_label
_atom_site_type_symbol
_atom_site_fract_x
_atom_site_fract_y
_atom_site_fract_z
O1	O	1.667843	0.176371	-0.114270
O2	O	1.302364	0.193183	-0.114276
O3	O	1.493506	0.002038	-0.114270
O4	O	1.476701	0.367517	-0.114276
O5	O	1.493493	0.002033	0.114310
O6	O	1.302352	0.193178	0.114304
O7	O	1.667831	0.176366	0.114310
Zn8	Zn	1.485089	0.184771	0.150599
Zn9	Zn	1.485106	0.184778	-0.150565
O10	O	1.476689	0.367511	0.114304
C11	C	1.255560	0.191948	0.000014
C12	C	1.116116	0.188258	0.000012
C13	C	1.050605	0.186518	0.124611
C14	C	0.919585	0.183031	0.124611
C15	C	0.919599	0.183028	-0.124599
C16	C	1.050618	0.186506	-0.124598
C17	C	1.492265	-0.044762	0.000018
C18	C	1.488573	-0.184205	0.000011
C19	C	1.486847	-0.249706	-0.124589
C20	C	1.483367	-0.380727	-0.124590
C21	C	1.483345	-0.380734	0.124620
C22	C	1.486816	-0.249715	0.124620
C23	C	1.405183	-0.550794	-0.274289
C24	C	1.403479	-0.616302	-0.398896
C25	C	1.478078	-0.582761	-0.508906
C26	C	1.554412	-0.483717	-0.494314
C27	C	1.556128	-0.418217	-0.369705
C28	C	1.481499	-0.451753	-0.259700
C29	C	1.565010	-0.079647	0.274311
C30	C	1.566734	-0.014146	0.398921
C31	C	1.492143	-0.047686	0.508942
C32	C	1.415827	-0.146736	0.494364
C33	C	1.414102	-0.212237	0.369753
C34	C	1.488692	-0.178688	0.259732
C35	C	1.714635	0.177602	0.000017
C36	C	1.854079	0.181292	0.000010
C37	C	1.477929	0.414312	0.000013
C38	C	1.481622	0.553755	0.000010
N39	N	1.485087	0.184766	0.356135
N40	N	1.485117	0.184774	-0.356101
C41	C	1.569754	0.100163	0.428064
C42	C	1.569766	0.100163	0.571947
C43	C	1.400442	0.269381	0.571960
C44	C	1.400424	0.269373	0.428080
H45	H	1.103930	0.187944	0.226076
H46	H	1.103959	0.187920	-0.226068
H47	H	1.351954	-0.292887	0.357888
H48	H	1.618280	-0.337579	-0.357823
Cl49	Cl	1.489048	-0.167355	-0.281239
H50	H	1.355061	-0.174022	0.583939
Cl51	Cl	0.837253	0.180796	-0.281242
H52	H	1.615166	-0.456425	-0.583894
Cl53	Cl	1.676206	-0.006202	0.662367
H54	H	1.476688	-0.636106	-0.610363
Cl55	Cl	1.307514	-0.740806	-0.417240
H56	H	1.344420	-0.578103	-0.184724
Cl57	Cl	1.676183	-0.006206	0.337625
H58	H	1.493564	0.005649	0.610410
Cl59	Cl	1.294017	0.375745	0.662411
Cl60	Cl	1.481136	-0.463098	0.281262
Cl61	Cl	1.662691	0.110365	0.417254
H62	H	1.625741	-0.052318	0.184721
H63	H	0.866252	0.181614	0.226073
Cl64	Cl	1.293972	0.375734	0.337646
