data_functionalizedCrystal
_audit_creation_method	'MofGen! by Chris Wilmer'
_symmetry_space_group_name_H-M	'P1'
_symmetry_Int_Tables_number	1
_symmetry_cell_setting	triclinic
loop_
_symmetry_equiv_pos_as_xyz
  x,y,z
_cell_length_a	12.594517
_cell_length_b	12.594516
_cell_length_c	12.594509
_cell_angle_alpha	89.973801
_cell_angle_beta	90.021327
_cell_angle_gamma	89.984147
loop_
_atom_site_label
_atom_site_type_symbol
_atom_site_fract_x
_atom_site_fract_y
_atom_site_fract_z
Zn1	Zn	1.627267	0.423716	0.601875
Zn2	Zn	2.127267	0.923716	1.101875
Zn3	Zn	1.627158	0.601726	0.423903
Zn4	Zn	2.127158	1.101726	0.923903
Zn5	Zn	1.449271	0.423761	0.423904
Zn6	Zn	1.949271	0.923761	0.923904
Zn7	Zn	1.449253	0.601652	0.601833
Zn8	Zn	1.949253	1.101652	1.101833
O9	O	1.538237	0.512714	0.512879
O10	O	2.038237	1.012714	1.012879
O11	O	1.776198	0.447341	0.578284
O12	O	2.276198	0.947341	1.078284
O13	O	1.603522	0.578169	0.274957
O14	O	2.103522	1.078169	0.774957
O15	O	1.472936	0.274809	0.447530
O16	O	1.972936	0.774809	0.947530
O17	O	1.776118	0.578124	0.447528
O18	O	2.276118	1.078124	0.947528
O19	O	1.603709	0.274776	0.578285
O20	O	2.103709	0.774776	1.078285
O21	O	1.472830	0.447419	0.274958
O22	O	1.972830	0.947419	0.774958
O23	O	1.300323	0.447347	0.447489
O24	O	1.800323	0.947347	0.947489
O25	O	1.472905	0.577998	0.750784
O26	O	1.972905	1.077998	1.250784
O27	O	1.300310	0.578042	0.578213
O28	O	1.800310	1.078042	1.078213
O29	O	1.603691	0.447269	0.750815
O30	O	2.103691	0.947269	1.250815
O31	O	1.603505	0.750662	0.447488
O32	O	2.103505	1.250662	0.947488
O33	O	1.472799	0.750608	0.578212
O34	O	1.972799	1.250608	1.078212
C35	C	1.261696	0.512692	0.512847
C36	C	1.761696	1.012692	1.012847
C37	C	1.143391	0.512709	0.512859
C38	C	1.643391	1.012709	1.012859
C39	C	1.538167	0.789255	0.512868
C40	C	2.038167	1.289255	1.012868
C41	C	1.538235	0.907560	0.512899
C42	C	2.038235	1.407560	1.012899
C43	C	1.074114	0.441526	0.441894
C44	C	1.574114	0.941526	0.941894
C45	C	1.003303	0.538615	0.415718
C46	C	1.503303	1.038615	0.915718
C47	C	1.003403	0.415668	0.539054
C48	C	1.503403	0.915668	1.039054
C49	C	1.074138	0.609849	0.486632
C50	C	1.574138	1.109849	0.986632
C51	C	1.074244	0.486836	0.610013
C52	C	1.574244	0.986836	1.110013
C53	C	1.003465	0.583991	0.583874
C54	C	1.503465	1.083991	1.083874
C55	C	1.538308	0.512620	0.790500
C56	C	2.038308	1.012620	1.290500
C57	C	1.538339	0.512581	0.908805
C58	C	2.038339	1.012581	1.408805
C59	C	1.815858	0.512736	0.512911
C60	C	2.315858	1.012736	1.012911
C61	C	1.934163	0.512745	0.512924
C62	C	2.434163	1.012745	1.012924
C63	C	1.538336	0.235093	0.512912
C64	C	2.038336	0.735093	1.012912
C65	C	1.538378	0.116787	0.512927
C66	C	2.038378	0.616787	1.012927
C67	C	1.467137	0.976822	0.583950
C68	C	1.967137	1.476822	1.083950
C69	C	1.441204	1.047688	0.486827
C70	C	1.941204	1.547688	0.986827
C71	C	1.564265	1.047494	0.610039
C72	C	2.064265	1.547494	1.110039
C73	C	1.512250	0.976867	0.415725
C74	C	2.012250	1.476867	0.915725
C75	C	1.635357	0.976667	0.539002
C76	C	2.135357	1.476667	1.039002
C77	C	1.609460	1.047500	0.441812
C78	C	2.109460	1.547500	0.941812
C79	C	1.538227	0.512730	0.236338
C80	C	2.038227	1.012730	0.736338
C81	C	1.538403	0.512470	0.118033
C82	C	2.038403	1.012470	0.618033
C83	C	1.467227	0.583644	0.978042
C84	C	1.967227	1.083644	1.478042
C85	C	1.564347	0.609650	1.048833
C86	C	2.064347	1.109650	1.548833
C87	C	1.441294	0.486510	1.048813
C88	C	1.941294	0.986510	1.548813
C89	C	1.635510	0.538638	0.978038
C90	C	2.135510	1.038638	1.478038
C91	C	1.512391	0.415453	0.978012
C92	C	2.012391	0.915453	1.478012
C93	C	1.609579	0.441422	1.048772
C94	C	2.109579	0.941422	1.548772
H95	H	1.105135	0.381389	0.381807
H96	H	1.605135	0.881389	0.881807
F97	F	1.742602	0.935863	0.567891
F98	F	2.242602	1.435863	1.067891
F99	F	1.388684	0.662312	0.937446
F100	F	1.888684	1.162312	1.437446
H101	H	1.105429	0.464899	0.692122
H102	H	1.605429	0.964899	1.192122
H103	H	1.586224	1.078518	0.692178
H104	H	2.086224	1.578518	1.192178
F105	F	1.483427	0.936489	0.308332
F106	F	1.983427	1.436489	0.808332
H107	H	0.972144	0.560522	0.333584
H108	H	1.472144	1.060522	0.833584
H109	H	0.972276	0.333597	0.561146
H110	H	1.472276	0.833597	1.061146
H111	H	1.359198	0.464506	1.079902
H112	H	1.859198	0.964506	1.579902
F113	F	1.593080	0.716948	1.089495
F114	F	2.093080	1.216948	1.589495
F115	F	1.742846	0.567531	0.937578
F116	F	2.242846	1.067531	1.437578
H117	H	1.669647	1.078338	0.381669
H118	H	2.169647	1.578338	0.881669
F119	F	1.114576	0.717167	0.457584
F120	F	1.614576	1.217167	0.957584
F121	F	0.963171	0.662781	0.662352
F122	F	1.463171	1.162781	1.162352
H123	H	1.406905	0.945788	0.643949
H124	H	1.906905	1.445788	1.143949
H125	H	1.359136	1.078906	0.464772
H126	H	1.859136	1.578906	0.964772
F127	F	1.688307	0.362811	1.089114
F128	F	2.188307	0.862811	1.589114
H129	H	1.490382	0.333385	0.946881
H130	H	1.990382	0.833385	1.446881
