data_functionalizedCrystal
_audit_creation_method	'MofGen! by Chris Wilmer'
_symmetry_space_group_name_H-M	'P1'
_symmetry_Int_Tables_number	1
_symmetry_cell_setting	triclinic
loop_
_symmetry_equiv_pos_as_xyz
  x,y,z
_cell_length_a	9.065218
_cell_length_b	7.540329
_cell_length_c	9.065218
_cell_angle_alpha	90.001757
_cell_angle_beta	94.984115
_cell_angle_gamma	89.996962
loop_
_atom_site_label
_atom_site_type_symbol
_atom_site_fract_x
_atom_site_fract_y
_atom_site_fract_z
O1	O	1.960398	-0.147479	-0.216355
O2	O	2.460398	0.352521	0.283645
O3	O	1.531114	-0.147481	-0.234101
O4	O	2.031114	0.352519	0.265899
O5	O	1.754629	-0.147476	-0.010585
O6	O	2.254629	0.352524	0.489415
O7	O	1.736883	-0.147484	-0.439870
O8	O	2.236883	0.352516	0.060130
O9	O	1.754616	0.147489	-0.010583
O10	O	2.254616	0.647489	0.489417
O11	O	1.531100	0.147484	-0.234098
O12	O	2.031100	0.647484	0.265902
O13	O	1.960385	0.147486	-0.216352
O14	O	2.460385	0.647486	0.283648
Cu15	Cu	1.745741	0.174418	-0.225225
Cu16	Cu	2.245741	0.674418	0.274775
Cu17	Cu	1.745757	-0.174413	-0.225228
Cu18	Cu	2.245757	0.325587	0.274772
O19	O	1.736869	0.147481	-0.439867
O20	O	2.236869	0.647481	0.060133
C21	C	1.476120	0.000001	-0.232394
C22	C	1.976120	0.500001	0.267606
C23	C	1.312277	0.000000	-0.227294
C24	C	1.812277	0.500000	0.272706
C25	C	1.752917	0.000003	0.044403
C26	C	2.252917	0.500003	0.544403
C27	C	1.747817	-0.000005	0.208245
C28	C	2.247817	0.499995	0.708245
C29	C	2.015378	-0.000000	-0.218059
C30	C	2.515378	0.500000	0.281941
C31	C	2.179221	-0.000011	-0.223158
C32	C	2.679221	0.499989	0.276842
N33	N	1.745741	0.419766	-0.225222
N34	N	2.245741	0.919766	0.274778
N35	N	1.745769	-0.419761	-0.225220
N36	N	2.245769	0.080239	0.274780
C37	C	1.738582	-0.000002	-0.494855
C38	C	2.238582	0.499998	0.005145
C39	C	1.743681	-0.000005	-0.658698
C40	C	2.243681	0.499995	-0.158698
