data_functionalizedCrystal
_audit_creation_method	'MofGen! by Chris Wilmer'
_symmetry_space_group_name_H-M	'P1'
_symmetry_Int_Tables_number	1
_symmetry_cell_setting	triclinic
loop_
_symmetry_equiv_pos_as_xyz
  x,y,z
_cell_length_a	14.044220
_cell_length_b	17.666332
_cell_length_c	14.044220
_cell_angle_alpha	89.994273
_cell_angle_beta	86.811122
_cell_angle_gamma	90.004271
loop_
_atom_site_label
_atom_site_type_symbol
_atom_site_fract_x
_atom_site_fract_y
_atom_site_fract_z
O1	O	1.277175	0.062871	-0.230168
O2	O	1.777175	0.562871	0.269832
O3	O	1.000503	0.062890	-0.221862
O4	O	1.500503	0.562890	0.278138
O5	O	1.134686	0.062873	-0.087679
O6	O	1.634686	0.562873	0.412321
O7	O	1.142992	0.062888	-0.364351
O8	O	1.642992	0.562888	0.135649
O9	O	1.134660	-0.063024	-0.087673
O10	O	1.634660	0.436976	0.412327
O11	O	1.000477	-0.063007	-0.221856
O12	O	1.500477	0.436993	0.278144
O13	O	1.277148	-0.063026	-0.230161
O14	O	1.777148	0.436974	0.269839
Cu15	Cu	1.138810	-0.074512	-0.226008
Cu16	Cu	1.638810	0.425488	0.273992
Cu17	Cu	1.138841	0.074376	-0.226016
Cu18	Cu	1.638841	0.574376	0.273984
O19	O	1.142965	-0.063009	-0.364344
O20	O	1.642965	0.436991	0.135656
C21	C	0.964868	-0.000056	-0.218223
C22	C	1.464868	0.499944	0.281777
C23	C	0.858725	-0.000049	-0.207379
C24	C	1.358725	0.499951	0.292621
C25	C	0.664388	-0.000065	-0.187553
C26	C	1.164388	0.499935	0.312447
C27	C	0.613258	-0.000064	-0.264467
C28	C	1.113258	0.499936	0.235533
C29	C	0.505122	-0.000073	-0.253435
C30	C	1.005122	0.499927	0.246565
C31	C	0.772534	-0.000056	-0.198583
C32	C	1.272534	0.499944	0.301417
N33	N	1.138795	-0.179231	-0.226003
N34	N	1.638795	0.320769	0.273997
C35	C	1.201587	-0.218836	-0.288840
C36	C	1.701587	0.281164	0.211160
C37	C	1.201602	-0.298083	-0.288838
C38	C	1.701602	0.201917	0.211162
C39	C	1.138809	-0.337723	-0.226009
C40	C	1.638809	0.162277	0.273991
C41	C	1.076012	-0.298109	-0.163160
C42	C	1.576012	0.201891	0.336840
C43	C	1.076006	-0.218863	-0.163157
C44	C	1.576006	0.281137	0.336843
N45	N	1.054967	-0.462157	-0.216332
N46	N	1.554967	0.037843	0.283668
N47	N	1.054977	-0.537438	-0.216340
N48	N	1.554977	-0.037438	0.283660
C49	C	1.138826	-0.576487	-0.226014
C50	C	1.638826	-0.076487	0.273986
N51	N	1.222669	-0.537413	-0.235697
N52	N	1.722669	-0.037413	0.264303
N53	N	1.222659	-0.462125	-0.235694
N54	N	1.722659	0.037875	0.264306
C55	C	1.138809	-0.423652	-0.226005
C56	C	1.638809	0.076348	0.273995
C57	C	1.201639	-0.702021	-0.288853
C58	C	1.701639	-0.202021	0.211147
C59	C	1.201656	-0.781270	-0.288845
C60	C	1.701656	-0.281270	0.211155
C61	C	1.076058	-0.781295	-0.163172
C62	C	1.576058	-0.281295	0.336828
C63	C	1.076050	-0.702047	-0.163175
C64	C	1.576050	-0.202047	0.336825
C65	C	1.138839	-0.662415	-0.226021
C66	C	1.638839	-0.162415	0.273979
C67	C	1.312783	-0.000078	-0.233800
C68	C	1.812783	0.499922	0.266200
C69	C	1.418926	-0.000080	-0.244645
C70	C	1.918926	0.499920	0.255355
C71	C	1.131037	-0.000075	-0.052054
C72	C	1.631037	0.499925	0.447946
C73	C	1.120193	-0.000075	0.054088
C74	C	1.620193	0.499925	0.554088
N75	N	1.138863	0.179095	-0.226014
N76	N	1.638863	0.679095	0.273986
C77	C	1.146614	-0.000059	-0.399969
C78	C	1.646614	0.499941	0.100031
C79	C	1.157459	-0.000054	-0.506112
C80	C	1.657459	0.499946	-0.006112
C81	C	1.100366	-0.000063	0.248426
C82	C	1.600366	0.499937	0.748426
C83	C	1.177281	-0.000066	0.299556
C84	C	1.677281	0.499934	0.799556
C85	C	1.166249	-0.000059	0.407692
C86	C	1.666249	0.499941	0.907692
C87	C	1.111397	-0.000070	0.140280
C88	C	1.611397	0.499930	0.640280
H89	H	0.650697	-0.000057	-0.338600
H90	H	1.150697	0.499943	0.161400
H91	H	0.626951	-0.000073	-0.113425
H92	H	1.126951	0.499927	0.386575
H93	H	1.252719	-0.186572	-0.340010
H94	H	1.752719	0.313428	0.159990
O95	O	1.002174	-0.000059	0.298014
O96	O	1.502174	0.499941	0.798014
H97	H	0.947525	-0.000055	0.243881
H98	H	1.447525	0.499945	0.743881
O99	O	1.269321	-0.340815	-0.356622
O100	O	1.769321	0.159185	0.143378
H101	H	1.312976	-0.299942	-0.400326
H102	H	1.812976	0.200058	0.099674
O103	O	1.008279	-0.340857	-0.095396
O104	O	1.508279	0.159143	0.404604
H105	H	1.018824	-0.402616	-0.105962
H106	H	1.518824	0.097384	0.394038
H107	H	1.024871	-0.186618	-0.111986
H108	H	1.524871	0.313382	0.388014
H109	H	1.252767	-0.669751	-0.340025
H110	H	1.752767	-0.169751	0.159975
H111	H	1.251414	-0.000020	0.262117
H112	H	1.751414	0.499980	0.762117
O113	O	1.269384	-0.823993	-0.356622
O114	O	1.769384	-0.323993	0.143378
H115	H	1.313035	-0.783117	-0.400325
H116	H	1.813035	-0.283117	0.099675
H117	H	1.024931	-0.813569	-0.112014
H118	H	1.524931	-0.313569	0.387986
H119	H	1.024914	-0.669801	-0.112010
H120	H	1.524914	-0.169801	0.387990
