data_functionalizedCrystal
_audit_creation_method	'MofGen! by Chris Wilmer'
_symmetry_space_group_name_H-M	'P1'
_symmetry_Int_Tables_number	1
_symmetry_cell_setting	triclinic
loop_
_symmetry_equiv_pos_as_xyz
  x,y,z
_cell_length_a	25.639242
_cell_length_b	19.805407
_cell_length_c	19.805407
_cell_angle_alpha	90.007450
_cell_angle_beta	89.997981
_cell_angle_gamma	89.996499
loop_
_atom_site_label
_atom_site_type_symbol
_atom_site_fract_x
_atom_site_fract_y
_atom_site_fract_z
Zn1	Zn	0.208274	1.034762	0.382741
Zn2	Zn	0.295686	1.034737	0.269575
Zn3	Zn	0.208262	0.921597	0.269569
Zn4	Zn	0.295676	0.921580	0.382725
O5	O	0.251975	0.978169	0.326152
O6	O	0.219878	1.129475	0.367738
O7	O	0.284089	1.019725	0.174857
O8	O	0.135099	0.936626	0.284585
O9	O	0.284100	1.129457	0.284596
O10	O	0.135107	1.019768	0.367732
O11	O	0.219859	0.936602	0.174853
O12	O	0.219849	0.826878	0.284570
O13	O	0.284082	0.936597	0.477444
O14	O	0.284071	0.826865	0.367705
O15	O	0.219869	1.019751	0.477455
O16	O	0.368850	1.019709	0.284580
O17	O	0.368843	0.936573	0.367711
C18	C	0.251958	0.802313	0.326136
C19	C	0.251964	0.727081	0.326145
C20	C	0.115602	0.978201	0.326160
C21	C	0.057488	0.978215	0.326163
C22	C	0.218583	0.691747	0.369503
C23	C	0.218586	0.621058	0.369506
C24	C	0.251972	0.585705	0.326153
C25	C	0.285355	0.621044	0.282790
C26	C	0.285349	0.691731	0.282785
C27	C	0.285378	0.335971	0.282811
C28	C	0.285383	0.265279	0.282821
C29	C	0.218615	0.265298	0.369532
C30	C	0.218609	0.335985	0.369526
C31	C	0.251989	0.371318	0.326161
C32	C	0.251985	0.447966	0.326158
C33	C	0.251979	0.509058	0.326159
C34	C	-0.302886	0.934913	0.282890
C35	C	-0.357490	0.934912	0.282893
O36	O	-0.385735	0.898084	0.246097
N37	N	-0.384795	0.978202	0.326183
C38	C	-0.357493	1.021490	0.369476
O39	O	-0.385732	1.058311	0.406297
C40	C	-0.302890	1.021487	0.369476
C41	C	-0.275587	0.978200	0.326179
C42	C	-0.275583	0.891629	0.239598
C43	C	-0.220983	0.891630	0.239594
C44	C	-0.193684	0.934917	0.282882
C45	C	-0.220987	0.978201	0.326175
C46	C	-0.275589	1.064771	0.412772
C47	C	-0.220981	1.064764	0.412768
C48	C	-0.193679	1.021477	0.369472
C49	C	-0.139088	1.021490	0.369460
N50	N	-0.111783	0.978200	0.326171
C51	C	-0.139081	0.934914	0.282882
C52	C	-0.472164	1.021493	0.369474
C53	C	-0.526766	1.021500	0.369472
C54	C	-0.526759	0.934921	0.282890
C55	C	-0.472156	0.934918	0.282890
C56	C	-0.444858	0.978203	0.326185
C57	C	-0.024416	0.934921	0.282876
C58	C	0.030189	0.934929	0.282874
C59	C	0.030178	1.021505	0.369458
C60	C	-0.024423	1.021500	0.369458
C61	C	-0.051718	0.978203	0.326165
O62	O	-0.110808	1.058297	0.406239
O63	O	-0.110835	0.898093	0.246073
C64	C	0.387817	0.978155	0.326159
C65	C	0.445931	0.978211	0.326185
C66	C	0.251976	0.978175	0.502695
C67	C	0.251976	0.978177	0.577927
C68	C	0.251991	1.154711	0.326169
C69	C	0.251999	1.229943	0.326176
C70	C	0.218545	1.021470	0.613278
C71	C	0.218543	1.021465	0.683967
C72	C	0.251976	0.978169	0.719303
C73	C	0.285409	0.934871	0.683946
C74	C	0.285407	0.934874	0.613259
C75	C	0.285415	0.934858	0.969020
C76	C	0.285415	0.934859	1.039712
C77	C	0.218551	1.021448	1.039727
C78	C	0.218550	1.021451	0.969040
C79	C	0.251980	0.978151	0.933690
C80	C	0.251981	0.978157	0.857041
C81	C	0.251978	0.978166	0.795950
C82	C	0.251984	0.978156	1.150296
C83	C	0.251980	0.978149	1.075064
H84	H	0.191397	0.720526	0.404808
O85	O	0.317811	0.892749	0.578891
C86	C	0.324843	0.801390	0.499042
C87	C	0.288085	0.849047	0.537931
H88	H	0.300824	0.766055	0.465906
H89	H	0.348728	0.770399	0.536413
H90	H	0.352195	0.832473	0.465982
H91	H	0.260701	0.818016	0.570992
H92	H	0.264236	0.880040	0.500524
O93	O	0.186008	1.063421	0.718332
C94	C	0.115428	1.072535	0.798159
C95	C	0.152240	1.024944	0.759274
H96	H	0.088125	1.041446	0.831281
H97	H	0.091498	1.103465	0.760786
H98	H	0.139440	1.107936	0.831233
H99	H	0.128268	0.989502	0.726199
H100	H	0.176172	0.994061	0.796684
O101	O	0.186227	0.370431	0.411617
C102	C	0.156603	0.479336	0.450006
C103	C	0.193313	0.440412	0.402317
H104	H	0.162312	0.535922	0.442493
H105	H	0.165851	0.465501	0.504581
H106	H	0.114437	0.465392	0.438215
H107	H	0.235492	0.454335	0.414047
H108	H	0.184021	0.454250	0.347756
O109	O	-0.553363	0.892888	0.240906
C110	C	-0.637486	0.854552	0.202524
C111	C	-0.607421	0.902173	0.250112
H112	H	-0.681198	0.862053	0.209941
H113	H	-0.626789	0.799960	0.214409
H114	H	-0.626724	0.866423	0.147952
H115	H	-0.618168	0.890363	0.304700
H116	H	-0.618121	0.956751	0.238170
H117	H	0.191433	0.236521	0.404840
O118	O	-0.302077	1.106748	0.454931
C119	C	-0.318739	1.139626	0.570075
C120	C	-0.288720	1.092032	0.522403
H121	H	-0.307943	1.127754	0.624635
H122	H	-0.362463	1.132200	0.562710
H123	H	-0.308005	1.194197	0.558162
H124	H	-0.299410	1.037442	0.534286
H125	H	-0.245003	1.099516	0.529776
H126	H	0.312640	0.899600	1.068480
H127	H	0.312571	0.236496	0.247516
O128	O	0.186143	0.586840	0.411688
C129	C	0.119894	0.594318	0.497668
C130	C	0.156620	0.633154	0.449942
H131	H	0.096008	0.631746	0.528599
H132	H	0.143918	0.561249	0.533056
H133	H	0.092541	0.561201	0.466641
H134	H	0.183981	0.666308	0.480915
H135	H	0.132564	0.666181	0.414552
H136	H	-0.548992	1.056756	0.404720
O137	O	0.317853	0.370183	0.240668
C138	C	0.384056	0.362698	0.154630
C139	C	0.347313	0.323865	0.202336
H140	H	0.407876	0.325267	0.123616
H141	H	0.411466	0.395784	0.185608
H142	H	0.359997	0.395798	0.119313
H143	H	0.371330	0.290728	0.237663
H144	H	0.319901	0.290822	0.171316
H145	H	-0.046653	1.056756	0.404707
O146	O	0.317770	0.586600	0.240740
C147	C	0.347350	0.477696	0.202290
C148	C	0.310621	0.516618	0.249957
H149	H	0.341575	0.421110	0.209715
H150	H	0.389534	0.491551	0.214088
H151	H	0.338107	0.491622	0.147738
H152	H	0.319817	0.502713	0.304525
H153	H	0.268448	0.502761	0.238101
H154	H	0.052414	1.056750	0.404701
O155	O	0.317827	0.725952	0.240648
C156	C	0.384034	0.718478	0.154613
C157	C	0.347289	0.679640	0.202313
H158	H	0.407855	0.681051	0.123597
H159	H	0.411442	0.751562	0.185597
H160	H	0.359975	0.751581	0.119298
H161	H	0.371305	0.646500	0.237638
H162	H	0.319879	0.646599	0.171287
O163	O	0.056629	0.892812	0.240794
C164	C	0.050863	0.806966	0.154889
C165	C	0.020858	0.854617	0.202518
H166	H	0.021955	0.776083	0.123921
H167	H	0.076415	0.771530	0.185925
H168	H	0.076439	0.838050	0.119526
H169	H	-0.004746	0.823588	0.237891
H170	H	-0.004661	0.890055	0.171440
H171	H	-0.046634	0.899664	0.247624
H172	H	-0.198759	1.100008	0.448031
O173	O	-0.445730	1.063612	0.411551
C174	C	-0.451511	1.149457	0.497457
C175	C	-0.481508	1.101805	0.449827
H176	H	-0.480424	1.180338	0.528426
H177	H	-0.425961	1.184894	0.466421
H178	H	-0.425933	1.118374	0.532820
H179	H	-0.507114	1.132833	0.414455
H180	H	-0.507024	1.066365	0.480905
O181	O	-0.302153	0.849672	0.197509
C182	C	-0.363761	0.840567	0.106082
C183	C	-0.333718	0.888157	0.153724
H184	H	-0.389280	0.871664	0.070661
H185	H	-0.389362	0.805182	0.137107
H186	H	-0.334850	0.809620	0.075176
H187	H	-0.362592	0.919149	0.184640
H188	H	-0.308109	0.923498	0.122660
H189	H	-0.198758	0.856380	0.204338
H190	H	-0.449930	0.899668	0.247634
H191	H	0.191322	1.056729	0.584513
H192	H	0.191327	1.056710	0.940273
O193	O	0.186088	1.063442	1.074172
C194	C	0.156471	1.101844	1.183075
C195	C	0.193251	1.054242	1.144154
H196	H	0.162258	1.094433	1.239662
H197	H	0.114300	1.089969	1.169224
H198	H	0.165654	1.156412	1.169145
H199	H	0.184116	0.999658	1.158062
H200	H	0.235412	1.066175	1.158007
O201	O	0.317930	0.892768	0.934791
C202	C	0.384211	0.806827	0.942242
C203	C	0.347426	0.854479	0.981093
H204	H	0.408059	0.775848	0.979660
H205	H	0.411592	0.837845	0.909160
H206	H	0.360182	0.771475	0.909136
H207	H	0.371412	0.889841	1.014236
H208	H	0.320043	0.823419	1.014133
H209	H	0.312628	0.899616	0.712722
