data_functionalizedCrystal
_audit_creation_method	'MofGen! by Chris Wilmer'
_symmetry_space_group_name_H-M	'P1'
_symmetry_Int_Tables_number	1
_symmetry_cell_setting	triclinic
loop_
_symmetry_equiv_pos_as_xyz
  x,y,z
_cell_length_a	15.072220
_cell_length_b	16.992694
_cell_length_c	16.974885
_cell_angle_alpha	92.975758
_cell_angle_beta	86.347309
_cell_angle_gamma	89.992921
loop_
_atom_site_label
_atom_site_type_symbol
_atom_site_fract_x
_atom_site_fract_y
_atom_site_fract_z
O1	O	0.061639	-1.040218	0.167643
O2	O	0.061797	-0.811935	0.165804
O3	O	0.069944	-0.932442	0.052023
O4	O	0.053493	-0.919711	0.281423
O5	O	-0.077621	-0.932412	0.052028
O6	O	-0.085768	-0.811905	0.165809
O7	O	-0.085926	-1.040189	0.167648
Zn8	Zn	-0.109276	-0.926042	0.166729
Zn9	Zn	0.085148	-0.926081	0.166722
O10	O	-0.094073	-0.919681	0.281428
C11	C	-0.011812	-0.782710	0.163440
C12	C	-0.011296	-0.695674	0.156380
N13	N	-0.241965	-0.926021	0.166733
C14	C	-0.001722	-0.931943	0.022537
C15	C	0.004586	-0.930492	-0.065331
C16	C	-0.601166	-0.926080	0.166719
C17	C	-0.567901	-0.861383	0.227370
C18	C	-0.465093	-0.861531	0.227615
C19	C	-0.422962	-0.926050	0.166726
C20	C	-0.461926	-1.007838	0.189914
C21	C	-0.564815	-1.007476	0.190351
C22	C	-0.557241	-0.909718	0.082736
C23	C	-0.454408	-0.907841	0.083170
C24	C	-0.322249	-0.926038	0.166729
C25	C	-0.701879	-0.926097	0.166719
N26	N	0.217837	-0.926109	0.166712
C27	C	-0.012315	-1.069413	0.170011
C28	C	-0.012825	-1.156450	0.177071
C29	C	-0.016181	-0.645359	0.224495
C30	C	-0.015717	-0.563580	0.217858
C31	C	-0.010362	-0.532116	0.143104
C32	C	-0.005478	-0.582438	0.074984
C33	C	-0.005948	-0.664215	0.081623
C34	C	-0.008412	-0.288549	0.115590
C35	C	-0.007940	-0.206765	0.108956
C36	C	-0.018180	-0.187912	0.251830
C37	C	-0.018645	-0.269692	0.258462
C38	C	-0.013766	-0.320006	0.190342
N39	N	-0.009885	-0.448525	0.136317
N40	N	-0.014250	-0.403596	0.197130
C41	C	-0.072884	-0.929792	-0.106616
C42	C	-0.066950	-0.928434	-0.189177
C43	C	0.016457	-0.927770	-0.230452
C44	C	0.093933	-0.928472	-0.189161
C45	C	0.087997	-0.929836	-0.106602
C46	C	0.042834	-0.923698	-0.477368
C47	C	0.048763	-0.922331	-0.559933
C48	C	-0.112120	-0.922295	-0.559943
C49	C	-0.118048	-0.923654	-0.477382
C50	C	-0.040572	-0.924360	-0.436099
N51	N	0.022525	-0.926379	-0.314842
N52	N	-0.046641	-0.925757	-0.351710
C53	C	-0.022405	-0.920180	0.310915
C54	C	-0.028707	-0.921631	0.398782
H55	H	-0.438830	-0.800733	0.213037
O56	O	-0.604115	-0.873548	0.301161
C57	C	-0.654699	-0.807009	0.329517
H58	H	-0.675621	-0.773175	0.277444
H59	H	-0.716403	-0.826846	0.365442
H60	H	-0.612977	-0.767200	0.368595
H61	H	-0.022996	-0.295303	0.319334
H62	H	-0.428776	-0.847677	0.065694
O63	O	-0.429051	-1.066726	0.138993
C64	C	-0.383321	-1.121695	0.181010
H65	H	-0.408741	-1.117521	0.245799
H66	H	-0.395131	-1.183706	0.154934
H67	H	-0.309113	-1.108310	0.176271
O68	O	-0.020428	-0.514816	0.284105
C69	C	-0.025273	-0.560122	0.351507
H70	H	0.003834	-0.621180	0.335293
H71	H	0.014123	-0.529901	0.399548
H72	H	-0.097692	-0.565920	0.374184
O73	O	-0.153885	-0.930296	-0.066477
C74	C	-0.162446	-0.863223	-0.014042
H75	H	-0.115239	-0.815384	-0.035659
H76	H	-0.233768	-0.840442	-0.011544
H77	H	-0.145257	-0.879605	0.047475
H78	H	-0.003577	-0.181151	0.048080
H79	H	-0.022154	-0.146938	0.307289
H80	H	0.116686	-0.921782	-0.593536
O81	O	-0.000308	-0.552007	0.002307
C82	C	0.003926	-0.613956	-0.056390
H83	H	-0.025853	-0.669483	-0.030715
H84	H	-0.035193	-0.596918	-0.108269
H85	H	0.076247	-0.625560	-0.077648
H86	H	-0.001970	-0.705182	0.026156
H87	H	-0.130034	-0.927868	-0.222788
H88	H	-0.004440	-0.329505	0.060121
H89	H	-0.440515	-1.022617	0.250653
H90	H	-0.591622	-0.800388	0.212956
H91	H	-0.185966	-0.924212	-0.443783
H92	H	-0.581717	-0.851379	0.061722
H93	H	-0.175196	-0.921720	-0.593565
H94	H	0.105921	-0.924271	-0.443765
O95	O	0.174884	-0.927791	-0.229373
C96	C	0.163513	-0.926454	-0.311096
H97	H	0.095073	-0.901443	-0.320673
H98	H	0.216958	-0.887899	-0.339851
H99	H	0.169312	-0.988937	-0.338849
H100	H	-0.425288	-0.951908	0.035523
O101	O	0.163340	-0.930477	-0.066615
C102	C	0.238230	-0.929617	-0.120747
H103	H	0.218762	-0.903828	-0.177894
H104	H	0.292593	-0.891979	-0.094270
H105	H	0.263895	-0.992348	-0.133849
H106	H	-0.578323	-0.956900	0.037541
H107	H	-0.444943	-0.871969	0.289830
H108	H	-0.586672	-1.057117	0.148194
O109	O	-0.598577	-1.024799	0.263609
C110	C	-0.568258	-1.099831	0.281759
H111	H	-0.504203	-1.114860	0.244665
H112	H	-0.555063	-1.099522	0.347160
H113	H	-0.620988	-1.145781	0.268128
O114	O	-0.021223	-0.675955	0.297095
C115	C	0.054614	-0.722713	0.305201
H116	H	0.111079	-0.703423	0.262658
H117	H	0.075733	-0.715299	0.368455
H118	H	0.038357	-0.787224	0.291044
