data_functionalizedCrystal
_audit_creation_method	'MofGen! by Chris Wilmer'
_symmetry_space_group_name_H-M	'P1'
_symmetry_Int_Tables_number	1
_symmetry_cell_setting	triclinic
loop_
_symmetry_equiv_pos_as_xyz
  x,y,z
_cell_length_a	14.853566
_cell_length_b	11.792241
_cell_length_c	13.330367
_cell_angle_alpha	90.001786
_cell_angle_beta	90.002184
_cell_angle_gamma	83.913915
loop_
_atom_site_label
_atom_site_type_symbol
_atom_site_fract_x
_atom_site_fract_y
_atom_site_fract_z
O1	O	1.196943	0.148170	0.083358
O2	O	0.934553	0.165823	0.083374
O3	O	1.072116	-0.008213	0.083358
O4	O	1.059381	0.322207	0.083373
O5	O	1.072101	-0.008208	-0.083489
O6	O	0.934538	0.165829	-0.083473
O7	O	1.196929	0.148175	-0.083490
Cu8	Cu	1.065732	0.157002	-0.098716
Cu9	Cu	1.065749	0.156996	0.098600
O10	O	1.059366	0.322212	-0.083474
C11	C	0.900954	0.165026	-0.000047
C12	C	0.800861	0.162630	-0.000041
C13	C	1.071308	-0.050497	-0.000065
C14	C	1.068914	-0.176496	-0.000064
C15	C	0.377644	0.152492	0.090889
C16	C	0.377650	0.152498	-0.091014
C17	C	0.471693	0.154749	-0.091011
C18	C	0.518715	0.155872	-0.000056
C19	C	0.471695	0.154746	0.090895
C20	C	0.518719	0.155887	-0.181961
C21	C	0.612767	0.158138	-0.181961
C22	C	0.659792	0.159254	-0.091005
C23	C	0.612766	0.158126	-0.000050
C24	C	0.659789	0.159250	0.090904
C25	C	0.612766	0.158114	0.181860
C26	C	0.518720	0.155862	0.181851
C27	C	0.753838	0.161506	-0.090996
C28	C	0.753840	0.161504	0.090910
C29	C	1.064511	-0.407181	-0.000047
C30	C	1.066958	-0.278810	-0.000056
C31	C	1.230528	0.148972	-0.000066
C32	C	1.330621	0.151368	-0.000065
C33	C	1.060173	0.364495	-0.000048
C34	C	1.062568	0.490494	-0.000043
N35	N	1.065727	0.157006	-0.237497
C36	C	1.004806	0.234046	-0.290016
C37	C	1.126654	0.079962	-0.290007
C38	C	1.126663	0.079957	-0.395025
C39	C	1.065742	0.156997	-0.447544
C40	C	1.004811	0.234041	-0.395044
C41	C	1.187586	0.002906	-0.447533
C42	C	1.187597	0.002898	-0.552558
C43	C	1.126679	0.079944	-0.605078
C44	C	1.065747	0.156993	-0.552572
C45	C	1.004826	0.234032	-0.605090
C46	C	0.943897	0.311087	-0.552585
C47	C	0.943893	0.311088	-0.447564
C48	C	1.126683	0.079944	-0.710100
C49	C	1.004831	0.234028	-0.710118
N50	N	1.065762	0.156984	0.237382
H51	H	0.792120	0.162415	0.164978
C52	C	0.262227	0.247442	0.196423
C53	C	0.325961	0.151250	0.190865
H54	H	0.230324	0.246677	0.258148
H55	H	0.220767	0.246438	0.142263
H56	H	0.292372	0.314449	0.192645
H57	H	0.295815	0.084243	0.194636
H58	H	0.367427	0.152243	0.245041
H59	H	1.237209	-0.059842	-0.595301
C60	C	1.247106	-0.072381	-0.699537
C61	C	1.193642	-0.004755	-0.767813
H62	H	1.288448	-0.124670	-0.735168
H63	H	1.209372	-0.113276	-0.658579
H64	H	1.279770	-0.025059	-0.658571
H65	H	1.160973	-0.052077	-0.808774
H66	H	1.231381	0.036143	-0.808788
C67	C	0.849065	0.300363	-0.257708
C68	C	0.937833	0.318744	-0.232313
H69	H	0.807720	0.352658	-0.222088
H70	H	0.838907	0.224605	-0.240485
H71	H	0.840362	0.311379	-0.327774
H72	H	0.946537	0.307719	-0.162247
H73	H	0.947995	0.394520	-0.249529
C74	C	0.889809	0.379482	-0.713588
C75	C	0.876933	0.395769	-0.610321
H76	H	0.848472	0.431764	-0.749232
H77	H	0.879644	0.303717	-0.730785
H78	H	0.950040	0.391937	-0.730782
H79	H	0.816703	0.383305	-0.593126
H80	H	0.887091	0.471551	-0.593117
C81	C	0.891912	0.507457	-0.415215
C82	C	0.876922	0.395773	-0.389846
H83	H	0.850569	0.559733	-0.379573
H84	H	0.883191	0.518482	-0.485268
H85	H	0.952140	0.519903	-0.397992
H86	H	0.816695	0.383324	-0.407076
H87	H	0.885636	0.384744	-0.319777
C88	C	0.281545	0.052485	-0.196548
C89	C	0.325964	0.151267	-0.190987
H90	H	0.249639	0.051724	-0.258273
H91	H	0.240085	0.051502	-0.142389
H92	H	0.324792	-0.012764	-0.192770
H93	H	0.282716	0.216517	-0.194758
H94	H	0.367428	0.152260	-0.245162
H95	H	1.176250	0.017232	-0.247243
H96	H	0.792119	0.162443	-0.165051
C97	C	0.756935	0.161571	0.262624
C98	C	0.664460	0.159348	0.281837
H99	H	0.788850	0.162327	0.324345
H100	H	0.765782	0.228074	0.225266
H101	H	0.778890	0.095807	0.225246
H102	H	0.642503	0.225117	0.319209
H103	H	0.655607	0.092838	0.319211
C104	C	1.206660	-0.151243	-0.329117
C105	C	1.254658	-0.081497	-0.389667
H106	H	1.248105	-0.203264	-0.293345
H107	H	1.169070	-0.192439	-0.369994
H108	H	1.170265	-0.105324	-0.282934
H109	H	1.291049	-0.127416	-0.435855
H110	H	1.292265	-0.040298	-0.348787
H111	H	0.480426	0.154935	0.255902
H112	H	0.480425	0.154979	-0.256011
H113	H	0.651046	0.159061	-0.256023
H114	H	0.955224	0.296768	-0.752872
