data_functionalizedCrystal
_audit_creation_method	'MofGen! by Chris Wilmer'
_symmetry_space_group_name_H-M	'P1'
_symmetry_Int_Tables_number	1
_symmetry_cell_setting	triclinic
loop_
_symmetry_equiv_pos_as_xyz
  x,y,z
_cell_length_a	10.654545
_cell_length_b	10.654550
_cell_length_c	9.730223
_cell_angle_alpha	89.995747
_cell_angle_beta	89.997167
_cell_angle_gamma	84.484005
loop_
_atom_site_label
_atom_site_type_symbol
_atom_site_fract_x
_atom_site_fract_y
_atom_site_fract_z
O1	O	1.667842	0.176372	-0.114276
O2	O	1.302363	0.193184	-0.114282
O3	O	1.493506	0.002038	-0.114270
O4	O	1.476700	0.367517	-0.114287
O5	O	1.493493	0.002033	0.114310
O6	O	1.302351	0.193178	0.114298
O7	O	1.667830	0.176366	0.114304
Zn8	Zn	1.485088	0.184771	0.150593
Zn9	Zn	1.485105	0.184778	-0.150571
O10	O	1.476687	0.367512	0.114292
C11	C	1.255559	0.191948	0.000008
C12	C	1.116115	0.188258	0.000006
C13	C	1.050604	0.186518	0.124606
C14	C	0.919585	0.183031	0.124606
C15	C	0.919599	0.183028	-0.124605
C16	C	1.050617	0.186507	-0.124603
C17	C	1.492266	-0.044762	0.000019
C18	C	1.488574	-0.184206	0.000017
C19	C	1.601115	-0.263693	0.000018
C20	C	1.597639	-0.394714	0.000002
C21	C	1.369069	-0.366747	-0.000012
C22	C	1.372547	-0.235729	-0.000005
C23	C	1.714634	0.177602	0.000012
C24	C	1.854078	0.181292	0.000005
C25	C	1.477927	0.414312	0.000000
C26	C	1.481619	0.553755	-0.000007
N27	N	1.485086	0.184766	0.356130
N28	N	1.485117	0.184774	-0.356107
C29	C	1.569753	0.100163	0.428061
C30	C	1.569766	0.100163	0.571944
C31	C	1.400440	0.269381	0.571952
C32	C	1.400423	0.269374	0.428071
H33	H	1.103958	0.187920	-0.226074
C34	C	1.728739	-0.207021	0.000027
H35	H	1.795265	-0.273130	0.000013
H36	H	1.734846	-0.156500	0.079740
H37	H	1.734849	-0.156486	-0.079692
H38	H	1.689282	-0.459428	-0.000000
H39	H	1.638690	0.031268	0.369489
H40	H	0.866251	0.181614	0.226067
C41	C	1.241450	-0.423427	-0.000017
H42	H	1.255495	-0.512842	-0.000006
H43	H	1.195064	-0.396205	-0.079726
H44	H	1.195064	-0.396215	0.079706
H45	H	1.103929	0.187944	0.226070
H46	H	1.280896	-0.171006	-0.000010
C47	C	1.662905	0.007105	0.651062
H48	H	1.713327	-0.043275	0.587605
H49	H	1.617289	-0.045599	0.707207
H50	H	1.715581	0.052784	0.707171
H51	H	1.331511	0.338269	0.630541
H52	H	1.331471	0.338268	0.369501
H53	H	0.866254	0.181603	-0.226057
