data_functionalizedCrystal
_audit_creation_method	'MofGen! by Chris Wilmer'
_symmetry_space_group_name_H-M	'P1'
_symmetry_Int_Tables_number	1
_symmetry_cell_setting	triclinic
loop_
_symmetry_equiv_pos_as_xyz
  x,y,z
_cell_length_a	18.101398
_cell_length_b	21.295417
_cell_length_c	18.101389
_cell_angle_alpha	89.977434
_cell_angle_beta	89.975673
_cell_angle_gamma	90.025773
loop_
_atom_site_label
_atom_site_type_symbol
_atom_site_fract_x
_atom_site_fract_y
_atom_site_fract_z
Zn1	Zn	1.132124	-0.250755	-0.418817
Zn2	Zn	1.382124	-0.000755	-0.168817
Zn3	Zn	1.632124	0.249245	0.081183
Zn4	Zn	1.882124	0.499245	0.331183
Zn5	Zn	1.132021	-0.356008	-0.294967
Zn6	Zn	1.382021	-0.106008	-0.044967
Zn7	Zn	1.632021	0.143992	0.205033
Zn8	Zn	1.882021	0.393992	0.455033
Zn9	Zn	1.008283	-0.250748	-0.294979
Zn10	Zn	1.258283	-0.000748	-0.044979
Zn11	Zn	1.508283	0.249252	0.205021
Zn12	Zn	1.758283	0.499252	0.455021
Zn13	Zn	1.008235	-0.355981	-0.418755
Zn14	Zn	1.258235	-0.105981	-0.168755
Zn15	Zn	1.508235	0.144019	0.081245
Zn16	Zn	1.758235	0.394019	0.331245
O17	O	1.070166	-0.303373	-0.356880
O18	O	1.320166	-0.053373	-0.106880
O19	O	1.570166	0.196627	0.143120
O20	O	1.820166	0.446627	0.393120
O21	O	1.235743	-0.264731	-0.402409
O22	O	1.485743	-0.014731	-0.152409
O23	O	1.735743	0.235269	0.097591
O24	O	1.985743	0.485269	0.347591
O25	O	1.115584	-0.342054	-0.191335
O26	O	1.365584	-0.092054	0.058665
O27	O	1.615584	0.157946	0.308665
O28	O	1.865584	0.407946	0.558665
O29	O	1.024774	-0.162660	-0.311437
O30	O	1.274774	0.087340	-0.061437
O31	O	1.524774	0.337340	0.188563
O32	O	1.774774	0.587340	0.438563
O33	O	1.235668	-0.342060	-0.311417
O34	O	1.485668	-0.092060	-0.061417
O35	O	1.735668	0.157940	0.188583
O36	O	1.985668	0.407940	0.438583
O37	O	1.115759	-0.162664	-0.402421
O38	O	1.365759	0.087336	-0.152421
O39	O	1.615759	0.337336	0.097579
O40	O	1.865759	0.587336	0.347579
O41	O	1.024674	-0.264720	-0.191344
O42	O	1.274674	-0.014720	0.058656
O43	O	1.524674	0.235280	0.308656
O44	O	1.774674	0.485280	0.558656
O45	O	0.904644	-0.264694	-0.311377
O46	O	1.154644	-0.014694	-0.061377
O47	O	1.404644	0.235306	0.188623
O48	O	1.654644	0.485306	0.438623
O49	O	1.024692	-0.342014	-0.522397
O50	O	1.274692	-0.092014	-0.272397
O51	O	1.524692	0.157986	-0.022397
O52	O	1.774692	0.407986	0.227603
O53	O	0.904609	-0.342008	-0.402315
O54	O	1.154609	-0.092008	-0.152315
O55	O	1.404609	0.157992	0.097685
O56	O	1.654609	0.407992	0.347685
O57	O	1.115713	-0.264705	-0.522442
O58	O	1.365713	-0.014705	-0.272442
O59	O	1.615713	0.235295	-0.022442
O60	O	1.865713	0.485295	0.227558
O61	O	1.115538	-0.444094	-0.311357
O62	O	1.365538	-0.194094	-0.061357
O63	O	1.615538	0.055906	0.188643
O64	O	1.865538	0.305906	0.438643
O65	O	1.024592	-0.444074	-0.402304
O66	O	1.274592	-0.194074	-0.152304
O67	O	1.524592	0.055926	0.097696
O68	O	1.774592	0.305926	0.347696
C69	C	0.877755	-0.303348	-0.356841
C70	C	1.127755	-0.053348	-0.106841
C71	C	1.377755	0.196652	0.143159
C72	C	1.627755	0.446652	0.393159
C73	C	0.795441	-0.303352	-0.356842
C74	C	1.045441	-0.053352	-0.106842
C75	C	1.295441	0.196648	0.143158
C76	C	1.545441	0.446648	0.393158
C77	C	0.496350	-0.303391	-0.356904
C78	C	0.746350	-0.053391	-0.106904
C79	C	0.996350	0.196609	0.143096
C80	C	1.246350	0.446609	0.393096
C81	C	0.527673	-0.254504	-0.299967
C82	C	0.777673	-0.004504	-0.049967
C83	C	1.027673	0.245496	0.200033
C84	C	1.277673	0.495496	0.450033
C85	C	0.613291	-0.254635	-0.299724
C86	C	0.863291	-0.004635	-0.049724
C87	C	1.113291	0.245365	0.200276
C88	C	1.363291	0.495365	0.450276
C89	C	0.644733	-0.303371	-0.356873
C90	C	0.894733	-0.053371	-0.106873
C91	C	1.144733	0.196629	0.143127
C92	C	1.394733	0.446629	0.393127
C93	C	0.613615	-0.369679	-0.335543
C94	C	0.863615	-0.119679	-0.085543
C95	C	1.113615	0.130321	0.164457
C96	C	1.363615	0.380321	0.414457
C97	C	0.527970	-0.369407	-0.335147
C98	C	0.777970	-0.119407	-0.085147
C99	C	1.027970	0.130593	0.164853
C100	C	1.277970	0.380593	0.414853
C101	C	0.527965	-0.286547	-0.435305
C102	C	0.777965	-0.036547	-0.185305
C103	C	1.027965	0.213453	0.064695
C104	C	1.277965	0.463453	0.314695
C105	C	0.613615	-0.285070	-0.434877
C106	C	0.863615	-0.035070	-0.184877
C107	C	1.113615	0.214930	0.065123
C108	C	1.363615	0.464930	0.315123
C109	C	0.728592	-0.303364	-0.356857
C110	C	0.978592	-0.053364	-0.106857
C111	C	1.228592	0.196636	0.143143
C112	C	1.478592	0.446636	0.393143
C113	C	0.412491	-0.303403	-0.356919
C114	C	0.662491	-0.053403	-0.106919
C115	C	0.912491	0.196597	0.143081
C116	C	1.162491	0.446597	0.393081
C117	C	1.070069	-0.466925	-0.356839
C118	C	1.320069	-0.216925	-0.106839
C119	C	1.570069	0.033075	0.143161
C120	C	1.820069	0.283075	0.393161
C121	C	1.070095	-0.536893	-0.356846
C122	C	1.320095	-0.286893	-0.106846
C123	C	1.570095	-0.036893	0.143154
C124	C	1.820095	0.213107	0.393154
C125	C	1.117492	-0.569749	-0.309538
C126	C	1.367492	-0.319749	-0.059538
C127	C	1.617492	-0.069749	0.190462
C128	C	1.867492	0.180251	0.440462
C129	C	1.117527	-0.635491	-0.309555
C130	C	1.367527	-0.385491	-0.059555
C131	C	1.617527	-0.135491	0.190445
C132	C	1.867527	0.114509	0.440445
C133	C	1.070151	-0.668375	-0.356871
C134	C	1.320151	-0.418375	-0.106871
C135	C	1.570151	-0.168375	0.143129
C136	C	1.820151	0.081625	0.393129
C137	C	1.022751	-0.635511	-0.404188
C138	C	1.272751	-0.385511	-0.154188
C139	C	1.522751	-0.135511	0.095812
C140	C	1.772751	0.114489	0.345812
C141	C	1.022722	-0.569770	-0.404175
C142	C	1.272722	-0.319770	-0.154175
C143	C	1.522722	-0.069770	0.095825
C144	C	1.772722	0.180230	0.345825
N145	N	1.005367	-0.771637	-0.362504
N146	N	1.255367	-0.521637	-0.112504
N147	N	1.505367	-0.271637	0.137496
N148	N	1.755367	-0.021637	0.387496
N149	N	1.005396	-0.834089	-0.362512
N150	N	1.255396	-0.584089	-0.112512
N151	N	1.505396	-0.334089	0.137488
N152	N	1.755396	-0.084089	0.387488
C153	C	1.070234	-0.866450	-0.356914
C154	C	1.320234	-0.616450	-0.106914
C155	C	1.570234	-0.366450	0.143086
C156	C	1.820234	-0.116450	0.393086
N157	N	1.135044	-0.834001	-0.351293
N158	N	1.385044	-0.584001	-0.101293
N159	N	1.635044	-0.334001	0.148707
N160	N	1.885044	-0.084001	0.398707
N161	N	1.135014	-0.771543	-0.351282
N162	N	1.385014	-0.521543	-0.101282
N163	N	1.635014	-0.271543	0.148718
N164	N	1.885014	-0.021543	0.398718
C165	C	1.070177	-0.739661	-0.356891
C166	C	1.320177	-0.489661	-0.106891
C167	C	1.570177	-0.239661	0.143109
C168	C	1.820177	0.010339	0.393109
C169	C	1.117673	-0.970592	-0.309622
C170	C	1.367673	-0.720592	-0.059622
C171	C	1.617673	-0.470592	0.190378
C172	C	1.867673	-0.220592	0.440378
C173	C	1.117709	-1.036335	-0.309644
C174	C	1.367709	-0.786335	-0.059644
C175	C	1.617709	-0.536335	0.190356
C176	C	1.867709	-0.286335	0.440356
C177	C	1.022926	-1.036354	-0.404273
C178	C	1.272926	-0.786354	-0.154273
C179	C	1.522926	-0.536354	0.095727
C180	C	1.772926	-0.286354	0.345727
C181	C	1.022897	-0.970612	-0.404255
C182	C	1.272897	-0.720612	-0.154255
C183	C	1.522897	-0.470612	0.095745
C184	C	1.772897	-0.220612	0.345745
C185	C	1.070269	-0.937734	-0.356925
C186	C	1.320269	-0.687734	-0.106925
C187	C	1.570269	-0.437734	0.143075
C188	C	1.820269	-0.187734	0.393075
C189	C	1.263328	-0.303399	-0.356919
C190	C	1.513328	-0.053399	-0.106919
C191	C	1.763328	0.196601	0.143081
C192	C	2.013328	0.446601	0.393081
C193	C	1.345642	-0.303410	-0.356935
C194	C	1.595642	-0.053410	-0.106935
C195	C	1.845642	0.196590	0.143065
C196	C	2.095642	0.446590	0.393065
C197	C	1.070209	-0.303357	-0.550042
C198	C	1.320209	-0.053357	-0.300042
C199	C	1.570209	0.196643	-0.050042
C200	C	1.820209	0.446643	0.199958
C201	C	1.070227	-0.303350	-0.632356
C202	C	1.320227	-0.053350	-0.382356
C203	C	1.570227	0.196650	-0.132356
C204	C	1.820227	0.446650	0.117644
C205	C	1.070283	-0.139183	-0.356937
C206	C	1.320283	0.110817	-0.106937
C207	C	1.570283	0.360817	0.143063
C208	C	1.820283	0.610817	0.393063
C209	C	1.070334	-0.069215	-0.356961
C210	C	1.320334	0.180785	-0.106961
C211	C	1.570334	0.430785	0.143039
C212	C	1.820334	0.680785	0.393039
C213	C	1.070270	-0.303232	-0.931447
C214	C	1.320270	-0.053232	-0.681447
C215	C	1.570270	0.196768	-0.431447
C216	C	1.820270	0.446768	-0.181447
C217	C	1.012805	-0.351719	-0.900093
C218	C	1.262805	-0.101719	-0.650093
C219	C	1.512805	0.148281	-0.400093
C220	C	1.762805	0.398281	-0.150093
C221	C	1.012960	-0.351944	-0.814475
C222	C	1.262960	-0.101944	-0.564475
C223	C	1.512960	0.148056	-0.314475
C224	C	1.762960	0.398056	-0.064475
C225	C	1.070248	-0.303291	-0.783064
C226	C	1.320248	-0.053291	-0.533064
C227	C	1.570248	0.196709	-0.283064
C228	C	1.820248	0.446709	-0.033064
C229	C	1.148274	-0.321303	-0.814168
C230	C	1.398274	-0.071303	-0.564168
C231	C	1.648274	0.178697	-0.314168
C232	C	1.898274	0.428697	-0.064168
C233	C	1.147953	-0.321621	-0.899813
C234	C	1.397953	-0.071621	-0.649813
C235	C	1.647953	0.178379	-0.399813
C236	C	1.897953	0.428379	-0.149813
C237	C	1.050388	-0.236626	-0.899877
C238	C	1.300388	0.013374	-0.649877
C239	C	1.550388	0.263374	-0.399877
C240	C	1.800388	0.513374	-0.149877
C241	C	1.048652	-0.237011	-0.814226
C242	C	1.298652	0.012989	-0.564226
C243	C	1.548652	0.262989	-0.314226
C244	C	1.798652	0.512989	-0.064226
C245	C	1.070240	-0.303323	-0.699205
C246	C	1.320240	-0.053323	-0.449205
C247	C	1.570240	0.196677	-0.199205
C248	C	1.820240	0.446677	0.050795
C249	C	1.070283	-0.303202	-1.015306
C250	C	1.320283	-0.053202	-0.765306
C251	C	1.570283	0.196798	-0.515306
C252	C	1.820283	0.446798	-0.265306
C253	C	1.070166	-0.303344	-0.164469
C254	C	1.320166	-0.053344	0.085531
C255	C	1.570166	0.196656	0.335531
C256	C	1.820166	0.446656	0.585531
C257	C	1.070291	-0.303173	-0.082155
C258	C	1.320291	-0.053173	0.167845
C259	C	1.570291	0.196827	0.417845
C260	C	1.820291	0.446827	0.667845
H261	H	0.634331	-0.205465	-0.313095
H262	H	0.884331	0.044535	-0.063095
H263	H	1.134331	0.294535	0.186905
H264	H	1.384331	0.544535	0.436905
H265	H	0.955101	-0.340671	-0.793443
H266	H	1.205101	-0.090671	-0.543443
H267	H	1.455101	0.159329	-0.293443
H268	H	1.705101	0.409329	-0.043443
F269	F	0.501489	-0.333088	-0.490756
F270	F	0.751489	-0.083088	-0.240756
F271	F	1.001489	0.166912	0.009244
F272	F	1.251489	0.416912	0.259244
H273	H	0.506392	-0.239037	-0.454697
H274	H	0.756392	0.010963	-0.204697
H275	H	1.006392	0.260963	0.045303
H276	H	1.256392	0.510963	0.295303
H277	H	1.165420	-0.369476	-0.792722
H278	H	1.415420	-0.119476	-0.542722
H279	H	1.665420	0.130524	-0.292722
H280	H	1.915420	0.380524	-0.042722
H281	H	0.633980	-0.407079	-0.375715
H282	H	0.883980	-0.157079	-0.125715
H283	H	1.133980	0.092921	0.124285
H284	H	1.383980	0.342921	0.374285
H285	H	1.192239	-0.287098	-0.793825
H286	H	1.442239	-0.037098	-0.543825
H287	H	1.692239	0.212902	-0.293825
H288	H	1.942239	0.462902	-0.043825
H289	H	1.192220	-0.287839	-0.920557
H290	H	1.442220	-0.037839	-0.670557
H291	H	1.692220	0.212161	-0.420557
H292	H	1.942220	0.462161	-0.170557
H293	H	1.156067	-0.542982	-0.271002
H294	H	1.406067	-0.292982	-0.021002
H295	H	1.656067	-0.042982	0.228998
H296	H	1.906067	0.207018	0.478998
H297	H	0.994480	-0.220216	-0.921464
H298	H	1.244480	0.029784	-0.671464
H299	H	1.494480	0.279784	-0.421464
H300	H	1.744480	0.529784	-0.171464
F301	F	0.936948	-0.337134	-0.926994
F302	F	1.186948	-0.087134	-0.676994
F303	F	1.436948	0.162866	-0.426994
F304	F	1.686948	0.412866	-0.176994
F305	F	0.640029	-0.269186	-0.223790
F306	F	0.890029	-0.019186	0.026210
F307	F	1.140029	0.230814	0.276210
F308	F	1.390029	0.480814	0.526210
F309	F	0.641603	-0.388677	-0.261437
F310	F	0.891603	-0.138677	-0.011437
F311	F	1.141603	0.111323	0.238563
F312	F	1.391603	0.361323	0.488563
F313	F	1.029756	-0.415849	-0.928266
F314	F	1.279756	-0.165849	-0.678266
F315	F	1.529756	0.084151	-0.428266
F316	F	1.779756	0.334151	-0.178266
H317	H	0.507959	-0.383693	-0.277832
H318	H	0.757959	-0.133693	-0.027832
H319	H	1.007959	0.116307	0.222168
H320	H	1.257959	0.366307	0.472168
F321	F	1.030152	-0.416468	-0.787694
F322	F	1.280152	-0.166468	-0.537694
F323	F	1.530152	0.083532	-0.287694
F324	F	1.780152	0.333532	-0.037694
H325	H	1.156126	-0.662248	-0.271032
H326	H	1.406126	-0.412248	-0.021032
H327	H	1.656126	-0.162248	0.228968
H328	H	1.906126	0.087752	0.478968
F329	F	1.169983	-0.385263	-0.925930
F330	F	1.419983	-0.135263	-0.675930
F331	F	1.669983	0.114737	-0.425930
F332	F	1.919983	0.364737	-0.175930
F333	F	0.640215	-0.221296	-0.455907
F334	F	0.890215	0.028704	-0.205907
F335	F	1.140215	0.278704	0.044093
F336	F	1.390215	0.528704	0.294093
F337	F	0.641590	-0.328222	-0.493300
F338	F	0.891590	-0.078222	-0.243300
F339	F	1.141590	0.171778	0.006700
F340	F	1.391590	0.421778	0.256700
F341	F	0.500786	-0.190036	-0.317250
F342	F	0.750786	0.059964	-0.067250
F343	F	1.000786	0.309964	0.182750
F344	F	1.250786	0.559964	0.432750
H345	H	0.984178	-0.662290	-0.442715
H346	H	1.234178	-0.412290	-0.192715
H347	H	1.484178	-0.162290	0.057285
H348	H	1.734178	0.087710	0.307285
F349	F	0.499494	-0.268882	-0.224478
F350	F	0.749494	-0.018882	0.025522
F351	F	0.999494	0.231118	0.275522
F352	F	1.249494	0.481118	0.525522
H353	H	0.507249	-0.407065	-0.374809
H354	H	0.757249	-0.157065	-0.124809
H355	H	1.007249	0.092935	0.125191
H356	H	1.257249	0.342935	0.375191
H357	H	0.991232	-0.223428	-0.793895
H358	H	1.241232	0.026572	-0.543895
H359	H	1.491232	0.276572	-0.293895
H360	H	1.741232	0.526572	-0.043895
F361	F	1.099373	-0.187285	-0.786288
F362	F	1.349373	0.062715	-0.536288
F363	F	1.599373	0.312715	-0.286288
F364	F	1.849373	0.562715	-0.036288
F365	F	0.972274	-0.534801	-0.454529
F366	F	1.222274	-0.284801	-0.204529
F367	F	1.472274	-0.034801	0.045471
F368	F	1.722274	0.215199	0.295471
F369	F	1.105095	-0.189408	-0.926382
F370	F	1.355095	0.060592	-0.676382
F371	F	1.605095	0.310592	-0.426382
F372	F	1.855095	0.560592	-0.176382
F373	F	0.972509	-1.071347	-0.454635
F374	F	1.222509	-0.821347	-0.204635
F375	F	1.472509	-0.571347	0.045365
F376	F	1.722509	-0.321347	0.295365
F377	F	1.168090	-0.935599	-0.259250
F378	F	1.418090	-0.685599	-0.009250
F379	F	1.668090	-0.435599	0.240750
F380	F	1.918090	-0.185599	0.490750
H381	H	1.156310	-1.063086	-0.271122
H382	H	1.406310	-0.813086	-0.021122
H383	H	1.656310	-0.563086	0.228878
H384	H	1.906310	-0.313086	0.478878
F385	F	0.972446	-0.935642	-0.454604
F386	F	1.222446	-0.685642	-0.204604
F387	F	1.472446	-0.435642	0.045396
F388	F	1.722446	-0.185642	0.295396
