data_functionalizedCrystal
_audit_creation_method	'MofGen! by Chris Wilmer'
_symmetry_space_group_name_H-M	'P1'
_symmetry_Int_Tables_number	1
_symmetry_cell_setting	triclinic
loop_
_symmetry_equiv_pos_as_xyz
  x,y,z
_cell_length_a	14.971482
_cell_length_b	17.019294
_cell_length_c	14.048226
_cell_angle_alpha	86.114596
_cell_angle_beta	89.994098
_cell_angle_gamma	83.503209
loop_
_atom_site_label
_atom_site_type_symbol
_atom_site_fract_x
_atom_site_fract_y
_atom_site_fract_z
O1	O	1.186694	0.102787	-0.087572
O2	O	0.926262	0.115100	-0.088586
O3	O	1.063743	-0.005883	-0.078662
O4	O	1.049213	0.223770	-0.097496
O5	O	1.063726	-0.005890	0.079660
O6	O	0.926246	0.115093	0.069736
O7	O	1.186677	0.102780	0.070750
Zn8	Zn	1.056459	0.108935	0.095380
Zn9	Zn	1.056481	0.108945	-0.113216
O10	O	1.049197	0.223763	0.060826
C11	C	0.892931	0.114547	-0.009381
C12	C	0.793638	0.112898	-0.009247
C13	C	1.063183	-0.035276	0.002907
C14	C	1.061530	-0.122848	0.010083
C15	C	0.746986	0.112118	0.077119
C16	C	0.653691	0.110556	0.077248
C17	C	0.607049	0.109780	-0.008990
C18	C	0.653708	0.110558	-0.095363
C19	C	0.747002	0.112114	-0.095490
C20	C	0.459254	0.107317	-0.095091
C21	C	0.365954	0.105762	-0.094964
C22	C	0.365944	0.105759	0.077648
C23	C	0.459237	0.107315	0.077520
C24	C	0.505889	0.108094	-0.008853
C25	C	1.060765	-0.163981	-0.072847
C26	C	1.059206	-0.246264	-0.066101
C27	C	1.058419	-0.287413	0.023575
C28	C	1.059182	-0.246273	0.106510
C29	C	1.060734	-0.163992	0.099764
C30	C	1.053725	-0.535851	0.048262
C31	C	1.052175	-0.618139	0.055002
C32	C	1.052197	-0.618123	-0.117611
C33	C	1.053755	-0.535840	-0.124349
C34	C	1.054513	-0.494708	-0.041413
C35	C	1.056828	-0.371519	0.030472
C36	C	1.056097	-0.410602	-0.048311
C37	C	1.220009	0.103333	-0.008458
C38	C	1.319302	0.104982	-0.008598
C39	C	1.049756	0.253156	-0.020746
C40	C	1.051409	0.340728	-0.027928
N41	N	1.056451	0.108928	0.237741
N42	N	1.056496	0.108945	-0.255577
C43	C	1.117346	0.055379	0.291952
C44	C	1.117352	0.055379	0.391609
C45	C	1.056466	0.108932	0.437054
C46	C	0.995564	0.162484	0.382836
C47	C	0.995555	0.162480	0.283181
C48	C	0.995590	0.162489	0.590550
C49	C	0.995601	0.162495	0.690212
C50	C	1.117387	0.055389	0.698979
C51	C	1.117378	0.055385	0.599323
C52	C	1.056477	0.108937	0.545112
H53	H	0.784954	0.112756	0.147344
H54	H	0.615725	0.109921	-0.165579
H55	H	1.061345	-0.130500	0.167294
C56	C	1.059462	-0.237993	-0.237395
C57	C	1.058414	-0.291483	-0.157260
H58	H	1.058991	-0.265913	-0.293673
H59	H	1.007923	-0.199948	-0.236959
H60	H	1.112194	-0.211851	-0.235904
H61	H	1.005679	-0.317621	-0.158747
H62	H	1.109958	-0.329542	-0.157696
H63	H	0.497210	0.107951	0.147742
H64	H	0.327955	0.105124	0.147976
H65	H	1.166960	0.011782	0.562322
C66	C	0.976039	0.269835	0.793463
C67	C	0.928666	0.221358	0.740161
H68	H	0.934712	0.306177	0.824292
H69	H	1.012302	0.237948	0.840010
H70	H	1.013219	0.298265	0.752231
H71	H	0.891491	0.192923	0.781394
H72	H	0.892387	0.253248	0.693608
H73	H	1.051529	-0.651639	0.128030
H74	H	1.054397	-0.502343	-0.197372
H75	H	1.054360	-0.502372	0.115794
C76	C	1.237783	-0.050474	0.697628
C77	C	1.184335	-0.003477	0.758562
H78	H	1.279118	-0.086806	0.734417
H79	H	1.200592	-0.078910	0.661107
H80	H	1.269897	-0.017578	0.656046
H81	H	1.152216	-0.036373	0.800140
H82	H	1.221531	0.024961	0.795099
C83	C	0.975990	0.269802	0.162289
C84	C	0.928620	0.221343	0.223585
H85	H	0.934662	0.306138	0.125494
H86	H	1.013176	0.298235	0.198820
H87	H	1.012247	0.237898	0.120969
H88	H	0.892368	0.253248	0.264910
H89	H	0.891418	0.192909	0.187050
H90	H	0.784984	0.112751	-0.165819
C91	C	0.985647	-0.062658	-0.181286
C92	C	1.061613	-0.118758	-0.171426
H93	H	0.986168	-0.034740	-0.242146
H94	H	0.932921	-0.088798	-0.175542
H95	H	0.986342	-0.026382	-0.132864
H96	H	1.060914	-0.155038	-0.219844
H97	H	1.114352	-0.092616	-0.177179
C98	C	0.875217	0.268371	0.591889
C99	C	0.928652	0.221359	0.530959
H100	H	0.833900	0.304719	0.555098
H101	H	0.843089	0.235492	0.633463
H102	H	0.912425	0.296796	0.628419
H103	H	0.891444	0.192930	0.494434
H104	H	0.960782	0.254243	0.489369
C105	C	0.663050	0.110725	0.247849
C106	C	0.602411	0.109706	0.172184
H107	H	0.631389	0.110205	0.306460
H108	H	0.706319	0.065370	0.247985
H109	H	0.692555	0.157301	0.240424
H110	H	0.572910	0.063127	0.179605
H111	H	0.559125	0.155066	0.172049
H112	H	0.327980	0.105131	-0.165187
C113	C	0.978243	-0.455285	0.137469
C114	C	1.055983	-0.416762	0.129039
H115	H	0.977728	-0.483223	0.198318
H116	H	0.926721	-0.417222	0.130785
H117	H	0.977566	-0.491548	0.089029
H118	H	1.056657	-0.380495	0.177475
H119	H	1.107518	-0.454830	0.135733
C120	C	0.980580	-0.330029	0.213511
C121	C	1.058321	-0.291506	0.205083
H122	H	0.980057	-0.357957	0.274364
H123	H	0.929059	-0.291967	0.206811
H124	H	0.979911	-0.366300	0.165079
H125	H	1.058987	-0.255231	0.253510
H126	H	1.109856	-0.329573	0.211792
C127	C	0.574320	0.041312	-0.189832
C128	C	0.510532	0.108176	-0.190036
H129	H	0.605971	0.041845	-0.248449
H130	H	0.615446	0.042000	-0.138499
H131	H	0.544799	-0.005256	-0.182425
H132	H	0.540054	0.154744	-0.197435
H133	H	0.469400	0.107495	-0.241383
H134	H	0.945985	0.206085	0.419844
H135	H	1.051578	-0.651622	-0.185132
H136	H	1.056732	-0.377095	-0.121325
H137	H	1.166930	0.011773	0.254957
C138	C	1.237754	-0.050468	0.390262
C139	C	1.184304	-0.003472	0.451197
H140	H	1.279094	-0.086796	0.427051
H141	H	1.200565	-0.078909	0.353745
H142	H	1.269863	-0.017570	0.348677
H143	H	1.152190	-0.036370	0.492778
H144	H	1.221498	0.024971	0.487730
