data_functionalizedCrystal
_audit_creation_method	'MofGen! by Chris Wilmer'
_symmetry_space_group_name_H-M	'P1'
_symmetry_Int_Tables_number	1
_symmetry_cell_setting	triclinic
loop_
_symmetry_equiv_pos_as_xyz
  x,y,z
_cell_length_a	33.428889
_cell_length_b	33.428139
_cell_length_c	33.424847
_cell_angle_alpha	60.004234
_cell_angle_beta	60.008465
_cell_angle_gamma	59.994972
loop_
_atom_site_label
_atom_site_type_symbol
_atom_site_fract_x
_atom_site_fract_y
_atom_site_fract_z
O1	O	0.055565	-0.584504	0.488714
O2	O	0.555565	-0.084504	0.988714
O3	O	0.020982	-0.455083	0.393778
O4	O	0.520982	0.044917	0.893778
O5	O	0.102943	-0.536959	0.393689
O6	O	0.602943	-0.036959	0.893689
O7	O	-0.026396	-0.502628	0.488803
O8	O	0.473604	-0.002628	0.988803
O9	O	0.130140	-0.509767	0.420792
O10	O	0.630140	-0.009767	0.920792
O11	O	0.048179	-0.427891	0.420881
O12	O	0.548179	0.072109	0.920881
O13	O	0.082762	-0.557312	0.515817
O14	O	0.582762	-0.057312	1.015817
Cu15	Cu	0.067954	-0.490119	0.470823
Cu16	Cu	0.567954	0.009881	0.970823
Cu17	Cu	0.035790	-0.522276	0.438771
Cu18	Cu	0.535790	-0.022276	0.938771
O19	O	0.000801	-0.475436	0.515906
O20	O	0.500801	0.024564	1.015906
N21	N	0.090577	-0.467504	0.493370
N22	N	0.590577	0.032496	0.993370
N23	N	0.013171	-0.544895	0.416225
N24	N	0.513171	-0.044895	0.916225
C25	C	0.143377	-0.280390	0.546067
C26	C	0.643377	0.219610	1.046067
C27	C	0.143515	-0.414755	0.680369
C28	C	0.643515	0.085245	1.180369
C29	C	0.143392	-0.414735	0.546069
C30	C	0.643392	0.085265	1.046069
C31	C	0.277766	-0.414702	0.545966
C32	C	0.777766	0.085298	1.045966
C33	C	0.158177	-0.324719	0.560828
C34	C	0.658177	0.175281	1.060828
C35	C	0.158255	-0.399967	0.636038
C36	C	0.658255	0.100033	1.136038
C37	C	0.233434	-0.399936	0.560773
C38	C	0.733434	0.100064	1.060773
C39	C	0.158186	-0.399955	0.560829
C40	C	0.658186	0.100045	1.060829
C41	C	0.124540	-0.223964	0.527278
C42	C	0.624540	0.276036	1.027278
C43	C	0.124565	-0.433545	0.527281
C44	C	0.624565	0.066455	1.027281
C45	C	0.177014	-0.381145	0.579617
C46	C	0.677014	0.118855	1.079617
C47	C	0.359814	-0.400540	0.502735
C48	C	0.859814	0.099460	1.002735
C49	C	0.411105	-0.417624	0.485606
C50	C	0.911105	0.082376	0.985606
C51	C	0.411136	-0.500620	0.517255
C52	C	0.911136	-0.000620	1.017255
C53	C	0.359845	-0.483534	0.534385
C54	C	0.859845	0.016466	1.034385
C55	C	0.136887	-0.198305	0.476855
C56	C	0.636887	0.301695	0.976855
C57	C	0.119761	-0.147011	0.459777
C58	C	0.619761	0.352989	0.959777
C59	C	0.077945	-0.147038	0.543547
C60	C	0.577945	0.352962	1.043547
C61	C	0.095072	-0.198332	0.560625
C62	C	0.595072	0.301668	1.060625
C63	C	0.074134	-0.421169	0.539710
C64	C	0.574134	0.078831	1.039710
C65	C	0.057023	-0.438269	0.522625
C66	C	0.557023	0.061731	1.022625
C67	C	0.140770	-0.480120	0.480694
C68	C	0.640770	0.019880	0.980694
C69	C	0.157883	-0.463020	0.497773
C70	C	0.657883	0.036980	0.997773
C71	C	0.074339	-0.421208	0.762475
C72	C	0.574339	0.078792	1.262475
C73	C	0.057288	-0.438323	0.813768
C74	C	0.557288	0.061677	1.313768
C75	C	0.141075	-0.480183	0.813699
C76	C	0.641075	0.019817	1.313699
C77	C	0.158125	-0.463069	0.762404
C78	C	0.658125	0.036931	1.262404
C79	C	0.124756	-0.433580	0.736794
C80	C	0.624756	0.066420	1.236794
C81	C	0.334186	-0.433494	0.527123
C82	C	0.834186	0.066506	1.027123
C83	C	-0.173769	-0.597444	0.363037
C84	C	0.326231	-0.097444	0.863037
C85	C	-0.039302	-0.597595	0.228856
C86	C	0.460698	-0.097595	0.728856
C87	C	-0.039496	-0.597587	0.363300
C88	C	0.460504	-0.097587	0.863300
C89	C	-0.039512	-0.731889	0.363237
C90	C	0.460488	-0.231889	0.863237
C91	C	-0.129442	-0.612265	0.348329
C92	C	0.370558	-0.112265	0.848329
C93	C	-0.054138	-0.612351	0.273187
C94	C	0.445862	-0.112351	0.773187
C95	C	-0.054257	-0.687554	0.348440
C96	C	0.445743	-0.187554	0.848440
C97	C	-0.054247	-0.612346	0.348477
C98	C	0.445753	-0.112346	0.848477
C99	C	-0.230191	-0.578579	0.381758
C100	C	0.269809	-0.078579	0.881758
C101	C	-0.020722	-0.578803	0.382168
C102	C	0.479278	-0.078803	0.882168
C103	C	-0.073020	-0.631130	0.329609
C104	C	0.426980	-0.131130	0.829609
C105	C	-0.053713	-0.813916	0.406386
C106	C	0.446287	-0.313916	0.906386
C107	C	-0.036654	-0.865210	0.423504
C108	C	0.463346	-0.365210	0.923504
C109	C	0.046338	-0.865293	0.391984
C110	C	0.546338	-0.365293	0.891984
C111	C	0.029278	-0.813999	0.374865
C112	C	0.529278	-0.313999	0.874865
C113	C	-0.255900	-0.590938	0.432169
C114	C	0.244100	-0.090938	0.932169
C115	C	-0.307191	-0.573786	0.449185
C116	C	0.192809	-0.073786	0.949185
C117	C	-0.307060	-0.531922	0.365377
C118	C	0.192940	-0.031922	0.865377
C119	C	-0.255769	-0.549074	0.348360
C120	C	0.244231	-0.049074	0.848360
C121	C	-0.033081	-0.528377	0.369764
C122	C	0.466919	-0.028377	0.869764
C123	C	-0.016014	-0.511306	0.386922
C124	C	0.483986	-0.011306	0.886922
C125	C	0.025770	-0.595083	0.428877
C126	C	0.525770	-0.095083	0.928877
C127	C	0.008703	-0.612156	0.411725
C128	C	0.508703	-0.112156	0.911725
C129	C	-0.032755	-0.528393	0.146761
C130	C	0.467245	-0.028393	0.646761
C131	C	-0.015585	-0.511324	0.095468
C132	C	0.484415	-0.011324	0.595468
C133	C	0.026262	-0.595106	0.095516
C134	C	0.526262	-0.095106	0.595516
C135	C	0.009094	-0.612174	0.146811
C136	C	0.509094	-0.112174	0.646811
C137	C	-0.020417	-0.578816	0.172432
C138	C	0.479583	-0.078816	0.672432
C139	C	-0.020748	-0.788312	0.382068
C140	C	0.479252	-0.288312	0.882068
N141	N	0.436037	-0.467415	0.493101
N142	N	0.936037	0.032585	0.993101
O143	O	0.592642	-0.471896	0.376066
O144	O	1.092642	0.028104	0.876066
O145	O	0.592838	-0.567146	0.505347
O146	O	1.092838	-0.067146	1.005347
O147	O	0.592754	-0.566928	0.423360
O148	O	1.092754	-0.066928	0.923360
O149	O	0.592727	-0.472113	0.458053
O150	O	1.092727	0.027887	0.958053
O151	O	0.511269	-0.539835	0.450606
O152	O	1.011269	-0.039835	0.950606
O153	O	0.511353	-0.540052	0.532594
O154	O	1.011353	-0.040052	1.032594
O155	O	0.511157	-0.444802	0.403312
O156	O	1.011157	0.055198	0.903312
Cu157	Cu	0.503815	-0.489954	0.470441
Cu158	Cu	1.003815	0.010046	0.970441
Cu159	Cu	0.600180	-0.521995	0.438219
Cu160	Cu	1.100180	-0.021995	0.938219
O161	O	0.511242	-0.445020	0.485300
O162	O	1.011242	0.054980	0.985300
N163	N	0.667959	-0.544533	0.415554
N164	N	1.167959	-0.044533	0.915554
N165	N	0.090544	-0.122107	0.493359
N166	N	0.590544	0.377893	0.993359
O167	O	-0.026406	0.034587	0.488773
O168	O	0.473594	0.534587	0.988773
O169	O	0.102877	0.034627	0.393499
O170	O	0.602877	0.534627	0.893499
O171	O	0.020848	0.034591	0.393771
O172	O	0.520848	0.534591	0.893771
O173	O	0.055623	0.034623	0.488500
O174	O	0.555623	0.534623	0.988500
O175	O	0.048051	-0.046899	0.420925
O176	O	0.548051	0.453101	0.920925
O177	O	0.130080	-0.046864	0.420653
O178	O	0.630080	0.453136	0.920653
O179	O	0.000796	-0.046903	0.515927
O180	O	0.500796	0.453097	1.015927
Cu181	Cu	0.067922	-0.054324	0.470769
Cu182	Cu	0.567922	0.445676	0.970769
Cu183	Cu	0.035752	0.042048	0.438656
Cu184	Cu	0.535752	0.542048	0.938656
O185	O	0.082825	-0.046867	0.515655
O186	O	0.582825	0.453133	1.015655
N187	N	0.013123	0.109830	0.416068
N188	N	0.513123	0.609830	0.916068
N189	N	0.090892	-0.467554	0.838649
N190	N	0.590892	0.032446	1.338649
O191	O	0.086330	-0.584488	0.995334
O192	O	0.586330	-0.084488	1.495334
O193	O	-0.008902	-0.455160	0.995379
O194	O	0.491098	0.044840	1.495379
O195	O	-0.008679	-0.537172	0.995355
O196	O	0.491321	-0.037172	1.495355
O197	O	0.086107	-0.502475	0.995358
O198	O	0.586107	-0.002475	1.495358
O199	O	0.018452	-0.509990	0.913868
O200	O	0.518452	-0.009990	1.413868
O201	O	0.018230	-0.427978	0.913891
O202	O	0.518230	0.072022	1.413891
O203	O	0.113461	-0.557306	0.913847
O204	O	0.613461	-0.057306	1.413847
Cu205	Cu	0.068323	-0.490160	0.906429
Cu206	Cu	0.568323	0.009840	1.406429
Cu207	Cu	0.036237	-0.522306	1.002797
Cu208	Cu	0.536237	-0.022306	1.502797
O209	O	0.113239	-0.475293	0.913870
O210	O	0.613239	0.024707	1.413870
N211	N	0.013667	-0.544916	1.070577
N212	N	0.513667	-0.044916	1.570577
C213	C	0.031339	-0.425179	0.394250
C214	C	0.531339	0.074821	0.894250
C215	C	0.132837	-0.526572	0.394139
C216	C	0.632837	-0.026572	0.894139
C217	C	0.072405	-0.587216	0.515344
C218	C	0.572405	-0.087216	1.015344
C219	C	-0.029093	-0.485823	0.515455
C220	C	0.470907	0.014177	1.015455
C221	C	0.552119	-0.566716	0.535258
C222	C	1.052119	-0.066716	1.035258
C223	C	0.552016	-0.566447	0.433726
C224	C	1.052016	-0.066447	0.933726
C225	C	0.551873	-0.445232	0.373402
C226	C	1.051873	0.054768	0.873402
C227	C	0.551980	-0.445502	0.474933
C228	C	1.051980	0.054498	0.974933
C229	C	0.132731	-0.006013	0.393923
C230	C	0.632731	0.493987	0.893923
C231	C	0.031182	-0.006158	0.394293
C232	C	0.531182	0.493842	0.894293
C233	C	-0.029092	-0.006163	0.515469
C234	C	0.470908	0.493837	1.015469
C235	C	0.072491	-0.006119	0.515133
C236	C	0.572491	0.493881	1.015133
C237	C	-0.008451	-0.425276	0.954641
C238	C	0.491549	0.074724	1.454641
C239	C	-0.008170	-0.526833	0.954596
C240	C	0.491830	-0.026833	1.454596
C241	C	0.113010	-0.587190	0.954585
C242	C	0.613010	-0.087190	1.454585
C243	C	0.112735	-0.485627	0.954611
C244	C	0.612735	0.014373	1.454611
H245	H	0.016234	-0.428240	0.834672
H246	H	0.516234	0.071760	1.334672
H247	H	-0.038348	-0.388133	0.954654
H248	H	0.461652	0.111867	1.454654
H249	H	0.169984	-0.533889	0.364272
H250	H	0.669984	-0.033889	0.864272
C251	C	0.194400	-0.630986	0.912671
C252	C	0.694400	-0.130986	1.412671
C253	C	0.153375	-0.637329	0.954565
C254	C	0.653375	-0.137329	1.454565
H255	H	0.219318	-0.661941	0.912658
H256	H	0.719318	-0.161941	1.412658
H257	H	0.206225	-0.610402	0.912680
H258	H	0.706225	-0.110402	1.412680
H259	H	0.185480	-0.616322	0.884261
H260	H	0.685480	-0.116322	1.384261
H261	H	0.162294	-0.651989	0.982975
H262	H	0.662294	-0.151989	1.482975
H263	H	0.141549	-0.657921	0.954560
H264	H	0.641549	-0.157921	1.454560
H265	H	-0.327887	-0.507903	0.338181
H266	H	0.172113	-0.007903	0.838181
C267	C	-0.079244	-0.006170	0.597753
C268	C	0.420756	0.493830	1.097753
C269	C	-0.079212	-0.006177	0.555849
C270	C	0.420788	0.493823	1.055849
H271	H	-0.110185	-0.006182	0.622682
H272	H	0.389815	0.493818	1.122682
H273	H	-0.073274	0.022253	0.590032
H274	H	0.426726	0.522253	1.090032
H275	H	-0.054298	-0.034582	0.608969
H276	H	0.445702	0.465418	1.108969
H277	H	-0.104156	0.022237	0.544631
H278	H	0.395844	0.522237	1.044631
H279	H	-0.085187	-0.034603	0.563570
H280	H	0.414813	0.465397	1.063570
H281	H	-0.037935	-0.534246	0.954563
H282	H	0.462065	-0.034246	1.454563
H283	H	0.552029	-0.596233	0.426301
H284	H	1.052029	-0.096233	0.926301
C285	C	0.551762	-0.362925	0.323223
C286	C	1.051762	0.137075	0.823223
C287	C	0.551791	-0.404858	0.323282
C288	C	1.051791	0.095142	0.823282
H289	H	0.551708	-0.338000	0.292281
H290	H	1.051708	0.162000	0.792281
H291	H	0.580191	-0.370612	0.329166
H292	H	1.080191	0.129388	0.829166
H293	H	0.523360	-0.351721	0.348177
H294	H	1.023360	0.148279	0.848177
H295	H	0.580195	-0.416064	0.298330
H296	H	1.080195	0.083936	0.798330
H297	H	0.523359	-0.397171	0.317333
H298	H	1.023359	0.102829	0.817333
C299	C	0.054714	-0.353304	0.340820
C300	C	0.554714	0.146696	0.840820
C301	C	0.021366	-0.374991	0.353994
C302	C	0.521366	0.125009	0.853994
H303	H	0.048554	-0.322319	0.315970
H304	H	0.548554	0.177681	0.815970
H305	H	0.087142	-0.373818	0.328889
H306	H	0.587142	0.126182	0.828889
H307	H	0.051057	-0.349059	0.368668
H308	H	0.551057	0.150941	0.868668
H309	H	0.025025	-0.379239	0.326147
H310	H	0.525025	0.120761	0.826147
H311	H	-0.011070	-0.354472	0.365924
H312	H	0.488930	0.145528	0.865924
H313	H	0.142514	-0.478200	0.954606
H314	H	0.642514	0.021800	1.454606
C315	C	0.071256	-0.131262	0.609662
C316	C	0.571256	0.368738	1.109662
C317	C	0.045559	-0.118864	0.580205
C318	C	0.545559	0.381136	1.080205
H319	H	0.051259	-0.113872	0.632296
H320	H	0.551259	0.386128	1.132296
H321	H	0.100239	-0.122837	0.589630
H322	H	0.600239	0.377163	1.089630
H323	H	0.079689	-0.165484	0.627045
H324	H	0.579689	0.334516	1.127045
H325	H	0.037129	-0.084641	0.562819
H326	H	0.537129	0.415359	1.062819
H327	H	0.016566	-0.127285	0.600239
H328	H	0.516566	0.372715	1.100239
H329	H	0.551974	-0.415718	0.482355
H330	H	1.051974	0.084282	0.982355
H331	H	0.047163	-0.397193	0.741627
H332	H	0.547163	0.102807	1.241627
H333	H	0.023733	-0.006162	0.364531
H334	H	0.523733	0.493838	0.864531
C335	C	0.225610	-0.519844	0.808478
C336	C	0.725610	-0.019844	1.308478
C337	C	0.177756	-0.512597	0.841851
C338	C	0.677756	-0.012597	1.341851
H339	H	0.248253	-0.539861	0.825858
H340	H	0.748253	-0.039861	1.325858
H341	H	0.230517	-0.489098	0.788478
H342	H	0.730517	0.010902	1.288478
H343	H	0.230515	-0.535496	0.788468
H344	H	0.730515	-0.035496	1.288468
H345	H	0.172850	-0.496941	0.861857
H346	H	0.672850	0.003059	1.361857
H347	H	0.172847	-0.543349	0.861858
H348	H	0.672847	-0.043349	1.361858
H349	H	0.552170	-0.596617	0.572390
H350	H	1.052170	-0.096617	1.072390
H351	H	0.169783	-0.005775	0.363939
H352	H	0.669783	0.494225	0.863939
C353	C	0.225916	-0.502318	0.704686
C354	C	0.725916	-0.002318	1.204686
C355	C	0.213548	-0.476672	0.734178
C356	C	0.713548	0.023328	1.234178
H357	H	0.260132	-0.510718	0.687265
H358	H	0.760132	-0.010718	1.187265
H359	H	0.208489	-0.482309	0.682093
H360	H	0.708489	0.017691	1.182093
H361	H	0.217523	-0.531326	0.724703
H362	H	0.717523	-0.031326	1.224703
H363	H	0.221938	-0.447662	0.714161
H364	H	0.721938	0.052338	1.214161
H365	H	0.230981	-0.496683	0.756775
H366	H	0.730981	0.003317	1.256775
C367	C	-0.010368	-0.381510	0.579433
C368	C	0.489632	0.118490	1.079433
C369	C	0.037510	-0.388765	0.572139
C370	C	0.537510	0.111235	1.072139
H371	H	-0.032977	-0.361502	0.599451
H372	H	0.467023	0.138498	1.099451
H373	H	-0.015279	-0.412255	0.595094
H374	H	0.484721	0.087745	1.095094
H375	H	-0.015318	-0.365844	0.548697
H376	H	0.484682	0.134156	1.048697
H377	H	0.042462	-0.404434	0.602874
H378	H	0.542462	0.095566	1.102874
H379	H	0.042424	-0.358015	0.556478
H380	H	0.542424	0.141985	1.056478
C381	C	0.121954	-0.048003	0.566528
C382	C	0.621954	0.451997	1.066528
C383	C	0.082540	-0.006118	0.555319
C384	C	0.582540	0.493882	1.055319
H385	H	0.128154	-0.048004	0.591340
H386	H	0.628154	0.451996	1.091340
H387	H	0.150253	-0.047988	0.538005
H388	H	0.650253	0.452012	1.038005
H389	H	0.114180	-0.076422	0.577847
H390	H	0.614180	0.423578	1.077847
H391	H	0.090315	0.022301	0.543995
H392	H	0.590315	0.522301	1.043995
H393	H	0.054235	-0.006128	0.583847
H394	H	0.554235	0.493872	1.083847
C395	C	-0.010847	-0.399004	0.493552
C396	C	0.489153	0.100996	0.993552
C397	C	0.001588	-0.424667	0.536285
C398	C	0.501588	0.075333	1.036285
H399	H	-0.045071	-0.390603	0.501987
H400	H	0.454929	0.109397	1.001987
H401	H	0.006543	-0.419003	0.473537
H402	H	0.506543	0.080997	0.973537
H403	H	-0.002453	-0.369995	0.476156
H404	H	0.497547	0.130005	0.976156
H405	H	-0.006803	-0.453677	0.553680
H406	H	0.493197	0.046323	1.053680
H407	H	-0.015808	-0.404667	0.556309
H408	H	0.484192	0.095333	1.056309
H409	H	0.198948	-0.473094	0.487648
H410	H	0.698948	0.026906	0.987648
C411	C	0.206854	-0.486843	0.405501
C412	C	0.706854	0.013157	0.905501
C413	C	0.177400	-0.512521	0.448258
C414	C	0.677400	-0.012521	0.948258
H415	H	0.229465	-0.506843	0.385475
H416	H	0.729465	-0.006843	0.885475
H417	H	0.224257	-0.478433	0.413901
H418	H	0.724257	0.021567	0.913901
H419	H	0.186815	-0.457841	0.388124
H420	H	0.686815	0.042159	0.888124
H421	H	0.197439	-0.541520	0.465636
H422	H	0.697439	-0.041520	0.965636
H423	H	0.159995	-0.520938	0.439858
H424	H	0.659995	-0.020938	0.939858
C425	C	0.365036	-0.567289	0.563943
C426	C	0.865036	-0.067289	1.063943
C427	C	0.331677	-0.519761	0.561192
C428	C	0.831677	-0.019761	1.061192
H429	H	0.347645	-0.589653	0.580490
H430	H	0.847645	-0.089653	1.080490
H431	H	0.385061	-0.575864	0.581401
H432	H	0.885061	-0.075864	1.081401
H433	H	0.385019	-0.568583	0.531801
H434	H	0.885019	-0.068583	1.031801
H435	H	0.311696	-0.518465	0.593334
H436	H	0.811696	-0.018465	1.093334
H437	H	0.311644	-0.511183	0.543735
H438	H	0.811644	-0.011183	1.043735
C439	C	0.093807	-0.674106	0.538970
C440	C	0.593807	-0.174106	1.038970
C441	C	0.082374	-0.637405	0.555600
C442	C	0.582374	-0.137405	1.055600
H443	H	0.099958	-0.705089	0.563824
H444	H	0.599958	-0.205089	1.063824
H445	H	0.122134	-0.673963	0.510476
H446	H	0.622134	-0.173963	1.010476
H447	H	0.067078	-0.668158	0.531341
H448	H	0.567078	-0.168158	1.031341
H449	H	0.109106	-0.643351	0.563226
H450	H	0.609106	-0.143351	1.063226
H451	H	0.054044	-0.637548	0.584103
H452	H	0.554044	-0.137548	1.084103
C453	C	0.426841	-0.346786	0.416794
C454	C	0.926841	0.153214	0.916794
C455	C	0.439280	-0.381401	0.458792
C456	C	0.939280	0.118599	0.958792
H457	H	0.444239	-0.324426	0.400238
H458	H	0.944239	0.175574	0.900238
H459	H	0.392627	-0.329449	0.425959
H460	H	0.892627	0.170551	0.925959
H461	H	0.435231	-0.363007	0.395698
H462	H	0.935231	0.136993	0.895698
H463	H	0.430887	-0.365180	0.479890
H464	H	0.930887	0.134820	0.979890
H465	H	0.473503	-0.398739	0.449628
H466	H	0.973503	0.101261	0.949628
C467	C	0.281174	-0.337492	0.514934
C468	C	0.781174	0.162508	1.014934
C469	C	0.331607	-0.345533	0.494753
C470	C	0.831607	0.154467	0.994753
H471	H	0.263763	-0.303533	0.510002
H472	H	0.763763	0.196467	1.010002
H473	H	0.272798	-0.355376	0.549038
H474	H	0.772798	0.144624	1.049038
H475	H	0.272759	-0.348106	0.499441
H476	H	0.772759	0.151894	0.999441
H477	H	0.340023	-0.334922	0.510249
H478	H	0.840023	0.165078	1.010249
H479	H	0.339987	-0.327642	0.460643
H480	H	0.839987	0.172358	0.960643
C481	C	0.143582	-0.214085	0.410741
C482	C	0.643582	0.285915	0.910741
C483	C	0.169276	-0.226479	0.440199
C484	C	0.669276	0.273521	0.940199
H485	H	0.163577	-0.231483	0.388114
H486	H	0.663577	0.268517	0.888114
H487	H	0.135152	-0.179868	0.393355
H488	H	0.635152	0.320132	0.893355
H489	H	0.114593	-0.222508	0.430776
H490	H	0.614593	0.277492	0.930776
H491	H	0.198263	-0.218053	0.420163
H492	H	0.698263	0.281947	0.920163
H493	H	0.177712	-0.260704	0.457586
H494	H	0.677712	0.239296	0.957586
C495	C	0.102802	-0.276973	0.624003
C496	C	0.602802	0.223027	1.124003
C497	C	0.081535	-0.226537	0.616052
C498	C	0.581535	0.273463	1.116052
H499	H	0.094451	-0.294384	0.658223
H500	H	0.594451	0.205616	1.158223
H501	H	0.137399	-0.285348	0.609548
H502	H	0.637399	0.214652	1.109548
H503	H	0.090973	-0.285391	0.609638
H504	H	0.590973	0.214609	1.109638
H505	H	0.093368	-0.218117	0.630414
H506	H	0.593368	0.281883	1.130414
H507	H	0.046931	-0.218158	0.630514
H508	H	0.546931	0.281842	1.130514
C509	C	-0.058692	-0.430226	0.100579
C510	C	0.441308	0.069774	0.600579
C511	C	-0.029160	-0.455895	0.067255
C512	C	0.470840	0.044105	0.567255
H513	H	-0.067073	-0.396006	0.083161
H514	H	0.432927	0.103994	0.583161
H515	H	-0.041329	-0.438646	0.120630
H516	H	0.458671	0.061354	0.620630
H517	H	-0.087706	-0.438611	0.120542
H518	H	0.412294	0.061389	0.620542
H519	H	-0.000145	-0.447513	0.047295
H520	H	0.499855	0.052487	0.547295
H521	H	-0.046523	-0.447471	0.047196
H522	H	0.453477	0.052529	0.547196
H523	H	0.432025	-0.541365	0.523165
H524	H	0.932025	-0.041365	1.023165
H525	H	0.129813	-0.126117	0.418717
H526	H	0.629813	0.373883	0.918717
C527	C	-0.077662	-0.517351	0.225364
C528	C	0.422338	-0.017351	0.725364
C529	C	-0.065196	-0.491724	0.174922
C530	C	0.434804	0.008276	0.674922
H531	H	-0.097690	-0.494712	0.242749
H532	H	0.402310	0.005288	0.742749
H533	H	-0.048690	-0.537378	0.233824
H534	H	0.451310	-0.037378	0.733824
H535	H	-0.095068	-0.537335	0.233730
H536	H	0.404932	-0.037335	0.733730
H537	H	-0.047786	-0.471741	0.166556
H538	H	0.452214	0.028259	0.666556
H539	H	-0.094173	-0.471687	0.166459
H540	H	0.405827	0.028313	0.666459
C541	C	0.065893	-0.679638	0.100717
C542	C	0.565893	-0.179638	0.600717
C543	C	0.058691	-0.631774	0.067354
C544	C	0.558691	-0.131774	0.567354
H545	H	0.085918	-0.702273	0.083330
H546	H	0.585918	-0.202273	0.583330
H547	H	0.035136	-0.684525	0.120675
H548	H	0.535136	-0.184525	0.620675
H549	H	0.081519	-0.684577	0.120769
H550	H	0.581519	-0.184577	0.620769
H551	H	0.043062	-0.626834	0.047304
H552	H	0.543062	-0.126834	0.547304
H553	H	0.089454	-0.626885	0.047387
H554	H	0.589454	-0.126885	0.547387
C555	C	-0.020127	-0.679936	0.204455
C556	C	0.479873	-0.179936	0.704455
C557	C	0.022655	-0.667603	0.175029
C558	C	0.522655	-0.167603	0.675029
H559	H	-0.011755	-0.714154	0.221877
H560	H	0.488245	-0.214154	0.721877
H561	H	-0.037485	-0.671511	0.184397
H562	H	0.462515	-0.171511	0.684397
H563	H	-0.040153	-0.662510	0.227053
H564	H	0.459847	-0.162510	0.727053
H565	H	0.042678	-0.685026	0.152428
H566	H	0.542678	-0.185026	0.652428
H567	H	0.040020	-0.676033	0.195088
H568	H	0.540020	-0.176033	0.695088
H569	H	-0.057039	-0.501216	0.345698
H570	H	0.442961	-0.001216	0.845698
C571	C	-0.088010	-0.436581	0.567069
C572	C	0.411990	0.063419	1.067069
C573	C	-0.079238	-0.475954	0.555779
C574	C	0.420762	0.024046	1.055779
H575	H	-0.118966	-0.430492	0.591967
H576	H	0.381034	0.069508	1.091967
H577	H	-0.087937	-0.408222	0.538602
H578	H	0.412063	0.091778	1.038602
H579	H	-0.063078	-0.444333	0.578304
H580	H	0.436922	0.055667	1.078304
H581	H	-0.104169	-0.468201	0.544541
H582	H	0.395831	0.031799	1.044541
H583	H	-0.079315	-0.504319	0.584252
H584	H	0.420685	-0.004319	1.084252
C585	C	-0.012102	-0.434691	0.322271
C586	C	0.487898	0.065309	0.822271
C587	C	-0.029580	-0.455878	0.373283
C588	C	0.470420	0.044122	0.873283
H589	H	-0.020471	-0.400474	0.313851
H590	H	0.479529	0.099526	0.813851
H591	H	-0.026484	-0.440076	0.307827
H592	H	0.473516	0.059924	0.807827
H593	H	0.022503	-0.449150	0.310543
H594	H	0.522503	0.050850	0.810543
H595	H	-0.064186	-0.441422	0.385011
H596	H	0.435814	0.058578	0.885011
H597	H	-0.015200	-0.450490	0.387733
H598	H	0.484800	0.049510	0.887733
C599	C	0.100881	-0.661277	0.435754
C600	C	0.600881	-0.161277	0.935754
C601	C	0.058120	-0.631749	0.461363
C602	C	0.558120	-0.131749	0.961363
H603	H	0.120850	-0.683913	0.455811
H604	H	0.620850	-0.183913	0.955811
H605	H	0.118314	-0.641291	0.406776
H606	H	0.618314	-0.141291	0.906776
H607	H	0.092479	-0.678658	0.427314
H608	H	0.592479	-0.178658	0.927314
H609	H	0.066522	-0.614365	0.469799
H610	H	0.566522	-0.114365	0.969799
H611	H	0.040684	-0.651738	0.490349
H612	H	0.540684	-0.151738	0.990349
C613	C	0.004829	-0.688789	0.476365
C614	C	0.504829	-0.188789	0.976365
C615	C	0.022288	-0.667586	0.425354
C616	C	0.522288	-0.167586	0.925354
H617	H	0.013220	-0.723009	0.484776
H618	H	0.513220	-0.223009	0.984776
H619	H	-0.029774	-0.674352	0.488104
H620	H	0.470226	-0.174352	0.988104
H621	H	0.019208	-0.683393	0.490808
H622	H	0.519208	-0.183393	0.990808
H623	H	0.007907	-0.672979	0.410911
H624	H	0.507907	-0.172979	0.910911
H625	H	0.056898	-0.682028	0.413609
H626	H	0.556898	-0.182028	0.913609
H627	H	0.087072	-0.886205	0.386121
H628	H	0.587072	-0.386205	0.886121
C629	C	0.113026	-0.819241	0.345437
C630	C	0.613026	-0.319241	0.845437
C631	C	0.065516	-0.785858	0.348137
C632	C	0.565516	-0.285858	0.848137
H633	H	0.135397	-0.801867	0.328939
H634	H	0.635397	-0.301867	0.828939
H635	H	0.121622	-0.839248	0.327952
H636	H	0.621622	-0.339248	0.827952
H637	H	0.114280	-0.839244	0.377591
H638	H	0.614280	-0.339244	0.877591
H639	H	0.064261	-0.765858	0.315982
H640	H	0.564261	-0.265858	0.815982
H641	H	0.056917	-0.765842	0.365622
H642	H	0.556917	-0.265842	0.865622
H643	H	-0.063498	-0.886058	0.443304
H644	H	0.436502	-0.386058	0.943304
C645	C	-0.134029	-0.818988	0.439231
C646	C	0.365971	-0.318988	0.939231
C647	C	-0.108701	-0.785679	0.414282
C648	C	0.391299	-0.285679	0.914282
H649	H	-0.167975	-0.801556	0.444099
H650	H	0.332025	-0.301556	0.944099
H651	H	-0.129332	-0.838984	0.470075
H652	H	0.370668	-0.338984	0.970075
H653	H	-0.121961	-0.839009	0.420434
H654	H	0.378039	-0.339009	0.920434
H655	H	-0.120767	-0.765661	0.433081
H656	H	0.379233	-0.265661	0.933081
H657	H	-0.113401	-0.765675	0.383433
H658	H	0.386599	-0.265675	0.883433
H659	H	-0.328125	-0.583847	0.490235
H660	H	0.171875	-0.083847	0.990235
C661	C	-0.240235	-0.666087	0.498357
C662	C	0.259765	-0.166087	0.998357
C663	C	-0.227787	-0.623369	0.468882
C664	C	0.272213	-0.123369	0.968882
H665	H	-0.222881	-0.686107	0.521024
H666	H	0.277119	-0.186107	1.021024
H667	H	-0.231805	-0.683491	0.478341
H668	H	0.268195	-0.183491	0.978341
H669	H	-0.274463	-0.657632	0.515702
H670	H	0.225537	-0.157632	1.015702
H671	H	-0.193560	-0.631823	0.451535
H672	H	0.306440	-0.131823	0.951535
H673	H	-0.236215	-0.605962	0.488900
H674	H	0.263785	-0.105962	0.988900
C675	C	-0.260796	-0.505969	0.267230
C676	C	0.239204	-0.005969	0.767230
C677	C	-0.227511	-0.535490	0.292947
C678	C	0.272489	-0.035490	0.792947
H679	H	-0.243349	-0.497584	0.233019
H680	H	0.256651	0.002416	0.733019
H681	H	-0.280799	-0.476959	0.275623
H682	H	0.219201	0.023041	0.775623
H683	H	-0.280809	-0.523348	0.275602
H684	H	0.219191	-0.023348	0.775602
H685	H	-0.207500	-0.518109	0.284578
H686	H	0.292500	-0.018109	0.784578
H687	H	-0.207500	-0.564504	0.284550
H688	H	0.292500	-0.064504	0.784550
