data_functionalizedCrystal
_audit_creation_method	'MofGen! by Chris Wilmer'
_symmetry_space_group_name_H-M	'P1'
_symmetry_Int_Tables_number	1
_symmetry_cell_setting	triclinic
loop_
_symmetry_equiv_pos_as_xyz
  x,y,z
_cell_length_a	19.077236
_cell_length_b	19.121063
_cell_length_c	19.076919
_cell_angle_alpha	94.606347
_cell_angle_beta	89.887323
_cell_angle_gamma	94.855924
loop_
_atom_site_label
_atom_site_type_symbol
_atom_site_fract_x
_atom_site_fract_y
_atom_site_fract_z
Zn1	Zn	1.046920	-0.255828	-0.451002
Zn2	Zn	1.296920	-0.005828	-0.201002
Zn3	Zn	1.546920	0.244172	0.048998
Zn4	Zn	1.796920	0.494172	0.298998
Zn5	Zn	1.046539	-0.368770	-0.338113
Zn6	Zn	1.296539	-0.118770	-0.088113
Zn7	Zn	1.546539	0.131230	0.161887
Zn8	Zn	1.796539	0.381230	0.411887
Zn9	Zn	0.934152	-0.255459	-0.328767
Zn10	Zn	1.184152	-0.005459	-0.078767
Zn11	Zn	1.434152	0.244541	0.171233
Zn12	Zn	1.684152	0.494541	0.421233
Zn13	Zn	0.923941	-0.378172	-0.451236
Zn14	Zn	1.173941	-0.128172	-0.201236
Zn15	Zn	1.423941	0.121828	0.048764
Zn16	Zn	1.673941	0.371828	0.298764
O17	O	0.987888	-0.314557	-0.392279
O18	O	1.237888	-0.064557	-0.142279
O19	O	1.487888	0.185443	0.107721
O20	O	1.737888	0.435443	0.357721
O21	O	1.145371	-0.267030	-0.439841
O22	O	1.395371	-0.017030	-0.189841
O23	O	1.645371	0.232970	0.060159
O24	O	1.895371	0.482970	0.310159
O25	O	1.035745	-0.349650	-0.238375
O26	O	1.285745	-0.099650	0.011625
O27	O	1.535745	0.150350	0.261625
O28	O	1.785745	0.400350	0.511625
O29	O	0.953543	-0.156885	-0.340972
O30	O	1.203543	0.093115	-0.090972
O31	O	1.453543	0.343115	0.159028
O32	O	1.703543	0.593115	0.409028
O33	O	1.145091	-0.350008	-0.356902
O34	O	1.395091	-0.100008	-0.106902
O35	O	1.645091	0.149992	0.143098
O36	O	1.895091	0.399992	0.393098
O37	O	1.036393	-0.157156	-0.430778
O38	O	1.286393	0.092844	-0.180778
O39	O	1.536393	0.342844	0.069222
O40	O	1.786393	0.592844	0.319222
O41	O	0.953174	-0.266400	-0.231509
O42	O	1.203174	-0.016400	0.018491
O43	O	1.453174	0.233600	0.268491
O44	O	1.703174	0.483600	0.518491
O45	O	0.834295	-0.275517	-0.341199
O46	O	1.084295	-0.025517	-0.091199
O47	O	1.334295	0.224483	0.158801
O48	O	1.584295	0.474483	0.408801
O49	O	0.936140	-0.366033	-0.549703
O50	O	1.186140	-0.116033	-0.299703
O51	O	1.436140	0.133967	-0.049703
O52	O	1.686140	0.383967	0.200297
O53	O	0.826793	-0.365674	-0.431176
O54	O	1.076793	-0.115674	-0.181176
O55	O	1.326793	0.134326	0.068824
O56	O	1.576793	0.384326	0.318824
O57	O	1.026492	-0.276147	-0.549531
O58	O	1.276492	-0.026147	-0.299531
O59	O	1.526492	0.223853	-0.049531
O60	O	1.776492	0.473853	0.200469
O61	O	1.025844	-0.468640	-0.357129
O62	O	1.275844	-0.218640	-0.107129
O63	O	1.525844	0.031360	0.142871
O64	O	1.775844	0.281360	0.392871
O65	O	0.935771	-0.475548	-0.440239
O66	O	1.185771	-0.225548	-0.190239
O67	O	1.435771	0.024452	0.059761
O68	O	1.685771	0.274452	0.309761
C69	C	0.805004	-0.321576	-0.385199
C70	C	1.055004	-0.071576	-0.135199
C71	C	1.305004	0.178424	0.114801
C72	C	1.555004	0.428424	0.364801
C73	C	0.726764	-0.324597	-0.382188
C74	C	0.976764	-0.074597	-0.132188
C75	C	1.226764	0.175403	0.117812
C76	C	1.476764	0.425403	0.367812
C77	C	0.690147	-0.282888	-0.424026
C78	C	0.940147	-0.032888	-0.174026
C79	C	1.190147	0.217112	0.075974
C80	C	1.440147	0.467112	0.325974
C81	C	0.616632	-0.285723	-0.421191
C82	C	0.866632	-0.035723	-0.171191
C83	C	1.116632	0.214277	0.078809
C84	C	1.366632	0.464277	0.328809
C85	C	0.579736	-0.330270	-0.376519
C86	C	0.829736	-0.080270	-0.126519
C87	C	1.079736	0.169730	0.123481
C88	C	1.329736	0.419730	0.373481
C89	C	0.616359	-0.371980	-0.334676
C90	C	0.866359	-0.121980	-0.084676
C91	C	1.116359	0.128020	0.165324
C92	C	1.366359	0.378020	0.415324
C93	C	0.689872	-0.369142	-0.337509
C94	C	0.939872	-0.119142	-0.087509
C95	C	1.189872	0.130858	0.162491
C96	C	1.439872	0.380858	0.412491
C97	C	0.359860	-0.343381	-0.363406
C98	C	0.609860	-0.093381	-0.113406
C99	C	0.859860	0.156619	0.136594
C100	C	1.109860	0.406619	0.386594
C101	C	0.286341	-0.346218	-0.360578
C102	C	0.536341	-0.096218	-0.110578
C103	C	0.786341	0.153782	0.139422
C104	C	1.036341	0.403782	0.389422
C105	C	0.286620	-0.259959	-0.447092
C106	C	0.536620	-0.009959	-0.197092
C107	C	0.786620	0.240041	0.052908
C108	C	1.036620	0.490041	0.302908
C109	C	0.360135	-0.257127	-0.449924
C110	C	0.610135	-0.007127	-0.199924
C111	C	0.860135	0.242873	0.050076
C112	C	1.110135	0.492873	0.300076
C113	C	0.396751	-0.298835	-0.408078
C114	C	0.646751	-0.048835	-0.158078
C115	C	0.896751	0.201165	0.091922
C116	C	1.146751	0.451165	0.341922
N117	N	0.504593	-0.333170	-0.373621
N118	N	0.754593	-0.083170	-0.123621
N119	N	1.004593	0.166830	0.126379
N120	N	1.254593	0.416830	0.376379
N121	N	0.471894	-0.295931	-0.410973
N122	N	0.721894	-0.045931	-0.160973
N123	N	0.971894	0.204069	0.089027
N124	N	1.221894	0.454069	0.339027
C125	C	0.979677	-0.497666	-0.399740
C126	C	1.229677	-0.247666	-0.149740
C127	C	1.479677	0.002334	0.100260
C128	C	1.729677	0.252334	0.350260
C129	C	0.976227	-0.575999	-0.402957
C130	C	1.226227	-0.325999	-0.152957
C131	C	1.476227	-0.075999	0.097043
C132	C	1.726227	0.174001	0.347043
C133	C	1.021536	-0.609180	-0.361236
C134	C	1.271536	-0.359180	-0.111236
C135	C	1.521536	-0.109180	0.138764
C136	C	1.771536	0.140820	0.388764
C137	C	1.018296	-0.682783	-0.364266
C138	C	1.268296	-0.432783	-0.114266
C139	C	1.518296	-0.182783	0.135734
C140	C	1.768296	0.067217	0.385734
C141	C	0.969743	-0.723203	-0.409014
C142	C	1.219743	-0.473203	-0.159014
C143	C	1.469743	-0.223203	0.090986
C144	C	1.719743	0.026797	0.340986
C145	C	0.924432	-0.690016	-0.450740
C146	C	1.174432	-0.440016	-0.200740
C147	C	1.424432	-0.190016	0.049260
C148	C	1.674432	0.059984	0.299260
C149	C	0.927676	-0.616415	-0.447713
C150	C	1.177676	-0.366415	-0.197713
C151	C	1.427676	-0.116415	0.052287
C152	C	1.677676	0.133585	0.302287
C153	C	0.957603	-0.945612	-0.420321
C154	C	1.207603	-0.695612	-0.170321
C155	C	1.457603	-0.445612	0.079679
C156	C	1.707603	-0.195612	0.329679
C157	C	0.954361	-1.019218	-0.423343
C158	C	1.204361	-0.769218	-0.173343
C159	C	1.454361	-0.519218	0.076657
C160	C	1.704361	-0.269218	0.326657
C161	C	1.048226	-1.011979	-0.336870
C162	C	1.298226	-0.761979	-0.086870
C163	C	1.548226	-0.511979	0.163130
C164	C	1.798226	-0.261979	0.413130
C165	C	1.051463	-0.938377	-0.333843
C166	C	1.301463	-0.688377	-0.083843
C167	C	1.551463	-0.438377	0.166157
C168	C	1.801463	-0.188377	0.416157
C169	C	1.006155	-0.905197	-0.375572
C170	C	1.256155	-0.655197	-0.125572
C171	C	1.506155	-0.405197	0.124428
C172	C	1.756155	-0.155197	0.374428
C173	C	0.966428	-0.798436	-0.412111
C174	C	1.216428	-0.548436	-0.162111
C175	C	1.466428	-0.298436	0.087889
C176	C	1.716428	-0.048436	0.337889
C177	C	1.009473	-0.829965	-0.372478
C178	C	1.259473	-0.579965	-0.122478
C179	C	1.509473	-0.329965	0.127522
C180	C	1.759473	-0.079965	0.377522
C181	C	1.171486	-0.307511	-0.399388
C182	C	1.421486	-0.057511	-0.149388
C183	C	1.671486	0.192489	0.100612
C184	C	1.921486	0.442489	0.350612
C185	C	1.249724	-0.304509	-0.402417
C186	C	1.499724	-0.054509	-0.152417
C187	C	1.749724	0.195491	0.097583
C188	C	1.999724	0.445491	0.347583
C189	C	0.980219	-0.322180	-0.575870
C190	C	1.230219	-0.072180	-0.325870
C191	C	1.480219	0.177820	-0.075870
C192	C	1.730219	0.427820	0.174130
C193	C	0.976952	-0.325428	-0.654106
C194	C	1.226952	-0.075428	-0.404106
C195	C	1.476952	0.174572	-0.154106
C196	C	1.726952	0.424572	0.095894
C197	C	0.996150	-0.130734	-0.384806
C198	C	1.246150	0.119266	-0.134806
C199	C	1.496150	0.369266	0.115194
C200	C	1.746150	0.619266	0.365194
C201	C	0.999670	-0.052399	-0.381622
C202	C	1.249670	0.197601	-0.131622
C203	C	1.499670	0.447601	0.118378
C204	C	1.749670	0.697601	0.368378
C205	C	1.022455	-0.280158	-0.690773
C206	C	1.272455	-0.030158	-0.440773
C207	C	1.522455	0.219842	-0.190773
C208	C	1.772455	0.469842	0.059227
C209	C	1.019376	-0.283207	-0.764283
C210	C	1.269376	-0.033207	-0.514283
C211	C	1.519376	0.216793	-0.264283
C212	C	1.769376	0.466793	-0.014283
C213	C	0.970797	-0.331531	-0.801125
C214	C	1.220797	-0.081531	-0.551125
C215	C	1.470797	0.168469	-0.301125
C216	C	1.720797	0.418469	-0.051125
C217	C	0.925288	-0.376804	-0.764453
C218	C	1.175288	-0.126804	-0.514453
C219	C	1.425288	0.123196	-0.264453
C220	C	1.675288	0.373196	-0.014453
C221	C	0.928364	-0.373750	-0.690944
C222	C	1.178364	-0.123750	-0.440944
C223	C	1.428364	0.126250	-0.190944
C224	C	1.678364	0.376250	0.059056
C225	C	0.956549	-0.345679	-1.020983
C226	C	1.206549	-0.095679	-0.770983
C227	C	1.456549	0.154321	-0.520983
C228	C	1.706549	0.404321	-0.270983
C229	C	0.953478	-0.348731	-1.094497
C230	C	1.203478	-0.098731	-0.844497
C231	C	1.453478	0.151269	-0.594497
C232	C	1.703478	0.401269	-0.344497
C233	C	1.047566	-0.255133	-1.094322
C234	C	1.297566	-0.005133	-0.844322
C235	C	1.547566	0.244867	-0.594322
C236	C	1.797566	0.494867	-0.344322
C237	C	1.050641	-0.252086	-1.020812
C238	C	1.300641	-0.002086	-0.770812
C239	C	1.550641	0.247914	-0.520812
C240	C	1.800641	0.497914	-0.270812
C241	C	1.005130	-0.297356	-0.984146
C242	C	1.255130	-0.047356	-0.734146
C243	C	1.505130	0.202644	-0.484146
C244	C	1.755130	0.452644	-0.234146
N245	N	0.967650	-0.334651	-0.876264
N246	N	1.217650	-0.084651	-0.626264
N247	N	1.467650	0.165349	-0.376264
N248	N	1.717650	0.415349	-0.126264
N249	N	1.008274	-0.294232	-0.909008
N250	N	1.258274	-0.044232	-0.659008
N251	N	1.508274	0.205768	-0.409008
N252	N	1.758274	0.455768	-0.159008
C253	C	0.995569	-0.306912	-0.209402
C254	C	1.245569	-0.056912	0.040598
C255	C	1.495569	0.193088	0.290598
C256	C	1.745569	0.443088	0.540598
C257	C	0.998982	-0.303460	-0.131164
C258	C	1.248982	-0.053460	0.118836
C259	C	1.498982	0.196540	0.368836
C260	C	1.748982	0.446540	0.618836
H261	H	0.586312	-0.408248	-0.298300
H262	H	0.836312	-0.158248	-0.048300
H263	H	1.086312	0.091752	0.201700
H264	H	1.336312	0.341752	0.451700
H265	H	0.913916	-0.388084	-1.124492
H266	H	1.163916	-0.138084	-0.874492
H267	H	1.413916	0.111916	-0.624492
H268	H	1.663916	0.361916	-0.374492
H269	H	1.056432	-0.246345	-0.794134
H270	H	1.306432	0.003655	-0.544134
H271	H	1.556432	0.253655	-0.294134
H272	H	1.806432	0.503655	-0.044134
H273	H	1.090999	-0.905468	-0.297406
H274	H	1.340999	-0.655468	-0.047406
H275	H	1.590999	-0.405468	0.202594
H276	H	1.840999	-0.155468	0.452594
H277	H	0.586822	-0.251760	-0.455262
H278	H	0.836822	-0.001760	-0.205262
H279	H	1.086822	0.248240	0.044738
H280	H	1.336822	0.498240	0.294738
Br281	Br	0.410203	-0.196675	-0.510559
Br282	Br	0.660203	0.053325	-0.260559
Br283	Br	0.910203	0.303325	-0.010559
Br284	Br	1.160203	0.553325	0.239441
Br285	Br	0.236923	-0.203358	-0.503880
Br286	Br	0.486923	0.046642	-0.253880
Br287	Br	0.736923	0.296642	-0.003880
Br288	Br	0.986923	0.546642	0.246120
H289	H	0.389664	-0.377343	-0.329333
H290	H	0.639664	-0.127343	-0.079333
H291	H	0.889664	0.122657	0.170667
H292	H	1.139664	0.372657	0.420667
H293	H	1.055191	-0.709796	-0.330292
H294	H	1.305191	-0.459796	-0.080292
H295	H	1.555191	-0.209796	0.169708
H296	H	1.805191	0.040204	0.419708
H297	H	1.061070	-0.576275	-0.324794
H298	H	1.311070	-0.326275	-0.074794
H299	H	1.561070	-0.076275	0.175206
H300	H	1.811070	0.173725	0.425206
H301	H	0.719685	-0.403105	-0.303439
H302	H	0.969685	-0.153105	-0.053439
H303	H	1.219685	0.096895	0.196561
H304	H	1.469685	0.346895	0.446561
Br305	Br	0.858544	-0.744871	-0.511477
Br306	Br	1.108544	-0.494871	-0.261477
Br307	Br	1.358544	-0.244871	-0.011477
Br308	Br	1.608544	0.005129	0.238523
H309	H	0.890782	-0.589400	-0.481688
H310	H	1.140782	-0.339400	-0.231688
H311	H	1.390782	-0.089400	0.018312
H312	H	1.640782	0.160600	0.268312
Br313	Br	0.236266	-0.406700	-0.299970
Br314	Br	0.486266	-0.156700	-0.049970
Br315	Br	0.736266	0.093300	0.200030
Br316	Br	0.986266	0.343300	0.450030
Br317	Br	1.109716	-1.057013	-0.280245
Br318	Br	1.359716	-0.807013	-0.030245
Br319	Br	1.609716	-0.557013	0.219755
Br320	Br	1.859716	-0.307013	0.469755
H321	H	0.885731	-0.416148	-0.794456
H322	H	1.135731	-0.166148	-0.544456
H323	H	1.385731	0.083852	-0.294456
H324	H	1.635731	0.333852	-0.044456
Br325	Br	0.888452	-1.074073	-0.484064
Br326	Br	1.138452	-0.824073	-0.234064
Br327	Br	1.388452	-0.574073	0.015936
Br328	Br	1.638452	-0.324073	0.265936
Br329	Br	0.896113	-0.900591	-0.476953
Br330	Br	1.146113	-0.650591	-0.226953
Br331	Br	1.396113	-0.400591	0.023047
Br332	Br	1.646113	-0.150591	0.273047
Br333	Br	1.088394	-0.214577	-0.640780
Br334	Br	1.338394	0.035423	-0.390780
Br335	Br	1.588394	0.285423	-0.140780
Br336	Br	1.838394	0.535423	0.109220
Br337	Br	0.866602	-0.435187	-0.641180
Br338	Br	1.116602	-0.185187	-0.391180
Br339	Br	1.366602	0.064813	-0.141180
Br340	Br	1.616602	0.314813	0.108820
H341	H	0.919501	-0.382551	-0.991139
H342	H	1.169501	-0.132551	-0.741139
H343	H	1.419501	0.117449	-0.491139
H344	H	1.669501	0.367449	-0.241139
Br345	Br	1.075369	-0.775109	-0.311755
Br346	Br	1.325369	-0.525109	-0.061755
Br347	Br	1.575369	-0.275109	0.188245
Br348	Br	1.825369	-0.025109	0.438245
Br349	Br	0.740212	-0.222433	-0.484660
Br350	Br	0.990212	0.027567	-0.234660
Br351	Br	1.240212	0.277567	0.015340
Br352	Br	1.490212	0.527567	0.265340
Br353	Br	1.116576	-0.186503	-0.970817
Br354	Br	1.366576	0.063497	-0.720817
Br355	Br	1.616576	0.313497	-0.470817
Br356	Br	1.866576	0.563497	-0.220817
H357	H	0.926895	-0.831354	-0.448544
H358	H	1.176895	-0.581354	-0.198544
H359	H	1.426895	-0.331354	0.051456
H360	H	1.676895	-0.081354	0.301456
H361	H	1.084618	-0.218276	-1.124183
H362	H	1.334618	0.031724	-0.874183
H363	H	1.584618	0.281724	-0.624183
H364	H	1.834618	0.531724	-0.374183
