data_functionalizedCrystal
_audit_creation_method	'MofGen! by Chris Wilmer'
_symmetry_space_group_name_H-M	'P1'
_symmetry_Int_Tables_number	1
_symmetry_cell_setting	triclinic
loop_
_symmetry_equiv_pos_as_xyz
  x,y,z
_cell_length_a	12.827893
_cell_length_b	19.121063
_cell_length_c	12.827885
_cell_angle_alpha	92.403785
_cell_angle_beta	89.980538
_cell_angle_gamma	92.468878
loop_
_atom_site_label
_atom_site_type_symbol
_atom_site_fract_x
_atom_site_fract_y
_atom_site_fract_z
Zn1	Zn	1.579838	-0.279578	-0.608539
Zn2	Zn	2.079838	0.220422	-0.108539
Zn3	Zn	1.572238	-0.397045	-0.441232
Zn4	Zn	2.072238	0.102955	0.058768
Zn5	Zn	1.405076	-0.279613	-0.433815
Zn6	Zn	1.905076	0.220387	0.066185
Zn7	Zn	1.397574	-0.396992	-0.615928
Zn8	Zn	1.897574	0.103008	-0.115928
O9	O	1.488682	-0.338307	-0.524878
O10	O	1.988682	0.161693	-0.024878
O11	O	1.725065	-0.295168	-0.586357
O12	O	2.225065	0.204832	-0.086357
O13	O	1.550023	-0.381504	-0.294014
O14	O	2.050023	0.118496	0.205986
O15	O	1.434579	-0.181324	-0.450795
O16	O	1.934579	0.318676	0.049205
O17	O	1.719482	-0.381470	-0.463437
O18	O	2.219482	0.118530	0.036563
O19	O	1.562975	-0.181298	-0.579165
O20	O	2.062975	0.318702	-0.079165
O21	O	1.427210	-0.295227	-0.288565
O22	O	1.927210	0.204773	0.211435
O23	O	1.257845	-0.295176	-0.457961
O24	O	1.757845	0.204824	0.042039
O25	O	1.421793	-0.381381	-0.761182
O26	O	1.921793	0.118619	-0.261182
O27	O	1.252334	-0.381414	-0.591759
O28	O	1.752334	0.118586	-0.091759
O29	O	1.555701	-0.295117	-0.755753
O30	O	2.055701	0.204883	-0.255753
O31	O	1.542749	-0.495322	-0.470602
O32	O	2.042749	0.004678	0.029398
O33	O	1.414424	-0.495284	-0.598951
O34	O	1.914424	0.004716	-0.098951
C35	C	1.217172	-0.338293	-0.524858
C36	C	1.717172	0.161707	-0.024858
C37	C	1.101019	-0.338305	-0.524875
C38	C	1.601019	0.161695	-0.024875
C39	C	1.046530	-0.381045	-0.590989
C40	C	1.546530	0.118955	-0.090989
C41	C	0.926479	-0.381057	-0.591008
C42	C	1.426479	0.118943	-0.091008
C43	C	1.476976	-0.520787	-0.536406
C44	C	1.976976	-0.020787	-0.036406
C45	C	1.472064	-0.598853	-0.541373
C46	C	1.972064	-0.098853	-0.041373
C47	C	1.536620	-0.635525	-0.476937
C48	C	2.036620	-0.135525	0.023063
C49	C	1.532006	-0.708876	-0.481614
C50	C	2.032006	-0.208876	0.018386
C51	C	1.462831	-0.745553	-0.550723
C52	C	1.962831	-0.245553	-0.050723
C53	C	1.398272	-0.708876	-0.615166
C54	C	1.898272	-0.208876	-0.115166
C55	C	1.402892	-0.635526	-0.610493
C56	C	1.902892	-0.135526	-0.110493
C57	C	1.445542	-0.967022	-0.568177
C58	C	1.945542	-0.467022	-0.068177
C59	C	1.440925	-1.040377	-0.572842
C60	C	1.940925	-0.540377	-0.072842
C61	C	1.574661	-1.040372	-0.439292
C62	C	2.074661	-0.540372	0.060708
C63	C	1.579270	-0.967021	-0.434621
C64	C	2.079270	-0.467021	0.065379
C65	C	1.514716	-0.930350	-0.499067
C66	C	2.014716	-0.430350	0.000933
C67	C	1.458111	-0.820530	-0.555503
C68	C	1.958111	-0.320530	-0.055503
C69	C	1.519441	-0.855374	-0.494292
C70	C	2.019441	-0.355374	0.005708
C71	C	1.761251	-0.338321	-0.524900
C72	C	2.261251	0.161679	-0.024900
C73	C	1.877403	-0.338327	-0.524909
C74	C	2.377403	0.161673	-0.024909
C75	C	1.488758	-0.338239	-0.797444
C76	C	1.988758	0.161761	-0.297444
C77	C	1.488790	-0.338210	-0.913596
C78	C	1.988790	0.161790	-0.413596
C79	C	1.500461	-0.155115	-0.513328
C80	C	2.000461	0.344885	-0.013328
C81	C	1.505481	-0.077049	-0.508406
C82	C	2.005481	0.422951	-0.008406
C83	C	1.422550	-0.380879	-0.968066
C84	C	1.922550	0.119121	-0.468066
C85	C	1.422582	-0.380850	-1.088115
C86	C	1.922582	0.119150	-0.588115
C87	C	1.488669	-0.338324	-0.253370
C88	C	1.988669	0.161676	0.246630
C89	C	1.488851	-0.338155	-0.137206
C90	C	1.988851	0.161845	0.362794
H91	H	1.088758	-0.417624	-0.647580
H92	H	1.588758	0.082376	-0.147580
H93	H	1.365819	-0.417433	-0.925825
H94	H	1.865819	0.082567	-0.425825
H95	H	1.575768	-0.825510	-0.438028
H96	H	2.075768	-0.325510	0.061972
H97	H	1.341952	-0.738744	-0.671440
H98	H	1.841952	-0.238744	-0.171440
H99	H	1.592945	-0.605667	-0.420657
H100	H	2.092945	-0.105667	0.079343
H101	H	1.058791	-0.301720	-0.468290
H102	H	1.558791	0.198280	0.031710
O103	O	0.933118	-0.294648	-0.457274
O104	O	1.433118	0.205352	0.042726
C105	C	0.864171	-0.254908	-0.395838
C106	C	1.364171	0.245092	0.104162
H107	H	0.784499	-0.283632	-0.393910
H108	H	1.284499	0.216368	0.106090
H109	H	0.896228	-0.247369	-0.313067
H110	H	1.396228	0.252631	0.186933
H111	H	0.856034	-0.201590	-0.430858
H112	H	1.356034	0.298410	0.069142
H113	H	1.401786	-0.850401	-0.611769
H114	H	1.901786	-0.350401	-0.111769
H115	H	1.350325	-0.605668	-0.662965
H116	H	1.850325	-0.105668	-0.162965
O117	O	1.355069	-0.424510	-1.144026
O118	O	1.855069	0.075490	-0.644026
C119	C	1.411727	-0.469809	-1.210042
C120	C	1.911727	0.030191	-0.710042
H121	H	1.493714	-0.474176	-1.177367
H122	H	1.993714	0.025824	-0.677367
H123	H	1.370462	-0.523859	-1.214787
H124	H	1.870462	-0.023859	-0.714787
H125	H	1.416819	-0.448025	-1.291349
H126	H	1.916819	0.051975	-0.791349
O127	O	1.556367	-0.294531	-1.081237
O128	O	2.056367	0.205469	-0.581237
C129	C	1.499705	-0.249206	-1.015266
C130	C	1.999705	0.250794	-0.515266
H131	H	1.418902	-0.273990	-1.000573
H132	H	1.918902	0.226010	-0.500573
H133	H	1.542782	-0.239854	-0.937885
H134	H	2.042782	0.260146	-0.437885
H135	H	1.491615	-0.197125	-1.053991
H136	H	1.991615	0.302875	-0.553991
H137	H	1.584574	-0.738731	-0.429143
H138	H	2.084574	-0.238731	0.070857
O139	O	1.556578	-0.294579	-0.963816
O140	O	2.056578	0.205421	-0.463816
C141	C	1.618142	-0.254897	-0.889861
C142	C	2.118142	0.245103	-0.389861
H143	H	1.619964	-0.283636	-0.813840
H144	H	2.119964	0.216364	-0.313840
H145	H	1.700938	-0.247419	-0.921014
H146	H	2.200938	0.252581	-0.421014
H147	H	1.583310	-0.201550	-0.874927
H148	H	2.083310	0.298450	-0.374927
H149	H	1.635598	-0.937159	-0.378347
H150	H	2.135598	-0.437159	0.121653
O151	O	0.870441	-0.424647	-0.658500
O152	O	1.370441	0.075353	-0.158500
C153	C	0.763051	-0.414964	-0.643482
C154	C	1.263051	0.085036	-0.143482
H155	H	0.751701	-0.360728	-0.605950
H156	H	1.251701	0.139272	-0.105950
H157	H	0.721227	-0.419769	-0.722018
H158	H	1.221227	0.080231	-0.222018
H159	H	0.729389	-0.456565	-0.590336
H160	H	1.229389	0.043435	-0.090336
O161	O	1.637338	-1.076103	-0.376811
O162	O	2.137338	-0.576103	0.123189
C163	C	1.618417	-1.148708	-0.395735
C164	C	2.118417	-0.648708	0.104265
H165	H	1.583507	-1.158701	-0.476983
H166	H	2.083507	-0.658701	0.023017
H167	H	1.694949	-1.176541	-0.390504
H168	H	2.194949	-0.676541	0.109496
H169	H	1.561499	-1.169592	-0.335023
H170	H	2.061499	-0.669592	0.164977
H171	H	1.392977	-0.937170	-0.620650
H172	H	1.892977	-0.437170	-0.120650
O173	O	1.373705	-1.075898	-0.640077
O174	O	1.873705	-0.575898	-0.140077
C175	C	1.317701	-1.027803	-0.695943
C176	C	1.817701	-0.527803	-0.195943
H177	H	1.363794	-0.975490	-0.696266
H178	H	1.863794	-0.475490	-0.196266
H179	H	1.305189	-1.048962	-0.779615
H180	H	1.805189	-0.548962	-0.279615
H181	H	1.238837	-1.020067	-0.657123
H182	H	1.738837	-0.520067	-0.157123
