data_functionalizedCrystal
_audit_creation_method	'MofGen! by Chris Wilmer'
_symmetry_space_group_name_H-M	'P1'
_symmetry_Int_Tables_number	1
_symmetry_cell_setting	triclinic
loop_
_symmetry_equiv_pos_as_xyz
  x,y,z
_cell_length_a	17.052862
_cell_length_b	14.560438
_cell_length_c	14.560438
_cell_angle_alpha	60.003556
_cell_angle_beta	89.999330
_cell_angle_gamma	50.258237
loop_
_atom_site_label
_atom_site_type_symbol
_atom_site_fract_x
_atom_site_fract_y
_atom_site_fract_z
Zr1	Zr	0.914408	0.682213	0.041054
O2	O	0.762855	0.927343	-0.132340
O3	O	0.960864	0.474211	0.094196
O4	O	0.960868	0.665804	-0.097390
O5	O	0.762850	0.735748	0.210386
O6	O	1.117068	0.610626	-0.069805
O7	O	0.762850	0.735750	0.059245
O8	O	1.117060	0.267901	0.272906
O9	O	0.762858	1.078473	-0.132325
O10	O	1.097251	0.504836	0.137462
O11	O	0.980681	0.546012	0.229671
O12	O	0.980686	0.771589	0.004104
O13	O	0.864115	0.812765	0.096312
Zr14	Zr	1.163529	0.594207	0.326101
Zr15	Zr	1.163529	0.594211	0.085049
Zr16	Zr	0.914408	0.682209	0.282106
Zr17	Zr	0.914413	0.923247	0.041078
Zr18	Zr	1.163523	0.353173	0.326077
O19	O	1.117073	0.802210	0.272960
O20	O	1.117073	0.802216	-0.069786
O21	O	0.762855	0.927337	0.210405
O22	O	1.315082	0.349077	0.499496
O23	O	1.315082	0.349083	0.156750
O24	O	0.960864	0.474205	0.436941
O25	O	1.315086	0.540673	0.156769
O26	O	1.117069	0.610617	0.464545
O27	O	0.960869	0.665794	0.436960
O28	O	1.315086	0.540670	0.307910
O29	O	0.960876	1.008523	-0.097355
O30	O	1.117061	0.267898	0.464511
O31	O	1.315079	0.197948	0.499480
O32	O	1.315078	0.197951	0.307876
O33	O	0.762858	1.078469	0.059279
O34	O	0.960876	1.008519	0.094249
O35	O	1.097251	0.504832	0.363052
O36	O	1.213821	0.463655	0.270843
O37	O	1.097256	0.730408	0.137485
O38	O	0.980686	0.771585	0.229693
C39	C	1.038961	0.336714	0.183547
C40	C	1.038959	0.234388	0.183537
C41	C	0.952923	0.203751	0.085141
C42	C	0.952911	0.299932	0.085102
C43	C	1.125018	0.072654	0.282023
C44	C	1.125025	-0.023522	0.282065
C45	C	0.853561	0.334968	-0.028553
C46	C	0.853549	0.431149	-0.028592
C47	C	0.727356	0.748287	0.128547
C48	C	0.621597	0.785646	0.109870
C49	C	0.566871	0.333974	0.335672
C50	C	0.666238	0.298868	0.353215
C51	C	0.655084	0.420559	0.292381
C52	C	0.544551	0.577363	0.213999
C53	C	0.445173	0.612472	0.196447
C54	C	0.533386	0.699058	0.153156
C55	C	0.422853	0.855861	0.074774
C56	C	0.323487	0.890964	0.057226
C57	C	0.334641	0.769273	0.118060
C58	C	0.632763	0.663948	0.170708
C59	C	0.511066	0.942447	0.031483
C60	C	0.411698	0.977553	0.013940
C61	C	1.350581	0.528133	0.238608
C62	C	1.456339	0.490774	0.257285
C63	C	1.038968	0.638215	-0.117942
C64	C	1.038968	0.638217	-0.220275
C65	C	1.038975	0.939707	0.183608
C66	C	1.038978	1.042032	0.183618
C67	C	0.978117	0.777459	-0.337964
C68	C	0.978121	0.777451	-0.434112
C69	C	1.099827	0.498950	-0.294868
C70	C	1.099829	0.498956	-0.198722
C71	C	0.907847	0.938251	-0.418357
C72	C	0.907851	0.938244	-0.514505
C73	C	1.038969	0.638205	0.485097
C74	C	1.038969	0.638203	0.587430
C75	C	1.350574	0.226637	0.238578
C76	C	1.456330	0.086952	0.257245
C77	C	1.038962	0.336708	0.485067
C78	C	1.038959	0.234381	0.587390
C79	C	1.350574	0.226631	0.540098
C80	C	1.456330	0.086945	0.661097
C81	C	0.727363	1.049789	-0.172942
C82	C	0.621607	1.189475	-0.293942
C83	C	0.727363	1.049784	0.128577
C84	C	0.621607	1.189468	0.109910
C85	C	1.038975	0.939712	-0.117912
C86	C	1.038977	1.042039	-0.220235
C87	C	1.445145	0.042851	0.196377
C88	C	1.544505	-0.088381	0.213892
C89	C	1.655048	-0.175515	0.292282
C90	C	1.666230	-0.131404	0.353151
C91	C	1.566871	-0.000168	0.335629
C92	C	1.566853	-0.000150	0.669790
C93	C	1.666232	-0.131390	0.783475
C94	C	1.655085	-0.175538	0.888465
C95	C	1.544550	-0.088429	0.879768
C96	C	1.445174	0.042814	0.766085
C97	C	0.511083	1.276582	-0.302635
C98	C	0.411705	1.407852	-0.416319
C99	C	0.422852	1.452006	-0.521310
C100	C	0.533387	1.364890	-0.512613
C101	C	0.632763	1.233630	-0.398930
C102	C	0.632791	1.233580	0.170768
C103	C	0.533432	1.364838	0.153226
C104	C	0.422889	1.451976	0.074833
C105	C	0.411707	1.407859	0.013969
C106	C	0.511065	1.276610	0.031504
C107	C	1.099809	0.164807	0.705085
C108	C	1.099797	0.068668	0.801223
C109	C	0.978085	0.111684	0.661956
C110	C	0.978091	0.207830	0.565819
C111	C	1.170082	0.139966	0.785491
C112	C	1.170070	0.043827	0.881629
H113	H	1.195090	-0.155198	0.362261
H114	H	1.756247	-0.202367	0.416976
H115	H	1.123715	0.096331	0.924369
Cl116	Cl	0.272762	1.517338	-0.427224
H117	H	0.542559	1.400733	0.202797
Cl118	Cl	0.497033	1.095439	-0.045011
H119	H	0.946930	0.976658	-0.411472
H120	H	0.501943	1.240703	-0.018053
H121	H	0.722753	1.162707	-0.391865
Cl122	Cl	0.805184	0.101752	0.451748
H123	H	0.321690	1.105223	-0.049880
Cl124	Cl	0.497039	1.221105	-0.170664
Cl125	Cl	0.866776	0.523723	-0.153043
H126	H	0.341995	1.558844	0.060565
H127	H	1.195073	0.019297	0.362176
Cl128	Cl	1.530420	-0.143812	0.137367
Cl129	Cl	1.176323	0.323905	-0.050770
Cl130	Cl	0.880371	0.325453	-0.141860
Cl131	Cl	1.580952	0.055247	0.412169
Cl132	Cl	0.731528	0.566386	-0.024210
Cl133	Cl	0.272730	1.517416	-0.084574
Cl134	Cl	1.306189	0.152372	0.097817
H135	H	1.735942	-0.282374	0.306540
H136	H	1.149378	0.385569	-0.277334
Cl137	Cl	1.580897	0.055328	0.537819
Cl138	Cl	0.722540	0.397955	-0.038882
H139	H	0.928528	0.264493	0.469986
H140	H	1.756225	-0.202303	0.790535
H141	H	0.722792	1.162640	0.234609
Cl142	Cl	0.768975	1.052340	-0.429337
Cl143	Cl	1.306234	0.152285	0.755177
Cl144	Cl	1.308975	0.035127	0.796530
Cl145	Cl	0.184532	1.088089	-0.041320
H146	H	0.341924	1.558889	-0.613870
Cl147	Cl	0.771706	0.466830	0.269243
H148	H	1.736013	-0.282409	0.981025
Cl149	Cl	0.547380	1.420413	-0.644613
H150	H	0.814809	1.023309	-0.583126
Cl151	Cl	0.901569	0.078297	0.634850
H152	H	1.131002	0.243778	0.778616
H153	H	0.735997	0.391966	0.306670
Cl154	Cl	1.530556	-0.143953	1.011768
H155	H	0.954213	0.964056	-0.557236
Cl156	Cl	0.580882	0.181011	0.412130
H157	H	1.263110	-0.079059	0.950250
H158	H	0.253733	0.797847	0.103786
