data_functionalizedCrystal
_audit_creation_method	'MofGen! by Chris Wilmer'
_symmetry_space_group_name_H-M	'P1'
_symmetry_Int_Tables_number	1
_symmetry_cell_setting	triclinic
loop_
_symmetry_equiv_pos_as_xyz
  x,y,z
_cell_length_a	21.295418
_cell_length_b	21.295418
_cell_length_c	19.805399
_cell_angle_alpha	89.958059
_cell_angle_beta	90.029155
_cell_angle_gamma	89.954392
loop_
_atom_site_label
_atom_site_type_symbol
_atom_site_fract_x
_atom_site_fract_y
_atom_site_fract_z
Zn1	Zn	-0.250318	-0.962333	0.383116
Zn2	Zn	-0.355587	-0.962252	0.269925
Zn3	Zn	-0.250369	-0.857067	0.269897
Zn4	Zn	-0.355587	-0.857031	0.383028
O5	O	-0.302965	-0.909671	0.326491
O6	O	-0.264261	-1.050411	0.368150
O7	O	-0.341650	-0.948280	0.175205
O8	O	-0.162272	-0.871079	0.284941
O9	O	-0.341601	-1.050352	0.284989
O10	O	-0.162235	-0.948418	0.368123
O11	O	-0.264347	-0.871001	0.175184
O12	O	-0.264347	-0.768973	0.284855
O13	O	-0.341601	-0.871018	0.477756
O14	O	-0.341650	-0.768946	0.367971
O15	O	-0.264261	-0.948383	0.477821
O16	O	-0.443676	-0.948245	0.284903
O17	O	-0.443676	-0.870940	0.367999
C18	C	-0.303005	-0.746119	0.326401
C19	C	-0.303037	-0.676151	0.326378
C20	C	-0.466517	-0.909597	0.326459
C21	C	-0.536485	-0.909623	0.326468
C22	C	-1.035921	-0.950074	0.283333
C23	C	-0.970179	-0.950050	0.283317
C24	C	-0.937324	-0.909759	0.326539
C25	C	-0.970217	-0.869477	0.369768
C26	C	-1.035958	-0.869498	0.369778
N27	N	-0.834074	-0.904864	0.385764
N28	N	-0.771622	-0.904849	0.385752
C29	C	-0.739249	-0.909694	0.326510
N30	N	-0.771687	-0.914567	0.267279
N31	N	-0.834144	-0.914587	0.267291
C32	C	-0.866039	-0.909732	0.326533
C33	C	-0.635079	-0.949944	0.283263
C34	C	-0.569335	-0.949915	0.283246
C35	C	-0.569374	-0.869346	0.369704
C36	C	-0.635117	-0.869371	0.369715
C37	C	-0.667965	-0.909673	0.326495
C38	C	-0.343344	-0.643287	0.369590
C39	C	-0.343331	-0.577544	0.369615
C40	C	-0.303018	-0.544668	0.326417
C41	C	-0.262704	-0.577540	0.283202
C42	C	-0.262713	-0.643281	0.283183
N43	N	-0.298104	-0.441398	0.267209
N44	N	-0.298099	-0.378946	0.267229
C45	C	-0.302986	-0.346594	0.326473
N46	N	-0.307891	-0.379052	0.385698
N47	N	-0.307900	-0.441509	0.385677
C48	C	-0.303003	-0.473383	0.326433
C49	C	-0.343281	-0.242444	0.369716
C50	C	-0.343264	-0.176700	0.369742
C51	C	-0.262640	-0.176697	0.283323
C52	C	-0.262654	-0.242440	0.283303
C53	C	-0.302978	-0.275309	0.326498
C54	C	-0.138775	-0.909762	0.326539
C55	C	-0.068806	-0.909800	0.326559
C56	C	-0.302925	-0.909706	0.503034
C57	C	-0.302908	-0.909721	0.578266
C58	C	-0.302936	-0.073861	0.326563
C59	C	-0.302950	-0.143829	0.326544
C60	C	-0.302959	-0.909672	0.150635
C61	C	-0.302798	-0.909779	0.075404
C62	C	-0.262635	-0.950006	0.613645
C63	C	-0.262617	-0.950012	0.684334
C64	C	-0.302875	-0.909737	0.719642
C65	C	-0.343150	-0.869447	0.684258
C66	C	-0.343165	-0.869438	0.613571
C67	C	-0.343092	-0.869483	0.969331
C68	C	-0.343075	-0.869497	1.040023
C69	C	-0.262544	-0.950057	1.040095
C70	C	-0.262558	-0.950048	0.969407
C71	C	-0.302830	-0.909756	0.934029
C72	C	-0.302849	-0.909749	0.857381
C73	C	-0.302861	-0.909747	0.796289
H74	H	-1.062663	-0.982890	0.248138
C75	C	-0.387699	-0.679439	0.417108
N76	N	-0.421107	-0.706671	0.452900
H77	H	-0.229835	-0.269198	0.248112
C78	C	-0.387429	-0.825138	0.723099
N79	N	-0.420781	-0.791762	0.752354
C80	C	-0.218235	-0.994371	1.079017
N81	N	-0.184862	-1.027747	1.108332
C82	C	-0.387675	-0.541387	0.417151
N83	N	-0.421076	-0.514155	0.452954
C84	C	-0.218314	-0.994330	0.723248
N85	N	-0.184943	-1.027712	0.752557
C86	C	-0.387612	-0.140550	0.417275
N87	N	-0.421019	-0.113322	0.453075
C88	C	-0.387361	-0.825184	1.078861
N89	N	-0.420714	-0.791809	1.108113
C90	C	-0.933998	-0.994363	0.235769
N91	N	-0.906749	-1.027742	0.199959
C92	C	-0.934075	-0.825158	0.417314
N93	N	-0.906853	-0.791774	0.453126
C94	C	-0.218295	-0.140537	0.235805
N95	N	-0.184893	-0.113299	0.200013
C96	C	-1.072133	-0.825194	0.417335
N97	N	-1.099380	-0.791825	0.453158
C98	C	-0.671214	-0.994271	0.235715
N99	N	-0.698430	-1.027657	0.199900
H100	H	-0.375953	-0.836628	0.584766
H101	H	-0.542624	-0.836537	0.404893
H102	H	-0.542560	-0.982709	0.248042
H103	H	-0.229854	-0.982805	0.584903
H104	H	-0.661892	-0.836577	0.404916
H105	H	-0.229880	-0.550768	0.248031
H106	H	-0.229889	-0.670039	0.247994
C107	C	-0.218268	-0.994351	0.930573
N108	N	-0.184905	-1.027719	0.901323
H109	H	-0.376112	-0.269208	0.404892
C110	C	-0.387391	-0.825159	0.930425
N111	N	-0.420758	-0.791772	0.901118
