data_functionalizedCrystal
_audit_creation_method	'MofGen! by Chris Wilmer'
_symmetry_space_group_name_H-M	'P1'
_symmetry_Int_Tables_number	1
_symmetry_cell_setting	triclinic
loop_
_symmetry_equiv_pos_as_xyz
  x,y,z
_cell_length_a	15.944545
_cell_length_b	10.654550
_cell_length_c	9.730223
_cell_angle_alpha	90.000193
_cell_angle_beta	89.997420
_cell_angle_gamma	83.990538
loop_
_atom_site_label
_atom_site_type_symbol
_atom_site_fract_x
_atom_site_fract_y
_atom_site_fract_z
O1	O	-1.115460	-0.161923	-0.114197
O2	O	-0.871025	-0.181900	-0.114219
O3	O	-0.998862	0.010900	-0.114203
O4	O	-0.987622	-0.354724	-0.114214
O5	O	-0.998861	0.010896	0.114377
O6	O	-0.871024	-0.181905	0.114361
O7	O	-1.115458	-0.161928	0.114383
Zn8	Zn	-0.993241	-0.171917	0.150664
Zn9	Zn	-0.993243	-0.171911	-0.150500
O10	O	-0.987621	-0.354729	0.114366
C11	C	-0.998036	0.057685	0.000086
C12	C	-0.995567	0.197096	0.000081
C13	C	-0.839725	-0.181075	0.000068
C14	C	-0.746465	-0.178593	0.000060
C15	C	-1.146758	-0.162754	0.000092
C16	C	-1.240019	-0.165236	0.000092
C17	C	-0.475097	-0.051669	0.000078
C18	C	-0.526033	-0.112864	0.112781
C19	C	-0.410770	-0.169741	0.000083
C20	C	-0.526015	-0.112891	-0.112581
C21	C	-0.575708	-0.174083	0.000069
C22	C	-0.460476	-0.230904	0.112880
C23	C	-0.460455	-0.230914	-0.112583
C24	C	-0.511358	-0.292195	0.000148
C25	C	-0.315753	-0.167236	0.000093
C26	C	-0.670722	-0.176598	0.000070
C27	C	-0.988447	-0.401514	0.000075
C28	C	-0.990916	-0.540925	0.000071
N29	N	-0.993246	-0.171921	0.356200
C30	C	-1.070836	0.277559	0.000091
C31	C	-1.068511	0.408549	0.000082
C32	C	-0.915642	0.378603	0.000056
C33	C	-0.917968	0.247615	0.000056
C34	C	-1.148435	0.227040	0.000116
C35	C	-1.223710	0.307504	0.000129
C36	C	-1.221385	0.438495	0.000119
C37	C	-1.143785	0.489022	0.000097
N38	N	-0.993244	-0.171897	-0.356037
C39	C	-1.049867	-0.086578	0.428133
C40	C	-1.049864	-0.086562	0.572016
C41	C	-0.936617	-0.257245	0.572020
C42	C	-0.936616	-0.257253	0.428140
C43	C	-1.106496	-0.001245	0.356194
C44	C	-1.163122	0.084104	0.428127
C45	C	-1.163120	0.084119	0.572010
C46	C	-1.106492	-0.001215	0.643960
H47	H	-0.554674	-0.063001	0.208066
H48	H	-1.141898	0.595684	0.000074
H49	H	-0.431955	-0.280733	0.208264
H50	H	-1.286889	0.266355	0.000112
C51	C	-0.652158	-0.049572	-0.240475
C52	C	-0.564662	-0.045553	-0.241204
H53	H	-0.676014	-0.007987	-0.319873
H54	H	-0.664320	-0.134957	-0.240628
H55	H	-0.675480	-0.008477	-0.160436
H56	H	-0.541339	-0.086657	-0.321238
H57	H	-0.552494	0.039847	-0.241064
H58	H	-1.106505	-0.001252	0.239037
H59	H	-1.150337	0.120383	0.000128
H60	H	-1.209223	0.153588	0.369539
C61	C	-0.822474	-0.284377	0.733837
C62	C	-0.874381	-0.351046	0.651109
H63	H	-0.784057	-0.342291	0.782667
H64	H	-0.791957	-0.232091	0.677703
H65	H	-0.856207	-0.233549	0.797261
H66	H	-0.840649	-0.401867	0.587677
H67	H	-0.904900	-0.403353	0.707248
H68	H	-0.852463	0.419753	0.000040
C69	C	-0.406607	0.107287	-0.117873
C70	C	-0.453172	0.085600	0.000212
H71	H	-0.393079	0.192033	-0.117790
H72	H	-0.356108	0.051438	-0.118741
H73	H	-0.439064	0.093117	-0.197174
H74	H	-0.420712	0.099761	0.079514
H75	H	-0.503679	0.141467	0.001093
H76	H	-0.856677	0.182100	0.000049
H77	H	-1.209222	0.153622	0.630577
C78	C	-1.372721	0.454931	0.000155
C79	C	-1.304124	0.526941	0.000130
H80	H	-1.423802	0.509536	0.000176
H81	H	-1.370454	0.403220	-0.079550
H82	H	-1.370437	0.403216	0.079873
H83	H	-1.306405	0.578650	-0.079593
H84	H	-1.306392	0.578674	0.079844
H85	H	-1.106489	-0.001187	0.761119
C86	C	-0.888554	-0.474617	0.383827
C87	C	-0.874383	-0.351067	0.349053
H88	H	-0.850135	-0.532530	0.334993
H89	H	-0.880444	-0.486824	0.479799
H90	H	-0.944693	-0.488293	0.360249
H91	H	-0.818246	-0.337388	0.372641
H92	H	-0.882486	-0.338855	0.253060
C93	C	-0.499680	-0.491086	0.118326
C94	C	-0.533077	-0.429566	0.000227
H95	H	-0.513096	-0.575888	0.118381
H96	H	-0.440173	-0.490252	0.119072
H97	H	-0.523135	-0.448847	0.197619
H98	H	-0.509617	-0.471799	-0.079066
H99	H	-0.592597	-0.430406	-0.000531
H100	H	-0.431798	-0.280733	-0.207872
