data_functionalizedCrystal
_audit_creation_method	'MofGen! by Chris Wilmer'
_symmetry_space_group_name_H-M	'P1'
_symmetry_Int_Tables_number	1
_symmetry_cell_setting	triclinic
loop_
_symmetry_equiv_pos_as_xyz
  x,y,z
_cell_length_a	16.959455
_cell_length_b	18.050583
_cell_length_c	16.959454
_cell_angle_alpha	90.032002
_cell_angle_beta	89.982978
_cell_angle_gamma	89.985116
loop_
_atom_site_label
_atom_site_type_symbol
_atom_site_fract_x
_atom_site_fract_y
_atom_site_fract_z
Zn1	Zn	1.208388	-0.419912	0.314689
Zn2	Zn	1.708388	0.080088	0.814689
Zn3	Zn	1.208309	-0.295731	0.446894
Zn4	Zn	1.708309	0.204269	0.946894
Zn5	Zn	1.076215	-0.295739	0.314726
Zn6	Zn	1.576215	0.204261	0.814726
Zn7	Zn	1.076181	-0.419882	0.446823
Zn8	Zn	1.576181	0.080118	0.946823
O9	O	1.142274	-0.357816	0.380783
O10	O	1.642274	0.142184	0.880783
O11	O	1.318989	-0.403449	0.332241
O12	O	1.818989	0.096551	0.832241
O13	O	1.190768	-0.191808	0.429407
O14	O	1.690768	0.308192	0.929407
O15	O	1.093796	-0.312226	0.204110
O16	O	1.593796	0.187774	0.704110
O17	O	1.318931	-0.312214	0.429371
O18	O	1.818931	0.187786	0.929371
O19	O	1.190902	-0.403456	0.204083
O20	O	1.690902	0.096544	0.704083
O21	O	1.093719	-0.191813	0.332304
O22	O	1.593719	0.308187	0.832304
O23	O	0.965600	-0.312197	0.332235
O24	O	1.465600	0.187803	0.832235
O25	O	1.093738	-0.523811	0.429250
O26	O	1.593738	-0.023811	0.929250
O27	O	0.965575	-0.403405	0.429285
O28	O	1.465575	0.096595	0.929285
O29	O	1.190869	-0.523833	0.332172
O30	O	1.690869	-0.023833	0.832172
O31	O	1.190735	-0.312185	0.557495
O32	O	1.690735	0.187815	1.057495
O33	O	1.093661	-0.403398	0.557443
O34	O	1.593661	0.096602	1.057443
C35	C	0.936907	-0.357799	0.380757
C36	C	1.436907	0.142201	0.880757
C37	C	0.849051	-0.357809	0.380765
C38	C	1.349051	0.142191	0.880765
C39	C	1.142308	-0.551522	0.380699
C40	C	1.642308	-0.051522	0.880699
C41	C	1.142323	-0.634068	0.380663
C42	C	1.642323	-0.134068	0.880663
C43	C	0.477564	-0.310423	0.330207
C44	C	0.977564	0.189577	0.830207
C45	C	0.477586	-0.405251	0.431424
C46	C	0.977586	0.094749	0.931424
C47	C	0.560132	-0.405247	0.431412
C48	C	1.060132	0.094753	0.931412
C49	C	0.601398	-0.357829	0.380799
C50	C	1.101398	0.142171	0.880799
C51	C	0.560117	-0.310416	0.330196
C52	C	1.060117	0.189584	0.830196
C53	C	0.601419	-0.452654	0.482020
C54	C	1.101419	0.047346	0.982020
C55	C	0.683970	-0.452651	0.482011
C56	C	1.183970	0.047349	0.982011
C57	C	0.725237	-0.405236	0.431392
C58	C	1.225237	0.094764	0.931392
C59	C	0.683951	-0.357821	0.380787
C60	C	1.183951	0.142179	0.880787
C61	C	0.725217	-0.310404	0.330174
C62	C	1.225217	0.189596	0.830174
C63	C	0.683933	-0.262992	0.279564
C64	C	1.183933	0.237008	0.779564
C65	C	0.601384	-0.263001	0.279578
C66	C	1.101384	0.236999	0.779578
C67	C	0.807785	-0.405227	0.431379
C68	C	1.307785	0.094773	0.931379
C69	C	0.807770	-0.310396	0.330162
C70	C	1.307770	0.189604	0.830162
C71	C	1.195196	-0.833530	0.327846
C72	C	1.695196	-0.333530	0.827846
C73	C	1.123102	-0.882925	0.308497
C74	C	1.623102	-0.382925	0.808497
C75	C	1.142355	-0.785198	0.380649
C76	C	1.642355	-0.285198	0.880649
C77	C	1.214478	-0.882885	0.399948
C78	C	1.714478	-0.382885	0.899948
C79	C	1.142392	-0.931183	0.380634
C80	C	1.642392	-0.431183	0.880634
C81	C	1.070223	-0.833506	0.361262
C82	C	1.570223	-0.333506	0.861262
C83	C	1.161647	-0.833461	0.452748
C84	C	1.661647	-0.333461	0.952748
C85	C	1.089503	-0.882834	0.433426
C86	C	1.589503	-0.382834	0.933426
C87	C	1.142335	-0.701100	0.380655
C88	C	1.642335	-0.201100	0.880655
C89	C	1.142404	-1.015280	0.380628
C90	C	1.642404	-0.515280	0.880628
C91	C	1.348442	-0.357834	0.380810
C92	C	1.848442	0.142166	0.880810
C93	C	1.436298	-0.357841	0.380821
C94	C	1.936298	0.142159	0.880821
C95	C	1.142207	-0.357803	0.586149
C96	C	1.642207	0.142197	1.086149
C97	C	1.142251	-0.357823	0.674006
C98	C	1.642251	0.142177	1.174006
C99	C	1.142284	-0.164864	0.380810
C100	C	1.642284	0.335136	0.880810
C101	C	1.142422	-0.082319	0.380623
C102	C	1.642422	0.417681	0.880623
C103	C	1.142362	-0.357845	0.174615
C104	C	1.642362	0.142155	0.674615
C105	C	1.142399	-0.357857	0.086758
C106	C	1.642399	0.142143	0.586758
C107	C	1.091801	-0.405306	1.045484
C108	C	1.591801	0.094694	1.545484
C109	C	1.192967	-0.310402	1.045479
C110	C	1.692967	0.189598	1.545479
C111	C	1.192939	-0.310395	0.962933
C112	C	1.692939	0.189605	1.462933
C113	C	1.142341	-0.357844	0.921659
C114	C	1.642341	0.142156	1.421659
C115	C	1.091770	-0.405299	0.962931
C116	C	1.591770	0.094701	1.462931
C117	C	1.243503	-0.262936	0.921655
C118	C	1.743503	0.237064	1.421655
C119	C	1.243477	-0.262926	0.839104
C120	C	1.743477	0.237074	1.339104
C121	C	1.192882	-0.310379	0.797828
C122	C	1.692882	0.189621	1.297828
C123	C	1.142310	-0.357837	0.839105
C124	C	1.642310	0.142163	1.339105
C125	C	1.091711	-0.405285	0.797831
C126	C	1.591711	0.094715	1.297831
C127	C	1.041142	-0.452747	0.839107
C128	C	1.541142	0.047253	1.339107
C129	C	1.041174	-0.452751	0.921655
C130	C	1.541174	0.047249	1.421655
C131	C	1.192850	-0.310375	0.715280
C132	C	1.692850	0.189625	1.215280
C133	C	1.091680	-0.405278	0.715278
C134	C	1.591680	0.094722	1.215278
H135	H	0.841363	-0.271787	0.288941
H136	H	1.341363	0.228213	0.788941
H137	H	1.284692	-0.224300	0.955266
H138	H	1.784692	0.275700	1.455266
H139	H	1.050480	-0.443919	0.681677
H140	H	1.550480	0.056081	1.181677
C141	C	1.296852	-0.912182	0.422016
C142	C	1.796852	-0.412182	0.922016
H143	H	1.334316	-0.895291	0.384452
H144	H	1.834316	-0.395291	0.884452
H145	H	1.296163	-0.964803	0.422327
H146	H	1.796163	-0.464803	0.922327
H147	H	1.310905	-0.894510	0.472879
H148	H	1.810905	-0.394510	0.972879
C149	C	1.248468	-0.258174	0.669880
C150	C	1.748468	0.241826	1.169880
H151	H	1.278608	-0.229918	0.706285
H152	H	1.778608	0.270082	1.206285
H153	H	1.218242	-0.225791	0.637717
H154	H	1.718242	0.274209	1.137717
H155	H	1.282883	-0.286613	0.637639
H156	H	1.782883	0.213387	1.137639
H157	H	1.284654	-0.224281	0.805502
H158	H	1.784654	0.275719	1.305502
C159	C	0.556032	-0.504892	0.537603
C160	C	1.056032	-0.004892	1.037603
H161	H	0.592440	-0.533147	0.567719
H162	H	1.092440	-0.033147	1.067719
H163	H	0.523895	-0.537274	0.507324
H164	H	1.023895	-0.037274	1.007324
H165	H	0.523765	-0.476505	0.572042
H166	H	1.023765	0.023495	1.072042
C167	C	0.853194	-0.457373	0.487041
C168	C	1.353194	0.042627	0.987041
H169	H	0.816795	-0.485615	0.517185
H170	H	1.316795	0.014385	1.017185
H171	H	0.885384	-0.428906	0.521439
H172	H	1.385384	0.071094	1.021439
H173	H	0.885410	-0.489782	0.456835
H174	H	1.385410	0.010218	0.956835
H175	H	0.443947	-0.271824	0.289000
H176	H	0.943947	0.228176	0.789000
C177	C	0.432197	-0.457406	0.487094
C178	C	0.932197	0.042594	0.987094
H179	H	0.377121	-0.450623	0.479850
H180	H	0.877121	0.049377	0.979850
H181	H	0.445714	-0.446456	0.540188
H182	H	0.945714	0.053544	1.040188
H183	H	0.445744	-0.507325	0.475576
H184	H	0.945744	-0.007325	0.975576
H185	H	0.717542	-0.224382	0.238357
H186	H	1.217542	0.275618	0.738357
H187	H	1.044781	-0.904346	0.478073
H188	H	1.544781	-0.404346	0.978073
H189	H	0.567763	-0.224401	0.238375
H190	H	1.067763	0.275599	0.738375
H191	H	1.239810	-0.811879	0.283164
H192	H	1.739810	-0.311879	0.783164
C193	C	1.183705	-0.804081	0.535097
C194	C	1.683705	-0.304081	1.035097
H195	H	1.234979	-0.820957	0.548738
H196	H	1.734979	-0.320957	1.048738
H197	H	1.146705	-0.821696	0.572734
H198	H	1.646705	-0.321696	1.072734
H199	H	1.183058	-0.751457	0.534616
H200	H	1.683058	-0.251457	1.034616
C201	C	1.101074	-0.912282	0.226125
C202	C	1.601074	-0.412282	0.726125
H203	H	1.138656	-0.895407	0.188672
H204	H	1.638656	-0.395407	0.688672
H205	H	1.050215	-0.894650	0.212045
H206	H	1.550215	-0.394650	0.712045
H207	H	1.100780	-0.964907	0.226838
H208	H	1.600780	-0.464907	0.726838
C209	C	0.729375	-0.504807	0.537671
C210	C	1.229375	-0.004807	1.037671
H211	H	0.692975	-0.533051	0.567811
H212	H	1.192975	-0.033051	1.067811
H213	H	0.761567	-0.476346	0.572072
H214	H	1.261567	0.023654	1.072072
H215	H	0.761589	-0.537214	0.507460
H216	H	1.261589	-0.037214	1.007460
H217	H	1.000003	-0.491392	0.955269
H218	H	1.500003	0.008608	1.455269
H219	H	0.999941	-0.491377	0.805492
H220	H	1.499941	0.008623	1.305492
C221	C	1.036177	-0.457508	1.090882
C222	C	1.536177	0.042492	1.590882
H223	H	1.043436	-0.450716	1.145957
H224	H	1.543436	0.049284	1.645957
H225	H	1.047703	-0.507414	1.077308
H226	H	1.547703	-0.007414	1.577308
H227	H	0.983068	-0.446585	1.077396
H228	H	1.483068	0.053415	1.577396
H229	H	1.009227	-0.811906	0.344862
H230	H	1.509227	-0.311906	0.844862
C231	C	1.248624	-0.258218	1.090878
C232	C	1.748624	0.241782	1.590878
H233	H	1.241404	-0.265022	1.145952
H234	H	1.741404	0.234978	1.645952
H235	H	1.237095	-0.208306	1.077393
H236	H	1.737095	0.291694	1.577393
H237	H	1.301722	-0.269142	1.077306
H238	H	1.801722	0.230858	1.577306
