data_functionalizedCrystal
_audit_creation_method	'MofGen! by Chris Wilmer'
_symmetry_space_group_name_H-M	'P1'
_symmetry_Int_Tables_number	1
_symmetry_cell_setting	triclinic
loop_
_symmetry_equiv_pos_as_xyz
  x,y,z
_cell_length_a	14.971491
_cell_length_b	16.992695
_cell_length_c	13.448316
_cell_angle_alpha	89.993283
_cell_angle_beta	89.991393
_cell_angle_gamma	87.142229
loop_
_atom_site_label
_atom_site_type_symbol
_atom_site_fract_x
_atom_site_fract_y
_atom_site_fract_z
O1	O	1.194126	0.102209	-0.082736
O2	O	0.934586	0.114442	-0.082729
O3	O	1.063315	-0.005818	-0.082724
O4	O	1.065396	0.222469	-0.082740
O5	O	1.063298	-0.005825	0.082659
O6	O	0.934568	0.114435	0.082655
O7	O	1.194108	0.102202	0.082648
Cu8	Cu	1.064336	0.108318	0.097752
Cu9	Cu	1.064357	0.108326	-0.097833
O10	O	1.065379	0.222462	0.082644
C11	C	0.901214	0.113891	-0.000036
C12	C	0.801802	0.112249	-0.000033
C13	C	0.373608	0.105170	-0.090206
C14	C	0.467017	0.106710	-0.090202
C15	C	0.513707	0.107481	-0.000048
C16	C	0.466985	0.106704	0.090108
C17	C	0.373579	0.105158	0.090103
C18	C	0.661673	0.109927	0.090112
C19	C	0.755086	0.111475	0.090117
C20	C	0.755111	0.111479	-0.090194
C21	C	0.661705	0.109933	-0.090199
C22	C	0.614989	0.109158	-0.000042
C23	C	1.060630	-0.035037	-0.000032
C24	C	1.052643	-0.122088	-0.000033
C25	C	1.129707	-0.172255	-0.000034
C26	C	1.122197	-0.254049	-0.000043
C27	C	1.037622	-0.285674	-0.000044
C28	C	0.960552	-0.235501	-0.000046
C29	C	0.968063	-0.153709	-0.000044
C30	C	1.006492	-0.529302	-0.000057
C31	C	0.998987	-0.611100	-0.000056
C32	C	1.160633	-0.629643	-0.000055
C33	C	1.168136	-0.547848	-0.000047
C34	C	1.091066	-0.497682	-0.000054
N35	N	1.029943	-0.369281	-0.000050
N36	N	1.098746	-0.414078	-0.000055
C37	C	1.227480	0.102753	-0.000047
C38	C	1.326892	0.104395	-0.000057
C39	C	1.068064	0.251681	-0.000050
C40	C	1.076051	0.338733	-0.000057
N41	N	1.064328	0.108311	0.235317
N42	N	1.064372	0.108327	-0.235397
C43	C	1.121350	0.055082	0.287359
C44	C	1.121356	0.055081	0.391462
C45	C	1.064343	0.108314	0.443521
C46	C	1.007315	0.161546	0.391472
C47	C	1.007306	0.161542	0.287370
C48	C	1.007340	0.161551	0.608452
C49	C	1.007351	0.161556	0.712560
C50	C	1.121390	0.055090	0.712544
C51	C	1.121381	0.055086	0.608442
C52	C	1.064354	0.108319	0.556400
H53	H	0.335543	0.104536	0.163512
O54	O	0.323251	0.104321	-0.187444
H55	H	0.371433	0.105105	-0.250129
H56	H	0.623691	0.109311	-0.163610
O57	O	0.611464	0.109458	0.187483
H58	H	0.564935	0.162292	0.191588
O59	O	0.884943	-0.099597	-0.000041
H60	H	0.884495	-0.061891	0.067363
H61	H	0.793152	0.112112	-0.163603
O62	O	1.220931	-0.138153	-0.000032
H63	H	1.213211	-0.072849	-0.000021
H64	H	1.184951	-0.294892	-0.000042
H65	H	1.237006	-0.522106	-0.000046
O66	O	1.243757	-0.683748	-0.000053
H67	H	1.224330	-0.745937	-0.000062
H68	H	0.793098	0.112107	0.163528
O69	O	0.945826	0.218964	0.447622
H70	H	0.961589	0.280108	0.427613
O71	O	1.182909	-0.002323	0.768663
H72	H	1.167161	-0.063473	0.748690
O73	O	1.182870	-0.002330	0.447581
H74	H	1.142507	-0.040510	0.495020
O75	O	0.907763	-0.645215	-0.000068
H76	H	0.855432	-0.596591	-0.000084
O77	O	0.517339	0.107544	0.187349
H78	H	0.564060	0.054850	0.191673
O79	O	0.923371	-0.475198	-0.000039
H80	H	0.863302	-0.510933	-0.000022
H81	H	0.891689	-0.261257	-0.000053
H82	H	0.505049	0.107335	-0.163611
H83	H	1.167780	0.011737	0.244979
O84	O	0.945839	0.218969	0.552314
H85	H	0.906204	0.255994	0.606001
O86	O	1.182867	-0.002330	0.552286
H87	H	1.222516	-0.039352	0.605961
O88	O	0.945787	0.218944	0.231239
H89	H	0.955345	0.209989	0.150106
O90	O	0.945841	0.218954	0.768716
H91	H	0.906170	0.255957	0.715041
