data_functionalizedCrystal
_audit_creation_method	'MofGen! by Chris Wilmer'
_symmetry_space_group_name_H-M	'P1'
_symmetry_Int_Tables_number	1
_symmetry_cell_setting	triclinic
loop_
_symmetry_equiv_pos_as_xyz
  x,y,z
_cell_length_a	8.559649
_cell_length_b	7.681481
_cell_length_c	10.654559
_cell_angle_alpha	95.795403
_cell_angle_beta	77.133674
_cell_angle_gamma	85.086760
loop_
_atom_site_label
_atom_site_type_symbol
_atom_site_fract_x
_atom_site_fract_y
_atom_site_fract_z
O1	O	2.104698	0.146402	-0.029228
O2	O	1.640214	0.146408	0.035559
O3	O	1.883128	0.146405	-0.180675
O4	O	1.861784	0.146405	0.187007
O5	O	1.913026	-0.146454	-0.207344
O6	O	1.670112	-0.146450	0.008891
O7	O	2.134596	-0.146456	-0.055896
Zn8	Zn	1.907101	-0.192951	-0.027737
Zn9	Zn	1.867709	0.192902	0.007400
O10	O	1.891682	-0.146453	0.160338
C11	C	1.595688	-0.000020	0.027135
C12	C	1.418470	-0.000018	0.041749
N13	N	1.933996	-0.456285	-0.051719
C14	C	2.179122	-0.000024	-0.047471
C15	C	2.356338	-0.000015	-0.062085
C16	C	1.896506	-0.000021	-0.240645
C17	C	1.891807	-0.000010	-0.379601
N18	N	1.840826	0.456237	0.031371
C19	C	1.744367	-0.000003	-0.415910
C20	C	1.739964	-0.000016	-0.546478
C21	C	2.030453	-0.000035	-0.604419
C22	C	2.034856	-0.000034	-0.473854
C23	C	1.576655	0.000015	-0.382459
C24	C	1.572251	0.000002	-0.513027
C25	C	1.878303	-0.000024	0.220308
C26	C	1.883001	-0.000023	0.359265
H27	H	1.438721	-0.000007	-0.162161
Cl28	Cl	2.220216	-0.000047	-0.428214
Cl29	Cl	2.080865	-0.572390	-0.182658
H30	H	1.513078	0.126468	-0.320069
Cl31	Cl	1.291271	-0.000000	0.196276
Cl32	Cl	1.509713	-0.195219	-0.577306
H33	H	1.745717	-0.468565	0.116181
Cl34	Cl	1.498393	-0.189188	-0.325143
H35	H	2.146918	-0.000056	-0.681175
Cl36	Cl	1.451682	0.189217	-0.530691
