data_functionalizedCrystal
_audit_creation_method	'MofGen! by Chris Wilmer'
_symmetry_space_group_name_H-M	'P1'
_symmetry_Int_Tables_number	1
_symmetry_cell_setting	triclinic
loop_
_symmetry_equiv_pos_as_xyz
  x,y,z
_cell_length_a	15.995343
_cell_length_b	15.072220
_cell_length_c	15.995350
_cell_angle_alpha	90.001101
_cell_angle_beta	96.509221
_cell_angle_gamma	90.008177
loop_
_atom_site_label
_atom_site_type_symbol
_atom_site_fract_x
_atom_site_fract_y
_atom_site_fract_z
O1	O	1.111000	0.073689	-0.107890
O2	O	1.611000	0.573689	0.392110
O3	O	0.867224	0.073710	-0.121224
O4	O	1.367224	0.573710	0.378776
O5	O	0.995776	0.073698	0.007331
O6	O	1.495776	0.573698	0.507331
O7	O	0.982448	0.073701	-0.236445
O8	O	1.482448	0.573701	0.263555
O9	O	0.995744	-0.073867	0.007324
O10	O	1.495744	0.426133	0.507324
O11	O	0.867192	-0.073855	-0.121231
O12	O	1.367192	0.426145	0.378769
O13	O	1.110968	-0.073876	-0.107897
O14	O	1.610968	0.426124	0.392103
Zn15	Zn	0.989075	-0.097295	-0.114565
Zn16	Zn	1.489075	0.402705	0.385435
Zn17	Zn	0.989117	0.097129	-0.114556
Zn18	Zn	1.489117	0.597129	0.385444
O19	O	0.982416	-0.073864	-0.236452
O20	O	1.482416	0.426136	0.263548
C21	C	0.836013	-0.000070	-0.120678
C22	C	1.336013	0.499930	0.379322
C23	C	0.743062	-0.000062	-0.119028
C24	C	1.243062	0.499938	0.380972
N25	N	0.989053	-0.229984	-0.114571
N26	N	1.489053	0.270016	0.385429
C27	C	0.572876	-0.000074	-0.116035
C28	C	1.072876	0.499926	0.383965
C29	C	0.549530	-0.000075	-0.023238
C30	C	1.049530	0.499925	0.476762
C31	C	0.452852	-0.000415	-0.021492
C32	C	0.952852	0.499585	0.478508
C33	C	0.405316	-0.000085	-0.113086
C34	C	0.905316	0.499915	0.386914
C35	C	0.434389	-0.084183	-0.159750
C36	C	0.934389	0.415817	0.340250
C37	C	0.531182	-0.084249	-0.160851
C38	C	1.031182	0.415751	0.339149
C39	C	0.531129	0.083566	-0.162201
C40	C	1.031129	0.583566	0.337799
C41	C	0.434634	0.084666	-0.158776
C42	C	0.934634	0.584666	0.341224
C43	C	0.310618	-0.000094	-0.111425
C44	C	0.810618	0.499906	0.388575
C45	C	0.667574	-0.000071	-0.117699
C46	C	1.167574	0.499929	0.382301
C47	C	0.989115	-0.589185	-0.114553
C48	C	1.489115	-0.089185	0.385447
C49	C	0.920099	-0.551572	-0.183109
C50	C	1.420099	-0.051572	0.316891
C51	C	0.920257	-0.448746	-0.183360
C52	C	1.420257	0.051254	0.316640
C53	C	0.989083	-0.410981	-0.114562
C54	C	1.489083	0.089019	0.385438
C55	C	1.076449	-0.448280	-0.133641
C56	C	1.576449	0.051720	0.366359
C57	C	1.076062	-0.551138	-0.134128
C58	C	1.576062	-0.051138	0.365872
C59	C	0.971546	-0.551285	-0.026714
C60	C	1.471546	-0.051285	0.473286
C61	C	0.969541	-0.448421	-0.027300
C62	C	1.469541	0.051579	0.472700
C63	C	0.989071	-0.310268	-0.114565
C64	C	1.489071	0.189732	0.385435
C65	C	0.989133	-0.689899	-0.114551
C66	C	1.489133	-0.189899	0.385449
C67	C	1.142179	-0.000094	-0.108444
C68	C	1.642179	0.499906	0.391556
C69	C	1.235130	-0.000097	-0.110093
C70	C	1.735130	0.499903	0.389907
C71	C	0.995209	-0.000083	0.038522
C72	C	1.495209	0.499917	0.538522
C73	C	0.993557	-0.000078	0.131472
C74	C	1.493557	0.499922	0.631472
N75	N	0.989146	0.229817	-0.114543
N76	N	1.489146	0.729817	0.385457
C77	C	0.982983	-0.000082	-0.267643
C78	C	1.482983	0.499918	0.232357
C79	C	0.984635	-0.000081	-0.360594
C80	C	1.484635	0.499919	0.139406
C81	C	0.987625	-0.000080	0.469220
C82	C	1.487625	0.499920	0.969220
C83	C	0.896073	0.000259	0.421783
C84	C	1.396073	0.500259	0.921783
C85	C	0.897725	-0.000074	0.325093
C86	C	1.397725	0.499926	0.825093
C87	C	0.990567	-0.000078	0.301659
C88	C	1.490567	0.499922	0.801659
C89	C	1.035706	-0.084348	0.342734
C90	C	1.535706	0.415652	0.842734
C91	C	1.033406	-0.084418	0.439369
C92	C	1.533406	0.415582	0.939369
C93	C	1.035333	0.083391	0.439736
C94	C	1.535333	0.583391	0.939736
C95	C	1.035312	0.084505	0.342790
C96	C	1.535312	0.584505	0.842790
C97	C	0.992235	-0.000080	0.206962
C98	C	1.492235	0.499920	0.706962
C99	C	0.985960	-0.000084	0.563917
C100	C	1.485960	0.499916	1.063917
H101	H	0.433846	0.059858	0.015036
H102	H	0.933846	0.559858	0.515036
H103	H	0.416090	0.146884	-0.124793
H104	H	0.916090	0.646884	0.375207
H105	H	1.092301	-0.422511	-0.196971
H106	H	1.592301	0.077489	0.303029
H107	H	0.909223	-0.577270	-0.008367
H108	H	1.409223	-0.077270	0.491633
H109	H	0.859493	0.060690	0.440317
H110	H	1.359493	0.560690	0.940317
H111	H	0.402543	-0.087074	-0.227161
H112	H	0.902543	0.412926	0.272839
H113	H	1.103914	-0.087485	0.328610
H114	H	1.603914	0.412515	0.828610
H115	H	0.559412	0.147330	-0.132921
H116	H	1.059412	0.647330	0.367079
Cl117	Cl	0.870318	-0.410785	-0.004941
Cl118	Cl	1.370318	0.089215	0.495059
H119	H	0.434402	-0.061054	0.014859
H120	H	0.934402	0.438946	0.514859
H121	H	1.005414	0.147262	0.460278
H122	H	1.505414	0.647262	0.960278
Cl123	Cl	0.842940	0.093190	0.281210
Cl124	Cl	1.342940	0.593190	0.781210
Cl125	Cl	1.042118	-0.408750	0.055158
Cl126	Cl	1.542118	0.091250	0.555158
Cl127	Cl	0.553686	-0.089791	-0.265913
Cl128	Cl	1.053686	0.410209	0.234087
Cl129	Cl	1.049250	-0.588838	0.052054
Cl130	Cl	1.549250	-0.088838	0.552054
Cl131	Cl	0.383762	0.092907	-0.261966
Cl132	Cl	0.883762	0.592907	0.238034
H133	H	0.859629	-0.059830	0.441373
H134	H	1.359629	0.440170	0.941373
Cl135	Cl	0.937190	-0.591444	-0.283187
Cl136	Cl	1.437190	-0.091444	0.216813
H137	H	0.861977	-0.060579	0.297224
H138	H	1.361977	0.439421	0.797224
H139	H	0.414284	-0.147008	-0.127739
H140	H	0.914284	0.352992	0.372261
Cl141	Cl	1.099964	-0.588169	-0.233032
Cl142	Cl	1.599964	-0.088169	0.266968
H143	H	1.129023	-0.576017	-0.086164
H144	H	1.629023	-0.076017	0.413836
Cl145	Cl	0.552726	0.084796	-0.267669
Cl146	Cl	1.052726	0.584796	0.232331
H147	H	0.855317	-0.423530	-0.171992
H148	H	1.355317	0.076470	0.328008
Cl149	Cl	0.987263	-0.181165	0.298914
Cl150	Cl	1.487263	0.318835	0.798914
H151	H	0.854949	-0.576328	-0.171929
H152	H	1.354949	-0.076328	0.328071
Cl153	Cl	0.572520	-0.181677	-0.111548
Cl154	Cl	1.072520	0.318323	0.388452
Cl155	Cl	0.982541	-0.181665	0.467623
Cl156	Cl	1.482541	0.318335	0.967623
Cl157	Cl	0.984778	0.180769	0.300235
Cl158	Cl	1.484778	0.680769	0.800235
Cl159	Cl	0.937545	-0.410738	-0.284008
Cl160	Cl	1.437545	0.089262	0.215992
H161	H	1.129033	-0.423815	-0.085036
H162	H	1.629033	0.076185	0.414964
Cl163	Cl	1.137178	-0.090339	0.489164
Cl164	Cl	1.637178	0.409661	0.989164
Cl165	Cl	1.139845	0.092362	0.319073
Cl166	Cl	1.639845	0.592362	0.819073
H167	H	1.102835	0.083954	0.471498
H168	H	1.602835	0.583954	0.971498
H169	H	0.577551	0.060224	0.012734
H170	H	1.077551	0.560224	0.512734
H171	H	0.578502	-0.060294	0.012142
H172	H	1.078502	0.439706	0.512142
