data_functionalizedCrystal
_audit_creation_method	'MofGen! by Chris Wilmer'
_symmetry_space_group_name_H-M	'P1'
_symmetry_Int_Tables_number	1
_symmetry_cell_setting	triclinic
loop_
_symmetry_equiv_pos_as_xyz
  x,y,z
_cell_length_a	29.839131
_cell_length_b	29.839134
_cell_length_c	21.395355
_cell_angle_alpha	90.024483
_cell_angle_beta	90.020172
_cell_angle_gamma	90.021992
loop_
_atom_site_label
_atom_site_type_symbol
_atom_site_fract_x
_atom_site_fract_y
_atom_site_fract_z
Zn1	Zn	-0.179138	0.686774	0.354253
Zn2	Zn	0.154195	1.020107	0.687586
Zn3	Zn	0.487528	1.353441	1.020920
Zn4	Zn	-0.254254	0.686690	0.249472
Zn5	Zn	0.079080	1.020023	0.582806
Zn6	Zn	0.412413	1.353357	0.916139
Zn7	Zn	-0.179113	0.611641	0.249490
Zn8	Zn	0.154220	0.944974	0.582823
Zn9	Zn	0.487554	1.278307	0.916156
Zn10	Zn	-0.254216	0.611605	0.354213
Zn11	Zn	0.079117	0.944938	0.687546
Zn12	Zn	0.412450	1.278271	1.020879
O13	O	-0.216680	0.649177	0.301857
O14	O	0.116653	0.982511	0.635190
O15	O	0.449986	1.315844	0.968524
O16	O	-0.189129	0.749630	0.340363
O17	O	0.144205	1.082963	0.673696
O18	O	0.477538	1.416297	1.007030
O19	O	-0.244291	0.676715	0.161797
O20	O	0.089043	1.010048	0.495130
O21	O	0.422376	1.343381	0.828463
O22	O	-0.116249	0.621658	0.263411
O23	O	0.217084	0.954991	0.596744
O24	O	0.550418	1.288324	0.930078
O25	O	-0.244315	0.749568	0.263381
O26	O	0.089018	1.082902	0.596715
O27	O	0.422351	1.416235	0.930048
O28	O	-0.116268	0.676858	0.340380
O29	O	0.217066	1.010191	0.673713
O30	O	0.550399	1.343524	1.007047
O31	O	-0.189085	0.621576	0.161810
O32	O	0.144248	0.954909	0.495143
O33	O	0.477581	1.288243	0.828476
O34	O	-0.189049	0.548769	0.263372
O35	O	0.144284	0.882102	0.596705
O36	O	0.477617	1.215435	0.930039
O37	O	-0.244252	0.621596	0.441896
O38	O	0.089081	0.954929	0.775229
O39	O	0.422414	1.288263	1.108563
O40	O	-0.244228	0.548742	0.340311
O41	O	0.089106	0.882076	0.673645
O42	O	0.422439	1.215409	1.006978
O43	O	-0.189093	0.676823	0.441925
O44	O	0.144241	1.010156	0.775259
O45	O	0.477574	1.343489	1.108592
O46	O	-0.317116	0.676680	0.263342
O47	O	0.016218	1.010013	0.596676
O48	O	0.349551	1.343346	0.930009
O49	O	-0.317088	0.621515	0.340295
O50	O	0.016245	0.954848	0.673628
O51	O	0.349578	1.288181	1.006961
C52	C	-0.216632	0.532455	0.301840
C53	C	0.116701	0.865788	0.635173
C54	C	0.450035	1.199121	0.968506
C55	C	-0.216622	0.482520	0.301847
C56	C	0.116711	0.815854	0.635180
C57	C	0.450044	1.149187	0.968514
C58	C	-0.188004	0.125961	0.342020
C59	C	0.145329	0.459294	0.675354
C60	C	0.478662	0.792628	1.008687
C61	C	-0.187968	0.313634	0.342006
C62	C	0.145365	0.646968	0.675339
C63	C	0.478698	0.980301	1.008672
O64	O	-0.163579	0.337923	0.376160
O65	O	0.169754	0.671256	0.709493
O66	O	0.503088	1.004589	1.042826
N67	N	-0.216652	0.337075	0.301862
N68	N	0.116682	0.670409	0.635195
N69	N	0.450015	1.003742	0.968528
C70	C	-0.245348	0.313595	0.261721
C71	C	0.087985	0.646928	0.595055
C72	C	0.421318	0.980262	0.928388
O73	O	-0.269748	0.337839	0.227581
O74	O	0.063585	0.671173	0.560914
O75	O	0.396919	1.004506	0.894247
C76	C	-0.245386	0.125923	0.261739
C77	C	0.087947	0.459256	0.595073
C78	C	0.421280	0.792589	0.928406
C79	C	-0.216698	0.102484	0.301882
C80	C	0.116635	0.435818	0.635215
C81	C	0.449969	0.769151	0.968548
C82	C	-0.159318	0.102523	0.382160
C83	C	0.174015	0.435856	0.715493
C84	C	0.507348	0.769189	1.048826
C85	C	-0.159326	0.055607	0.382160
C86	C	0.174007	0.388940	0.715494
C87	C	0.507341	0.722274	1.048827
C88	C	-0.188020	0.032130	0.342022
C89	C	0.145314	0.365464	0.675355
C90	C	0.478647	0.698797	1.008688
C91	C	-0.216705	0.055569	0.301882
C92	C	0.116628	0.388902	0.635216
C93	C	0.449961	0.722235	0.968549
C94	C	-0.274085	0.102443	0.221603
C95	C	0.059248	0.435777	0.554936
C96	C	0.392582	0.769110	0.888269
C97	C	-0.274093	0.055522	0.221612
C98	C	0.059240	0.388856	0.554945
C99	C	0.392574	0.722189	0.888279
C100	C	-0.245404	0.032084	0.261754
C101	C	0.087929	0.365417	0.595087
C102	C	0.421262	0.698751	0.928421
C103	C	-0.245407	-0.014824	0.261745
C104	C	0.087927	0.318510	0.595078
C105	C	0.421260	0.651843	0.928411
N106	N	-0.216723	-0.038265	0.301889
N107	N	0.116610	0.295069	0.635222
N108	N	0.449944	0.628402	0.968555
C109	C	-0.188030	-0.014788	0.342027
C110	C	0.145304	0.318546	0.675361
C111	C	0.478637	0.651879	1.008694
C112	C	-0.245326	0.412126	0.261714
C113	C	0.088008	0.745459	0.595047
C114	C	0.421341	1.078792	0.928380
C115	C	-0.245316	0.459043	0.261708
C116	C	0.088018	0.792377	0.595042
C117	C	0.421351	1.125710	0.928375
C118	C	-0.187936	0.459079	0.341994
C119	C	0.145397	0.792413	0.675327
C120	C	0.478731	1.125746	1.008660
C121	C	-0.187944	0.412161	0.341996
C122	C	0.145389	0.745494	0.675329
C123	C	0.478723	1.078827	1.008662
C124	C	-0.216642	0.388685	0.301858
C125	C	0.116691	0.722018	0.635191
C126	C	0.450024	1.055351	0.968525
C127	C	-0.188047	-0.113313	0.342026
C128	C	0.145286	0.220020	0.675359
C129	C	0.478619	0.553353	1.008692
C130	C	-0.188056	-0.160233	0.342021
C131	C	0.145277	0.173100	0.675354
C132	C	0.478610	0.506434	1.008688
C133	C	-0.245437	-0.160265	0.261738
C134	C	0.087896	0.173068	0.595071
C135	C	0.421229	0.506402	0.928405
C136	C	-0.245427	-0.113349	0.261740
C137	C	0.087906	0.219984	0.595073
C138	C	0.421240	0.553317	0.928407
C139	C	-0.216731	-0.089875	0.301889
C140	C	0.116603	0.243458	0.635222
C141	C	0.449936	0.576792	0.968556
O142	O	-0.269787	-0.039141	0.227614
O143	O	0.063547	0.294192	0.560947
O144	O	0.396880	0.627526	0.894280
O145	O	-0.163641	-0.039040	0.376173
O146	O	0.169693	0.294293	0.709506
O147	O	0.503026	0.627627	1.042839
C148	C	-0.187997	0.172877	0.342019
C149	C	0.145337	0.506210	0.675353
C150	C	0.478670	0.839543	1.008686
C151	C	-0.216683	0.196315	0.301880
C152	C	0.116651	0.529649	0.635213
C153	C	0.449984	0.862982	0.968547
C154	C	-0.245376	0.172838	0.261741
C155	C	0.087957	0.506172	0.595075
C156	C	0.421290	0.839505	0.928408
C157	C	-0.216673	0.243233	0.301875
C158	C	0.116661	0.576566	0.635208
C159	C	0.449994	0.909900	0.968541
C160	C	-0.187979	0.266710	0.342013
C161	C	0.145354	0.600043	0.675347
C162	C	0.478687	0.933377	1.008680
C163	C	-0.159296	0.243269	0.382157
C164	C	0.174038	0.576602	0.715491
C165	C	0.507371	0.909936	1.048824
C166	C	-0.159303	0.196353	0.382158
C167	C	0.174030	0.529687	0.715491
C168	C	0.507363	0.863020	1.048825
C169	C	-0.274060	0.196279	0.221597
C170	C	0.059274	0.529613	0.554931
C171	C	0.392607	0.862946	0.888264
C172	C	-0.274049	0.243195	0.221599
C173	C	0.059284	0.576528	0.554933
C174	C	0.392617	0.909861	0.888266
C175	C	-0.245356	0.266672	0.261738
C176	C	0.087977	0.600005	0.595071
C177	C	0.421311	0.933338	0.928405
C178	C	-0.333403	0.649096	0.301826
C179	C	-0.000070	0.982430	0.635159
C180	C	0.333264	1.315763	0.968493
C181	C	-0.383337	0.649103	0.301834
C182	C	-0.050004	0.982436	0.635167
C183	C	0.283329	1.315769	0.968500
C184	C	-0.692982	0.677954	0.261846
C185	C	-0.359649	1.011287	0.595180
C186	C	-0.026316	1.344621	0.928513
C187	C	-0.880655	0.678009	0.261871
C188	C	-0.547322	1.011343	0.595204
C189	C	-0.213989	1.344676	0.928537
O190	O	-0.904921	0.702476	0.227848
O191	O	-0.571588	1.035809	0.561182
O192	O	-0.238255	1.369142	0.894515
N193	N	-0.904122	0.649270	0.301904
N194	N	-0.570789	0.982604	0.635238
N195	N	-0.237456	1.315937	0.968571
C196	C	-0.880668	0.620518	0.341937
C197	C	-0.547335	0.953851	0.675271
C198	C	-0.214002	1.287184	1.008604
O199	O	-0.904935	0.596078	0.375993
O200	O	-0.571601	0.929411	0.709327
O201	O	-0.238268	1.262745	1.042660
C202	C	-0.692996	0.620465	0.341916
C203	C	-0.359663	0.953798	0.675249
C204	C	-0.026329	1.287131	1.008582
C205	C	-0.669531	0.649202	0.301875
C206	C	-0.336198	0.982536	0.635208
C207	C	-0.002865	1.315869	0.968542
C208	C	-0.669517	0.706690	0.221810
C209	C	-0.336184	1.040023	0.555143
C210	C	-0.002851	1.373356	0.888476
C211	C	-0.622602	0.706674	0.221802
C212	C	-0.289269	1.040007	0.555135
C213	C	0.044065	1.373340	0.888468
C214	C	-0.599151	0.677922	0.261830
C215	C	-0.265818	1.011256	0.595164
C216	C	0.067515	1.344589	0.928497
C217	C	-0.622616	0.649187	0.301867
C218	C	-0.289283	0.982520	0.635200
C219	C	0.044051	1.315853	0.968534
C220	C	-0.669543	0.591715	0.381951
C221	C	-0.336210	0.925048	0.715285
C222	C	-0.002876	1.258381	1.048618
C223	C	-0.622622	0.591705	0.381944
C224	C	-0.289289	0.925038	0.715277
C225	C	0.044045	1.258371	1.048610
C226	C	-0.599157	0.620442	0.341903
C227	C	-0.265824	0.953776	0.675236
C228	C	0.067509	1.287109	1.008570
C229	C	-0.552250	0.620419	0.341888
C230	C	-0.218916	0.953753	0.675221
C231	C	0.114417	1.287086	1.008554
N232	N	-0.528783	0.649158	0.301854
N233	N	-0.195449	0.982491	0.635188
N234	N	0.137884	1.315825	0.968521
C235	C	-0.552233	0.677910	0.261826
C236	C	-0.218900	1.011243	0.595159
C237	C	0.114433	1.344576	0.928492
C238	C	-0.979199	0.620547	0.341945
C239	C	-0.645866	0.953880	0.675278
C240	C	-0.312532	1.287214	1.008612
C241	C	-1.026117	0.620559	0.341950
C242	C	-0.692783	0.953893	0.675283
C243	C	-0.359450	1.287226	1.008616
C244	C	-1.026100	0.678052	0.261884
C245	C	-0.692767	1.011385	0.595217
C246	C	-0.359434	1.344719	0.928550
C247	C	-0.979182	0.678037	0.261876
C248	C	-0.645848	1.011370	0.595210
C249	C	-0.312515	1.344703	0.928543
C250	C	-0.955732	0.649286	0.301912
C251	C	-0.622398	0.982619	0.635245
C252	C	-0.289065	1.315952	0.968578
C253	C	-0.453708	0.677874	0.261811
C254	C	-0.120374	1.011207	0.595145
C255	C	0.212959	1.344540	0.928478
C256	C	-0.406788	0.677854	0.261805
C257	C	-0.073455	1.011187	0.595138
C258	C	0.259879	1.344521	0.928472
C259	C	-0.406808	0.620364	0.341873
C260	C	-0.073475	0.953697	0.675206
C261	C	0.259858	1.287030	1.008539
C262	C	-0.453724	0.620381	0.341877
C263	C	-0.120391	0.953715	0.675210
C264	C	0.212943	1.287048	1.008544
C265	C	-0.477172	0.649140	0.301844
C266	C	-0.143839	0.982474	0.635178
C267	C	0.189494	1.315807	0.968511
O268	O	-0.527955	0.595969	0.375897
O269	O	-0.194621	0.929303	0.709230
O270	O	0.138712	1.262636	1.042564
O271	O	-0.527959	0.702353	0.227784
O272	O	-0.194626	1.035686	0.561118
O273	O	0.138708	1.369019	0.894451
C274	C	-0.739898	0.677970	0.261855
C275	C	-0.406564	1.011303	0.595188
C276	C	-0.073231	1.344636	0.928521
C277	C	-0.763362	0.649234	0.301891
C278	C	-0.430029	0.982568	0.635225
C279	C	-0.096696	1.315901	0.968558
C280	C	-0.739912	0.620483	0.341920
C281	C	-0.406578	0.953816	0.675253
C282	C	-0.073245	1.287149	1.008587
C283	C	-0.810280	0.649247	0.301896
C284	C	-0.476947	0.982580	0.635229
C285	C	-0.143614	1.315913	0.968563
C286	C	-0.833731	0.677998	0.261867
C287	C	-0.500398	1.011332	0.595201
C288	C	-0.167064	1.344665	0.928534
C289	C	-0.810264	0.706737	0.221834
C290	C	-0.476931	1.040071	0.555167
C291	C	-0.143597	1.373404	0.888501
C292	C	-0.763348	0.706721	0.221826
C293	C	-0.430015	1.040055	0.555159
C294	C	-0.096682	1.373388	0.888493
C295	C	-0.763379	0.591744	0.381953
C296	C	-0.430045	0.925077	0.715287
C297	C	-0.096712	1.258410	1.048620
C298	C	-0.810294	0.591762	0.381958
C299	C	-0.476961	0.925095	0.715291
C300	C	-0.143628	1.258428	1.048624
C301	C	-0.833745	0.620513	0.341929
C302	C	-0.500412	0.953846	0.675262
C303	C	-0.167078	1.287180	1.008596
C304	C	-0.099502	0.649271	0.301902
C305	C	0.233831	0.982604	0.635235
C306	C	0.567165	1.315938	0.968569
C307	C	-0.049567	0.649311	0.301921
C308	C	0.283766	0.982644	0.635254
C309	C	0.617099	1.315978	0.968588
C310	C	-0.216671	0.649215	0.465280
C311	C	0.116662	0.982548	0.798614
C312	C	0.449995	1.315881	1.131947
C313	C	-0.216667	0.649230	0.534922
C314	C	0.116666	0.982564	0.868255
C315	C	0.449999	1.315897	1.201588
C316	C	-0.216729	0.766356	0.301875
C317	C	0.116604	1.099689	0.635208
C318	C	0.449938	1.433022	0.968541
C319	C	-0.216750	0.816290	0.301882
C320	C	0.116584	1.149623	0.635216
C321	C	0.449917	1.482957	0.968549
C322	C	-0.216657	0.649166	0.139069
C323	C	0.116676	0.982499	0.472403
C324	C	0.450010	1.315833	0.805736
C325	C	-0.216534	0.649237	0.069428
C326	C	0.116799	0.982571	0.402762
C327	C	0.450132	1.315904	0.736095
C328	C	-0.187944	0.677986	0.567651
C329	C	0.145389	1.011319	0.900984
C330	C	0.478722	1.344652	1.234318
C331	C	-0.187925	0.677985	0.633087
C332	C	0.145408	1.011319	0.966420
C333	C	0.478741	1.344652	1.299753
C334	C	-0.216637	0.649234	0.665790
C335	C	0.116697	0.982567	0.999123
C336	C	0.450030	1.315901	1.332457
C337	C	-0.245362	0.620473	0.633053
C338	C	0.087972	0.953806	0.966386
C339	C	0.421305	1.287140	1.299719
C340	C	-0.245377	0.620471	0.567618
C341	C	0.087956	0.953805	0.900952
C342	C	0.421290	1.287138	1.234285
C343	C	-0.257087	0.645659	0.769454
C344	C	0.076247	0.978992	1.102787
C345	C	0.409580	1.312325	1.436121
C346	C	-0.257072	0.645663	0.834887
C347	C	0.076261	0.978997	1.168220
C348	C	0.409595	1.312330	1.501554
C349	C	-0.216589	0.649237	0.867611
C350	C	0.116744	0.982570	1.200944
C351	C	0.450077	1.315903	1.534277
C352	C	-0.176120	0.652815	0.834894
C353	C	0.157214	0.986148	1.168227
C354	C	0.490547	1.319481	1.501560
C355	C	-0.176135	0.652813	0.769460
C356	C	0.157198	0.986146	1.102793
C357	C	0.490532	1.319480	1.436126
C358	C	-0.216623	0.649232	0.736742
C359	C	0.116710	0.982566	1.070076
C360	C	0.450044	1.315899	1.403409
C361	C	-0.187843	0.677993	0.971293
C362	C	0.145490	1.011326	1.304626
C363	C	0.478824	1.344660	1.637960
C364	C	-0.187823	0.677989	1.036730
C365	C	0.145510	1.011323	1.370063
C366	C	0.478844	1.344656	1.703396
C367	C	-0.245263	0.620480	1.036694
C368	C	0.088070	0.953813	1.370028
C369	C	0.421403	1.287146	1.703361
C370	C	-0.245279	0.620481	0.971259
C371	C	0.088054	0.953814	1.304592
C372	C	0.421387	1.287148	1.637926
C373	C	-0.216570	0.649240	0.938562
C374	C	0.116763	0.982573	1.271895
C375	C	0.450097	1.315907	1.605229
H376	H	-0.268672	0.478123	0.229014
H377	H	0.064661	0.811457	0.562347
H378	H	0.397995	1.144790	0.895680
H379	H	-0.472830	0.596982	0.374483
H380	H	-0.139496	0.930316	0.707817
H381	H	0.193837	1.263649	1.041150
Cl382	Cl	-0.151805	0.714128	0.674241
Cl383	Cl	0.181529	1.047462	1.007574
Cl384	Cl	0.514862	1.380795	1.340908
Cl385	Cl	-0.733905	0.555595	0.432280
Cl386	Cl	-0.400572	0.888928	0.765614
Cl387	Cl	-0.067238	1.222262	1.098947
H388	H	-0.164680	-0.094206	0.374718
H389	H	0.168654	0.239127	0.708051
H390	H	0.501987	0.572461	1.041385
H391	H	-0.135952	0.121632	0.414849
H392	H	0.197381	0.454966	0.748182
H393	H	0.530714	0.788299	1.081515
Cl394	Cl	-0.377319	0.584223	0.392195
Cl395	Cl	-0.043985	0.917556	0.725528
Cl396	Cl	0.289348	1.250890	1.058862
Cl397	Cl	-0.125223	0.657309	0.876025
Cl398	Cl	0.208110	0.990642	1.209358
Cl399	Cl	0.541443	1.323976	1.542691
H400	H	-0.829366	0.730146	0.189239
H401	H	-0.496032	1.063480	0.522573
H402	H	-0.162699	1.396813	0.855906
Cl403	Cl	-0.281489	0.584319	0.526470
Cl404	Cl	0.051844	0.917652	0.859804
Cl405	Cl	0.385178	1.250986	1.193137
H406	H	-0.744247	0.730122	0.189221
H407	H	-0.410913	1.063456	0.522555
H408	H	-0.077580	1.396789	0.855888
H409	H	-0.164583	0.393080	0.374682
H410	H	0.168750	0.726414	0.708016
H411	H	0.502084	1.059747	1.041349
Cl412	Cl	-0.151850	0.714137	0.526550
Cl413	Cl	0.181483	1.047471	0.859883
Cl414	Cl	0.514817	1.380804	1.193217
Cl415	Cl	-0.281392	0.584331	0.930111
Cl416	Cl	0.051941	0.917664	1.263444
Cl417	Cl	0.385274	1.250998	1.596778
H418	H	-0.143183	0.655725	0.742824
H419	H	0.190150	0.989058	1.076157
H420	H	0.523483	1.322392	1.409491
H421	H	-0.164464	0.701408	0.944670
H422	H	0.168870	1.034741	1.278003
H423	H	0.502203	1.368075	1.611336
Cl424	Cl	-0.698990	0.742840	0.171481
Cl425	Cl	-0.365657	1.076173	0.504814
Cl426	Cl	-0.032323	1.409506	0.838148
Cl427	Cl	-0.281354	0.584331	1.077801
Cl428	Cl	0.051979	0.917664	1.411134
Cl429	Cl	0.385312	1.250997	1.744468
Cl430	Cl	-0.281400	0.382619	0.211240
Cl431	Cl	0.051933	0.715953	0.544573
Cl432	Cl	0.385266	1.049286	0.877907
Cl433	Cl	-0.839787	0.555630	0.432299
Cl434	Cl	-0.506453	0.888963	0.765633
Cl435	Cl	-0.173120	1.222297	1.098966
Cl436	Cl	-0.151718	0.714149	1.077876
Cl437	Cl	0.181616	1.047483	1.411209
Cl438	Cl	0.514949	1.380816	1.744543
H439	H	-0.290025	0.642753	0.861520
H440	H	0.043308	0.976086	1.194853
H441	H	0.376642	1.309420	1.528187
Cl442	Cl	-0.307986	0.641180	0.728322
Cl443	Cl	0.025348	0.974513	1.061655
Cl444	Cl	0.358681	1.307846	1.394989
H445	H	-0.164692	-0.179315	0.374709
H446	H	0.168641	0.154019	0.708043
H447	H	0.501974	0.487352	1.041376
Cl448	Cl	-0.123263	0.026149	0.432634
Cl449	Cl	0.210071	0.359482	0.765967
Cl450	Cl	0.543404	0.692815	1.099301
H451	H	-0.268737	0.597062	0.659684
H452	H	0.064596	0.930396	0.993017
H453	H	0.397929	1.263729	1.326351
H454	H	-0.164572	0.478202	0.374675
H455	H	0.168762	0.811536	0.708008
H456	H	0.502095	1.144869	1.041341
H457	H	-0.472794	0.701293	0.229214
H458	H	-0.139460	1.034626	0.562547
H459	H	0.193873	1.367960	0.895881
H460	H	-0.297446	0.121519	0.188915
H461	H	0.035887	0.454852	0.522248
H462	H	0.369220	0.788186	0.855581
H463	H	-0.268784	-0.094265	0.229048
H464	H	0.064550	0.239069	0.562381
H465	H	0.397883	0.572402	0.895714
Cl466	Cl	-0.281507	-0.189788	0.211280
Cl467	Cl	0.051827	0.143546	0.544613
Cl468	Cl	0.385160	0.476879	0.877947
Cl469	Cl	-0.310176	0.026013	0.171153
Cl470	Cl	0.023158	0.359346	0.504487
Cl471	Cl	0.356491	0.692679	0.837820
H472	H	-0.135931	0.262392	0.414837
H473	H	0.197403	0.595725	0.748170
H474	H	0.530736	0.929059	1.081504
Cl475	Cl	-0.123237	0.166895	0.432627
Cl476	Cl	0.210097	0.500228	0.765960
Cl477	Cl	0.543430	0.833562	1.099294
Cl478	Cl	-0.310114	0.272654	0.171123
Cl479	Cl	0.023219	0.605988	0.504456
Cl480	Cl	0.356552	0.939321	0.837790
H481	H	-0.297426	0.177169	0.188912
H482	H	0.035907	0.510502	0.522245
H483	H	0.369240	0.843836	0.855578
H484	H	-0.387685	0.701256	0.229197
H485	H	-0.054351	1.034589	0.562530
H486	H	0.278982	1.367922	0.895864
Cl487	Cl	-1.055590	0.714196	0.211561
Cl488	Cl	-0.722257	1.047529	0.544895
Cl489	Cl	-0.388923	1.380862	0.878228
Cl490	Cl	-0.949688	0.714166	0.211539
Cl491	Cl	-0.616355	1.047499	0.544872
Cl492	Cl	-0.283022	1.380832	0.878206
Cl493	Cl	-1.055609	0.584425	0.392281
Cl494	Cl	-0.722276	0.917759	0.725614
Cl495	Cl	-0.388943	1.251092	1.058948
Cl496	Cl	-0.593111	0.742810	0.171472
Cl497	Cl	-0.259777	1.076143	0.504805
Cl498	Cl	0.073556	1.409477	0.838138
Cl499	Cl	-0.949726	0.584398	0.392279
Cl500	Cl	-0.616392	0.917731	0.725612
Cl501	Cl	-0.283059	1.251065	1.058945
H502	H	-0.603531	0.568293	0.414547
H503	H	-0.270198	0.901626	0.747880
H504	H	0.063135	1.234960	1.081214
Cl505	Cl	-0.699030	0.555590	0.432299
Cl506	Cl	-0.365696	0.888923	0.765632
Cl507	Cl	-0.032363	1.222257	1.098966
