data_functionalizedCrystal
_audit_creation_method	'MofGen! by Chris Wilmer'
_symmetry_space_group_name_H-M	'P1'
_symmetry_Int_Tables_number	1
_symmetry_cell_setting	triclinic
loop_
_symmetry_equiv_pos_as_xyz
  x,y,z
_cell_length_a	18.050591
_cell_length_b	18.050589
_cell_length_c	18.050582
_cell_angle_alpha	90.018205
_cell_angle_beta	90.010544
_cell_angle_gamma	90.027061
loop_
_atom_site_label
_atom_site_type_symbol
_atom_site_fract_x
_atom_site_fract_y
_atom_site_fract_z
Zn1	Zn	1.135292	-0.295730	0.419848
Zn2	Zn	1.635292	0.204270	0.919848
Zn3	Zn	1.135203	-0.419913	0.295668
Zn4	Zn	1.635203	0.080087	0.795668
Zn5	Zn	1.011112	-0.295739	0.295682
Zn6	Zn	1.511112	0.204261	0.795682
Zn7	Zn	1.011060	-0.419880	0.419826
Zn8	Zn	1.511060	0.080120	0.919826
O9	O	1.073167	-0.357815	0.357756
O10	O	1.573167	0.142185	0.857756
O11	O	1.239205	-0.312213	0.403379
O12	O	1.739205	0.187787	0.903379
O13	O	1.118727	-0.403459	0.191745
O14	O	1.618727	0.096541	0.691745
O15	O	1.027644	-0.191813	0.312168
O16	O	1.527644	0.308187	0.812168
O17	O	1.239140	-0.403450	0.312144
O18	O	1.739140	0.096550	0.812144
O19	O	1.118879	-0.191806	0.403393
O20	O	1.618879	0.308194	0.903393
O21	O	1.027557	-0.312228	0.191755
O22	O	1.527557	0.187772	0.691755
O23	O	0.907180	-0.312196	0.312146
O24	O	1.407180	0.187804	0.812146
O25	O	1.027555	-0.403393	0.523753
O26	O	1.527555	0.096607	1.023753
O27	O	0.907142	-0.403402	0.403354
O28	O	1.407142	0.096598	0.903354
O29	O	1.118828	-0.312181	0.523770
O30	O	1.618828	0.187819	1.023770
O31	O	1.118676	-0.523833	0.312122
O32	O	1.618676	-0.023833	0.812122
O33	O	1.027468	-0.523809	0.403341
O34	O	1.527468	-0.023809	0.903341
C35	C	0.880215	-0.357797	0.357750
C36	C	1.380215	0.142203	0.857750
C37	C	0.797669	-0.357807	0.357765
C38	C	1.297669	0.142193	0.857765
C39	C	0.548844	-0.407508	0.407296
C40	C	1.048844	0.092492	0.907296
C41	C	0.598214	-0.425579	0.339512
C42	C	1.098214	0.074421	0.839512
C43	C	0.500548	-0.357831	0.357764
C44	C	1.000548	0.142169	0.857764
C45	C	0.598260	-0.339783	0.425545
C46	C	1.098260	0.160217	0.925545
C47	C	0.646534	-0.357821	0.357768
C48	C	1.146534	0.142179	0.857768
C49	C	0.548831	-0.375937	0.289943
C50	C	1.048831	0.124063	0.789943
C51	C	0.548873	-0.290110	0.376022
C52	C	1.048873	0.209890	0.876022
C53	C	0.598221	-0.308155	0.308191
C54	C	1.098221	0.191845	0.808191
C55	C	0.416450	-0.357838	0.357762
C56	C	0.916450	0.142162	0.857762
C57	C	0.730630	-0.357813	0.357762
C58	C	1.230630	0.142187	0.857762
C59	C	1.073077	-0.550767	0.357744
C60	C	1.573077	-0.050767	0.857744
C61	C	1.073107	-0.633313	0.357763
C62	C	1.573107	-0.133313	0.857763
C63	C	1.023557	-0.832778	0.407350
C64	C	1.523557	-0.332778	0.907350
C65	C	1.005459	-0.882211	0.339584
C66	C	1.505459	-0.382211	0.839584
C67	C	1.073180	-0.784444	0.357773
C68	C	1.573180	-0.284444	0.857773
C69	C	1.091314	-0.882092	0.425547
C70	C	1.591314	-0.382092	0.925547
C71	C	1.073249	-0.930429	0.357788
C72	C	1.573249	-0.430429	0.857788
C73	C	1.055046	-0.832790	0.289971
C74	C	1.555046	-0.332790	0.789971
C75	C	1.140933	-0.832666	0.375979
C76	C	1.640933	-0.332666	0.875979
C77	C	1.122861	-0.882077	0.308166
C78	C	1.622861	-0.382077	0.808166
C79	C	1.073138	-0.700345	0.357765
C80	C	1.573138	-0.200345	0.857765
C81	C	1.073291	-1.014525	0.357788
C82	C	1.573291	-0.514525	0.857788
C83	C	1.266872	-0.357834	0.357763
C84	C	1.766872	0.142166	0.857763
C85	C	1.349418	-0.357842	0.357765
C86	C	1.849418	0.142158	0.857765
C87	C	1.073196	-0.357782	0.551462
C88	C	1.573196	0.142218	1.051462
C89	C	1.073208	-0.357768	0.634007
C90	C	1.573208	0.142232	1.134007
C91	C	1.073277	-0.164110	0.357785
C92	C	1.573277	0.335890	0.857785
C93	C	1.073324	-0.081564	0.357797
C94	C	1.573324	0.418436	0.857797
C95	C	1.073181	-0.357795	0.164804
C96	C	1.573181	0.142205	0.664804
C97	C	1.073312	-0.357599	0.082258
C98	C	1.573312	0.142401	0.582258
C99	C	1.023612	-0.407302	0.833449
C100	C	1.523612	0.092698	1.333449
C101	C	1.091367	-0.425457	0.882837
C102	C	1.591367	0.074543	1.382837
C103	C	1.073245	-0.357712	0.785138
C104	C	1.573245	0.142288	1.285138
C105	C	1.005527	-0.339536	0.882832
C106	C	1.505527	0.160464	1.382832
C107	C	1.073274	-0.357658	0.931123
C108	C	1.573274	0.142342	1.431123
C109	C	1.141036	-0.375902	0.833438
C110	C	1.641036	0.124098	1.333438
C111	C	1.055150	-0.289950	0.833429
C112	C	1.555150	0.210050	1.333429
C113	C	1.122952	-0.308079	0.882794
C114	C	1.622952	0.191921	1.382794
C115	C	1.073227	-0.357744	0.701040
C116	C	1.573227	0.142256	1.201040
C117	C	1.073300	-0.357626	1.015220
C118	C	1.573300	0.142374	1.515220
H119	H	0.527183	-0.232860	0.391488
H120	H	1.027183	0.267140	0.891488
F121	F	0.626547	-0.500428	0.319322
F122	F	1.126547	-0.000428	0.819322
H123	H	1.039807	-0.232684	0.811711
H124	H	1.539807	0.267316	1.311711
H125	H	1.198184	-0.810889	0.391396
H126	H	1.698184	-0.310889	0.891396
F127	F	0.626641	-0.319836	0.500465
F128	F	1.126641	0.180164	1.000465
H129	H	1.106690	-0.482739	0.904539
H130	H	1.606690	0.017261	1.404539
F131	F	1.215926	-0.396058	0.805201
F132	F	1.715926	0.103942	1.305201
H133	H	1.106625	-0.903748	0.482856
H134	H	1.606625	-0.403748	0.982856
F135	F	1.034949	-0.804604	0.215042
F136	F	1.534949	-0.304604	0.715042
H137	H	0.527211	-0.391267	0.232607
H138	H	1.027211	0.108733	0.732607
H139	H	0.619764	-0.266140	0.266256
H140	H	1.119764	0.233860	0.766256
H141	H	0.981530	-0.811130	0.449217
H142	H	1.481530	-0.311130	0.949217
F143	F	1.177752	-0.910194	0.253314
F144	F	1.677752	-0.410194	0.753314
F145	F	0.930607	-0.910655	0.319458
F146	F	1.430607	-0.410655	0.819458
H147	H	0.981678	-0.449294	0.811783
H148	H	1.481678	0.050706	1.311783
F149	F	0.520504	-0.462463	0.461977
F150	F	1.020504	0.037537	0.961977
F151	F	1.177891	-0.253235	0.910940
F152	F	1.677891	0.246765	1.410940
H153	H	0.948246	-0.324186	0.904529
H154	H	1.448246	0.175814	1.404529
