data_functionalizedCrystal
_audit_creation_method	'MofGen! by Chris Wilmer'
_symmetry_space_group_name_H-M	'P1'
_symmetry_Int_Tables_number	1
_symmetry_cell_setting	triclinic
loop_
_symmetry_equiv_pos_as_xyz
  x,y,z
_cell_length_a	16.120530
_cell_length_b	21.295417
_cell_length_c	16.120297
_cell_angle_alpha	92.867002
_cell_angle_beta	90.128140
_cell_angle_gamma	87.125778
loop_
_atom_site_label
_atom_site_type_symbol
_atom_site_fract_x
_atom_site_fract_y
_atom_site_fract_z
Zn1	Zn	1.247391	-0.318915	-0.534523
Zn2	Zn	1.497391	-0.068915	-0.284523
Zn3	Zn	1.747391	0.181085	-0.034523
Zn4	Zn	1.997391	0.431085	0.215477
Zn5	Zn	1.254326	-0.419125	-0.395453
Zn6	Zn	1.504326	-0.169125	-0.145453
Zn7	Zn	1.754326	0.080875	0.104547
Zn8	Zn	2.004326	0.330875	0.354547
Zn9	Zn	1.115383	-0.308278	-0.388443
Zn10	Zn	1.365383	-0.058278	-0.138443
Zn11	Zn	1.615383	0.191722	0.111557
Zn12	Zn	1.865383	0.441722	0.361557
Zn13	Zn	1.108282	-0.418545	-0.527422
Zn14	Zn	1.358282	-0.168545	-0.277422
Zn15	Zn	1.608282	0.081455	-0.027422
Zn16	Zn	1.858282	0.331455	0.222578
O17	O	1.181345	-0.366216	-0.461460
O18	O	1.431345	-0.116216	-0.211460
O19	O	1.681345	0.133784	0.038540
O20	O	1.931345	0.383784	0.288540
O21	O	1.364676	-0.336903	-0.521981
O22	O	1.614676	-0.086903	-0.271981
O23	O	1.864676	0.163097	-0.021981
O24	O	2.114676	0.413097	0.228019
O25	O	1.241769	-0.400212	-0.278158
O26	O	1.491769	-0.150212	-0.028158
O27	O	1.741769	0.099788	0.221842
O28	O	1.991769	0.349788	0.471842
O29	O	1.132963	-0.221604	-0.407859
O30	O	1.382963	0.028396	-0.157859
O31	O	1.632963	0.278396	0.092141
O32	O	1.882963	0.528396	0.342141
O33	O	1.369771	-0.410526	-0.419806
O34	O	1.619771	-0.160526	-0.169806
O35	O	1.869771	0.089474	0.080194
O36	O	2.119771	0.339474	0.330194
O37	O	1.229949	-0.229419	-0.515184
O38	O	1.479949	0.020581	-0.265184
O39	O	1.729949	0.270581	-0.015184
O40	O	1.979949	0.520581	0.234816
O41	O	1.139688	-0.318773	-0.273008
O42	O	1.389688	-0.068773	-0.023008
O43	O	1.639688	0.181227	0.226992
O44	O	1.889688	0.431227	0.476992
O45	O	0.998075	-0.318211	-0.400973
O46	O	1.248075	-0.068211	-0.150973
O47	O	1.498075	0.181789	0.099027
O48	O	1.748075	0.431789	0.349027
O49	O	1.120862	-0.409538	-0.644729
O50	O	1.370862	-0.159538	-0.394729
O51	O	1.620862	0.090462	-0.144729
O52	O	1.870862	0.340462	0.105271
O53	O	0.992859	-0.399224	-0.503081
O54	O	1.242859	-0.149224	-0.253081
O55	O	1.492859	0.100776	-0.003081
O56	O	1.742859	0.350776	0.246919
O57	O	1.223064	-0.336340	-0.649946
O58	O	1.473064	-0.086340	-0.399946
O59	O	1.723064	0.163660	-0.149946
O60	O	1.973064	0.413660	0.100054
O61	O	1.234884	-0.507133	-0.412921
O62	O	1.484884	-0.257133	-0.162921
O63	O	1.734884	-0.007133	0.087079
O64	O	1.984884	0.242867	0.337079
O65	O	1.127586	-0.506707	-0.509878
O66	O	1.377586	-0.256707	-0.259878
O67	O	1.627586	-0.006707	-0.009878
O68	O	1.877586	0.243293	0.240122
C69	C	0.965295	-0.357501	-0.450496
C70	C	1.215295	-0.107501	-0.200496
C71	C	1.465295	0.142499	0.049504
C72	C	1.715295	0.392499	0.299504
C73	C	0.872866	-0.353788	-0.445825
C74	C	1.122866	-0.103788	-0.195825
C75	C	1.372866	0.146212	0.054175
C76	C	1.622866	0.396212	0.304175
C77	C	0.703638	-0.346996	-0.437305
C78	C	0.953638	-0.096996	-0.187305
C79	C	1.203638	0.153004	0.062695
C80	C	1.453638	0.403004	0.312695
C81	C	0.659891	-0.385485	-0.485677
C82	C	0.909891	-0.135485	-0.235677
C83	C	1.159891	0.114515	0.014323
C84	C	1.409891	0.364515	0.264323
C85	C	0.565726	-0.381705	-0.480936
C86	C	0.815726	-0.131705	-0.230936
C87	C	1.065726	0.118295	0.019064
C88	C	1.315726	0.368295	0.269064
C89	C	0.797811	-0.350774	-0.442045
C90	C	1.047811	-0.100774	-0.192045
C91	C	1.297811	0.149226	0.057955
C92	C	1.547811	0.399226	0.307955
C93	C	1.181239	-0.529761	-0.461409
C94	C	1.431239	-0.279761	-0.211409
C95	C	1.681239	-0.029761	0.038591
C96	C	1.931239	0.220239	0.288591
C97	C	1.181268	-0.599731	-0.461418
C98	C	1.431268	-0.349731	-0.211418
C99	C	1.681268	-0.099731	0.038582
C100	C	1.931268	0.150269	0.288582
C101	C	1.237182	-0.632802	-0.410990
C102	C	1.487182	-0.382802	-0.160990
C103	C	1.737182	-0.132802	0.089010
C104	C	1.987182	0.117198	0.339010
C105	C	1.237220	-0.698547	-0.411010
C106	C	1.487220	-0.448547	-0.161010
C107	C	1.737220	-0.198547	0.088990
C108	C	1.987220	0.051453	0.338990
C109	C	1.181329	-0.731217	-0.461450
C110	C	1.431329	-0.481217	-0.211450
C111	C	1.681329	-0.231217	0.038550
C112	C	1.931329	0.018783	0.288550
C113	C	1.125411	-0.698138	-0.511889
C114	C	1.375411	-0.448138	-0.261889
C115	C	1.625411	-0.198138	-0.011889
C116	C	1.875411	0.051862	0.238111
C117	C	1.125380	-0.632395	-0.511873
C118	C	1.375380	-0.382395	-0.261873
C119	C	1.625380	-0.132395	-0.011873
C120	C	1.875380	0.117605	0.238127
N121	N	1.108264	-0.831783	-0.464098
N122	N	1.358264	-0.581783	-0.214098
N123	N	1.608264	-0.331783	0.035902
N124	N	1.858264	-0.081783	0.285902
N125	N	1.108296	-0.894236	-0.464108
N126	N	1.358296	-0.644236	-0.214108
N127	N	1.608296	-0.394236	0.035892
N128	N	1.858296	-0.144236	0.285892
C129	C	1.181420	-0.929297	-0.461503
C130	C	1.431420	-0.679297	-0.211503
C131	C	1.681420	-0.429297	0.038497
C132	C	1.931420	-0.179297	0.288497
N133	N	1.254514	-0.899546	-0.458870
N134	N	1.504514	-0.649546	-0.208870
N135	N	1.754514	-0.399546	0.041130
N136	N	2.004514	-0.149546	0.291130
N137	N	1.254481	-0.837087	-0.458855
N138	N	1.504481	-0.587087	-0.208855
N139	N	1.754481	-0.337087	0.041145
N140	N	2.004481	-0.087087	0.291145
C141	C	1.181357	-0.802504	-0.461473
C142	C	1.431357	-0.552504	-0.211473
C143	C	1.681357	-0.302504	0.038527
C144	C	1.931357	-0.052504	0.288527
C145	C	1.237380	-1.033657	-0.411094
C146	C	1.487380	-0.783657	-0.161094
C147	C	1.737380	-0.533657	0.088906
C148	C	1.987380	-0.283657	0.338906
C149	C	1.237419	-1.099403	-0.411120
C150	C	1.487419	-0.849403	-0.161120
C151	C	1.737419	-0.599403	0.088880
C152	C	1.987419	-0.349403	0.338880
C153	C	1.125603	-1.098992	-0.511994
C154	C	1.375603	-0.848992	-0.261994
C155	C	1.625603	-0.598992	-0.011994
C156	C	1.875603	-0.348992	0.238006
C157	C	1.125571	-1.033248	-0.511973
C158	C	1.375571	-0.783248	-0.261973
C159	C	1.625571	-0.533248	-0.011973
C160	C	1.875571	-0.283248	0.238027
C161	C	1.181459	-1.000584	-0.461518
C162	C	1.431459	-0.750584	-0.211518
C163	C	1.681459	-0.500584	0.038482
C164	C	1.931459	-0.250584	0.288482
C165	C	1.398240	-0.374966	-0.472468
C166	C	1.648240	-0.124966	-0.222468
C167	C	1.898240	0.125034	0.027532
C168	C	2.148240	0.375034	0.277532
C169	C	1.490667	-0.378694	-0.477159
C170	C	1.740667	-0.128694	-0.227159
C171	C	1.990667	0.121306	0.022841
C172	C	2.240667	0.371306	0.272841
C173	C	1.170397	-0.374061	-0.678353
C174	C	1.420397	-0.124061	-0.428353
C175	C	1.670397	0.125939	-0.178353
C176	C	1.920397	0.375939	0.071647
C177	C	1.165731	-0.377404	-0.770780
C178	C	1.415731	-0.127404	-0.520780
C179	C	1.665731	0.122596	-0.270780
C180	C	1.915731	0.372596	-0.020780
C181	C	1.181474	-0.202033	-0.461531
C182	C	1.431474	0.047967	-0.211531
C183	C	1.681474	0.297967	0.038469
C184	C	1.931474	0.547967	0.288469
C185	C	1.181529	-0.132068	-0.461562
C186	C	1.431529	0.117932	-0.211562
C187	C	1.681529	0.367932	0.038438
C188	C	1.931529	0.617932	0.288438
C189	C	1.157183	-0.383493	-0.940004
C190	C	1.407183	-0.133493	-0.690004
C191	C	1.657183	0.116507	-0.440004
C192	C	1.907183	0.366507	-0.190004
C193	C	1.205672	-0.348757	-0.983777
C194	C	1.455672	-0.098757	-0.733777
C195	C	1.705672	0.151243	-0.483777
C196	C	1.955672	0.401243	-0.233777
C197	C	1.200915	-0.352144	-1.077938
C198	C	1.450915	-0.102144	-0.827938
C199	C	1.700915	0.147856	-0.577938
C200	C	1.950915	0.397856	-0.327938
C201	C	1.161938	-0.380106	-0.845834
C202	C	1.411938	-0.130106	-0.595834
C203	C	1.661938	0.119894	-0.345834
C204	C	1.911938	0.369894	-0.095834
C205	C	1.192299	-0.358358	-0.245413
C206	C	1.442299	-0.108358	0.004587
C207	C	1.692299	0.141642	0.254587
C208	C	1.942299	0.391642	0.504587
C209	C	1.197126	-0.354844	-0.152995
C210	C	1.447126	-0.104844	0.097005
C211	C	1.697126	0.145156	0.347005
C212	C	1.947126	0.395156	0.597005
H213	H	0.693157	-0.421274	-0.530651
H214	H	0.943157	-0.171274	-0.280651
H215	H	1.193157	0.078726	-0.030651
H216	H	1.443157	0.328726	0.219349
H217	H	1.282957	-1.126329	-0.370057
H218	H	1.532957	-0.876329	-0.120057
H219	H	1.782957	-0.626329	0.129943
H220	H	2.032957	-0.376329	0.379943
H221	H	0.670373	-0.311209	-0.392335
H222	H	0.920373	-0.061209	-0.142335
H223	H	1.170373	0.188791	0.107665
H224	H	1.420373	0.438791	0.357665
H225	H	1.282691	-0.606210	-0.369908
H226	H	1.532691	-0.356210	-0.119908
H227	H	1.782691	-0.106210	0.130092
H228	H	2.032691	0.143790	0.380092
H229	H	1.282890	-1.007061	-0.370013
H230	H	1.532890	-0.757061	-0.120013
H231	H	1.782890	-0.507061	0.129987
H232	H	2.032890	-0.257061	0.379987
H233	H	1.112102	-0.415774	-0.973246
H234	H	1.362102	-0.165774	-0.723246
H235	H	1.612102	0.084226	-0.473246
H236	H	1.862102	0.334226	-0.223246
H237	H	1.079847	-0.605468	-0.552939
H238	H	1.329847	-0.355468	-0.302939
H239	H	1.579847	-0.105468	-0.052939
H240	H	1.829847	0.144532	0.197061
H241	H	1.080099	-1.125592	-0.553068
H242	H	1.330099	-0.875592	-0.303068
H243	H	1.580099	-0.625592	-0.053068
H244	H	1.830099	-0.375592	0.196932
H245	H	1.282755	-0.725479	-0.369945
H246	H	1.532755	-0.475479	-0.119945
H247	H	1.782755	-0.225479	0.130055
H248	H	2.032755	0.024521	0.380055
H249	H	1.250756	-0.316473	-0.950533
H250	H	1.500756	-0.066473	-0.700533
H251	H	1.750756	0.183527	-0.450533
H252	H	2.000756	0.433527	-0.200533
H253	H	1.079906	-0.724742	-0.552959
H254	H	1.329906	-0.474742	-0.302959
H255	H	1.579906	-0.224742	-0.052959
H256	H	1.829906	0.025258	0.197041
H257	H	1.080037	-1.006319	-0.553033
H258	H	1.330037	-0.756319	-0.303033
H259	H	1.580037	-0.506319	-0.053033
H260	H	1.830037	-0.256319	0.196967
