data_functionalizedCrystal
_audit_creation_method	'MofGen! by Chris Wilmer'
_symmetry_space_group_name_H-M	'P1'
_symmetry_Int_Tables_number	1
_symmetry_cell_setting	triclinic
loop_
_symmetry_equiv_pos_as_xyz
  x,y,z
_cell_length_a	15.538191
_cell_length_b	13.596369
_cell_length_c	15.625429
_cell_angle_alpha	108.077539
_cell_angle_beta	66.736792
_cell_angle_gamma	90.005970
loop_
_atom_site_label
_atom_site_type_symbol
_atom_site_fract_x
_atom_site_fract_y
_atom_site_fract_z
O1	O	1.249531	-0.022569	-0.292678
O2	O	0.975409	0.014535	-0.188630
O3	O	1.119792	-0.051676	-0.374284
O4	O	1.105148	0.043643	-0.107025
O5	O	1.119774	-0.215254	-0.374270
O6	O	0.975391	-0.149043	-0.188616
O7	O	1.249513	-0.186147	-0.292665
Zn8	Zn	1.112449	-0.193566	-0.240639
Zn9	Zn	1.112473	0.021955	-0.240656
O10	O	1.105130	-0.119935	-0.107011
C11	C	0.940318	-0.063372	-0.177737
C12	C	0.835787	-0.051809	-0.145311
N13	N	1.112440	-0.340655	-0.240629
C14	C	0.547575	-0.166688	-0.467459
C15	C	0.449349	-0.155813	-0.436966
C16	C	0.427131	-0.094643	-0.265454
C17	C	0.525357	-0.105518	-0.295932
C18	C	0.585571	-0.141540	-0.396936
C19	C	0.563353	-0.080370	-0.225409
C20	C	0.661571	-0.091240	-0.255885
C21	C	0.721791	-0.127257	-0.356884
C22	C	0.683789	-0.152410	-0.427411
C23	C	0.503137	-0.044341	-0.124406
C24	C	0.541133	-0.019193	-0.053883
C25	C	0.639352	-0.030069	-0.084359
C26	C	0.699573	-0.066087	-0.185358
C27	C	0.677355	-0.004917	-0.013831
C28	C	0.775572	-0.015786	-0.044307
C29	C	0.797791	-0.076957	-0.215834
C30	C	1.112445	-0.429653	-0.240629
C31	C	1.112454	-0.541307	-0.240638
C32	C	1.112466	-0.630303	-0.240652
C33	C	1.112477	-0.741964	-0.240661
C34	C	1.284604	-0.108237	-0.303558
C35	C	1.389135	-0.119794	-0.335984
C36	C	1.119119	-0.145364	-0.407646
C37	C	1.117131	-0.180819	-0.507073
N38	N	1.112489	0.169040	-0.240675
C39	C	1.110612	0.148373	-0.834105
C40	C	1.108740	0.115028	-0.927530
C41	C	1.108720	-0.063293	-0.927501
C42	C	1.110598	-0.029964	-0.834077
C43	C	1.111543	0.075871	-0.787386
C44	C	1.111528	-0.102466	-0.787357
C45	C	1.113401	-0.069138	-0.693939
C46	C	1.114343	0.036692	-0.647240
C47	C	1.113415	0.109199	-0.693967
C48	C	1.110577	-0.208299	-0.834047
C49	C	1.111507	-0.280802	-0.787328
C50	C	1.113386	-0.247475	-0.693911
C51	C	1.114328	-0.141645	-0.647211
C52	C	1.114314	-0.319982	-0.647183
C53	C	1.116186	-0.286654	-0.553765
C54	C	1.116201	-0.108317	-0.553793
C55	C	1.105803	-0.026245	-0.073648
C56	C	1.107791	0.009216	0.025779
H57	H	0.846822	-0.106295	-0.298081
H58	H	0.801766	-0.136094	-0.381696
H59	H	0.732820	-0.181749	-0.509658
H60	H	1.113535	-0.406151	-0.685209
N61	N	1.116267	0.070758	-0.551820
N62	N	1.117114	0.165252	-0.510145
H63	H	1.118475	0.189313	-0.442755
N64	N	0.410521	-0.181510	-0.508997
N65	N	0.322826	-0.171803	-0.481778
H66	H	0.295402	-0.189948	-0.532647
N67	N	1.107794	0.189080	-0.975269
N68	N	1.106119	0.159314	-1.058676
H69	H	1.105447	0.211611	-1.092392
H70	H	1.110734	-0.366972	-0.825355
H71	H	1.114193	0.195379	-0.655952
N72	N	0.609105	-0.203476	-0.570628
N73	N	0.696795	-0.213169	-0.597820
H74	H	0.740253	-0.239147	-0.670680
H75	H	1.111390	0.234553	-0.796090
N76	N	0.365606	-0.057838	-0.162290
N77	N	0.277914	-0.048129	-0.135090
H78	H	0.234462	-0.022136	-0.062229
H79	H	0.628314	0.024422	0.068405
H80	H	0.423162	-0.035489	-0.099596
H81	H	0.492094	0.010141	0.028354
H82	H	1.107948	-0.149464	-0.965529
N83	N	1.117125	-0.360721	-0.506044
N84	N	1.116278	-0.455210	-0.547741
H85	H	1.116935	-0.507523	-0.514037
N86	N	0.814376	0.009907	0.027740
N87	N	0.760604	0.042065	0.117915
H88	H	0.788008	0.060215	0.168802
H89	H	1.109042	-0.235430	-0.910110
H90	H	1.116978	-0.022137	-0.515778
