data_functionalizedCrystal
_audit_creation_method	'MofGen! by Chris Wilmer'
_symmetry_space_group_name_H-M	'P1'
_symmetry_Int_Tables_number	1
_symmetry_cell_setting	triclinic
loop_
_symmetry_equiv_pos_as_xyz
  x,y,z
_cell_length_a	13.033290
_cell_length_b	13.033615
_cell_length_c	13.032268
_cell_angle_alpha	90.919108
_cell_angle_beta	74.844058
_cell_angle_gamma	90.902053
loop_
_atom_site_label
_atom_site_type_symbol
_atom_site_fract_x
_atom_site_fract_y
_atom_site_fract_z
Zn1	Zn	1.474966	-0.644211	0.321585
Zn2	Zn	1.974966	-0.144211	0.821585
Zn3	Zn	1.480459	-0.794977	0.127013
Zn4	Zn	1.980459	-0.294977	0.627013
Zn5	Zn	1.324221	-0.605970	0.170878
Zn6	Zn	1.824221	-0.105970	0.670878
Zn7	Zn	1.280386	-0.794905	0.327145
Zn8	Zn	1.780386	-0.294905	0.827145
O9	O	1.390008	-0.710016	0.236656
O10	O	1.890008	-0.210016	0.736656
O11	O	1.622513	-0.680245	0.275091
O12	O	2.122513	-0.180245	0.775091
O13	O	1.480378	-0.753931	-0.013995
O14	O	1.980378	-0.253931	0.486005
O15	O	1.360264	-0.468876	0.206901
O16	O	1.860264	0.031124	0.706901
O17	O	1.626549	-0.791012	0.132139
O18	O	2.126549	-0.291012	0.632139
O19	O	1.471016	-0.496972	0.317625
O20	O	1.971016	0.003028	0.817625
O21	O	1.365591	-0.615068	0.018232
O22	O	1.865591	-0.115068	0.518232
O23	O	1.171588	-0.614998	0.212292
O24	O	1.671588	-0.114998	0.712292
O25	O	1.285553	-0.790889	0.473235
O26	O	1.785553	-0.290889	0.973235
O27	O	1.139382	-0.753808	0.327100
O28	O	1.639382	-0.253808	0.827100
O29	O	1.428510	-0.680175	0.469150
O30	O	1.928510	-0.180175	0.969150
O31	O	1.437872	-0.937134	0.137530
O32	O	1.937872	-0.437134	0.637530
O33	O	1.290879	-0.937081	0.284566
O34	O	1.790879	-0.437081	0.784566
C35	C	1.117416	-0.680246	0.275060
C36	C	1.617416	-0.180246	0.775060
C37	C	1.000794	-0.667538	0.291512
C38	C	1.500794	-0.167538	0.791512
C39	C	1.360240	-0.973975	0.206911
C40	C	1.860240	-0.473975	0.706911
C41	C	1.347597	-1.086912	0.194207
C42	C	1.847597	-0.586912	0.694207
C43	C	1.351529	-0.739790	0.510328
C44	C	1.851529	-0.239790	1.010328
C45	C	1.335132	-0.752478	0.626950
C46	C	1.835132	-0.252478	1.126950
C47	C	1.663664	-0.739902	0.198102
C48	C	2.163664	-0.239902	0.698102
C49	C	1.780280	-0.752638	0.181672
C50	C	2.280280	-0.252638	0.681672
C51	C	1.830274	-0.703511	0.245077
C52	C	2.330274	-0.203511	0.745077
C53	C	1.950803	-0.716672	0.228098
C54	C	2.450803	-0.216672	0.728098
C55	C	1.419917	-0.445031	0.266536
C56	C	1.919917	0.054969	0.766536
C57	C	1.432662	-0.332111	0.279269
C58	C	1.932662	0.167889	0.779269
C59	C	1.383547	-0.267866	0.230162
C60	C	1.883547	0.232134	0.730162
C61	C	1.396719	-0.151156	0.243321
C62	C	1.896719	0.348844	0.743321
C63	C	1.428406	-0.680291	-0.035952
C64	C	1.928406	-0.180291	0.464048
C65	C	1.445038	-0.667339	-0.152571
C66	C	1.945038	-0.167339	0.347429
C67	C	1.398554	-0.703356	0.676924
C68	C	1.898554	-0.203356	1.176924
C69	C	1.381608	-0.716468	0.797459
C70	C	1.881608	-0.216468	1.297459
H71	H	1.783844	-0.651711	0.311934
H72	H	2.283844	-0.151711	0.811934
H73	H	1.295785	-0.118307	0.142426
H74	H	1.795785	0.381693	0.642426
H75	H	1.448519	-0.119761	0.295114
H76	H	1.948519	0.380239	0.795114
H77	H	1.484459	-0.300711	0.331058
H78	H	1.984459	0.199289	0.831058
N79	N	1.841765	-0.821265	0.093118
N80	N	2.341765	-0.321265	0.593118
H81	H	1.919152	-0.820941	0.093542
H82	H	2.419152	-0.320941	0.593542
H83	H	1.834989	-0.795228	0.022637
H84	H	2.334989	-0.295228	0.522637
H85	H	1.314754	-0.768227	0.843909
H86	H	1.814754	-0.268227	1.343909
N87	N	1.533583	-0.598758	0.785920
N88	N	2.033583	-0.098758	1.285920
H89	H	1.533138	-0.599107	0.708532
H90	H	2.033138	-0.099107	1.208532
H91	H	1.604064	-0.624815	0.792678
H92	H	2.104064	-0.124815	1.292678
N93	N	1.246572	-0.821030	0.688472
N94	N	1.746572	-0.321030	1.188472
H95	H	1.247015	-0.820674	0.765860
H96	H	1.747015	-0.320674	1.265860
H97	H	1.257367	-0.893311	0.658899
H98	H	1.757367	-0.393311	1.158899
N99	N	1.314936	-0.309446	0.161557
N100	N	1.814936	0.190554	0.661557
H101	H	1.239744	-0.284619	0.190470
H102	H	1.739744	0.215381	0.690470
H103	H	1.315343	-0.386921	0.161902
H104	H	1.815343	0.113079	0.661902
N105	N	1.487120	-0.634812	0.615400
N106	N	1.987120	-0.134812	1.115400
H107	H	1.486683	-0.635174	0.538011
H108	H	1.986683	-0.135174	1.038011
H109	H	1.557584	-0.660901	0.622173
H110	H	2.057584	-0.160901	1.122173
H111	H	1.997226	-0.768486	0.161246
H112	H	2.497226	-0.268486	0.661246
N113	N	1.939312	-0.598918	0.380081
N114	N	2.439312	-0.098918	0.880081
H115	H	1.861925	-0.599243	0.379661
H116	H	2.361925	-0.099243	0.879661
H117	H	1.968894	-0.526655	0.369262
H118	H	2.468894	-0.026655	0.869262
