data_functionalizedCrystal
_audit_creation_method	'MofGen! by Chris Wilmer'
_symmetry_space_group_name_H-M	'P1'
_symmetry_Int_Tables_number	1
_symmetry_cell_setting	triclinic
loop_
_symmetry_equiv_pos_as_xyz
  x,y,z
_cell_length_a	14.519709
_cell_length_b	16.992695
_cell_length_c	16.053802
_cell_angle_alpha	87.258926
_cell_angle_beta	92.580376
_cell_angle_gamma	87.174184
loop_
_atom_site_label
_atom_site_type_symbol
_atom_site_fract_x
_atom_site_fract_y
_atom_site_fract_z
O1	O	-1.234886	-0.099504	-0.069320
O2	O	-0.967279	-0.111608	-0.069346
O3	O	-1.100010	0.008588	-0.069327
O4	O	-1.102156	-0.219700	-0.069340
O5	O	-1.092702	0.001999	0.069531
O6	O	-0.959971	-0.118197	0.069512
O7	O	-1.227578	-0.106092	0.069537
Zn8	Zn	-1.092615	-0.113191	0.091571
Zn9	Zn	-1.102243	-0.104510	-0.091380
O10	O	-1.094848	-0.226288	0.069518
C11	C	-0.929225	-0.114338	0.000080
C12	C	-0.826723	-0.112647	0.000070
C13	C	-1.093596	0.034510	0.000102
C14	C	-1.085360	0.121566	0.000101
C15	C	-1.265632	-0.103362	0.000110
C16	C	-1.368135	-0.105053	0.000114
C17	C	-0.451379	-0.106425	0.000108
C18	C	-0.555811	-0.108153	0.000097
C19	C	-0.639048	-0.109536	0.000088
C20	C	-0.743487	-0.111264	0.000079
C21	C	-1.101262	-0.252210	0.000088
C22	C	-1.109498	-0.339266	0.000083
N23	N	-1.086050	-0.119115	0.216431
C24	C	-1.164820	0.171694	0.000109
C25	C	-1.157077	0.253492	0.000101
C26	C	-1.069873	0.285160	0.000089
C27	C	-0.990408	0.235025	0.000079
C28	C	-0.998152	0.153229	0.000081
C29	C	-1.037777	0.528803	0.000075
C30	C	-1.030038	0.610605	0.000075
C31	C	-1.196708	0.629067	0.000095
C32	C	-1.204444	0.547269	0.000103
C33	C	-1.124979	0.497141	0.000088
N34	N	-1.061956	0.368770	0.000083
N35	N	-1.132897	0.413533	0.000088
N36	N	-1.108814	-0.098580	-0.216239
C37	C	-1.142550	-0.067989	0.260133
C38	C	-1.137968	-0.072141	0.347539
C39	C	-1.076889	-0.127422	0.391241
C40	C	-1.020382	-0.178549	0.347533
C41	C	-1.024961	-0.174393	0.260128
C42	C	-1.056886	-0.145552	0.652648
C43	C	-1.052314	-0.149705	0.740059
C44	C	-1.169899	-0.043295	0.740058
C45	C	-1.174476	-0.039147	0.652652
C46	C	-1.117966	-0.090272	0.608952
N47	N	-1.072205	-0.131668	0.480584
N48	N	-1.122646	-0.086022	0.519610
H49	H	-1.221781	0.294304	0.000109
C50	C	-1.232050	0.012946	0.788129
C51	C	-1.227019	0.008384	0.884271
C52	C	-1.289170	0.064630	0.932340
C53	C	-1.356353	0.125438	0.884269
C54	C	-1.361387	0.130003	0.788122
C55	C	-1.299235	0.073756	0.740052
H56	H	-1.177284	-0.036633	0.919861
H57	H	-1.285443	0.061251	1.003515
H58	H	-1.402361	0.167075	0.919853
H59	H	-1.411122	0.175019	0.752531
H60	H	-1.302962	0.077136	0.668877
C61	C	-1.284115	0.684209	0.000102
C62	C	-1.297920	0.739568	0.072205
C63	C	-1.385332	0.794711	0.072208
C64	C	-1.458939	0.794494	0.000108
C65	C	-1.445136	0.739133	-0.072000
C66	C	-1.357724	0.683991	-0.072003
H67	H	-1.243430	0.739731	0.125582
H68	H	-1.395549	0.835693	0.125587
H69	H	-1.523646	0.835314	0.000110
H70	H	-1.499626	0.738971	-0.125377
H71	H	-1.347507	0.643009	-0.125382
C72	C	-0.910745	0.098084	0.000074
C73	C	-0.889352	0.035893	0.072176
C74	C	-0.801942	-0.019251	0.072164
C75	C	-0.735924	-0.012202	0.000051
C76	C	-0.757315	0.049992	-0.072055
C77	C	-0.844725	0.105135	-0.072044
H78	H	-0.938224	0.030673	0.125563
H79	H	-0.786107	-0.065291	0.125543
H80	H	-0.671218	-0.053022	0.000043
H81	H	-0.708443	0.055212	-0.125442
H82	H	-0.860560	0.151176	-0.125423
H83	H	-0.959022	0.636384	0.000079
H84	H	-1.010876	-0.187181	0.617074
H85	H	-0.978951	-0.216024	0.224547
C86	C	-0.953193	-0.239360	0.395601
C87	C	-0.948199	-0.243975	0.491743
C88	C	-0.881010	-0.304790	0.539808
C89	C	-0.818816	-0.360990	0.491731
C90	C	-0.823809	-0.356377	0.395584
C91	C	-0.890997	-0.295562	0.347519
H92	H	-0.994240	-0.202371	0.527336
H93	H	-0.877315	-0.308205	0.610982
H94	H	-0.769080	-0.406009	0.527312
H95	H	-0.777767	-0.397981	0.359990
H96	H	-0.894692	-0.292147	0.276345
H97	H	-1.275455	0.521492	0.000112
C98	C	-0.950363	0.473673	0.000073
C99	C	-0.884335	0.480725	-0.072031
C100	C	-0.796915	0.425592	-0.072029
C101	C	-0.775523	0.363407	0.000079
C102	C	-0.841552	0.356352	0.072189
C103	C	-0.928972	0.411485	0.072186
H104	H	-0.900170	0.526761	-0.125415
H105	H	-0.748036	0.430815	-0.125410
H106	H	-0.710809	0.322594	0.000081
H107	H	-0.825718	0.310316	0.125572
H108	H	-0.977851	0.406262	0.125567
H109	H	-1.235830	0.145918	0.000123
H110	H	-0.919405	0.260815	0.000064
H111	H	-1.192291	-0.022977	0.224556
C112	C	-1.241658	0.021664	0.604577
C113	C	-1.317594	-0.006259	0.544473
C114	C	-1.384778	0.054550	0.496394
C115	C	-1.376028	0.143282	0.508420
C116	C	-1.300089	0.171209	0.568526
C117	C	-1.232904	0.110400	0.616605
H118	H	-1.324075	-0.071948	0.535569
H119	H	-1.440993	0.033875	0.451900
H120	H	-1.425762	0.188296	0.472829
H121	H	-1.293608	0.236898	0.577431
H122	H	-1.176689	0.131075	0.661100
H123	H	-1.183974	-0.030510	0.383121
C124	C	-0.985118	-0.210517	0.788130
C125	C	-0.922960	-0.266749	0.740057
C126	C	-0.855769	-0.327559	0.788127
C127	C	-0.850737	-0.332137	0.884268
C128	C	-0.912897	-0.275902	0.932346
C129	C	-0.980087	-0.215092	0.884276
H130	H	-0.926684	-0.263362	0.668883
H131	H	-0.809754	-0.369188	0.752536
H132	H	-0.800998	-0.377152	0.919852
H133	H	-0.909173	-0.279289	1.003520
H134	H	-1.026102	-0.173464	0.919867
