data_functionalizedCrystal
_audit_creation_method	'MofGen! by Chris Wilmer'
_symmetry_space_group_name_H-M	'P1'
_symmetry_Int_Tables_number	1
_symmetry_cell_setting	triclinic
loop_
_symmetry_equiv_pos_as_xyz
  x,y,z
_cell_length_a	19.188930
_cell_length_b	19.188925
_cell_length_c	15.500227
_cell_angle_alpha	92.818783
_cell_angle_beta	87.151281
_cell_angle_gamma	83.143665
loop_
_atom_site_label
_atom_site_type_symbol
_atom_site_fract_x
_atom_site_fract_y
_atom_site_fract_z
O1	O	0.929413	0.083904	-0.072223
O2	O	1.429413	0.583904	0.427777
O3	O	0.726099	0.095641	-0.072163
O4	O	1.226099	0.595641	0.427837
O5	O	0.833625	-0.011883	-0.072190
O6	O	1.333625	0.488117	0.427810
O7	O	0.821887	0.191428	-0.072196
O8	O	1.321887	0.691428	0.427804
O9	O	0.827100	-0.005384	0.071701
O10	O	1.327100	0.494616	0.571701
O11	O	0.719574	0.102140	0.071727
O12	O	1.219574	0.602140	0.571727
O13	O	0.922889	0.090403	0.071668
O14	O	1.422889	0.590403	0.571668
Cu15	Cu	0.820636	0.096865	0.084836
Cu16	Cu	1.320636	0.596865	0.584836
Cu17	Cu	0.828352	0.089179	-0.085331
Cu18	Cu	1.328352	0.589179	0.414669
O19	O	0.815363	0.197928	0.071694
O20	O	1.315363	0.697928	0.571694
C21	C	0.696825	0.098511	-0.000210
C22	C	1.196825	0.598511	0.499790
C23	C	0.619320	0.097371	-0.000188
C24	C	1.119320	0.597371	0.499812
C25	C	0.574396	0.160462	-0.000203
C26	C	1.074396	0.660462	0.499797
C27	C	0.501572	0.159390	-0.000213
C28	C	1.001572	0.659390	0.499787
C29	C	0.473677	0.095223	-0.000224
C30	C	0.973677	0.595223	0.499776
C31	C	0.518611	0.032124	-0.000204
C32	C	1.018611	0.532124	0.499796
C33	C	0.591433	0.033199	-0.000185
C34	C	1.091433	0.533199	0.499815
N35	N	0.367920	0.043962	-0.049229
N36	N	0.867920	0.543962	0.450771
N37	N	0.298743	0.042946	-0.049248
N38	N	0.798743	0.542946	0.450752
C39	C	0.254271	0.091982	-0.000277
C40	C	0.754271	0.591982	0.499723
N41	N	0.281590	0.142083	0.048704
N42	N	0.781590	0.642083	0.548704
N43	N	0.350774	0.143102	0.048719
N44	N	0.850774	0.643102	0.548719
C45	C	0.394716	0.094051	-0.000243
C46	C	0.894716	0.594051	0.499757
C47	C	0.130383	0.153914	-0.000301
C48	C	0.630383	0.653914	0.499699
C49	C	0.057558	0.152840	-0.000305
C50	C	0.557558	0.652840	0.499695
C51	C	0.074599	0.025573	-0.000305
C52	C	0.574599	0.525573	0.499695
C53	C	0.147422	0.026649	-0.000292
C54	C	0.647422	0.526649	0.499708
C55	C	0.175309	0.090822	-0.000294
C56	C	0.675309	0.590822	0.499706
C57	C	0.829983	-0.034645	-0.000245
C58	C	1.329983	0.465355	0.499755
C59	C	0.828844	-0.112150	-0.000246
C60	C	1.328844	0.387850	0.499754
C61	C	0.884310	-0.673921	-0.000285
C62	C	1.384310	-0.173921	0.499715
C63	C	0.885386	-0.601098	-0.000277
C64	C	1.385386	-0.101098	0.499723
C65	C	0.822293	-0.556163	-0.000259
C66	C	1.322293	-0.056163	0.499741
C67	C	0.758118	-0.584055	-0.000226
C68	C	1.258118	-0.084055	0.499774
C69	C	0.757044	-0.656877	-0.000225
C70	C	1.257044	-0.156877	0.499775
N71	N	0.778837	-0.437694	-0.049222
N72	N	1.278837	0.062306	0.450778
N73	N	0.779863	-0.368517	-0.049225
N74	N	1.279863	0.131483	0.450775
C75	C	0.825527	-0.336754	-0.000260
C76	C	1.325527	0.163246	0.499740
N77	N	0.870139	-0.376783	0.048696
N78	N	1.370139	0.123217	0.548696
N79	N	0.869116	-0.445967	0.048695
N80	N	1.369116	0.054033	0.548695
C81	C	0.823452	-0.477198	-0.000259
C82	C	1.323452	0.022802	0.499741
C83	C	0.890865	-0.229905	-0.000279
C84	C	1.390865	0.270095	0.499721
C85	C	0.891938	-0.157080	-0.000266
C86	C	1.391938	0.342920	0.499734
C87	C	0.764669	-0.140039	-0.000224
C88	C	1.264669	0.359961	0.499776
C89	C	0.763597	-0.212863	-0.000228
C90	C	1.263597	0.287137	0.499772
C91	C	0.826697	-0.257792	-0.000260
C92	C	1.326697	0.242208	0.499740
C93	C	0.952162	0.087533	-0.000287
C94	C	1.452162	0.587533	0.499713
C95	C	1.029668	0.088673	-0.000315
C96	C	1.529668	0.588673	0.499685
C97	C	0.819005	0.220689	-0.000252
C98	C	1.319005	0.720689	0.499748
C99	C	0.820144	0.298193	-0.000257
C100	C	1.320144	0.798193	0.499743
N101	N	0.815214	0.102271	0.204522
N102	N	1.315214	0.602271	0.704522
N103	N	0.833780	0.083768	-0.205017
N104	N	1.333780	0.583768	0.294983
C105	C	0.860792	0.056726	0.249787
C106	C	1.360792	0.556726	0.749787
C107	C	0.856697	0.060820	0.340361
C108	C	1.356697	0.560820	0.840361
C109	C	0.807028	0.110464	0.385668
C110	C	1.307028	0.610464	0.885668
C111	C	0.761445	0.156011	0.340396
C112	C	1.261445	0.656011	0.840396
C113	C	0.765536	0.151913	0.249824
C114	C	1.265536	0.651913	0.749824
C115	C	0.792288	0.125217	0.659139
C116	C	1.292288	0.625217	1.159139
C117	C	0.788202	0.129313	0.749717
C118	C	1.288202	0.629313	1.249717
C119	C	0.883454	0.034121	0.749676
C120	C	1.383454	0.534121	1.249676
C121	C	0.887544	0.030030	0.659102
C122	C	1.387544	0.530030	1.159102
C123	C	0.841959	0.075574	0.613838
C124	C	1.341959	0.575574	1.113838
C125	C	0.802843	0.114652	0.478249
C126	C	1.302843	0.614652	0.978249
C127	C	0.846140	0.071383	0.521259
C128	C	1.346140	0.571383	1.021259
H129	H	0.153089	0.206168	-0.000290
H130	H	0.653089	0.706168	0.499710
H131	H	0.628011	-0.018179	-0.000173
H132	H	1.128011	0.481821	0.499827
Br133	Br	0.480756	-0.054960	-0.000210
Br134	Br	0.980756	0.445040	0.499790
Br135	Br	0.720789	0.196696	0.811200
Br136	Br	1.220789	0.696696	1.311200
Br137	Br	0.208395	-0.058978	-0.000273
Br138	Br	0.708395	0.441022	0.499727
H139	H	0.051891	-0.026676	-0.000368
H140	H	0.551891	0.473324	0.499632
Br141	Br	0.730426	0.187027	0.597714
Br142	Br	1.230426	0.687027	1.097714
H143	H	0.020980	0.204218	-0.000313
H144	H	0.520980	0.704218	0.499687
Br145	Br	0.440591	0.245018	-0.000229
Br146	Br	0.940591	0.745018	0.499771
Br147	Br	0.954956	-0.037341	0.597613
Br148	Br	1.454956	0.462659	1.097613
H149	H	0.720999	0.196430	0.377290
H150	H	1.220999	0.696430	0.877290
Br151	Br	0.969945	-0.734894	-0.000320
Br152	Br	1.469945	-0.234894	0.499680
Br153	Br	0.972475	-0.563243	-0.000301
Br154	Br	1.472475	-0.063243	0.499699
H155	H	0.728421	0.188999	0.212970
H156	H	1.228421	0.688999	0.712970
H157	H	0.893810	0.023734	0.377216
H158	H	1.393810	0.523734	0.877216
H159	H	0.597096	0.212716	-0.000207
H160	H	1.097096	0.712716	0.499793
Br161	Br	0.676509	-0.250710	-0.000196
Br162	Br	1.176509	0.249290	0.499804
H163	H	0.901241	0.016304	0.212905
H164	H	1.401241	0.516304	0.712905
Br165	Br	0.672491	-0.523073	-0.000193
Br166	Br	1.172491	-0.023073	0.499807
Br167	Br	0.669954	-0.694724	-0.000186
Br168	Br	1.169954	-0.194724	0.499814
H169	H	0.920567	-0.002960	0.786538
H170	H	1.420567	0.497040	1.286538
H171	H	0.942245	-0.266489	-0.000304
H172	H	1.442245	0.233511	0.499696
Br173	Br	0.979029	-0.119235	-0.000305
Br174	Br	1.479029	0.380765	0.499695
Br175	Br	0.679040	-0.079062	-0.000183
Br176	Br	1.179040	0.420938	0.499817
H177	H	0.886579	0.030960	0.484367
H178	H	1.386579	0.530960	0.984367
H179	H	0.762402	0.155074	0.515145
H180	H	1.262402	0.655074	1.015145
