data_functionalizedCrystal
_audit_creation_method	'MofGen! by Chris Wilmer'
_symmetry_space_group_name_H-M	'P1'
_symmetry_Int_Tables_number	1
_symmetry_cell_setting	triclinic
loop_
_symmetry_equiv_pos_as_xyz
  x,y,z
_cell_length_a	21.295418
_cell_length_b	16.994686
_cell_length_c	21.295411
_cell_angle_alpha	89.888743
_cell_angle_beta	90.043738
_cell_angle_gamma	89.929734
loop_
_atom_site_label
_atom_site_type_symbol
_atom_site_fract_x
_atom_site_fract_y
_atom_site_fract_z
Zn1	Zn	0.962866	-0.313787	0.356815
Zn2	Zn	0.962983	-0.445674	0.251785
Zn3	Zn	0.857589	-0.313824	0.251525
Zn4	Zn	0.857773	-0.445690	0.356981
O5	O	0.910303	-0.379744	0.304276
O6	O	1.050971	-0.331260	0.342922
O7	O	0.948974	-0.428193	0.163661
O8	O	0.871428	-0.203437	0.265313
O9	O	1.051056	-0.428157	0.265756
O10	O	0.948775	-0.203410	0.342670
O11	O	0.871542	-0.331323	0.163470
O12	O	0.769524	-0.331338	0.265475
O13	O	0.871742	-0.428184	0.445048
O14	O	0.769659	-0.428220	0.342953
O15	O	0.948953	-0.331275	0.444926
O16	O	0.949152	-0.556058	0.265917
O17	O	0.871855	-0.556070	0.343205
C18	C	0.746751	-0.379785	0.304204
C19	C	0.676783	-0.379822	0.304188
C20	C	0.910475	-0.674005	0.304541
C21	C	0.910488	-0.584683	0.304558
Zn22	Zn	0.858159	-0.944362	0.250655
Zn23	Zn	0.857002	-0.813104	0.356181
Zn24	Zn	0.963594	-0.812908	0.252385
Zn25	Zn	0.962036	-0.945400	0.357326
O26	O	0.910197	-0.878943	0.304136
O27	O	0.769923	-0.926598	0.263450
O28	O	0.871309	-0.702698	0.342657
O29	O	0.950743	-0.829829	0.164074
O30	O	0.769073	-0.830163	0.340979
O31	O	0.873281	-0.926408	0.162803
O32	O	0.949622	-0.702554	0.266398
O33	O	1.051469	-0.830835	0.267508
O34	O	0.948089	-1.055642	0.342931
O35	O	1.050324	-0.928177	0.344608
O36	O	0.871771	-1.054879	0.264560
O37	O	0.869799	-0.831170	0.444414
O38	O	0.946967	-0.928367	0.445255
C39	C	0.644003	-0.430335	0.344471
C40	C	0.578261	-0.430316	0.344499
C41	C	0.545300	-0.379791	0.304233
C42	C	0.578088	-0.329269	0.263947
C43	C	0.643829	-0.329284	0.263925
N44	N	0.442014	-0.373617	0.249164
N45	N	0.379563	-0.373608	0.249187
C46	C	0.347226	-0.379741	0.304300
N47	N	0.379699	-0.385900	0.359389
N48	N	0.442156	-0.385914	0.359365
C49	C	0.474015	-0.379769	0.304253
C50	C	0.243160	-0.430236	0.344617
C51	C	0.177417	-0.430211	0.344646
C52	C	0.177245	-0.329168	0.264089
C53	C	0.242988	-0.329189	0.264065
C54	C	0.275941	-0.379727	0.304328
C55	C	1.074493	-0.379703	0.304349
C56	C	1.144461	-0.379685	0.304380
C57	C	0.910355	-0.379727	0.468467
C58	C	0.910377	-0.379720	0.538435
C59	C	0.910064	-0.174002	0.303942
C60	C	0.909962	-0.084680	0.303798
C61	C	0.910287	-0.379703	0.140725
C62	C	0.910386	-0.379488	0.070757
C63	C	0.950579	-0.329257	0.571239
C64	C	0.950578	-0.329223	0.636981
C65	C	0.910382	-0.379666	0.669917
C66	C	0.870172	-0.430132	0.637105
C67	C	0.870169	-0.430159	0.571364
N68	N	0.905637	-0.448671	0.773259
N69	N	0.905643	-0.448643	0.835710
C70	C	0.910386	-0.379586	0.867992
N71	N	0.915134	-0.310556	0.835463
N72	N	0.915131	-0.310585	0.773006
C73	C	0.910380	-0.379641	0.741203
C74	C	0.950589	-0.329082	0.972081
C75	C	0.950584	-0.329046	1.037825
C76	C	0.870180	-0.429962	1.037948
C77	C	0.870182	-0.429990	0.972205
C78	C	0.910390	-0.379551	0.939276
C79	C	1.073735	-0.879598	0.306371
C80	C	1.143697	-0.879897	0.307341
C81	C	0.908086	-0.879900	0.467673
C82	C	0.907165	-0.880286	0.537634
C83	C	0.746021	-0.878287	0.301894
C84	C	0.676059	-0.878007	0.300938
C85	C	0.912315	-0.877981	0.139962
C86	C	0.913218	-0.877571	0.070000
C87	C	1.175942	-0.930646	0.348001
C88	C	1.241678	-0.930943	0.348914
C89	C	1.275169	-0.880486	0.309168
C90	C	1.242921	-0.829735	0.268504
C91	C	1.177185	-0.829443	0.267589
C92	C	0.866518	-0.829903	0.570031
C93	C	0.865640	-0.830265	0.635767
C94	C	0.905413	-0.881007	0.669104
C95	C	0.946062	-0.931396	0.636702
C96	C	0.946936	-0.931037	0.570968
C97	C	0.643643	-0.928090	0.260124
C98	C	0.577906	-0.927843	0.259226
C99	C	0.544586	-0.877508	0.299140
C100	C	0.577006	-0.827423	0.339959
C101	C	0.642742	-0.827674	0.340859
C102	C	0.953977	-0.827095	0.037804
C103	C	0.954838	-0.826710	-0.027932
C104	C	0.914935	-0.876797	-0.061471
C105	C	0.874174	-0.927279	-0.029270
C106	C	0.873317	-0.927667	0.036465
H107	H	0.670830	-0.471486	0.377257
C108	C	0.994811	-0.273595	0.935856
C109	C	1.044275	-0.307782	0.890764
C110	C	1.088497	-0.252295	0.854541
C111	C	1.083257	-0.162620	0.863410
C112	C	1.033791	-0.128429	0.908504
C113	C	0.989569	-0.183916	0.944727
H114	H	1.048156	-0.374168	0.884196
H115	H	1.125115	-0.277606	0.821159
H116	H	1.115993	-0.121546	0.836595
H117	H	1.029910	-0.062042	0.915071
H118	H	0.952951	-0.158604	0.978108
H119	H	0.988030	-0.785598	-0.054141
C120	C	0.678394	-0.772572	0.385755
C121	C	0.722896	-0.807200	0.435723
C122	C	0.758543	-0.752095	0.480622
C123	C	0.749687	-0.662363	0.475554
C124	C	0.705183	-0.627730	0.425584
C125	C	0.669536	-0.682835	0.380684
H126	H	0.729453	-0.873630	0.439477
H127	H	0.791488	-0.777733	0.517613
H128	H	0.776075	-0.621571	0.508791
H129	H	0.698626	-0.561301	0.421830
H130	H	0.636591	-0.657197	0.343693
C131	C	0.997877	-0.771998	0.074688
C132	C	1.069539	-0.778684	0.066614
C133	C	1.113445	-0.723589	0.103493
C134	C	1.085690	-0.661809	0.148447
C135	C	1.014025	-0.655121	0.156523
C136	C	0.970118	-0.710216	0.119643
H137	H	1.090088	-0.824420	0.033335
H138	H	1.166497	-0.728541	0.097515
H139	H	1.118192	-0.621025	0.175747
H140	H	0.993475	-0.609385	0.189802
H141	H	0.917067	-0.705264	0.125622
C142	C	0.820929	-0.774826	0.671400
C143	C	0.777192	-0.719002	0.634725
C144	C	0.732482	-0.663563	0.670356
C145	C	0.731510	-0.663948	0.742662
C146	C	0.775249	-0.719774	0.779341
C147	C	0.819959	-0.775214	0.743710
H148	H	0.777910	-0.718715	0.581197
H149	H	0.700104	-0.622236	0.643204
H150	H	0.698414	-0.622908	0.769038
H151	H	0.774531	-0.720061	0.832869
H152	H	0.852337	-0.816540	0.770862
C153	C	0.279414	-0.485815	0.388912
C154	C	0.351727	-0.485838	0.388887
C155	C	0.387979	-0.541416	0.433183
C156	C	0.351919	-0.596972	0.477504
C157	C	0.279602	-0.596951	0.477531
C158	C	0.243350	-0.541373	0.433235
H159	H	0.378425	-0.444711	0.356076
H160	H	0.441513	-0.541432	0.433163
H161	H	0.378754	-0.638114	0.510295
H162	H	0.252904	-0.638078	0.510342
H163	H	0.189816	-0.541357	0.433255
H164	H	0.915640	-0.876473	-0.114996
H165	H	0.904695	-0.881291	0.722630
H166	H	1.148682	-0.971734	0.380370
H167	H	1.150937	-0.788112	0.234480
H168	H	0.551248	-0.288130	0.231164
C169	C	0.825962	-0.485449	1.074169
C170	C	0.825961	-0.485422	1.146482
C171	C	0.781739	-0.540908	1.182706
C172	C	0.737518	-0.596422	1.146618
C173	C	0.737517	-0.596452	1.074301
C174	C	0.781739	-0.540965	1.038077
H175	H	0.858697	-0.444325	1.173200
H176	H	0.781740	-0.540886	1.236240
H177	H	0.704782	-0.637497	1.173434
H178	H	0.704781	-0.637548	1.047583
H179	H	0.781739	-0.540987	0.984543
C180	C	0.542191	-0.485887	0.388808
C181	C	0.551296	-0.575550	0.383692
C182	C	0.515228	-0.631122	0.427999
C183	C	0.470055	-0.597031	0.477424
C184	C	0.460949	-0.507363	0.482542
C185	C	0.497016	-0.451791	0.438235
H186	H	0.584737	-0.600791	0.347103
H187	H	0.521970	-0.697501	0.424210
H188	H	0.443356	-0.638169	0.510223
H189	H	0.427507	-0.482122	0.519131
H190	H	0.490275	-0.385413	0.442024
C191	C	0.830290	-0.982374	-0.066174
C192	C	0.781523	-0.947723	-0.111976
C193	C	0.737641	-1.002817	-0.148885
C194	C	0.742526	-1.092563	-0.139992
C195	C	0.791295	-1.127219	-0.094188
C196	C	0.835177	-1.072125	-0.057279
H197	H	0.777905	-0.881283	-0.118561
H198	H	0.701539	-0.977161	-0.182792
H199	H	0.710042	-1.133347	-0.167314
H200	H	0.794913	-1.193658	-0.087603
H201	H	0.871279	-1.097780	-0.023371
H202	H	0.978443	-0.972711	0.663855
C203	C	0.991661	-0.986456	0.535338
C204	C	1.063099	-0.980265	0.545410
C205	C	1.107828	-1.035686	0.509786
C206	C	1.081119	-1.097298	0.464090
C207	C	1.009678	-1.103492	0.454016
C208	C	0.964949	-1.048070	0.489640
H209	H	1.082873	-0.934653	0.579238
H210	H	1.160713	-1.031101	0.517244
H211	H	1.114230	-1.138324	0.437719
H212	H	0.989903	-1.149103	0.420188
H213	H	0.912063	-1.052655	0.482183
H214	H	0.983320	-0.287949	1.064533
C215	C	0.542252	-0.982933	0.214318
C216	C	0.496624	-1.044860	0.240825
C217	C	0.460973	-1.099948	0.195916
C218	C	0.470950	-1.093110	0.124501
C219	C	0.516580	-1.031182	0.097991
C220	C	0.552231	-0.976093	0.142899
H221	H	0.489237	-1.049924	0.293694
H222	H	0.427195	-1.145792	0.215542
H223	H	0.444559	-1.133890	0.091257
H224	H	0.523967	-1.026118	0.045122
H225	H	0.586010	-0.930249	0.123274
C226	C	0.994807	-0.273715	0.673075
C227	C	0.967469	-0.211772	0.718140
C228	C	1.011698	-0.156264	0.754231
C229	C	1.083266	-0.162700	0.745256
C230	C	1.110608	-0.224645	0.700188
C231	C	1.066379	-0.280153	0.664098
H232	H	0.914487	-0.207005	0.724786
H233	H	0.991458	-0.110408	0.787593
H234	H	1.116008	-0.121610	0.771972
H235	H	1.163590	-0.229412	0.693542
H236	H	1.086619	-0.326009	0.630736
C237	C	0.679892	-0.273722	0.219607
C238	C	0.725059	-0.307826	0.170184
C239	C	0.761124	-0.252265	0.125865
C240	C	0.752022	-0.162600	0.130969
C241	C	0.706853	-0.128492	0.180395
C242	C	0.670788	-0.184052	0.224714
H243	H	0.731799	-0.374205	0.166403
H244	H	0.794562	-0.277516	0.089276
H245	H	0.778720	-0.121471	0.098162
H246	H	0.700113	-0.062112	0.184176
H247	H	0.637351	-0.158802	0.261302
C248	C	0.141357	-0.485779	0.388962
C249	C	0.150462	-0.575442	0.383848
C250	C	0.114402	-0.631012	0.428164
C251	C	0.069238	-0.596917	0.477595
C252	C	0.060132	-0.507249	0.482711
C253	C	0.096191	-0.451680	0.438395
H254	H	0.183897	-0.600685	0.347254
H255	H	0.121144	-0.697390	0.424377
H256	H	0.042545	-0.638053	0.510401
H257	H	0.026697	-0.482006	0.519305
H258	H	0.089450	-0.385301	0.442182
C259	C	0.825960	-0.485509	0.936122
C260	C	0.754393	-0.479083	0.945105
C261	C	0.710165	-0.534602	0.909024
C262	C	0.737504	-0.596547	0.863960
C263	C	0.809075	-0.602975	0.854975
C264	C	0.853303	-0.547456	0.891056
H265	H	0.734151	-0.433226	0.978465
H266	H	0.657183	-0.529843	0.915675
H267	H	0.704764	-0.637645	0.837251
H268	H	0.829317	-0.648832	0.821615
H269	H	0.906285	-0.552214	0.884405
H270	H	0.834130	-0.788578	0.542897
H271	H	0.670763	-0.969080	0.227619
H272	H	0.491060	-0.877311	0.298401
C273	C	0.140997	-0.273588	0.219796
C274	C	0.068685	-0.273566	0.219819
C275	C	0.032433	-0.217982	0.175527
C276	C	0.068495	-0.162419	0.131213
C277	C	0.140812	-0.162439	0.131188
C278	C	0.177063	-0.218023	0.175480
H279	H	0.041986	-0.314699	0.252625
H280	H	-0.021101	-0.217968	0.175546
H281	H	0.041659	-0.121272	0.098425
H282	H	0.167510	-0.121306	0.098382
H283	H	0.230597	-0.218037	0.175461
C284	C	1.277143	-0.986765	0.393652
C285	C	1.240298	-1.042251	0.437378
C286	C	1.275760	-1.098072	0.482117
C287	C	1.348066	-1.098407	0.483131
C288	C	1.384915	-1.042919	0.439404
C289	C	1.349453	-0.987098	0.394665
H290	H	1.186769	-1.042006	0.436629
H291	H	1.248482	-1.139148	0.514487
H292	H	1.374317	-1.139729	0.516250
H293	H	1.438444	-1.043164	0.440153
H294	H	1.376731	-0.946021	0.362295
H295	H	1.328695	-0.880731	0.309920
H296	H	0.269677	-0.288059	0.231259
C297	C	1.279767	-0.774230	0.224790
C298	C	1.352073	-0.774553	0.225809
C299	C	1.388921	-0.719044	0.182099
C300	C	1.353462	-0.663211	0.137371
C301	C	1.281152	-0.662886	0.136351
C302	C	1.244304	-0.718395	0.180061
H303	H	1.378325	-0.815885	0.258921
H304	H	1.442450	-0.719285	0.182855
H305	H	1.380739	-0.622120	0.105015
H306	H	1.254900	-0.621554	0.103239
H307	H	1.190775	-0.718154	0.179305
H308	H	0.549867	-0.786442	0.372456
H309	H	0.983319	-0.288185	0.544432
H310	H	0.840122	-0.968769	0.062674
H311	H	0.837441	-0.471200	0.663926
H312	H	0.837429	-0.471251	0.544655
