data_functionalizedCrystal
_audit_creation_method	'MofGen! by Chris Wilmer'
_symmetry_space_group_name_H-M	'P1'
_symmetry_Int_Tables_number	1
_symmetry_cell_setting	triclinic
loop_
_symmetry_equiv_pos_as_xyz
  x,y,z
_cell_length_a	12.759401
_cell_length_b	16.959454
_cell_length_c	12.759393
_cell_angle_alpha	89.969082
_cell_angle_beta	89.982620
_cell_angle_gamma	90.020236
loop_
_atom_site_label
_atom_site_type_symbol
_atom_site_fract_x
_atom_site_fract_y
_atom_site_fract_z
Zn1	Zn	1.606205	-0.314630	-0.593988
Zn2	Zn	1.606086	-0.446832	-0.418310
Zn3	Zn	1.430510	-0.314672	-0.418327
Zn4	Zn	1.430479	-0.446771	-0.593952
O5	O	1.518320	-0.380726	-0.506144
O6	O	1.753210	-0.332175	-0.570692
O7	O	1.582759	-0.429344	-0.271291
O8	O	1.453879	-0.204055	-0.441651
O9	O	1.753123	-0.429303	-0.441622
O10	O	1.582961	-0.204025	-0.570708
O11	O	1.453764	-0.332246	-0.271304
O12	O	1.283485	-0.332187	-0.441616
O13	O	1.453826	-0.429199	-0.740978
O14	O	1.283462	-0.429239	-0.570647
O15	O	1.582931	-0.332116	-0.741004
O16	O	1.582728	-0.557435	-0.441588
O17	O	1.453711	-0.557390	-0.570631
C18	C	1.245352	-0.380712	-0.506130
C19	C	1.128576	-0.380724	-0.506149
C20	C	1.518232	-0.586092	-0.506126
C21	C	1.518290	-0.673949	-0.506154
C22	C	1.073729	-0.431341	-0.573224
C23	C	0.964005	-0.431351	-0.573235
C24	C	0.963984	-0.330126	-0.439087
C25	C	1.073706	-0.330113	-0.439082
C26	C	1.128599	-0.481952	-0.640291
C27	C	1.073753	-0.532573	-0.707370
C28	C	0.964029	-0.532583	-0.707382
C29	C	0.909151	-0.481972	-0.640313
C30	C	1.451238	-1.045431	-0.573330
C31	C	1.585695	-1.045418	-0.439066
C32	C	1.585658	-0.962872	-0.439056
C33	C	1.518409	-0.921602	-0.506183
C34	C	1.451197	-0.962878	-0.573320
C35	C	1.652861	-0.921590	-0.371913
C36	C	1.652826	-0.839039	-0.371900
C37	C	1.585582	-0.797768	-0.439033
C38	C	1.518368	-0.839048	-0.506173
C39	C	1.451119	-0.797778	-0.573300
C40	C	1.383909	-0.839057	-0.640447
C41	C	1.383952	-0.921606	-0.640453
C42	C	1.585539	-0.715219	-0.439027
C43	C	1.451078	-0.715225	-0.573291
C44	C	1.792353	-0.380741	-0.506159
C45	C	1.909130	-0.380748	-0.506165
C46	C	1.518388	-0.380646	-0.780178
C47	C	1.518417	-0.380611	-0.896954
C48	C	1.518437	-0.174558	-0.506185
C49	C	1.518487	-0.086701	-0.506203
C50	C	1.451278	-0.330043	-0.951829
C51	C	1.451310	-0.330020	-1.061553
C52	C	1.585629	-0.431135	-1.061518
C53	C	1.585591	-0.431161	-0.951796
C54	C	1.384104	-0.279493	-0.896987
C55	C	1.316960	-0.228920	-0.951861
C56	C	1.316992	-0.228897	-1.061585
C57	C	1.384168	-0.279446	-1.116435
C58	C	1.518312	-0.380749	-0.233177
C59	C	1.518487	-0.380561	-0.116401
H60	H	1.217942	-0.481951	-0.640287
H61	H	1.640439	-1.079025	-0.384408
H62	H	1.118441	-0.573774	-0.761982
C63	C	1.243850	-0.174143	-0.892370
C64	C	1.139897	-0.191357	-0.919033
C65	C	1.072516	-0.140920	-0.864242
H66	H	1.259121	-0.121003	-0.910323
H67	H	1.253375	-0.181405	-0.819154
H68	H	1.130377	-0.184088	-0.992233
H69	H	1.124593	-0.244488	-0.901077
H70	H	1.082041	-0.148182	-0.791026
H71	H	1.087797	-0.087782	-0.882200
H72	H	1.001976	-0.152597	-0.882318
H73	H	1.640276	-0.472328	-0.907116
H74	H	1.707604	-0.955199	-0.317254
H75	H	0.919375	-0.573795	-0.762009
H76	H	0.819806	-0.481978	-0.640337
H77	H	0.919294	-0.288922	-0.384483
C78	C	1.725917	-0.794368	-0.298970
C79	C	1.784836	-0.848181	-0.240205
C80	C	1.852191	-0.807058	-0.173026
H81	H	1.685861	-0.762202	-0.253061
H82	H	1.771713	-0.762143	-0.339178
H83	H	1.739046	-0.880392	-0.200000
H84	H	1.824913	-0.880348	-0.286086
H85	H	1.897986	-0.774833	-0.213234
H86	H	1.812126	-0.774893	-0.127124
H87	H	1.892182	-0.843563	-0.133153
H88	H	1.118363	-0.288891	-0.384471
C89	C	1.658528	-0.485920	-1.121256
C90	C	1.644213	-0.475056	-1.229091
C91	C	1.711364	-0.525500	-1.284152
H92	H	1.643186	-0.539065	-1.103391
H93	H	1.729141	-0.474350	-1.103333
H94	H	1.573616	-0.486631	-1.247007
H95	H	1.659562	-0.421920	-1.246987
H96	H	1.781977	-0.513930	-1.266229
H97	H	1.696016	-0.578643	-1.266278
H98	H	1.701667	-0.518131	-1.357323
H99	H	1.640255	-0.681613	-0.384352
H100	H	1.329150	-0.805446	-0.695097
H101	H	1.329233	-0.955223	-0.695119
C102	C	1.243956	-0.174130	-1.121216
C103	C	1.176587	-0.218867	-1.184168
C104	C	1.109281	-0.168440	-1.239100
H105	H	1.284051	-0.139665	-1.164119
H106	H	1.203886	-0.144047	-1.072866
H107	H	1.216653	-0.248936	-1.232513
H108	H	1.136469	-0.253329	-1.141292
H109	H	1.069211	-0.138358	-1.190749
H110	H	1.149385	-0.133978	-1.281996
H111	H	1.063557	-0.198788	-1.281811
C112	C	1.377951	-0.670562	-0.646217
C113	C	1.319090	-0.724383	-0.705001
C114	C	1.251707	-0.683270	-0.772182
H115	H	1.417983	-0.638312	-0.692114
H116	H	1.332119	-0.638423	-0.606010
H117	H	1.364916	-0.756509	-0.745205
H118	H	1.279036	-0.756635	-0.659131
H119	H	1.205875	-0.651130	-0.731975
H120	H	1.291748	-0.651021	-0.818072
H121	H	1.211755	-0.719781	-0.812068
C122	C	1.378308	-1.090385	-0.646113
C123	C	1.392716	-1.171512	-0.631745
C124	C	1.325541	-1.212949	-0.698764
H125	H	1.393570	-1.076907	-0.716757
H126	H	1.307697	-1.076949	-0.630661
H127	H	1.463311	-1.184943	-0.647203
H128	H	1.377446	-1.185015	-0.561115
H129	H	1.254930	-1.199512	-0.683313
H130	H	1.340809	-1.199464	-0.769404
H131	H	1.335301	-1.267997	-0.689018
H132	H	1.384073	-0.279505	-0.807644
H133	H	1.384185	-0.279425	-1.205780
