data_functionalizedCrystal
_audit_creation_method	'MofGen! by Chris Wilmer'
_symmetry_space_group_name_H-M	'P1'
_symmetry_Int_Tables_number	1
_symmetry_cell_setting	triclinic
loop_
_symmetry_equiv_pos_as_xyz
  x,y,z
_cell_length_a	12.759401
_cell_length_b	12.759393
_cell_length_c	12.759387
_cell_angle_alpha	89.972388
_cell_angle_beta	90.019653
_cell_angle_gamma	89.983648
loop_
_atom_site_label
_atom_site_type_symbol
_atom_site_fract_x
_atom_site_fract_y
_atom_site_fract_z
Zn1	Zn	1.606252	0.418172	0.594042
Zn2	Zn	1.606147	0.593888	0.418371
Zn3	Zn	1.430555	0.418228	0.418377
Zn4	Zn	1.430542	0.593814	0.594009
O5	O	1.518374	0.506025	0.506200
O6	O	1.753259	0.441488	0.570751
O7	O	1.582815	0.570640	0.271351
O8	O	1.453911	0.271199	0.441696
O9	O	1.753182	0.570586	0.441686
O10	O	1.582995	0.271158	0.570756
O11	O	1.453809	0.441584	0.271355
O12	O	1.283532	0.441513	0.441664
O13	O	1.453890	0.570460	0.741034
O14	O	1.283523	0.570515	0.570699
O15	O	1.582983	0.441417	0.741059
O16	O	1.582803	0.740899	0.441654
O17	O	1.453787	0.740845	0.570694
C18	C	1.245407	0.506013	0.506179
C19	C	1.128630	0.506032	0.506195
C20	C	1.518311	0.778993	0.506192
C21	C	1.518380	0.895770	0.506224
C22	C	1.073791	0.573306	0.573278
C23	C	0.964067	0.573310	0.573299
C24	C	0.964031	0.438764	0.439145
C25	C	1.073753	0.438755	0.439130
C26	C	0.814168	0.611008	0.697162
C27	C	0.759325	0.678298	0.764235
C28	C	0.794922	0.780829	0.780189
C29	C	0.885360	0.816091	0.729053
C30	C	0.940198	0.748806	0.661971
C31	C	0.904602	0.646261	0.646038
C32	C	1.223654	0.401068	0.315266
C33	C	1.278493	0.333788	0.248178
C34	C	1.242898	0.231255	0.232214
C35	C	1.152456	0.195997	0.283332
C36	C	1.097617	0.263277	0.350419
C37	C	1.133219	0.365809	0.366385
C38	C	1.652825	0.895773	0.371955
C39	C	1.720075	0.950635	0.304837
C40	C	1.720137	1.060356	0.304873
C41	C	1.652943	1.115218	0.372036
C42	C	1.585693	1.060356	0.439155
C43	C	1.585637	0.950632	0.439109
C44	C	1.451255	1.060353	0.573427
C45	C	1.451187	0.950631	0.573388
C46	C	1.384062	1.115215	0.640591
C47	C	1.316805	1.060352	0.707705
C48	C	1.316746	0.950624	0.707666
C49	C	1.383937	0.895769	0.640506
C50	C	1.792407	0.506039	0.506222
C51	C	1.909184	0.506045	0.506231
C52	C	1.518446	0.505924	0.780234
C53	C	1.518477	0.505881	0.897010
C54	C	1.518466	1.231992	0.506247
C55	C	1.518505	1.115215	0.506309
C56	C	1.518362	0.506051	0.233232
C57	C	1.518535	0.505798	0.116456
C58	C	1.652969	0.371434	1.116479
C59	C	1.720168	0.304267	1.061630
C60	C	1.720138	0.304302	0.951909
C61	C	1.652904	0.371513	0.897034
C62	C	1.585706	0.438679	0.951883
C63	C	1.585741	0.438635	1.061607
C64	C	1.451279	0.573047	0.951860
C65	C	1.451301	0.573009	1.061581
C66	C	1.384045	0.640258	0.896985
C67	C	1.316840	0.707421	0.951834
C68	C	1.316871	0.707382	1.061562
C69	C	1.384103	0.640175	1.116431
H70	H	1.118469	0.628085	0.627890
Cl71	Cl	1.384173	0.757833	0.640757
Cl72	Cl	1.311832	0.146681	0.147859
H73	H	1.774859	0.249611	0.907250
Cl74	Cl	1.384143	0.640115	1.254367
H75	H	1.013830	0.777516	0.620337
H76	H	1.774785	0.905957	0.250155
H77	H	1.261987	0.905961	0.762326
H78	H	1.262154	0.762082	1.106214
H79	H	1.384122	1.204556	0.640619
H80	H	1.652986	0.371385	1.205821
Cl81	Cl	1.804685	1.129329	0.220500
Cl82	Cl	1.804689	0.219782	1.130620
H83	H	1.652768	0.806432	0.371906
Cl84	Cl	1.652883	0.371568	0.759097
Cl85	Cl	1.384012	0.640306	0.759048
H86	H	1.262107	1.105029	0.762389
H87	H	1.262109	0.762143	0.907146
H88	H	0.914330	0.899586	0.742039
H89	H	0.750262	0.835617	0.834803
Cl90	Cl	1.392182	0.378120	0.183900
H91	H	0.685690	0.649578	0.805871
H92	H	0.785183	0.527516	0.684189
H93	H	1.123462	0.112513	0.270317
Cl94	Cl	1.268312	0.530026	0.335199
H95	H	0.919336	0.383991	0.384541
Cl96	Cl	1.652579	1.253154	0.371634
Cl97	Cl	0.983912	0.218954	0.414678
