data_functionalizedCrystal
_audit_creation_method	'MofGen! by Chris Wilmer'
_symmetry_space_group_name_H-M	'P1'
_symmetry_Int_Tables_number	1
_symmetry_cell_setting	triclinic
loop_
_symmetry_equiv_pos_as_xyz
  x,y,z
_cell_length_a	18.101398
_cell_length_b	19.120786
_cell_length_c	18.101389
_cell_angle_alpha	92.460644
_cell_angle_beta	90.024327
_cell_angle_gamma	92.460164
loop_
_atom_site_label
_atom_site_type_symbol
_atom_site_fract_x
_atom_site_fract_y
_atom_site_fract_z
Zn1	Zn	1.119565	-0.279790	0.406239
Zn2	Zn	1.619565	0.220210	0.906239
Zn3	Zn	1.114191	-0.397230	0.277109
Zn4	Zn	1.614191	0.102770	0.777109
Zn5	Zn	0.995724	-0.279782	0.282401
Zn6	Zn	1.495724	0.220218	0.782401
Zn7	Zn	0.990406	-0.397200	0.400899
Zn8	Zn	1.490406	0.102800	0.900899
O9	O	1.054972	-0.338501	0.341662
O10	O	1.554972	0.161499	0.841662
O11	O	1.222484	-0.295384	0.389130
O12	O	1.722484	0.204616	0.889130
O13	O	1.098453	-0.381660	0.174178
O14	O	1.598453	0.118340	0.674178
O15	O	1.016627	-0.181494	0.303278
O16	O	1.516627	0.318506	0.803278
O17	O	1.218536	-0.381667	0.294259
O18	O	1.718536	0.118333	0.794259
O19	O	1.107612	-0.181499	0.394261
O20	O	1.607612	0.318501	0.894261
O21	O	1.011416	-0.295372	0.178066
O22	O	1.511416	0.204628	0.678066
O23	O	0.891387	-0.295342	0.298100
O24	O	1.391387	0.204658	0.798100
O25	O	1.007563	-0.381616	0.505241
O26	O	1.507563	0.118384	1.005241
O27	O	0.887479	-0.381609	0.385160
O28	O	1.387479	0.118391	0.885160
O29	O	1.102455	-0.295355	0.509164
O30	O	1.602455	0.204645	1.009164
O31	O	1.093295	-0.495516	0.289081
O32	O	1.593295	0.004484	0.789081
O33	O	1.002351	-0.495494	0.380029
O34	O	1.502351	0.004506	0.880029
C35	C	0.862562	-0.338472	0.341625
C36	C	1.362562	0.161528	0.841625
C37	C	0.780248	-0.338477	0.341626
C38	C	1.280248	0.161523	0.841626
C39	C	0.481155	-0.338521	0.341686
C40	C	0.981155	0.161479	0.841686
C41	C	0.514926	-0.283973	0.287201
C42	C	1.014926	0.216027	0.787201
C43	C	0.600538	-0.284119	0.286952
C44	C	1.100538	0.215881	0.786952
C45	C	0.629539	-0.338498	0.341656
C46	C	1.129539	0.161502	0.841656
C47	C	0.595100	-0.412484	0.317000
C48	C	1.095100	0.087516	0.817000
C49	C	0.509469	-0.412181	0.316618
C50	C	1.009469	0.087819	0.816618
C51	C	0.513613	-0.319726	0.420932
C52	C	1.013613	0.180274	0.920932
C53	C	0.599338	-0.318078	0.420578
C54	C	1.099338	0.181922	0.920578
C55	C	0.713398	-0.338490	0.341640
C56	C	1.213398	0.161510	0.841640
C57	C	0.397295	-0.338534	0.341700
C58	C	0.897295	0.161466	0.841700
C59	C	1.046683	-0.520990	0.333418
C60	C	1.546683	-0.020990	0.833418
C61	C	1.043205	-0.599060	0.329915
C62	C	1.543205	-0.099060	0.829915
C63	C	1.088907	-0.635679	0.375679
C64	C	1.588907	-0.135679	0.875679
C65	C	1.085636	-0.709034	0.372389
C66	C	1.585636	-0.209034	0.872389
C67	C	1.036666	-0.745768	0.323332
C68	C	1.536666	-0.245768	0.823332
C69	C	0.990959	-0.709143	0.277567
C70	C	1.490959	-0.209143	0.777567
C71	C	0.994227	-0.635790	0.280860
C72	C	1.494227	-0.135790	0.780860
C73	C	1.024428	-0.967251	0.311018
C74	C	1.524428	-0.467251	0.811018
C75	C	1.021165	-1.040609	0.307726
C76	C	1.521165	-0.540609	0.807726
C77	C	1.115841	-1.040495	0.402550
C78	C	1.615841	-0.540495	0.902550
C79	C	1.119108	-0.967141	0.405836
C80	C	1.619108	-0.467141	0.905836
C81	C	1.073398	-0.930522	0.360074
C82	C	1.573398	-0.430522	0.860074
C83	C	1.033323	-0.820748	0.319966
C84	C	1.533323	-0.320748	0.819966
C85	C	1.076738	-0.855543	0.363443
C86	C	1.576738	-0.355543	0.863443
C87	C	1.248132	-0.338530	0.341700
C88	C	1.748132	0.161470	0.841700
C89	C	1.330446	-0.338542	0.341716
C90	C	1.830446	0.161458	0.841716
C91	C	1.055015	-0.338483	0.534825
C92	C	1.555015	0.161517	1.034825
C93	C	1.055034	-0.338475	0.617140
C94	C	1.555034	0.161525	1.117140
C95	C	1.063313	-0.155299	0.349956
C96	C	1.563313	0.344701	0.849956
C97	C	1.066867	-0.077229	0.353490
C98	C	1.566867	0.422771	0.853490
C99	C	1.054973	-0.338468	0.149253
C100	C	1.554973	0.161532	0.649253
C101	C	1.055107	-0.338277	0.066948
C102	C	1.555107	0.161723	0.566948
C103	C	1.055083	-0.338344	0.916237
C104	C	1.555083	0.161656	1.416237
C105	C	0.995189	-0.392444	0.882451
C106	C	1.495189	0.107556	1.382451
C107	C	0.995333	-0.392695	0.796821
C108	C	1.495333	0.107305	1.296821
C109	C	1.055058	-0.338409	0.767851
C110	C	1.555058	0.161591	1.267851
C111	C	1.132181	-0.358507	0.798052
C112	C	1.632181	0.141493	1.298052
C113	C	1.131845	-0.358862	0.883681
C114	C	1.631845	0.141138	1.383681
C115	C	1.038537	-0.264025	0.888008
C116	C	1.538537	0.235975	1.388008
C117	C	1.036781	-0.264454	0.802337
C118	C	1.536781	0.235546	1.302337
C119	C	1.055049	-0.338445	0.683990
C120	C	1.555049	0.161555	1.183990
C121	C	1.055097	-0.338310	1.000098
C122	C	1.555097	0.161690	1.500098
H123	H	0.619090	-0.354914	0.463618
H124	H	1.119090	0.145086	0.963618
H125	H	1.077487	-0.222006	0.782865
H126	H	1.577487	0.277994	1.282865
O127	O	0.482009	-0.433288	0.239748
O128	O	0.982009	0.066712	0.739748
H129	H	0.450302	-0.390306	0.217738
H130	H	0.950302	0.109694	0.717738
O131	O	1.134929	-0.748529	0.421751
O132	O	1.634929	-0.248529	0.921751
H133	H	1.171132	-0.781943	0.387144
H134	H	1.671132	-0.281943	0.887144
O135	O	1.171949	-0.927520	0.458724
O136	O	1.671949	-0.427520	0.958724
H137	H	1.203185	-0.965308	0.489989
H138	H	1.703185	-0.465308	0.989989
O139	O	0.488199	-0.249504	0.449773
O140	O	0.988199	0.250496	0.949773
H141	H	0.511827	-0.237457	0.505699
H142	H	1.011827	0.262543	1.005699
O143	O	0.622504	-0.433970	0.240936
O144	O	1.122504	0.066030	0.740936
H145	H	0.597775	-0.486366	0.224116
H146	H	1.097775	0.013634	0.724116
H147	H	1.005728	-0.447195	0.901511
H148	H	1.505728	0.052805	1.401511
O149	O	1.096367	-0.210626	0.917270
O150	O	1.596367	0.289374	1.417270
H151	H	1.136703	-0.236845	0.951754
H152	H	1.636703	0.263155	1.451754
O153	O	1.192698	-0.307966	0.773370
O154	O	1.692698	0.192034	1.273370
H155	H	1.168389	-0.267892	0.739233
H156	H	1.668389	0.232108	1.239233
O157	O	0.938150	-0.748758	0.224643
O158	O	1.438150	-0.248758	0.724643
H159	H	0.943563	-0.805918	0.230031
H160	H	1.443563	-0.305918	0.730031
O161	O	0.919441	-0.376025	0.769716
O162	O	1.419441	0.123975	1.269716
H163	H	0.896837	-0.420353	0.733764
H164	H	1.396837	0.079647	1.233764
H165	H	0.993454	-0.850665	0.280022
H166	H	1.493454	-0.350665	0.780022
O167	O	0.919051	-0.375957	0.910448
O168	O	1.419051	0.124043	1.410448
H169	H	0.923081	-0.329031	0.948748
H170	H	1.423081	0.170969	1.448748
H171	H	0.613592	-0.454215	0.355296
H172	H	1.113592	0.045785	0.855296
H173	H	0.980042	-0.249298	0.782688
H174	H	1.480042	0.250702	1.282688
O175	O	0.479513	-0.467831	0.366654
O176	O	0.979513	0.032169	0.866654
H177	H	0.526196	-0.494845	0.391010
H178	H	1.026196	0.005155	0.891010
H179	H	0.983451	-0.245715	0.910418
H180	H	1.483451	0.254285	1.410418
O181	O	1.151703	-0.429708	0.766455
O182	O	1.651703	0.070292	1.266455
H183	H	1.106602	-0.450896	0.729246
H184	H	1.606602	0.049104	1.229246
H185	H	1.005987	-0.447783	0.773858
H186	H	1.505987	0.052217	1.273858
O187	O	1.150927	-0.430828	0.906916
O188	O	1.650927	0.069172	1.406916
H189	H	1.206578	-0.443243	0.885674
H190	H	1.706578	0.056757	1.385674
O191	O	0.631680	-0.211443	0.307905
O192	O	1.131680	0.288557	0.807905
H193	H	0.585586	-0.175875	0.318307
H194	H	1.085586	0.324125	0.818307
H195	H	0.496825	-0.228942	0.302899
H196	H	0.996825	0.271058	0.802899
O197	O	0.485663	-0.300258	0.209964
O198	O	0.985663	0.199742	0.709964
H199	H	0.424532	-0.297575	0.210024
H200	H	0.924532	0.202425	0.710024
H201	H	0.622125	-0.263633	0.439109
H202	H	1.122125	0.236367	0.939109
H203	H	0.981285	-1.070516	0.267777
H204	H	1.481285	-0.570516	0.767777
O205	O	0.626905	-0.300543	0.209256
O206	O	1.126905	0.199457	0.709256
H207	H	0.578486	-0.308423	0.171717
H208	H	1.078486	0.191577	0.671717
H209	H	1.116606	-0.825632	0.403389
H210	H	1.616606	-0.325632	0.903389
O211	O	0.484417	-0.372344	0.474769
O212	O	0.984417	0.127656	0.974769
H213	H	0.446971	-0.411694	0.445276
H214	H	0.946971	0.088306	0.945276
H215	H	1.153054	-1.070318	0.439808
H216	H	1.653054	-0.570318	0.939808
O217	O	0.975145	-0.927758	0.261648
O218	O	1.475145	-0.427758	0.761648
H219	H	0.940556	-0.965628	0.226974
H220	H	1.440556	-0.465628	0.726974
O221	O	1.141731	-0.596060	0.428584
O222	O	1.641731	-0.096060	0.928584
H223	H	1.172958	-0.633851	0.459855
H224	H	1.672958	-0.133851	0.959855
H225	H	1.177804	-0.321168	0.906119
H226	H	1.677804	0.178832	1.406119
H227	H	0.957011	-0.605975	0.243596
H228	H	1.457011	-0.105975	0.743596
