data_functionalizedCrystal
_audit_creation_method	'MofGen! by Chris Wilmer'
_symmetry_space_group_name_H-M	'P1'
_symmetry_Int_Tables_number	1
_symmetry_cell_setting	triclinic
loop_
_symmetry_equiv_pos_as_xyz
  x,y,z
_cell_length_a	14.971486
_cell_length_b	10.723024
_cell_length_c	13.448316
_cell_angle_alpha	89.994589
_cell_angle_beta	89.998199
_cell_angle_gamma	84.040999
loop_
_atom_site_label
_atom_site_type_symbol
_atom_site_fract_x
_atom_site_fract_y
_atom_site_fract_z
O1	O	1.187821	0.162617	-0.082575
O2	O	0.927525	0.182090	-0.082602
O3	O	1.063677	-0.009285	-0.082584
O4	O	1.051669	0.353992	-0.082593
O5	O	1.063660	-0.009297	0.082800
O6	O	0.927508	0.182078	0.082782
O7	O	1.187803	0.162605	0.082809
Cu8	Cu	1.057654	0.172341	0.097896
Cu9	Cu	1.057674	0.172355	-0.097689
O10	O	1.051651	0.353981	0.082791
C11	C	0.894187	0.181213	0.000087
C12	C	0.794876	0.178604	0.000077
C13	C	0.738254	0.291032	0.000075
C14	C	0.644941	0.288572	0.000090
C15	C	0.608252	0.173683	0.000099
C16	C	0.664881	0.061246	0.000104
C17	C	0.758192	0.063707	0.000096
C18	C	0.470391	0.056125	0.000117
C19	C	0.377074	0.053663	0.000123
C20	C	0.357141	0.280990	0.000112
C21	C	0.450452	0.283451	0.000104
C22	C	0.507074	0.171013	0.000106
C23	C	1.062794	-0.055782	0.000107
C24	C	1.060180	-0.194309	0.000103
C25	C	1.136363	-0.270088	0.000109
C26	C	1.133663	-0.413263	0.000106
C27	C	1.221141	0.163482	0.000118
C28	C	1.320452	0.166091	0.000122
C29	C	1.052534	0.400477	0.000098
C30	C	1.055148	0.539004	0.000096
N31	N	1.057646	0.172330	0.235461
N32	N	1.057689	0.172355	-0.235253
C33	C	1.117953	0.087624	0.287509
C34	C	1.117959	0.087623	0.391612
C35	C	1.057661	0.172335	0.443665
C36	C	0.997347	0.257045	0.391610
C37	C	0.997338	0.257039	0.287509
C38	C	0.997372	0.257054	0.608590
C39	C	0.997382	0.257062	0.712698
C40	C	1.117993	0.087637	0.712694
C41	C	1.117984	0.087631	0.608592
C42	C	1.057671	0.172343	0.556544
H43	H	0.768119	0.384588	0.000067
N44	N	0.337513	-0.070260	0.000154
H45	H	0.299246	-0.076333	0.061468
H46	H	0.299285	-0.076291	-0.061189
H47	H	0.804293	-0.027843	0.000096
N48	N	0.971132	-0.248764	0.000106
H49	H	0.920661	-0.178523	0.000105
H50	H	0.966618	-0.302133	-0.061204
N51	N	1.183062	-0.003718	0.768818
H52	H	1.172243	-0.092315	0.750712
H53	H	1.246589	0.010948	0.750650
N54	N	0.583912	0.409871	0.000108
H55	H	0.544736	0.413974	-0.061187
H56	H	0.544826	0.413863	0.061470
H57	H	0.516492	-0.035434	0.000121
N58	N	1.182974	-0.003770	0.231373
H59	H	1.173817	0.009072	0.157527
H60	H	1.246520	0.010772	0.249551
N61	N	1.183035	-0.003696	0.447751
H62	H	1.221246	-0.057341	0.398979
H63	H	1.222853	0.044223	0.490913
H64	H	1.198882	-0.478377	0.000115
N65	N	1.183023	-0.003726	0.552445
H66	H	1.221231	-0.057392	0.601212
H67	H	1.148440	-0.058971	0.509264
H68	H	0.989926	-0.395889	0.000097
N69	N	0.932357	0.348438	0.768845
H70	H	0.894146	0.402100	0.720079
H71	H	0.892533	0.300580	0.812058
H72	H	0.948256	0.326031	0.566216
H73	H	0.948229	0.326014	0.245132
N74	N	0.932309	0.348405	0.447755
H75	H	0.966828	0.403739	0.490933
H76	H	0.894114	0.401980	0.398924
H77	H	0.311034	0.372540	0.000114
N78	N	0.625305	-0.062665	0.000125
H79	H	0.587032	-0.068752	-0.061179
H80	H	0.675382	-0.133447	0.000167
N81	N	1.225413	-0.215638	0.000130
H82	H	1.214720	-0.121076	0.000137
H83	H	1.260532	-0.244784	0.061450
H84	H	0.480320	0.377003	0.000087
