data_functionalizedCrystal
_audit_creation_method	'MofGen! by Chris Wilmer'
_symmetry_space_group_name_H-M	'P1'
_symmetry_Int_Tables_number	1
_symmetry_cell_setting	triclinic
loop_
_symmetry_equiv_pos_as_xyz
  x,y,z
_cell_length_a	21.295420
_cell_length_b	21.295417
_cell_length_c	19.120904
_cell_angle_alpha	92.408338
_cell_angle_beta	92.422904
_cell_angle_gamma	90.026289
loop_
_atom_site_label
_atom_site_type_symbol
_atom_site_fract_x
_atom_site_fract_y
_atom_site_fract_z
Zn1	Zn	0.947123	-0.265876	-0.397094
Zn2	Zn	1.197123	-0.015876	-0.147094
Zn3	Zn	1.447123	0.234124	0.102906
Zn4	Zn	1.697123	0.484124	0.352906
Zn5	Zn	0.951531	-0.366654	-0.279638
Zn6	Zn	1.201531	-0.116654	-0.029638
Zn7	Zn	1.451531	0.133346	0.220362
Zn8	Zn	1.701531	0.383346	0.470362
Zn9	Zn	0.846351	-0.261396	-0.279660
Zn10	Zn	1.096351	-0.011396	-0.029660
Zn11	Zn	1.346351	0.238604	0.220340
Zn12	Zn	1.596351	0.488604	0.470340
Zn13	Zn	0.841817	-0.371101	-0.397046
Zn14	Zn	1.091817	-0.121101	-0.147046
Zn15	Zn	1.341817	0.128899	0.102954
Zn16	Zn	1.591817	0.378899	0.352954
O17	O	0.896705	-0.316257	-0.338360
O18	O	1.146705	-0.066257	-0.088360
O19	O	1.396705	0.183743	0.161640
O20	O	1.646705	0.433743	0.411640
O21	O	1.035796	-0.279258	-0.381524
O22	O	1.285796	-0.029258	-0.131524
O23	O	1.535796	0.220742	0.118476
O24	O	1.785796	0.470742	0.368476
O25	O	0.941320	-0.348955	-0.181359
O26	O	1.191320	-0.098955	0.068641
O27	O	1.441320	0.151045	0.318641
O28	O	1.691320	0.401045	0.568641
O29	O	0.859771	-0.173902	-0.295267
O30	O	1.109771	0.076098	-0.045267
O31	O	1.359771	0.326098	0.204733
O32	O	1.609771	0.576098	0.454733
O33	O	1.039035	-0.353299	-0.295230
O34	O	1.289035	-0.103299	-0.045230
O35	O	1.539035	0.146701	0.204770
O36	O	1.789035	0.396701	0.454770
O37	O	0.933808	-0.177193	-0.381545
O38	O	1.183808	0.072807	-0.131545
O39	O	1.433808	0.322807	0.118455
O40	O	1.683808	0.572807	0.368455
O41	O	0.864045	-0.271622	-0.181375
O42	O	1.114045	-0.021622	0.068625
O43	O	1.364045	0.228378	0.318625
O44	O	1.614045	0.478378	0.568625
O45	O	0.757660	-0.275935	-0.295221
O46	O	1.007660	-0.025935	-0.045221
O47	O	1.257660	0.224065	0.204779
O48	O	1.507660	0.474065	0.454779
O49	O	0.852044	-0.360879	-0.495335
O50	O	1.102044	-0.110879	-0.245335
O51	O	1.352044	0.139121	0.004665
O52	O	1.602044	0.389121	0.254665
O53	O	0.754330	-0.356535	-0.381464
O54	O	1.004330	-0.106535	-0.131464
O55	O	1.254330	0.143465	0.118536
O56	O	1.504330	0.393465	0.368536
O57	O	0.929411	-0.283570	-0.495370
O58	O	1.179411	-0.033570	-0.245370
O59	O	1.429411	0.216430	0.004630
O60	O	1.679411	0.466430	0.254630
O61	O	0.936924	-0.455332	-0.295183
O62	O	1.186924	-0.205332	-0.045183
O63	O	1.436924	0.044668	0.204817
O64	O	1.686924	0.294668	0.454817
O65	O	0.856318	-0.458600	-0.381442
O66	O	1.106318	-0.208600	-0.131442
O67	O	1.356318	0.041400	0.118558
O68	O	1.606318	0.291400	0.368558
C69	C	0.733154	-0.316232	-0.338340
C70	C	0.983154	-0.066232	-0.088340
C71	C	1.233154	0.183768	0.161660
C72	C	1.483154	0.433768	0.411660
C73	C	0.663186	-0.316237	-0.338348
C74	C	0.913186	-0.066237	-0.088348
C75	C	1.163186	0.183763	0.161652
C76	C	1.413186	0.433763	0.411652
C77	C	0.162037	-0.277801	-0.383377
C78	C	0.412037	-0.027801	-0.133377
C79	C	0.662037	0.222199	0.116623
C80	C	0.912037	0.472199	0.366623
C81	C	0.227780	-0.277797	-0.383376
C82	C	0.477780	-0.027797	-0.133376
C83	C	0.727780	0.222203	0.116624
C84	C	0.977780	0.472203	0.366624
C85	C	0.262345	-0.316276	-0.338376
C86	C	0.512345	-0.066276	-0.088376
C87	C	0.762345	0.183724	0.161624
C88	C	1.012345	0.433724	0.411624
C89	C	0.231163	-0.354776	-0.293385
C90	C	0.481163	-0.104776	-0.043385
C91	C	0.731163	0.145224	0.206615
C92	C	0.981163	0.395224	0.456615
C93	C	0.165421	-0.354784	-0.293391
C94	C	0.415421	-0.104784	-0.043391
C95	C	0.665421	0.145216	0.206609
C96	C	0.915421	0.395216	0.456609
N97	N	0.367894	-0.318670	-0.276878
N98	N	0.617894	-0.068670	-0.026878
N99	N	0.867894	0.181330	0.223122
N100	N	1.117894	0.431330	0.473122
N101	N	0.430346	-0.318658	-0.276874
N102	N	0.680346	-0.068658	-0.026874
N103	N	0.930346	0.181342	0.223126
N104	N	1.180346	0.431342	0.473126
C105	C	0.460421	-0.316255	-0.338355
C106	C	0.710421	-0.066255	-0.088355
C107	C	0.960421	0.183745	0.161645
C108	C	1.210421	0.433745	0.411645
N109	N	0.425685	-0.313851	-0.399842
N110	N	0.675685	-0.063851	-0.149842
N111	N	0.925685	0.186149	0.100158
N112	N	1.175685	0.436149	0.350158
N113	N	0.363228	-0.313859	-0.399845
N114	N	0.613228	-0.063859	-0.149845
N115	N	0.863228	0.186141	0.100155
N116	N	1.113228	0.436141	0.350155
C117	C	0.333631	-0.316272	-0.338364
C118	C	0.583631	-0.066272	-0.088364
C119	C	0.833631	0.183728	0.161636
C120	C	1.083631	0.433728	0.411636
C121	C	0.562881	-0.277756	-0.383347
C122	C	0.812881	-0.027756	-0.133347
C123	C	1.062881	0.222244	0.116653
C124	C	1.312881	0.472244	0.366653
C125	C	0.628625	-0.277756	-0.383348
C126	C	0.878625	-0.027756	-0.133348
C127	C	1.128625	0.222244	0.116652
C128	C	1.378625	0.472244	0.366652
C129	C	0.632007	-0.354731	-0.293350
C130	C	0.882007	-0.104731	-0.043350
C131	C	1.132007	0.145269	0.206650
C132	C	1.382007	0.395269	0.456650
C133	C	0.566264	-0.354735	-0.293355
C134	C	0.816264	-0.104735	-0.043355
C135	C	1.066264	0.145265	0.206645
C136	C	1.316264	0.395265	0.456645
C137	C	0.531705	-0.316244	-0.338353
C138	C	0.781705	-0.066244	-0.088353
C139	C	1.031705	0.183756	0.161647
C140	C	1.281705	0.433756	0.411647
C141	C	0.896624	-0.479807	-0.338321
C142	C	1.146624	-0.229807	-0.088321
C143	C	1.396624	0.020193	0.161679
C144	C	1.646624	0.270193	0.411679
C145	C	0.896646	-0.549775	-0.338328
C146	C	1.146646	-0.299775	-0.088328
C147	C	1.396646	-0.049775	0.161672
C148	C	1.646646	0.200225	0.411672
C149	C	0.938652	-0.580921	-0.293458
C150	C	1.188652	-0.330921	-0.043458
C151	C	1.438652	-0.080921	0.206542
C152	C	1.688652	0.169079	0.456542
C153	C	0.938681	-0.646664	-0.293474
C154	C	1.188681	-0.396664	-0.043474
C155	C	1.438681	-0.146664	0.206526
C156	C	1.688681	0.103336	0.456526
C157	C	0.896693	-0.681259	-0.338352
C158	C	1.146693	-0.431259	-0.088352
C159	C	1.396693	-0.181259	0.161648
C160	C	1.646693	0.068741	0.411648
C161	C	0.854684	-0.650105	-0.383230
C162	C	1.104684	-0.400105	-0.133230
C163	C	1.354684	-0.150105	0.116770
C164	C	1.604684	0.099895	0.366770
C165	C	0.854661	-0.584363	-0.383217
C166	C	1.104661	-0.334363	-0.133217
C167	C	1.354661	-0.084363	0.116783
C168	C	1.604661	0.165637	0.366783
N169	N	0.841421	-0.784725	-0.343699
N170	N	1.091421	-0.534725	-0.093699
N171	N	1.341421	-0.284725	0.156301
N172	N	1.591421	-0.034725	0.406301
N173	N	0.841445	-0.847177	-0.343707
N174	N	1.091445	-0.597177	-0.093707
N175	N	1.341445	-0.347177	0.156293
N176	N	1.591445	-0.097177	0.406293
C177	C	0.896762	-0.879335	-0.338392
C178	C	1.146762	-0.629335	-0.088392
C179	C	1.396762	-0.379335	0.161608
C180	C	1.646762	-0.129335	0.411608
N181	N	0.952056	-0.846682	-0.333056
N182	N	1.202056	-0.596682	-0.083056
N183	N	1.452056	-0.346682	0.166944
N184	N	1.702056	-0.096682	0.416944
N185	N	0.952031	-0.784224	-0.333045
N186	N	1.202031	-0.534224	-0.083045
N187	N	1.452031	-0.284224	0.166955
N188	N	1.702031	-0.034224	0.416955
C189	C	0.896714	-0.752545	-0.338370
C190	C	1.146714	-0.502545	-0.088370
C191	C	1.396714	-0.252545	0.161630
C192	C	1.646714	-0.002545	0.411630
C193	C	0.938802	-0.981767	-0.293538
C194	C	1.188802	-0.731767	-0.043538
C195	C	1.438802	-0.481767	0.206462
C196	C	1.688802	-0.231767	0.456462
C197	C	0.938832	-1.047512	-0.293558
C198	C	1.188832	-0.797512	-0.043558
C199	C	1.438832	-0.547512	0.206442
C200	C	1.688832	-0.297512	0.456442
C201	C	0.854830	-1.050951	-0.383310
C202	C	1.104830	-0.800951	-0.133310
C203	C	1.354830	-0.550951	0.116690
C204	C	1.604830	-0.300951	0.366690
C205	C	0.854806	-0.985207	-0.383293
C206	C	1.104806	-0.735207	-0.133293
C207	C	1.354806	-0.485207	0.116707
C208	C	1.604806	-0.235207	0.366707
C209	C	0.896791	-0.950620	-0.338403
C210	C	1.146791	-0.700620	-0.088403
C211	C	1.396791	-0.450620	0.161597
C212	C	1.646791	-0.200620	0.411597
C213	C	1.060895	-0.316282	-0.338380
C214	C	1.310895	-0.066282	-0.088380
C215	C	1.560895	0.183718	0.161620
C216	C	1.810895	0.433718	0.411620
C217	C	1.130862	-0.316293	-0.338389
C218	C	1.380862	-0.066293	-0.088389
C219	C	1.630862	0.183707	0.161611
C220	C	1.880862	0.433707	0.411611
C221	C	0.889730	-0.323220	-0.521548
C222	C	1.139730	-0.073220	-0.271548
C223	C	1.389730	0.176780	-0.021548
C224	C	1.639730	0.426780	0.228452
C225	C	0.886758	-0.326188	-0.599612
C226	C	1.136758	-0.076188	-0.349612
C227	C	1.386758	0.173812	-0.099612
C228	C	1.636758	0.423812	0.150388
C229	C	0.896803	-0.152068	-0.338414
C230	C	1.146803	0.097932	-0.088414
C231	C	1.396803	0.347932	0.161586
C232	C	1.646803	0.597932	0.411586
C233	C	0.896845	-0.082101	-0.338437
C234	C	1.146845	0.167899	-0.088437
C235	C	1.396845	0.417899	0.161563
C236	C	1.646845	0.667899	0.411563
C237	C	0.925641	-0.287333	-0.636306
C238	C	1.175641	-0.037333	-0.386306
C239	C	1.425641	0.212667	-0.136306
C240	C	1.675641	0.462667	0.113694
C241	C	0.922840	-0.290119	-0.709656
C242	C	1.172840	-0.040119	-0.459656
C243	C	1.422840	0.209881	-0.209656
C244	C	1.672840	0.459881	0.040344
C245	C	0.881160	-0.331763	-0.746310
C246	C	1.131160	-0.081763	-0.496310
C247	C	1.381160	0.168237	-0.246310
C248	C	1.631160	0.418237	0.003690
C249	C	0.842273	-0.370619	-0.709610
C250	C	1.092273	-0.120619	-0.459610
C251	C	1.342273	0.129381	-0.209610
C252	C	1.592273	0.379381	0.040390
C253	C	0.845071	-0.367830	-0.636262
C254	C	1.095071	-0.117830	-0.386262
C255	C	1.345071	0.132170	-0.136262
C256	C	1.595071	0.382170	0.113738
C257	C	0.870694	-0.342197	-0.967773
C258	C	1.120694	-0.092197	-0.717773
C259	C	1.370694	0.157803	-0.467773
C260	C	1.620694	0.407803	-0.217773
C261	C	0.867901	-0.344984	-1.041126
C262	C	1.117901	-0.094984	-0.791126
C263	C	1.367901	0.155016	-0.541126
C264	C	1.617901	0.405016	-0.291126
C265	C	0.948468	-0.264483	-1.041166
C266	C	1.198468	-0.014483	-0.791166
C267	C	1.448468	0.235517	-0.541166
C268	C	1.698468	0.485517	-0.291166
C269	C	0.951264	-0.261700	-0.967817
C270	C	1.201264	-0.011700	-0.717817
C271	C	1.451264	0.238300	-0.467817
C272	C	1.701264	0.488300	-0.217817
C273	C	0.912375	-0.300554	-0.931124
C274	C	1.162375	-0.050554	-0.681124
C275	C	1.412375	0.199446	-0.431124
C276	C	1.662375	0.449446	-0.181124
C277	C	0.878298	-0.334613	-0.821285
C278	C	1.128298	-0.084613	-0.571285
C279	C	1.378298	0.165387	-0.321285
C280	C	1.628298	0.415387	-0.071285
C281	C	0.915235	-0.297700	-0.856150
C282	C	1.165235	-0.047700	-0.606150
C283	C	1.415235	0.202300	-0.356150
C284	C	1.665235	0.452300	-0.106150
C285	C	0.903689	-0.309275	-0.155884
C286	C	1.153689	-0.059275	0.094116
C287	C	1.403689	0.190725	0.344116
C288	C	1.653689	0.440725	0.594116
C289	C	0.906784	-0.306130	-0.077820
C290	C	1.156784	-0.056130	0.172180
C291	C	1.406784	0.193870	0.422180
C292	C	1.656784	0.443870	0.672180
H293	H	0.534742	-0.246415	-0.419986
H294	H	0.784742	0.003585	-0.169986
H295	H	1.034742	0.253585	0.080014
H296	H	1.284742	0.503585	0.330014
H297	H	0.954504	-0.258481	-0.739529
H298	H	1.204504	-0.008481	-0.489529
H299	H	1.454504	0.241519	-0.239529
H300	H	1.704504	0.491519	0.010471
H301	H	0.808334	-0.404525	-0.739460
H302	H	1.058334	-0.154525	-0.489460
H303	H	1.308334	0.095475	-0.239460
H304	H	1.558334	0.345475	0.010540
Cl305	Cl	0.825904	-0.386967	-0.867370
Cl306	Cl	1.075904	-0.136967	-0.617370
Cl307	Cl	1.325904	0.113033	-0.367370
Cl308	Cl	1.575904	0.363033	-0.117370
Cl309	Cl	0.991442	-0.537443	-0.237036
Cl310	Cl	1.241442	-0.287443	0.012964
Cl311	Cl	1.491442	-0.037443	0.262964
Cl312	Cl	1.741442	0.212557	0.512964
H313	H	0.813402	-0.399463	-0.606387
H314	H	1.063402	-0.149463	-0.356387
H315	H	1.313402	0.100537	-0.106387
H316	H	1.563402	0.350537	0.143613
H317	H	0.253168	-0.246449	-0.420010
H318	H	0.503168	0.003551	-0.170010
H319	H	0.753168	0.253551	0.079990
H320	H	1.003168	0.503551	0.329990
H321	H	0.973042	-1.072870	-0.257022
H322	H	1.223042	-0.822870	-0.007022
H323	H	1.473042	-0.572870	0.242978
H324	H	1.723042	-0.322870	0.492978
Cl325	Cl	0.274615	-0.403153	-0.236816
Cl326	Cl	0.524615	-0.153153	0.013184
Cl327	Cl	0.774615	0.096847	0.263184
Cl328	Cl	1.024615	0.346847	0.513184
Cl329	Cl	0.821805	-0.391042	-0.921654
Cl330	Cl	1.071805	-0.141042	-0.671654
Cl331	Cl	1.321805	0.108958	-0.421654
Cl332	Cl	1.571805	0.358958	-0.171654
Cl333	Cl	0.802049	-1.094434	-0.439733
Cl334	Cl	1.052049	-0.844434	-0.189733
Cl335	Cl	1.302049	-0.594434	0.060267
Cl336	Cl	1.552049	-0.344434	0.310267
H337	H	0.820599	-0.959847	-0.419827
H338	H	1.070599	-0.709847	-0.169827
H339	H	1.320599	-0.459847	0.080173
H340	H	1.570599	-0.209847	0.330173
H341	H	0.654006	-0.246414	-0.419988
H342	H	0.904006	0.003586	-0.169988
H343	H	1.154006	0.253586	0.080012
H344	H	1.404006	0.503586	0.330012
H345	H	0.820454	-0.559004	-0.419756
H346	H	1.070454	-0.309004	-0.169756
H347	H	1.320454	-0.059004	0.080244
H348	H	1.570454	0.190996	0.330244
H349	H	0.660149	-0.386068	-0.256715
H350	H	0.910149	-0.136068	-0.006715
H351	H	1.160149	0.113932	0.243285
H352	H	1.410149	0.363932	0.493285
Cl353	Cl	0.978045	-0.234981	-0.590234
Cl354	Cl	1.228045	0.015019	-0.340234
Cl355	Cl	1.478045	0.265019	-0.090234
Cl356	Cl	1.728045	0.515019	0.159766
H357	H	0.972889	-0.672029	-0.256937
H358	H	1.222889	-0.422029	-0.006937
H359	H	1.472889	-0.172029	0.243063
H360	H	1.722889	0.077971	0.493063
H361	H	0.540881	-0.386076	-0.256718
H362	H	0.790881	-0.136076	-0.006718
H363	H	1.040881	0.113924	0.243282
H364	H	1.290881	0.363924	0.493282
H365	H	0.972992	-0.953604	-0.256988
H366	H	1.222992	-0.703604	-0.006988
H367	H	1.472992	-0.453604	0.243012
H368	H	1.722992	-0.203604	0.493012
Cl369	Cl	0.801903	-0.693594	-0.439650
Cl370	Cl	1.051903	-0.443594	-0.189650
Cl371	Cl	1.301903	-0.193594	0.060350
Cl372	Cl	1.551903	0.056406	0.310350
Cl373	Cl	0.126228	-0.403174	-0.236827
Cl374	Cl	0.376228	-0.153174	0.013173
Cl375	Cl	0.626228	0.096826	0.263173
Cl376	Cl	0.876228	0.346826	0.513173
Cl377	Cl	1.003665	-0.209345	-0.921743
Cl378	Cl	1.253665	0.040655	-0.671743
Cl379	Cl	1.503665	0.290655	-0.421743
Cl380	Cl	1.753665	0.540655	-0.171743
H381	H	0.949168	-0.263791	-0.826303
H382	H	1.199168	-0.013791	-0.576303
H383	H	1.449168	0.236209	-0.326303
H384	H	1.699168	0.486209	-0.076303
Cl385	Cl	0.997351	-0.215639	-1.087298
Cl386	Cl	1.247351	0.034361	-0.837298
Cl387	Cl	1.497351	0.284361	-0.587298
Cl388	Cl	1.747351	0.534361	-0.337298
H389	H	0.133903	-0.246462	-0.420020
H390	H	0.383903	0.003538	-0.170020
H391	H	0.633903	0.253538	0.079980
H392	H	0.883903	0.503538	0.329980
Cl393	Cl	0.815495	-0.397338	-1.087205
Cl394	Cl	1.065495	-0.147338	-0.837205
Cl395	Cl	1.315495	0.102662	-0.587205
Cl396	Cl	1.565495	0.352662	-0.337205
