data_functionalizedCrystal
_audit_creation_method	'MofGen! by Chris Wilmer'
_symmetry_space_group_name_H-M	'P1'
_symmetry_Int_Tables_number	1
_symmetry_cell_setting	triclinic
loop_
_symmetry_equiv_pos_as_xyz
  x,y,z
_cell_length_a	8.559649
_cell_length_b	10.065875
_cell_length_c	8.559649
_cell_angle_alpha	97.549942
_cell_angle_beta	110.221336
_cell_angle_gamma	97.500981
loop_
_atom_site_label
_atom_site_type_symbol
_atom_site_fract_x
_atom_site_fract_y
_atom_site_fract_z
O1	O	2.153539	0.113472	0.081789
O2	O	1.678055	0.113478	-0.001991
O3	O	1.957687	0.113473	0.277641
O4	O	1.873907	0.113477	-0.197843
O5	O	1.904342	-0.113515	0.224128
O6	O	1.624710	-0.113510	-0.055504
O7	O	2.100193	-0.113515	0.028276
Zn8	Zn	1.853982	-0.149552	-0.022110
Zn9	Zn	1.924267	0.149514	0.048395
O10	O	1.820561	-0.113511	-0.251356
C11	C	1.591074	-0.000015	-0.035096
C12	C	1.411375	-0.000013	-0.053995
N13	N	1.806026	-0.353657	-0.070226
C14	C	1.907573	-0.421437	0.031663
C15	C	1.870676	-0.578604	-0.005379
C16	C	2.187176	-0.000019	0.061382
C17	C	2.366877	-0.000012	0.080283
C18	C	1.937364	-0.000018	0.311194
C19	C	1.956265	-0.000011	0.490895
N20	N	1.972237	0.353619	0.096525
C21	C	1.840885	-0.000016	-0.284908
C22	C	1.821986	-0.000015	-0.464607
H23	H	1.311989	-0.000005	-0.183421
N24	N	2.123598	-0.569143	0.248401
H25	H	2.186295	-0.635971	0.311304
H26	H	2.083903	-0.509866	0.326212
H27	H	2.085690	-0.000023	0.590280
N28	N	1.719324	-0.655845	-0.157262
H29	H	1.656624	-0.589019	-0.220168
H30	H	1.641173	-0.715140	-0.118048
N31	N	1.650559	-0.000007	0.403752
H32	H	1.607725	0.084136	0.436499
H33	H	1.568298	-0.084209	0.396869
H34	H	1.466256	-0.000007	0.209704
H35	H	2.021822	-0.363115	0.146323
N36	N	1.654673	-0.430904	-0.222092
H37	H	1.694238	-0.490184	-0.300026
H38	H	1.592035	-0.363993	-0.284863
