data_functionalizedCrystal
_audit_creation_method	'MofGen! by Chris Wilmer'
_symmetry_space_group_name_H-M	'P1'
_symmetry_Int_Tables_number	1
_symmetry_cell_setting	triclinic
loop_
_symmetry_equiv_pos_as_xyz
  x,y,z
_cell_length_a	15.944551
_cell_length_b	12.837942
_cell_length_c	11.892095
_cell_angle_alpha	94.302569
_cell_angle_beta	86.105155
_cell_angle_gamma	89.163839
loop_
_atom_site_label
_atom_site_type_symbol
_atom_site_fract_x
_atom_site_fract_y
_atom_site_fract_z
O1	O	-1.130053	-0.127078	0.093883
O2	O	-0.886824	-0.143559	0.093911
O3	O	-1.003045	0.015584	0.093891
O4	O	-1.013832	-0.286221	0.093904
O5	O	-0.993353	0.002336	-0.094115
O6	O	-0.877132	-0.156808	-0.094095
O7	O	-1.120361	-0.140326	-0.094122
Zn8	Zn	-0.997208	-0.150670	-0.123958
Zn9	Zn	-1.009977	-0.133215	0.123747
O10	O	-1.004140	-0.299470	-0.094102
C11	C	-0.850629	-0.149499	-0.000088
C12	C	-0.757219	-0.147447	-0.000078
C13	C	-0.994555	0.047581	-0.000111
C14	C	-0.983687	0.162659	-0.000108
C15	C	-1.156556	-0.134386	-0.000121
C16	C	-1.249966	-0.136438	-0.000124
C17	C	-0.534078	-0.043899	-0.000104
C18	C	-0.481683	-0.085452	0.092595
C19	C	-0.586196	-0.143736	-0.000091
C20	C	-0.472152	-0.098537	-0.092764
C21	C	-0.420995	-0.140145	-0.000109
C22	C	-0.535035	-0.185310	0.092684
C23	C	-0.525505	-0.198388	-0.092758
C24	C	-0.473135	-0.240011	-0.000036
C25	C	-0.681364	-0.145802	-0.000080
C26	C	-0.325829	-0.138086	-0.000112
C27	C	-1.012630	-0.331466	-0.000098
C28	C	-1.023498	-0.446544	-0.000094
N29	N	-0.988499	-0.162583	-0.293011
C30	C	-1.114340	0.403609	-0.000099
C31	C	-1.104133	0.511736	-0.000096
C32	C	-0.953066	0.487042	-0.000091
C33	C	-0.963274	0.378915	-0.000094
C34	C	-1.043913	0.337203	-0.000100
C35	C	-1.054119	0.229073	-0.000111
C36	C	-0.903054	0.204382	-0.000097
C37	C	-0.892846	0.312509	-0.000094
C38	C	-1.079287	-0.038343	-0.529675
C39	C	-1.073206	-0.046677	-0.648016
C40	C	-0.970253	-0.187580	-0.648036
C41	C	-0.976334	-0.179246	-0.529695
C42	C	-1.030853	-0.104626	-0.470519
C43	C	-1.036938	-0.096297	-0.352176
C44	C	-0.933981	-0.237194	-0.352198
C45	C	-0.927900	-0.245528	-0.470539
N46	N	-1.018692	-0.121294	0.292800
H47	H	-0.560789	0.038966	0.000007
C48	C	-0.435436	-0.049397	-0.197124
C49	C	-0.389857	0.038758	-0.163974
C50	C	-0.356034	0.084068	-0.260072
H51	H	-0.399162	-0.098543	-0.240853
H52	H	-0.479693	-0.029293	-0.241064
H53	H	-0.345606	0.018652	-0.120053
H54	H	-0.426113	0.087927	-0.120259
H55	H	-0.400291	0.104171	-0.304012
H56	H	-0.319763	0.034914	-0.303794
H57	H	-0.325111	0.143891	-0.237594
H58	H	-1.119779	0.195113	-0.000120
C59	C	-0.571678	-0.234321	0.197166
C60	C	-0.616675	-0.323030	0.164215
C61	C	-0.650453	-0.368194	0.260431
H62	H	-0.527451	-0.253812	0.241449
H63	H	-0.608311	-0.185290	0.240496
H64	H	-0.580045	-0.372052	0.120903
H65	H	-0.660915	-0.303568	0.119945
H66	H	-0.687086	-0.319163	0.303761
H67	H	-0.606221	-0.387678	0.304707
H68	H	-0.680994	-0.428382	0.238087
H69	H	-0.462235	-0.037702	0.170962
H70	H	-0.883509	-0.306280	-0.518734
C71	C	-1.125745	0.025462	-0.712101
C72	C	-1.105461	0.129366	-0.683296
C73	C	-1.153850	0.195855	-0.742298
H74	H	-1.114363	0.009958	-0.791073
H75	H	-1.183717	0.015598	-0.692672
H76	H	-1.047502	0.139226	-0.702732
H77	H	-1.116846	0.144903	-0.604334
H78	H	-1.211821	0.185991	-0.722870
H79	H	-1.142464	0.180342	-0.821268
H80	H	-1.140099	0.266361	-0.722755
C81	C	-0.865462	0.532183	-0.000246
C82	C	-0.817377	0.491612	-0.096952
C83	C	-0.736668	0.533159	-0.097122
H84	H	-0.869346	0.606083	-0.000295
H85	H	-0.839438	0.513967	0.065285
H86	H	-0.843395	0.509835	-0.162466
H87	H	-0.813469	0.417716	-0.096924
H88	H	-0.710644	0.514943	-0.031591
H89	H	-0.740561	0.607058	-0.097168
H90	H	-0.704030	0.505631	-0.162730
C91	C	-1.180514	0.583945	-0.000274
C92	C	-1.174076	0.639952	-0.096982
C93	C	-1.244420	0.706492	-0.097174
H94	H	-1.230054	0.543740	-0.000335
H95	H	-1.183047	0.631313	0.065256
H96	H	-1.171551	0.592591	-0.162495
H97	H	-1.124550	0.680178	-0.096942
H98	H	-1.246953	0.753860	-0.031644
H99	H	-1.293955	0.666278	-0.097231
H100	H	-1.240057	0.744508	-0.162783
C101	C	-0.911114	-0.268736	-0.712144
C102	C	-0.934344	-0.368591	-0.683346
C103	C	-0.879872	-0.443374	-0.742366
H104	H	-0.914373	-0.264349	-0.791114
H105	H	-0.855142	-0.256122	-0.692725
H106	H	-0.990301	-0.381201	-0.702773
H107	H	-0.931080	-0.373011	-0.604387
H108	H	-0.823901	-0.430760	-0.722946
H109	H	-0.883136	-0.438978	-0.821333
H110	H	-0.895622	-0.511133	-0.722827
C111	C	-1.096144	-0.015181	-0.288128
C112	C	-1.137240	0.041103	-0.365270
C113	C	-1.191777	0.115849	-0.306315
H114	H	-1.136540	-0.049119	-0.241951
H115	H	-1.064859	0.031299	-0.241994
H116	H	-1.168523	-0.005369	-0.411384
H117	H	-1.096865	0.075064	-0.411449
H118	H	-1.160492	0.162328	-0.260181
H119	H	-1.232168	0.081901	-0.260140
H120	H	-1.219661	0.154053	-0.358646
H121	H	-0.446614	-0.322950	0.000019
H122	H	-1.179999	0.369646	-0.000115
C123	C	-0.805292	0.357762	0.000145
C124	C	-0.767193	0.330842	0.096882
C125	C	-0.686541	0.372520	0.097146
H126	H	-0.772453	0.330390	-0.065341
H127	H	-0.809267	0.431678	0.000210
H128	H	-0.763214	0.256941	0.096807
H129	H	-0.800007	0.358214	0.162384
H130	H	-0.690516	0.446436	0.097211
H131	H	-0.653710	0.345145	0.031656
H132	H	-0.660684	0.354269	0.162786
H133	H	-0.544971	-0.246103	-0.171128
H134	H	-0.845706	0.150301	-0.000106
H135	H	-0.894545	-0.291169	-0.304019
H136	H	-1.123685	0.022409	-0.481493
