data_functionalizedCrystal
_audit_creation_method	'MofGen! by Chris Wilmer'
_symmetry_space_group_name_H-M	'P1'
_symmetry_Int_Tables_number	1
_symmetry_cell_setting	triclinic
loop_
_symmetry_equiv_pos_as_xyz
  x,y,z
_cell_length_a	16.959455
_cell_length_b	21.295417
_cell_length_c	16.959447
_cell_angle_alpha	89.964725
_cell_angle_beta	89.983056
_cell_angle_gamma	90.027454
loop_
_atom_site_label
_atom_site_type_symbol
_atom_site_fract_x
_atom_site_fract_y
_atom_site_fract_z
Zn1	Zn	1.208347	-0.250648	-0.446882
Zn2	Zn	1.208239	-0.355924	-0.314692
Zn3	Zn	1.076169	-0.250667	-0.314719
Zn4	Zn	1.076116	-0.355877	-0.446831
O5	O	1.142218	-0.303279	-0.380781
O6	O	1.318943	-0.264624	-0.429357
O7	O	1.190697	-0.341990	-0.204085
O8	O	1.093770	-0.162575	-0.332284
O9	O	1.318864	-0.341971	-0.332237
O10	O	1.190881	-0.162561	-0.429383
O11	O	1.093666	-0.264658	-0.204105
O12	O	0.965551	-0.264612	-0.332234
O13	O	1.093679	-0.341890	-0.557448
O14	O	0.965512	-0.341910	-0.429296
O15	O	1.190829	-0.264578	-0.557486
O16	O	1.190645	-0.444008	-0.332188
O17	O	1.093575	-0.443973	-0.429269
C18	C	0.936852	-0.303258	-0.380763
C19	C	0.848995	-0.303265	-0.380774
C20	C	0.477515	-0.262998	-0.330347
C21	C	0.477523	-0.343613	-0.431261
C22	C	0.560069	-0.343604	-0.431256
C23	C	0.601342	-0.303292	-0.380795
C24	C	0.560069	-0.262989	-0.330339
C25	C	0.601349	-0.383910	-0.481705
C26	C	0.683900	-0.383903	-0.481702
C27	C	0.725174	-0.343588	-0.431244
C28	C	0.683896	-0.303283	-0.380787
C29	C	0.725168	-0.262971	-0.330326
C30	C	0.683892	-0.222662	-0.279871
C31	C	0.601343	-0.222673	-0.279881
C32	C	0.807722	-0.343577	-0.431235
C33	C	0.807722	-0.262962	-0.330318
C34	C	1.142114	-0.466831	-0.380737
C35	C	1.142142	-0.536799	-0.380745
C36	C	1.192732	-0.569663	-0.330246
C37	C	1.192769	-0.635405	-0.330264
C38	C	1.142202	-0.668281	-0.380772
C39	C	1.091609	-0.635410	-0.431281
C40	C	1.091579	-0.569668	-0.431267
N41	N	1.073056	-0.771544	-0.386792
N42	N	1.073086	-0.833995	-0.386800
C43	C	1.142291	-0.866356	-0.380818
N44	N	1.211465	-0.833906	-0.374811
N45	N	1.211433	-0.771449	-0.374798
C46	C	1.142229	-0.739567	-0.380793
C47	C	1.192925	-0.970505	-0.330335
C48	C	1.192963	-1.036249	-0.330359
C49	C	1.091796	-1.036252	-0.431371
C50	C	1.091765	-0.970510	-0.431352
C51	C	1.142328	-0.937640	-0.380830
C52	C	1.348386	-0.303300	-0.380800
C53	C	1.436243	-0.303310	-0.380808
C54	C	1.142260	-0.303227	-0.586949
C55	C	1.142278	-0.303205	-0.674806
C56	C	1.142343	-0.139089	-0.380842
C57	C	1.142397	-0.069121	-0.380868
C58	C	1.091828	-0.262875	-1.046299
C59	C	1.192868	-0.343401	-1.046265
C60	C	1.192854	-0.343416	-0.963719
C61	C	1.142326	-0.303160	-0.922459
C62	C	1.091811	-0.262890	-0.963745
C63	C	1.243362	-0.383690	-0.922427
C64	C	1.243349	-0.383707	-0.839876
C65	C	1.192825	-0.343448	-0.798615
C66	C	1.142309	-0.303175	-0.839906
C67	C	1.091781	-0.262919	-0.798645
C68	C	1.041268	-0.222643	-0.839935
C69	C	1.041287	-0.222630	-0.922483
C70	C	1.192806	-0.343460	-0.716066
C71	C	1.091764	-0.262934	-0.716092
C72	C	1.142221	-0.303286	-0.175415
C73	C	1.142356	-0.303131	-0.087559
H74	H	0.443914	-0.376436	-0.472339
C75	C	0.853123	-0.387913	-0.486731
N76	N	0.887318	-0.421309	-0.528536
C77	C	1.036178	-0.218648	-0.670712
N78	N	0.994309	-0.185293	-0.636533
H79	H	1.000125	-0.189869	-0.806330
C80	C	1.035934	-0.533517	-0.486832
N81	N	0.994025	-0.506287	-0.528687
H82	H	1.284490	-0.416472	-0.956027
H83	H	1.284479	-0.416503	-0.806265
H84	H	1.233938	-0.376248	-0.682452
H85	H	1.000161	-0.189840	-0.956109
H86	H	0.567738	-0.416735	-0.522782
C87	C	1.248556	-0.934347	-0.274772
N88	N	1.290461	-0.907114	-0.232925
H89	H	1.234164	-1.063006	-0.289238
C90	C	0.555933	-0.178340	-0.224383
N91	N	0.521727	-0.144950	-0.182581
H92	H	1.233905	-0.542902	-0.289110
H93	H	0.717500	-0.416725	-0.522785
H94	H	0.443904	-0.230177	-0.289270
H95	H	1.050628	-1.063019	-0.472499
C96	C	1.248419	-0.671563	-0.274705
N97	N	1.290333	-0.698795	-0.232856
H98	H	1.050704	-0.230081	-1.079920
H99	H	1.050439	-0.662182	-0.472406
H100	H	1.050567	-0.943750	-0.472469
H101	H	1.233999	-0.376181	-1.079864
H102	H	0.717507	-0.189843	-0.238783
C103	C	0.853115	-0.218614	-0.274805
N104	N	0.887305	-0.185212	-0.232992
