data_functionalizedCrystal
_audit_creation_method	'MofGen! by Chris Wilmer'
_symmetry_space_group_name_H-M	'P1'
_symmetry_Int_Tables_number	1
_symmetry_cell_setting	triclinic
loop_
_symmetry_equiv_pos_as_xyz
  x,y,z
_cell_length_a	10.723024
_cell_length_b	9.798715
_cell_length_c	9.065218
_cell_angle_alpha	90.001542
_cell_angle_beta	84.741877
_cell_angle_gamma	90.003155
loop_
_atom_site_label
_atom_site_type_symbol
_atom_site_fract_x
_atom_site_fract_y
_atom_site_fract_z
O1	O	1.658027	0.113476	0.206939
O2	O	1.294956	0.113480	0.226747
O3	O	1.483996	0.113475	0.002158
O4	O	1.468987	0.113481	0.431528
O5	O	1.483983	-0.113507	0.002157
O6	O	1.294942	-0.113502	0.226746
O7	O	1.658014	-0.113506	0.206938
Zn8	Zn	1.476476	-0.149542	0.216841
Zn9	Zn	1.476494	0.149517	0.216844
O10	O	1.468974	-0.113501	0.431527
C11	C	1.248443	-0.000010	0.225305
C12	C	1.109872	-0.000008	0.220992
C13	C	1.035399	-0.000006	0.346660
C14	C	0.892178	-0.000004	0.342206
N15	N	1.476473	-0.353642	0.216839
C16	C	1.397118	-0.421450	0.311550
C17	C	1.397135	-0.578613	0.311549
C18	C	1.704526	-0.000012	0.208380
C19	C	1.843098	-0.000005	0.212693
C20	C	1.482547	-0.000013	-0.052821
C21	C	1.478234	-0.000007	-0.216639
N22	N	1.476506	0.353616	0.216834
C23	C	1.470423	-0.000009	0.486506
C24	C	1.474736	-0.000007	0.650324
H25	H	1.067599	0.000025	0.110105
C26	C	1.182266	-0.622911	0.396490
C27	C	1.305411	-0.657324	0.421013
H28	H	1.125639	-0.671514	0.464066
H29	H	1.170230	-0.527633	0.410863
H30	H	1.167409	-0.646270	0.297914
H31	H	1.320271	-0.633956	0.519587
H32	H	1.317451	-0.752623	0.406653
C33	C	1.327337	-0.377186	0.566309
C34	C	1.305384	-0.342759	0.421024
H35	H	1.270706	-0.328600	0.633892
H36	H	1.315304	-0.472467	0.580660
H37	H	1.410886	-0.353817	0.582908
H38	H	1.221837	-0.366138	0.404420
H39	H	1.317406	-0.247457	0.406666
C40	C	0.829094	0.116689	0.569765
C41	C	0.805795	0.000004	0.487447
H42	H	0.775756	0.116696	0.659429
H43	H	0.913998	0.116675	0.591811
H44	H	0.813308	0.195832	0.513888
H45	H	0.821590	-0.079140	0.543321
H46	H	0.720872	0.000006	0.465405
C47	C	1.500562	-0.485686	0.016339
C48	C	1.568172	-0.567750	0.107229
H49	H	1.557137	-0.437150	-0.051358
H50	H	1.447886	-0.541491	-0.037030
H51	H	1.450825	-0.422746	0.075769
H52	H	1.617902	-0.630698	0.047800
H53	H	1.620869	-0.511940	0.160601
C54	C	1.223290	-0.000009	0.471799
C55	C	1.092452	-0.000007	0.496363
H56	H	1.258506	-0.000003	0.564224
H57	H	1.250042	-0.079159	0.417270
H58	H	1.250053	0.079149	0.417263
H59	H	1.065688	-0.079171	0.550891
H60	H	1.065688	0.079151	0.550915
C61	C	1.005158	0.116674	0.061695
C62	C	0.929475	-0.000007	0.067447
H63	H	1.058494	0.116666	-0.027970
H64	H	0.953814	0.195812	0.065611
H65	H	1.054508	0.116661	0.143534
H66	H	0.880117	0.000011	-0.014387
H67	H	0.980824	-0.079165	0.063516
H68	H	1.544430	-0.411940	0.135757
