data_functionalizedCrystal
_audit_creation_method	'MofGen! by Chris Wilmer'
_symmetry_space_group_name_H-M	'P1'
_symmetry_Int_Tables_number	1
_symmetry_cell_setting	triclinic
loop_
_symmetry_equiv_pos_as_xyz
  x,y,z
_cell_length_a	25.639239
_cell_length_b	16.120530
_cell_length_c	16.120297
_cell_angle_alpha	89.871860
_cell_angle_beta	92.868703
_cell_angle_gamma	92.865946
loop_
_atom_site_label
_atom_site_type_symbol
_atom_site_fract_x
_atom_site_fract_y
_atom_site_fract_z
Zn1	Zn	-0.264883	-1.247330	-0.534536
Zn2	Zn	-0.348114	-1.254246	-0.395469
Zn3	Zn	-0.256048	-1.115324	-0.388455
Zn4	Zn	-0.347633	-1.108202	-0.527439
O5	O	-0.304170	-1.181275	-0.461475
O6	O	-0.279823	-1.364612	-0.521994
O7	O	-0.332406	-1.241692	-0.278174
O8	O	-0.184058	-1.132921	-0.407868
O9	O	-0.340973	-1.369693	-0.419823
O10	O	-0.190549	-1.229905	-0.515193
O11	O	-0.264765	-1.139627	-0.273020
O12	O	-0.264298	-0.998015	-0.400986
O13	O	-0.340152	-1.120783	-0.644745
O14	O	-0.331585	-0.992782	-0.503096
O15	O	-0.279356	-1.223000	-0.649960
O16	O	-0.421212	-1.234787	-0.412941
O17	O	-0.420858	-1.127489	-0.509898
C18	C	-0.440006	-1.181138	-0.461430
C19	C	-0.498121	-1.181153	-0.461442
C20	C	-0.296931	-0.965226	-0.450510
C21	C	-0.293847	-0.872799	-0.445839
C22	C	-0.310686	-1.170326	-0.678368
C23	C	-0.313462	-1.165659	-0.770795
C24	C	-0.858668	-1.237279	-0.411087
C25	C	-0.913274	-1.237311	-0.411099
O26	O	-0.941661	-1.284889	-0.368236
N27	N	-0.940415	-1.181419	-0.461537
C28	C	-0.912948	-1.125497	-0.511972
O29	O	-0.941048	-1.077960	-0.554875
C30	C	-0.858344	-1.125470	-0.511963
C31	C	-0.831205	-1.181360	-0.461515
C32	C	-0.831529	-1.293166	-0.360644
C33	C	-0.776927	-1.293133	-0.360630
C34	C	-0.749464	-1.237214	-0.411059
C35	C	-0.776603	-1.181327	-0.461502
C36	C	-0.830878	-1.069553	-0.562401
C37	C	-0.776270	-1.069531	-0.562388
C38	C	-0.749131	-1.125421	-0.511941
C39	C	-0.694538	-1.125375	-0.511917
N40	N	-0.667396	-1.181267	-0.461479
C41	C	-0.694860	-1.237187	-0.411050
C42	C	-1.027621	-1.125559	-0.511988
C43	C	-1.082224	-1.125581	-0.511993
C44	C	-1.082546	-1.237397	-0.411121
C45	C	-1.027942	-1.237370	-0.411113
C46	C	-1.000480	-1.181451	-0.461550
C47	C	-0.580191	-1.237113	-0.411025
C48	C	-0.525584	-1.237072	-0.411013
C49	C	-0.525267	-1.125260	-0.511887
C50	C	-0.579869	-1.125297	-0.511896
C51	C	-0.607330	-1.181230	-0.461463
O52	O	-0.666116	-1.077824	-0.554760
O53	O	-0.666754	-1.284723	-0.368163
C54	C	-0.167804	-1.181436	-0.461539
C55	C	-0.109693	-1.181504	-0.461567
C56	C	-0.311437	-1.398168	-0.472483
C57	C	-0.314534	-1.490595	-0.477173
C58	C	-0.288206	-0.703571	-0.437318
C59	C	-0.320174	-0.659817	-0.485692
C60	C	-0.317035	-0.565653	-0.480951
C61	C	-0.291344	-0.797744	-0.442058
C62	C	-0.318520	-1.157110	-0.940019
C63	C	-0.289668	-1.205605	-0.983790
C64	C	-0.292482	-1.200848	-1.077952
C65	C	-0.315706	-1.161866	-0.845849
C66	C	-0.297643	-1.192231	-0.245427
C67	C	-0.294724	-1.197058	-0.153009
H68	H	-0.754834	-1.338646	-0.319555
N69	N	-0.497871	-1.294167	-0.359470
N70	N	-0.522403	-1.344090	-0.314450
H71	H	-0.502833	-1.384413	-0.278048
N72	N	-0.608229	-1.294250	-0.359502
N73	N	-0.583982	-1.344138	-0.314469
H74	H	-0.603782	-1.384487	-0.278076
H75	H	-0.601967	-1.079789	-0.552977
H76	H	-0.258482	-0.670314	-0.392347
H77	H	-0.262854	-1.250696	-0.950546
N78	N	-0.352161	-1.100549	-0.981709
N79	N	-0.400307	-1.106479	-0.972360
H80	H	-0.424066	-1.066531	-1.001809
H81	H	-0.853884	-1.338706	-0.319579
H82	H	-1.104917	-1.282932	-0.370062
N83	N	-1.000231	-1.294463	-0.359575
N84	N	-1.024764	-1.344380	-0.314552
H85	H	-1.005196	-1.384706	-0.278151
N86	N	-1.109934	-1.068472	-0.563514
N87	N	-1.085400	-1.018548	-0.608530
H88	H	-1.104967	-0.978214	-0.644922
N89	N	-0.748228	-1.012409	-0.613921
N90	N	-0.772470	-0.962518	-0.658957
H91	H	-0.752666	-0.922174	-0.695352
H92	H	-0.852965	-1.024037	-0.603477
N93	N	-0.999573	-1.068438	-0.563517
N94	N	-1.008144	-1.070022	-0.640529
H95	H	-0.988337	-1.029682	-0.676924
N96	N	-0.497200	-1.068142	-0.563384
N97	N	-0.448446	-1.068128	-0.563359
H98	H	-0.428622	-1.027790	-0.599731
N99	N	-0.357466	-0.701547	-0.542105
N100	N	-0.359998	-0.779091	-0.545921
H101	H	-0.386336	-0.808568	-0.585757
