data_functionalizedCrystal
_audit_creation_method	'MofGen! by Chris Wilmer'
_symmetry_space_group_name_H-M	'P1'
_symmetry_Int_Tables_number	1
_symmetry_cell_setting	triclinic
loop_
_symmetry_equiv_pos_as_xyz
  x,y,z
_cell_length_a	19.121379
_cell_length_b	16.625546
_cell_length_c	16.625539
_cell_angle_alpha	90.030397
_cell_angle_beta	87.585746
_cell_angle_gamma	92.463154
loop_
_atom_site_label
_atom_site_type_symbol
_atom_site_fract_x
_atom_site_fract_y
_atom_site_fract_z
Zn1	Zn	-1.073729	0.268438	-0.403463
Zn2	Zn	-0.740395	0.601772	-0.070130
Zn3	Zn	-0.407062	0.935105	0.263204
Zn4	Zn	-1.073644	0.403286	-0.268629
Zn5	Zn	-0.740311	0.736619	0.064704
Zn6	Zn	-0.406978	1.069952	0.398037
Zn7	Zn	-0.956278	0.274216	-0.274379
Zn8	Zn	-0.622944	0.607550	0.058954
Zn9	Zn	-0.289611	0.940883	0.392287
Zn10	Zn	-0.956252	0.408984	-0.409152
Zn11	Zn	-0.622919	0.742317	-0.075819
Zn12	Zn	-0.289585	1.075650	0.257515
O13	O	-1.014976	0.338731	-0.338906
O14	O	-0.681642	0.672064	-0.005573
O15	O	-0.348309	1.005398	0.327761
O16	O	-1.172000	0.281524	-0.380790
O17	O	-0.838667	0.614857	-0.047457
O18	O	-0.505334	0.948190	0.285877
O19	O	-1.058051	0.386198	-0.156561
O20	O	-0.724718	0.719531	0.176772
O21	O	-0.391384	1.052864	0.510106
O22	O	-0.971904	0.160615	-0.291528
O23	O	-0.638571	0.493948	0.041805
O24	O	-0.305237	0.827282	0.375139
O25	O	-1.171939	0.380595	-0.281728
O26	O	-0.838605	0.713929	0.051605
O27	O	-0.505272	1.047262	0.384938
O28	O	-1.058195	0.156370	-0.386365
O29	O	-0.724861	0.489704	-0.053032
O30	O	-0.391528	0.823037	0.280301
O31	O	-0.971822	0.291371	-0.160785
O32	O	-0.638489	0.624704	0.172548
O33	O	-0.305155	0.958038	0.505881
O34	O	-0.857991	0.296896	-0.297044
O35	O	-0.524658	0.630229	0.036289
O36	O	-0.191325	0.963563	0.369622
O37	O	-0.971860	0.390307	-0.521229
O38	O	-0.638527	0.723640	-0.187895
O39	O	-0.305193	1.056973	0.145438
O40	O	-0.857972	0.395909	-0.396061
O41	O	-0.524639	0.729242	-0.062728
O42	O	-0.191306	1.062576	0.270605
O43	O	-1.058170	0.287049	-0.517049
O44	O	-0.724836	0.620382	-0.183716
O45	O	-0.391503	0.953715	0.149618
O46	O	-1.058026	0.516876	-0.287245
O47	O	-0.724693	0.850210	0.046089
O48	O	-0.391359	1.183543	0.379422
O49	O	-0.971778	0.521062	-0.390486
O50	O	-0.638445	0.854396	-0.057153
O51	O	-0.305112	1.187729	0.276181
C52	C	-0.832498	0.347648	-0.347795
C53	C	-0.499165	0.680982	-0.014461
C54	C	-0.165832	1.014315	0.318872
C55	C	-0.754434	0.351483	-0.351616
C56	C	-0.421100	0.684816	-0.018283
C57	C	-0.087767	1.018149	0.315050
C58	C	-0.717748	0.301655	-0.301944
C59	C	-0.384415	0.634989	0.031390
C60	C	-0.051081	0.968322	0.364723
C61	C	-0.644398	0.305265	-0.305534
C62	C	-0.311065	0.638598	0.027799
C63	C	0.022269	0.971932	0.361132
C64	C	-0.607735	0.358698	-0.358802
C65	C	-0.274402	0.692032	-0.025469
C66	C	0.058932	1.025365	0.307864
C67	C	-0.644426	0.408531	-0.408477
C68	C	-0.311092	0.741864	-0.075144
C69	C	0.022241	1.075198	0.258190
C70	C	-0.717774	0.404925	-0.404882
C71	C	-0.384441	0.738258	-0.071548
C72	C	-0.051108	1.071591	0.261785
C73	C	-0.386270	0.372173	-0.372229
C74	C	-0.052936	0.705507	-0.038896
C75	C	0.280397	1.038840	0.294438
C76	C	-0.312916	0.375774	-0.375822
C77	C	0.020417	0.709107	-0.042489
C78	C	0.353751	1.042441	0.290845
C79	C	-0.312893	0.272509	-0.272878
C80	C	0.020440	0.605842	0.060455
C81	C	0.353773	0.939175	0.393789
C82	C	-0.386243	0.268904	-0.269291
C83	C	-0.052910	0.602237	0.064043
C84	C	0.280423	0.935571	0.397376
C85	C	-0.422928	0.318739	-0.318962
C86	C	-0.089594	0.652073	0.014371
C87	C	0.243739	0.985406	0.347704
C88	C	-0.532759	0.362388	-0.362476
C89	C	-0.199426	0.695721	-0.029142
C90	C	0.133907	1.029054	0.304191
C91	C	-0.497902	0.315054	-0.315285
C92	C	-0.164569	0.648387	0.018049
C93	C	0.168765	0.981720	0.351382
C94	C	-1.014909	0.548225	-0.338875
C95	C	-0.681576	0.881558	-0.005542
C96	C	-0.348243	1.214892	0.327791
C97	C	-1.014945	0.637844	-0.338886
C98	C	-0.681612	0.971178	-0.005553
C99	C	-0.348278	1.304511	0.327780
C100	C	-1.015021	0.338669	-0.549213
C101	C	-0.681688	0.672002	-0.215879
C102	C	-0.348355	1.005335	0.117454
C103	C	-1.015041	0.338642	-0.638833
C104	C	-0.681707	0.671975	-0.305500
C105	C	-0.348374	1.005309	0.027834
C106	C	-0.198166	0.329775	-0.329975
C107	C	0.135168	0.663108	0.003358
C108	C	0.468501	0.996442	0.336691
C109	C	-0.276230	0.325947	-0.326149
C110	C	0.057103	0.659280	0.007184
C111	C	0.390436	0.992614	0.340517
C112	C	-1.015062	0.128418	-0.338953
C113	C	-0.681728	0.461751	-0.005620
C114	C	-0.348395	0.795085	0.327713
C115	C	-1.015098	0.038795	-0.338973
C116	C	-0.681765	0.372128	-0.005640
C117	C	-0.348431	0.705462	0.327693
C118	C	-1.015068	0.966014	-0.338964
C119	C	-0.681734	1.299347	-0.005631
C120	C	-0.348401	1.632681	0.327702
C121	C	-1.015031	0.874707	-0.338945
C122	C	-0.681698	1.208041	-0.005612
C123	C	-0.348365	1.541374	0.327722
C124	C	-1.015006	0.801932	-0.338925
C125	C	-0.681672	1.135265	-0.005591
C126	C	-0.348339	1.468599	0.327742
C127	C	-1.014971	0.710620	-0.338906
C128	C	-0.681637	1.043953	-0.005573
C129	C	-0.348304	1.377286	0.327760
C130	C	-1.015073	0.338550	-0.967007
C131	C	-0.681740	0.671884	-0.633674
C132	C	-0.348407	1.005217	-0.300341
C133	C	-1.015062	0.338578	-0.875699
C134	C	-0.681729	0.671912	-0.542366
C135	C	-0.348396	1.005245	-0.209033
C136	C	-1.015057	0.338597	-0.802923
C137	C	-0.681724	0.671930	-0.469590
C138	C	-0.348391	1.005263	-0.136256
C139	C	-1.015046	0.338624	-0.711609
C140	C	-0.681712	0.671957	-0.378276
C141	C	-0.348379	1.005290	-0.044943
C142	C	-1.014971	0.338733	-0.129415
C143	C	-0.681637	0.672066	0.203918
C144	C	-0.348304	1.005400	0.537251
C145	C	-1.015087	0.338526	-0.039789
C146	C	-0.681754	0.671859	0.293544
C147	C	-0.348421	1.005192	0.626878
H148	H	-0.527756	0.271552	-0.271911
H149	H	-0.194423	0.604885	0.061422
H150	H	0.138911	0.938218	0.394756
H151	H	-0.747594	0.258138	-0.258573
H152	H	-0.414260	0.591471	0.074760
H153	H	-0.080927	0.924805	0.408093
N154	N	-0.425771	0.211268	-0.211830
N155	N	-0.092438	0.544601	0.121503
N156	N	0.240895	0.877935	0.454837
H157	H	-0.456183	0.242486	-0.172911
H158	H	-0.122849	0.575820	0.160423
H159	H	0.210484	0.909153	0.493756
H160	H	-0.456182	0.172455	-0.243229
H161	H	-0.122849	0.505788	0.090104
H162	H	0.210484	0.839122	0.423438
N163	N	-0.273327	0.218777	-0.219290
N164	N	0.060006	0.552110	0.114044
N165	N	0.393339	0.885443	0.447377
H166	H	-0.221298	0.229172	-0.229642
H167	H	0.112035	0.562505	0.103691
H168	H	0.445369	0.895839	0.437024
H169	H	-0.286129	0.230641	-0.161060
H170	H	0.047204	0.563974	0.172273
H171	H	0.380538	0.897308	0.505606
N172	N	-0.273370	0.433401	-0.433285
N173	N	0.059964	0.766734	-0.099952
N174	N	0.393297	1.100068	0.233381
H175	H	-0.307738	0.464424	-0.464208
H176	H	0.025595	0.797757	-0.130875
H177	H	0.358928	1.131091	0.202459
H178	H	-0.242909	0.472167	-0.401893
H179	H	0.090424	0.805501	-0.068560
H180	H	0.423758	1.138834	0.264774
H181	H	-0.416129	0.412753	-0.412675
H182	H	-0.082796	0.746086	-0.079342
H183	H	0.250537	1.079420	0.253991
N184	N	-0.604829	0.251526	-0.251956
N185	N	-0.271496	0.584859	0.081377
N186	N	0.061838	0.918193	0.414710
H187	H	-0.639185	0.217126	-0.217669
H188	H	-0.305851	0.550460	0.115664
H189	H	0.027482	0.883793	0.448997
H190	H	-0.574415	0.215751	-0.286335
H191	H	-0.241082	0.549084	0.046999
H192	H	0.092252	0.882418	0.380332
N193	N	-0.604886	0.466170	-0.465925
N194	N	-0.271553	0.799503	-0.132592
N195	N	0.061780	1.132836	0.200741
H196	H	-0.552853	0.460893	-0.460668
H197	H	-0.219520	0.794227	-0.127335
H198	H	0.113814	1.127560	0.205999
H199	H	-0.617736	0.453064	-0.522904
H200	H	-0.284403	0.786397	-0.189571
H201	H	0.048931	1.119731	0.143763
H202	H	-0.747643	0.445499	-0.445330
H203	H	-0.414310	0.778833	-0.111997
H204	H	-0.080976	1.112166	0.221336
H205	H	-0.502900	0.405892	-0.405847
H206	H	-0.169567	0.739226	-0.072514
H207	H	0.163766	1.072559	0.260819
