data_functionalizedCrystal
_audit_creation_method	'MofGen! by Chris Wilmer'
_symmetry_space_group_name_H-M	'P1'
_symmetry_Int_Tables_number	1
_symmetry_cell_setting	triclinic
loop_
_symmetry_equiv_pos_as_xyz
  x,y,z
_cell_length_a	12.645331
_cell_length_b	29.839131
_cell_length_c	12.645323
_cell_angle_alpha	89.959633
_cell_angle_beta	89.977178
_cell_angle_gamma	90.035442
loop_
_atom_site_label
_atom_site_type_symbol
_atom_site_fract_x
_atom_site_fract_y
_atom_site_fract_z
Zn1	Zn	1.620602	-0.178847	-0.599336
Zn2	Zn	1.620429	-0.253979	-0.422028
Zn3	Zn	1.443317	-0.178864	-0.422080
Zn4	Zn	1.443244	-0.253951	-0.599243
O5	O	1.531898	-0.216410	-0.510672
O6	O	1.768926	-0.188818	-0.575833
O7	O	1.596893	-0.244033	-0.273688
O8	O	1.466936	-0.115995	-0.445654
O9	O	1.768800	-0.244017	-0.445566
O10	O	1.597187	-0.115982	-0.575883
O11	O	1.466769	-0.188847	-0.273726
O12	O	1.294960	-0.188820	-0.445564
O13	O	1.466813	-0.243970	-0.747603
O14	O	1.294906	-0.243986	-0.575725
O15	O	1.597117	-0.188791	-0.747671
O16	O	1.596823	-0.316842	-0.445476
O17	O	1.466646	-0.316822	-0.575675
C18	C	1.256468	-0.216402	-0.510641
C19	C	1.138638	-0.216410	-0.510652
C20	C	1.531736	-0.333133	-0.510583
C21	C	1.531764	-0.383067	-0.510580
C22	C	1.093754	-0.181650	-0.428902
C23	C	0.971195	-0.181522	-0.429182
C24	C	0.970818	-0.203784	-0.622568
C25	C	1.093416	-0.203524	-0.622057
C26	C	1.093389	-0.263898	-0.481543
C27	C	0.970781	-0.263650	-0.479118
C28	C	1.599705	-0.692669	-0.578579
C29	C	1.599820	-0.880342	-0.578643
O30	O	1.657427	-0.904572	-0.636392
N31	N	1.532078	-0.903852	-0.510790
C32	C	1.464298	-0.880441	-0.442921
O33	O	1.406674	-0.904744	-0.385217
C34	C	1.464178	-0.692769	-0.442863
C35	C	1.531932	-0.669262	-0.510713
C36	C	1.667452	-0.669162	-0.646424
C37	C	1.667427	-0.622246	-0.646404
C38	C	1.599654	-0.598838	-0.578538
C39	C	1.531907	-0.622346	-0.510692
C40	C	1.396393	-0.669359	-0.375000
C41	C	1.396367	-0.622438	-0.374994
C42	C	1.464121	-0.598930	-0.442844
C43	C	1.464108	-0.552023	-0.442806
N44	N	1.531850	-0.528513	-0.510659
C45	C	1.599623	-0.551921	-0.578525
C46	C	1.464367	-0.978972	-0.442954
C47	C	1.464398	-1.025890	-0.442967
C48	C	1.599919	-1.025788	-0.578691
C49	C	1.599892	-0.978869	-0.578672
C50	C	1.532109	-0.955462	-0.510807
C51	C	1.599565	-0.453395	-0.578476
C52	C	1.599537	-0.406475	-0.578446
C53	C	1.464013	-0.406581	-0.442727
C54	C	1.464044	-0.453497	-0.442752
C55	C	1.531824	-0.476902	-0.510635
O56	O	1.406523	-0.527764	-0.385096
O57	O	1.657222	-0.527610	-0.636237
C58	C	1.599730	-0.739585	-0.578600
C59	C	1.531983	-0.763092	-0.510754
C60	C	1.464210	-0.739685	-0.442889
C61	C	1.532014	-0.810010	-0.510767
C62	C	1.599787	-0.833418	-0.578633
C63	C	1.667529	-0.809908	-0.646486
C64	C	1.667503	-0.762993	-0.646466
C65	C	1.396468	-0.763194	-0.375035
C66	C	1.396500	-0.810110	-0.375061
C67	C	1.464273	-0.833518	-0.442927
C68	C	1.808403	-0.216419	-0.510704
C69	C	1.926233	-0.216422	-0.510718
C70	C	1.531976	-0.216376	-0.787177
C71	C	1.532009	-0.216361	-0.905008
C72	C	1.532089	-0.099232	-0.510785
C73	C	1.532171	-0.049298	-0.510833
C74	C	1.449782	-0.250910	-1.072529
C75	C	1.449998	-0.251081	-0.949969
C76	C	1.643700	-0.229209	-0.949520
C77	C	1.643249	-0.229426	-1.072118
C78	C	1.503603	-0.168770	-1.072236
C79	C	1.501110	-0.169055	-0.949629
C80	C	1.531881	-0.216413	-0.235242
C81	C	1.532053	-0.216301	-0.117413
H82	H	1.123152	-0.189445	-0.345699
O83	O	1.474409	-0.297294	-1.113322
H84	H	1.415870	-0.321461	-1.081170
O85	O	1.397599	-0.153253	-1.113168
H86	H	1.343205	-0.147637	-1.045560
H87	H	1.418916	-0.159366	-0.920536
O88	O	0.930229	-0.158318	-0.655737
H89	H	0.884530	-0.161633	-0.730247
H90	H	1.123113	-0.227751	-0.685079
H91	H	1.408836	-0.387515	-0.387468
O92	O	1.574702	-0.133090	-0.909126
H93	H	1.528532	-0.107782	-0.864395
O94	O	0.932244	-0.236292	-0.705509
H95	H	0.880759	-0.261861	-0.667799
H96	H	1.563525	-0.142985	-1.101266
H97	H	1.654714	-0.387337	-0.633697
O98	O	0.931255	-0.191960	-0.319340
H99	H	0.960327	-0.225467	-0.294701
H100	H	1.124606	-0.146662	-0.447982
H101	H	0.940164	-0.290922	-0.534284
H102	H	1.408882	-0.472638	-0.387495
O103	O	1.727083	-0.196879	-0.910951
H104	H	1.787832	-0.215464	-0.865254
O105	O	1.672675	-0.478637	-0.651683
H106	H	1.719781	-0.454402	-0.698843
O107	O	1.740520	-0.596894	-0.719569
H108	H	1.787646	-0.621060	-0.766755
H109	H	0.941911	-0.146337	-0.448516
H110	H	1.341166	-0.603382	-0.319732
O111	O	1.672974	-0.953519	-0.651853
H112	H	1.625496	-0.932140	-0.705742
O113	O	1.740560	-0.694406	-0.719624
H114	H	1.787661	-0.670170	-0.766786
O115	O	1.474871	-0.297744	-0.911024
H116	H	1.408071	-0.310271	-0.862285
H117	H	1.706624	-0.205312	-1.101812
O118	O	1.131372	-0.157551	-0.654626
H119	H	1.062161	-0.135713	-0.670587
O120	O	1.323416	-0.835463	-0.301877
H121	H	1.276281	-0.811299	-0.254695
O122	O	1.675190	-0.275451	-1.109991
H123	H	1.675190	-0.276062	-1.197753
H124	H	1.124246	-0.275438	-0.401337
O125	O	1.323308	-0.694707	-0.301826
H126	H	1.276173	-0.670540	-0.254652
O127	O	1.673009	-1.051038	-0.651904
H128	H	1.661632	-1.087611	-0.640515
O129	O	0.932176	-0.276285	-0.370082
H130	H	0.881466	-0.249047	-0.338520
H131	H	1.668233	-0.263591	-0.918809
O132	O	1.740591	-0.737640	-0.719636
H133	H	1.787715	-0.761806	-0.766824
O134	O	1.131843	-0.298204	-0.560394
H135	H	1.182935	-0.281542	-0.620030
H136	H	1.409237	-1.045026	-0.387705
O137	O	1.391271	-0.953727	-0.369736
H138	H	1.344189	-0.977962	-0.322551
H139	H	1.722715	-0.828975	-0.701742
H140	H	1.341278	-0.744139	-0.319772
O141	O	1.340301	-0.240417	-0.910088
H142	H	1.286617	-0.235095	-0.978368
O143	O	1.339739	-0.240364	-1.111558
H144	H	1.342503	-0.210345	-1.163370
