data_functionalizedCrystal
_audit_creation_method	'MofGen! by Chris Wilmer'
_symmetry_space_group_name_H-M	'P1'
_symmetry_Int_Tables_number	1
_symmetry_cell_setting	triclinic
loop_
_symmetry_equiv_pos_as_xyz
  x,y,z
_cell_length_a	8.559649
_cell_length_b	8.559649
_cell_length_c	9.730223
_cell_angle_alpha	90.001495
_cell_angle_beta	90.002746
_cell_angle_gamma	110.221336
loop_
_atom_site_label
_atom_site_type_symbol
_atom_site_fract_x
_atom_site_fract_y
_atom_site_fract_z
O1	O	-2.126880	-0.055045	-0.114291
O2	O	-1.651395	0.028736	-0.114291
O3	O	-1.931028	-0.250897	-0.114289
O4	O	-1.847247	0.224588	-0.114293
O5	O	-1.931010	-0.250881	0.114291
O6	O	-1.651377	0.028752	0.114289
O7	O	-2.126862	-0.055030	0.114289
Zn8	Zn	-1.889117	-0.013137	0.150581
Zn9	Zn	-1.889140	-0.013157	-0.150583
O10	O	-1.847229	0.224603	0.114287
C11	C	-1.591077	0.035093	-0.000001
C12	C	-1.411378	0.053992	-0.000002
C13	C	-1.937369	-0.311198	-0.000001
C14	C	-1.956268	-0.490898	-0.000008
N15	N	-1.889113	-0.013125	0.356117
C16	C	-1.187180	-0.061387	-0.000001
C17	C	-1.366879	-0.080286	-0.000002
C18	C	-1.840889	0.284904	-0.000004
C19	C	-1.821990	0.464604	-0.000006
N20	N	-1.889159	-0.013184	-0.356119
C21	C	-1.975417	0.073245	0.428056
C22	C	-1.975445	0.073211	0.571939
C23	C	-1.802852	-0.099564	0.571932
C24	C	-1.802835	-0.099539	0.428052
C25	C	-2.061695	0.159659	0.356121
C26	C	-2.148004	0.246038	0.428059
C27	C	-2.148033	0.246004	0.571942
C28	C	-2.061752	0.159592	0.643887
H29	H	-1.466258	-0.209705	-0.000008
H30	H	-2.218262	0.316381	0.369473
N31	N	-2.241174	0.339104	0.649537
H32	H	-2.295839	0.393833	0.582130
H33	H	-2.160754	0.427041	0.709274
N34	N	-1.279769	0.225455	0.000003
H35	H	-1.208059	0.239446	-0.084730
H36	H	-1.208172	0.239334	0.084795
H37	H	-2.085687	0.409724	0.000000
N38	N	-1.650541	0.596237	0.000018
H39	H	-1.660882	0.710258	0.000021
H40	H	-1.588018	0.583182	-0.084714
N41	N	-2.061670	0.159683	0.200935
H42	H	-2.011321	0.277782	0.166296
H43	H	-2.179804	0.109358	0.166371
N44	N	-2.061759	0.159084	0.799074
H45	H	-2.011418	0.277016	0.834100
H46	H	-1.994015	0.091018	0.833280
N47	N	-1.709798	-0.192755	0.649529
H48	H	-1.621738	-0.112437	0.709242
H49	H	-1.655229	-0.247469	0.582037
H50	H	-1.732556	-0.169866	0.369478
