data_functionalizedCrystal
_audit_creation_method	'MofGen! by Chris Wilmer'
_symmetry_space_group_name_H-M	'P1'
_symmetry_Int_Tables_number	1
_symmetry_cell_setting	triclinic
loop_
_symmetry_equiv_pos_as_xyz
  x,y,z
_cell_length_a	16.109318
_cell_length_b	14.586319
_cell_length_c	16.109304
_cell_angle_alpha	89.997377
_cell_angle_beta	83.465600
_cell_angle_gamma	90.002271
loop_
_atom_site_label
_atom_site_type_symbol
_atom_site_fract_x
_atom_site_fract_y
_atom_site_fract_z
O1	O	1.103126	0.076158	0.106930
O2	O	1.436460	0.409492	0.440263
O3	O	1.769793	0.742825	0.773597
O4	O	0.861066	0.076176	0.120214
O5	O	1.194400	0.409509	0.453547
O6	O	1.527733	0.742843	0.786881
O7	O	0.988745	0.076167	-0.007458
O8	O	1.322078	0.409501	0.325875
O9	O	1.655411	0.742834	0.659208
O10	O	0.975448	0.076167	0.234602
O11	O	1.308781	0.409501	0.567936
O12	O	1.642115	0.742834	0.901269
O13	O	0.988729	-0.076314	-0.007451
O14	O	1.322062	0.257020	0.325882
O15	O	1.655396	0.590353	0.659216
O16	O	0.861051	-0.076305	0.120222
O17	O	1.194384	0.257029	0.453555
O18	O	1.527717	0.590362	0.786888
O19	O	1.103111	-0.076323	0.106937
O20	O	1.436444	0.257011	0.440271
O21	O	1.769777	0.590344	0.773604
Cu22	Cu	0.982079	-0.090236	0.113580
Cu23	Cu	1.315413	0.243097	0.446914
Cu24	Cu	1.648746	0.576430	0.780247
Cu25	Cu	0.982098	0.090090	0.113571
Cu26	Cu	1.315431	0.423423	0.446905
Cu27	Cu	1.648764	0.756757	0.780238
O28	O	0.975432	-0.076314	0.234610
O29	O	1.308766	0.257020	0.567943
O30	O	1.642099	0.590353	0.901277
C31	C	0.830084	-0.000062	0.119677
C32	C	1.163417	0.333271	0.453011
C33	C	1.496751	0.666605	0.786344
C34	C	0.737789	-0.000055	0.118056
C35	C	1.071123	0.333278	0.451390
C36	C	1.404456	0.666612	0.784723
N37	N	0.982072	-0.217068	0.113586
N38	N	1.315406	0.116265	0.446919
N39	N	1.648739	0.449599	0.780253
C40	C	0.438724	0.083046	0.112817
C41	C	0.772057	0.416380	0.446151
C42	C	1.105391	0.749713	0.779484
C43	C	0.525445	0.083052	0.114335
C44	C	0.858779	0.416385	0.447668
C45	C	1.192112	0.749719	0.781001
C46	C	0.525447	-0.083191	0.114332
C47	C	0.858781	0.250142	0.447665
C48	C	1.192114	0.583476	0.780998
C49	C	0.438728	-0.083196	0.112808
C50	C	0.772062	0.250138	0.446142
C51	C	1.105395	0.583471	0.779475
C52	C	0.395368	-0.000074	0.112055
C53	C	0.728702	0.333259	0.445389
C54	C	1.062035	0.666592	0.778722
C55	C	0.568809	-0.000064	0.115096
C56	C	0.902142	0.333269	0.448429
C57	C	1.235475	0.666603	0.781763
C58	C	0.662836	-0.000059	0.116741
C59	C	0.996169	0.333275	0.450075
C60	C	1.329502	0.666608	0.783408
C61	C	0.301336	-0.000079	0.110408
C62	C	0.634669	0.333254	0.443742
C63	C	0.968002	0.666587	0.777075
C64	C	1.032495	-0.452078	0.164018
C65	C	1.365829	-0.118745	0.497351
C66	C	1.699162	0.214588	0.830684
C67	C	1.032504	-0.548060	0.164012
C68	C	1.365837	-0.214726	0.497345
C69	C	1.699171	0.118607	0.830679
C70	C	0.931686	-0.548061	0.063122
C71	C	1.265020	-0.214728	0.396455
C72	C	1.598353	0.118605	0.729788
C73	C	0.931683	-0.452082	0.063123
C74	C	1.265016	-0.118748	0.396457
C75	C	1.598349	0.214585	0.729790
C76	C	0.982086	-0.404093	0.113576
C77	C	1.315419	-0.070759	0.446910
C78	C	1.648752	0.262574	0.780243
C79	C	0.982098	-0.596054	0.113569
C80	C	1.315431	-0.262720	0.446902
C81	C	1.648765	0.070613	0.780235
C82	C	0.982107	-0.700121	0.113562
C83	C	1.315440	-0.366787	0.446895
C84	C	1.648774	-0.033454	0.780229
C85	C	0.982078	-0.300019	0.113582
C86	C	1.315411	0.033314	0.446915
C87	C	1.648745	0.366648	0.780249
C88	C	1.134093	-0.000082	0.107474
C89	C	1.467426	0.333251	0.440808
C90	C	1.800760	0.666584	0.774141
C91	C	1.226388	-0.000084	0.109095
C92	C	1.559721	0.333250	0.442428
C93	C	1.893054	0.666583	0.775762
C94	C	0.988198	-0.000071	-0.038430
C95	C	1.321531	0.333262	0.294904
C96	C	1.654865	0.666596	0.628237
C97	C	0.986582	-0.000065	-0.130725
C98	C	1.319915	0.333269	0.202609
C99	C	1.653248	0.666602	0.535942
N100	N	0.982111	0.216922	0.113559
N101	N	1.315445	0.550255	0.446892
N102	N	1.648778	0.883588	0.780226
C103	C	0.982857	0.083049	-0.343067
C104	C	1.316190	0.416383	-0.009733
C105	C	1.649523	0.749716	0.323600
C106	C	0.981331	0.083049	-0.429787
C107	C	1.314664	0.416382	-0.096453
C108	C	1.647997	0.749715	0.236880
C109	C	0.981318	-0.083194	-0.429776
C110	C	1.314651	0.250139	-0.096442
C111	C	1.647985	0.583472	0.236891
C112	C	0.982838	-0.083193	-0.343056
C113	C	1.316171	0.250141	-0.009723
C114	C	1.649505	0.583474	0.323611
C115	C	0.983612	-0.000068	-0.299704
C116	C	1.316945	0.333265	0.033629
C117	C	1.650278	0.666599	0.366962
C118	C	0.980565	-0.000070	-0.473144
C119	C	1.313899	0.333263	-0.139811
C120	C	1.647232	0.666596	0.193523
C121	C	0.978911	-0.000072	-0.567170
C122	C	1.312244	0.333261	-0.233837
C123	C	1.645577	0.666595	0.099497
C124	C	0.985265	-0.000066	-0.205672
C125	C	1.318598	0.333267	0.127661
C126	C	1.651931	0.666600	0.460994
C127	C	0.975979	-0.000073	0.265581
C128	C	1.309312	0.333260	0.598914
C129	C	1.642646	0.666593	0.932248
C130	C	0.977595	-0.000074	0.357876
C131	C	1.310929	0.333260	0.691210
C132	C	1.644262	0.666593	1.024543
H133	H	0.403423	0.150729	0.112203
H134	H	0.736757	0.484062	0.445537
H135	H	1.070090	0.817396	0.778870
H136	H	0.980714	0.150731	-0.465088
H137	H	1.314048	0.484065	-0.131755
H138	H	1.647381	0.817398	0.201579
H139	H	0.560761	-0.150866	0.114946
H140	H	0.894094	0.182468	0.448280
H141	H	1.227428	0.515801	0.781613
H142	H	0.983484	0.150735	-0.307772
H143	H	1.316818	0.484068	0.025561
H144	H	1.650151	0.817402	0.358895
Br145	Br	0.863265	-0.386952	-0.005338
Br146	Br	1.196598	-0.053619	0.327995
Br147	Br	1.529931	0.279714	0.661328
Br148	Br	0.980265	-0.196001	-0.488615
Br149	Br	1.313599	0.137333	-0.155281
Br150	Br	1.646932	0.470666	0.178052
H151	H	1.073537	-0.413009	0.205100
H152	H	1.406870	-0.079675	0.538433
H153	H	1.740204	0.253658	0.871766
Br154	Br	0.584283	0.195863	0.115362
Br155	Br	0.917617	0.529197	0.448695
Br156	Br	1.250950	0.862530	0.782029
Br157	Br	0.379883	-0.196011	0.111769
Br158	Br	0.713217	0.137323	0.445102
Br159	Br	1.046550	0.470656	0.778435
Br160	Br	0.983849	-0.196003	-0.284200
Br161	Br	1.317182	0.137330	0.049133
Br162	Br	1.650515	0.470663	0.382467
H163	H	1.073554	-0.587125	0.205085
H164	H	1.406887	-0.253792	0.538419
H165	H	1.740220	0.079541	0.871752
H166	H	0.890649	-0.587146	0.022046
H167	H	1.223982	-0.253812	0.355379
H168	H	1.557316	0.079521	0.688712
