data_functionalizedCrystal
_audit_creation_method	'MofGen! by Chris Wilmer'
_symmetry_space_group_name_H-M	'P1'
_symmetry_Int_Tables_number	1
_symmetry_cell_setting	triclinic
loop_
_symmetry_equiv_pos_as_xyz
  x,y,z
_cell_length_a	18.215405
_cell_length_b	21.395364
_cell_length_c	21.395355
_cell_angle_alpha	90.025298
_cell_angle_beta	89.980149
_cell_angle_gamma	89.958414
loop_
_atom_site_label
_atom_site_type_symbol
_atom_site_fract_x
_atom_site_fract_y
_atom_site_fract_z
Zn1	Zn	-0.292742	-0.957885	-0.354268
Zn2	Zn	-0.415790	-0.957798	-0.249488
Zn3	Zn	-0.292778	-0.853100	-0.249504
Zn4	Zn	-0.415807	-0.853079	-0.354227
O5	O	-0.354279	-0.905465	-0.301872
O6	O	-0.309042	-1.045551	-0.340380
O7	O	-0.399480	-0.943881	-0.161812
O8	O	-0.189789	-0.867044	-0.263424
O9	O	-0.399445	-1.045487	-0.263398
O10	O	-0.189762	-0.944029	-0.340394
O11	O	-0.309103	-0.866960	-0.161824
O12	O	-0.309120	-0.765419	-0.263384
O13	O	-0.399474	-0.867010	-0.441910
O14	O	-0.399509	-0.765404	-0.340324
O15	O	-0.309058	-0.944010	-0.441941
O16	O	-0.518776	-0.943862	-0.263358
O17	O	-0.518789	-0.866926	-0.340310
C18	C	-0.354321	-0.742678	-0.301852
C19	C	-0.354356	-0.673036	-0.301858
C20	C	-0.307361	-0.640379	-0.342004
C21	C	-0.307344	-0.574943	-0.342006
C22	C	-0.354335	-0.542168	-0.301868
C23	C	-0.401333	-0.574834	-0.261715
C24	C	-0.401343	-0.640268	-0.261710
C25	C	-0.420614	-0.438449	-0.296828
C26	C	-0.420604	-0.373017	-0.296837
C27	C	-0.354302	-0.340347	-0.301879
C28	C	-0.288006	-0.373119	-0.306926
C29	C	-0.288017	-0.438553	-0.306921
C30	C	-0.354328	-0.471216	-0.301869
C31	C	-0.307284	-0.236737	-0.342029
C32	C	-0.307266	-0.171301	-0.342026
C33	C	-0.401261	-0.171192	-0.261738
C34	C	-0.401273	-0.236627	-0.261738
C35	C	-0.354285	-0.269396	-0.301887
C36	C	-0.545485	-0.905399	-0.301842
C37	C	-0.627284	-0.905428	-0.301850
C38	C	-0.815447	-0.945583	-0.261855
C39	C	-0.892306	-0.945611	-0.261870
C40	C	-0.892359	-0.865428	-0.341934
C41	C	-0.815501	-0.865403	-0.341921
C42	C	-0.777048	-0.905480	-0.301878
C43	C	-0.930764	-0.905532	-0.301906
C44	C	-1.014097	-0.905563	-0.301923
C45	C	-0.693709	-0.905451	-0.301862
C46	C	-0.162326	-0.905549	-0.301916
C47	C	-0.080527	-0.905584	-0.301934
C48	C	-0.354264	-0.905517	-0.465295
C49	C	-0.354258	-0.905539	-0.534936
C50	C	-0.354247	-0.068889	-0.301889
C51	C	-0.354256	-0.138530	-0.301887
C52	C	-0.307176	-0.945632	-0.567666
C53	C	-0.307145	-0.945631	-0.633102
C54	C	-0.354208	-0.905544	-0.665805
C55	C	-0.401292	-0.865444	-0.633067
C56	C	-0.401317	-0.865442	-0.567633
C57	C	-0.420473	-0.900574	-0.769469
C58	C	-0.420449	-0.900581	-0.834902
C59	C	-0.354130	-0.905548	-0.867626
C60	C	-0.287832	-0.910522	-0.834908
C61	C	-0.287857	-0.910519	-0.769474
C62	C	-0.354185	-0.905542	-0.736757
C63	C	-0.307010	-0.945642	-0.971308
C64	C	-0.306977	-0.945636	-1.036745
C65	C	-0.401131	-0.865453	-1.036709
C66	C	-0.401158	-0.865455	-0.971273
C67	C	-0.354098	-0.905553	-0.938577
C68	C	-0.354241	-0.905450	-0.139084
C69	C	-0.354040	-0.905549	-0.069443
H70	H	-0.268993	-0.144712	-0.374717
N71	N	-0.774075	-0.822148	-0.385089
H72	H	-0.787408	-0.831858	-0.429868
H73	H	-0.787527	-0.777407	-0.375263
H74	H	-0.474465	-0.896362	-0.742831
H75	H	-0.233828	-0.914568	-0.861550
N76	N	-0.451941	-0.135846	-0.218447
H77	H	-0.504543	-0.147198	-0.228094
H78	H	-0.440372	-0.147234	-0.173715
N79	N	-0.451961	-0.271856	-0.218438
H80	H	-0.481727	-0.241166	-0.193010
H81	H	-0.486067	-0.298994	-0.243886
N82	N	-0.933837	-0.822196	-0.385111
H83	H	-0.897846	-0.796788	-0.410464
H84	H	-0.965677	-0.847692	-0.414137
N85	N	-0.256267	-0.988897	-0.936039
H86	H	-0.263437	-0.982822	-0.889620
H87	H	-0.267726	-1.033633	-0.947508
N88	N	-0.491951	-0.895216	-0.870188
H89	H	-0.498838	-0.933384	-0.897349
H90	H	-0.533923	-0.892041	-0.839491
H91	H	-0.474586	-0.346339	-0.292731
H92	H	-0.784140	-0.978217	-0.229251
N93	N	-0.452049	-0.822212	-0.668345
H94	H	-0.504635	-0.831916	-0.656962
H95	H	-0.440570	-0.777466	-0.656930
H96	H	-0.474609	-0.465043	-0.292721
N97	N	-0.451896	-0.822217	-1.071969
H98	H	-0.440481	-0.777455	-1.060562
H99	H	-0.444715	-0.828352	-1.118378
H100	H	-0.268801	-0.978277	-0.659756
N101	N	-0.256612	-0.272091	-0.385329
H102	H	-0.204007	-0.260747	-0.375684
H103	H	-0.263824	-0.318486	-0.379214
N104	N	-0.452011	-0.539488	-0.218418
H105	H	-0.444874	-0.493079	-0.224513
H106	H	-0.504590	-0.550892	-0.228083
N107	N	-0.933723	-0.988866	-0.218704
H108	H	-0.897698	-1.014249	-0.193337
H109	H	-0.965665	-0.963388	-0.189690
N110	N	-0.452089	-0.822189	-0.532327
H111	H	-0.481895	-0.796789	-0.562970
H112	H	-0.486156	-0.847670	-0.505184
N113	N	-0.452030	-0.675496	-0.218407
H114	H	-0.481795	-0.644806	-0.192976
H115	H	-0.486138	-0.702632	-0.243855
N116	N	-0.451952	-0.822222	-0.935969
H117	H	-0.444827	-0.828303	-0.889555
H118	H	-0.440507	-0.777479	-0.947387
N119	N	-0.256420	-0.988876	-0.532401
H120	H	-0.226589	-1.014274	-0.563068
H121	H	-0.222378	-0.963387	-0.505243
H122	H	-0.268634	-0.978283	-1.063392
H123	H	-0.233875	-0.914567	-0.742838
H124	H	-0.269100	-0.667055	-0.374696
H125	H	-0.269072	-0.548349	-0.374696
H126	H	-0.234037	-0.465234	-0.311028
H127	H	-0.234016	-0.346521	-0.311032
