data_functionalizedCrystal
_audit_creation_method	'MofGen! by Chris Wilmer'
_symmetry_space_group_name_H-M	'P1'
_symmetry_Int_Tables_number	1
_symmetry_cell_setting	triclinic
loop_
_symmetry_equiv_pos_as_xyz
  x,y,z
_cell_length_a	14.044190
_cell_length_b	10.654550
_cell_length_c	9.730223
_cell_angle_alpha	89.999957
_cell_angle_beta	89.990718
_cell_angle_gamma	88.838354
loop_
_atom_site_label
_atom_site_type_symbol
_atom_site_fract_x
_atom_site_fract_y
_atom_site_fract_z
O1	O	0.133232	1.681232	-0.114204
O2	O	0.633232	2.181232	0.385796
O3	O	0.145925	1.317029	-0.114231
O4	O	0.645925	1.817029	0.385769
O5	O	0.001558	1.493659	-0.114191
O6	O	0.501558	1.993659	0.385809
O7	O	0.277599	1.504602	-0.114244
O8	O	0.777599	2.004602	0.385756
O9	O	0.001554	1.493647	0.114389
O10	O	0.501554	1.993647	0.614389
O11	O	0.145921	1.317017	0.114349
O12	O	0.645921	1.817017	0.614349
O13	O	0.133228	1.681219	0.114376
O14	O	0.633228	2.181219	0.614376
Zn15	Zn	0.139574	1.499116	0.150655
Zn16	Zn	0.639574	1.999116	0.650655
Zn17	Zn	0.139579	1.499133	-0.150509
Zn18	Zn	0.639579	1.999133	0.349491
O19	O	0.277595	1.504589	0.114336
O20	O	0.777595	2.004589	0.614336
C21	C	0.144991	1.270131	0.000056
C22	C	0.644991	1.770131	0.500056
C23	C	0.142203	1.130408	0.000047
C24	C	0.642203	1.630408	0.500047
C25	C	0.227204	1.059467	0.000035
C26	C	0.727204	1.559467	0.500035
C27	C	0.224578	0.928182	0.000059
C28	C	0.724578	1.428182	0.500059
C29	C	0.051943	0.938791	0.000103
C30	C	0.551943	1.438791	0.500103
C31	C	0.054569	1.070074	0.000088
C32	C	0.554569	1.570074	0.500088
C33	C	-0.033790	1.488866	0.000103
C34	C	0.466210	1.988866	0.500103
C35	C	-0.139110	1.474587	0.000114
C36	C	0.360890	1.974587	0.500114
C37	C	-0.388902	1.549752	0.000066
C38	C	0.111098	2.049752	0.500066
C39	C	-0.331939	1.448502	0.000068
C40	C	0.168061	1.948502	0.500068
C41	C	-0.224639	1.463019	0.000094
C42	C	0.275361	1.963019	0.500094
C43	C	-0.496212	1.535237	0.000040
C44	C	0.003788	2.035237	0.500040
C45	C	0.312943	1.509383	0.000039
C46	C	0.812943	2.009383	0.500039
C47	C	0.418263	1.523662	0.000020
C48	C	0.918263	2.023662	0.500020
C49	C	0.134162	1.728117	0.000086
C50	C	0.634162	2.228117	0.500086
C51	C	0.136950	1.867841	0.000086
C52	C	0.636950	2.367841	0.500086
N53	N	0.139570	1.499113	0.356191
N54	N	0.639570	1.999113	0.856191
N55	N	0.139576	1.499144	-0.356046
N56	N	0.639576	1.999144	0.143954
C57	C	0.075671	1.577357	0.428135
C58	C	0.575671	2.077357	0.928135
C59	C	0.075671	1.577370	0.572018
C60	C	0.575671	2.077370	1.072018
C61	C	0.203478	1.420892	0.572001
C62	C	0.703478	1.920892	1.072001
C63	C	0.203472	1.420874	0.428120
C64	C	0.703472	1.920874	0.928120
H65	H	0.298561	1.108587	0.000012
H66	H	0.798561	1.608587	0.500012
H67	H	-0.014653	1.127836	0.000102
H68	H	0.485347	1.627836	0.500102
Br69	Br	-0.335875	1.712394	0.000097
Br70	Br	0.164125	2.212394	0.500097
Br71	Br	-0.384964	1.285850	0.000050
Br72	Br	0.115036	1.785850	0.500050
H73	H	0.023637	1.641063	0.369573
H74	H	0.523637	2.141063	0.869573
Br75	Br	-0.011056	1.683555	0.669653
Br76	Br	0.488944	2.183555	1.169653
Br77	Br	0.290201	1.314716	0.669624
Br78	Br	0.790201	1.814716	1.169624
Br79	Br	0.339943	0.831909	0.000049
Br80	Br	0.839943	1.331909	0.500049
Br81	Br	0.290190	1.314668	0.330471
Br82	Br	0.790190	1.814668	0.830471
H83	H	-0.019406	0.889651	0.000145
H84	H	0.480594	1.389651	0.500145
