data_functionalizedCrystal
_audit_creation_method	'MofGen! by Chris Wilmer'
_symmetry_space_group_name_H-M	'P1'
_symmetry_Int_Tables_number	1
_symmetry_cell_setting	triclinic
loop_
_symmetry_equiv_pos_as_xyz
  x,y,z
_cell_length_a	23.532355
_cell_length_b	22.610064
_cell_length_c	15.944551
_cell_angle_alpha	89.996881
_cell_angle_beta	83.163118
_cell_angle_gamma	90.002356
loop_
_atom_site_label
_atom_site_type_symbol
_atom_site_fract_x
_atom_site_fract_y
_atom_site_fract_z
O1	O	0.755677	0.049105	0.101745
O2	O	1.255677	0.549105	0.601745
O3	O	0.589867	0.049124	0.116544
O4	O	1.089867	0.549124	0.616544
O5	O	0.677300	0.049109	-0.013169
O6	O	1.177300	0.549109	0.486831
O7	O	0.668244	0.049121	0.231459
O8	O	1.168244	0.549121	0.731459
O9	O	0.677284	-0.049260	-0.013150
O10	O	1.177284	0.450740	0.486850
O11	O	0.589851	-0.049245	0.116563
O12	O	1.089851	0.450755	0.616563
O13	O	0.755661	-0.049264	0.101764
O14	O	1.255661	0.450736	0.601764
Zn15	Zn	0.672754	-0.064872	0.109167
Zn16	Zn	1.172754	0.435128	0.609167
Zn17	Zn	0.672774	0.064733	0.109142
Zn18	Zn	1.172774	0.564733	0.609142
O19	O	0.668228	-0.049248	0.231478
O20	O	1.168228	0.450752	0.731478
C21	C	0.568641	-0.000058	0.116184
C22	C	1.068641	0.499942	0.616184
C23	C	0.505418	-0.000051	0.115072
C24	C	1.005418	0.499949	0.615072
N25	N	0.672744	-0.153325	0.109183
N26	N	1.172744	0.346675	0.609183
C27	C	0.113369	-0.053697	0.108094
C28	C	0.613369	0.446303	0.608094
C29	C	0.053965	-0.053699	0.107036
C30	C	0.553965	0.446301	0.607036
O31	O	0.023237	-0.099301	0.106469
O32	O	0.523237	0.400699	0.606469
N33	N	0.024263	-0.000078	0.106501
N34	N	0.524263	0.499922	0.606501
C35	C	0.053968	0.053548	0.107015
C36	C	0.553968	0.553548	0.607015
O37	O	0.023250	0.099157	0.106462
O38	O	0.523250	0.599157	0.606462
C39	C	0.113371	0.053550	0.108068
C40	C	0.613371	0.553550	0.608068
C41	C	0.143069	-0.000074	0.108611
C42	C	0.643069	0.499926	0.608611
C43	C	0.143067	-0.107317	0.108637
C44	C	0.643067	0.392683	0.608637
C45	C	0.202466	-0.107314	0.109696
C46	C	0.702466	0.392686	0.609696
C47	C	0.232167	-0.053692	0.110213
C48	C	0.732167	0.446308	0.610213
C49	C	0.202469	-0.000072	0.109671
C50	C	0.702469	0.499928	0.609671
C51	C	0.143076	0.107176	0.108576
C52	C	0.643076	0.607176	0.608576
C53	C	0.202483	0.107173	0.109628
C54	C	0.702483	0.607173	0.609628
C55	C	0.232181	0.053549	0.110171
C56	C	0.732181	0.553549	0.610171
C57	C	0.291569	0.053553	0.111247
C58	C	0.791569	0.553553	0.611247
N59	N	0.321271	-0.000067	0.111782
N60	N	0.821271	0.499933	0.611782
C61	C	0.291570	-0.053690	0.111265
C62	C	0.791570	0.446310	0.611265
C63	C	-0.070782	0.053541	0.104805
C64	C	0.429218	0.553541	0.604805
C65	C	-0.130184	0.053539	0.103759
C66	C	0.369816	0.553539	0.603759
C67	C	-0.130183	-0.053708	0.103777
C68	C	0.369817	0.446292	0.603777
C69	C	-0.070780	-0.053707	0.104829
C70	C	0.429220	0.446293	0.604829
C71	C	-0.041080	-0.000080	0.105340
C72	C	0.458920	0.499920	0.605340
C73	C	0.416313	-0.053681	0.113491
C74	C	0.916313	0.446319	0.613491
C75	C	0.475717	-0.053673	0.114555
C76	C	0.975717	0.446327	0.614555
C77	C	0.475711	0.053574	0.114531
C78	C	0.975711	0.553574	0.614531
C79	C	0.416312	0.053567	0.113473
C80	C	0.916312	0.553567	0.613473
C81	C	0.386614	-0.000065	0.112950
C82	C	0.886614	0.499935	0.612950
O83	O	0.322335	0.099132	0.111812
O84	O	0.822335	0.599132	0.611812
O85	O	0.322297	-0.099291	0.111807
O86	O	0.822297	0.400709	0.611807
C87	C	0.711491	-0.561973	0.051713
C88	C	1.211491	-0.061973	0.551713
C89	C	0.711494	-0.623893	0.051707
C90	C	1.211494	-0.123893	0.551707
O91	O	0.744414	-0.655918	0.002857
O92	O	1.244414	-0.155918	0.502857
N93	N	0.672774	-0.654862	0.109124
N94	N	1.172774	-0.154862	0.609124
C95	C	0.634044	-0.623908	0.166546
C96	C	1.134044	-0.123908	0.666546
O97	O	0.601109	-0.655935	0.215382
O98	O	1.101109	-0.155935	0.715382
C99	C	0.634039	-0.561989	0.166547
C100	C	1.134039	-0.061989	0.666547
C101	C	0.672766	-0.531023	0.109132
C102	C	1.172766	-0.031023	0.609132
C103	C	0.750215	-0.531007	-0.005698
C104	C	1.250215	-0.031007	0.494302
C105	C	0.750212	-0.469092	-0.005690
C106	C	1.250212	0.030908	0.494310
C107	C	0.711487	-0.438142	0.051728
C108	C	1.211487	0.061858	0.551728
C109	C	0.672763	-0.469108	0.109139
C110	C	1.172763	0.030892	0.609139
C111	C	0.595307	-0.531036	0.223964
C112	C	1.095307	-0.031036	0.723964
C113	C	0.595305	-0.469113	0.223960
C114	C	1.095305	0.030887	0.723960
C115	C	0.634031	-0.438147	0.166545
C116	C	1.134031	0.061853	0.666545
C117	C	0.634035	-0.376242	0.166565
C118	C	1.134035	0.123758	0.666565
N119	N	0.672756	-0.345273	0.109148
N120	N	1.172756	0.154727	0.609148
C121	C	0.711481	-0.376223	0.051730
C122	C	1.211481	0.123777	0.551730
C123	C	0.634057	-0.753942	0.166537
C124	C	1.134057	-0.253942	0.666537
C125	C	0.634065	-0.815859	0.166541
C126	C	1.134065	-0.315859	0.666541
C127	C	0.711514	-0.815840	0.051701
C128	C	1.211514	-0.315840	0.551701
C129	C	0.711509	-0.753921	0.051702
C130	C	1.211509	-0.253921	0.551702
C131	C	0.672778	-0.722973	0.109120
C132	C	1.172778	-0.222973	0.609120
C133	C	0.711474	-0.246196	0.051750
C134	C	1.211474	0.253804	0.551750
C135	C	0.711470	-0.184275	0.051765
C136	C	1.211470	0.315725	0.551765
C137	C	0.634018	-0.184299	0.166601
C138	C	1.134018	0.315701	0.666601
C139	C	0.634024	-0.246215	0.166590
C140	C	1.134024	0.253785	0.666590
C141	C	0.672754	-0.277162	0.109157
C142	C	1.172754	0.222838	0.609157
O143	O	0.601131	-0.344179	0.215388
O144	O	1.101131	0.155821	0.715388
O145	O	0.744406	-0.344188	0.002894
O146	O	1.244406	0.155812	0.502894
C147	C	0.776887	-0.000080	0.102125
C148	C	1.276887	0.499920	0.602125
C149	C	0.840110	-0.000083	0.103237
C150	C	1.340110	0.499917	0.603237
C151	C	0.676916	-0.000076	-0.044451
C152	C	1.176916	0.499924	0.455549
C153	C	0.675789	-0.000076	-0.137687
C154	C	1.175789	0.499924	0.362313
N155	N	0.672788	0.153186	0.109119
N156	N	1.172788	0.653186	0.609119
C157	C	0.618900	-0.000061	-0.352049
C158	C	1.118900	0.499939	0.147951
C159	C	0.645310	-0.048566	-0.413286
C160	C	1.145310	0.451434	0.086714
C161	C	0.673750	-0.000071	-0.308395
C162	C	1.173750	0.499929	0.191605
C163	C	0.645338	0.048418	-0.413289
C164	C	1.145338	0.548418	0.086711
C165	C	0.671776	-0.000064	-0.473290
C166	C	1.171776	0.499936	0.026710
C167	C	0.700175	-0.048616	-0.368405
C168	C	1.200175	0.451384	0.131595
C169	C	0.700195	0.048412	-0.368400
C170	C	1.200195	0.548412	0.131600
C171	C	0.726645	-0.000105	-0.429621
C172	C	1.226645	0.499895	0.070379
C173	C	0.674885	-0.000076	-0.213403
C174	C	1.174885	0.499924	0.286597
C175	C	0.670645	-0.000063	-0.568282
C176	C	1.170645	0.499937	-0.068282
C177	C	0.668612	-0.000062	0.262759
C178	C	1.168612	0.499938	0.762759
C179	C	0.669739	-0.000058	0.355995
C180	C	1.169739	0.499942	0.855995
H181	H	0.392139	-0.097353	0.113073
H182	H	0.892139	0.402647	0.613073
N183	N	0.592265	-0.279624	0.228519
N184	N	1.092265	0.220376	0.728519
H185	H	0.598824	-0.268856	0.288086
H186	H	1.098824	0.231144	0.788086
H187	H	0.551864	-0.268837	0.219090
H188	H	1.051864	0.231163	0.719090
N189	N	0.614579	-0.102878	-0.439660
N190	N	1.114579	0.397122	0.060340
H191	H	0.634887	-0.139510	-0.422529
H192	H	1.134887	0.360490	0.077471
H193	H	0.573888	-0.102788	-0.411144
H194	H	1.073888	0.397212	0.088856
N195	N	0.753273	-0.720534	-0.010242
N196	N	1.253273	-0.220534	0.489758
H197	H	0.731506	-0.694850	-0.047268
H198	H	1.231506	-0.194850	0.452732
H199	H	0.778482	-0.694872	0.021705
H200	H	1.278482	-0.194872	0.521705
N201	N	0.111058	0.165016	0.107979
N202	N	0.611058	0.665016	0.607979
H203	H	0.091033	0.167401	0.055461
H204	H	0.591033	0.667401	0.555461
H205	H	0.081821	0.167386	0.159649
H206	H	0.581821	0.667386	0.659649
N207	N	0.234517	0.165014	0.110172
N208	N	0.734517	0.665014	0.610172
H209	H	0.206686	0.198980	0.109667
H210	H	0.706686	0.698980	0.609667
H211	H	0.254545	0.167359	0.162688
H212	H	0.754545	0.667359	0.662688
H213	H	-0.046604	0.097212	0.105228
H214	H	0.453396	0.597212	0.605228
N215	N	0.614604	0.102732	-0.439643
N216	N	1.114604	0.602732	0.060357
H217	H	0.601086	0.127192	-0.388106
H218	H	1.101086	0.627192	0.111894
H219	H	0.641594	0.126989	-0.479951
H220	H	1.141594	0.626989	0.020049
N221	N	0.592289	-0.720560	0.228481
N222	N	1.092289	-0.220560	0.728481
H223	H	0.567069	-0.694872	0.196585
H224	H	1.067069	-0.194872	0.696585
H225	H	0.567802	-0.749614	0.264838
H226	H	1.067802	-0.249614	0.764838
N227	N	0.234488	-0.165156	0.110278
N228	N	0.734488	0.334844	0.610278
H229	H	0.228763	-0.188597	0.058021
H230	H	0.728763	0.311403	0.558021
H231	H	0.276615	-0.156981	0.111058
H232	H	0.776615	0.343019	0.611058
N233	N	0.558596	-0.000113	-0.307396
N234	N	1.058596	0.499887	0.192604
H235	H	0.537661	0.036145	-0.324401
H236	H	1.037661	0.536145	0.175599
H237	H	0.537992	-0.036807	-0.323604
H238	H	1.037992	0.463193	0.176396
H239	H	0.781745	-0.443883	-0.052445
H240	H	1.281745	0.056117	0.447555
N241	N	0.730874	-0.102994	-0.342193
N242	N	1.230874	0.397006	0.157807
H243	H	0.731428	-0.102671	-0.278953
H244	H	1.231428	0.397329	0.221047
H245	H	0.710289	-0.139551	-0.358951
H246	H	1.210289	0.360449	0.141049
N247	N	0.787003	-0.000142	-0.474074
N248	N	1.287003	0.499858	0.025926
H249	H	0.807634	-0.036795	-0.457773
H250	H	1.307634	0.463205	0.042227
H251	H	0.785869	0.000228	-0.537192
H252	H	1.285869	0.500228	-0.037192
N253	N	0.111039	-0.165158	0.108076
N254	N	0.611039	0.334842	0.608076
H255	H	0.138924	-0.199118	0.108006
H256	H	0.638924	0.300882	0.608006
H257	H	0.082040	-0.167669	0.160009
H258	H	0.582040	0.332331	0.660009
H259	H	0.392129	0.097232	0.113044
H260	H	0.892129	0.597232	0.613044
N261	N	0.730908	0.102726	-0.342013
N262	N	1.230908	0.602726	0.157987
H263	H	0.704154	0.126604	-0.300861
H264	H	1.204154	0.626604	0.199139
H265	H	0.765376	0.090321	-0.314133
H266	H	1.265376	0.590321	0.185867
H267	H	0.499894	-0.097343	0.115000
H268	H	0.999894	0.402657	0.615000
N269	N	0.592251	-0.150912	0.228529
N270	N	1.092251	0.349088	0.728529
H271	H	0.598128	-0.106989	0.219813
H272	H	1.098128	0.393011	0.719813
H273	H	0.551853	-0.161737	0.219131
H274	H	1.051853	0.338263	0.719131
H275	H	-0.046604	-0.097372	0.105273
H276	H	0.453396	0.402628	0.605273
H277	H	-0.154376	-0.097371	0.103355
H278	H	0.345624	0.402629	0.603355
H279	H	-0.154361	0.097206	0.103329
H280	H	0.345639	0.597206	0.603329
H281	H	0.499904	0.097232	0.114956
H282	H	0.999904	0.597232	0.614956
H283	H	0.743008	-0.159064	0.005010
H284	H	1.243008	0.340936	0.505010
N285	N	0.753249	-0.279569	-0.010188
N286	N	1.253249	0.220431	0.489812
H287	H	0.777779	-0.250549	-0.046549
H288	H	1.277779	0.249451	0.453451
H289	H	0.778426	-0.305256	0.021777
H290	H	1.278426	0.194744	0.521777
H291	H	0.781750	-0.556201	-0.052459
H292	H	1.281750	-0.056201	0.447541
H293	H	0.743046	-0.841051	0.004946
H294	H	1.243046	-0.341051	0.504946
H295	H	0.602536	-0.841067	0.213302
H296	H	1.102536	-0.341067	0.713302
H297	H	0.563772	-0.556240	0.270716
H298	H	1.063772	-0.056240	0.770716
N299	N	0.553526	-0.435733	0.285887
N300	N	1.053526	0.064267	0.785887
H301	H	0.528997	-0.464750	0.322254
H302	H	1.028997	0.035250	0.822254
H303	H	0.575323	-0.410043	0.322860
H304	H	1.075323	0.089957	0.822860
