data_functionalizedCrystal
_audit_creation_method	'MofGen! by Chris Wilmer'
_symmetry_space_group_name_H-M	'P1'
_symmetry_Int_Tables_number	1
_symmetry_cell_setting	triclinic
loop_
_symmetry_equiv_pos_as_xyz
  x,y,z
_cell_length_a	27.731993
_cell_length_b	27.732025
_cell_length_c	12.377034
_cell_angle_alpha	78.833048
_cell_angle_beta	78.798487
_cell_angle_gamma	97.373071
loop_
_atom_site_label
_atom_site_type_symbol
_atom_site_fract_x
_atom_site_fract_y
_atom_site_fract_z
O1	O	0.631631	-0.066689	0.093660
O2	O	0.490827	-0.075469	0.093724
O3	O	0.565605	-0.000684	0.093724
O4	O	0.556854	-0.141474	0.093659
O5	O	0.584282	0.017980	-0.094271
O6	O	0.509505	-0.056805	-0.094272
O7	O	0.650309	-0.048026	-0.094336
Zn8	Zn	0.582872	-0.049452	-0.124152
Zn9	Zn	0.558264	-0.074042	0.123540
O10	O	0.575532	-0.122811	-0.094336
C11	C	0.482158	-0.065958	-0.000265
C12	C	0.428499	-0.065418	-0.000239
C13	C	0.035163	-0.071655	0.102185
C14	C	0.236817	-0.073725	0.102214
O15	O	0.254231	-0.082625	0.189369
N16	N	0.272218	-0.063811	-0.000260
C17	C	0.257204	-0.053375	-0.102749
O18	O	0.291943	-0.044985	-0.189909
C19	C	0.055551	-0.051302	-0.102777
C20	C	0.020151	-0.061222	-0.000296
C21	C	-0.000236	-0.081574	0.204657
C22	C	-0.050647	-0.081059	0.204649
C23	C	-0.065659	-0.070626	0.102168
C24	C	-0.030260	-0.060707	-0.000305
C25	C	0.040538	-0.040862	-0.205265
C26	C	-0.009879	-0.040344	-0.205263
C27	C	-0.045279	-0.050264	-0.102782
C28	C	-0.095682	-0.049758	-0.102794
N29	N	-0.131083	-0.059673	-0.000320
C30	C	-0.116072	-0.070106	0.102161
C31	C	0.363074	-0.054465	-0.102727
C32	C	0.413487	-0.054984	-0.102720
C33	C	0.393097	-0.075334	0.102244
C34	C	0.342682	-0.074818	0.102236
C35	C	0.327673	-0.064380	-0.000252
C36	C	-0.221937	-0.069025	0.102135
C37	C	-0.272352	-0.068511	0.102118
C38	C	-0.251957	-0.048159	-0.102845
C39	C	-0.201547	-0.048675	-0.102828
C40	C	-0.186539	-0.059107	-0.000329
O41	O	-0.113131	-0.040857	-0.189903
O42	O	-0.150816	-0.078485	0.189308
C43	C	0.085574	-0.072170	0.102193
C44	C	0.120973	-0.062252	-0.000280
C45	C	0.105961	-0.051818	-0.102761
C46	C	0.171386	-0.062771	-0.000273
C47	C	0.186397	-0.073204	0.102208
C48	C	0.150996	-0.083119	0.204683
C49	C	0.100585	-0.082604	0.204674
C50	C	0.141362	-0.041904	-0.205235
C51	C	0.191772	-0.042420	-0.205218
C52	C	0.206784	-0.052853	-0.102737
C53	C	0.574760	0.026654	-0.000262
C54	C	0.574208	0.080306	-0.000229
C55	C	0.658978	-0.057537	-0.000344
C56	C	0.712636	-0.058077	-0.000363
C57	C	0.566376	-0.150149	-0.000347
C58	C	0.566927	-0.203801	-0.000374
C59	C	0.560137	0.453304	0.102184
C60	C	0.562186	0.251641	0.102219
O61	O	0.553811	0.216922	0.189374
N62	N	0.572623	0.236593	-0.000254
C63	C	0.582552	0.271965	-0.102744
O64	O	0.591482	0.254539	-0.189903
C65	C	0.580507	0.473627	-0.102778
C66	C	0.570064	0.488671	-0.000298
C67	C	0.549695	0.468349	0.204656
C68	C	0.549180	0.518761	0.204646
C69	C	0.559107	0.554128	0.102164
C70	C	0.569549	0.539083	-0.000308
C71	C	0.590439	0.508998	-0.205267
C72	C	0.589928	0.559416	-0.205266
C73	C	0.579485	0.574460	-0.102786
C74	C	0.578961	0.624863	-0.102799
N75	N	0.568523	0.639911	-0.000326
C76	C	0.558597	0.604544	0.102156
C77	C	0.583625	0.166089	-0.102719
C78	C	0.584135	0.115673	-0.102710
C79	C	0.563769	0.095353	0.102253
C80	C	0.563255	0.145769	0.102244
C81	C	0.573187	0.181137	-0.000245
C82	C	0.557516	0.710414	0.102127
C83	C	0.557000	0.760832	0.102108
C84	C	0.577368	0.781147	-0.102855
C85	C	0.577882	0.730734	-0.102836
C86	C	0.567956	0.695368	-0.000336
O87	O	0.587336	0.659610	-0.189909
O88	O	0.549679	0.621981	0.189302
C89	C	0.560651	0.402891	0.102194
C90	C	0.571093	0.387846	-0.000278
C91	C	0.581020	0.423214	-0.102760
C92	C	0.571604	0.337431	-0.000270
C93	C	0.561677	0.302064	0.102212
C94	C	0.551239	0.317112	0.204685
C95	C	0.550724	0.367524	0.204676
C96	C	0.591458	0.408165	-0.205233
C97	C	0.591971	0.357752	-0.205215
C98	C	0.582044	0.322385	-0.102733
N99	N	0.599671	-0.032670	-0.293196
C100	C	0.638669	0.006310	-0.352346
C101	C	0.650425	0.018070	-0.470675
C102	C	0.623187	-0.009151	-0.529866
C103	C	0.584191	-0.048135	-0.470716
C104	C	0.572431	-0.059894	-0.352375
C105	C	0.556949	-0.075355	-0.529896
C106	C	0.517953	-0.114339	-0.470746
C107	C	0.506195	-0.126096	-0.352416
C108	C	0.533432	-0.098874	-0.293225
C109	C	0.568709	-0.063597	-0.648237
C110	C	0.502471	-0.129801	-0.648266
C111	C	0.490715	-0.141561	-0.529937
N112	N	0.541469	-0.090820	0.292584
H113	H	0.129147	-0.033405	-0.288689
H114	H	0.523862	-0.108450	-0.196872
C115	C	0.594545	0.204987	-0.215472
N116	N	0.602766	0.234283	-0.300399
H117	H	0.442305	-0.046914	-0.186170
C118	C	0.409619	-0.086807	0.214974
N119	N	0.422067	-0.095444	0.299877
C120	C	0.668615	0.036260	-0.287228
N121	N	0.691169	0.058824	-0.238179
C122	C	0.611605	-0.020716	-0.713288
N123	N	0.643917	0.011584	-0.762283
H124	H	0.163227	-0.091617	0.288126
H125	H	0.313862	-0.082896	0.185685
H126	H	0.586366	0.718482	-0.186284
C127	C	-0.089580	-0.091962	0.317387
N128	N	-0.118901	-0.100170	0.402307
H129	H	0.069354	-0.032783	-0.288716
H130	H	0.598016	0.588211	-0.288727
C131	C	0.472507	-0.159747	-0.713372
N132	N	0.449941	-0.182301	-0.762416
H133	H	0.632761	0.000425	-0.626215
C134	C	0.552854	0.056440	0.214984
N135	N	0.544637	0.027130	0.299888
H136	H	0.220592	-0.034345	-0.288677
H137	H	-0.172724	-0.040607	-0.186277
H138	H	0.682176	0.049811	-0.518831
C139	C	0.463333	-0.169015	-0.287355
N140	N	0.431064	-0.201356	-0.238352
C141	C	0.595617	0.099130	-0.215447
N142	N	0.604268	0.086673	-0.300364
C143	C	0.447816	-0.184440	-0.464857
N144	N	0.415504	-0.216735	-0.415837
C145	C	0.346570	-0.042992	-0.215479
N146	N	0.334141	-0.034355	-0.300406
H147	H	0.585449	0.809952	-0.186293
H148	H	-0.301174	-0.076591	0.185574
C149	C	0.537731	0.535308	0.317383
N150	N	0.529120	0.547769	0.402303
H151	H	-0.209725	-0.077520	0.185600
H152	H	0.554751	0.158014	0.185692
H153	H	-0.022096	-0.031848	-0.288723
C154	C	-0.268480	-0.036681	-0.215569
N155	N	-0.280925	-0.028031	-0.300473
C156	C	0.016267	-0.093052	0.317405
N157	N	0.028693	-0.101701	0.402334
H158	H	0.548494	0.773076	0.185564
C159	C	0.546593	0.671518	0.214883
N160	N	0.538363	0.642221	0.299810
H161	H	0.542220	0.379768	0.288126
C162	C	0.538771	0.429451	0.317404
N163	N	0.530539	0.400155	0.402334
H164	H	0.071766	-0.090682	0.288125
H165	H	0.598948	0.496760	-0.288717
H166	H	0.600471	0.345509	-0.288673
C167	C	0.540322	0.278199	0.317416
N168	N	0.532104	0.248887	0.402319
C169	C	0.602374	0.447063	-0.317978
N170	N	0.610593	0.476359	-0.402905
