data_functionalizedCrystal
_audit_creation_method	'MofGen! by Chris Wilmer'
_symmetry_space_group_name_H-M	'P1'
_symmetry_Int_Tables_number	1
_symmetry_cell_setting	triclinic
loop_
_symmetry_equiv_pos_as_xyz
  x,y,z
_cell_length_a	20.919287
_cell_length_b	14.560438
_cell_length_c	14.560438
_cell_angle_alpha	60.003603
_cell_angle_beta	86.843238
_cell_angle_gamma	58.212760
loop_
_atom_site_label
_atom_site_type_symbol
_atom_site_fract_x
_atom_site_fract_y
_atom_site_fract_z
Zr1	Zr	0.616771	1.005230	-0.169209
O2	O	0.514551	1.196821	-0.307754
O3	O	0.648105	0.813638	-0.126751
O4	O	0.648111	1.005230	-0.318336
O5	O	0.514543	1.005229	0.034971
O6	O	0.753468	1.005231	-0.326668
O7	O	0.514545	1.005229	-0.116169
O8	O	0.753458	0.662508	0.016042
O9	O	0.514553	1.347951	-0.307740
O10	O	0.740098	0.892443	-0.114846
O11	O	0.661470	0.892442	0.004167
O12	O	0.661477	1.118017	-0.221400
O13	O	0.582848	1.118016	-0.102387
Zr14	Zr	0.784801	1.005230	0.058551
Zr15	Zr	0.784804	1.005231	-0.182499
Zr16	Zr	0.616768	1.005229	0.071841
Zr17	Zr	0.616775	1.246265	-0.169187
Zr18	Zr	0.784797	0.764194	0.058529
O19	O	0.753467	1.196821	0.016093
O20	O	0.753471	1.196822	-0.326650
O21	O	0.514546	1.196820	0.034989
O22	O	0.887021	0.813639	0.197096
O23	O	0.887026	0.813640	-0.145647
O24	O	0.648101	0.813638	0.215992
O25	O	0.887029	1.005231	-0.145629
O26	O	0.753461	1.005230	0.207678
O27	O	0.648104	1.005229	0.216010
O28	O	0.887027	1.005231	0.005511
O29	O	0.648117	1.347952	-0.318303
O30	O	0.753455	0.662508	0.207645
O31	O	0.887019	0.662508	0.197082
O32	O	0.887021	0.662509	0.005479
O33	O	0.514550	1.347951	-0.116137
O34	O	0.648114	1.347952	-0.126700
O35	O	0.740095	0.892443	0.110742
O36	O	0.818724	0.892443	-0.008271
O37	O	0.740102	1.118017	-0.114825
O38	O	0.661473	1.118016	0.004188
C39	C	0.700781	0.703731	-0.055357
C40	C	0.700779	0.601405	-0.055367
C41	C	0.642750	0.540374	-0.133979
C42	C	0.642741	0.636550	-0.134016
C43	C	0.758825	0.470072	0.023330
C44	C	0.758830	0.373899	0.023370
C45	C	0.575731	0.636490	-0.224824
C46	C	0.575723	0.732666	-0.224861
C47	C	0.490603	1.005229	-0.038706
C48	C	0.419269	1.005228	-0.033064
C49	C	0.385756	1.005232	-0.113680
C50	C	0.318733	1.005225	-0.108373
C51	C	0.285219	1.005223	-0.022454
C52	C	0.318737	1.005216	0.058169
C53	C	0.385763	1.005214	0.052866
C54	C	0.082847	1.005222	-0.002273
C55	C	0.015815	1.005228	0.003022
C56	C	0.015816	1.005234	-0.163520
C57	C	0.082841	1.005240	-0.168819
C58	C	0.116355	1.005225	-0.088193
C59	C	0.216708	1.005220	-0.017030
C60	C	0.184868	1.005219	-0.093613
C61	C	0.910969	1.005231	-0.071952
C62	C	0.982303	1.005231	-0.077594
C63	C	0.700790	1.005230	-0.356847
C64	C	0.700792	1.005231	-0.459179
C65	C	0.700791	1.306729	-0.055300
C66	C	0.700792	1.409055	-0.055291
C67	C	0.758830	1.005236	-0.511853
C68	C	0.758826	1.005231	-0.608002
C69	C	0.642739	1.005219	-0.598796
C70	C	0.642746	1.005215	-0.502644
C71	C	0.825851	1.005249	-0.517172
C72	C	0.825847	1.005243	-0.613321
C73	C	0.700782	1.005229	0.246189
C74	C	0.700780	1.005229	0.348521
C75	C	0.910964	0.703732	-0.071981
C76	C	0.982297	0.601406	-0.077632
C77	C	0.700777	0.703730	0.246160
C78	C	0.700774	0.601404	0.348483
C79	C	0.910960	0.703731	0.229537
C80	C	0.982291	0.601406	0.326218
C81	C	0.490612	1.306728	-0.340195
C82	C	0.419281	1.409054	-0.436875
C83	C	0.490608	1.306728	-0.038677
C84	C	0.419275	1.409053	-0.033026
C85	C	0.700795	1.306729	-0.356818
C86	C	0.700798	1.409056	-0.459141
C87	C	0.974754	0.553353	-0.135928
C88	C	1.041772	0.457221	-0.141260
C89	C	1.116332	0.409137	-0.088289
C90	C	1.123874	0.457199	-0.029992
C91	C	1.056857	0.553337	-0.024667
C92	C	1.056839	0.553353	0.309496
C93	C	1.123869	0.457220	0.400328
C94	C	1.116349	0.409136	0.507881
C95	C	1.041793	0.457198	0.524601
C96	C	0.974765	0.553335	0.433770
C97	C	0.344732	1.457119	-0.420154
C98	C	0.277703	1.553281	-0.510986
C99	C	0.285223	1.601371	-0.618539
C100	C	0.359779	1.553302	-0.635259
C101	C	0.426807	1.457148	-0.544428
C102	C	0.426818	1.457117	0.025260
C103	C	0.359800	1.553276	0.030565
C104	C	0.285239	1.601363	-0.022409
C105	C	0.277698	1.553296	-0.080701
C106	C	0.344715	1.457145	-0.086013
C107	C	0.741815	0.553326	0.452185
C108	C	0.741806	0.457185	0.548325
C109	C	0.659713	0.457204	0.437046
C110	C	0.659718	0.553350	0.340909
C111	C	0.789214	0.553310	0.516432
C112	C	0.789205	0.457169	0.612572
H113	H	0.581499	0.795652	-0.307443
N114	N	0.507210	1.405288	-0.562476
H115	H	0.548538	1.337071	-0.488622
H116	H	0.513425	1.478710	-0.605482
H117	H	0.365956	1.592396	0.078037
N118	N	0.197276	1.605153	-0.137816
H119	H	0.202658	1.560119	-0.175548
H120	H	0.167680	1.701669	-0.194654
H121	H	0.757937	0.493298	0.665971
N122	N	0.754294	0.672537	0.519223
H123	H	0.706482	0.748869	0.453660
H124	H	0.794351	0.692113	0.516107
N125	N	0.421897	1.005246	-0.206356
H126	H	0.390495	1.005245	-0.256619
H127	H	0.477616	0.925169	-0.174360
N128	N	0.901674	0.885519	-0.428748
H129	H	0.906833	0.805384	-0.412188
H130	H	0.901662	0.885595	-0.359422
N131	N	0.872321	0.337912	0.675144
H132	H	0.904592	0.360962	0.695748
H133	H	0.895647	0.304399	0.627041
N134	N	0.212960	1.705068	-0.016675
H135	H	0.229059	1.728210	0.028293
H136	H	0.180727	1.671537	0.019358
H137	H	1.063009	0.592449	0.022810
N138	N	1.033688	0.405328	0.640607
H139	H	1.087466	0.337131	0.695601
H140	H	1.004057	0.365495	0.651860
N141	N	1.188607	0.305438	-0.094036
H142	H	1.220867	0.225648	-0.016857
H143	H	1.220812	0.339000	-0.130143
N144	N	1.033618	0.405392	-0.204131
H145	H	1.059597	0.308879	-0.152201
H146	H	1.059573	0.422225	-0.265450
N147	N	0.212927	1.705064	-0.716505
H148	H	0.212888	1.784855	-0.762780
H149	H	0.164601	1.728098	-0.689498
N150	N	-0.020324	1.005224	-0.250464
H151	H	0.011078	1.005222	-0.305695
H152	H	-0.076044	1.085301	-0.289722
H153	H	0.365893	1.592469	-0.722839
N154	N	0.197300	1.605087	-0.492924
H155	H	0.167659	1.588363	-0.527854
H156	H	0.167719	1.701580	-0.527804
H157	H	0.814140	1.098517	-0.533052
H158	H	0.626289	0.592504	0.256473
N159	N	0.499917	0.650805	-0.207821
H160	H	0.499890	0.581443	-0.207788
H161	H	0.454348	0.739334	-0.269610
H162	H	0.849894	0.517178	0.502901
H163	H	0.806088	0.266974	0.087454
H164	H	0.338563	1.418014	-0.133472
H165	H	1.184570	0.418097	0.386695
N166	N	0.896465	0.881714	-0.596657
H167	H	0.878613	0.837146	-0.612010
H168	H	0.930551	0.822139	-0.517886
H169	H	0.487523	1.417971	0.068406
H170	H	0.291448	1.005226	-0.174016
H171	H	0.626287	0.418067	0.430893
N172	N	0.580138	1.005200	-0.645681
H173	H	0.549636	1.085273	-0.723194
H174	H	0.543426	1.005146	-0.597642
N175	N	0.336602	1.405269	-0.304162
H176	H	0.307000	1.478625	-0.292808
H177	H	0.390395	1.337039	-0.249214
N178	N	-0.020339	1.005221	0.095692
H179	H	-0.036583	1.085289	0.093360
H180	H	0.019261	0.925086	0.168951
N181	N	0.821421	0.432158	0.108166
H182	H	0.812612	0.513009	0.096203
H183	H	0.874681	0.378984	0.100276
N184	N	0.580153	1.005203	-0.445820
H185	H	0.605486	0.925124	-0.367899
H186	H	0.543398	1.005246	-0.488028
N187	N	0.591252	0.636438	-0.327318
H188	H	0.598746	0.707152	-0.376871
H189	H	0.545221	0.652602	-0.368120
H190	H	0.914067	0.592448	0.447400
H191	H	0.212159	1.005213	-0.163565
N192	N	0.505102	0.811719	-0.197047
H193	H	0.474047	0.906038	-0.260617
H194	H	0.523017	0.802802	-0.128277
N195	N	0.118983	1.005251	-0.261493
H196	H	0.087582	1.005254	-0.311760
H197	H	0.174703	0.925176	-0.229500
N198	N	0.119002	1.005172	0.084700
H199	H	0.087601	1.005165	0.139934
H200	H	0.118916	1.085235	0.048328
N201	N	0.180548	1.005233	0.075625
H202	H	0.164297	1.085310	0.073280
H203	H	0.220148	0.925107	0.148888
H204	H	0.914049	0.592502	-0.179077
N205	N	0.282602	1.005192	0.150851
H206	H	0.235055	1.005195	0.141979
H207	H	0.266409	1.085264	0.148469
H208	H	1.184590	0.418035	0.013133
H209	H	1.062977	0.592489	0.221929
N210	N	0.421916	1.005196	0.139822
H211	H	0.390517	1.005195	0.195057
H212	H	0.421821	1.085268	0.103431
H213	H	0.820066	1.095647	-0.684158
H214	H	1.170934	0.330854	0.581832
