data_functionalizedCrystal
_audit_creation_method	'MofGen! by Chris Wilmer'
_symmetry_space_group_name_H-M	'P1'
_symmetry_Int_Tables_number	1
_symmetry_cell_setting	triclinic
loop_
_symmetry_equiv_pos_as_xyz
  x,y,z
_cell_length_a	17.699077
_cell_length_b	17.699092
_cell_length_c	16.176319
_cell_angle_alpha	89.994879
_cell_angle_beta	89.993140
_cell_angle_gamma	83.283472
loop_
_atom_site_label
_atom_site_type_symbol
_atom_site_fract_x
_atom_site_fract_y
_atom_site_fract_z
O1	O	1.004084	0.095691	-0.068732
O2	O	0.783706	0.108148	-0.068736
O3	O	0.900118	-0.008269	-0.068732
O4	O	0.887672	0.212109	-0.068736
O5	O	0.900102	-0.008276	0.068761
O6	O	0.783690	0.108141	0.068757
O7	O	1.004068	0.095684	0.068761
Cu8	Cu	0.893878	0.101912	0.081313
Cu9	Cu	0.893897	0.101920	-0.081289
O10	O	0.887656	0.212101	0.068757
C11	C	0.755501	0.107699	0.000010
C12	C	0.671482	0.106362	0.000008
C13	C	0.899663	-0.036470	0.000013
C14	C	0.898322	-0.120487	0.000009
C15	C	0.632006	0.105728	0.074957
C16	C	0.553064	0.104460	0.074958
C17	C	0.513598	0.103831	0.000009
C18	C	0.553080	0.104463	-0.074945
C19	C	0.632022	0.105726	-0.074945
C20	C	0.234716	0.099370	-0.074946
C21	C	0.155769	0.098109	-0.074940
C22	C	0.155758	0.098104	0.074956
C23	C	0.234700	0.099367	0.074956
C24	C	0.274176	0.099994	0.000003
C25	C	0.359774	0.101368	0.000003
C26	C	0.428000	0.102463	0.000009
C27	C	0.897702	-0.159951	-0.074939
C28	C	0.896438	-0.238894	-0.074940
C29	C	0.895798	-0.278373	0.000008
C30	C	0.896415	-0.238903	0.074962
C31	C	0.897674	-0.159961	0.074962
C32	C	0.891335	-0.557268	0.074963
C33	C	0.890077	-0.636216	0.074958
C34	C	0.890098	-0.636201	-0.074939
C35	C	0.891357	-0.557259	-0.074939
C36	C	0.891970	-0.517796	0.000014
C37	C	0.893341	-0.432197	0.000015
C38	C	0.894433	-0.363971	0.000009
C39	C	1.032274	0.096133	0.000013
C40	C	1.116292	0.097470	0.000009
C41	C	0.888111	0.240302	0.000010
C42	C	0.889452	0.324320	0.000008
N43	N	0.893870	0.101905	0.195678
N44	N	0.893910	0.101921	-0.195654
C45	C	0.945433	0.050376	0.238944
C46	C	0.945437	0.050376	0.325491
C47	C	0.893881	0.101908	0.368771
C48	C	0.842312	0.153439	0.325499
C49	C	0.842305	0.153435	0.238953
C50	C	0.842338	0.153453	0.674527
C51	C	0.842351	0.153454	0.761079
C52	C	0.945469	0.050393	0.761065
C53	C	0.945463	0.050390	0.674520
C54	C	0.893892	0.101918	0.631255
C55	C	0.893887	0.101917	0.537411
C56	C	0.893888	0.101913	0.462613
H57	H	0.664133	0.106247	0.135989
H58	H	0.266848	0.099878	-0.135978
H59	H	0.520941	0.103946	-0.135969
C60	C	0.891229	-0.565230	0.223132
C61	C	0.892040	-0.513902	0.157351
H62	H	0.891677	-0.538454	0.273997
H63	H	0.846616	-0.590157	0.220028
H64	H	0.934854	-0.601881	0.219989
H65	H	0.848412	-0.477253	0.160491
H66	H	0.936658	-0.488962	0.160457
C67	C	0.891241	-0.565173	-0.223112
C68	C	0.892057	-0.513864	-0.157325
H69	H	0.891666	-0.538381	-0.273973
H70	H	0.934867	-0.601814	-0.219997
H71	H	0.846628	-0.590114	-0.219987
H72	H	0.936672	-0.488928	-0.160446
H73	H	0.848426	-0.477210	-0.160440
H74	H	0.664162	0.106243	-0.135976
C75	C	0.899591	-0.038952	0.141522
C76	C	0.898356	-0.116579	0.157348
H77	H	0.900004	-0.012171	0.192385
H78	H	0.943918	-0.031868	0.110735
H79	H	0.855680	-0.020169	0.110722
H80	H	0.942270	-0.135363	0.188142
H81	H	0.854024	-0.123667	0.188147
C82	C	1.047402	-0.051486	0.752357
C83	C	1.002150	-0.006259	0.808623
H84	H	1.082396	-0.086456	0.781717
H85	H	1.015946	-0.078668	0.718611
H86	H	1.074563	-0.020006	0.718592
H87	H	0.974984	-0.037738	0.842384
H88	H	1.033610	0.020925	0.842383
C89	C	1.047388	-0.051477	0.316785
C90	C	1.002128	-0.006255	0.373049
H91	H	1.082392	-0.086434	0.346147
H92	H	1.015939	-0.078673	0.283046
H93	H	1.074536	-0.019991	0.283013
H94	H	0.974975	-0.037740	0.406817
H95	H	1.033581	0.020943	0.406802
C96	C	0.961897	-0.052756	0.577378
C97	C	1.002064	-0.006389	0.627027
H98	H	0.996821	-0.087847	0.548081
H99	H	0.930379	-0.079800	0.611210
H100	H	0.931259	-0.022066	0.539162
H101	H	1.032698	-0.037079	0.665248
H102	H	1.033596	0.020658	0.593192
H103	H	0.898228	-0.127813	-0.135971
C104	C	0.560980	0.104599	0.223128
C105	C	0.509671	0.103771	0.157344
H106	H	0.534189	0.104178	0.273990
H107	H	0.597624	0.060975	0.220016
H108	H	0.585917	0.149214	0.219996
H109	H	0.484738	0.059153	0.160472
H110	H	0.473014	0.147399	0.160457
C111	C	0.740397	0.255319	0.752404
C112	C	0.785669	0.210095	0.808654
H113	H	0.705404	0.290281	0.781777
H114	H	0.771840	0.282509	0.718638
H115	H	0.713235	0.223835	0.718658
H116	H	0.812835	0.241579	0.842396
H117	H	0.754222	0.182903	0.842434
H118	H	0.800349	0.195410	0.639308
C119	C	0.226760	0.099225	0.223129
C120	C	0.278081	0.100054	0.157342
H121	H	0.253543	0.099643	0.273990
H122	H	0.190119	0.142851	0.220014
H123	H	0.201822	0.054612	0.220004
H124	H	0.303014	0.144671	0.160463
H125	H	0.314735	0.056425	0.160458
C126	C	0.796539	0.199213	0.458171
C127	C	0.785642	0.210086	0.373070
H128	H	0.761556	0.234191	0.487537
H129	H	0.788412	0.148717	0.472362
H130	H	0.847038	0.207370	0.472331
H131	H	0.735144	0.201924	0.358910
H132	H	0.793763	0.260594	0.358874
C133	C	0.740381	0.255317	0.247654
C134	C	0.785629	0.210081	0.191392
H135	H	0.705393	0.290289	0.218291
H136	H	0.713220	0.223848	0.281420
H137	H	0.771844	0.282501	0.281400
H138	H	0.754166	0.182892	0.157650
H139	H	0.812792	0.241554	0.157613
C140	C	0.896651	-0.230958	-0.223110
C141	C	0.895799	-0.282277	-0.157326
H142	H	0.896272	-0.257745	-0.273973
H143	H	0.853015	-0.194328	-0.220023
H144	H	0.941254	-0.206006	-0.219954
H145	H	0.851193	-0.307225	-0.160479
H146	H	0.939439	-0.318921	-0.160415
H147	H	0.889594	-0.668340	-0.135970
H148	H	0.123608	0.097590	0.135987
H149	H	0.123638	0.097597	-0.135976
H150	H	0.889554	-0.668358	0.135993
C151	C	0.894489	-0.359923	0.141523
C152	C	0.895718	-0.282298	0.157348
H153	H	0.894067	-0.386711	0.192387
H154	H	0.850169	-0.367005	0.110736
H155	H	0.938408	-0.378700	0.110723
H156	H	0.851797	-0.263519	0.188143
H157	H	0.940043	-0.275211	0.188148
H158	H	0.987419	0.008416	0.203712
