data_functionalizedCrystal
_audit_creation_method	'MofGen! by Chris Wilmer'
_symmetry_space_group_name_H-M	'P1'
_symmetry_Int_Tables_number	1
_symmetry_cell_setting	triclinic
loop_
_symmetry_equiv_pos_as_xyz
  x,y,z
_cell_length_a	18.050589
_cell_length_b	13.033688
_cell_length_c	13.032268
_cell_angle_alpha	103.295461
_cell_angle_beta	82.850583
_cell_angle_gamma	82.779591
loop_
_atom_site_label
_atom_site_type_symbol
_atom_site_fract_x
_atom_site_fract_y
_atom_site_fract_z
Zn1	Zn	-0.191434	-1.547373	0.394684
Zn2	Zn	-0.297586	-1.569797	0.217108
Zn3	Zn	-0.191482	-1.392327	0.239617
Zn4	Zn	-0.333670	-1.369707	0.417166
O5	O	-0.253543	-1.469801	0.317143
O6	O	-0.190394	-1.698973	0.352299
O7	O	-0.268431	-1.565106	0.071472
O8	O	-0.087545	-1.412976	0.260198
O9	O	-0.268384	-1.715448	0.221834
O10	O	-0.087510	-1.526887	0.374125
O11	O	-0.190477	-1.434720	0.088010
O12	O	-0.225465	-1.240701	0.281998
O13	O	-0.329882	-1.374424	0.562805
O14	O	-0.329929	-1.224082	0.412442
O15	O	-0.225383	-1.504954	0.546287
O16	O	-0.406304	-1.543173	0.243634
O17	O	-0.432814	-1.396168	0.390616
C18	C	-0.281618	-1.193855	0.352103
C19	C	-0.293650	-1.075801	0.367084
C20	C	-0.259699	-0.909335	0.324807
C21	C	-0.247264	-1.031350	0.309320
C22	C	-0.446507	-1.469675	0.317142
C23	C	-0.529051	-1.469714	0.317165
C24	C	-0.742935	-1.389845	0.397060
C25	C	-0.785157	-1.376270	0.303427
C26	C	-0.680172	-1.469816	0.317165
C27	C	-0.785027	-1.483443	0.410803
C28	C	-0.826149	-1.469912	0.317175
C29	C	-0.721307	-1.456196	0.223487
C30	C	-0.721175	-1.563406	0.330923
C31	C	-0.763364	-1.549876	0.237219
C32	C	-0.596079	-1.469758	0.317162
C33	C	-0.910240	-1.469972	0.317167
C34	C	-0.059826	-1.469953	0.317164
C35	C	0.022725	-1.470018	0.317173
C36	C	-0.281652	-1.434664	0.594159
C37	C	-0.293631	-1.419691	0.712207
C38	C	-0.225352	-0.746826	0.282038
C39	C	-0.213319	-0.864881	0.267051
C40	C	-0.225484	-1.504862	0.041198
C41	C	-0.213275	-1.520041	-0.076875
C42	C	-0.247266	-1.477599	0.756663
C43	C	-0.259646	-1.462125	0.878672
H44	H	-0.198350	-1.083621	0.248399
O45	O	-0.317957	-1.389227	0.940859
C46	C	-0.424764	-1.255901	0.946455
C47	C	-0.358749	-1.338398	0.875905
H48	H	-0.457772	-1.214799	0.893967
H49	H	-0.401588	-1.193784	1.005401
H50	H	-0.463837	-1.298107	0.992229
H51	H	-0.319651	-1.296285	0.830063
H52	H	-0.381977	-1.400510	0.817025
H53	H	-0.342485	-1.358651	0.764473
H54	H	-0.308614	-0.857062	0.385716
O55	O	-0.688422	-1.442230	0.129019
C56	C	-0.684453	-1.328185	0.007445
C57	C	-0.721771	-1.343883	0.114439
H58	H	-0.711389	-1.248665	-0.004366
H59	H	-0.692934	-1.395967	-0.060706
H60	H	-0.621361	-1.328276	0.008235
H61	H	-0.784872	-1.343769	0.113754
H62	H	-0.713230	-1.276102	0.182543
O63	O	-0.155035	-0.927206	0.194233
C64	C	-0.096992	-0.984180	0.009370
C65	C	-0.163050	-0.913569	0.091724
H66	H	-0.103441	-0.973162	-0.073523
H67	H	-0.097354	-1.071501	0.009733
H68	H	-0.041241	-0.960094	0.030954
H69	H	-0.218834	-0.937560	0.070198
H70	H	-0.162621	-0.826265	0.091346
O71	O	-0.155027	-1.592829	0.860630
C72	C	-0.089519	-1.674513	0.682058
C73	C	-0.155530	-1.592076	0.752702
H74	H	-0.089894	-1.673916	0.594787
H75	H	-0.096010	-1.757449	0.692854
H76	H	-0.033744	-1.653147	0.706254
H77	H	-0.211335	-1.613342	0.728551
H78	H	-0.148972	-1.509163	0.741899
O79	O	-0.351918	-1.013394	0.439880
C80	C	-0.389302	-0.869837	0.599008
C81	C	-0.323243	-0.940452	0.516659
H82	H	-0.366143	-0.810831	0.661092
H83	H	-0.422285	-0.922230	0.640167
H84	H	-0.428392	-0.824122	0.556676
H85	H	-0.284099	-0.986179	0.558909
H86	H	-0.290317	-0.888002	0.475504
O87	O	-0.731697	-1.308949	0.477473
C88	C	-0.751773	-1.118927	0.553823
C89	C	-0.764539	-1.210437	0.462688
H90	H	-0.778332	-1.039260	0.541913
H91	H	-0.688496	-1.120016	0.553548
H92	H	-0.779086	-1.129774	0.633529
H93	H	-0.737271	-1.199652	0.382935
H94	H	-0.827826	-1.209321	0.463058
O95	O	-0.818515	-1.281983	0.289498
C96	C	-0.934094	-1.176755	0.273062
C97	C	-0.896411	-1.283595	0.288805
H98	H	-0.997082	-1.178014	0.272519
H99	H	-0.906996	-1.164493	0.193873
H100	H	-0.926105	-1.108623	0.341221
H101	H	-0.904388	-1.351791	0.220708
H102	H	-0.923516	-1.295763	0.368032
O103	O	-0.774427	-1.630514	0.156414
C104	C	-0.754157	-1.707307	-0.033536
C105	C	-0.741588	-1.615917	0.057872
H106	H	-0.727601	-1.695548	-0.113227
H107	H	-0.817405	-1.707199	-0.032607
H108	H	-0.726725	-1.786882	-0.022430
H109	H	-0.768976	-1.536294	0.046827
H110	H	-0.678330	-1.616119	0.056916
H111	H	-0.693302	-1.642483	0.342596
H112	H	-0.198406	-1.538629	0.704399
O113	O	-0.818071	-1.497021	0.505361
C114	C	-0.845720	-1.427948	0.696428
C115	C	-0.808256	-1.412466	0.589416
H116	H	-0.837812	-1.359585	0.764413
H117	H	-0.818447	-1.506997	0.708895
H118	H	-0.908692	-1.428690	0.695185
H119	H	-0.745284	-1.411673	0.590583
H120	H	-0.835588	-1.333429	0.576990
