data_functionalizedCrystal
_audit_creation_method	'MofGen! by Chris Wilmer'
_symmetry_space_group_name_H-M	'P1'
_symmetry_Int_Tables_number	1
_symmetry_cell_setting	triclinic
loop_
_symmetry_equiv_pos_as_xyz
  x,y,z
_cell_length_a	17.699083
_cell_length_b	17.038272
_cell_length_c	16.176319
_cell_angle_alpha	89.993159
_cell_angle_beta	89.998611
_cell_angle_gamma	87.197286
loop_
_atom_site_label
_atom_site_type_symbol
_atom_site_fract_x
_atom_site_fract_y
_atom_site_fract_z
O1	O	1.010620	0.098861	-0.068631
O2	O	0.791093	0.111723	-0.068658
O3	O	0.899552	-0.008521	-0.068638
O4	O	0.902161	0.219105	-0.068651
O5	O	0.899535	-0.008529	0.068855
O6	O	0.791077	0.111715	0.068835
O7	O	1.010604	0.098853	0.068862
Cu8	Cu	0.900839	0.105284	0.081403
Cu9	Cu	0.900858	0.105293	-0.081199
O10	O	0.902145	0.219098	0.068842
C11	C	0.762857	0.111258	0.000085
C12	C	0.678748	0.109876	0.000075
C13	C	0.634797	0.180457	0.000071
C14	C	0.555767	0.179153	0.000082
C15	C	0.520690	0.107267	0.000091
C16	C	0.564647	0.036681	0.000097
C17	C	0.643675	0.037986	0.000092
C18	C	0.245935	0.031418	0.000118
C19	C	0.166901	0.030119	0.000120
C20	C	0.158028	0.172585	0.000108
C21	C	0.237056	0.173890	0.000103
C22	C	0.281006	0.103304	0.000113
C23	C	0.366699	0.104719	0.000103
C24	C	0.434999	0.105852	0.000095
C25	C	0.897170	-0.037649	0.000108
C26	C	0.890090	-0.124431	0.000107
C27	C	0.955100	-0.174651	0.000116
C28	C	0.948442	-0.256191	0.000107
C29	C	0.876773	-0.287509	0.000096
C30	C	0.811758	-0.237282	0.000084
C31	C	0.818417	-0.155744	0.000087
C32	C	0.853251	-0.533228	0.000081
C33	C	0.846597	-0.614773	0.000081
C34	C	0.983282	-0.633676	0.000103
C35	C	0.989934	-0.552135	0.000110
C36	C	0.924919	-0.501916	0.000095
C37	C	0.869967	-0.370855	0.000089
C38	C	0.931726	-0.418571	0.000095
C39	C	1.038840	0.099318	0.000117
C40	C	1.122949	0.100701	0.000122
C41	C	0.904526	0.248226	0.000094
C42	C	0.911607	0.335007	0.000090
N43	N	0.900830	0.105277	0.195768
N44	N	0.900872	0.105293	-0.195564
C45	C	0.948873	0.052054	0.239041
C46	C	0.948877	0.052054	0.325588
C47	C	0.900841	0.105280	0.368861
C48	C	0.852793	0.158505	0.325582
C49	C	0.852786	0.158501	0.239036
C50	C	0.852820	0.158519	0.674610
C51	C	0.852833	0.158520	0.761162
C52	C	0.948911	0.052072	0.761162
C53	C	0.948904	0.052068	0.674617
C54	C	0.900853	0.105290	0.631345
C55	C	0.900849	0.105289	0.537501
C56	C	0.900849	0.105285	0.462703
H57	H	0.122235	0.230060	0.000104
O58	O	0.686258	-0.030649	0.000054
C59	C	0.638354	-0.094377	0.000082
H60	H	0.580718	-0.074423	-0.025947
H61	H	0.664292	-0.143819	-0.039834
H62	H	0.631316	-0.116423	0.066046
H63	H	0.988034	0.008733	0.796403
O64	O	1.024778	-0.144362	0.000089
C65	C	1.080729	-0.206177	0.000112
H66	H	1.055948	-0.261525	-0.025920
H67	H	1.130453	-0.189227	-0.039802
H68	H	1.101029	-0.217764	0.066076
H69	H	0.800310	-0.492349	0.000069
O70	O	1.011573	-0.305003	-0.000031
C71	C	1.011817	-0.352733	-0.071234
H72	H	0.975047	-0.322790	-0.121008
H73	H	1.072189	-0.362009	-0.095128
H74	H	0.988414	-0.411996	-0.055144
H75	H	0.813714	0.201865	0.796393
H76	H	0.811613	-0.396363	0.000082
O77	O	0.806261	0.210261	0.632497
C78	C	0.849891	0.258450	0.582441
H79	H	0.907099	0.227230	0.569464
H80	H	0.819092	0.270870	0.521589
H81	H	0.858764	0.316216	0.615794
O82	O	0.806226	0.210236	0.196907
C83	C	0.849851	0.258424	0.146845
H84	H	0.907064	0.227212	0.133878
H85	H	0.819054	0.270828	0.085988
H86	H	0.858711	0.316199	0.180187
H87	H	0.138344	-0.028422	0.000128
O88	O	0.776916	-0.645066	0.000024
C89	C	0.720959	-0.583257	0.000028
H90	H	0.745742	-0.527901	-0.025995
H91	H	0.671250	-0.600205	-0.039905
H92	H	0.700635	-0.571687	0.065984
O93	O	1.059611	-0.521845	0.000088
C94	C	1.115565	-0.583657	0.000118
H95	H	1.090792	-0.639005	-0.025924
H96	H	1.165295	-0.566701	-0.039785
H97	H	1.135855	-0.595247	0.066085
O98	O	0.288734	-0.037074	0.000151
C99	C	0.366009	-0.020516	0.000125
H100	H	0.372994	0.040878	0.026157
H101	H	0.398878	-0.065523	0.040038
H102	H	0.388642	-0.023514	-0.065840
H103	H	1.036213	-0.674572	0.000114
O104	O	0.995559	0.000275	0.197138
C105	C	1.037976	-0.046688	0.253895
H106	H	1.006896	-0.047527	0.315592
H107	H	1.045502	-0.109138	0.228901
H108	H	1.095827	-0.021377	0.263089
H109	H	0.265612	0.232426	0.000092
H110	H	0.536080	-0.021849	0.000116
O111	O	0.742180	-0.267796	-0.000038
C112	C	0.734242	-0.314372	-0.071257
H113	H	0.792584	-0.334792	-0.094990
H114	H	0.700635	-0.367711	-0.055246
H115	H	0.703088	-0.278279	-0.121125
O116	O	0.755288	-0.106925	-0.000066
C117	C	0.755072	-0.059174	-0.071265
H118	H	0.791854	-0.089107	-0.121030
H119	H	0.694707	-0.049884	-0.095177
H120	H	0.778477	0.000080	-0.055162
H121	H	0.987996	0.008715	0.360821
O122	O	1.001384	-0.388246	0.000215
C123	C	1.041316	-0.413908	0.071442
H124	H	1.017051	-0.470427	0.095179
H125	H	1.103612	-0.425339	0.055438
H126	H	1.035576	-0.366712	0.121303
O127	O	0.995588	0.000289	0.632711
C128	C	1.038007	-0.046677	0.689464
H129	H	1.006930	-0.047517	0.751162
H130	H	1.045531	-0.109125	0.664468
H131	H	1.095859	-0.021367	0.698655
O132	O	0.806020	0.210128	0.367579
C133	C	0.730290	0.197524	0.346429
H134	H	0.725894	0.134933	0.322648
H135	H	0.692895	0.206564	0.403350
H136	H	0.710842	0.240883	0.296190
O137	O	0.668902	0.250268	-0.000086
C138	C	0.714360	0.255283	-0.071289
H139	H	0.693063	0.214467	-0.121055
H140	H	0.711326	0.318302	-0.095196
H141	H	0.775448	0.237136	-0.055193
O142	O	0.513187	0.247787	0.000041
C143	C	0.561093	0.311514	0.000048
H144	H	0.618726	0.291560	-0.025987
H145	H	0.535152	0.360960	-0.039872
H146	H	0.568139	0.333555	0.066007
