data_functionalizedCrystal
_audit_creation_method	'MofGen! by Chris Wilmer'
_symmetry_space_group_name_H-M	'P1'
_symmetry_Int_Tables_number	1
_symmetry_cell_setting	triclinic
loop_
_symmetry_equiv_pos_as_xyz
  x,y,z
_cell_length_a	23.532407
_cell_length_b	23.532407
_cell_length_c	22.610064
_cell_angle_alpha	89.994072
_cell_angle_beta	89.999018
_cell_angle_gamma	82.848712
loop_
_atom_site_label
_atom_site_type_symbol
_atom_site_fract_x
_atom_site_fract_y
_atom_site_fract_z
O1	O	0.755259	0.069123	0.049153
O2	O	1.088592	0.402456	0.382487
O3	O	1.421925	0.735789	0.715820
O4	O	0.589395	0.079126	0.049163
O5	O	0.922729	0.412459	0.382497
O6	O	1.256062	0.745792	0.715830
O7	O	0.677329	-0.008807	0.049147
O8	O	1.010662	0.324526	0.382480
O9	O	1.343995	0.657859	0.715814
O10	O	0.667325	0.157056	0.049169
O11	O	1.000659	0.490389	0.382503
O12	O	1.333992	0.823723	0.715836
O13	O	0.677323	-0.008785	-0.049222
O14	O	1.010656	0.324548	0.284111
O15	O	1.343989	0.657882	0.617445
O16	O	0.589389	0.079148	-0.049206
O17	O	0.922723	0.412482	0.284128
O18	O	1.256056	0.745815	0.617461
O19	O	0.755253	0.069145	-0.049216
O20	O	1.088586	0.402478	0.284117
O21	O	1.421919	0.735812	0.617451
Zn22	Zn	0.672320	0.074150	-0.064829
Zn23	Zn	1.005653	0.407484	0.268504
Zn24	Zn	1.338987	0.740817	0.601838
Zn25	Zn	0.672328	0.074121	0.064777
Zn26	Zn	1.005661	0.407454	0.398110
Zn27	Zn	1.338995	0.740787	0.731443
O28	O	0.667319	0.157078	-0.049200
O29	O	1.000653	0.490412	0.284134
O30	O	1.333986	0.823745	0.617467
C31	C	0.568176	0.078882	-0.000020
C32	C	0.901510	0.412216	0.333313
C33	C	1.234843	0.745549	0.666647
C34	C	0.504959	0.078116	-0.000017
C35	C	0.838293	0.411450	0.333317
C36	C	1.171626	0.744783	0.666650
C37	C	0.238792	0.022921	-0.000040
C38	C	0.572125	0.356254	0.333293
C39	C	0.905458	0.689588	0.666627
C40	C	0.298192	0.023632	-0.000040
C41	C	0.631525	0.356966	0.333293
C42	C	0.964859	0.690299	0.666627
O43	O	0.334937	-0.020153	-0.000066
O44	O	0.668270	0.313180	0.333267
O45	O	1.001603	0.646513	0.666600
N46	N	0.320818	0.075909	-0.000029
N47	N	0.654152	0.409242	0.333304
N48	N	0.987485	0.742575	0.666638
C49	C	0.284041	0.127477	-0.000024
C50	C	0.617374	0.460810	0.333309
C51	C	0.950707	0.794144	0.666643
O52	O	0.308740	0.172007	-0.000015
O53	O	0.642074	0.505341	0.333318
O54	O	0.975407	0.838674	0.666651
C55	C	0.224642	0.126765	-0.000029
C56	C	0.557975	0.460098	0.333305
C57	C	0.891308	0.793432	0.666638
C58	C	0.202019	0.074485	-0.000034
C59	C	0.535352	0.407819	0.333300
C60	C	0.868686	0.741152	0.666633
C61	C	0.216169	-0.029354	-0.000046
C62	C	0.549502	0.303979	0.333287
C63	C	0.882835	0.637312	0.666621
C64	C	0.156772	-0.030066	-0.000045
C65	C	0.490106	0.303268	0.333288
C66	C	0.823439	0.636601	0.666622
C67	C	0.119999	0.021499	-0.000038
C68	C	0.453333	0.354832	0.333295
C69	C	0.786666	0.688165	0.666628
C70	C	0.142623	0.073774	-0.000033
C71	C	0.475956	0.407107	0.333301
C72	C	0.809289	0.740441	0.666634
C73	C	0.187865	0.178333	-0.000028
C74	C	0.521199	0.511666	0.333305
C75	C	0.854532	0.844999	0.666639
C76	C	0.128463	0.177616	-0.000033
C77	C	0.461796	0.510949	0.333300
C78	C	0.795129	0.844283	0.666634
C79	C	0.105840	0.125336	-0.000038
C80	C	0.439173	0.458670	0.333295
C81	C	0.772507	0.792003	0.666629
C82	C	0.046454	0.124627	-0.000025
C83	C	0.379787	0.457960	0.333308
C84	C	0.713120	0.791294	0.666641
N85	N	0.023828	0.072351	-0.000036
N86	N	0.357161	0.405684	0.333297
N87	N	0.690494	0.739017	0.666630
C88	C	0.060600	0.020787	-0.000043
C89	C	0.393934	0.354120	0.333290
C90	C	0.727267	0.687453	0.666624
C91	C	0.408783	0.128968	-0.000016
C92	C	0.742117	0.462302	0.333318
C93	C	1.075450	0.795635	0.666651
C94	C	0.468181	0.129681	-0.000007
C95	C	0.801514	0.463014	0.333326
C96	C	1.134848	0.796348	0.666660
C97	C	0.482328	0.025836	-0.000024
C98	C	0.815662	0.359170	0.333309
C99	C	1.148995	0.692503	0.666643
C100	C	0.422929	0.025124	-0.000028
C101	C	0.756263	0.358457	0.333305
C102	C	1.089596	0.691791	0.666638
C103	C	0.386157	0.076692	-0.000027
C104	C	0.719490	0.410025	0.333307
C105	C	1.052824	0.743359	0.666640
C106	C	-0.064136	0.019297	-0.000041
C107	C	0.269197	0.352630	0.333293
C108	C	0.602530	0.685964	0.666626
C109	C	-0.123538	0.018590	-0.000037
C110	C	0.209795	0.351924	0.333296
C111	C	0.543128	0.685257	0.666629
C112	C	-0.137680	0.122435	-0.000024
C113	C	0.195653	0.455768	0.333310
C114	C	0.528986	0.789101	0.666643
C115	C	-0.078284	0.123142	-0.000024
C116	C	0.255050	0.456475	0.333310
C117	C	0.588383	0.789808	0.666643
C118	C	-0.041512	0.071568	-0.000034
C119	C	0.291821	0.404901	0.333299
C120	C	0.625154	0.738235	0.666632
O121	O	0.009675	0.168390	-0.000001
O122	O	0.343008	0.501723	0.333332
O123	O	0.676341	0.835057	0.666665
O124	O	0.035892	-0.023736	-0.000060
O125	O	0.369226	0.309597	0.333274
O126	O	0.702559	0.642930	0.666607
C127	C	0.677071	-0.030012	-0.000039
C128	C	1.010404	0.303321	0.333294
C129	C	1.343738	0.636654	0.666628
C130	C	0.676305	-0.093229	-0.000043
C131	C	1.009638	0.240104	0.333290
C132	C	1.342972	0.573437	0.666623
C133	C	0.723538	-0.492332	-0.000014
C134	C	1.056872	-0.158999	0.333319
C135	C	1.390205	0.174334	0.666653
C136	C	0.722827	-0.551733	-0.000009
C137	C	1.056160	-0.218399	0.333324
C138	C	1.389494	0.114934	0.666657
O139	O	0.766613	-0.588477	0.000010
O140	O	1.099946	-0.255144	0.333343
O141	O	1.433280	0.078190	0.666676
N142	N	0.670551	-0.574359	-0.000007
N143	N	1.003884	-0.241025	0.333327
N144	N	1.337217	0.092308	0.666660
C145	C	0.618982	-0.537581	-0.000002
C146	C	0.952316	-0.204248	0.333331
C147	C	1.285649	0.129085	0.666664
O148	O	0.574452	-0.562281	0.000001
O149	O	0.907785	-0.228948	0.333334
O150	O	1.241119	0.104386	0.666668
C151	C	0.619695	-0.478182	-0.000003
C152	C	0.953028	-0.144849	0.333331
C153	C	1.286361	0.188485	0.666664
C154	C	0.671974	-0.455559	-0.000011
C155	C	1.005308	-0.122226	0.333322
C156	C	1.338641	0.211107	0.666655
C157	C	0.775814	-0.469709	-0.000022
C158	C	1.109147	-0.136376	0.333311
C159	C	1.442481	0.196958	0.666645
C160	C	0.776525	-0.410313	-0.000028
C161	C	1.109858	-0.076980	0.333306
C162	C	1.443192	0.256354	0.666639
C163	C	0.724961	-0.373540	-0.000025
C164	C	1.058294	-0.040207	0.333308
C165	C	1.391628	0.293127	0.666641
C166	C	0.672685	-0.396163	-0.000017
C167	C	1.006019	-0.062830	0.333316
C168	C	1.339352	0.270503	0.666650
C169	C	0.568127	-0.441406	0.000006
C170	C	0.901460	-0.108072	0.333339
C171	C	1.234794	0.225261	0.666673
C172	C	0.568843	-0.382003	0.000006
C173	C	0.902177	-0.048670	0.333339
C174	C	1.235510	0.284663	0.666673
C175	C	0.621123	-0.359381	-0.000003
C176	C	0.954457	-0.026047	0.333331
C177	C	1.287790	0.307286	0.666664
C178	C	0.621832	-0.299994	-0.000020
C179	C	0.955166	0.033339	0.333313
C180	C	1.288499	0.366672	0.666646
N181	N	0.674109	-0.277368	-0.000023
N182	N	1.007442	0.055965	0.333310
N183	N	1.340775	0.389299	0.666644
C184	C	0.725673	-0.314141	-0.000025
C185	C	1.059006	0.019192	0.333308
C186	C	1.392340	0.352526	0.666641
C187	C	0.617491	-0.662324	-0.000001
C188	C	0.950824	-0.328990	0.333333
C189	C	1.284158	0.004343	0.666666
C190	C	0.616778	-0.721722	-0.000005
C191	C	0.950112	-0.388388	0.333329
C192	C	1.283445	-0.055055	0.666662
C193	C	0.720623	-0.735869	-0.000011
C194	C	1.053957	-0.402536	0.333323
C195	C	1.387290	-0.069202	0.666656
C196	C	0.721335	-0.676470	-0.000011
C197	C	1.054669	-0.343137	0.333322
C198	C	1.388002	-0.009803	0.666656
C199	C	0.669767	-0.639698	-0.000003
C200	C	1.003101	-0.306364	0.333330
C201	C	1.336434	0.026969	0.666663
C202	C	0.727163	-0.189404	-0.000038
C203	C	1.060496	0.143929	0.333295
C204	C	1.393829	0.477262	0.666629
C205	C	0.727869	-0.130002	-0.000046
C206	C	1.061203	0.203331	0.333287
C207	C	1.394536	0.536665	0.666621
C208	C	0.624025	-0.115860	-0.000037
C209	C	0.957358	0.217473	0.333296
C210	C	1.290691	0.550807	0.666630
C211	C	0.623318	-0.175257	-0.000032
C212	C	0.956651	0.158076	0.333301
C213	C	1.289984	0.491410	0.666635
C214	C	0.674891	-0.212028	-0.000030
C215	C	1.008225	0.121305	0.333303
C216	C	1.341558	0.454639	0.666636
O217	O	0.578069	-0.263215	-0.000037
O218	O	0.911403	0.070118	0.333296
O219	O	1.244736	0.403452	0.666630
O220	O	0.770196	-0.289433	-0.000021
O221	O	1.103529	0.043900	0.333312
O222	O	1.436863	0.377234	0.666646
C223	C	0.776472	0.069389	-0.000031
C224	C	1.109805	0.402722	0.333302
C225	C	1.443138	0.736055	0.666635
C226	C	0.839689	0.070155	-0.000031
C227	C	1.173022	0.403488	0.333303
C228	C	1.506355	0.736821	0.666636
C229	C	0.667577	0.178283	-0.000012
C230	C	1.000910	0.511617	0.333321
C231	C	1.334244	0.844950	0.666654
C232	C	0.668343	0.241500	-0.000004
C233	C	1.001676	0.574834	0.333329
C234	C	1.335010	0.908167	0.666663
N235	N	0.672319	0.074170	-0.153282
N236	N	1.005652	0.407503	0.180052
N237	N	1.338985	0.740837	0.513385
C238	C	0.633369	0.113060	-0.438122
C239	C	0.966703	0.446393	-0.104789
C240	C	1.300036	0.779727	0.228544
C241	C	0.633368	0.113065	-0.376203
C242	C	0.966701	0.446399	-0.042869
C243	C	1.300034	0.779732	0.290464
O244	O	0.600234	0.146156	-0.344178
O245	O	0.933567	0.479489	-0.010844
O246	O	1.266901	0.812823	0.322489
N247	N	0.672315	0.074147	-0.345234
N248	N	1.005648	0.407481	-0.011901
N249	N	1.338981	0.740814	0.321433
C250	C	0.711262	0.035217	-0.376188
C251	C	1.044595	0.368551	-0.042855
C252	C	1.377929	0.701884	0.290478
O253	O	0.744389	0.002114	-0.344161
O254	O	1.077722	0.335448	-0.010828
O255	O	1.411056	0.668781	0.322505
C256	C	0.711260	0.035209	-0.438107
C257	C	1.044594	0.368543	-0.104774
C258	C	1.377927	0.701876	0.228560
C259	C	0.672315	0.074134	-0.469073
C260	C	1.005648	0.407467	-0.135739
C261	C	1.338981	0.740801	0.197594
C262	C	0.594426	0.151981	-0.469088
C263	C	0.927760	0.485314	-0.135755
C264	C	1.261093	0.818647	0.197579
C265	C	0.594429	0.151976	-0.531004
C266	C	0.927762	0.485309	-0.197670
C267	C	1.261095	0.818642	0.135663
C268	C	0.633374	0.113050	-0.561954
C269	C	0.966707	0.446383	-0.228620
C270	C	1.300041	0.779717	0.104713
C271	C	0.672317	0.074129	-0.530988
C272	C	1.005650	0.407462	-0.197655
C273	C	1.338984	0.740796	0.135678
C274	C	0.750204	-0.003723	-0.469060
C275	C	1.083538	0.329610	-0.135727
C276	C	1.416871	0.662944	0.197606
C277	C	0.750199	-0.003728	-0.530983
C278	C	1.083533	0.329606	-0.197650
C279	C	1.416866	0.662939	0.135683
C280	C	0.711254	0.035197	-0.561949
C281	C	1.044587	0.368530	-0.228616
C282	C	1.377920	0.701864	0.104718
C283	C	0.711265	0.035198	-0.623854
C284	C	1.044598	0.368531	-0.290521
C285	C	1.377932	0.701865	0.042813
N286	N	0.672318	0.074116	-0.654823
N287	N	1.005651	0.407450	-0.321489
N288	N	1.338985	0.740783	0.011844
C289	C	0.633373	0.113042	-0.623873
C290	C	0.966706	0.446375	-0.290539
C291	C	1.300039	0.779709	0.042794
C292	C	0.711262	0.035236	-0.246155
C293	C	1.044595	0.368569	0.087179
C294	C	1.377928	0.701903	0.420512
C295	C	0.711266	0.035246	-0.184237
C296	C	1.044600	0.368579	0.149096
C297	C	1.377933	0.701913	0.482430
C298	C	0.633371	0.113093	-0.184256
C299	C	0.966705	0.446427	0.149078
C300	C	1.300038	0.779760	0.482411
C301	C	0.633370	0.113086	-0.246174
C302	C	0.966703	0.446419	0.087159
C303	C	1.300036	0.779752	0.420492
C304	C	0.672315	0.074154	-0.277123
C305	C	1.005648	0.407487	0.056210
C306	C	1.338981	0.740821	0.389543
C307	C	0.633381	0.113029	-0.753900
C308	C	0.966714	0.446362	-0.420567
C309	C	1.300048	0.779696	-0.087233
C310	C	0.633388	0.113022	-0.815821
C311	C	0.966722	0.446356	-0.482488
C312	C	1.300055	0.779689	-0.149154
C313	C	0.711281	0.035173	-0.815797
C314	C	1.044615	0.368506	-0.482464
C315	C	1.377948	0.701840	-0.149130
C316	C	0.711276	0.035182	-0.753881
C317	C	1.044609	0.368515	-0.420548
C318	C	1.377943	0.701848	-0.087215
C319	C	0.672321	0.074112	-0.722934
C320	C	1.005654	0.407445	-0.389601
C321	C	1.338988	0.740778	-0.056268
O322	O	0.744380	0.002123	-0.655918
O323	O	1.077713	0.335456	-0.322585
O324	O	1.411047	0.668790	0.010749
O325	O	0.600246	0.146134	-0.655907
O326	O	0.933579	0.479468	-0.322574
O327	O	1.266913	0.812801	0.010760
N328	N	0.672334	0.074096	0.153229
N329	N	1.005667	0.407430	0.486562
N330	N	1.339000	0.740763	0.819896
H331	H	0.486595	0.172252	0.000005
H332	H	0.819928	0.505586	0.333339
H333	H	1.153261	0.838919	0.666672
H334	H	0.575496	-0.632386	0.000000
H335	H	0.908829	-0.299053	0.333334
H336	H	1.242162	0.034281	0.666667
Br337	Br	0.580532	0.165854	-0.857843
Br338	Br	0.913866	0.499187	-0.524509
Br339	Br	1.247199	0.832521	-0.191176
H340	H	0.378846	0.170964	-0.000010
H341	H	0.712179	0.504297	0.333323
H342	H	1.045512	0.837630	0.666657
Br343	Br	0.803054	-0.056569	-0.572981
Br344	Br	1.136388	0.276764	-0.239648
Br345	Br	1.469721	0.610097	0.093685
Br346	Br	0.392234	-0.045829	-0.000037
Br347	Br	0.725567	0.287504	0.333297
Br348	Br	1.058900	0.620838	0.666630
H349	H	0.525555	-0.459814	0.000017
H350	H	0.858889	-0.126481	0.333350
H351	H	1.192222	0.206853	0.666683
H352	H	0.526850	-0.352065	0.000013
H353	H	0.860183	-0.018732	0.333346
H354	H	1.193516	0.314601	0.666680
Br355	Br	0.218552	0.249288	-0.000020
Br356	Br	0.551885	0.582621	0.333314
Br357	Br	0.885218	0.915955	0.666647
Br358	Br	0.532246	-0.044145	-0.000030
Br359	Br	0.865579	0.289189	0.333303
Br360	Br	1.198913	0.622522	0.666636
Br361	Br	0.541569	0.204801	-0.573021
Br362	Br	0.874903	0.538134	-0.239688
Br363	Br	1.208236	0.871468	0.093645
Br364	Br	0.847480	-0.379620	-0.000023
Br365	Br	1.180813	-0.046287	0.333310
Br366	Br	1.514147	0.287046	0.666644
Br367	Br	-0.154236	-0.052365	-0.000038
Br368	Br	0.179097	0.280968	0.333295
Br369	Br	0.512430	0.614301	0.666629
H370	H	0.762610	-0.765821	-0.000010
H371	H	1.095943	-0.432487	0.333323
H372	H	1.429276	-0.099154	0.666656
H373	H	0.817806	-0.499644	-0.000022
H374	H	1.151140	-0.166311	0.333311
H375	H	1.484473	0.167022	0.666645
Br376	Br	0.078560	0.247605	-0.000035
Br377	Br	0.411894	0.580939	0.333298
Br378	Br	0.745227	0.914272	0.666631
Br379	Br	0.792288	-0.645774	-0.000024
Br380	Br	1.125622	-0.312441	0.333309
Br381	Br	1.458955	0.020892	0.666643
Br382	Br	0.545825	-0.752416	-0.000007
Br383	Br	0.879158	-0.419083	0.333327
Br384	Br	1.212491	-0.085749	0.666660
Br385	Br	0.552367	-0.205960	-0.000034
Br386	Br	0.885700	0.127373	0.333300
Br387	Br	1.219033	0.460706	0.666633
H388	H	0.582043	-0.085909	-0.000037
H389	H	0.915376	0.247424	0.333296
H390	H	1.248709	0.580758	0.666630
Br391	Br	0.580513	0.165863	-0.711910
Br392	Br	0.913846	0.499197	-0.378577
Br393	Br	1.247179	0.832530	-0.045244
H394	H	0.601659	0.144788	-0.159045
H395	H	0.934992	0.478122	0.174289
H396	H	1.268326	0.811455	0.507622
Br397	Br	0.541564	0.204815	-0.427095
Br398	Br	0.874897	0.538148	-0.093762
Br399	Br	1.208231	0.871481	0.239572
H400	H	0.742995	0.003491	-0.728669
H401	H	1.076328	0.336824	-0.395335
H402	H	1.409661	0.670158	-0.062002
H403	H	0.601657	0.144781	-0.271383
H404	H	0.934990	0.478114	0.061950
H405	H	1.268323	0.811448	0.395284
H406	H	-0.059864	0.165712	-0.000019
H407	H	0.273470	0.499045	0.333314
H408	H	0.606803	0.832379	0.666648
Br409	Br	0.764132	-0.017573	-0.142219
Br410	Br	1.097466	0.315761	0.191114
Br411	Br	1.430799	0.649094	0.524447
H412	H	0.138359	-0.072637	-0.000052
H413	H	0.471692	0.260696	0.333282
H414	H	0.805026	0.594030	0.666615
H415	H	0.742980	0.003534	-0.271350
H416	H	1.076313	0.336868	0.061983
H417	H	1.409647	0.670201	0.395316
H418	H	0.781917	-0.035419	-0.443857
H419	H	1.115251	0.297914	-0.110524
H420	H	1.448584	0.631248	0.222810
H421	H	0.742992	0.003481	-0.841006
H422	H	1.076325	0.336815	-0.507673
H423	H	1.409659	0.670148	-0.174340
Br424	Br	-0.187597	0.192411	-0.000010
Br425	Br	0.145736	0.525745	0.333323
Br426	Br	0.479069	0.859078	0.666657
Br427	Br	0.266065	-0.099344	-0.000057
Br428	Br	0.599398	0.233989	0.333276
Br429	Br	0.932731	0.567322	0.666610
Br430	Br	-0.014242	-0.050696	-0.000055
Br431	Br	0.319092	0.282637	0.333278
Br432	Br	0.652425	0.615970	0.666612
H433	H	0.770443	-0.111587	-0.000055
H434	H	1.103777	0.221747	0.333279
H435	H	1.437110	0.555080	0.666612
H436	H	0.769159	-0.219337	-0.000034
H437	H	1.102492	0.113996	0.333299
H438	H	1.435825	0.447330	0.666632
