data_functionalizedCrystal
_audit_creation_method	'MofGen! by Chris Wilmer'
_symmetry_space_group_name_H-M	'P1'
_symmetry_Int_Tables_number	1
_symmetry_cell_setting	triclinic
loop_
_symmetry_equiv_pos_as_xyz
  x,y,z
_cell_length_a	13.897448
_cell_length_b	13.897449
_cell_length_c	13.897441
_cell_angle_alpha	89.976068
_cell_angle_beta	90.029627
_cell_angle_gamma	89.982380
loop_
_atom_site_label
_atom_site_type_symbol
_atom_site_fract_x
_atom_site_fract_y
_atom_site_fract_z
Zn1	Zn	-0.383995	-1.474682	0.545519
Zn2	Zn	-0.050662	-1.141349	0.878852
Zn3	Zn	0.282671	-0.808016	1.212185
Zn4	Zn	-0.545314	-1.474582	0.384220
Zn5	Zn	-0.211981	-1.141249	0.717553
Zn6	Zn	0.121353	-0.807916	1.050887
Zn7	Zn	-0.384035	-1.313377	0.384222
Zn8	Zn	-0.050701	-0.980044	0.717555
Zn9	Zn	0.282632	-0.646711	1.050889
Zn10	Zn	-0.545250	-1.313353	0.545457
Zn11	Zn	-0.211916	-0.980020	0.878791
Zn12	Zn	0.121417	-0.646686	1.212124
O13	O	-0.464648	-1.393999	0.464854
O14	O	-0.131315	-1.060665	0.798188
O15	O	0.202018	-0.727332	1.131521
O16	O	-0.405405	-1.609651	0.524147
O17	O	-0.072072	-1.276317	0.857480
O18	O	0.261262	-0.942984	1.190813
O19	O	-0.523964	-1.453166	0.249238
O20	O	-0.190630	-1.119833	0.582572
O21	O	0.142703	-0.786500	0.915905
O22	O	-0.249048	-1.334827	0.405645
O23	O	0.084286	-1.001494	0.738978
O24	O	0.417619	-0.668160	1.072311
O25	O	-0.523925	-1.609577	0.405641
O26	O	-0.190592	-1.276244	0.738975
O27	O	0.142741	-0.942911	1.072308
O28	O	-0.249019	-1.453337	0.524149
O29	O	0.084315	-1.120004	0.857482
O30	O	0.417648	-0.786670	1.190815
O31	O	-0.405472	-1.334730	0.249240
O32	O	-0.072139	-1.001397	0.582573
O33	O	0.261195	-0.668063	0.915907
O34	O	-0.405410	-1.178393	0.405585
O35	O	-0.072076	-0.845059	0.738919
O36	O	0.261257	-0.511726	1.072252
O37	O	-0.523815	-1.334786	0.680447
O38	O	-0.190482	-1.001452	1.013781
O39	O	0.142851	-0.668119	1.347114
O40	O	-0.523854	-1.178375	0.524045
O41	O	-0.190520	-0.845041	0.857378
O42	O	0.142813	-0.511708	1.190711
O43	O	-0.405342	-1.453313	0.680492
O44	O	-0.072009	-1.119980	1.013825
O45	O	0.261324	-0.786647	1.347159
O46	O	-0.680287	-1.453143	0.405582
O47	O	-0.346954	-1.119810	0.738915
O48	O	-0.013621	-0.786476	1.072249
O49	O	-0.680240	-1.334689	0.524043
O50	O	-0.346907	-1.001355	0.857376
O51	O	-0.013573	-0.668022	1.190709
C52	C	-0.464630	-1.143384	0.464809
C53	C	-0.131296	-0.810051	0.798142
C54	C	0.202037	-0.476718	1.131476
C55	C	-0.464645	-1.036171	0.464813
C56	C	-0.131312	-0.702837	0.798146
C57	C	0.202022	-0.369504	1.131479
C58	C	-0.715263	-1.393928	0.464827
C59	C	-0.381929	-1.060595	0.798160
C60	C	-0.048596	-0.727262	1.131493
C61	C	-0.822477	-1.393987	0.464847
C62	C	-0.489143	-1.060653	0.798180
C63	C	-0.155810	-0.727320	1.131513
C64	C	-0.464647	-0.949101	0.464825
C65	C	-0.131313	-0.615767	0.798158
C66	C	0.202020	-0.282434	1.131491
C67	C	-0.464652	-0.839868	0.464849
C68	C	-0.131318	-0.506535	0.798182
C69	C	0.202015	-0.173202	1.131516
C70	C	-1.018772	-1.394088	0.464907
C71	C	-0.685438	-1.060754	0.798241
C72	C	-0.352105	-0.727421	1.131574
C73	C	-0.909539	-1.394029	0.464877
C74	C	-0.576206	-1.060695	0.798210
C75	C	-0.242873	-0.727362	1.131543
C76	C	-0.213055	-1.394096	0.464904
C77	C	0.120278	-1.060762	0.798237
C78	C	0.453611	-0.727429	1.131570
C79	C	-0.105841	-1.394137	0.464925
C80	C	0.227492	-1.060804	0.798258
C81	C	0.560825	-0.727470	1.131591
C82	C	-0.464567	-1.394058	0.716448
C83	C	-0.131234	-1.060725	1.049781
C84	C	0.202099	-0.727391	1.383114
C85	C	-0.464533	-1.394083	0.823662
C86	C	-0.131200	-1.060750	1.156995
C87	C	0.202134	-0.727416	1.490328
C88	C	-0.464664	-0.645592	0.464889
C89	C	-0.131331	-0.312258	0.798222
C90	C	0.202003	0.021075	1.131555
C91	C	-0.464661	-0.752806	0.464873
C92	C	-0.131327	-0.419472	0.798207
C93	C	0.202006	-0.086139	1.131540
C94	C	-0.464659	-1.393996	0.214240
C95	C	-0.131326	-1.060662	0.547573
C96	C	0.202007	-0.727329	0.880907
C97	C	-0.464422	-1.394157	0.107027
C98	C	-0.131089	-1.060824	0.440360
C99	C	0.202244	-0.727491	0.773693
C100	C	-0.464506	-1.394103	0.910731
C101	C	-0.131172	-1.060769	1.244065
C102	C	0.202161	-0.727436	1.577398
C103	C	-0.464462	-1.394130	1.019964
C104	C	-0.131129	-1.060797	1.353297
C105	C	0.202205	-0.727464	1.686631
