data_functionalizedCrystal
_audit_creation_method	'MofGen! by Chris Wilmer'
_symmetry_space_group_name_H-M	'P1'
_symmetry_Int_Tables_number	1
_symmetry_cell_setting	triclinic
loop_
_symmetry_equiv_pos_as_xyz
  x,y,z
_cell_length_a	16.974800
_cell_length_b	19.188930
_cell_length_c	16.053802
_cell_angle_alpha	92.551696
_cell_angle_beta	91.074188
_cell_angle_gamma	83.267966
loop_
_atom_site_label
_atom_site_type_symbol
_atom_site_fract_x
_atom_site_fract_y
_atom_site_fract_z
O1	O	1.048771	0.089000	0.001451
O2	O	0.819273	0.099688	-0.014064
O3	O	0.940644	-0.007281	-0.005843
O4	O	0.927400	0.195969	-0.006771
O5	O	0.933963	-0.001417	0.132564
O6	O	0.812592	0.105551	0.124342
O7	O	1.042090	0.094863	0.139857
Zn8	Zn	0.926281	0.101138	0.154075
Zn9	Zn	0.935082	0.093413	-0.028282
O10	O	0.920719	0.201832	0.131636
C11	C	0.786571	0.102106	0.053154
C12	C	0.699084	0.100566	0.047240
C13	C	0.654345	0.103037	0.119909
C14	C	0.572143	0.101580	0.114355
C15	C	0.534680	0.097656	0.036131
C16	C	0.579425	0.095182	-0.036544
C17	C	0.661626	0.096635	-0.030988
C18	C	0.289226	0.092964	0.011426
C19	C	0.207018	0.091513	0.005877
C20	C	0.199742	0.097910	0.156776
C21	C	0.281944	0.099366	0.162324
C22	C	0.326683	0.096889	0.089650
N23	N	0.450656	0.096168	0.030451
N24	N	0.410706	0.098372	0.095330
C25	C	0.936874	-0.030362	0.063334
C26	C	0.935587	-0.107872	0.063254
C27	C	1.006803	-0.152471	0.068073
C28	C	1.005594	-0.225301	0.067978
C29	C	0.933164	-0.253528	0.063080
C30	C	0.861937	-0.208919	0.058256
C31	C	0.863149	-0.136091	0.058343
N32	N	0.875525	-0.359790	0.106440
N33	N	0.874379	-0.428974	0.106359
C34	C	0.929509	-0.472954	0.062816
N35	N	0.985840	-0.445138	0.019368
N36	N	0.986988	-0.375947	0.019453
C37	C	0.931842	-0.332497	0.062985
C38	C	0.999420	-0.596524	0.067531
C39	C	0.998208	-0.669355	0.067431
C40	C	0.854549	-0.652971	0.057717
C41	C	0.855763	-0.580142	0.057810
C42	C	0.928201	-0.551923	0.062721
C43	C	1.074792	0.092445	0.072637
C44	C	1.162280	0.093985	0.078546
C45	C	0.924489	0.224913	0.062457
C46	C	0.925777	0.302423	0.062532
N47	N	0.920279	0.106410	0.278529
N48	N	0.941090	0.088135	-0.152735
C49	C	0.971942	0.060911	0.325722
C50	C	0.967751	0.064606	0.412845
C51	C	0.911901	0.113803	0.452773
C52	C	0.860233	0.159304	0.405573
C53	C	0.864421	0.155606	0.318451
C54	C	0.893610	0.129938	0.712944
C55	C	0.889428	0.133634	0.800072
C56	C	0.996945	0.038935	0.807337
C57	C	1.001130	0.035243	0.720214
C58	C	0.949460	0.080742	0.673022
N59	N	0.907618	0.117582	0.541827
N60	N	0.953740	0.076959	0.583969
H61	H	0.325642	0.090944	-0.047750
H62	H	1.058403	-0.573547	0.071526
O63	O	1.055042	-0.012766	0.681279
C64	C	1.047475	-0.006436	0.594252
H65	H	1.018848	0.048622	0.580248
H66	H	1.108671	-0.015982	0.564972
H67	H	1.008790	-0.046829	0.567164
O68	O	0.794040	-0.092666	0.053635
C69	C	0.810640	-0.022333	0.054788
H70	H	0.873801	-0.020532	0.032773
H71	H	0.767170	0.008883	0.011537
H72	H	0.804373	0.001522	0.120984
O73	O	0.690750	0.106972	0.195877
C74	C	0.728959	0.168407	0.202975
H75	H	0.699867	0.208383	0.158049
H76	H	0.723602	0.191527	0.269558
H77	H	0.794302	0.154991	0.187058
H78	H	1.009818	0.027556	0.451270
H79	H	0.163307	0.099925	0.215943
O80	O	1.047047	-0.005232	0.853304
C81	C	1.031392	0.008590	0.938763
H82	H	0.968073	0.035043	0.946430
H83	H	1.038752	-0.042860	0.972491
H84	H	1.074691	0.044761	0.966472
O85	O	0.835094	0.181441	0.838724
C86	C	0.790394	0.220815	0.778391
H87	H	0.792594	0.189555	0.716241
H88	H	0.726209	0.232373	0.799321
H89	H	0.816234	0.272356	0.770823
O90	O	1.026115	0.013012	0.286991
C91	C	1.012510	-0.055216	0.307497
H92	H	0.948256	-0.054671	0.327183
H93	H	1.024456	-0.092686	0.250851
H94	H	1.053817	-0.073464	0.361039
H95	H	0.814755	0.199360	0.438087
O96	O	0.791633	-0.236423	0.053393
C97	C	0.790088	-0.281073	-0.018639
H98	H	0.853424	-0.300104	-0.038331
H99	H	0.758059	-0.328139	-0.004633
H100	H	0.757533	-0.251085	-0.071199
H101	H	0.851539	0.166986	0.674526
H102	H	0.548917	0.091982	-0.100235
O103	O	0.814314	0.199903	0.272647
C104	C	0.825845	0.269954	0.294774
H105	H	0.887790	0.271463	0.322973
H106	H	0.819410	0.302539	0.236849
H107	H	0.779660	0.292505	0.342391
O108	O	0.528797	0.104021	0.185028
C109	C	0.579491	0.107784	0.255261
H110	H	0.635813	0.129965	0.236869
H111	H	0.548071	0.143469	0.306069
H112	H	0.595581	0.052961	0.279638
H113	H	0.312441	0.102558	0.226022
H114	H	0.176519	0.088320	-0.057826
H115	H	0.698052	0.094624	-0.090163
H116	H	1.065788	-0.129500	0.072069
O117	O	1.074848	-0.268534	0.072703
C118	C	1.139043	-0.228010	0.077031
H119	H	1.117587	-0.172587	0.101869
H120	H	1.186983	-0.253086	0.120592
H121	H	1.164469	-0.225589	0.012136
H122	H	1.056204	-0.705668	0.071350
H123	H	0.795574	-0.675953	0.053726
O124	O	0.786507	-0.536912	0.053172
C125	C	0.722317	-0.577441	0.048808
H126	H	0.741246	-0.630651	0.076371
H127	H	0.670493	-0.548975	0.085621
H128	H	0.703307	-0.585469	-0.019095
