data_functionalizedCrystal
_audit_creation_method	'MofGen! by Chris Wilmer'
_symmetry_space_group_name_H-M	'P1'
_symmetry_Int_Tables_number	1
_symmetry_cell_setting	triclinic
loop_
_symmetry_equiv_pos_as_xyz
  x,y,z
_cell_length_a	27.732048
_cell_length_b	15.944551
_cell_length_c	14.421503
_cell_angle_alpha	89.996660
_cell_angle_beta	90.002062
_cell_angle_gamma	83.070697
loop_
_atom_site_label
_atom_site_type_symbol
_atom_site_fract_x
_atom_site_fract_y
_atom_site_fract_z
O1	O	-0.641363	-0.099933	-0.076994
O2	O	-0.308030	0.233400	0.256339
O3	O	0.025304	0.566734	0.589672
O4	O	-0.500635	-0.115130	-0.077023
O5	O	-0.167302	0.218204	0.256311
O6	O	0.166031	0.551537	0.589644
O7	O	-0.574842	0.014794	-0.076999
O8	O	-0.241509	0.348127	0.256334
O9	O	0.091825	0.681461	0.589667
O10	O	-0.567156	-0.229856	-0.077018
O11	O	-0.233823	0.103477	0.256316
O12	O	0.099511	0.436810	0.589649
O13	O	-0.574830	0.014774	0.077224
O14	O	-0.241496	0.348108	0.410557
O15	O	0.091837	0.681441	0.743891
O16	O	-0.500623	-0.115149	0.077201
O17	O	-0.167290	0.218184	0.410534
O18	O	0.166044	0.551518	0.743867
O19	O	-0.641351	-0.099952	0.077229
O20	O	-0.308017	0.233381	0.410562
O21	O	0.025316	0.566714	0.743896
Cu22	Cu	-0.570986	-0.107552	0.091297
Cu23	Cu	-0.237652	0.225781	0.424630
Cu24	Cu	0.095681	0.559114	0.757963
Cu25	Cu	-0.571000	-0.107529	-0.091090
Cu26	Cu	-0.237667	0.225804	0.242243
Cu27	Cu	0.095666	0.559137	0.575576
O28	O	-0.567144	-0.229876	0.077206
O29	O	-0.233811	0.103458	0.410539
O30	O	0.099523	0.436791	0.743873
C31	C	-0.574517	0.046074	0.000112
C32	C	-0.241183	0.379407	0.333446
C33	C	0.092150	0.712741	0.666779
C34	C	-0.573560	0.139307	0.000113
C35	C	-0.240227	0.472641	0.333446
C36	C	0.093106	0.805974	0.666779
C37	C	-0.482621	-0.114820	0.000086
C38	C	-0.149287	0.218513	0.333419
C39	C	0.184046	0.551846	0.666752
C40	C	-0.428962	-0.113860	0.000075
C41	C	-0.095628	0.219474	0.333408
C42	C	0.237705	0.552807	0.666742
C43	C	-0.659365	-0.100262	0.000119
C44	C	-0.326032	0.233072	0.333452
C45	C	0.007302	0.566405	0.666786
C46	C	-0.713024	-0.101222	0.000123
C47	C	-0.379691	0.232111	0.333457
C48	C	-0.046357	0.565445	0.666790
C49	C	-0.090453	-0.184589	0.000110
C50	C	0.242880	0.148745	0.333443
C51	C	0.576214	0.482078	0.666777
C52	C	0.111222	-0.181025	0.000118
C53	C	0.444555	0.152309	0.333452
C54	C	0.777889	0.485642	0.666785
O55	O	0.142198	-0.245701	0.000154
O56	O	0.475531	0.087632	0.333487
O57	O	0.808864	0.420965	0.666820
N58	N	0.130679	-0.103986	0.000123
N59	N	0.464013	0.229348	0.333456
N60	N	0.797346	0.562681	0.666789
C61	C	0.099715	-0.027832	0.000131
C62	C	0.433048	0.305501	0.333464
C63	C	0.766381	0.638835	0.666797
O64	O	0.120892	0.037776	0.000144
O65	O	0.454225	0.371110	0.333477
O66	O	0.787558	0.704443	0.666811
C67	C	-0.101959	-0.031397	0.000129
C68	C	0.231374	0.301937	0.333462
C69	C	0.564707	0.635270	0.666795
C70	C	-0.121414	-0.108441	0.000115
C71	C	0.211919	0.224892	0.333449
C72	C	0.545253	0.558226	0.666782
C73	C	-0.109908	-0.261627	0.000097
C74	C	0.223425	0.071707	0.333431
C75	C	0.556759	0.405040	0.666764
C76	C	-0.160324	-0.262517	0.000090
C77	C	0.173010	0.070817	0.333424
C78	C	0.506343	0.404150	0.666757
C79	C	-0.191285	-0.186369	0.000096
C80	C	0.142049	0.146964	0.333429
C81	C	0.475382	0.480298	0.666762
C82	C	-0.171830	-0.109331	0.000108
C83	C	0.161504	0.224002	0.333441
C84	C	0.494837	0.557336	0.666775
C85	C	-0.132923	0.044756	0.000143
C86	C	0.200410	0.378089	0.333477
C87	C	0.533743	0.711423	0.666810
C88	C	-0.183345	0.043858	0.000145
C89	C	0.149989	0.377191	0.333479
C90	C	0.483322	0.710525	0.666812
C91	C	-0.202799	-0.033186	0.000132
C92	C	0.130534	0.300147	0.333465
C93	C	0.463868	0.633480	0.666798
C94	C	-0.253206	-0.034073	0.000106
C95	C	0.080127	0.299260	0.333439
C96	C	0.413460	0.632593	0.666773
N97	N	-0.272664	-0.111113	0.000102
N98	N	0.060670	0.222221	0.333435
N99	N	0.394003	0.555554	0.666769
C100	C	-0.241703	-0.187260	0.000097
C101	C	0.091630	0.146073	0.333430
C102	C	0.424964	0.479406	0.666763
C103	C	0.205597	-0.025966	0.000130
C104	C	0.538930	0.307368	0.333463
C105	C	0.872263	0.640701	0.666796
C106	C	0.256015	-0.025074	0.000129
C107	C	0.589348	0.308259	0.333462
C108	C	0.922682	0.641592	0.666795
C109	C	0.267519	-0.178268	0.000118
C110	C	0.600852	0.155066	0.333452
C111	C	0.934186	0.488399	0.666785
C112	C	0.217100	-0.179158	0.000113
C113	C	0.550433	0.154175	0.333446
C114	C	0.883766	0.487509	0.666779
C115	C	0.186139	-0.103005	0.000126
C116	C	0.519473	0.230328	0.333459
C117	C	0.852806	0.563662	0.666792
C118	C	-0.347580	-0.189124	0.000081
C119	C	-0.014247	0.144209	0.333414
C120	C	0.319087	0.477543	0.666747
C121	C	-0.398001	-0.190007	0.000070
C122	C	-0.064668	0.143326	0.333403
C123	C	0.268666	0.476659	0.666736
C124	C	-0.409500	-0.036815	0.000085
C125	C	-0.076167	0.296519	0.333418
C126	C	0.257166	0.629852	0.666752
C127	C	-0.359084	-0.035931	0.000091
C128	C	-0.025751	0.297402	0.333425
C129	C	0.307583	0.630736	0.666758
C130	C	-0.328125	-0.112092	0.000092
C131	C	0.005209	0.221241	0.333426
C132	C	0.338542	0.554574	0.666759
O133	O	-0.284210	0.030569	0.000081
O134	O	0.049123	0.363902	0.333415
O135	O	0.382456	0.697235	0.666748
O136	O	-0.262890	-0.252859	0.000104
O137	O	0.070444	0.080474	0.333437
O138	O	0.403777	0.413807	0.666771
C139	C	-0.040037	-0.183699	0.000117
C140	C	0.293296	0.149635	0.333450
C141	C	0.626629	0.482968	0.666784
C142	C	-0.020582	-0.106661	0.000130
C143	C	0.312751	0.226673	0.333463
C144	C	0.646084	0.560006	0.666796
C145	C	-0.051543	-0.030513	0.000135
C146	C	0.281790	0.302820	0.333468
C147	C	0.615123	0.636154	0.666802
C148	C	0.029836	-0.105769	0.000128
C149	C	0.363169	0.227564	0.333462
C150	C	0.696503	0.560897	0.666795
C151	C	0.060797	-0.181917	0.000123
C152	C	0.394130	0.151416	0.333456
C153	C	0.727464	0.484750	0.666790
C154	C	0.041339	-0.258956	0.000119
C155	C	0.374673	0.074377	0.333452
C156	C	0.708006	0.407710	0.666786
C157	C	-0.009076	-0.259846	0.000112
C158	C	0.324257	0.073487	0.333445
C159	C	0.657590	0.406820	0.666779
C160	C	-0.032086	0.046526	0.000139
C161	C	0.301248	0.379860	0.333472
C162	C	0.634581	0.713193	0.666806
C163	C	0.018331	0.047410	0.000145
C164	C	0.351664	0.380744	0.333478
C165	C	0.684997	0.714077	0.666812
C166	C	0.049291	-0.028738	0.000140
C167	C	0.382625	0.304596	0.333473
C168	C	0.715958	0.637929	0.666806
C169	C	-0.567469	-0.261156	0.000092
C170	C	-0.234136	0.072178	0.333425
C171	C	0.099198	0.405511	0.666759
C172	C	-0.568426	-0.354389	0.000086
C173	C	-0.235092	-0.021056	0.333419
C174	C	0.098241	0.312277	0.666752
N175	N	-0.570979	-0.107568	0.219578
N176	N	-0.237646	0.225765	0.552911
N177	N	0.095688	0.559099	0.886245
C178	C	-0.525277	0.353533	0.000090
C179	C	-0.191944	0.686866	0.333424
C180	C	0.141390	1.020199	0.666757
C181	C	-0.547692	0.414834	0.076136
C182	C	-0.214359	0.748167	0.409470
C183	C	0.118975	1.081500	0.742803
C184	C	-0.571830	0.310011	0.000105
C185	C	-0.238496	0.643344	0.333439
C186	C	0.094837	0.976677	0.666772
C187	C	-0.547715	0.414836	-0.075916
C188	C	-0.214382	0.748170	0.257417
C189	C	0.118952	1.081503	0.590751
C190	C	-0.570155	0.474902	0.000094
C191	C	-0.236821	0.808235	0.333427
C192	C	0.096512	1.141568	0.666761
C193	C	-0.594258	0.370084	0.076214
C194	C	-0.260924	0.703417	0.409547
C195	C	0.072409	1.036750	0.742881
C196	C	-0.594274	0.370080	-0.075906
C197	C	-0.260941	0.703413	0.257427
C198	C	0.072392	1.036747	0.590760
C199	C	-0.616723	0.431364	0.000158
C200	C	-0.283390	0.764697	0.333491
C201	C	0.049944	1.098030	0.666825
C202	C	-0.572793	0.215021	0.000113
C203	C	-0.239460	0.548354	0.333446
C204	C	0.093873	0.881688	0.666779
C205	C	-0.569195	0.569890	0.000093
C206	C	-0.235861	0.903223	0.333427
C207	C	0.097472	1.236557	0.666760
N208	N	-0.571011	-0.107507	-0.219372
N209	N	-0.237677	0.225826	0.113962
N210	N	0.095656	0.559159	0.447295
C211	C	-0.536660	-0.167618	0.469221
C212	C	-0.203326	0.165716	0.802554
C213	C	0.130007	0.499049	1.135888
C214	C	-0.580337	-0.183354	0.531031
C215	C	-0.247004	0.149979	0.864364
C216	C	0.086330	0.483313	1.197698
C217	C	-0.570991	-0.107548	0.408739
C218	C	-0.237657	0.225786	0.742073
C219	C	0.095676	0.559119	1.075406
C220	C	-0.527325	-0.091831	0.531023
C221	C	-0.193992	0.241502	0.864357
C222	C	0.139342	0.574836	1.197690
C223	C	-0.570998	-0.107530	0.591461
C224	C	-0.237665	0.225803	0.924794
C225	C	0.095668	0.559137	1.258128
C226	C	-0.614690	-0.123321	0.469189
C227	C	-0.281357	0.210012	0.802522
C228	C	0.051977	0.543345	1.135855
C229	C	-0.561649	-0.031766	0.469175
C230	C	-0.228316	0.301567	0.802509
C231	C	0.105017	0.634901	1.135842
C232	C	-0.605358	-0.047469	0.530958
C233	C	-0.272025	0.285864	0.864291
C234	C	0.061309	0.619197	1.197624
C235	C	-0.570986	-0.107560	0.303478
C236	C	-0.237652	0.225773	0.636812
C237	C	0.095681	0.559107	0.970145
C238	C	-0.571008	-0.107517	0.696720
C239	C	-0.237675	0.225816	1.030053
C240	C	0.095658	0.559150	1.363386
H241	H	-0.413838	-0.252749	0.000058
H242	H	-0.080504	0.080585	0.333392
H243	H	0.252829	0.413918	0.666725
H244	H	-0.651629	-0.136684	0.442142
H245	H	-0.318295	0.196650	0.775475
H246	H	0.015038	0.529983	1.108808
Br247	Br	-0.681183	0.487476	0.000236
Br248	Br	-0.347849	0.820810	0.333569
Br249	Br	-0.014516	1.154143	0.666903
Br250	Br	-0.593520	-0.290155	0.576315
Br251	Br	-0.260187	0.043179	0.909649
Br252	Br	0.073147	0.376512	1.242982
H253	H	-0.634425	0.003341	0.557895
H254	H	-0.301092	0.336674	0.891228
H255	H	0.032241	0.670008	1.224561
H256	H	-0.486636	0.319720	0.000158
H257	H	-0.153303	0.653053	0.333492
H258	H	0.180031	0.986386	0.666825
H259	H	-0.613952	0.350215	-0.140193
H260	H	-0.280619	0.683548	0.193141
H261	H	0.052714	1.016881	0.526474
H262	H	-0.507657	-0.218457	0.442114
H263	H	-0.174323	0.114876	0.775447
H264	H	0.159010	0.448210	1.108781
H265	H	-0.553727	0.032293	0.441984
H266	H	-0.220394	0.365626	0.775318
H267	H	0.112939	0.698959	1.108651
Br268	Br	-0.465773	-0.069686	0.576300
Br269	Br	-0.132439	0.263647	0.909633
Br270	Br	0.200894	0.596980	1.242966
H271	H	-0.528024	0.434664	-0.140211
H272	H	-0.194691	0.767997	0.193122
H273	H	0.138642	1.101330	0.526455
H274	H	-0.322378	-0.251142	0.000085
H275	H	0.010955	0.082191	0.333418
H276	H	0.344288	0.415525	0.666751
Br277	Br	-0.186718	-0.367082	0.000076
Br278	Br	0.146615	-0.033749	0.333409
Br279	Br	0.479949	0.299584	0.666743
H280	H	0.201264	-0.241894	0.000107
H281	H	0.534597	0.091439	0.333440
H282	H	0.867930	0.424772	0.666774
Br283	Br	-0.067898	-0.364985	0.000090
Br284	Br	0.265435	-0.031651	0.333424
Br285	Br	0.598769	0.301682	0.666757
Br286	Br	-0.514868	0.447906	0.183281
Br287	Br	-0.181535	0.781239	0.516615
Br288	Br	0.151799	1.114572	0.849948
Br289	Br	0.044726	0.151980	0.000148
Br290	Br	0.378059	0.485314	0.333481
Br291	Br	0.711393	0.818647	0.666814
H292	H	-0.057290	0.108537	0.000145
H293	H	0.276044	0.441870	0.333479
H294	H	0.609377	0.775203	0.666812
H295	H	0.271850	0.037663	0.000125
H296	H	0.605183	0.370996	0.333458
H297	H	0.938517	0.704329	0.666792
Br298	Br	0.309547	-0.281611	0.000112
Br299	Br	0.642880	0.051723	0.333446
Br300	Br	0.976214	0.385056	0.666779
Br301	Br	0.163586	0.077396	0.000147
Br302	Br	0.496919	0.410729	0.333481
Br303	Br	0.830252	0.744062	0.666814
H304	H	-0.434718	0.025183	0.000086
H305	H	-0.101384	0.358516	0.333419
H306	H	0.231949	0.691849	0.666752
Br307	Br	-0.106534	0.149323	0.000141
Br308	Br	0.226799	0.482656	0.333475
Br309	Br	0.560132	0.815989	0.666808
H310	H	-0.208551	0.105873	0.000156
H311	H	0.124783	0.439206	0.333490
H312	H	0.458116	0.772539	0.666823
H313	H	-0.343244	0.026805	0.000089
H314	H	-0.009910	0.360138	0.333422
H315	H	0.323423	0.693471	0.666755
H316	H	0.066557	-0.320958	0.000111
H317	H	0.399890	0.012375	0.333444
H318	H	0.733223	0.345708	0.666778
Br319	Br	-0.627042	0.337188	0.183486
Br320	Br	-0.293709	0.670521	0.516820
Br321	Br	0.039624	1.003854	0.850153
H322	H	-0.024911	-0.322584	0.000102
H323	H	0.308422	0.010750	0.333435
H324	H	0.641756	0.344083	0.666769
