data_functionalizedCrystal
_audit_creation_method	'MofGen! by Chris Wilmer'
_symmetry_space_group_name_H-M	'P1'
_symmetry_Int_Tables_number	1
_symmetry_cell_setting	triclinic
loop_
_symmetry_equiv_pos_as_xyz
  x,y,z
_cell_length_a	18.426585
_cell_length_b	14.560438
_cell_length_c	14.560438
_cell_angle_alpha	90.000844
_cell_angle_beta	59.999724
_cell_angle_gamma	60.002944
loop_
_atom_site_label
_atom_site_type_symbol
_atom_site_fract_x
_atom_site_fract_y
_atom_site_fract_z
Zr1	Zr	0.794360	-0.120493	0.884747
O2	O	0.945756	-0.267131	0.738099
O3	O	0.642962	-0.075546	0.929703
O4	O	0.794359	-0.267140	0.929701
O5	O	0.794361	0.075601	0.738102
O6	O	0.794361	-0.267141	1.080839
O7	O	0.794359	-0.075537	0.738101
O8	O	0.523539	0.075586	1.080843
O9	O	1.065182	-0.267125	0.738098
O10	O	0.705237	-0.056371	1.061668
O11	O	0.705237	0.056423	0.948876
O12	O	0.883487	-0.169154	0.948874
O13	O	0.883487	-0.056361	0.836082
Zr14	Zr	0.794367	0.120553	1.125796
Zr15	Zr	0.794363	-0.120495	1.125795
Zr16	Zr	0.794363	0.120555	0.884748
Zr17	Zr	0.984832	-0.120484	0.884746
Zr18	Zr	0.603895	0.120544	1.125798
O19	O	0.945765	0.075606	1.080840
O20	O	0.945760	-0.267134	1.080838
O21	O	0.945760	0.075608	0.738101
O22	O	0.642971	0.267191	1.272444
O23	O	0.642966	-0.075548	1.272442
O24	O	0.642966	0.267194	0.929705
O25	O	0.794366	-0.075541	1.272441
O26	O	0.794368	0.267200	1.080842
O27	O	0.794366	0.267201	0.929704
O28	O	0.794368	0.075597	1.272442
O29	O	1.065185	-0.267127	0.929699
O30	O	0.523542	0.267187	1.080844
O31	O	0.523545	0.267186	1.272445
O32	O	0.523542	0.075584	1.272444
O33	O	1.065185	-0.075524	0.738099
O34	O	1.065187	-0.075526	0.929700
O35	O	0.705240	0.169215	1.061670
O36	O	0.705240	0.056421	1.174462
O37	O	0.883490	-0.056362	1.061667
O38	O	0.883490	0.056431	0.948875
C39	C	0.556113	0.000019	1.005273
C40	C	0.475252	0.000015	1.005274
C41	C	0.794359	0.000032	0.703757
C42	C	0.794358	0.000033	0.601426
C43	C	0.794367	0.301544	1.005273
C44	C	0.794369	0.403876	1.005274
C45	C	0.179143	0.000048	1.005268
C46	C	0.261530	0.000041	1.005266
C47	C	0.327196	0.000031	1.005270
C48	C	0.409586	0.000026	1.005270
C49	C	1.032614	0.000041	1.005270
C50	C	1.113474	0.000045	1.005270
C51	C	0.794359	-0.301484	1.005270
C52	C	0.794358	-0.403816	1.005270
C53	C	0.887412	0.393082	0.946398
C54	C	0.887407	0.489237	0.946392
C55	C	0.701308	0.606976	1.064147
C56	C	0.701314	0.510822	1.064146
C57	C	0.701315	0.058901	0.612225
C58	C	0.701320	0.058901	0.516070
C59	C	0.887419	-0.058842	0.398320
C60	C	0.887413	-0.058836	0.494474
C61	C	0.794367	0.000028	1.306786
C62	C	0.794369	0.000027	1.409117
C63	C	0.556117	0.000017	1.306788
C64	C	0.475258	0.000012	1.409119
C65	C	0.556117	0.301533	1.005275
C66	C	0.475258	0.403861	1.005276
C67	C	0.556121	0.301531	1.306789
C68	C	0.475263	0.403858	1.409121
C69	C	1.032606	-0.301471	0.703754
C70	C	1.113463	-0.403797	0.601422
C71	C	1.032610	0.000044	0.703756
C72	C	1.113469	0.000048	0.601424
C73	C	1.032610	-0.301473	1.005269
C74	C	1.113469	-0.403800	1.005268
C75	C	0.437284	-0.058876	1.398298
C76	C	0.361319	-0.058903	1.494441
C77	C	0.323324	-0.000034	1.601403
C78	C	0.361305	0.058856	1.612222
C79	C	0.437274	0.058876	1.516080
C80	C	0.437287	0.510801	1.064153
C81	C	0.361323	0.606958	1.064150
C82	C	0.323325	0.596172	1.005275
C83	C	0.361303	0.489220	0.946390
C84	C	0.437271	0.393066	0.946388
C85	C	0.437292	0.393034	1.516064
C86	C	0.361328	0.489172	1.612226
C87	C	0.323332	0.596132	1.601442
C88	C	0.361311	0.606953	1.494487
C89	C	0.437279	0.510816	1.398329
C90	C	1.151444	-0.392974	0.494479
C91	C	1.227431	-0.489112	0.398318
C92	C	1.265431	-0.596071	0.409102
C93	C	1.227447	-0.606893	0.516056
C94	C	1.151467	-0.510756	0.612215
C95	C	1.151450	0.058927	0.612245
C96	C	1.227436	0.058927	0.516103
C97	C	1.265434	0.000055	0.409140
C98	C	1.227449	-0.058831	0.398322
C99	C	1.151470	-0.058837	0.494463
C100	C	1.151443	-0.392978	1.064154
C101	C	1.227408	-0.489116	1.064175
C102	C	1.265403	-0.596076	1.005302
C103	C	1.227422	-0.606896	0.946414
C104	C	1.151453	-0.510759	0.946400
H105	H	0.963183	0.306006	0.898458
C106	C	0.319556	0.477243	1.729864
N107	N	0.288093	0.468255	1.818467
C108	C	0.239758	0.701875	1.707231
N109	N	0.176806	0.781516	1.786916
C110	C	1.269198	-0.477183	0.280679
N111	N	1.300654	-0.468195	0.192077
H112	H	0.963172	0.480439	0.898447
H113	H	0.468217	0.519605	1.112097
C114	C	0.598953	0.724622	1.129083
N115	N	0.521857	0.813233	1.178059
H116	H	0.468183	0.106836	1.524907
H117	H	1.258399	-0.106763	0.311220
C118	C	0.319492	0.123617	1.729891
N119	N	0.287990	0.172402	1.818522
C120	C	0.479019	0.275433	0.881628
N121	N	0.510459	0.186833	0.832849
C122	C	0.319551	0.724594	1.128943
N123	N	0.288088	0.813194	1.177749
H124	H	1.120547	-0.106780	0.485637
C125	C	0.239747	0.701956	1.005301
N126	N	0.176791	0.781637	1.005331
C127	C	0.598965	0.123650	0.527959
N128	N	0.521866	0.172420	0.536916
H129	H	1.327299	-0.674343	0.330794
C130	C	0.319496	0.724620	1.482644
N131	N	0.287993	0.813249	1.473727
H132	H	1.258397	-0.693991	0.524823
H133	H	1.327263	-0.674348	1.005322
H134	H	0.625543	0.106848	0.699306
H135	H	0.468219	-0.106828	1.311213
H136	H	1.258351	0.106883	0.524933
H137	H	0.330353	0.480454	0.898456
H138	H	1.120543	-0.519582	0.699290
C139	C	0.989773	-0.123603	0.482590
N140	N	1.066867	-0.172383	0.473641
H141	H	0.468217	0.305951	1.524866
H142	H	0.468185	0.519645	1.311255
C143	C	0.598954	0.522700	1.128914
N144	N	0.521859	0.531644	1.177693
H145	H	0.330404	-0.106858	1.485610
H146	H	1.120509	-0.305891	0.485677
C147	C	1.109672	0.123689	0.729895
N148	N	1.078215	0.172466	0.818506
C149	C	0.989774	-0.123609	0.280668
N150	N	1.066870	-0.172398	0.192051
H151	H	1.327301	0.000069	0.330865
H152	H	1.120519	-0.305895	1.112095
C153	C	0.239749	-0.000058	1.707151
N154	N	0.176797	-0.000076	1.786797
C155	C	1.109704	-0.522682	0.881599
N156	N	1.078264	-0.531672	0.832784
H157	H	1.258325	-0.480285	1.112127
H158	H	1.258369	-0.693995	0.898482
