data_functionalizedCrystal
_audit_creation_method	'MofGen! by Chris Wilmer'
_symmetry_space_group_name_H-M	'P1'
_symmetry_Int_Tables_number	1
_symmetry_cell_setting	triclinic
loop_
_symmetry_equiv_pos_as_xyz
  x,y,z
_cell_length_a	10.540539
_cell_length_b	16.053802
_cell_length_c	16.992695
_cell_angle_alpha	92.741074
_cell_angle_beta	87.596857
_cell_angle_gamma	87.394910
loop_
_atom_site_label
_atom_site_type_symbol
_atom_site_fract_x
_atom_site_fract_y
_atom_site_fract_z
O1	O	1.700501	-0.069391	0.107291
O2	O	1.331993	-0.069401	0.117708
O3	O	1.514769	-0.069389	-0.001651
O4	O	1.517725	-0.069402	0.226650
O5	O	1.504706	0.069469	0.004892
O6	O	1.321930	0.069457	0.124251
O7	O	1.690438	0.069468	0.113834
Zn8	Zn	1.504586	0.091509	0.120081
Zn9	Zn	1.517845	-0.091443	0.111461
O10	O	1.507662	0.069456	0.233193
C11	C	1.279591	0.000027	0.120198
C12	C	1.138440	0.000023	0.117861
N13	N	1.495547	0.216369	0.125964
N14	N	1.526894	-0.216302	0.105572
C15	C	0.947218	0.000352	0.028315
C16	C	1.094065	0.000031	0.030670
C17	C	1.086155	-0.079271	0.156085
C18	C	0.939357	-0.079329	0.153106
C19	C	0.927578	0.078579	0.162320
C20	C	1.074555	0.079618	0.163172
C21	C	1.742841	0.000038	0.111344
C22	C	1.883992	0.000036	0.113681
C23	C	1.505937	0.000040	-0.027614
C24	C	1.494597	0.000039	-0.114721
C25	C	1.573350	0.260068	0.075194
C26	C	1.567040	0.347474	0.079317
C27	C	1.482931	0.391180	0.134213
C28	C	1.405119	0.347475	0.184984
C29	C	1.411424	0.260070	0.180857
C30	C	1.455387	0.652588	0.152217
C31	C	1.449090	0.739999	0.156341
C32	C	1.611010	0.739992	0.050673
C33	C	1.617314	0.652586	0.046554
C34	C	1.539497	0.608888	0.097322
N35	N	1.476481	0.480523	0.138429
N36	N	1.545941	0.519546	0.093101
C37	C	1.604016	0.000043	-0.164349
C38	C	1.593354	0.000035	-0.246195
C39	C	1.473270	0.000029	-0.278413
C40	C	1.363842	0.000022	-0.228779
C41	C	1.374506	0.000025	-0.146934
C42	C	1.429072	0.000016	-0.522259
C43	C	1.418415	0.000016	-0.604110
C44	C	1.647928	0.000027	-0.621521
C45	C	1.658582	0.000035	-0.539673
C46	C	1.549154	0.000024	-0.490047
N47	N	1.462368	0.000023	-0.362073
N48	N	1.560057	0.000024	-0.406389
C49	C	1.516494	0.000025	0.259155
C50	C	1.527835	0.000020	0.346263
H51	H	1.129695	0.056873	0.000332
H52	H	0.911523	0.057219	-0.003451
F53	F	0.884107	-0.084038	0.234844
H54	H	1.392027	0.617016	0.193556
F55	F	1.709814	0.000041	-0.299010
F56	F	1.144101	-0.156402	0.114353
H57	H	0.912751	-0.138598	0.119301
H58	H	1.114278	-0.082225	0.219976
F59	F	1.312608	0.000002	-0.469453
H60	H	0.889228	0.138683	0.136935
H61	H	0.918132	-0.056193	-0.008649
F62	F	1.764380	0.000038	-0.674342
H63	H	1.336629	0.383065	0.229679
H64	H	1.266068	0.000012	-0.255017
F65	F	1.328610	0.213564	0.234891
F66	F	1.649845	0.393982	0.025282
H67	H	1.701801	0.000053	-0.138124
F68	F	1.786393	0.000020	-0.505393
H69	H	1.108606	0.138280	0.135283
F70	F	1.112969	0.085871	0.246558
H71	H	1.320623	0.000025	-0.630337
F72	F	1.150246	-0.074506	-0.016125
F73	F	1.693820	0.786503	-0.003357
F74	F	0.872944	0.079275	0.244669
H75	H	1.285405	0.000021	-0.106527
H76	H	1.685802	0.617002	0.001854
F77	F	1.662878	0.213561	0.016770
F78	F	1.359566	0.786508	0.214774
