data_functionalizedCrystal
_audit_creation_method	'MofGen! by Chris Wilmer'
_symmetry_space_group_name_H-M	'P1'
_symmetry_Int_Tables_number	1
_symmetry_cell_setting	triclinic
loop_
_symmetry_equiv_pos_as_xyz
  x,y,z
_cell_length_a	12.759395
_cell_length_b	13.897448
_cell_length_c	12.759387
_cell_angle_alpha	89.966131
_cell_angle_beta	89.981185
_cell_angle_gamma	90.019229
loop_
_atom_site_label
_atom_site_type_symbol
_atom_site_fract_x
_atom_site_fract_y
_atom_site_fract_z
Zn1	Zn	1.606229	-0.383913	-0.593991
Zn2	Zn	1.606116	-0.545244	-0.418306
Zn3	Zn	1.430533	-0.383969	-0.418328
Zn4	Zn	1.430511	-0.545173	-0.593945
O5	O	1.518347	-0.464575	-0.506142
O6	O	1.753235	-0.405321	-0.570696
O7	O	1.582786	-0.523904	-0.271287
O8	O	1.453896	-0.248980	-0.441659
O9	O	1.753152	-0.523850	-0.441621
O10	O	1.582979	-0.248939	-0.570718
O11	O	1.453786	-0.405416	-0.271304
O12	O	1.283509	-0.405347	-0.441614
O13	O	1.453858	-0.523728	-0.740972
O14	O	1.283492	-0.523782	-0.570639
O15	O	1.582958	-0.405251	-0.741006
O16	O	1.582765	-0.680216	-0.441576
O17	O	1.453748	-0.680164	-0.570617
C18	C	1.245380	-0.464563	-0.506124
C19	C	1.128603	-0.464581	-0.506142
C20	C	1.128625	-0.588108	-0.640278
C21	C	1.073775	-0.649878	-0.707349
C22	C	0.964053	-0.649890	-0.707362
C23	C	0.909179	-0.588122	-0.640299
C24	C	0.964029	-0.526352	-0.573227
C25	C	1.073753	-0.526349	-0.573220
C26	C	0.964007	-0.402822	-0.439098
C27	C	1.073729	-0.402814	-0.439078
C28	C	0.909133	-0.341054	-0.372035
C29	C	0.963983	-0.279287	-0.304957
C30	C	1.073711	-0.279279	-0.304946
C31	C	1.128579	-0.341043	-0.372007
C32	C	1.518270	-0.715189	-0.506112
C33	C	1.518334	-0.822403	-0.506134
C34	C	1.518444	-1.018698	-0.506200
C35	C	1.518380	-0.909466	-0.506167
C36	C	1.792381	-0.464587	-0.506161
C37	C	1.909157	-0.464593	-0.506169
C38	C	1.518418	-0.464475	-0.780176
C39	C	1.518449	-0.464433	-0.896953
C40	C	1.518453	-0.212982	-0.506196
C41	C	1.518498	-0.105768	-0.506219
C42	C	1.384130	-0.341043	-0.896989
C43	C	1.316989	-0.279329	-0.951868
C44	C	1.317021	-0.279294	-1.061589
C45	C	1.384198	-0.340982	-1.116435
C46	C	1.451338	-0.402696	-1.061556
C47	C	1.451301	-0.402722	-0.951832
C48	C	1.585650	-0.526089	-1.061520
C49	C	1.585626	-0.526121	-0.951798
C50	C	1.652827	-0.587777	-1.116365
C51	C	1.719974	-0.649488	-1.061487
C52	C	1.719941	-0.649520	-0.951758
C53	C	1.652766	-0.587835	-0.896919
C54	C	1.518337	-0.464605	-0.233175
C55	C	1.518510	-0.464375	-0.116399
H56	H	0.919395	-0.700184	-0.761982
H57	H	0.919296	-0.228996	-0.250364
H58	H	1.118363	-0.228971	-0.250335
O59	O	1.383938	-0.340980	-0.790406
C60	C	1.310274	-0.273283	-0.753766
H61	H	1.248916	-0.259747	-0.816997
H62	H	1.351969	-0.202961	-0.734324
C63	C	1.331733	-0.329239	-0.576930
C64	C	1.256366	-0.312620	-0.654588
H65	H	1.298483	-0.353500	-0.515750
H66	H	1.381364	-0.374846	-0.601613
H67	H	1.366473	-0.270633	-0.560740
H68	H	1.221638	-0.371227	-0.670786
H69	H	1.206728	-0.267024	-0.629905
H70	H	0.819838	-0.588129	-0.640324
O71	O	1.127035	-0.709774	-0.772641
C72	C	1.100255	-0.688833	-0.877397
H73	H	1.070115	-0.611783	-0.882860
H74	H	1.036564	-0.740586	-0.904762
C75	C	1.234770	-0.794766	-0.940770
C76	C	1.197760	-0.700129	-0.947482
H77	H	1.294914	-0.801737	-0.984004
H78	H	1.252810	-0.808877	-0.870194
H79	H	1.181685	-0.837882	-0.963573
H80	H	1.250840	-0.657015	-0.924668
H81	H	1.179731	-0.686010	-1.018056
H82	H	1.262293	-0.229106	-0.907200
H83	H	1.217920	-0.341045	-0.372002
O84	O	1.251768	-0.219256	-1.114741
C85	C	1.192446	-0.164837	-1.042813
H86	H	1.235451	-0.161521	-0.964598
H87	H	1.112631	-0.200153	-1.031136
C88	C	1.124553	-0.066236	-1.181737
C89	C	1.177376	-0.062157	-1.085675
H90	H	1.115252	-0.002899	-1.208177
H91	H	1.164515	-0.102901	-1.230198
H92	H	1.058046	-0.095671	-1.171993
H93	H	1.243887	-0.032734	-1.095423
H94	H	1.137424	-0.025484	-1.037217
O95	O	0.802550	-0.340911	-0.372139
C96	C	0.765922	-0.248495	-0.399285
H97	H	0.829178	-0.208664	-0.445166
H98	H	0.746433	-0.206622	-0.324990
C99	C	0.589095	-0.306837	-0.410969
C100	C	0.666785	-0.257918	-0.467328
H101	H	0.527940	-0.312647	-0.452937
H102	H	0.613771	-0.369099	-0.392676
H103	H	0.572868	-0.271935	-0.349059
H104	H	0.683020	-0.292825	-0.529229
H105	H	0.642109	-0.195662	-0.485633
O106	O	1.785189	-0.709315	-1.114924
C107	C	1.770792	-0.696075	-1.223534
H108	H	1.736422	-0.621627	-1.238539
H109	H	1.714821	-0.753276	-1.254644
C110	C	1.919314	-0.796349	-1.261448
C111	C	1.877109	-0.704907	-1.279878
H112	H	1.984893	-0.801801	-1.296206
H113	H	1.929011	-0.805272	-1.188275
H114	H	1.872661	-0.844006	-1.287373
H115	H	1.923754	-0.657253	-1.253941
H116	H	1.867421	-0.695976	-1.353048
H117	H	1.217966	-0.588111	-0.640266
H118	H	1.384208	-0.340957	-1.205776
O119	O	1.785108	-0.709606	-0.898566
C120	C	1.762079	-0.805732	-0.925329
H121	H	1.721711	-0.807699	-1.004991
H122	H	1.708027	-0.838227	-0.863563
C123	C	1.914047	-0.861764	-0.832544
C124	C	1.864475	-0.864181	-0.930392
H125	H	1.977208	-0.897820	-0.835663
H126	H	1.929561	-0.797003	-0.814510
H127	H	1.868993	-0.888842	-0.781083
H128	H	1.909523	-0.837092	-0.981848
H129	H	1.848971	-0.928939	-0.948435
O130	O	1.652727	-0.588044	-0.790336
C131	C	1.625654	-0.680490	-0.753653
H132	H	1.643596	-0.736035	-0.816866
H133	H	1.538471	-0.682525	-0.734189
C134	C	1.667576	-0.635471	-0.576845
C135	C	1.689621	-0.703693	-0.654481
H136	H	1.707030	-0.649783	-0.515668
H137	H	1.685812	-0.573187	-0.601558
H138	H	1.594922	-0.637173	-0.560638
H139	H	1.762271	-0.701981	-0.670696
H140	H	1.671399	-0.765978	-0.629768
H141	H	1.652843	-0.587749	-1.205707
