data_functionalizedCrystal
_audit_creation_method	'MofGen! by Chris Wilmer'
_symmetry_space_group_name_H-M	'P1'
_symmetry_Int_Tables_number	1
_symmetry_cell_setting	triclinic
loop_
_symmetry_equiv_pos_as_xyz
  x,y,z
_cell_length_a	13.032831
_cell_length_b	21.395362
_cell_length_c	21.395355
_cell_angle_alpha	90.020549
_cell_angle_beta	97.194272
_cell_angle_gamma	82.833782
loop_
_atom_site_label
_atom_site_type_symbol
_atom_site_fract_x
_atom_site_fract_y
_atom_site_fract_z
Zn1	Zn	1.597625	-0.371368	0.475674
Zn2	Zn	2.097625	0.128632	0.975674
Zn3	Zn	1.597465	-0.476116	0.370881
Zn4	Zn	2.097465	0.023884	0.870881
Zn5	Zn	1.422854	-0.358038	0.357628
Zn6	Zn	1.922854	0.141962	0.857628
Zn7	Zn	1.422805	-0.462778	0.462346
Zn8	Zn	1.922805	0.037222	0.962346
O9	O	1.510187	-0.417075	0.416632
O10	O	2.010187	0.082925	0.916632
O11	O	1.743842	-0.396424	0.472897
O12	O	2.243842	0.103576	0.972897
O13	O	1.574256	-0.460456	0.281441
O14	O	2.074256	0.039544	0.781441
O15	O	1.446125	-0.272135	0.373318
O16	O	1.946125	0.227865	0.873318
O17	O	1.743725	-0.473382	0.395906
O18	O	2.243725	0.026618	0.895906
O19	O	1.574529	-0.281929	0.460046
O20	O	2.074529	0.218071	0.960046
O21	O	1.445970	-0.373704	0.271704
O22	O	1.945970	0.126296	0.771704
O23	O	1.276609	-0.360771	0.360395
O24	O	1.776609	0.139229	0.860395
O25	O	1.446042	-0.450649	0.551796
O26	O	1.946042	0.049351	1.051796
O27	O	1.276573	-0.437723	0.437331
O28	O	1.776573	0.062277	0.937331
O29	O	1.574481	-0.383491	0.561587
O30	O	2.074481	0.116509	1.061587
O31	O	1.574209	-0.562018	0.382982
O32	O	2.074209	-0.062018	0.882982
O33	O	1.445887	-0.552218	0.450182
O34	O	1.945887	-0.052218	0.950182
C35	C	1.238673	-0.396354	0.395979
C36	C	1.738673	0.103646	0.895979
C37	C	1.122518	-0.387504	0.387159
C38	C	1.622518	0.112496	0.887159
C39	C	1.510054	-0.579852	0.416590
C40	C	2.010054	-0.079852	0.916590
C41	C	1.510092	-0.649497	0.416600
C42	C	2.010092	-0.149497	0.916600
C43	C	1.576914	-0.687250	0.461785
C44	C	2.076914	-0.187250	0.961785
C45	C	1.576950	-0.752688	0.461803
C46	C	2.076950	-0.252688	0.961803
C47	C	1.510177	-0.780371	0.416626
C48	C	2.010177	-0.280371	0.916626
C49	C	1.443342	-0.742610	0.371437
C50	C	1.943342	-0.242610	0.871437
C51	C	1.443300	-0.677172	0.371424
C52	C	1.943300	-0.177172	0.871424
C53	C	1.502042	-0.883451	0.359569
C54	C	2.002042	-0.383451	0.859569
C55	C	1.502092	-0.948888	0.359581
C56	C	2.002092	-0.448888	0.859581
C57	C	1.510301	-0.982202	0.416666
C58	C	2.010301	-0.482202	0.916666
C59	C	1.518482	-0.950072	0.473741
C60	C	2.018482	-0.450072	0.973741
C61	C	1.518440	-0.884635	0.473728
C62	C	2.018440	-0.384635	0.973728
C63	C	1.510214	-0.851327	0.416635
C64	C	2.010214	-0.351327	0.916635
C65	C	1.577166	-1.090910	0.461874
C66	C	2.077166	-0.590910	0.961874
C67	C	1.577195	-1.156349	0.461892
C68	C	2.077195	-0.656349	0.961892
C69	C	1.443592	-1.146270	0.371521
C70	C	1.943592	-0.646270	0.871521
C71	C	1.443557	-1.080832	0.371508
C72	C	1.943557	-0.580832	0.871508
C73	C	1.510350	-1.053157	0.416684
C74	C	2.010350	-0.553157	0.916684
C75	C	1.070742	-0.421694	0.421236
C76	C	1.570742	0.078306	0.921236
C77	C	0.950690	-0.412548	0.412120
C78	C	1.450690	0.087452	0.912120
C79	C	1.782762	-0.437878	0.437366
C80	C	2.282762	0.062122	0.937366
C81	C	1.898917	-0.446743	0.446202
C82	C	2.398917	0.053257	0.946202
C83	C	1.510274	-0.417069	0.580062
C84	C	2.010274	0.082931	1.080062
C85	C	1.510311	-0.417066	0.649706
C86	C	2.010311	0.082934	1.149706
C87	C	1.510350	-0.253664	0.416691
C88	C	2.010350	0.246336	0.916691
C89	C	1.510419	-0.184028	0.416715
C90	C	2.010419	0.315972	0.916715
C91	C	1.510161	-0.417040	0.253843
C92	C	2.010161	0.082960	0.753843
C93	C	1.510327	-0.416882	0.184214
C94	C	2.010327	0.083118	0.684214
C95	C	1.577187	-0.382095	0.687519
C96	C	2.077187	0.117905	1.187519
C97	C	1.577185	-0.382068	0.752954
C98	C	2.077185	0.117932	1.252954
C99	C	1.510319	-0.417024	0.780575
C100	C	2.010319	0.082976	1.280575
C101	C	1.443431	-0.451997	0.742754
C102	C	1.943431	0.048003	1.242754
C103	C	1.443427	-0.452018	0.677319
C104	C	1.943427	0.047982	1.177319
C105	C	1.502021	-0.472807	0.883608
C106	C	2.002021	0.027193	1.383608
C107	C	1.502033	-0.472787	0.949042
C108	C	2.002033	0.027213	1.449042
C109	C	1.510326	-0.416959	0.982397
C110	C	2.010326	0.083041	1.482397
C111	C	1.518629	-0.361149	0.950311
C112	C	2.018629	0.138851	1.450311
C113	C	1.518625	-0.361170	0.884876
C114	C	2.018625	0.138830	1.384876
C115	C	1.510316	-0.417005	0.851527
C116	C	2.010316	0.082995	1.351527
C117	C	1.577203	-0.381955	1.091162
C118	C	2.077203	0.118045	1.591162
C119	C	1.577195	-0.381926	1.156598
C120	C	2.077195	0.118074	1.656598
C121	C	1.443445	-0.451861	1.146397
C122	C	1.943445	0.048139	1.646397
C123	C	1.443449	-0.451884	1.080962
C124	C	1.943449	0.048116	1.580962
C125	C	1.510333	-0.416932	1.053348
C126	C	2.010333	0.083068	1.553348
H127	H	1.631297	-0.664718	0.498571
H128	H	2.131297	-0.164718	0.998571
Br129	Br	1.144986	-0.481771	0.481111
Br130	Br	1.644986	0.018229	0.981111
Br131	Br	0.876450	-0.352465	0.352246
Br132	Br	1.376450	0.147535	0.852246
H133	H	1.525099	-0.858476	0.520200
H134	H	2.025099	-0.358476	1.020200
Br135	Br	0.973154	-0.506809	0.506094
Br136	Br	1.473154	-0.006809	1.006094
H137	H	1.077967	-0.351459	0.351238
H138	H	1.577967	0.148541	0.851238
H139	H	1.631648	-0.353634	0.665040
H140	H	2.131648	0.146366	1.165040
H141	H	1.631641	-0.353587	0.783747
H142	H	2.131641	0.146413	1.283747
H143	H	1.525383	-0.315728	0.858755
H144	H	2.025383	0.184272	1.358755
Br145	Br	1.529893	-0.285377	0.995570
Br146	Br	2.029893	0.214623	1.495570
H147	H	1.631659	-0.353491	1.068678
H148	H	2.131659	0.146509	1.568678
Br149	Br	1.352863	-1.029592	0.310183
Br150	Br	1.852863	-0.529592	0.810183
H151	H	1.389217	-1.168809	0.334741
H152	H	1.889217	-0.668809	0.834741
Br153	Br	1.352658	-0.499482	0.625999
Br154	Br	1.852658	0.000518	1.125999
H155	H	1.495436	-0.975043	0.313108
H156	H	1.995436	-0.475043	0.813108
Br157	Br	1.352603	-0.625932	0.310099
Br158	Br	1.852603	-0.125932	0.810099
Br159	Br	1.491048	-0.838258	0.282094
Br160	Br	1.991048	-0.338258	0.782094
H161	H	1.388985	-0.480457	0.765247
H162	H	1.888985	0.019543	1.265247
Br163	Br	1.667979	-0.334472	1.207918
Br164	Br	2.167979	0.165528	1.707918
H165	H	1.388991	-0.480316	1.168884
H166	H	1.888991	0.019684	1.668884
Br167	Br	1.352685	-0.499349	1.029641
Br168	Br	1.852685	0.000651	1.529641
H169	H	1.495278	-0.518231	0.975162
H170	H	1.995278	-0.018231	1.475162
H171	H	1.631356	-0.783431	0.498605
H172	H	2.131356	-0.283431	0.998605
Br173	Br	1.529633	-0.995275	0.551218
Br174	Br	2.029633	-0.495275	1.051218
Br175	Br	1.490797	-0.548585	0.838350
Br176	Br	1.990797	-0.048585	1.338350
H177	H	1.631549	-1.068376	0.498660
H178	H	2.131549	-0.568376	0.998660
H179	H	1.631609	-1.187087	0.498690
H180	H	2.131609	-0.687087	0.998690
Br181	Br	1.352710	-0.780177	0.310130
Br182	Br	1.852710	-0.280177	0.810130
