data_functionalizedCrystal
_audit_creation_method	'MofGen! by Chris Wilmer'
_symmetry_space_group_name_H-M	'P1'
_symmetry_Int_Tables_number	1
_symmetry_cell_setting	triclinic
loop_
_symmetry_equiv_pos_as_xyz
  x,y,z
_cell_length_a	12.827893
_cell_length_b	12.827892
_cell_length_c	12.759393
_cell_angle_alpha	89.968904
_cell_angle_beta	89.980340
_cell_angle_gamma	90.015172
loop_
_atom_site_label
_atom_site_type_symbol
_atom_site_fract_x
_atom_site_fract_y
_atom_site_fract_z
Zn1	Zn	1.597675	-0.415972	-0.594019
Zn2	Zn	1.597568	-0.590752	-0.418341
Zn3	Zn	1.422915	-0.416026	-0.418355
Zn4	Zn	1.422902	-0.590671	-0.593978
O5	O	1.510265	-0.503355	-0.506173
O6	O	1.743897	-0.439168	-0.570726
O7	O	1.574361	-0.567631	-0.271321
O8	O	1.446147	-0.269783	-0.441680
O9	O	1.743819	-0.567579	-0.441656
O10	O	1.574543	-0.269743	-0.570740
O11	O	1.446044	-0.439261	-0.271332
O12	O	1.276677	-0.439182	-0.441640
O13	O	1.446125	-0.567440	-0.741005
O14	O	1.276668	-0.567493	-0.570670
O15	O	1.574530	-0.439089	-0.741035
O16	O	1.574349	-0.736978	-0.441617
O17	O	1.446022	-0.736918	-0.570657
C18	C	1.238755	-0.503335	-0.506153
C19	C	1.122602	-0.503352	-0.506170
C20	C	1.070840	-0.566943	-0.569919
C21	C	0.950790	-0.566962	-0.569938
C22	C	1.510201	-0.774865	-0.506154
C23	C	1.510269	-0.891018	-0.506181
C24	C	1.446754	-0.942808	-0.569987
C25	C	1.446823	-1.062858	-0.570016
C26	C	1.782835	-0.503376	-0.506194
C27	C	1.898988	-0.503385	-0.506203
C28	C	1.510338	-0.503250	-0.780207
C29	C	1.510369	-0.503205	-0.896983
C30	C	1.510358	-0.230785	-0.506216
C31	C	1.510398	-0.114632	-0.506234
C32	C	1.443579	-0.436350	-0.951850
C33	C	1.443603	-0.436318	-1.061574
C34	C	1.577218	-0.569998	-1.061555
C35	C	1.577187	-0.570035	-0.951833
C36	C	1.510253	-0.503385	-0.233206
C37	C	1.510424	-0.503136	-0.116430
H38	H	1.115402	-0.621369	-0.624488
H39	H	1.631579	-0.624480	-0.907159
F40	F	1.064363	-0.432201	-0.434852
F41	F	0.892611	-0.638131	-0.641273
F42	F	0.957161	-0.432224	-0.434854
F43	F	1.372504	-0.365173	-1.119963
F44	F	1.375750	-1.121069	-0.641426
F45	F	1.375608	-0.884600	-0.641362
F46	F	1.372462	-0.365226	-0.893479
F47	F	1.648328	-0.641118	-1.119939
H48	H	1.564783	-1.070102	-0.451608
H49	H	1.564694	-0.935556	-0.451572
