data_functionalizedCrystal
_audit_creation_method	'MofGen! by Chris Wilmer'
_symmetry_space_group_name_H-M	'P1'
_symmetry_Int_Tables_number	1
_symmetry_cell_setting	triclinic
loop_
_symmetry_equiv_pos_as_xyz
  x,y,z
_cell_length_a	12.477989
_cell_length_b	14.560438
_cell_length_c	14.560438
_cell_angle_alpha	60.000069
_cell_angle_beta	89.999747
_cell_angle_gamma	64.369072
loop_
_atom_site_label
_atom_site_type_symbol
_atom_site_fract_x
_atom_site_fract_y
_atom_site_fract_z
Zr1	Zr	0.973044	1.114170	-0.174951
O2	O	0.811764	1.287724	-0.312572
O3	O	1.022485	0.928101	-0.132765
O4	O	1.022485	1.119705	-0.324366
O5	O	0.811764	1.096117	0.030170
O6	O	1.188705	1.138307	-0.333666
O7	O	0.811764	1.096120	-0.120971
O8	O	1.188705	0.795562	0.009073
O9	O	0.811765	1.438862	-0.312569
O10	O	1.167619	1.023151	-0.121711
O11	O	1.043571	1.009266	-0.001975
O12	O	1.043571	1.234856	-0.227561
O13	O	0.919523	1.220971	-0.107825
Zr14	Zr	1.238147	1.143833	0.051269
Zr15	Zr	1.238146	1.143837	-0.189783
Zr16	Zr	0.973044	1.114165	0.066102
Zr17	Zr	0.973045	1.355217	-0.174946
Zr18	Zr	1.238146	0.902785	0.051264
O19	O	1.188706	1.329901	0.009083
O20	O	1.188705	1.329907	-0.333662
O21	O	0.811765	1.287718	0.030173
O22	O	1.399426	0.970278	0.188890
O23	O	1.399426	0.970284	-0.153855
O24	O	1.022485	0.928095	0.209980
O25	O	1.399426	1.161885	-0.153852
O26	O	1.188706	1.138297	0.200684
O27	O	1.022486	1.119696	0.209984
O28	O	1.399427	1.161882	-0.002711
O29	O	1.022485	1.462444	-0.324359
O30	O	1.188705	0.795559	0.200677
O31	O	1.399426	0.819140	0.188887
O32	O	1.399426	0.819144	-0.002717
O33	O	0.811765	1.438859	-0.120965
O34	O	1.022486	1.462440	-0.132755
O35	O	1.167620	1.023147	0.103879
O36	O	1.291668	1.037031	-0.015857
O37	O	1.167620	1.248736	-0.121707
O38	O	1.043571	1.234852	-0.001971
C39	C	1.105595	0.827487	-0.061847
C40	C	1.105594	0.725156	-0.061848
C41	C	1.170344	0.684327	-0.124349
C42	C	1.170349	0.588168	-0.124339
C43	C	1.040845	0.573679	0.000675
C44	C	1.040848	0.669830	0.000670
C45	C	0.773993	1.091892	-0.043287
C46	C	0.661450	1.079297	-0.036990
C47	C	1.437198	1.166111	-0.080395
C48	C	1.549741	1.178705	-0.086692
C49	C	1.105595	1.129006	-0.363360
C50	C	1.105595	1.129008	-0.465693
C51	C	1.105596	1.430515	-0.061835
C52	C	1.105596	1.532846	-0.061833
C53	C	1.197166	1.139257	-0.518893
C54	C	1.197170	1.139246	-0.615039
C55	C	1.014019	1.118741	-0.604780
C56	C	1.014022	1.118744	-0.508631
C57	C	1.105596	1.128996	0.239679
C58	C	1.105596	1.128994	0.342012
C59	C	1.437197	0.864597	-0.080400
C60	C	1.549740	0.774860	-0.086699
C61	C	1.105595	0.827482	0.239673
C62	C	1.105595	0.725149	0.342004
C63	C	1.437198	0.864591	0.221119
C64	C	1.549740	0.774853	0.317153
C65	C	0.773993	1.393411	-0.344801
C66	C	0.661450	1.483149	-0.440835
C67	C	0.773994	1.393406	-0.043282
C68	C	0.661451	1.483142	-0.036983
C69	C	1.105596	1.430520	-0.363355
C70	C	1.105596	1.532853	-0.465686
C71	C	1.537839	0.725474	-0.144922
C72	C	1.643575	0.641169	-0.150862
C73	C	1.761210	0.606246	-0.098573
C74	C	1.773108	0.655641	-0.040348
C75	C	1.667374	0.739951	-0.034415
C76	C	1.667355	0.739960	0.299751
C77	C	1.773111	0.655656	0.389975
C78	C	1.761250	0.606240	0.497602
C79	C	1.643623	0.641141	0.515003
C80	C	1.537870	0.725451	0.424779
C81	C	0.543836	1.518054	-0.423433
C82	C	0.438080	1.602388	-0.513657
C83	C	0.449941	1.651809	-0.621283
C84	C	0.567568	1.616901	-0.638684
C85	C	0.673321	1.532575	-0.548461
C86	C	0.673352	1.532539	0.021230
C87	C	0.567616	1.616870	0.027144
C88	C	0.449981	1.651797	-0.025149
C89	C	0.438082	1.602396	-0.083369
C90	C	0.543817	1.518073	-0.089289
C91	C	1.170346	0.684316	0.445334
C92	C	1.170332	0.588171	0.541482
C93	C	1.040814	0.573696	0.430956
C94	C	1.040822	0.669846	0.334811
H95	H	1.223075	0.554927	-0.175231
F96	F	0.971937	0.713279	0.067202
F97	F	0.537266	1.302544	-0.148618
H98	H	0.534110	1.477855	-0.136689
F99	F	1.873732	0.516512	-0.104895
H100	H	0.670989	0.984548	0.010377
F101	F	1.680059	0.792497	0.027564
F102	F	0.971947	0.514785	0.067212
H103	H	0.988088	0.703094	0.250669
H104	H	0.342290	1.630847	-0.125944
F105	F	1.294629	1.150177	-0.473197
F106	F	1.239245	0.544721	0.651453
F107	F	1.294635	1.150150	-0.671653
H108	H	1.223066	0.729370	-0.175254
H109	H	0.363820	1.720471	-0.694739
F110	F	0.916562	1.107821	-0.650486
H111	H	1.223084	0.729346	0.451198
H112	H	1.868901	0.627195	0.002223
H113	H	0.534155	1.477818	-0.335805
F114	F	0.916558	1.107828	-0.452004
F115	F	0.971885	0.514828	0.423312
F116	F	0.798492	1.495429	-0.566999
H117	H	1.633862	0.600960	-0.198274
F118	F	0.798538	1.495386	0.076890
F119	F	1.412652	0.762629	-0.200585
H120	H	0.577328	1.657078	0.074557
F121	F	1.680006	0.792543	0.185214
F122	F	1.898286	0.618523	0.371433
F123	F	1.873814	0.516510	0.593616
H124	H	1.633984	0.600895	0.602644
F125	F	1.412699	0.762571	0.443318
H126	H	0.342314	1.630794	-0.499467
H127	H	0.363895	1.720459	-0.020320
F128	F	0.580172	1.669507	-0.753236
