data_functionalizedCrystal
_audit_creation_method	'MofGen! by Chris Wilmer'
_symmetry_space_group_name_H-M	'P1'
_symmetry_Int_Tables_number	1
_symmetry_cell_setting	triclinic
loop_
_symmetry_equiv_pos_as_xyz
  x,y,z
_cell_length_a	13.032831
_cell_length_b	12.594516
_cell_length_c	12.594517
_cell_angle_alpha	90.014531
_cell_angle_beta	97.177020
_cell_angle_gamma	82.816889
loop_
_atom_site_label
_atom_site_type_symbol
_atom_site_fract_x
_atom_site_fract_y
_atom_site_fract_z
Zn1	Zn	1.597576	-0.630848	0.808143
Zn2	Zn	1.597525	-0.808810	0.630159
Zn3	Zn	1.422858	-0.608214	0.607612
Zn4	Zn	1.422811	-0.786140	0.785530
O5	O	1.510192	-0.708503	0.707861
O6	O	1.743808	-0.673414	0.803433
O7	O	1.574353	-0.782215	0.478222
O8	O	1.446076	-0.462276	0.634241
O9	O	1.743770	-0.804162	0.672669
O10	O	1.574441	-0.478905	0.781570
O11	O	1.446026	-0.634839	0.461657
O12	O	1.276613	-0.612857	0.612313
O13	O	1.445995	-0.765525	0.937475
O14	O	1.276578	-0.743579	0.743029
O15	O	1.574395	-0.651433	0.954089
O16	O	1.574307	-0.954743	0.650741
O17	O	1.445946	-0.938088	0.764891
C18	C	1.238678	-0.673303	0.672771
C19	C	1.122523	-0.658269	0.657785
C20	C	1.070747	-0.716349	0.715682
C21	C	0.950695	-0.700813	0.700195
C22	C	1.510144	-0.985038	0.707836
C23	C	1.510219	-1.103353	0.707873
C24	C	1.580116	-1.181637	0.645873
C25	C	1.605630	-1.255662	0.746317
C26	C	1.484835	-1.240144	0.607508
C27	C	1.535782	-1.175826	0.808374
C28	C	1.414943	-1.160296	0.669494
C29	C	1.440421	-1.234284	0.770000
C30	C	1.782767	-0.743842	0.743088
C31	C	1.898922	-0.758901	0.758100
C32	C	1.510196	-0.708475	0.985482
C33	C	1.510197	-0.708463	1.103788
C34	C	1.510269	-0.430892	0.707913
C35	C	1.510302	-0.312591	0.707935
C36	C	1.580038	-0.646427	1.182078
C37	C	1.484707	-0.608046	1.240559
C38	C	1.605533	-0.746841	1.256106
C39	C	1.414816	-0.670025	1.160704
C40	C	1.535706	-0.808874	1.176253
C41	C	1.440310	-0.770522	1.234694
C42	C	1.510190	-0.708540	1.431319
C43	C	1.510213	-0.708509	1.313017
H44	H	0.906147	-0.639578	0.639161
H45	H	1.639017	-0.593889	1.158664
H46	H	0.943469	-0.820126	0.819144
H47	H	1.639235	-1.158232	0.593498
C48	C	1.787479	-1.285434	0.725108
C49	C	1.714444	-1.311675	0.790182
H50	H	1.854654	-1.320019	0.752181
H51	H	1.788394	-1.210145	0.724795
H52	H	1.768925	-1.308362	0.654217
H53	H	1.732993	-1.288741	0.861071
H54	H	1.713532	-1.386981	0.790506
H55	H	1.463133	-0.523150	1.268913
H56	H	1.334176	-0.637487	1.119333
H57	H	1.115299	-0.777572	0.776720
H58	H	1.381347	-1.257498	0.822527
C59	C	1.088690	-0.473618	0.601907
C60	C	1.062382	-0.575617	0.575389
H61	H	1.051555	-0.422593	0.551039
H62	H	1.161468	-0.473215	0.601493
H63	H	1.070869	-0.455866	0.671168
H64	H	1.080210	-0.593372	0.506130
H65	H	0.989588	-0.576022	0.575791
H66	H	1.557206	-1.147583	0.893338
C67	C	1.260789	-0.800954	1.217225
C68	C	1.360502	-0.841357	1.266023
H69	H	1.211519	-0.844678	1.236575
H70	H	1.259958	-0.800861	1.141707
H71	H	1.243262	-0.729924	1.240316
H72	H	1.378032	-0.912384	1.242926
H73	H	1.361336	-0.841461	1.341557
C74	C	1.664779	-0.963472	1.186502
C75	C	1.564869	-0.923451	1.137938
H76	H	1.682792	-1.034206	1.162841
H77	H	1.665621	-0.964248	1.262018
H78	H	1.713685	-0.919111	1.167565
H79	H	1.515962	-0.967808	1.156881
H80	H	1.564020	-0.922683	1.062405
C81	C	1.279684	-1.136560	0.520397
C82	C	1.306158	-1.104253	0.625596
H83	H	1.212528	-1.101954	0.493288
H84	H	1.279076	-1.211890	0.519485
H85	H	1.329489	-1.117730	0.477071
H86	H	1.256358	-1.123091	0.668925
H87	H	1.306758	-1.028906	0.626516
C88	C	1.529059	-1.252201	0.428091
C89	C	1.455794	-1.278429	0.492893
H90	H	1.511131	-1.275830	0.357332
H91	H	1.596282	-1.286149	0.455801
H92	H	1.529436	-1.176832	0.427181
H93	H	1.455422	-1.353799	0.493809
H94	H	1.388554	-1.244484	0.465175
H95	H	1.686150	-0.779279	1.297608
