data_functionalizedCrystal
_audit_creation_method	'MofGen! by Chris Wilmer'
_symmetry_space_group_name_H-M	'P1'
_symmetry_Int_Tables_number	1
_symmetry_cell_setting	triclinic
loop_
_symmetry_equiv_pos_as_xyz
  x,y,z
_cell_length_a	19.288864
_cell_length_b	27.732048
_cell_length_c	17.766277
_cell_angle_alpha	89.988664
_cell_angle_beta	89.976791
_cell_angle_gamma	82.889449
loop_
_atom_site_label
_atom_site_type_symbol
_atom_site_fract_x
_atom_site_fract_y
_atom_site_fract_z
O1	O	0.920977	0.060300	-0.062844
O2	O	1.254310	0.393633	0.270490
O3	O	1.587644	0.726967	0.603823
O4	O	0.718666	0.068434	-0.062793
O5	O	1.051999	0.401768	0.270540
O6	O	1.385332	0.735101	0.603874
O7	O	0.826105	-0.006011	-0.062806
O8	O	1.159438	0.327323	0.270528
O9	O	1.492771	0.660656	0.603861
O10	O	0.813538	0.134745	-0.062831
O11	O	1.146871	0.468078	0.270502
O12	O	1.480205	0.801411	0.603836
O13	O	0.826086	-0.006014	0.062383
O14	O	1.159419	0.327319	0.395716
O15	O	1.492753	0.660652	0.729050
O16	O	0.718647	0.068430	0.062395
O17	O	1.051980	0.401764	0.395729
O18	O	1.385314	0.735097	0.729062
O19	O	0.920958	0.060296	0.062345
O20	O	1.254292	0.393629	0.395678
O21	O	1.587625	0.726963	0.729012
Cu22	Cu	0.819801	0.064363	0.073801
Cu23	Cu	1.153134	0.397696	0.407134
Cu24	Cu	1.486468	0.731030	0.740468
Cu25	Cu	0.819823	0.064367	-0.074249
Cu26	Cu	1.153156	0.397701	0.259084
Cu27	Cu	1.486490	0.731034	0.592418
O28	O	0.813519	0.134741	0.062357
O29	O	1.146853	0.468074	0.395691
O30	O	1.480186	0.801408	0.729024
C31	C	0.692781	0.068171	-0.000192
C32	C	1.026115	0.401504	0.333141
C33	C	1.359448	0.734837	0.666474
C34	C	0.615683	0.067385	-0.000172
C35	C	0.949016	0.400718	0.333161
C36	C	1.282349	0.734052	0.666494
C37	C	0.570714	0.111066	-0.000192
C38	C	0.904047	0.444399	0.333141
C39	C	1.237381	0.777732	0.666474
C40	C	0.498271	0.110328	-0.000200
C41	C	0.831605	0.443661	0.333133
C42	C	1.164938	0.776994	0.666466
C43	C	0.470801	0.065906	-0.000204
C44	C	0.804134	0.399239	0.333129
C45	C	1.137468	0.732573	0.666463
C46	C	0.515780	0.022219	-0.000180
C47	C	0.849113	0.355553	0.333153
C48	C	1.182446	0.688886	0.666487
C49	C	0.588220	0.022959	-0.000164
C50	C	0.921554	0.356292	0.333169
C51	C	1.254887	0.689626	0.666503
C52	C	0.362763	0.030987	-0.044082
C53	C	0.696097	0.364320	0.289251
C54	C	1.029430	0.697654	0.622585
C55	C	0.290324	0.030250	-0.044102
C56	C	0.623657	0.363583	0.289231
C57	C	0.956990	0.696916	0.622564
C58	C	0.247370	0.063624	-0.000249
C59	C	0.580703	0.396957	0.333084
C60	C	0.914036	0.730290	0.666418
C61	C	0.276863	0.097744	0.043615
C62	C	0.610196	0.431077	0.376948
C63	C	0.943530	0.764410	0.710282
C64	C	0.349304	0.098483	0.043631
C65	C	0.682637	0.431816	0.376964
C66	C	1.015971	0.765150	0.710297
C67	C	0.392252	0.065099	-0.000220
C68	C	0.725585	0.398433	0.333113
C69	C	1.058919	0.731766	0.666446
C70	C	0.123850	0.106507	-0.000277
C71	C	0.457183	0.439841	0.333057
C72	C	0.790517	0.773174	0.666390
C73	C	0.051406	0.105767	-0.000280
C74	C	0.384740	0.439101	0.333053
C75	C	0.718073	0.772434	0.666387
C76	C	0.068916	0.017658	-0.000267
C77	C	0.402250	0.350991	0.333066
C78	C	0.735583	0.684325	0.666399
C79	C	0.141358	0.018399	-0.000256
C80	C	0.474691	0.351732	0.333077
C81	C	0.808025	0.685066	0.666411
C82	C	0.168820	0.062825	-0.000264
C83	C	0.502154	0.396159	0.333069
C84	C	0.835487	0.729492	0.666402
C85	C	0.825831	-0.024020	-0.000209
C86	C	1.159165	0.309313	0.333124
C87	C	1.492498	0.642646	0.666457
C88	C	0.825037	-0.077678	-0.000203
C89	C	1.158371	0.255656	0.333131
C90	C	1.491704	0.588989	0.666464
C91	C	0.883526	-0.416316	-0.000256
C92	C	1.216859	-0.082983	0.333077
C93	C	1.550193	0.250351	0.666411
C94	C	0.880579	-0.617985	-0.000266
C95	C	1.213912	-0.284651	0.333068
C96	C	1.547245	0.048682	0.666401
O97	O	0.934063	-0.649079	-0.000312
O98	O	1.267396	-0.315745	0.333021
O99	O	1.600729	0.017588	0.666355
N100	N	0.816872	-0.637301	-0.000249
N101	N	1.150205	-0.303967	0.333084
N102	N	1.483539	0.029366	0.666417
C103	C	0.753897	-0.606196	-0.000235
C104	C	1.087231	-0.272863	0.333098
C105	C	1.420564	0.060470	0.666432
O106	O	0.699643	-0.627253	-0.000229
O107	O	1.032976	-0.293920	0.333104
O108	O	1.366310	0.039413	0.666438
C109	C	0.756845	-0.404529	-0.000231
C110	C	1.090178	-0.071195	0.333103
C111	C	1.423512	0.262138	0.666436
C112	C	0.820556	-0.385216	-0.000240
C113	C	1.153890	-0.051882	0.333094
C114	C	1.487223	0.281451	0.666427
C115	C	0.947232	-0.397002	-0.000266
C116	C	1.280565	-0.063669	0.333068
C117	C	1.613898	0.269664	0.666401
C118	C	0.947968	-0.346588	-0.000259
C119	C	1.281301	-0.013255	0.333074
C120	C	1.614635	0.320079	0.666407
C121	C	0.884998	-0.315488	-0.000243
C122	C	1.218331	0.017846	0.333090
C123	C	1.551665	0.351179	0.666424
C124	C	0.821292	-0.334801	-0.000233
C125	C	1.154626	-0.001468	0.333100
C126	C	1.487959	0.331865	0.666434
C127	C	0.693871	-0.373425	-0.000222
C128	C	1.027205	-0.040092	0.333111
C129	C	1.360538	0.293241	0.666445
C130	C	0.694614	-0.323006	-0.000223
C131	C	1.027947	0.010328	0.333110
C132	C	1.361281	0.343661	0.666444
C133	C	0.758325	-0.303693	-0.000232
C134	C	1.091658	0.029641	0.333102
C135	C	1.424992	0.362974	0.666435
C136	C	0.759059	-0.253287	-0.000210
C137	C	1.092392	0.080047	0.333123
C138	C	1.425725	0.413380	0.666456
N139	N	0.822766	-0.233971	-0.000227
N140	N	1.156099	0.099363	0.333106
N141	N	1.489432	0.432696	0.666440
C142	C	0.885735	-0.265071	-0.000243
C143	C	1.219069	0.068262	0.333090
C144	C	1.552402	0.401596	0.666423
C145	C	0.752354	-0.712075	-0.000236
C146	C	1.085687	-0.378742	0.333097
C147	C	1.419021	-0.045408	0.666431
C148	C	0.751617	-0.762492	-0.000236
C149	C	1.084950	-0.429158	0.333098
C150	C	1.418284	-0.095825	0.666431
C151	C	0.878299	-0.774276	-0.000268
C152	C	1.211632	-0.440943	0.333066
C153	C	1.544965	-0.107610	0.666399
C154	C	0.879035	-0.723859	-0.000263
C155	C	1.212368	-0.390526	0.333071
C156	C	1.545702	-0.057192	0.666404
C157	C	0.816061	-0.692759	-0.000253
C158	C	1.149394	-0.359426	0.333081
C159	C	1.482728	-0.026092	0.666414
C160	C	0.887276	-0.159197	-0.000229
C161	C	1.220610	0.174136	0.333105
C162	C	1.553943	0.507469	0.666438
C163	C	0.888007	-0.108778	-0.000219
C164	C	1.221340	0.224555	0.333114
C165	C	1.554674	0.557889	0.666448
C166	C	0.761325	-0.096998	-0.000191
C167	C	1.094659	0.236336	0.333142
C168	C	1.427992	0.569669	0.666476
C169	C	0.760595	-0.147412	-0.000197
C170	C	1.093928	0.185921	0.333137
C171	C	1.427261	0.519254	0.666470
C172	C	0.823576	-0.178511	-0.000218
C173	C	1.156909	0.154822	0.333115
C174	C	1.490242	0.488155	0.666449
O175	O	0.705603	-0.222164	-0.000172
O176	O	1.038937	0.111169	0.333161
O177	O	1.372270	0.444502	0.666494
O178	O	0.939982	-0.244005	-0.000266
O179	O	1.273315	0.089329	0.333067
O180	O	1.606648	0.422662	0.666401
C181	C	0.882790	-0.466730	-0.000263
C182	C	1.216123	-0.133397	0.333071
C183	C	1.549456	0.199936	0.666404
C184	C	0.819084	-0.486044	-0.000253
C185	C	1.152417	-0.152711	0.333081
C186	C	1.485751	0.180623	0.666414
C187	C	0.756114	-0.454943	-0.000236
C188	C	1.089448	-0.121610	0.333097
C189	C	1.422781	0.211723	0.666430
C190	C	0.818347	-0.536461	-0.000253
C191	C	1.151680	-0.203127	0.333081
C192	C	1.485013	0.130206	0.666414
C193	C	0.881317	-0.567561	-0.000269
C194	C	1.214650	-0.234228	0.333064
C195	C	1.547983	0.099106	0.666398
C196	C	0.945023	-0.548245	-0.000285
C197	C	1.278357	-0.214911	0.333048
C198	C	1.611690	0.118422	0.666381
C199	C	0.945760	-0.497831	-0.000279
C200	C	1.279093	-0.164497	0.333054
C201	C	1.612426	0.168836	0.666388
C202	C	0.692407	-0.474260	-0.000220
C203	C	1.025741	-0.140926	0.333113
C204	C	1.359074	0.192407	0.666447
C205	C	0.691676	-0.524674	-0.000226
C206	C	1.025010	-0.191341	0.333108
C207	C	1.358343	0.141992	0.666441
C208	C	0.754646	-0.555775	-0.000242
C209	C	1.087979	-0.222441	0.333091
C210	C	1.421313	0.110892	0.666425
C211	C	0.946842	0.060560	-0.000258
C212	C	1.280176	0.393893	0.333076
C213	C	1.613509	0.727226	0.666409
C214	C	1.023941	0.061345	-0.000282
C215	C	1.357274	0.394679	0.333051
C216	C	1.690608	0.728012	0.666384
C217	C	0.813792	0.152751	-0.000241
C218	C	1.147126	0.486084	0.333093
C219	C	1.480459	0.819417	0.666426
C220	C	0.814587	0.206408	-0.000252
C221	C	1.147920	0.539741	0.333081
C222	C	1.481253	0.873075	0.666415
N223	N	0.819790	0.064359	0.177931
N224	N	1.153124	0.397693	0.511265
N225	N	1.486457	0.731026	0.844598
N226	N	0.819839	0.064367	-0.178379
N227	N	1.153172	0.397700	0.154954
N228	N	1.486506	0.731034	0.488287
C229	C	0.867380	0.031411	0.217313
C230	C	1.200713	0.364745	0.550646
C231	C	1.534046	0.698078	0.883979
C232	C	0.867384	0.031409	0.296114
C233	C	1.200717	0.364742	0.629448
C234	C	1.534050	0.698076	0.962781
C235	C	0.819805	0.064363	0.335532
C236	C	1.153138	0.397697	0.668865
C237	C	1.486472	0.731030	1.002198
C238	C	0.772207	0.097314	0.296141
C239	C	1.105540	0.430647	0.629474
C240	C	1.438874	0.763981	0.962808
C241	C	0.772200	0.097312	0.217341
C242	C	1.105533	0.430645	0.550674
C243	C	1.438866	0.763979	0.884007
C244	C	0.810231	0.108406	0.460363
C245	C	1.143565	0.441739	0.793697
C246	C	1.476898	0.775073	1.127030
C247	C	0.810244	0.108408	0.539162
C248	C	1.143577	0.441742	0.872495
C249	C	1.476910	0.775075	1.205829
C250	C	0.819823	0.064369	0.578578
C251	C	1.153157	0.397702	0.911911
C252	C	1.486490	0.731036	1.245245
C253	C	0.829406	0.020325	0.539186
C254	C	1.162739	0.353659	0.872519
C255	C	1.496073	0.686992	1.205852
C256	C	0.829399	0.020323	0.460385
C257	C	1.162732	0.353657	0.793719
C258	C	1.496065	0.686990	1.127052
C259	C	0.819807	0.064369	0.420977
C260	C	1.153141	0.397702	0.754311
C261	C	1.486474	0.731036	1.087644
C262	C	0.867420	0.031416	0.703405
C263	C	1.200753	0.364749	1.036739
C264	C	1.534086	0.698083	1.370072
C265	C	0.867419	0.031413	0.782209
C266	C	1.200752	0.364746	1.115542
C267	C	1.534086	0.698080	1.448875
C268	C	0.772245	0.097322	0.782234
C269	C	1.105579	0.430655	1.115567
C270	C	1.438912	0.763989	1.448900
C271	C	0.772243	0.097321	0.703432
C272	C	1.105576	0.430654	1.036765
C273	C	1.438910	0.763987	1.370099
C274	C	0.819834	0.064368	0.664023
C275	C	1.153167	0.397701	0.997356
C276	C	1.486500	0.731035	1.330689
H277	H	0.493409	-0.013949	-0.000193
H278	H	0.826742	0.319384	0.333140
H279	H	1.160075	0.652718	0.666474
Cl280	Cl	0.611574	-0.548947	-0.000211
Cl281	Cl	0.944907	-0.215613	0.333123
Cl282	Cl	1.278241	0.117720	0.666456
Cl283	Cl	1.026405	-0.436092	-0.000285
Cl284	Cl	1.359738	-0.102759	0.333048
Cl285	Cl	1.693072	0.230575	0.666382
Cl286	Cl	0.798252	0.163777	0.410820
Cl287	Cl	1.131585	0.497110	0.744153
Cl288	Cl	1.464919	0.830443	1.077487
H289	H	0.802445	0.144271	0.571229
H290	H	1.135779	0.477605	0.904563
H291	H	1.469112	0.810938	1.237896
H292	H	0.177973	-0.017171	-0.000244
H293	H	0.511306	0.316163	0.333089
H294	H	0.844640	0.649496	0.666423
H295	H	0.906138	0.004578	0.328185
H296	H	1.239471	0.337911	0.661518
H297	H	1.572804	0.671244	0.994851
Cl298	Cl	0.034389	-0.038187	-0.000263
Cl299	Cl	0.367722	0.295146	0.333071
Cl300	Cl	0.701056	0.628480	0.666404
Cl301	Cl	0.959132	-0.699585	-0.000275
Cl302	Cl	1.292465	-0.366252	0.333059
Cl303	Cl	1.625798	-0.032918	0.666392
H304	H	0.939890	-0.093056	-0.000224
H305	H	1.273224	0.240277	0.333109
H306	H	1.606557	0.573610	0.666442
H307	H	0.837199	-0.015539	0.428315
H308	H	1.170533	0.317795	0.761649
H309	H	1.503866	0.651128	1.094982
H310	H	0.938562	-0.184513	-0.000249
H311	H	1.271895	0.148821	0.333084
H312	H	1.605228	0.482154	0.666418
H313	H	0.929571	-0.799607	-0.000281
H314	H	1.262904	-0.466274	0.333053
H315	H	1.596238	-0.132941	0.666386
H316	H	0.733503	0.124152	0.814327
H317	H	1.066837	0.457485	1.147660
H318	H	1.400170	0.790819	1.480993
H319	H	0.266316	0.002469	-0.079822
H320	H	0.599649	0.335802	0.253511
H321	H	0.932982	0.669136	0.586845
Cl322	Cl	0.644756	-0.031959	-0.000140
Cl323	Cl	0.978089	0.301374	0.333193
Cl324	Cl	1.311423	0.634708	0.666527
Cl325	Cl	0.222872	0.139703	0.098748
Cl326	Cl	0.556205	0.473037	0.432082
Cl327	Cl	0.889538	0.806370	0.765415
Cl328	Cl	1.028066	-0.322317	-0.000292
Cl329	Cl	1.361400	0.011017	0.333041
Cl330	Cl	1.694733	0.344350	0.666375
H331	H	0.733467	0.124145	0.328238
H332	H	1.066800	0.457478	0.661572
H333	H	1.400133	0.790812	0.994905
Cl334	Cl	0.416756	-0.010973	-0.099217
Cl335	Cl	0.750089	0.322360	0.234116
Cl336	Cl	1.083422	0.655693	0.567449
H337	H	0.906129	0.004578	0.185228
H338	H	1.239462	0.337912	0.518561
H339	H	1.572796	0.671245	0.851894
Cl340	Cl	-0.005128	0.160686	-0.000301
Cl341	Cl	0.328206	0.494019	0.333032
Cl342	Cl	0.661539	0.827353	0.666366
Cl343	Cl	0.605234	0.166916	-0.000199
Cl344	Cl	0.938567	0.500249	0.333134
Cl345	Cl	1.271901	0.833582	0.666468
Cl346	Cl	0.441729	0.165245	-0.000223
Cl347	Cl	0.775062	0.498578	0.333110
Cl348	Cl	1.108396	0.831912	0.666443
H349	H	0.906169	0.004582	0.671317
H350	H	1.239502	0.337916	1.004650
H351	H	1.572836	0.671249	1.337984
Cl352	Cl	0.841455	-0.035042	0.588728
Cl353	Cl	1.174789	0.298291	0.922061
Cl354	Cl	1.508122	0.631624	1.255395
Cl355	Cl	0.671520	-0.786765	-0.000210
Cl356	Cl	1.004853	-0.453431	0.333123
Cl357	Cl	1.338186	-0.120098	0.666457
Cl358	Cl	0.158377	0.162356	-0.000280
Cl359	Cl	0.491711	0.495689	0.333054
Cl360	Cl	0.825044	0.829023	0.666387
H361	H	0.701070	-0.686757	-0.000228
H362	H	1.034403	-0.353424	0.333106
H363	H	1.367737	-0.020090	0.666439
H364	H	0.733446	0.124143	0.185276
H365	H	1.066779	0.457476	0.518609
H366	H	1.400113	0.790809	0.851942
H367	H	0.733494	0.124152	0.671365
H368	H	1.066827	0.457485	1.004699
H369	H	1.400161	0.790819	1.338032
Cl370	Cl	0.386380	0.141372	0.098775
Cl371	Cl	0.719713	0.474706	0.432108
Cl372	Cl	1.053046	0.808039	0.765441
H373	H	0.641128	-0.448942	-0.000208
H374	H	0.974462	-0.115609	0.333125
H375	H	1.307795	0.217725	0.666458
H376	H	0.641991	-0.389141	-0.000219
H377	H	0.975324	-0.055808	0.333114
H378	H	1.308658	0.277526	0.666447
Cl379	Cl	0.680500	-0.171693	-0.000171
Cl380	Cl	1.013833	0.161641	0.333162
Cl381	Cl	1.347167	0.494974	0.666495
Cl382	Cl	0.615441	-0.283911	-0.000211
Cl383	Cl	0.948774	0.049422	0.333122
Cl384	Cl	1.282108	0.382755	0.666456
H385	H	0.710057	-0.071667	-0.000175
H386	H	1.043391	0.261667	0.333158
H387	H	1.376724	0.595000	0.666492
H388	H	0.996296	-0.573576	-0.000295
H389	H	1.329629	-0.240242	0.333038
H390	H	1.662962	0.093091	0.666371
Cl391	Cl	1.025858	-0.473559	-0.000297
Cl392	Cl	1.359191	-0.140226	0.333037
Cl393	Cl	1.692525	0.193108	0.666370
H394	H	0.906170	0.004580	0.814274
H395	H	1.239503	0.337913	1.147607
H396	H	1.572836	0.671247	1.480940
