data_functionalizedCrystal
_audit_creation_method	'MofGen! by Chris Wilmer'
_symmetry_space_group_name_H-M	'P1'
_symmetry_Int_Tables_number	1
_symmetry_cell_setting	triclinic
loop_
_symmetry_equiv_pos_as_xyz
  x,y,z
_cell_length_a	10.654550
_cell_length_b	11.792241
_cell_length_c	9.130313
_cell_angle_alpha	89.998583
_cell_angle_beta	89.996220
_cell_angle_gamma	84.339159
loop_
_atom_site_label
_atom_site_type_symbol
_atom_site_fract_x
_atom_site_fract_y
_atom_site_fract_z
O1	O	1.667383	0.159415	-0.121920
O2	O	1.301862	0.174603	-0.121897
O3	O	1.493493	0.001859	-0.121899
O4	O	1.475752	0.332159	-0.121918
O5	O	1.493490	0.001864	0.121700
O6	O	1.301859	0.174608	0.121702
O7	O	1.667381	0.159419	0.121678
Cu8	Cu	1.484620	0.167014	0.143933
Cu9	Cu	1.484623	0.167008	-0.144151
O10	O	1.475750	0.332164	0.121680
C11	C	1.255066	0.173490	-0.000095
C12	C	1.115632	0.170154	-0.000085
C13	C	1.492377	-0.040432	-0.000100
C14	C	1.489042	-0.166454	-0.000101
C15	C	1.035858	0.271863	-0.000113
C16	C	0.904847	0.268721	-0.000138
C17	C	0.933394	0.062152	-0.000114
C18	C	1.064404	0.065295	-0.000079
C19	C	1.019376	0.391124	-0.000133
C20	C	0.888364	0.387982	-0.000158
C21	C	1.482908	-0.397180	-0.000125
C22	C	1.486316	-0.268787	-0.000112
C23	C	1.714177	0.160532	-0.000127
C24	C	1.853611	0.163869	-0.000146
C25	C	1.476865	0.374455	-0.000122
C26	C	1.480201	0.500476	-0.000130
N27	N	1.484627	0.167017	0.346555
N28	N	1.484625	0.166996	-0.346774
C29	C	1.569503	0.090552	0.423206
C30	C	1.569500	0.090539	0.576543
C31	C	1.399740	0.243465	0.576564
C32	C	1.399739	0.243472	0.423230
C33	C	1.667516	0.002265	0.423195
C34	C	1.667513	0.002251	0.576532
H35	H	0.891668	-0.023221	-0.000132
C36	C	1.806367	0.150201	0.406412
C37	C	1.790508	0.039593	0.359002
H38	H	1.882302	0.173248	0.366796
H39	H	1.737048	0.200920	0.374275
H40	H	1.810528	0.151440	0.510321
H41	H	1.786338	0.038355	0.255092
H42	H	1.859845	-0.011139	0.391131
H43	H	0.846505	0.432916	-0.102114
C44	C	1.129105	-0.109818	-0.125256
C45	C	1.152092	-0.046507	-0.000035
H46	H	1.183247	-0.178839	-0.125228
H47	H	1.043758	-0.126690	-0.125266
H48	H	1.144743	-0.066865	-0.210197
H49	H	1.136445	-0.089457	0.084908
H50	H	1.237459	-0.029637	-0.000011
H51	H	1.048574	0.437769	0.101816
H52	H	0.842589	0.424026	0.105008
H53	H	1.763969	0.021698	0.618141
C54	C	0.965281	0.472857	-0.235379
C55	C	1.067378	0.442393	-0.142103
H56	H	0.994919	0.504511	-0.323022
H57	H	0.924177	0.407169	-0.258199
H58	H	0.907515	0.527568	-0.188179
H59	H	1.125139	0.387675	-0.189299
H60	H	1.108501	0.508089	-0.119285
H61	H	1.637233	-0.080191	0.624086
H62	H	1.330625	0.305712	0.639010
C63	C	1.621523	-0.186932	0.486290
C64	C	1.638891	-0.115499	0.367004
H65	H	1.603843	-0.259628	0.451596
H66	H	1.695999	-0.194948	0.544072
H67	H	1.552933	-0.154670	0.544087
H68	H	1.707489	-0.147757	0.309212
H69	H	1.564407	-0.107486	0.309198
H70	H	1.330615	0.305726	0.360822
