data_functionalizedCrystal
_audit_creation_method	'MofGen! by Chris Wilmer'
_symmetry_space_group_name_H-M	'P1'
_symmetry_Int_Tables_number	1
_symmetry_cell_setting	triclinic
loop_
_symmetry_equiv_pos_as_xyz
  x,y,z
_cell_length_a	23.532407
_cell_length_b	11.792241
_cell_length_c	10.268362
_cell_angle_alpha	89.994572
_cell_angle_beta	90.000752
_cell_angle_gamma	83.521047
loop_
_atom_site_label
_atom_site_type_symbol
_atom_site_fract_x
_atom_site_fract_y
_atom_site_fract_z
O1	O	0.756076	0.137772	-0.108138
O2	O	1.256076	0.637772	0.391862
O3	O	0.590331	0.157706	-0.108177
O4	O	1.090331	0.657706	0.391823
O5	O	0.677226	-0.017526	-0.108147
O6	O	1.177226	0.482474	0.391853
O7	O	0.669181	0.313004	-0.108168
O8	O	1.169181	0.813004	0.391832
O9	O	0.677218	-0.017533	0.108453
O10	O	1.177218	0.482467	0.608453
O11	O	0.590323	0.157699	0.108424
O12	O	1.090323	0.657699	0.608424
O13	O	0.756068	0.137765	0.108462
O14	O	1.256068	0.637765	0.608462
Cu15	Cu	0.673195	0.147731	0.128221
Cu16	Cu	1.173195	0.647731	0.628221
Cu17	Cu	0.673204	0.147740	-0.127935
Cu18	Cu	1.173204	0.647740	0.372065
O19	O	0.669174	0.312997	0.108433
O20	O	1.169174	0.812997	0.608433
C21	C	0.676716	-0.059809	0.000152
C22	C	1.176716	0.440191	0.500152
C23	C	0.675204	-0.185787	0.000151
C24	C	1.175204	0.314213	0.500151
C25	C	0.569108	0.157195	0.000119
C26	C	1.069108	0.657195	0.500119
C27	C	0.505882	0.155669	0.000104
C28	C	1.005882	0.655669	0.500104
C29	C	0.672423	-0.416434	0.000128
C30	C	1.172423	0.083566	0.500128
C31	C	0.673968	-0.288085	0.000141
C32	C	1.173968	0.211915	0.500141
C33	C	0.107337	0.249795	0.000158
C34	C	0.607337	0.749795	0.500158
C35	C	0.047928	0.248377	0.000166
C36	C	0.547928	0.748377	0.500166
O37	O	0.011701	0.335633	0.000208
O38	O	0.511701	0.835633	0.500208
N39	N	0.024684	0.144202	0.000170
N40	N	0.524684	0.644202	0.500170
C41	C	0.060853	0.041437	0.000179
C42	C	0.560853	0.541437	0.500179
O43	O	0.035627	-0.047303	0.000185
O44	O	0.535627	0.452697	0.500185
C45	C	0.120260	0.042856	0.000181
C46	C	0.620260	0.542856	0.500181
C47	C	0.143501	0.147038	0.000163
C48	C	0.643501	0.647038	0.500163
C49	C	0.130577	0.353969	0.000142
C50	C	0.630577	0.853969	0.500142
C51	C	0.189982	0.355386	0.000131
C52	C	0.689982	0.855386	0.500131
C53	C	0.226146	0.252630	0.000137
C54	C	0.726146	0.752630	0.500137
C55	C	0.202905	0.148456	0.000153
C56	C	0.702905	0.648456	0.500153
C57	C	0.156428	-0.059907	0.000199
C58	C	0.656428	0.440093	0.500199
C59	C	0.215839	-0.058479	0.000202
C60	C	0.715839	0.441521	0.500202
C61	C	0.239079	0.045703	0.000184
C62	C	0.739079	0.545703	0.500184
C63	C	0.298474	0.047116	0.000148
C64	C	0.798474	0.547116	0.500148
N65	N	0.321717	0.151292	0.000144
N66	N	0.821717	0.651292	0.500144
C67	C	0.285553	0.254049	0.000138
C68	C	0.785553	0.754049	0.500138
C69	C	-0.063907	0.038465	0.000179
C70	C	0.436093	0.538465	0.500179
C71	C	-0.123313	0.037045	0.000168
C72	C	0.376687	0.537045	0.500168
C73	C	-0.136234	0.243985	0.000157
C74	C	0.363766	0.743985	0.500157
C75	C	-0.076827	0.245404	0.000159
C76	C	0.423173	0.745404	0.500159
C77	C	-0.040664	0.142641	0.000175
C78	C	0.459336	0.642641	0.500175
C79	C	0.410308	0.257017	0.000115
C80	C	0.910308	0.757017	0.500115
C81	C	0.469718	0.258425	0.000099
C82	C	0.969718	0.758425	0.500099
C83	C	0.482634	0.051485	0.000117
C84	C	0.982634	0.551485	0.500117
C85	C	0.423229	0.050077	0.000126
C86	C	0.923229	0.550077	0.500126
C87	C	0.387066	0.152852	0.000129
C88	C	0.887066	0.652852	0.500129
O89	O	0.334736	-0.040094	0.000111
O90	O	0.834736	0.459906	0.500111
O91	O	0.310787	0.342774	0.000150
O92	O	0.810787	0.842774	0.500150
C93	C	0.777291	0.138276	0.000164
C94	C	1.277291	0.638276	0.500164
C95	C	0.840517	0.139802	0.000170
C96	C	1.340517	0.639802	0.500170
C97	C	0.669683	0.355280	0.000130
C98	C	1.169683	0.855280	0.500130
C99	C	0.671195	0.481258	0.000124
C100	C	1.171195	0.981258	0.500124
N101	N	0.673193	0.147725	0.308386
N102	N	1.173193	0.647725	0.808386
N103	N	0.673211	0.147737	-0.308101
N104	N	1.173211	0.647737	0.191899
C105	C	0.673201	0.147737	0.574057
C106	C	1.173201	0.647737	1.074057
C107	C	0.673195	0.147734	0.426219
C108	C	1.173195	0.647734	0.926219
H109	H	0.488636	0.343267	0.000084
H110	H	0.988636	0.843267	0.500084
Br111	Br	0.361239	0.396499	0.000122
Br112	Br	0.861239	0.896499	0.500122
H113	H	-0.034466	-0.045223	0.000181
H114	H	0.465534	0.454777	0.500181
Br115	Br	-0.045293	0.386799	0.000136
Br116	Br	0.454707	0.886799	0.500136
Br117	Br	-0.154846	-0.104351	0.000153
Br118	Br	0.345154	0.395649	0.500153
Br119	Br	0.124903	-0.201306	0.000194
Br120	Br	0.624903	0.298694	0.500194
Br121	Br	0.264915	-0.197953	0.000230
Br122	Br	0.764915	0.302047	0.500230
H123	H	0.404306	-0.034757	0.000121
H124	H	0.904306	0.465243	0.500121
H125	H	0.512089	-0.032176	0.000117
H126	H	1.012089	0.467824	0.500117
H127	H	0.101138	0.437650	0.000142
H128	H	0.601138	0.937650	0.500142
Br129	Br	0.221512	0.496784	0.000114
Br130	Br	0.721512	0.996784	0.500114
H131	H	-0.165690	0.327655	0.000159
H132	H	0.334310	0.827655	0.500159
