data_functionalizedCrystal
_audit_creation_method	'MofGen! by Chris Wilmer'
_symmetry_space_group_name_H-M	'P1'
_symmetry_Int_Tables_number	1
_symmetry_cell_setting	triclinic
loop_
_symmetry_equiv_pos_as_xyz
  x,y,z
_cell_length_a	19.288864
_cell_length_b	10.540539
_cell_length_c	18.366186
_cell_angle_alpha	89.995944
_cell_angle_beta	89.977106
_cell_angle_gamma	83.830869
loop_
_atom_site_label
_atom_site_type_symbol
_atom_site_fract_x
_atom_site_fract_y
_atom_site_fract_z
O1	O	0.922409	0.158345	-0.060780
O2	O	0.720291	0.179705	-0.060730
O3	O	0.825961	-0.015784	-0.060755
O4	O	0.816739	0.353834	-0.060755
O5	O	0.825943	-0.015794	0.060344
O6	O	0.720273	0.179696	0.060370
O7	O	0.922391	0.158335	0.060319
Zn8	Zn	0.821329	0.169014	0.079572
Zn9	Zn	0.821353	0.169027	-0.079982
O10	O	0.816721	0.353825	0.060345
C11	C	0.694401	0.179013	-0.000174
C12	C	0.617284	0.176950	-0.000155
C13	C	0.573353	0.291654	-0.000166
C14	C	0.500893	0.289716	-0.000174
C15	C	0.472367	0.173067	-0.000185
C16	C	0.516308	0.058347	-0.000170
C17	C	0.588766	0.060289	-0.000155
C18	C	0.363499	0.081371	-0.042637
C19	C	0.291042	0.079434	-0.042656
C20	C	0.248881	0.167074	-0.000230
C21	C	0.279186	0.256671	0.042208
C22	C	0.351644	0.258613	0.042223
C23	C	0.393799	0.170949	-0.000202
C24	C	0.126381	0.279684	-0.000249
C25	C	0.053919	0.277741	-0.000252
C26	C	0.069336	0.046369	-0.000255
C27	C	0.141795	0.048315	-0.000244
C28	C	0.170313	0.164976	-0.000245
C29	C	0.825261	-0.063076	-0.000207
C30	C	0.823192	-0.203978	-0.000210
C31	C	0.743903	-0.385638	-0.000462
C32	C	0.746000	-0.239067	-0.000190
C33	C	0.860329	-0.266469	0.068934
C34	C	0.857695	-0.412955	0.068993
C35	C	0.859285	-0.413498	-0.068720
C36	C	0.859996	-0.266531	-0.069634
C37	C	0.948281	0.159027	-0.000238
C38	C	1.025399	0.161091	-0.000262
C39	C	0.817422	0.401117	-0.000206
C40	C	0.819491	0.542019	-0.000207
N41	N	0.821318	0.169005	0.188463
N42	N	0.821370	0.169026	-0.188873
C43	C	0.868124	0.082484	0.226552
C44	C	0.868129	0.082479	0.302780
C45	C	0.821333	0.169015	0.340915
C46	C	0.774518	0.255542	0.302817
C47	C	0.774510	0.255537	0.226591
C48	C	0.812807	0.284670	0.461677
C49	C	0.812820	0.284677	0.537902
C50	C	0.821353	0.169031	0.576023
C51	C	0.829889	0.053374	0.537909
C52	C	0.829881	0.053368	0.461683
C53	C	0.821336	0.169030	0.423570
C54	C	0.868167	0.082497	0.696767
C55	C	0.868167	0.082490	0.772996
C56	C	0.774559	0.255565	0.773032
C57	C	0.774556	0.255561	0.696804
C58	C	0.821364	0.169029	0.658676
H59	H	0.376315	0.331563	0.076779
C60	C	0.157757	0.408000	-0.000240
H61	H	0.207203	0.392729	-0.000239
H62	H	0.142694	0.455209	0.041989
H63	H	0.142737	0.455215	-0.042476
C64	C	0.005595	0.403923	-0.000265
H65	H	0.032960	0.473674	-0.000269
H66	H	-0.023015	0.407981	0.041960
H67	H	-0.022968	0.407968	-0.042505
C68	C	0.232818	0.353087	0.088875
H69	H	0.185325	0.339095	0.082795
H70	H	0.239107	0.437383	0.073957
H71	H	0.245409	0.342246	0.138667
H72	H	0.830233	-0.440547	0.120694
H73	H	0.906245	0.012021	0.333798
C74	C	0.723085	0.350753	0.814972
H75	H	0.729795	0.338370	0.865826
H76	H	0.676663	0.337185	0.802504
H77	H	0.731049	0.435437	0.802470
H78	H	0.906280	0.012028	0.804009
H79	H	0.624535	-0.033120	-0.000146
H80	H	0.046111	-0.048609	-0.000310
H81	H	0.736445	0.326019	0.665790
H82	H	0.177565	-0.045090	-0.000239
H83	H	0.465117	0.383125	-0.000181
C84	C	0.803436	0.411892	0.579820
H85	H	0.798340	0.480765	0.546201
H86	H	0.843159	0.418758	0.609532
H87	H	0.763006	0.414646	0.609579
C88	C	0.932684	-0.479441	0.073232
H89	H	0.931583	-0.569334	0.073295
H90	H	0.954197	-0.454402	0.116678
H91	H	0.958531	-0.455613	0.032332
C92	C	0.257714	-0.019121	-0.089331
H93	H	0.293200	-0.071055	-0.114586
H94	H	0.226543	0.023995	-0.123456
H95	H	0.232846	-0.071129	-0.058741
C96	C	0.706237	-0.181770	0.066904
H97	H	0.688743	-0.248087	0.094104
H98	H	0.668523	-0.122472	0.051497
H99	H	0.736924	-0.139420	0.096516
H100	H	0.397822	0.010002	-0.077190
C101	C	0.484932	-0.069963	-0.000187
H102	H	0.435486	-0.054692	-0.000206
H103	H	0.499947	-0.117184	0.042045
H104	H	0.500000	-0.117168	-0.042421
H105	H	0.716778	-0.195808	-0.049755
C106	C	0.702712	-0.423361	-0.067437
H107	H	0.731240	-0.483574	-0.095844
H108	H	0.689114	-0.349641	-0.095913
H109	H	0.662371	-0.460176	-0.051871
C110	C	0.702859	-0.425534	0.066159
H111	H	0.657249	-0.381397	0.065583
H112	H	0.726136	-0.404970	0.109464
H113	H	0.699860	-0.514862	0.064521
C114	C	0.803424	0.411888	0.419752
H115	H	0.798354	0.480767	0.453366
H116	H	0.762994	0.414653	0.390034
H117	H	0.843149	0.418735	0.389998
H118	H	0.917016	-0.245379	0.071492
C119	C	0.825461	-0.208167	0.138468
H120	H	0.848306	-0.246600	0.180021
H121	H	0.777754	-0.223011	0.139100
H122	H	0.828824	-0.118917	0.139183
C123	C	0.723026	0.350722	0.184691
H124	H	0.695158	0.402266	0.218318
H125	H	0.693888	0.305197	0.154969
H126	H	0.748275	0.403449	0.154943
C127	C	0.825545	-0.455353	-0.139519
H128	H	0.786869	-0.500352	-0.127954
H129	H	0.858794	-0.509321	-0.166530
H130	H	0.810140	-0.382193	-0.167744
H131	H	0.736415	0.326000	0.333871
C132	C	0.823344	-0.210406	-0.138739
H133	H	0.785770	-0.149101	-0.125346
H134	H	0.805958	-0.276857	-0.165888
H135	H	0.855692	-0.170602	-0.167610
C136	C	0.839259	-0.073841	0.419758
H137	H	0.844438	-0.142717	0.453372
H138	H	0.879627	-0.076524	0.389918
H139	H	0.799485	-0.080770	0.390127
H140	H	0.916275	-0.243564	-0.073824
C141	C	0.919603	-0.012710	0.184615
H142	H	0.947476	-0.064248	0.218222
H143	H	0.948737	0.032809	0.154857
H144	H	0.894350	-0.065443	0.154901
C145	C	0.604722	0.419973	-0.000162
H146	H	0.654169	0.404705	-0.000158
H147	H	0.589656	0.467190	0.042063
H148	H	0.589704	0.467180	-0.042402
H149	H	0.915040	-0.461966	-0.069199
H150	H	0.906279	0.012034	0.665722
C151	C	0.839271	-0.073844	0.579831
H152	H	0.838044	-0.057282	0.630687
H153	H	0.882849	-0.119318	0.567323
H154	H	0.802695	-0.123406	0.567357
