data_functionalizedCrystal
_audit_creation_method	'MofGen! by Chris Wilmer'
_symmetry_space_group_name_H-M	'P1'
_symmetry_Int_Tables_number	1
_symmetry_cell_setting	triclinic
loop_
_symmetry_equiv_pos_as_xyz
  x,y,z
_cell_length_a	14.519709
_cell_length_b	17.038272
_cell_length_c	13.596369
_cell_angle_alpha	89.993837
_cell_angle_beta	90.000291
_cell_angle_gamma	87.395851
loop_
_atom_site_label
_atom_site_type_symbol
_atom_site_fract_x
_atom_site_fract_y
_atom_site_fract_z
O1	O	1.231711	0.102502	-0.081664
O2	O	0.964158	0.114573	-0.081694
O3	O	1.096344	-0.005280	-0.081671
O4	O	1.099525	0.222356	-0.081686
O5	O	1.096330	-0.005286	0.081912
O6	O	0.964143	0.114567	0.081889
O7	O	1.231696	0.102496	0.081919
Zn8	Zn	1.097918	0.108530	0.107877
Zn9	Zn	1.097937	0.108539	-0.107651
O10	O	1.099510	0.222349	0.081897
C11	C	0.929748	0.114008	0.000094
C12	C	0.827237	0.112322	0.000083
C13	C	0.451867	0.106116	0.000128
C14	C	0.556307	0.107839	0.000115
C15	C	0.639549	0.109219	0.000104
C16	C	0.743995	0.110942	0.000093
C17	C	1.093444	-0.034416	0.000120
C18	C	1.084814	-0.121223	0.000119
C19	C	1.164047	-0.171209	0.000129
C20	C	1.155933	-0.252773	0.000118
C21	C	1.068585	-0.284349	0.000105
C22	C	0.989347	-0.234357	0.000092
C23	C	0.997462	-0.152795	0.000096
C24	C	1.039916	-0.530153	0.000089
C25	C	1.031807	-0.611722	0.000088
C26	C	1.198394	-0.630132	0.000112
C27	C	1.206502	-0.548568	0.000122
C28	C	1.127263	-0.498583	0.000104
C29	C	1.060289	-0.367720	0.000098
C30	C	1.135560	-0.415213	0.000104
C31	C	1.266107	0.103062	0.000129
C32	C	1.368617	0.104748	0.000134
C33	C	1.102410	0.251486	0.000103
C34	C	1.111040	0.338292	0.000098
N35	N	1.097911	0.108524	0.254968
N36	N	1.097950	0.108539	-0.254743
C37	C	1.097936	0.108540	0.656259
C38	C	1.097926	0.108538	0.544608
C39	C	1.097924	0.108533	0.455617
C40	C	1.097913	0.108530	0.343959
H41	H	1.235175	-0.145506	0.000145
C42	C	1.284498	-0.684310	-0.000033
C43	C	1.336738	-0.669999	-0.084176
C44	C	1.416072	-0.719886	-0.084342
H45	H	1.267287	-0.737434	-0.000089
H46	H	1.320099	-0.674721	0.056986
H47	H	1.301143	-0.679594	-0.141180
H48	H	1.353972	-0.616885	-0.084138
H49	H	1.451673	-0.710297	-0.027323
H50	H	1.398852	-0.773007	-0.084395
H51	H	1.451530	-0.710178	-0.141426
H52	H	0.989170	-0.393438	0.000089
H53	H	1.206678	-0.389500	0.000093
H54	H	0.918226	-0.260072	0.000075
H55	H	1.220453	-0.293468	0.000129
H56	H	0.932942	-0.112096	0.000087
H57	H	0.975394	-0.489465	0.000074
C58	C	1.301256	-0.514136	0.000175
C59	C	1.291404	-0.432008	0.000199
C60	C	1.378672	-0.400263	0.000263
H61	H	1.334230	-0.531194	-0.056853
H62	H	1.334160	-0.531246	0.057245
H63	H	1.258515	-0.414905	-0.056865
H64	H	1.258446	-0.414929	0.057223
H65	H	1.411575	-0.417373	0.057333
H66	H	1.411639	-0.417327	-0.056765
H67	H	1.371999	-0.344537	0.000289
C68	C	0.936884	-0.645855	0.000012
C69	C	0.869226	-0.584624	-0.000034
C70	C	0.781779	-0.616038	-0.000119
H71	H	0.930114	-0.677283	0.057039
H72	H	0.930226	-0.677263	-0.057058
H73	H	0.875882	-0.553229	0.057030
H74	H	0.875966	-0.553190	-0.057057
H75	H	0.775120	-0.647446	-0.057189
H76	H	0.775018	-0.647466	0.056910
H77	H	0.735863	-0.574498	-0.000159
