data_functionalizedCrystal
_audit_creation_method	'MofGen! by Chris Wilmer'
_symmetry_space_group_name_H-M	'P1'
_symmetry_Int_Tables_number	1
_symmetry_cell_setting	triclinic
loop_
_symmetry_equiv_pos_as_xyz
  x,y,z
_cell_length_a	14.519731
_cell_length_b	12.784890
_cell_length_c	11.892095
_cell_angle_alpha	93.477919
_cell_angle_beta	86.093342
_cell_angle_gamma	78.397706
loop_
_atom_site_label
_atom_site_type_symbol
_atom_site_fract_x
_atom_site_fract_y
_atom_site_fract_z
O1	O	1.218916	0.132634	-0.094004
O2	O	0.949104	0.149016	-0.094006
O3	O	1.103755	-0.013863	-0.093999
O4	O	1.064265	0.295513	-0.094011
O5	O	1.090862	-0.000304	0.094008
O6	O	0.936212	0.162575	0.094001
O7	O	1.206023	0.146194	0.094003
Zn8	Zn	1.069070	0.156537	0.123852
Zn9	Zn	1.086057	0.138672	-0.123855
O10	O	1.051373	0.309073	0.093996
C11	C	0.908361	0.155028	-0.000003
C12	C	0.806169	0.152728	-0.000003
C13	C	1.099877	-0.046678	0.000003
C14	C	1.107519	-0.164657	0.000001
C15	C	1.203296	-0.343443	-0.000001
C16	C	1.196121	-0.232592	0.000002
C17	C	1.026086	-0.207579	0.000001
C18	C	1.033260	-0.318430	-0.000001
C19	C	1.121868	-0.386359	-0.000004
C20	C	1.129042	-0.497212	-0.000014
C21	C	0.959007	-0.472197	-0.000007
C22	C	0.951833	-0.361346	-0.000005
C23	C	0.723178	0.150858	-0.000008
C24	C	0.619059	0.148523	-0.000008
C25	C	0.536072	0.146670	-0.000008
C26	C	0.431947	0.144334	-0.000010
C27	C	1.246766	0.140181	-0.000003
C28	C	1.348959	0.142481	-0.000010
C29	C	1.055251	0.341887	-0.000009
C30	C	1.047609	0.459866	-0.000014
N31	N	1.057484	0.168729	0.292906
N32	N	1.097651	0.126472	-0.292909
C33	C	1.178279	0.041573	0.529559
C34	C	1.170186	0.050103	0.647900
C35	C	1.033203	0.194313	0.647932
C36	C	1.041295	0.185783	0.529591
C37	C	1.113837	0.109412	0.470408
C38	C	1.121933	0.100888	0.352064
C39	C	0.984946	0.245092	0.352099
C40	C	0.976853	0.253622	0.470440
H41	H	1.201192	-0.552519	-0.000022
H42	H	1.181001	0.038705	0.303879
Br43	Br	1.276736	-0.062056	0.449236
H44	H	1.222660	-0.005139	0.696057
Br45	Br	0.934748	0.297940	0.728262
Br46	Br	0.878405	0.357260	0.550766
H47	H	0.932475	0.300334	0.303925
Br48	Br	1.323546	-0.435638	-0.000028
Br49	Br	1.306633	-0.174352	0.000013
H50	H	0.953945	-0.152253	0.000010
H51	H	0.892703	-0.507150	-0.000013
Br52	Br	0.831585	-0.269149	0.000003
