data_functionalizedCrystal
_audit_creation_method	'MofGen! by Chris Wilmer'
_symmetry_space_group_name_H-M	'P1'
_symmetry_Int_Tables_number	1
_symmetry_cell_setting	triclinic
loop_
_symmetry_equiv_pos_as_xyz
  x,y,z
_cell_length_a	10.540514
_cell_length_b	10.540539
_cell_length_c	9.130313
_cell_angle_alpha	89.997616
_cell_angle_beta	89.995964
_cell_angle_gamma	84.520326
loop_
_atom_site_label
_atom_site_type_symbol
_atom_site_fract_x
_atom_site_fract_y
_atom_site_fract_z
O1	O	1.685904	0.178748	-0.121810
O2	O	1.316487	0.195637	-0.121808
O3	O	1.509624	0.002485	-0.121808
O4	O	1.492768	0.371899	-0.121811
O5	O	1.509610	0.002479	0.121791
O6	O	1.316474	0.195631	0.121790
O7	O	1.685891	0.178742	0.121789
Cu8	Cu	1.501181	0.187186	0.144032
Cu9	Cu	1.501197	0.187193	-0.144052
O10	O	1.492754	0.371894	0.121788
C11	C	1.269177	0.194374	-0.000009
C12	C	1.128227	0.190605	-0.000008
C13	C	1.057522	0.328745	-0.000013
C14	C	0.910908	0.324871	-0.000573
C15	C	0.935897	0.115481	-0.138852
C16	C	1.082437	0.120335	-0.138961
C17	C	1.082824	0.118284	0.138066
C18	C	0.935845	0.116951	0.139883
C19	C	1.508353	-0.044821	-0.000011
C20	C	1.504571	-0.185769	-0.000019
C21	C	1.359652	-0.369182	-0.000565
C22	C	1.363486	-0.222564	-0.000016
C23	C	1.572460	-0.247436	0.139088
C24	C	1.567645	-0.393980	0.139205
C25	C	1.570529	-0.394492	-0.137812
C26	C	1.571829	-0.247510	-0.139651
C27	C	1.733201	0.180004	-0.000014
C28	C	1.874151	0.183774	-0.000024
C29	C	1.494025	0.419199	-0.000012
C30	C	1.497807	0.560147	-0.000014
N31	N	1.501179	0.187181	0.346655
N32	N	1.501209	0.187188	-0.346674
C33	C	1.586729	0.101689	0.423307
C34	C	1.586741	0.101689	0.576644
C35	C	1.415649	0.272684	0.576663
C36	C	1.415632	0.272676	0.423329
H37	H	0.869182	0.378361	-0.100677
H38	H	0.894844	0.166860	0.242590
H39	H	1.087755	0.383965	-0.099422
O40	O	1.323345	0.364875	0.340634
H41	H	1.377320	0.427075	0.270735
O42	O	1.501166	-0.431349	0.276935
H43	H	1.402930	-0.382957	0.279366
H44	H	1.669111	-0.441958	0.145515
O45	O	1.678965	0.009462	0.340590
H46	H	1.778080	0.026562	0.369987
O47	O	1.509990	-0.191008	0.276219
H48	H	1.408117	-0.209631	0.277597
O49	O	0.854371	0.396026	0.131209
H50	H	0.931742	0.433525	0.195912
H51	H	1.086056	0.384781	0.099527
H52	H	1.110667	0.170219	-0.243135
O53	O	0.906348	-0.021793	-0.145174
H54	H	0.951057	-0.067859	-0.244223
H55	H	1.676068	-0.225091	0.144260
O56	O	1.146043	-0.014069	-0.146821
H57	H	1.072097	-0.082241	-0.150538
O58	O	1.510055	-0.436261	-0.277481
H59	H	1.427482	-0.489824	-0.250235
O60	O	1.705517	-0.457050	-0.139049
H61	H	1.756233	-0.424535	-0.236634
O62	O	0.879535	0.177534	-0.276242
H63	H	0.807564	0.257001	-0.245999
O64	O	1.679018	0.009478	0.659312
H65	H	1.664652	0.023832	0.778818
O66	O	1.506135	-0.193279	-0.275980
H67	H	1.425920	-0.122640	-0.244438
O68	O	1.124514	0.179190	0.277504
H69	H	1.178067	0.261697	0.249945
O70	O	1.708088	-0.215455	-0.150791
H71	H	1.730101	-0.154754	-0.056552
O72	O	1.323397	0.364910	0.659358
H73	H	1.337791	0.350565	0.778860
H74	H	1.309682	-0.180806	0.099867
H75	H	0.911660	0.014105	0.148680
O76	O	1.292704	-0.166102	-0.132079
H77	H	1.255417	-0.243515	-0.196911
H78	H	1.303926	-0.397775	-0.100320
O79	O	1.145434	-0.016678	0.139875
H80	H	1.208589	-0.032234	0.042967
O81	O	1.286114	-0.409163	0.130841
H82	H	1.347536	-0.479147	0.196545
