data_functionalizedCrystal
_audit_creation_method	'MofGen! by Chris Wilmer'
_symmetry_space_group_name_H-M	'P1'
_symmetry_Int_Tables_number	1
_symmetry_cell_setting	triclinic
loop_
_symmetry_equiv_pos_as_xyz
  x,y,z
_cell_length_a	10.540539
_cell_length_b	9.130307
_cell_length_c	10.654541
_cell_angle_alpha	89.996917
_cell_angle_beta	84.504710
_cell_angle_gamma	90.000534
loop_
_atom_site_label
_atom_site_type_symbol
_atom_site_fract_x
_atom_site_fract_y
_atom_site_fract_z
O1	O	1.685817	-0.121730	0.176990
O2	O	1.316398	-0.121748	0.193666
O3	O	1.509602	-0.121729	0.002592
O4	O	1.492612	-0.121748	0.368065
O5	O	1.509596	0.121870	0.002590
O6	O	1.316391	0.121851	0.193665
O7	O	1.685810	0.121869	0.176988
Cu8	Cu	1.501100	0.144103	0.185326
Cu9	Cu	1.501108	-0.143981	0.185329
O10	O	1.492606	0.121851	0.368063
C11	C	1.269092	0.000050	0.192415
C12	C	1.128145	0.000043	0.188673
C13	C	1.508352	0.000069	-0.044208
C14	C	1.504622	0.000067	-0.183652
N15	N	1.501104	0.346726	0.185324
C16	C	0.944771	0.000619	0.045302
C17	C	1.091388	0.000055	0.049095
C18	C	1.066452	-0.139062	0.255845
C19	C	0.919909	-0.139163	0.251082
C20	C	0.919412	0.137854	0.253919
C21	C	1.066394	0.139678	0.255205
C22	C	1.733116	0.000069	0.178240
C23	C	1.874063	0.000066	0.181982
N24	N	1.501114	-0.346604	0.185321
C25	C	1.672258	0.346732	0.016177
C26	C	1.757843	0.423402	-0.068393
C27	C	1.757855	0.576735	-0.068393
C28	C	1.672271	0.653402	0.016182
C29	C	1.586686	0.576732	0.100752
C30	C	1.586685	0.423395	0.100746
C31	C	1.415529	0.576726	0.269891
C32	C	1.415520	0.423393	0.269900
C33	C	1.329945	0.653393	0.354466
C34	C	1.244364	0.576723	0.439044
C35	C	1.244355	0.423381	0.439042
C36	C	1.329935	0.346723	0.354469
C37	C	1.735651	0.000096	-0.211542
C38	C	1.849407	0.000114	-0.290996
C39	C	1.845894	0.000109	-0.422016
C40	C	1.728612	0.000082	-0.473582
C41	C	1.614856	0.000065	-0.394128
C42	C	1.618381	0.000074	-0.263107
C43	C	1.383830	0.000024	-0.366239
C44	C	1.387340	0.000040	-0.235219
C45	C	1.266548	-0.000003	-0.417805
C46	C	1.152788	-0.000010	-0.338350
C47	C	1.156306	-0.000003	-0.207324
C48	C	1.273583	0.000022	-0.155765
C49	C	1.493856	0.000049	0.414862
C50	C	1.497586	0.000042	0.554307
H51	H	1.134019	0.099772	-0.003759
H52	H	1.063671	-0.000024	-0.142638
H53	H	0.916204	0.100379	-0.009840
H54	H	1.276459	0.000036	-0.049084
H55	H	1.263695	-0.000015	-0.524489
H56	H	1.090582	0.148071	0.356967
H57	H	0.914587	-0.098580	-0.009606
H58	H	1.725762	0.000061	-0.580266
H59	H	1.174681	0.639155	0.507894
H60	H	1.938525	0.000112	-0.486708
H61	H	1.133156	-0.099829	-0.004130
H62	H	0.891719	-0.243141	0.201437
H63	H	1.329940	0.221871	0.354465
H64	H	1.944896	0.000149	-0.248996
H65	H	1.107371	0.242587	0.206133
H66	H	0.871903	-0.145482	0.351465
H67	H	1.174657	0.360964	0.507905
H68	H	1.827522	0.360966	-0.137256
H69	H	1.738523	0.000120	-0.104861
H70	H	1.088767	-0.144243	0.358348
H71	H	1.057306	-0.000041	-0.380347
H72	H	1.109060	-0.242582	0.209185
H73	H	0.872148	0.138789	0.354736
H74	H	1.672267	0.221880	0.016180
H75	H	0.887880	0.243295	0.208747
H76	H	1.827542	0.639160	-0.137262
H77	H	1.672276	0.778254	0.016166
H78	H	1.329953	0.778245	0.354457
