data_functionalizedCrystal
_audit_creation_method	'MofGen! by Chris Wilmer'
_symmetry_space_group_name_H-M	'P1'
_symmetry_Int_Tables_number	1
_symmetry_cell_setting	triclinic
loop_
_symmetry_equiv_pos_as_xyz
  x,y,z
_cell_length_a	13.897448
_cell_length_b	21.395362
_cell_length_c	21.395355
_cell_angle_alpha	90.043940
_cell_angle_beta	89.984371
_cell_angle_gamma	89.966429
loop_
_atom_site_label
_atom_site_type_symbol
_atom_site_fract_x
_atom_site_fract_y
_atom_site_fract_z
Zn1	Zn	-0.383718	-0.957916	-0.354598
Zn2	Zn	0.116282	-0.457916	0.145402
Zn3	Zn	-0.544997	-0.957842	-0.249826
Zn4	Zn	-0.044997	-0.457842	0.250174
Zn5	Zn	-0.383763	-0.853131	-0.249799
Zn6	Zn	0.116237	-0.353131	0.250201
Zn7	Zn	-0.545017	-0.853124	-0.354531
Zn8	Zn	-0.045017	-0.353124	0.145469
O9	O	-0.464374	-0.905503	-0.302189
O10	O	0.035626	-0.405503	0.197811
O11	O	-0.405085	-1.045584	-0.340739
O12	O	0.094915	-0.545584	0.159261
O13	O	-0.523620	-0.943924	-0.162145
O14	O	-0.023620	-0.443924	0.337855
O15	O	-0.248775	-0.867065	-0.263718
O16	O	0.251225	-0.367065	0.236282
O17	O	-0.523576	-1.045530	-0.263764
O18	O	-0.023576	-0.545530	0.236236
O19	O	-0.248742	-0.944050	-0.340714
O20	O	0.251258	-0.444050	0.159286
O21	O	-0.405161	-0.866993	-0.162125
O22	O	0.094839	-0.366993	0.337875
O23	O	-0.405181	-0.765452	-0.263653
O24	O	0.094819	-0.265452	0.236347
O25	O	-0.523610	-0.867053	-0.442218
O26	O	-0.023610	-0.367053	0.057782
O27	O	-0.523654	-0.765447	-0.340599
O28	O	-0.023654	-0.265447	0.159401
O29	O	-0.405104	-0.944043	-0.442267
O30	O	0.094896	-0.444043	0.057733
O31	O	-0.679982	-0.943918	-0.263698
O32	O	-0.179982	-0.443918	0.236302
O33	O	-0.679996	-0.866981	-0.340624
O34	O	-0.179996	-0.366981	0.159376
C35	C	-0.464425	-0.742716	-0.302116
C36	C	0.035575	-0.242716	0.197884
C37	C	-0.464470	-0.673074	-0.302100
C38	C	0.035530	-0.173074	0.197900
C39	C	-0.714988	-0.905458	-0.302170
C40	C	-0.214988	-0.405458	0.197830
C41	C	-0.822202	-0.905495	-0.302184
C42	C	-0.322202	-0.405495	0.197816
C43	C	-0.464354	-0.905555	-0.465612
C44	C	0.035646	-0.405555	0.034388
C45	C	-0.464346	-0.905578	-0.535253
C46	C	0.035654	-0.405578	-0.035253
C47	C	-1.018497	-0.905561	-0.302223
C48	C	-0.518497	-0.405561	0.197777
C49	C	-0.909265	-0.905523	-0.302203
C50	C	-0.409265	-0.405523	0.197797
C51	C	-0.212781	-0.905566	-0.302221
C52	C	0.287219	-0.405566	0.197779
C53	C	-0.105567	-0.905593	-0.302234
C54	C	0.394433	-0.405593	0.197766
C55	C	-0.464323	-1.068927	-0.302262
C56	C	0.035677	-0.568927	0.197738
C57	C	-0.464302	-1.138568	-0.302293
C58	C	0.035698	-0.638568	0.197707
C59	C	-0.526240	-0.640375	-0.342105
C60	C	-0.026240	-0.140375	0.157895
C61	C	-0.526217	-0.574940	-0.342133
C62	C	-0.026217	-0.074940	0.157867
C63	C	-0.464433	-0.542206	-0.302144
C64	C	0.035567	-0.042206	0.197856
C65	C	-0.402650	-0.574913	-0.262136
C66	C	0.097350	-0.074913	0.237864
C67	C	-0.402669	-0.640348	-0.262114
C68	C	0.097331	-0.140348	0.237886
C69	C	-0.456662	-0.438480	-0.245739
C70	C	0.043338	0.061520	0.254261
C71	C	-0.456650	-0.373047	-0.245760
C72	C	0.043350	0.126953	0.254240
C73	C	-0.464370	-0.340385	-0.302214
C74	C	0.035630	0.159615	0.197786
C75	C	-0.472121	-0.373165	-0.358647
C76	C	0.027879	0.126835	0.141353
C77	C	-0.472140	-0.438599	-0.358625
C78	C	0.027860	0.061401	0.141375
C79	C	-0.464405	-0.471254	-0.302164
C80	C	0.035595	0.028746	0.197836
C81	C	-0.526118	-0.236734	-0.342253
C82	C	-0.026118	0.263266	0.157747
C83	C	-0.526088	-0.171297	-0.342282
C84	C	-0.026088	0.328703	0.157718
C85	C	-0.402526	-0.171272	-0.262279
C86	C	0.097474	0.328728	0.237721
C87	C	-0.402551	-0.236707	-0.262255
C88	C	0.097449	0.263293	0.237745
C89	C	-0.464352	-0.269434	-0.302242
C90	C	0.035648	0.230566	0.197758
C91	C	-0.402637	-0.945665	-0.567993
C92	C	0.097363	-0.445665	-0.067993
C93	C	-0.402596	-0.945664	-0.633429
C94	C	0.097404	-0.445664	-0.133429
C95	C	-0.464280	-0.905582	-0.666122
C96	C	0.035720	-0.405582	-0.166122
C97	C	-0.525993	-0.865488	-0.633374
C98	C	-0.025993	-0.365488	-0.133374
C99	C	-0.526026	-0.865485	-0.567940
C100	C	-0.026026	-0.365485	-0.067940
C101	C	-0.551135	-0.900619	-0.769788
C102	C	-0.051135	-0.400619	-0.269788
C103	C	-0.551103	-0.900626	-0.835221
C104	C	-0.051103	-0.400626	-0.335221
C105	C	-0.464178	-0.905586	-0.867942
C106	C	0.035822	-0.405586	-0.367942
C107	C	-0.377282	-0.910553	-0.835223
C108	C	0.122718	-0.410553	-0.335223
C109	C	-0.377315	-0.910550	-0.769788
C110	C	0.122685	-0.410550	-0.269788
C111	C	-0.464251	-0.905580	-0.737074
C112	C	0.035749	-0.405580	-0.237074
C113	C	-0.402419	-0.945675	-0.971635
C114	C	0.097581	-0.445675	-0.471635
C115	C	-0.402376	-0.945669	-1.037072
C116	C	0.097624	-0.445669	-0.537072
C117	C	-0.525782	-0.865496	-1.037016
C118	C	-0.025782	-0.365496	-0.537016
C119	C	-0.525817	-0.865498	-0.971580
C120	C	-0.025817	-0.365498	-0.471580
C121	C	-0.464137	-0.905591	-0.938894
C122	C	0.035863	-0.405591	-0.438894
C123	C	-0.464324	-0.905488	-0.139401
C124	C	0.035676	-0.405488	0.360599
C125	C	-0.464060	-0.905587	-0.069760
C126	C	0.035940	-0.405587	0.430240
H127	H	-0.576517	-0.548311	-0.374713
H128	H	-0.076517	-0.048311	0.125287
N129	N	-0.448758	-0.471830	-0.188064
N130	N	0.051242	0.028170	0.311936
N131	N	-0.441841	-0.442559	-0.137684
N132	N	0.058159	0.057441	0.362316
H133	H	-0.436254	-0.466111	-0.096952
H134	H	0.063746	0.033889	0.403048
H135	H	-0.478449	-0.465285	-0.404575
H136	H	0.021551	0.034715	0.095425
N137	N	-0.589186	-0.137903	-0.383159
N138	N	-0.089186	0.362097	0.116841
N139	N	-0.644354	-0.167134	-0.418856
N140	N	-0.144354	0.332866	0.081144
H141	H	-0.688918	-0.143549	-0.447727
H142	H	-0.188918	0.356451	0.052273
H143	H	-0.306560	-0.914593	-0.743151
H144	H	0.193440	-0.414593	-0.243151
H145	H	-0.306499	-0.914593	-0.861863
H146	H	0.193501	-0.414593	-0.361863
N147	N	-0.339475	-0.270122	-0.221384
N148	N	0.160525	0.229878	0.278616
N149	N	-0.339502	-0.328545	-0.221367
N150	N	0.160498	0.171455	0.278633
H151	H	-0.294951	-0.352146	-0.192501
H152	H	0.205049	0.147854	0.307499
H153	H	-0.352365	-0.666971	-0.229536
H154	H	0.147635	-0.166971	0.270464
N155	N	-0.448746	-0.339577	-0.188111
N156	N	0.051254	0.160423	0.311889
N157	N	-0.441845	-0.368745	-0.137711
N158	N	0.058155	0.131255	0.362289
H159	H	-0.436264	-0.345108	-0.096994
H160	H	0.063736	0.154892	0.403006
N161	N	-0.339631	-0.986622	-0.534616
N162	N	0.160369	-0.486622	-0.034616
N163	N	-0.284538	-1.022413	-0.563861
N164	N	0.215462	-0.522413	-0.063861
H165	H	-0.240038	-1.051340	-0.540288
H166	H	0.259962	-0.551340	-0.040288
H167	H	-0.352343	-0.548258	-0.229578
H168	H	0.147657	-0.048258	0.270422
N169	N	-0.480036	-0.339801	-0.416311
N170	N	0.019964	0.160199	0.083689
N171	N	-0.480029	-0.281378	-0.416325
N172	N	0.019971	0.218622	0.083675
H173	H	-0.485630	-0.257812	-0.457048
H174	H	0.014370	0.242188	0.042952
N175	N	-0.589249	-0.270158	-0.383099
N176	N	-0.089249	0.229842	0.116901
N177	N	-0.644394	-0.240951	-0.418820
N178	N	-0.144394	0.259049	0.081180
H179	H	-0.688983	-0.264555	-0.447668
H180	H	-0.188983	0.235445	0.052332
N181	N	-0.639874	-0.895530	-0.868623
N182	N	-0.139874	-0.395530	-0.368623
N183	N	-0.703981	-0.935829	-0.861345
N184	N	-0.203981	-0.435829	-0.361345
H185	H	-0.766682	-0.932217	-0.884928
H186	H	-0.266682	-0.432217	-0.384928
H187	H	-0.575997	-0.832855	-1.063634
H188	H	-0.075997	-0.332855	-0.563634
H189	H	-0.352190	-0.978317	-0.945020
H190	H	0.147810	-0.478317	-0.445020
H191	H	-0.576562	-0.667017	-0.374666
H192	H	-0.076562	-0.167017	0.125334
H193	H	-0.352120	-0.978312	-1.063727
H194	H	0.147880	-0.478312	-0.563727
N195	N	-0.639929	-0.895587	-0.736358
N196	N	-0.139929	-0.395587	-0.236358
N197	N	-0.639950	-0.895605	-0.677936
N198	N	-0.139950	-0.395605	-0.177936
H199	H	-0.702660	-0.892062	-0.654325
H200	H	-0.202660	-0.392062	-0.154325
N201	N	-0.588859	-0.824547	-0.938143
N202	N	-0.088859	-0.324547	-0.438143
N203	N	-0.643928	-0.788760	-0.967338
N204	N	-0.143928	-0.288760	-0.467338
H205	H	-0.688453	-0.759834	-0.943724
H206	H	-0.188453	-0.259834	-0.443724
N207	N	-0.339578	-0.986618	-0.666891
N208	N	0.160422	-0.486618	-0.166891
N209	N	-0.339566	-0.986616	-0.725313
N210	N	0.160434	-0.486616	-0.225313
H211	H	-0.295063	-1.015542	-0.748946
H212	H	0.204937	-0.515542	-0.248946
N213	N	-0.339409	-0.137834	-0.221442
N214	N	0.160591	0.362166	0.278558
N215	N	-0.339393	-0.079412	-0.221470
N216	N	0.160607	0.420588	0.278530
H217	H	-0.294811	-0.055792	-0.192631
H218	H	0.205189	0.444208	0.307369
H219	H	-0.576214	-0.832851	-0.659997
H220	H	-0.076214	-0.332851	-0.159997
N221	N	-0.589066	-0.824529	-0.534503
N222	N	-0.089066	-0.324529	-0.034503
N223	N	-0.644132	-0.788740	-0.563697
N224	N	-0.144132	-0.288740	-0.063697
H225	H	-0.688656	-0.759814	-0.540081
H226	H	-0.188656	-0.259814	-0.040081
