data_functionalizedCrystal
_audit_creation_method	'MofGen! by Chris Wilmer'
_symmetry_space_group_name_H-M	'P1'
_symmetry_Int_Tables_number	1
_symmetry_cell_setting	triclinic
loop_
_symmetry_equiv_pos_as_xyz
  x,y,z
_cell_length_a	19.288864
_cell_length_b	10.654549
_cell_length_c	17.766277
_cell_angle_alpha	89.994783
_cell_angle_beta	89.976791
_cell_angle_gamma	83.811582
loop_
_atom_site_label
_atom_site_type_symbol
_atom_site_fract_x
_atom_site_fract_y
_atom_site_fract_z
O1	O	0.922380	0.156656	-0.062834
O2	O	0.720258	0.177789	-0.062782
O3	O	0.825965	-0.015616	-0.062807
O4	O	0.816674	0.350061	-0.062810
O5	O	0.825946	-0.015625	0.062382
O6	O	0.720239	0.177779	0.062406
O7	O	0.922362	0.156647	0.062354
Cu8	Cu	0.821299	0.167212	0.073811
Cu9	Cu	0.821321	0.167224	-0.074239
O10	O	0.816655	0.350051	0.062379
C11	C	0.694368	0.177104	-0.000182
C12	C	0.617251	0.175063	-0.000162
C13	C	0.573299	0.288544	-0.000175
C14	C	0.500839	0.286626	-0.000183
C15	C	0.472335	0.171221	-0.000194
C16	C	0.516297	0.057725	-0.000176
C17	C	0.588755	0.059646	-0.000161
C18	C	0.363485	0.080503	-0.044077
C19	C	0.291028	0.078587	-0.044098
C20	C	0.248850	0.165292	-0.000239
C21	C	0.279138	0.253934	0.043630
C22	C	0.351596	0.255855	0.043646
C23	C	0.393767	0.169126	-0.000210
C24	C	0.126329	0.276701	-0.000260
C25	C	0.053868	0.274779	-0.000264
C26	C	0.069327	0.045874	-0.000264
C27	C	0.141786	0.047800	-0.000253
C28	C	0.170282	0.163217	-0.000255
C29	C	0.825272	-0.062404	-0.000213
C30	C	0.823229	-0.201803	-0.000215
C31	C	0.945795	-0.494411	-0.000242
C32	C	1.009957	-0.444248	-0.000257
C33	C	1.011879	-0.313271	-0.000259
C34	C	0.949632	-0.232453	-0.000243
C35	C	0.885470	-0.282616	-0.000228
C36	C	0.883554	-0.413598	-0.000229
C37	C	0.759067	-0.251967	-0.000200
C38	C	0.757143	-0.382943	-0.000204
C39	C	0.696820	-0.171149	-0.000185
C40	C	0.632656	-0.221312	-0.000175
C41	C	0.630737	-0.352297	-0.000174
C42	C	0.692981	-0.433107	-0.000189
C43	C	0.948252	0.157332	-0.000248
C44	C	1.025369	0.159373	-0.000273
C45	C	0.817347	0.396840	-0.000217
C46	C	0.819391	0.536239	-0.000220
N47	N	0.821288	0.167203	0.177941
N48	N	0.821337	0.167223	-0.178369
C49	C	0.868111	0.081605	0.217318
C50	C	0.868115	0.081600	0.296119
C51	C	0.821303	0.167213	0.335542
C52	C	0.774472	0.252817	0.296156
C53	C	0.774464	0.252812	0.217356
C54	C	0.812754	0.281634	0.460380
C55	C	0.812767	0.281641	0.539179
C56	C	0.821322	0.167228	0.578588
C57	C	0.829879	0.052804	0.539189
C58	C	0.829872	0.052799	0.460389
C59	C	0.821305	0.167228	0.420988
C60	C	0.868151	0.081617	0.703410
C61	C	0.868150	0.081610	0.782214
C62	C	0.774511	0.252838	0.782249
C63	C	0.774508	0.252835	0.703447
C64	C	0.821332	0.167226	0.664033
H65	H	0.596495	0.382526	-0.000177
H66	H	0.493084	-0.036239	-0.000195
H67	H	0.736384	0.322542	0.671385
H68	H	0.244798	0.324537	0.079345
H69	H	0.944236	-0.601061	-0.000251
H70	H	0.578488	-0.393131	-0.000154
H71	H	0.046120	-0.048091	-0.000320
O72	O	0.408966	-0.013029	-0.091387
H73	H	0.445949	-0.071366	-0.054389
O74	O	0.565527	-0.134142	-0.000156
H75	H	0.534846	-0.151936	0.050878
O76	O	0.803517	0.405056	0.417889
H77	H	0.756260	0.408158	0.382025
O78	O	0.918602	-0.010741	0.174804
H79	H	0.951156	-0.070274	0.215429
H80	H	0.736335	0.322518	0.185295
O81	O	0.189199	-0.074597	-0.000246
H82	H	0.157208	-0.155171	-0.000259
H83	H	0.266373	0.006415	-0.079822
O84	O	0.157067	0.401184	-0.000246
H85	H	0.189730	0.407552	-0.051268
O86	O	1.081080	-0.259152	-0.000281
H87	H	1.124041	-0.337347	-0.000298
O88	O	0.690909	-0.574375	-0.000182
H89	H	0.744970	-0.622139	-0.000187
O90	O	0.951700	-0.091184	-0.000233
H91	H	0.979496	-0.063245	-0.051262
H92	H	0.465047	0.379039	-0.000191
H93	H	0.376253	0.328026	0.079368
O94	O	0.803551	0.405047	0.581673
H95	H	0.797592	0.484604	0.541033
O96	O	0.918660	-0.010722	0.824679
H97	H	0.889140	-0.071643	0.860595
H98	H	0.698390	-0.064501	-0.000181
O99	O	0.918624	-0.010713	0.338605
H100	H	0.951186	-0.070235	0.297958
H101	H	0.736356	0.322523	0.328258
H102	H	0.836838	-0.040368	0.428313
H103	H	0.624541	-0.032767	-0.000150
H104	H	1.060637	-0.510064	-0.000268
H105	H	0.018082	0.367193	-0.000270
O106	O	0.839101	-0.070613	0.581680
H107	H	0.837659	-0.051393	0.643093
H108	H	0.906276	0.011905	0.671318
O109	O	0.724020	0.345186	0.824756
H110	H	0.731893	0.330816	0.886167
