data_functionalizedCrystal
_audit_creation_method	'MofGen! by Chris Wilmer'
_symmetry_space_group_name_H-M	'P1'
_symmetry_Int_Tables_number	1
_symmetry_cell_setting	triclinic
loop_
_symmetry_equiv_pos_as_xyz
  x,y,z
_cell_length_a	14.519709
_cell_length_b	22.010155
_cell_length_c	14.519731
_cell_angle_alpha	89.990057
_cell_angle_beta	83.684499
_cell_angle_gamma	89.996249
loop_
_atom_site_label
_atom_site_type_symbol
_atom_site_fract_x
_atom_site_fract_y
_atom_site_fract_z
O1	O	1.223876	0.050447	0.120869
O2	O	0.955400	0.050466	0.135106
O3	O	1.096746	0.050451	-0.006250
O4	O	1.082530	0.050463	0.262225
O5	O	1.096736	-0.050600	-0.006212
O6	O	0.955390	-0.050584	0.135143
O7	O	1.223866	-0.050603	0.120906
Cu8	Cu	1.089627	-0.059820	0.128028
Cu9	Cu	1.089638	0.059683	0.127984
O10	O	1.082520	-0.050588	0.262262
C11	C	0.921035	-0.000057	0.134461
C12	C	0.818654	-0.000050	0.132473
N13	N	1.089626	-0.143873	0.128058
C14	C	0.443757	-0.000078	0.125153
C15	C	0.548065	-0.000070	0.127186
C16	C	0.631202	-0.000063	0.128813
C17	C	0.735517	-0.000056	0.130846
C18	C	1.027016	-0.436478	0.190577
C19	C	1.027014	-0.372870	0.190585
O20	O	0.973753	-0.339973	0.243779
N21	N	1.089618	-0.341057	0.128023
C22	C	1.152223	-0.372854	0.065443
O23	O	1.205472	-0.339954	0.012229
C24	C	1.152220	-0.436461	0.065431
C25	C	1.089618	-0.468271	0.128003
C26	C	0.964418	-0.468288	0.253144
C27	C	0.964421	-0.531891	0.253136
C28	C	1.027023	-0.563684	0.190562
C29	C	1.089621	-0.531874	0.127996
C30	C	1.214820	-0.468257	0.002846
C31	C	1.214811	-0.531868	0.002839
C32	C	1.152209	-0.563678	0.065412
C33	C	1.152227	-0.627271	0.065414
N34	N	1.089622	-0.659084	0.127976
C35	C	1.027020	-0.627291	0.190550
C36	C	1.152223	-0.239277	0.065472
C37	C	1.152231	-0.175671	0.065487
C38	C	1.027020	-0.175692	0.190629
C39	C	1.027017	-0.239298	0.190617
C40	C	1.089618	-0.271090	0.128034
C41	C	1.027033	-0.760862	0.190531
C42	C	1.027045	-0.824471	0.190520
C43	C	1.152253	-0.824445	0.065376
C44	C	1.152244	-0.760842	0.065389
C45	C	1.089627	-0.729052	0.127970
O46	O	1.205457	-0.660208	0.012246
O47	O	0.973772	-0.660199	0.243747
C48	C	1.258230	-0.000079	0.121551
C49	C	1.360612	-0.000082	0.123540
C50	C	1.096075	-0.000075	-0.040591
C51	C	1.094079	-0.000075	-0.142971
N52	N	1.089647	0.143736	0.127946
C53	C	1.092457	-0.000073	-0.226115
C54	C	1.090430	-0.000068	-0.330424
C55	C	1.088822	-0.000064	-0.413563
C56	C	1.086795	-0.000061	-0.517878
C57	C	1.083191	-0.000061	0.296603
C58	C	1.085187	-0.000057	0.398983
H59	H	0.976067	-0.850369	0.241477
H60	H	1.203230	-0.734942	0.014446
H61	H	0.976045	-0.149794	0.241579
F62	F	1.218877	-0.858291	-0.001216
F63	F	1.218862	-0.273107	-0.001137
F64	F	0.960389	-0.727038	0.257137
F65	F	0.897788	-0.565740	0.319730
H66	H	0.913435	-0.442408	0.304099
H67	H	1.203217	-0.149776	0.014545
F68	F	1.281449	-0.434414	-0.063753
H69	H	0.976041	-0.265194	0.241568
H70	H	1.265788	-0.557750	-0.048127
