data_functionalizedCrystal
_audit_creation_method	'MofGen! by Chris Wilmer'
_symmetry_space_group_name_H-M	'P1'
_symmetry_Int_Tables_number	1
_symmetry_cell_setting	triclinic
loop_
_symmetry_equiv_pos_as_xyz
  x,y,z
_cell_length_a	16.992694
_cell_length_b	15.995292
_cell_length_c	16.053802
_cell_angle_alpha	92.568169
_cell_angle_beta	87.249047
_cell_angle_gamma	87.068419
loop_
_atom_site_label
_atom_site_type_symbol
_atom_site_fract_x
_atom_site_fract_y
_atom_site_fract_z
O1	O	1.043660	0.174247	-0.069315
O2	O	1.543660	0.674247	0.430685
O3	O	0.815376	0.172298	-0.069340
O4	O	1.315376	0.672298	0.430660
O5	O	0.935782	0.051800	-0.069328
O6	O	1.435782	0.551800	0.430672
O7	O	0.923254	0.294744	-0.069327
O8	O	1.423254	0.794744	0.430673
O9	O	0.929154	0.058404	0.069530
O10	O	1.429154	0.558404	0.569530
O11	O	0.808749	0.178901	0.069519
O12	O	1.308749	0.678901	0.569519
O13	O	1.037032	0.180850	0.069543
O14	O	1.537032	0.680850	0.569543
Zn15	Zn	0.921838	0.180924	0.091578
Zn16	Zn	1.421838	0.680924	0.591578
Zn17	Zn	0.930570	0.172224	-0.091374
Zn18	Zn	1.430570	0.672224	0.408626
O19	O	0.916626	0.301347	0.069532
O20	O	1.416626	0.801347	0.569532
C21	C	0.782850	0.173093	0.000086
C22	C	1.282850	0.673093	0.500086
C23	C	0.695808	0.165617	0.000077
C24	C	1.195808	0.665617	0.500077
C25	C	0.931958	0.023872	0.000099
C26	C	1.431958	0.523872	0.500099
C27	C	0.930430	-0.069183	0.000093
C28	C	1.430430	0.430817	0.500093
C29	C	0.645554	0.237753	0.000078
C30	C	1.145554	0.737753	0.500078
C31	C	0.563768	0.230724	0.000089
C32	C	1.063768	0.730724	0.500089
C33	C	0.532238	0.151557	0.000094
C34	C	1.032238	0.651557	0.500094
C35	C	0.582499	0.079415	0.000095
C36	C	1.082499	0.579415	0.500095
C37	C	0.664283	0.086446	0.000090
C38	C	1.164283	0.586446	0.500090
C39	C	0.288645	0.122419	0.000116
C40	C	0.788645	0.622419	0.500116
C41	C	0.206855	0.115394	0.000119
C42	C	0.706855	0.615394	0.500119
C43	C	0.188129	0.266703	0.000114
C44	C	0.688129	0.766703	0.500114
C45	C	0.269916	0.273726	0.000104
C46	C	0.769916	0.773726	0.500104
C47	C	0.320169	0.201585	0.000110
C48	C	0.820169	0.701585	0.500110
N49	N	0.448641	0.144370	0.000103
N50	N	0.948641	0.644370	0.500103
N51	N	0.403765	0.208773	0.000107
N52	N	0.903765	0.708773	0.500107
C53	C	0.924810	-0.407298	0.000100
C54	C	1.424810	0.092702	0.500100
C55	C	1.011701	-0.378155	0.000419
C56	C	1.511701	0.121845	0.500419
C57	C	1.013368	-0.281384	0.000104
C58	C	1.513368	0.218616	0.500104
C59	C	0.927599	-0.239555	0.000097
C60	C	1.427599	0.260445	0.500097
C61	C	0.887934	-0.275335	-0.079200
C62	C	1.387934	0.224665	0.420800
C63	C	0.886891	-0.372198	-0.079264
C64	C	1.386891	0.127802	0.420736
C65	C	0.877580	-0.364665	0.078644
C66	C	1.377580	0.135335	0.578644
C67	C	0.880751	-0.267907	0.079689
C68	C	1.380751	0.232093	0.579689
C69	C	0.929170	-0.144754	0.000092
C70	C	1.429170	0.355246	0.500092
C71	C	0.923236	-0.502099	0.000099
C72	C	1.423236	-0.002099	0.500099
C73	C	1.069558	0.180054	0.000116
C74	C	1.569558	0.680054	0.500116
C75	C	1.156601	0.187531	0.000120
C76	C	1.656601	0.687531	0.500120
C77	C	0.920450	0.329275	0.000103
C78	C	1.420450	0.829275	0.500103
C79	C	0.921979	0.422331	0.000104
C80	C	1.421979	0.922331	0.500104
N81	N	0.915885	0.186861	0.216438
N82	N	1.415885	0.686861	0.716438
N83	N	0.936530	0.166280	-0.216234
N84	N	1.436530	0.666280	0.283766
C85	C	0.967136	0.135610	0.260136
C86	C	1.467136	0.635610	0.760136
C87	C	0.962979	0.139772	0.347543
C88	C	1.462979	0.639772	0.847543
C89	C	0.907573	0.195190	0.391249
C90	C	1.407573	0.695190	0.891249
C91	C	0.856316	0.246443	0.347544
C92	C	1.356316	0.746443	0.847544
C93	C	0.860470	0.242276	0.260139
C94	C	1.360470	0.742276	0.760139
C95	C	0.889427	0.213366	0.652657
C96	C	1.389427	0.713366	1.152657
C97	C	0.885278	0.217531	0.740067
C98	C	1.385278	0.717531	1.240067
C99	C	0.991941	0.110859	0.740061
C100	C	1.491941	0.610859	1.240061
C101	C	0.996093	0.106700	0.652654
C102	C	1.496093	0.606700	1.152654
C103	C	0.944833	0.157950	0.608957
C104	C	1.444833	0.657950	1.108957
N105	N	0.903324	0.199447	0.480592
N106	N	1.403324	0.699447	0.980592
N107	N	0.949079	0.153688	0.519615
N108	N	1.449079	0.653688	1.019615
H109	H	0.671218	0.302219	0.000073
H110	H	1.171218	0.802219	0.500073
C111	C	0.931376	-0.409516	-0.159329
C112	C	1.431376	0.090484	0.340671
N113	N	0.964888	-0.437620	-0.219634
N114	N	1.464888	0.062380	0.280366
C115	C	0.833141	0.269859	0.604601
C116	C	1.333141	0.769859	1.104601
N117	N	0.790780	0.312453	0.568402
N118	N	1.290780	0.812453	1.068402
H119	H	0.811199	0.291562	0.383134
H120	H	1.311199	0.791562	0.883134
H121	H	1.050314	-0.263396	-0.056832
H122	H	1.550314	0.236604	0.443168
C123	C	1.060351	-0.417973	-0.075967
C124	C	1.560351	0.082027	0.424033
N125	N	1.096992	-0.447966	-0.133502
N126	N	1.596992	0.052034	0.366498
C127	C	0.719564	0.007090	0.000086
C128	C	1.219564	0.507090	0.500086
N129	N	0.761200	-0.052684	0.000085
N130	N	1.261200	0.447316	0.500085
C131	C	0.801044	-0.397850	-0.084149
C132	C	1.301044	0.102150	0.415851
N133	N	0.736385	-0.417168	-0.087836
N134	N	1.236385	0.082832	0.412164
H135	H	0.902080	-0.388064	0.138750
H136	H	1.402080	0.111936	0.638750
H137	H	0.840158	0.262662	0.775649
H138	H	1.340158	0.762662	1.275649
C139	C	0.919690	-0.236169	0.158943
C140	C	1.419690	0.263831	0.658943
N141	N	0.949014	-0.212251	0.218636
N142	N	1.449014	0.287749	0.718636
H143	H	0.824960	-0.247831	-0.082153
H144	H	1.324960	0.252169	0.417847
H145	H	0.147204	0.325437	0.000111
H146	H	0.647204	0.825437	0.500111
H147	H	1.044683	-0.257378	0.056946
H148	H	1.544683	0.242622	0.556946
C149	C	1.028087	0.074645	0.212068
C150	C	1.528087	0.574645	0.712068
N151	N	1.073994	0.028722	0.175865
N152	N	1.573994	0.528722	0.675865
C153	C	0.508490	0.310081	0.000105
C154	C	1.008490	0.810081	0.500105
N155	N	0.466854	0.369857	0.000123
N156	N	0.966854	0.869857	0.500123
H157	H	0.920923	-0.256061	-0.138207
H158	H	1.420923	0.243939	0.361793
H159	H	1.033673	0.069132	0.775647
H160	H	1.533673	0.569132	1.275647
H161	H	0.818735	0.284009	0.224560
H162	H	1.318735	0.784009	0.724560
H163	H	0.295581	0.338192	0.000091
H164	H	0.795581	0.838192	0.500091
H165	H	0.329552	0.063676	0.000121
H166	H	0.829552	0.563676	0.500121
H167	H	1.042484	-0.401206	0.057287
H168	H	1.542484	0.098794	0.557287
H169	H	0.181188	0.050924	0.000122
H170	H	0.681188	0.550924	0.500122
C171	C	0.547814	-0.007669	0.000102
C172	C	1.047814	0.492331	0.500102
N173	N	0.521690	-0.073263	0.000103
N174	N	1.021690	0.426737	0.500103
C175	C	0.795865	-0.228723	0.086151
C176	C	1.295865	0.271277	0.586151
N177	N	0.731926	-0.199211	0.091011
N178	N	1.231926	0.300789	0.591011
H179	H	0.813585	-0.382911	0.079173
H180	H	1.313585	0.117089	0.579173
C181	C	1.019341	0.083370	0.395608
C182	C	1.519341	0.583370	0.895608
N183	N	1.061789	0.040877	0.431810
N184	N	1.561789	0.540877	0.931810
H185	H	1.041209	0.061575	0.617071
H186	H	1.541209	0.561575	1.117071
