data_functionalizedCrystal
_audit_creation_method	'MofGen! by Chris Wilmer'
_symmetry_space_group_name_H-M	'P1'
_symmetry_Int_Tables_number	1
_symmetry_cell_setting	triclinic
loop_
_symmetry_equiv_pos_as_xyz
  x,y,z
_cell_length_a	10.489716
_cell_length_b	10.489741
_cell_length_c	9.798715
_cell_angle_alpha	90.003114
_cell_angle_beta	90.003334
_cell_angle_gamma	84.534155
loop_
_atom_site_label
_atom_site_type_symbol
_atom_site_fract_x
_atom_site_fract_y
_atom_site_fract_z
O1	O	1.694071	0.179816	0.113479
O2	O	1.322871	0.196742	0.113484
O3	O	1.516917	0.002681	0.113474
O4	O	1.500024	0.373878	0.113490
O5	O	1.516903	0.002679	-0.113509
O6	O	1.322856	0.196741	-0.113498
O7	O	1.694056	0.179815	-0.113503
Zn8	Zn	1.508454	0.188278	-0.149539
Zn9	Zn	1.508473	0.188279	0.149520
O10	O	1.500010	0.373876	-0.113492
C11	C	1.275332	0.195470	-0.000006
C12	C	1.133701	0.191665	-0.000004
C13	C	1.036027	0.310669	0.000004
C14	C	0.958674	0.247784	-0.111919
C15	C	0.958694	0.247757	0.111868
C16	C	1.058213	0.128830	-0.112020
C17	C	1.058239	0.128820	0.111867
C18	C	0.980935	0.065848	-0.000083
C19	C	1.515634	-0.044852	-0.000017
C20	C	1.511817	-0.186481	-0.000014
C21	C	1.388351	-0.254610	-0.000003
C22	C	1.446668	-0.346738	-0.111917
C23	C	1.446711	-0.346712	0.111869
C24	C	1.570185	-0.276744	-0.112021
C25	C	1.570211	-0.276707	0.111866
C26	C	1.628618	-0.368808	-0.000076
C27	C	1.741596	0.181087	-0.000009
C28	C	1.883227	0.184892	-0.000002
C29	C	1.501293	0.421409	0.000001
C30	C	1.505110	0.563038	0.000008
N31	N	1.508450	0.188276	-0.353638
C32	C	1.582876	0.262282	-0.421414
C33	C	1.582896	0.262280	-0.578576
N34	N	1.508487	0.188271	0.353620
H35	H	0.956505	-0.037744	-0.000152
H36	H	1.060696	0.414185	-0.000096
H37	H	1.101741	0.078622	0.206489
O38	O	0.906817	0.307917	-0.224693
C39	C	0.934389	0.436869	-0.224309
H40	H	0.954518	0.467501	-0.115398
H41	H	0.848904	0.499877	-0.266585
H42	H	1.022037	0.447504	-0.290631
H43	H	1.444750	0.124912	-0.411966
H44	H	1.101523	0.078621	-0.206735
H45	H	1.286838	-0.204950	-0.000114
H46	H	1.646585	0.325636	-0.363087
O47	O	1.659099	0.337799	-0.647948
C48	C	1.788212	0.303360	-0.613134
H49	H	1.793170	0.254021	-0.509355
H50	H	1.841539	0.393008	-0.608373
H51	H	1.834332	0.235205	-0.693519
H52	H	1.444759	0.124915	-0.588104
H53	H	0.915217	0.298019	0.206476
O54	O	1.384139	-0.383655	-0.224690
C55	C	1.257509	-0.324940	-0.224313
H56	H	1.228164	-0.297497	-0.115406
H57	H	1.190324	-0.394563	-0.266587
H58	H	1.251641	-0.235285	-0.290642
O59	O	1.632568	-0.239841	-0.224886
C60	C	1.740241	-0.178072	-0.184955
H61	H	1.725261	-0.139096	-0.076952
H62	H	1.753289	-0.095715	-0.257976
H63	H	1.829237	-0.249453	-0.187650
H64	H	1.730222	-0.418241	-0.000140
H65	H	1.622414	-0.245667	0.206485
H66	H	1.394461	-0.377670	0.206494
