data_functionalizedCrystal
_audit_creation_method	'MofGen! by Chris Wilmer'
_symmetry_space_group_name_H-M	'P1'
_symmetry_Int_Tables_number	1
_symmetry_cell_setting	triclinic
loop_
_symmetry_equiv_pos_as_xyz
  x,y,z
_cell_length_a	12.837943
_cell_length_b	15.944480
_cell_length_c	15.021413
_cell_angle_alpha	89.991624
_cell_angle_beta	90.006699
_cell_angle_gamma	89.149394
loop_
_atom_site_label
_atom_site_type_symbol
_atom_site_fract_x
_atom_site_fract_y
_atom_site_fract_z
O1	O	-1.375406	-0.218356	-0.073992
O2	O	-1.073603	-0.207569	-0.073998
O3	O	-1.232784	-0.091346	-0.074003
O4	O	-1.216225	-0.334579	-0.073987
O5	O	-1.232760	-0.091358	0.074061
O6	O	-1.073579	-0.207581	0.074066
O7	O	-1.375382	-0.218368	0.074072
Zn8	Zn	-1.224476	-0.212976	0.097578
Zn9	Zn	-1.224508	-0.212960	-0.097503
O10	O	-1.216200	-0.334591	0.074077
C11	C	-1.034971	-0.203931	0.000033
C12	C	-0.919897	-0.193063	0.000030
C13	C	-1.232097	-0.060003	0.000025
C14	C	-1.230075	0.033408	0.000014
C15	C	-1.414013	-0.222006	0.000039
C16	C	-1.529088	-0.232874	0.000037
N17	N	-1.224462	-0.212987	0.230715
C18	C	-0.678906	-0.323716	0.000051
C19	C	-0.570783	-0.313509	0.000049
C20	C	-0.595524	-0.162441	0.000029
C21	C	-0.703648	-0.172649	0.000032
C22	C	-0.745334	-0.253289	0.000041
C23	C	-0.853460	-0.263496	0.000037
C24	C	-0.878199	-0.112428	0.000024
C25	C	-0.770076	-0.102221	0.000022
C26	C	-1.323782	0.261673	0.000031
C27	C	-1.273271	0.316289	-0.072973
C28	C	-1.226328	0.204430	0.000024
C29	C	-1.273225	0.316255	0.073007
C30	C	-1.222716	0.369629	0.000037
C31	C	-1.175844	0.257816	-0.073041
C32	C	-1.175811	0.257777	0.073005
C33	C	-1.125229	0.312366	-0.000017
C34	C	-1.228412	0.109263	0.000015
C35	C	-1.220625	0.464794	0.000040
C36	C	-1.216901	0.634067	0.000046
C37	C	-1.218966	0.540657	0.000048
N38	N	-1.224531	-0.212943	-0.230641
C39	C	-1.151466	-0.267243	0.529732
C40	C	-1.130514	-0.189896	0.470368
C41	C	-1.224507	-0.212956	0.587752
C42	C	-1.245388	-0.290313	0.470375
C43	C	-1.224482	-0.212976	0.412328
C44	C	-1.203509	-0.135567	0.529694
C45	C	-1.318423	-0.236037	0.529706
C46	C	-1.297511	-0.158638	0.470369
C47	C	-1.224519	-0.212946	0.688809
C48	C	-1.224471	-0.212977	0.311273
H49	H	-0.887399	-0.329157	0.000046
H50	H	-1.134721	0.232291	-0.134826
N51	N	-1.073936	-0.324752	0.562415
N52	N	-0.980199	-0.314517	0.543380
H53	H	-0.925441	-0.355131	0.566459
H54	H	-1.314391	0.341887	0.134722
H55	H	-1.407722	0.239330	-0.000040
H56	H	-1.314438	0.341948	-0.134691
H57	H	-1.051082	-0.170381	0.444297
N58	N	-1.181221	-0.053486	0.562252
N59	N	-1.177597	-0.040239	0.644200
H60	H	-1.161851	0.017729	0.667197
H61	H	-0.712848	-0.389377	0.000057
H62	H	-1.359272	-0.112682	0.444469
H63	H	-1.397831	-0.255579	0.555793
H64	H	-1.134681	0.232101	0.134725
H65	H	-1.041224	0.334552	-0.000059
N66	N	-1.267547	-0.372373	0.437688
N67	N	-1.208502	-0.432786	0.456728
H68	H	-1.224143	-0.490743	0.433646
N69	N	-0.727489	-0.019853	0.000028
N70	N	-0.669911	0.002696	0.062441
H71	H	-0.639835	0.060870	0.062445
H72	H	-0.516700	-0.370859	0.000059
N73	N	-0.946070	-0.040491	0.000007
N74	N	-1.042607	-0.049613	0.000003
H75	H	-1.090543	0.001190	-0.000012
H76	H	-0.561564	-0.096787	0.000095
