data_functionalizedCrystal
_audit_creation_method	'MofGen! by Chris Wilmer'
_symmetry_space_group_name_H-M	'P1'
_symmetry_Int_Tables_number	1
_symmetry_cell_setting	triclinic
loop_
_symmetry_equiv_pos_as_xyz
  x,y,z
_cell_length_a	19.805405
_cell_length_b	19.121141
_cell_length_c	19.805399
_cell_angle_alpha	92.456552
_cell_angle_beta	89.969291
_cell_angle_gamma	92.420244
loop_
_atom_site_label
_atom_site_type_symbol
_atom_site_fract_x
_atom_site_fract_y
_atom_site_fract_z
Zn1	Zn	-0.313697	-1.073690	-0.426813
Zn2	Zn	-0.426885	-1.073607	-0.313618
Zn3	Zn	-0.308881	-0.956247	-0.308814
Zn4	Zn	-0.422010	-0.956204	-0.421943
O5	O	-0.367868	-1.014937	-0.367797
O6	O	-0.332767	-1.171963	-0.415847
O7	O	-0.411256	-1.058023	-0.218264
O8	O	-0.214805	-0.971879	-0.324494
O9	O	-0.415926	-1.171902	-0.332683
O10	O	-0.218344	-1.058164	-0.411188
O11	O	-0.324559	-0.971799	-0.214734
O12	O	-0.319832	-0.857957	-0.319772
O13	O	-0.407617	-0.971805	-0.517306
O14	O	-0.402947	-0.857926	-0.402887
O15	O	-0.328040	-1.058122	-0.520884
O16	O	-0.520952	-1.057981	-0.327960
O17	O	-0.517371	-0.971725	-0.407545
C18	C	-0.360338	-0.832457	-0.360280
C19	C	-0.357133	-0.754392	-0.357080
C20	C	-0.398967	-0.717718	-0.398782
C21	C	-0.395947	-0.644367	-0.395779
C22	C	-0.351096	-0.607691	-0.351069
C23	C	-0.309258	-0.644370	-0.309365
C24	C	-0.312275	-0.717720	-0.312373
C25	C	-0.339814	-0.386223	-0.339831
C26	C	-0.336801	-0.312868	-0.336826
C27	C	-0.423489	-0.312871	-0.423240
C28	C	-0.426506	-0.386222	-0.426241
C29	C	-0.384665	-0.422894	-0.384539
C30	C	-0.348009	-0.532715	-0.347997
C31	C	-0.387749	-0.497869	-0.387616
C32	C	-0.543721	-1.014858	-0.367761
C33	C	-0.618954	-1.014889	-0.367771
C34	C	-0.656142	-1.059846	-0.326378
C35	C	-0.726832	-1.059875	-0.326394
C36	C	-0.760332	-1.014944	-0.367800
C37	C	-0.723138	-0.969985	-0.409198
C38	C	-0.652450	-0.969959	-0.409185
C39	C	-1.008216	-0.970089	-0.409252
C40	C	-1.078909	-0.970116	-0.409261
C41	C	-1.082598	-1.060005	-0.326462
C42	C	-1.011909	-1.059979	-0.326448
C43	C	-0.974722	-1.015023	-0.367848
C44	C	-0.898073	-1.014992	-0.367831
C45	C	-0.836980	-1.014971	-0.367814
C46	C	-0.191329	-1.015036	-0.367849
C47	C	-0.116099	-1.015078	-0.367871
C48	C	-0.367822	-1.014968	-0.544341
C49	C	-0.367803	-1.014981	-0.619574
C50	C	-0.375424	-0.198129	-0.375336
C51	C	-0.378635	-0.276195	-0.378528
C52	C	-0.322656	-0.970097	-0.653080
C53	C	-0.322643	-0.970107	-0.723769
C54	C	-0.367774	-1.015004	-0.760950
C55	C	-0.412926	-1.059890	-0.727439
C56	C	-0.412942	-1.059877	-0.656751
C57	C	-0.412865	-1.059946	-1.012515
C58	C	-0.412845	-1.059958	-1.083207
C59	C	-0.322567	-0.970176	-1.079532
C60	C	-0.322582	-0.970162	-1.008844
C61	C	-0.367736	-1.015045	-0.975339
C62	C	-0.367750	-1.015033	-0.898690
C63	C	-0.367758	-1.015020	-0.837598
C64	C	-0.367866	-1.014947	-0.191941
C65	C	-0.367701	-1.015070	-0.116715
H66	H	-0.300271	-0.283009	-0.300422
C67	C	-0.975499	-1.108646	-0.281404
C68	C	-0.933355	-1.068892	-0.236334
C69	C	-0.899811	-1.113702	-0.194824
H70	H	-0.949087	-1.139233	-0.308497
H71	H	-1.007751	-1.135414	-0.256714
H72	H	-0.901107	-1.042136	-0.261021
H73	H	-0.959750	-1.038306	-0.209225
H74	H	-0.932063	-1.140470	-0.170134
H75	H	-0.873403	-1.144288	-0.221923
H76	H	-0.871217	-1.086736	-0.164235
C77	C	-0.266972	-0.757631	-0.267058
C78	C	-0.306971	-0.799723	-0.225344
C79	C	-0.265258	-0.836506	-0.183600
H80	H	-0.239815	-0.725367	-0.239937
H81	H	-0.238705	-0.786307	-0.294163
H82	H	-0.335226	-0.771050	-0.198243
H83	H	-0.334126	-0.832001	-0.252448
H84	H	-0.236991	-0.865182	-0.210704
H85	H	-0.238104	-0.804237	-0.156483
H86	H	-0.292391	-0.865075	-0.155296
H87	H	-0.285901	-0.933540	-0.622812
H88	H	-0.435491	-0.747575	-0.435187
C89	C	-0.273438	-0.921524	-1.115879
C90	C	-0.207106	-0.936867	-1.099351
C91	C	-0.161831	-0.892073	-1.132826
H92	H	-0.281306	-0.874302	-1.102373
H93	H	-0.279846	-0.927965	-1.163310
H94	H	-0.200700	-0.930421	-1.051931
H95	H	-0.199216	-0.984082	-1.112859
H96	H	-0.168239	-0.898514	-1.180257
H97	H	-0.169705	-0.844853	-1.119317
H98	H	-0.116820	-0.902481	-1.121622
H99	H	-0.622172	-0.933352	-0.442892
C100	C	-0.967728	-0.921353	-0.454173
C101	C	-0.898652	-0.930957	-0.445319
C102	C	-0.861332	-0.886078	-0.486697
H103	H	-0.977331	-0.874145	-0.442329
H104	H	-0.979660	-0.931613	-0.500096
H105	H	-0.886725	-0.920692	-0.399405
H106	H	-0.889029	-0.978155	-0.457167
H107	H	-0.873263	-0.896338	-0.532620
H108	H	-0.870940	-0.838873	-0.474850
H109	H	-0.814460	-0.892593	-0.480700
H110	H	-0.285829	-0.933604	-0.978575
H111	H	-0.285883	-0.933555	-0.751046
H112	H	-0.449599	-1.096521	-1.113479
C113	C	-0.461906	-1.108762	-0.976269
C114	C	-0.501408	-1.148101	-1.023964
C115	C	-0.546585	-1.193090	-0.990598
H116	H	-0.490362	-1.081960	-0.947577
H117	H	-0.437296	-1.139410	-0.949981
H118	H	-0.526016	-1.117457	-1.050241
H119	H	-0.472970	-1.174918	-1.052659
H120	H	-0.521975	-1.223737	-0.964310
H121	H	-0.575036	-1.166281	-0.961906
H122	H	-0.573388	-1.219791	-1.022954
C123	C	-0.461853	-1.108610	-0.767926
C124	C	-0.452165	-1.099030	-0.837004
C125	C	-0.497219	-1.143907	-0.874320
H126	H	-0.506937	-1.098346	-0.755987
H127	H	-0.453893	-1.155818	-0.758327
H128	H	-0.460131	-1.051832	-0.846599
H129	H	-0.407091	-1.109299	-0.848964
H130	H	-0.489258	-1.191115	-0.864721
H131	H	-0.542299	-1.133639	-0.862375
H132	H	-0.490647	-1.137418	-0.921193
C133	C	-0.461989	-1.108684	-0.620495
C134	C	-0.501499	-1.148019	-0.668186
C135	C	-0.546688	-1.192991	-0.634813
H136	H	-0.490439	-1.081869	-0.591807
H137	H	-0.437387	-1.139334	-0.594203
H138	H	-0.526099	-1.117372	-0.694467
H139	H	-0.473068	-1.174848	-0.696876
H140	H	-0.522086	-1.223641	-0.608520
H141	H	-0.575133	-1.166170	-0.606126
H142	H	-0.573497	-1.219689	-0.667166
H143	H	-0.463029	-0.416078	-0.462647
C144	C	-0.441455	-0.604677	-0.441078
C145	C	-0.481398	-0.652495	-0.480856
C146	C	-0.523339	-0.615959	-0.522586
H147	H	-0.414510	-0.576080	-0.469509
H148	H	-0.469768	-0.576059	-0.413966
H149	H	-0.453089	-0.681102	-0.507966
H150	H	-0.508357	-0.681094	-0.452443
H151	H	-0.551652	-0.587341	-0.495474
H152	H	-0.496389	-0.587363	-0.551013
H153	H	-0.550450	-0.648398	-0.549576
H154	H	-0.457553	-0.283004	-0.457192
C155	C	-0.299424	-0.492850	-0.299376
C156	C	-0.335958	-0.450712	-0.254191
C157	C	-0.291222	-0.413980	-0.209392
H158	H	-0.268780	-0.464206	-0.324080
H159	H	-0.274946	-0.525167	-0.274924
H160	H	-0.360424	-0.418399	-0.278641
H161	H	-0.366599	-0.479338	-0.229472
H162	H	-0.266744	-0.446297	-0.184940
H163	H	-0.260580	-0.385340	-0.234102
H164	H	-0.316004	-0.385390	-0.178725
C165	C	-0.260493	-0.604680	-0.260802
C166	C	-0.224490	-0.652499	-0.224937
C167	C	-0.179557	-0.615964	-0.180198
H168	H	-0.285094	-0.576042	-0.230029
H169	H	-0.229824	-0.576102	-0.285560
H170	H	-0.255155	-0.681065	-0.200180
H171	H	-0.199876	-0.681138	-0.255692
H172	H	-0.148887	-0.587386	-0.204957
H173	H	-0.204163	-0.587328	-0.149430
H174	H	-0.155119	-0.648404	-0.155863
C175	C	-0.619899	-1.108705	-0.281397
C176	C	-0.667602	-1.148095	-0.245164
C177	C	-0.634243	-1.193120	-0.203727
H178	H	-0.591261	-1.081925	-0.250716
H179	H	-0.593557	-1.139318	-0.308553
H180	H	-0.693933	-1.117486	-0.218010
H181	H	-0.696242	-1.174888	-0.275827
H182	H	-0.607900	-1.223733	-0.230883
H183	H	-0.605606	-1.166335	-0.173051
H184	H	-0.666603	-1.219856	-0.179143
C185	C	-1.123095	-1.108809	-0.281603
C186	C	-1.192172	-1.099240	-0.290495
C187	C	-1.229497	-1.144196	-0.249195
H188	H	-1.111220	-1.098612	-0.235664
H189	H	-1.113440	-1.155998	-0.293506
H190	H	-1.201824	-1.052061	-0.278588
H191	H	-1.204068	-1.109442	-0.336425
H192	H	-1.219842	-1.191385	-0.261098
H193	H	-1.217616	-1.133995	-0.203259
H194	H	-1.276370	-1.137714	-0.255227
C195	C	-0.759384	-0.921176	-0.454229
C196	C	-0.711684	-0.881813	-0.490491
C197	C	-0.745047	-0.836848	-0.531986
H198	H	-0.785742	-0.890538	-0.427132
H199	H	-0.788009	-0.948019	-0.484887
H200	H	-0.683071	-0.854972	-0.459836
H201	H	-0.685324	-0.912433	-0.517600
H202	H	-0.773672	-0.863691	-0.562645
H203	H	-0.771404	-0.806215	-0.504885
H204	H	-0.712688	-0.810140	-0.556600
H205	H	-1.106183	-0.933529	-0.442984
H206	H	-0.424263	-0.527734	-0.424021
H207	H	-0.757108	-1.096483	-0.292687
H208	H	-0.305750	-0.416073	-0.305870
