data_functionalizedCrystal
_audit_creation_method	'MofGen! by Chris Wilmer'
_symmetry_space_group_name_H-M	'P1'
_symmetry_Int_Tables_number	1
_symmetry_cell_setting	triclinic
loop_
_symmetry_equiv_pos_as_xyz
  x,y,z
_cell_length_a	19.121102
_cell_length_b	19.121725
_cell_length_c	19.120904
_cell_angle_alpha	94.952502
_cell_angle_beta	90.088173
_cell_angle_gamma	85.251956
loop_
_atom_site_label
_atom_site_type_symbol
_atom_site_fract_x
_atom_site_fract_y
_atom_site_fract_z
Zn1	Zn	1.068879	-0.344788	-0.457366
Zn2	Zn	1.078400	-0.457852	-0.345148
Zn3	Zn	0.956239	-0.334763	-0.334705
Zn4	Zn	0.956192	-0.457378	-0.457329
O5	O	1.014927	-0.398695	-0.398637
O6	O	1.168426	-0.364180	-0.446866
O7	O	1.066200	-0.437527	-0.245480
O8	O	0.967216	-0.237460	-0.346621
O9	O	1.175421	-0.447248	-0.364420
O10	O	1.049972	-0.244826	-0.436740
O11	O	0.976449	-0.347094	-0.237808
O12	O	0.857949	-0.346634	-0.346586
O13	O	0.967136	-0.446440	-0.555616
O14	O	0.857914	-0.436719	-0.436677
O15	O	1.049926	-0.363721	-0.555644
O16	O	1.066154	-0.556422	-0.364384
O17	O	0.976368	-0.556074	-0.446803
C18	C	0.832448	-0.390538	-0.390494
C19	C	0.754382	-0.387066	-0.387028
C20	C	0.717712	-0.432402	-0.432238
C21	C	0.644361	-0.429130	-0.428985
C22	C	0.607680	-0.380525	-0.380517
C23	C	0.644355	-0.335184	-0.335305
C24	C	0.717705	-0.338453	-0.338563
C25	C	0.386210	-0.368303	-0.368341
C26	C	0.312855	-0.365039	-0.365085
C27	C	0.312866	-0.458985	-0.458766
C28	C	0.386218	-0.462252	-0.462017
C29	C	0.422886	-0.416908	-0.416807
C30	C	0.532703	-0.377182	-0.377189
C31	C	0.497861	-0.420249	-0.420140
C32	C	1.022307	-0.581823	-0.406739
C33	C	1.025528	-0.660170	-0.410231
C34	C	0.983996	-0.693206	-0.364925
C35	C	0.987029	-0.766822	-0.368210
C36	C	1.031590	-0.807400	-0.416805
C37	C	1.073126	-0.774359	-0.462113
C38	C	1.070096	-0.700745	-0.458825
C39	C	1.042895	-1.029856	-0.429080
C40	C	1.045920	-1.103475	-0.432367
C41	C	0.959823	-1.095933	-0.338462
C42	C	0.956794	-1.022317	-0.335181
C43	C	0.998333	-0.989283	-0.380487
C44	C	1.034690	-0.882647	-0.420165
C45	C	0.995237	-0.914037	-0.377122
C46	C	1.198120	-0.406885	-0.406812
C47	C	1.276186	-0.410375	-0.410295
C48	C	1.007463	-0.406146	-0.581826
C49	C	1.004283	-0.409321	-0.659890
C50	C	1.007537	-0.214854	-0.390520
C51	C	1.004388	-0.136511	-0.387061
C52	C	1.045891	-0.367747	-0.696580
C53	C	1.042893	-0.370728	-0.769929
C54	C	0.998291	-0.415286	-0.806588
C55	C	0.956679	-0.456861	-0.769892
C56	C	0.959673	-0.453877	-0.696544
C57	C	0.987091	-0.426448	-1.028050
C58	C	0.984102	-0.429431	-1.101404
C59	C	1.070316	-0.343296	-1.101436
C60	C	1.073309	-0.340318	-1.028086
C61	C	1.031694	-0.381891	-0.991397
C62	C	0.995228	-0.418335	-0.881562
C63	C	1.034754	-0.378838	-0.916424
C64	C	1.022401	-0.391225	-0.216160
C65	C	1.025710	-0.387857	-0.138094
H66	H	0.527729	-0.459820	-0.459605
Br67	Br	0.263099	-0.520522	-0.520116
Br68	Br	0.482917	-0.311217	-0.311415
Br69	Br	1.133608	-0.829429	-0.528060
H70	H	0.947707	-0.660172	-0.325356
Br71	Br	1.095273	-0.318358	-0.866672
H72	H	0.920509	-0.989280	-0.295611
H73	H	1.070970	-0.915694	-0.459733
Br74	Br	0.435994	-0.528222	-0.527793
H75	H	0.747572	-0.471984	-0.471704
Br76	Br	1.126468	-0.655910	-0.520310
Br77	Br	0.767471	-0.276919	-0.277208
H78	H	1.109631	-0.304036	-0.998244
Br79	Br	1.126789	-0.286878	-1.151231
H80	H	0.282992	-0.325451	-0.325621
Br81	Br	0.930664	-0.811654	-0.306718
H82	H	0.947779	-0.465717	-1.131249
Br83	Br	1.106431	-0.307278	-0.646837
Br84	Br	0.594597	-0.490659	-0.490346
H85	H	0.958958	-0.880996	-0.337554
H86	H	0.926005	-1.122837	-0.301576
Br87	Br	0.594575	-0.269213	-0.269533
H88	H	0.416057	-0.331386	-0.331523
Br89	Br	1.106405	-1.158547	-0.498317
H90	H	1.076716	-1.002966	-0.465972
Br91	Br	0.930612	-0.482867	-0.978267
H92	H	1.076777	-0.336875	-0.799799
Br93	Br	0.896142	-0.517330	-0.819641
Br94	Br	0.903198	-0.510296	-0.646749
H95	H	0.958916	-0.454618	-0.911418
