data_functionalizedCrystal
_audit_creation_method	'MofGen! by Chris Wilmer'
_symmetry_space_group_name_H-M	'P1'
_symmetry_Int_Tables_number	1
_symmetry_cell_setting	triclinic
loop_
_symmetry_equiv_pos_as_xyz
  x,y,z
_cell_length_a	14.853567
_cell_length_b	27.732048
_cell_length_c	13.930277
_cell_angle_alpha	89.990485
_cell_angle_beta	89.995755
_cell_angle_gamma	83.138793
loop_
_atom_site_label
_atom_site_type_symbol
_atom_site_fract_x
_atom_site_fract_y
_atom_site_fract_z
O1	O	1.195342	0.063107	-0.079776
O2	O	0.932760	0.070624	-0.079793
O3	O	1.072206	-0.003493	-0.079766
O4	O	1.055896	0.137224	-0.079803
O5	O	1.072187	-0.003495	0.079896
O6	O	0.932741	0.070622	0.079869
O7	O	1.195323	0.063105	0.079886
Zn8	Zn	1.064029	0.066863	0.105227
Zn9	Zn	1.064054	0.066866	-0.105134
O10	O	1.055877	0.137222	0.079859
C11	C	0.899167	0.070283	0.000036
C12	C	0.799100	0.069262	0.000030
C13	C	0.387353	0.020920	0.000064
C14	C	0.364639	0.108973	0.000040
C15	C	0.458657	0.109933	0.000036
C16	C	0.517028	0.066385	0.000045
C17	C	0.481380	0.021878	0.000058
C18	C	0.494313	0.154439	0.000014
C19	C	0.588336	0.155401	0.000010
C20	C	0.646708	0.111853	0.000026
C21	C	0.611055	0.067344	0.000039
C22	C	0.669425	0.023796	0.000048
C23	C	0.633774	-0.020713	0.000069
C24	C	0.539752	-0.021670	0.000074
C25	C	0.740730	0.112809	0.000021
C26	C	0.763452	0.024755	0.000042
C27	C	1.071854	-0.021503	0.000068
C28	C	1.070823	-0.075162	0.000076
C29	C	1.146736	-0.413622	0.000032
C30	C	1.142911	-0.615300	0.000018
O31	O	1.212328	-0.646231	-0.000019
N32	N	1.060225	-0.634810	0.000013
C33	C	0.978490	-0.603898	0.000006
O34	O	0.908073	-0.625120	-0.000008
C35	C	0.982316	-0.402221	0.000013
C36	C	1.065007	-0.382714	0.000027
C37	C	1.229421	-0.394114	0.000045
C38	C	1.230376	-0.343698	0.000054
C39	C	1.148647	-0.312790	0.000049
C40	C	1.065963	-0.332298	0.000036
C41	C	0.900582	-0.371310	-0.000002
C42	C	0.901546	-0.320888	-0.000003
C43	C	0.984237	-0.301381	0.000012
C44	C	0.985189	-0.250973	0.000040
N45	N	1.067875	-0.231462	0.000044
C46	C	1.149604	-0.262371	0.000049
C47	C	0.976487	-0.709781	0.000004
C48	C	0.975530	-0.760200	0.000004
C49	C	1.139952	-0.771599	0.000015
C50	C	1.140908	-0.721179	0.000021
C51	C	1.059173	-0.690271	0.000009
C52	C	1.151604	-0.156492	0.000068
C53	C	1.152552	-0.106071	0.000081
C54	C	0.988131	-0.094677	0.000065
C55	C	0.987183	-0.145094	0.000057
C56	C	1.068926	-0.176001	0.000056
O57	O	0.915809	-0.220013	0.000066
O58	O	1.220011	-0.241139	0.000042
C59	C	1.145781	-0.464039	0.000023
C60	C	1.063097	-0.483547	0.000010
C61	C	0.981367	-0.452638	0.000005
C62	C	1.062140	-0.533966	0.000010
C63	C	1.143869	-0.564874	0.000014
C64	C	1.226555	-0.545364	0.000019
C65	C	1.227510	-0.494947	0.000028
C66	C	0.898682	-0.472149	0.000000
C67	C	0.897733	-0.522566	-0.000007
C68	C	0.979462	-0.553474	-0.000003
C69	C	1.228915	0.063446	0.000055
C70	C	1.328982	0.064467	0.000055
C71	C	1.056228	0.155232	0.000023
C72	C	1.057259	0.208891	0.000009
N73	N	1.064018	0.066862	0.248793
N74	N	1.064072	0.066863	-0.248700
C75	C	1.002305	0.099672	0.701050
C76	C	1.125828	0.034056	0.701044
C77	C	1.125817	0.034054	0.600549
C78	C	1.064050	0.066862	0.550299
C79	C	1.002294	0.099672	0.600545
C80	C	1.187578	0.001248	0.550295
C81	C	1.187571	0.001246	0.449793
C82	C	1.125799	0.034052	0.399542
C83	C	1.064040	0.066863	0.449794
C84	C	1.002273	0.099671	0.399545
C85	C	0.940508	0.132480	0.449795
C86	C	0.940522	0.132479	0.550294
C87	C	1.125785	0.034053	0.299043
C88	C	1.002262	0.099672	0.299040
H89	H	1.219892	-0.090191	0.000095
C90	C	0.809620	-0.392757	-0.000026
H91	H	0.761091	-0.367122	-0.000041
H92	H	0.805806	-0.412194	0.055646
H93	H	0.805838	-0.412180	-0.055716
C94	C	0.934372	0.135760	0.756319
H95	H	0.943224	0.131065	0.823371
H96	H	0.874280	0.130453	0.739859
H97	H	0.943717	0.168031	0.739836
H98	H	1.176121	0.007346	0.741961
C99	C	0.934319	0.135763	0.243773
H100	H	0.897544	0.155303	0.288095
H101	H	0.897035	0.118339	0.204576
H102	H	0.966468	0.155919	0.204561
C103	C	1.255516	-0.034837	0.605568
H104	H	1.246668	-0.030141	0.672618
H105	H	1.315606	-0.029528	0.589090
H106	H	1.246174	-0.067108	0.589110
H107	H	1.237861	-0.025469	0.408885
C108	C	0.872570	0.168570	0.394519
H109	H	0.835791	0.188112	0.438834
H110	H	0.835291	0.151145	0.355320
H111	H	0.904725	0.188724	0.355308
C112	C	0.811635	-0.286892	-0.000013
H113	H	0.762256	-0.305734	-0.000015
H114	H	0.808596	-0.266980	-0.055687
H115	H	0.808579	-0.266994	0.055675
H116	H	0.358321	-0.015319	0.000085
H117	H	0.317109	0.144427	0.000024
H118	H	0.830391	-0.538443	-0.000011
H119	H	1.294846	-0.479069	0.000039
C120	C	0.872598	0.168568	0.605571
H121	H	0.881460	0.163873	0.672620
H122	H	0.812502	0.163263	0.589121
H123	H	0.881943	0.200839	0.589084
H124	H	1.176076	0.007343	0.258133
H125	H	0.681311	-0.056169	0.000070
C126	C	0.827653	-0.023148	0.000047
H127	H	0.792952	-0.049791	0.000052
H128	H	0.864809	-0.024607	0.055718
H129	H	0.864797	-0.024603	-0.055644
H130	H	0.510716	-0.057907	0.000113
H131	H	0.769753	0.149048	0.000006
C132	C	1.229854	-0.805602	0.000014
H133	H	1.279242	-0.786766	0.000020
H134	H	1.232894	-0.825502	-0.055664
H135	H	1.232892	-0.825512	0.055698
H136	H	0.446781	0.189893	-0.000003
H137	H	0.919849	-0.160977	0.000072
C138	C	0.627545	0.204358	0.000000
H139	H	0.579315	0.230155	0.000003
H140	H	0.663757	0.206565	-0.055675
H141	H	0.663744	0.206559	0.055687
H142	H	1.218168	-0.181651	0.000063
H143	H	1.297712	-0.327820	0.000061
H144	H	1.295978	-0.419276	0.000045
H145	H	1.208242	-0.705300	0.000032
H146	H	0.908195	-0.776078	0.000009
C147	C	0.886573	-0.675788	0.000003
H148	H	0.837198	-0.694634	0.000011
H149	H	0.883521	-0.655876	-0.055672
H150	H	0.883522	-0.655890	0.055691
H151	H	1.293101	-0.570538	0.000027
C152	C	0.898237	-0.060671	0.000054
H153	H	0.910656	-0.027851	0.000049
H154	H	0.864284	-0.066593	0.055723
H155	H	0.864316	-0.066586	-0.055639
H156	H	0.832126	-0.446987	-0.000006
