data_functionalizedCrystal
_audit_creation_method	'MofGen! by Chris Wilmer'
_symmetry_space_group_name_H-M	'P1'
_symmetry_Int_Tables_number	1
_symmetry_cell_setting	triclinic
loop_
_symmetry_equiv_pos_as_xyz
  x,y,z
_cell_length_a	19.288864
_cell_length_b	10.654541
_cell_length_c	18.366186
_cell_angle_alpha	90.004853
_cell_angle_beta	90.022929
_cell_angle_gamma	83.810087
loop_
_atom_site_label
_atom_site_type_symbol
_atom_site_fract_x
_atom_site_fract_y
_atom_site_fract_z
O1	O	0.922378	0.156655	0.060783
O2	O	0.720256	0.177787	0.060733
O3	O	0.825965	-0.015618	0.060755
O4	O	0.816669	0.350060	0.060761
O5	O	0.825946	-0.015623	-0.060344
O6	O	0.720237	0.177782	-0.060366
O7	O	0.922359	0.156649	-0.060316
Zn8	Zn	0.821295	0.167215	-0.079568
Zn9	Zn	0.821320	0.167222	0.079985
O10	O	0.816650	0.350055	-0.060338
C11	C	0.694365	0.177105	0.000177
C12	C	0.617248	0.175064	0.000158
C13	C	0.573295	0.288545	0.000172
C14	C	0.500835	0.286627	0.000180
C15	C	0.472332	0.171222	0.000189
C16	C	0.516296	0.057725	0.000171
C17	C	0.588754	0.059646	0.000156
C18	C	0.363483	0.080502	0.042638
C19	C	0.291026	0.078586	0.042658
C20	C	0.248848	0.165292	0.000233
C21	C	0.279134	0.253936	-0.042203
C22	C	0.351592	0.255857	-0.042218
C23	C	0.393765	0.169126	0.000205
C24	C	0.126325	0.276702	0.000254
C25	C	0.053864	0.274780	0.000257
C26	C	0.069327	0.045875	0.000256
C27	C	0.141786	0.047800	0.000245
C28	C	0.170280	0.163218	0.000248
C29	C	0.825273	-0.062404	0.000205
C30	C	0.823232	-0.201804	0.000206
C31	C	0.949636	-0.232481	0.000228
C32	C	1.011877	-0.313307	0.000237
C33	C	1.009955	-0.444284	0.000239
C34	C	0.945785	-0.494436	0.000234
C35	C	0.883545	-0.413609	0.000225
C36	C	0.885474	-0.282631	0.000221
C37	C	0.757142	-0.382933	0.000208
C38	C	0.759063	-0.251955	0.000201
C39	C	0.692973	-0.433084	0.000203
C40	C	0.630732	-0.352257	0.000188
C41	C	0.632656	-0.221273	0.000186
C42	C	0.696823	-0.171129	0.000192
C43	C	0.948250	0.157332	0.000241
C44	C	1.025367	0.159373	0.000265
C45	C	0.817342	0.396841	0.000213
C46	C	0.819383	0.536241	0.000217
N47	N	0.821284	0.167209	-0.188459
C48	C	0.863768	0.243187	-0.226541
C49	C	0.863780	0.243183	-0.302769
C50	C	0.821294	0.167217	-0.340912
C51	C	0.778806	0.091224	-0.302821
C52	C	0.778801	0.091221	-0.226595
C53	C	0.758661	0.164041	-0.461709
C54	C	0.758664	0.164054	-0.537934
C55	C	0.821309	0.167221	-0.576020
C56	C	0.883952	0.170402	-0.537871
C57	C	0.883947	0.170399	-0.461645
C58	C	0.821294	0.167212	-0.423567
C59	C	0.863810	0.243199	-0.696757
C60	C	0.863823	0.243186	-0.772986
C61	C	0.778842	0.091235	-0.773036
C62	C	0.778836	0.091240	-0.696808
C63	C	0.821319	0.167229	-0.658673
N64	N	0.821337	0.167218	0.188876
H65	H	0.177574	-0.044609	0.000238
H66	H	0.018077	0.367194	0.000264
Cl67	Cl	0.550071	-0.415312	0.000190
H68	H	0.266373	0.006412	0.077214
H69	H	0.581972	-0.155470	0.000181
H70	H	0.934952	0.172986	-0.430588
H71	H	0.244794	0.324541	-0.076750
Cl72	Cl	0.943371	-0.659094	0.000286
H73	H	1.064122	-0.272459	0.000235
Cl74	Cl	0.162150	0.421795	0.000249
Cl75	Cl	0.917231	0.338697	-0.648812
H76	H	0.744204	0.029349	-0.195589
H77	H	0.898424	0.305052	-0.803991
Cl78	Cl	0.952058	-0.067824	0.000209
Cl79	Cl	0.690557	-0.597742	0.000251
H80	H	0.698396	-0.064483	0.000185
Cl81	Cl	0.725438	-0.004282	-0.820980
Cl82	Cl	0.917162	0.338740	-0.178604
Cl83	Cl	0.445568	0.429301	0.000195
H84	H	0.046121	-0.048091	0.000309
Cl85	Cl	0.416501	-0.028512	0.095978
Cl86	Cl	0.917194	0.338704	-0.350654
Cl87	Cl	0.725397	-0.004280	-0.350771
Cl88	Cl	0.962711	0.174385	-0.585742
Cl89	Cl	0.480465	-0.087356	0.000178
Cl90	Cl	0.389665	0.367284	-0.095566
Cl91	Cl	0.644013	-0.083028	0.000140
Cl92	Cl	0.725410	-0.004255	-0.648931
H93	H	1.060636	-0.510094	0.000252
H94	H	0.707644	0.161470	-0.430705
Cl95	Cl	0.609113	0.433641	0.000171
Cl96	Cl	0.679914	0.160067	-0.585884
