data_functionalizedCrystal
_audit_creation_method	'MofGen! by Chris Wilmer'
_symmetry_space_group_name_H-M	'P1'
_symmetry_Int_Tables_number	1
_symmetry_cell_setting	triclinic
loop_
_symmetry_equiv_pos_as_xyz
  x,y,z
_cell_length_a	21.395361
_cell_length_b	21.395362
_cell_length_c	21.395355
_cell_angle_alpha	89.956060
_cell_angle_beta	90.021511
_cell_angle_gamma	89.953415
loop_
_atom_site_label
_atom_site_type_symbol
_atom_site_fract_x
_atom_site_fract_y
_atom_site_fract_z
Zn1	Zn	-0.249246	-0.957859	0.354573
Zn2	Zn	0.000754	-0.707859	0.604573
Zn3	Zn	0.250754	-0.457859	0.854573
Zn4	Zn	0.500754	-0.207859	1.104573
Zn5	Zn	-0.354005	-0.957762	0.249790
Zn6	Zn	-0.104005	-0.707762	0.499790
Zn7	Zn	0.145995	-0.457762	0.749790
Zn8	Zn	0.395995	-0.207762	0.999790
Zn9	Zn	-0.249275	-0.853074	0.249774
Zn10	Zn	0.000725	-0.603074	0.499774
Zn11	Zn	0.250725	-0.353074	0.749774
Zn12	Zn	0.500725	-0.103074	0.999774
Zn13	Zn	-0.354018	-0.853044	0.354494
Zn14	Zn	-0.104018	-0.603044	0.604494
Zn15	Zn	0.145982	-0.353044	0.854494
Zn16	Zn	0.395982	-0.103044	1.104494
O17	O	-0.301636	-0.905435	0.302158
O18	O	-0.051636	-0.655435	0.552158
O19	O	0.198364	-0.405435	0.802158
O20	O	0.448364	-0.155435	1.052158
O21	O	-0.263125	-1.045524	0.340712
O22	O	-0.013125	-0.795524	0.590712
O23	O	0.236875	-0.545524	0.840712
O24	O	0.486875	-0.295524	1.090712
O25	O	-0.340119	-0.943847	0.162110
O26	O	-0.090119	-0.693847	0.412110
O27	O	0.159881	-0.443847	0.662110
O28	O	0.409881	-0.193847	0.912110
O29	O	-0.161593	-0.867028	0.263702
O30	O	0.088407	-0.617028	0.513702
O31	O	0.338407	-0.367028	0.763702
O32	O	0.588407	-0.117028	1.013702
O33	O	-0.340091	-1.045453	0.263729
O34	O	-0.090091	-0.795453	0.513729
O35	O	0.159909	-0.545453	0.763729
O36	O	0.409909	-0.295453	1.013729
O37	O	-0.161572	-0.944013	0.340697
O38	O	0.088428	-0.694013	0.590697
O39	O	0.338428	-0.444013	0.840697
O40	O	0.588428	-0.194013	1.090697
O41	O	-0.263174	-0.866934	0.162098
O42	O	-0.013174	-0.616934	0.412098
O43	O	0.236826	-0.366934	0.662098
O44	O	0.486826	-0.116934	0.912098
O45	O	-0.263187	-0.765392	0.263626
O46	O	-0.013187	-0.515392	0.513626
O47	O	0.236813	-0.265392	0.763626
O48	O	0.486813	-0.015392	1.013626
O49	O	-0.340113	-0.866976	0.442183
O50	O	-0.090113	-0.616976	0.692183
O51	O	0.159887	-0.366976	0.942183
O52	O	0.409887	-0.116976	1.192183
O53	O	-0.340141	-0.765370	0.340564
O54	O	-0.090141	-0.515370	0.590564
O55	O	0.159859	-0.265370	0.840564
O56	O	0.409859	-0.015370	1.090564
O57	O	-0.263137	-0.943983	0.442240
O58	O	-0.013137	-0.693983	0.692240
O59	O	0.236863	-0.443983	0.942240
O60	O	0.486863	-0.193983	1.192240
O61	O	-0.441685	-0.943817	0.263653
O62	O	-0.191685	-0.693817	0.513653
O63	O	0.058315	-0.443817	0.763653
O64	O	0.308315	-0.193817	1.013653
O65	O	-0.441695	-0.866881	0.340579
O66	O	-0.191695	-0.616881	0.590579
O67	O	0.058305	-0.366881	0.840579
O68	O	0.308305	-0.116881	1.090579
C69	C	-0.301669	-0.742647	0.302085
C70	C	-0.051669	-0.492647	0.552085
C71	C	0.198331	-0.242647	0.802085
C72	C	0.448331	0.007353	1.052085
C73	C	-0.301698	-0.673006	0.302069
C74	C	-0.051698	-0.423006	0.552069
C75	C	0.198302	-0.173006	0.802069
C76	C	0.448302	0.076994	1.052069
C77	C	-0.464424	-0.905352	0.302123
C78	C	-0.214424	-0.655352	0.552123
C79	C	0.035576	-0.405352	0.802123
C80	C	0.285576	-0.155352	1.052123
C81	C	-0.534065	-0.905374	0.302129
C82	C	-0.284065	-0.655374	0.552129
C83	C	-0.034065	-0.405374	0.802129
C84	C	0.215935	-0.155374	1.052129
C85	C	-0.301623	-0.905487	0.465581
C86	C	-0.051623	-0.655487	0.715581
C87	C	0.198377	-0.405487	0.965581
C88	C	0.448377	-0.155487	1.215581
C89	C	-0.301618	-0.905509	0.535222
C90	C	-0.051618	-0.655509	0.785222
C91	C	0.198382	-0.405509	1.035222
C92	C	0.448382	-0.155509	1.285222
C93	C	-0.566752	-0.945470	0.262114
C94	C	-0.316752	-0.695470	0.512114
C95	C	-0.066752	-0.445470	0.762114
C96	C	0.183248	-0.195470	1.012114
C97	C	-0.632188	-0.945499	0.262128
C98	C	-0.382188	-0.695499	0.512128
C99	C	-0.132188	-0.445499	0.762128
C100	C	0.117812	-0.195499	1.012128
C101	C	-0.664933	-0.905421	0.302150
C102	C	-0.414933	-0.655421	0.552150
C103	C	-0.164933	-0.405421	0.802150
C104	C	0.085067	-0.155421	1.052150
C105	C	-0.632238	-0.865322	0.342172
C106	C	-0.382238	-0.615322	0.592172
C107	C	-0.132238	-0.365322	0.842172
C108	C	0.117762	-0.115322	1.092172
C109	C	-0.566804	-0.865299	0.342162
C110	C	-0.316804	-0.615299	0.592162
C111	C	-0.066804	-0.365299	0.842162
C112	C	0.183196	-0.115299	1.092162
C113	C	-0.768664	-0.849006	0.307041
C114	C	-0.518664	-0.599006	0.557041
C115	C	-0.268664	-0.349006	0.807041
C116	C	-0.018664	-0.099006	1.057041
C117	C	-0.834097	-0.849029	0.307047
C118	C	-0.584097	-0.599029	0.557047
C119	C	-0.334097	-0.349029	0.807047
C120	C	-0.084097	-0.099029	1.057047
C121	C	-0.866754	-0.905494	0.302187
C122	C	-0.616754	-0.655494	0.552187
C123	C	-0.366754	-0.405494	0.802187
C124	C	-0.116754	-0.155494	1.052187
C125	C	-0.833970	-0.961939	0.297307
C126	C	-0.583970	-0.711939	0.547307
C127	C	-0.333970	-0.461939	0.797307
C128	C	-0.083970	-0.211939	1.047307
C129	C	-0.768536	-0.961915	0.297296
C130	C	-0.518536	-0.711915	0.547296
C131	C	-0.268536	-0.461915	0.797296
C132	C	-0.018536	-0.211915	1.047296
C133	C	-0.735886	-0.905443	0.302167
C134	C	-0.485886	-0.655443	0.552167
C135	C	-0.235886	-0.405443	0.802167
C136	C	0.014114	-0.155443	1.052167
C137	C	-0.970394	-0.945625	0.262186
C138	C	-0.720394	-0.695625	0.512186
C139	C	-0.470394	-0.445625	0.762186
C140	C	-0.220394	-0.195625	1.012186
C141	C	-1.035830	-0.945655	0.262204
C142	C	-0.785830	-0.695655	0.512204
C143	C	-0.535830	-0.445655	0.762204
C144	C	-0.285830	-0.195655	1.012204
C145	C	-1.035879	-0.865473	0.342245
C146	C	-0.785879	-0.615473	0.592245
C147	C	-0.535879	-0.365473	0.842245
C148	C	-0.285879	-0.115473	1.092245
C149	C	-0.970444	-0.865448	0.342230
C150	C	-0.720444	-0.615448	0.592230
C151	C	-0.470444	-0.365448	0.842230
C152	C	-0.220444	-0.115448	1.092230
C153	C	-0.937705	-0.905524	0.302197
C154	C	-0.687705	-0.655524	0.552197
C155	C	-0.437705	-0.405524	0.802197
C156	C	-0.187705	-0.155524	1.052197
C157	C	-0.138213	-0.905535	0.302206
C158	C	0.111787	-0.655535	0.552206
C159	C	0.361787	-0.405535	0.802206
C160	C	0.611787	-0.155535	1.052206
C161	C	-0.068571	-0.905578	0.302227
C162	C	0.181429	-0.655578	0.552227
C163	C	0.431429	-0.405578	0.802227
C164	C	0.681429	-0.155578	1.052227
C165	C	-0.301603	-1.068858	0.302231
C166	C	-0.051603	-0.818858	0.552231
C167	C	0.198397	-0.568858	0.802231
C168	C	0.448397	-0.318858	1.052231
C169	C	-0.301589	-1.138499	0.302262
C170	C	-0.051589	-0.888499	0.552262
C171	C	0.198411	-0.638499	0.802262
C172	C	0.448411	-0.388499	1.052262
C173	C	-0.341822	-0.640297	0.342070
C174	C	-0.091822	-0.390297	0.592070
C175	C	0.158178	-0.140297	0.842070
C176	C	0.408178	0.109703	1.092070
C177	C	-0.341806	-0.574862	0.342098
C178	C	-0.091806	-0.324862	0.592098
C179	C	0.158194	-0.074862	0.842098
C180	C	0.408194	0.175138	1.092098
C181	C	-0.301674	-0.542138	0.302113
C182	C	-0.051674	-0.292138	0.552113
C183	C	0.198326	-0.042138	0.802113
C184	C	0.448326	0.207862	1.052113
C185	C	-0.261543	-0.574854	0.262109
C186	C	-0.011543	-0.324854	0.512109
C187	C	0.238457	-0.074854	0.762109
C188	C	0.488457	0.175146	1.012109
C189	C	-0.261555	-0.640288	0.262087
C190	C	-0.011555	-0.390288	0.512087
C191	C	0.238445	-0.140288	0.762087
C192	C	0.488445	0.109712	1.012087
C193	C	-0.296627	-0.438413	0.245708
C194	C	-0.046627	-0.188413	0.495708
C195	C	0.203373	0.061587	0.745708
C196	C	0.453373	0.311587	0.995708
C197	C	-0.296619	-0.372980	0.245730
C198	C	-0.046619	-0.122980	0.495730
C199	C	0.203381	0.127020	0.745730
C200	C	0.453381	0.377020	0.995730
C201	C	-0.301633	-0.340317	0.302182
C202	C	-0.051633	-0.090317	0.552182
C203	C	0.198367	0.159683	0.802182
C204	C	0.448367	0.409683	1.052182
C205	C	-0.306668	-0.373095	0.358616
C206	C	-0.056668	-0.123095	0.608616
C207	C	0.193332	0.126905	0.858616
C208	C	0.443332	0.376905	1.108616
C209	C	-0.306681	-0.438529	0.358594
C210	C	-0.056681	-0.188529	0.608594
C211	C	0.193319	0.061471	0.858594
C212	C	0.443319	0.311471	1.108594
C213	C	-0.301656	-0.471185	0.302133
C214	C	-0.051656	-0.221185	0.552133
C215	C	0.198344	0.028815	0.802133
C216	C	0.448344	0.278815	1.052133
C217	C	-0.341742	-0.236656	0.342218
C218	C	-0.091742	0.013344	0.592218
C219	C	0.158258	0.263344	0.842218
C220	C	0.408258	0.513344	1.092218
C221	C	-0.341723	-0.171219	0.342247
C222	C	-0.091723	0.078781	0.592247
C223	C	0.158277	0.328781	0.842247
C224	C	0.408277	0.578781	1.092247
C225	C	-0.261462	-0.171213	0.262252
C226	C	-0.011462	0.078787	0.512252
C227	C	0.238538	0.328787	0.762252
C228	C	0.488538	0.578787	1.012252
C229	C	-0.261479	-0.236648	0.262229
C230	C	-0.011479	0.013352	0.512229
C231	C	0.238521	0.263352	0.762229
C232	C	0.488521	0.513352	1.012229
C233	C	-0.301622	-0.269366	0.302211
C234	C	-0.051622	-0.019366	0.552211
C235	C	0.198378	0.230634	0.802211
C236	C	0.448378	0.480634	1.052211
C237	C	-0.301603	-0.905419	0.139370
C238	C	-0.051603	-0.655419	0.389370
C239	C	0.198397	-0.405419	0.639370
C240	C	0.448397	-0.155419	0.889370
C241	C	-0.301432	-0.905518	0.069729
C242	C	-0.051432	-0.655518	0.319729
C243	C	0.198568	-0.405518	0.569729
C244	C	0.448568	-0.155518	0.819729
C245	C	-0.261535	-0.945605	0.567966
C246	C	-0.011535	-0.695605	0.817966
C247	C	0.238465	-0.445605	1.067966
C248	C	0.488465	-0.195605	1.317966
C249	C	-0.261508	-0.945604	0.633402
C250	C	-0.011508	-0.695604	0.883402
C251	C	0.238492	-0.445604	1.133402
C252	C	0.488492	-0.195604	1.383402
C253	C	-0.301575	-0.905514	0.666091
C254	C	-0.051575	-0.655514	0.916091
C255	C	0.198425	-0.405514	1.166091
C256	C	0.448425	-0.155514	1.416091
C257	C	-0.341661	-0.865410	0.633339
C258	C	-0.091661	-0.615410	0.883339
C259	C	0.158339	-0.365410	1.133339
C260	C	0.408339	-0.115410	1.383339
C261	C	-0.341682	-0.865407	0.567904
C262	C	-0.091682	-0.615407	0.817904
C263	C	0.158318	-0.365407	1.067904
C264	C	0.408318	-0.115407	1.317904
C265	C	-0.357992	-0.900538	0.769752
C266	C	-0.107992	-0.650538	1.019752
C267	C	0.142008	-0.400538	1.269752
C268	C	0.392008	-0.150538	1.519752
C269	C	-0.357972	-0.900545	0.835185
C270	C	-0.107972	-0.650545	1.085185
C271	C	0.142028	-0.400545	1.335185
C272	C	0.392028	-0.150545	1.585185
C273	C	-0.301509	-0.905518	0.867911
C274	C	-0.051509	-0.655518	1.117911
C275	C	0.198491	-0.405518	1.367911
C276	C	0.448491	-0.155518	1.617911
C277	C	-0.245065	-0.910497	0.835197
C278	C	0.004935	-0.660497	1.085197
C279	C	0.254935	-0.410497	1.335197
C280	C	0.504935	-0.160497	1.585197
C281	C	-0.245086	-0.910495	0.769763
C282	C	0.004914	-0.660495	1.019763
C283	C	0.254914	-0.410495	1.269763
C284	C	0.504914	-0.160495	1.519763
C285	C	-0.301556	-0.905512	0.737043
C286	C	-0.051556	-0.655512	0.987043
C287	C	0.198444	-0.405512	1.237043
C288	C	0.448444	-0.155512	1.487043
C289	C	-0.261393	-0.945615	0.971608
C290	C	-0.011393	-0.695615	1.221608
C291	C	0.238607	-0.445615	1.471608
C292	C	0.488607	-0.195615	1.721608
C293	C	-0.261365	-0.945610	1.037045
C294	C	-0.011365	-0.695610	1.287045
C295	C	0.238635	-0.445610	1.537045
C296	C	0.488635	-0.195610	1.787045
C297	C	-0.341524	-0.865419	1.036980
C298	C	-0.091524	-0.615419	1.286980
C299	C	0.158476	-0.365419	1.536980
C300	C	0.408476	-0.115419	1.786980
C301	C	-0.341547	-0.865421	0.971545
C302	C	-0.091547	-0.615421	1.221545
C303	C	0.158453	-0.365421	1.471545
C304	C	0.408453	-0.115421	1.721545
C305	C	-0.301482	-0.905522	0.938863
C306	C	-0.051482	-0.655522	1.188863
C307	C	0.198518	-0.405522	1.438863
C308	C	0.448518	-0.155522	1.688863
H309	H	-0.540098	-0.978103	0.229519
H310	H	-0.290098	-0.728103	0.479519
H311	H	-0.040098	-0.478103	0.729519
H312	H	0.209902	-0.228103	0.979519
Cl313	Cl	-0.673289	-0.995909	0.211820
Cl314	Cl	-0.423289	-0.745909	0.461820
Cl315	Cl	-0.173289	-0.495909	0.711820
Cl316	Cl	0.076711	-0.245909	0.961820
H317	H	-0.658904	-0.832691	0.374760
H318	H	-0.408904	-0.582691	0.624760
H319	H	-0.158904	-0.332691	0.874760
H320	H	0.091096	-0.082691	1.124760
Cl321	Cl	-0.392078	-0.814997	0.526738
Cl322	Cl	-0.142078	-0.564997	0.776738
Cl323	Cl	0.107922	-0.314997	1.026738
Cl324	Cl	0.357922	-0.064997	1.276738
H325	H	-0.403932	-0.896494	0.861815
H326	H	-0.153932	-0.646494	1.111815
H327	H	0.096068	-0.396494	1.361815
H328	H	0.346068	-0.146494	1.611815
H329	H	-0.199128	-0.914547	0.743130
H330	H	0.050872	-0.664547	0.993130
H331	H	0.300872	-0.414547	1.243130
H332	H	0.550872	-0.164547	1.493130
H333	H	-0.292523	-0.346297	0.199778
H334	H	-0.042523	-0.096297	0.449778
H335	H	0.207477	0.153703	0.699778
H336	H	0.457477	0.403703	0.949778
H337	H	-0.741844	-1.007873	0.293325
H338	H	-0.491844	-0.757873	0.543325
H339	H	-0.241844	-0.507873	0.793325
H340	H	0.008156	-0.257873	1.043325
H341	H	-0.860558	-1.007918	0.293349
H342	H	-0.610558	-0.757918	0.543349
H343	H	-0.360558	-0.507918	0.793349
H344	H	-0.110558	-0.257918	1.043349
H345	H	-1.062443	-0.978310	0.229621
H346	H	-0.812443	-0.728310	0.479621
H347	H	-0.562443	-0.478310	0.729621
H348	H	-0.312443	-0.228310	0.979621
Cl349	Cl	-0.727616	-0.778015	0.313152
Cl350	Cl	-0.477616	-0.528015	0.563152
Cl351	Cl	-0.227616	-0.278015	0.813152
Cl352	Cl	0.022384	-0.028015	1.063152
H353	H	-0.374509	-0.666932	0.374627
H354	H	-0.124509	-0.416932	0.624627
H355	H	0.125491	-0.166932	0.874627
H356	H	0.375491	0.083068	1.124627
H357	H	-0.310751	-0.346502	0.404585
H358	H	-0.060751	-0.096502	0.654585
H359	H	0.189249	0.153498	0.904585
H360	H	0.439249	0.403498	1.154585
Cl361	Cl	-0.929349	-0.815036	0.392534
Cl362	Cl	-0.679349	-0.565036	0.642534
Cl363	Cl	-0.429349	-0.315036	0.892534
Cl364	Cl	-0.179349	-0.065036	1.142534
H365	H	-0.374282	-0.832766	0.659958
H366	H	-0.124282	-0.582766	0.909958
H367	H	0.125718	-0.332766	1.159958
H368	H	0.375718	-0.082766	1.409958
Cl369	Cl	-0.525709	-0.814887	0.392469
Cl370	Cl	-0.275709	-0.564887	0.642469
Cl371	Cl	-0.025709	-0.314887	0.892469
Cl372	Cl	0.224291	-0.064887	1.142469
H373	H	-0.374479	-0.548226	0.374674
H374	H	-0.124479	-0.298226	0.624674
H375	H	0.125521	-0.048226	0.874674
H376	H	0.375521	0.201774	1.124674
H377	H	-0.228866	-0.548206	0.229554
H378	H	0.021134	-0.298206	0.479554
H379	H	0.271134	-0.048206	0.729554
H380	H	0.521134	0.201794	0.979554
H381	H	-0.860785	-0.803068	0.311015
H382	H	-0.610785	-0.553068	0.561015
H383	H	-0.360785	-0.303068	0.811015
H384	H	-0.110785	-0.053068	1.061015
Cl385	Cl	-0.313006	-0.479734	0.429535
Cl386	Cl	-0.063006	-0.229734	0.679535
Cl387	Cl	0.186994	0.020266	0.929535
Cl388	Cl	0.436994	0.270266	1.179535
Cl389	Cl	-0.290325	-0.479468	0.174732
Cl390	Cl	-0.040325	-0.229468	0.424732
Cl391	Cl	0.209675	0.020532	0.674732
Cl392	Cl	0.459675	0.270532	0.924732
H393	H	-0.374426	-0.263296	0.374776
H394	H	-0.124426	-0.013296	0.624776
H395	H	0.125574	0.236704	0.874776
H396	H	0.375574	0.486704	1.124776
Cl397	Cl	-0.174078	-0.916752	0.876332
Cl398	Cl	0.075922	-0.666752	1.126332
Cl399	Cl	0.325922	-0.416752	1.376332
Cl400	Cl	0.575922	-0.166752	1.626332
H401	H	-0.228880	-0.666919	0.229513
H402	H	0.021120	-0.416919	0.479513
H403	H	0.271120	-0.166919	0.729513
H404	H	0.521120	0.083081	0.979513
Cl405	Cl	-1.077039	-0.815092	0.392563
Cl406	Cl	-0.827039	-0.565092	0.642563
Cl407	Cl	-0.577039	-0.315092	0.892563
Cl408	Cl	-0.327039	-0.065092	1.142563
H409	H	-0.228809	-0.263280	0.229652
H410	H	0.021191	-0.013280	0.479652
H411	H	0.271191	0.236720	0.729652
H412	H	0.521191	0.486720	0.979652
H413	H	-0.374190	-0.832774	0.944885
H414	H	-0.124190	-0.582774	1.194885
H415	H	0.125810	-0.332774	1.444885
H416	H	0.375810	-0.082774	1.694885
H417	H	-0.374395	-0.144589	0.374824
H418	H	-0.124395	0.105411	0.624824
H419	H	0.125605	0.355411	0.874824
H420	H	0.375605	0.605411	1.124824
H421	H	-0.943737	-0.978259	0.229590
H422	H	-0.693737	-0.728259	0.479590
H423	H	-0.443737	-0.478259	0.729590
H424	H	-0.193737	-0.228259	0.979590
H425	H	-0.228783	-0.144569	0.229699
H426	H	0.021217	0.105431	0.479699
H427	H	0.271217	0.355431	0.729699
H428	H	0.521217	0.605431	0.979699
Cl429	Cl	-0.211164	-0.996015	0.526883
Cl430	Cl	0.038836	-0.746015	0.776883
Cl431	Cl	0.288836	-0.496015	1.026883
Cl432	Cl	0.538836	-0.246015	1.276883
H433	H	-0.228767	-0.978265	0.944997
H434	H	0.021233	-0.728265	1.194997
H435	H	0.271233	-0.478265	1.444997
H436	H	0.521233	-0.228265	1.694997
Cl437	Cl	-0.210980	-0.996031	1.078209
Cl438	Cl	0.039020	-0.746031	1.328209
Cl439	Cl	0.289020	-0.496031	1.578209
Cl440	Cl	0.539020	-0.246031	1.828209
H441	H	-0.228864	-0.978254	0.660067
H442	H	0.021136	-0.728254	0.910067
H443	H	0.271136	-0.478254	1.160067
H444	H	0.521136	-0.228254	1.410067
H445	H	-0.374141	-0.832770	1.063595
H446	H	-0.124141	-0.582770	1.313595
H447	H	0.125859	-0.332770	1.563595
H448	H	0.375859	-0.082770	1.813595
H449	H	-0.403959	-0.896321	0.743111
H450	H	-0.153959	-0.646321	0.993111
H451	H	0.096041	-0.396321	1.243111
H452	H	0.346041	-0.146321	1.493111
