data_functionalizedCrystal
_audit_creation_method	'MofGen! by Chris Wilmer'
_symmetry_space_group_name_H-M	'P1'
_symmetry_Int_Tables_number	1
_symmetry_cell_setting	triclinic
loop_
_symmetry_equiv_pos_as_xyz
  x,y,z
_cell_length_a	19.188930
_cell_length_b	15.944493
_cell_length_c	15.021413
_cell_angle_alpha	89.993251
_cell_angle_beta	89.998889
_cell_angle_gamma	83.309913
loop_
_atom_site_label
_atom_site_type_symbol
_atom_site_fract_x
_atom_site_fract_y
_atom_site_fract_z
O1	O	0.089846	1.114223	-0.074030
O2	O	0.100990	0.869625	-0.074036
O3	O	-0.006221	0.998983	-0.074016
O4	O	0.197057	0.984865	-0.074051
O5	O	-0.006205	0.998962	0.074048
O6	O	0.101005	0.869604	0.074028
O7	O	0.089861	1.114202	0.074034
Zn8	Zn	0.095436	0.991900	0.097539
Zn9	Zn	0.095416	0.991927	-0.097542
O10	O	0.197072	0.984845	0.074013
C11	C	0.100542	0.838322	-0.000004
C12	C	0.099177	0.745078	-0.000006
C13	C	0.162283	0.509082	-0.000017
C14	C	0.128260	0.458641	0.072996
C15	C	0.096646	0.574367	-0.000004
C16	C	0.128229	0.458666	-0.072984
C17	C	0.094207	0.409466	-0.000005
C18	C	0.062641	0.525154	0.073070
C19	C	0.062620	0.525182	-0.072976
C20	C	0.028548	0.474774	0.000055
C21	C	0.098053	0.669361	-0.000002
C22	C	0.092795	0.314474	-0.000001
C23	C	-0.032225	0.998515	0.000019
C24	C	-0.109733	0.997143	0.000027
C25	C	-0.154474	1.073046	0.000033
C26	C	-0.227301	1.071756	0.000018
C27	C	-0.255384	0.994560	0.000016
C28	C	-0.210633	0.918647	0.000005
C29	C	-0.137808	0.919939	0.000010
N30	N	-0.363526	0.935545	0.050404
N31	N	-0.432707	0.934324	0.050400
C32	C	-0.474802	0.990664	-0.000002
N33	N	-0.445102	1.048285	-0.050390
N34	N	-0.375915	1.049509	-0.050383
C35	C	-0.334349	0.993151	0.000009
C36	C	-0.598510	1.065174	-0.000013
C37	C	-0.671338	1.063882	-0.000033
C38	C	-0.654669	0.910770	-0.000037
C39	C	-0.581842	0.912065	-0.000026
C40	C	-0.553768	0.989269	-0.000010
C41	C	0.223076	0.985312	-0.000023
C42	C	0.300584	0.986685	-0.000037
C43	C	0.090309	1.145506	0.000000
C44	C	0.091675	1.238749	-0.000004
N45	N	0.095449	0.991888	0.230677
N46	N	0.095397	0.991946	-0.230679
C47	C	0.145000	0.932064	0.470351
C48	C	0.158542	1.007916	0.529684
C49	C	0.095432	0.991909	0.412284
C50	C	0.081906	0.916078	0.529692
C51	C	0.095416	0.991923	0.587708
C52	C	0.109005	1.067799	0.470311
C53	C	0.032341	0.975912	0.470314
C54	C	0.045856	1.051819	0.529620
C55	C	0.095442	0.991900	0.311226
C56	C	0.095405	0.991941	0.688763
H57	H	0.155956	0.429632	-0.134702
H58	H	0.003928	1.102489	0.555480
H59	H	-0.028034	0.459520	0.000107
C60	C	-0.039704	0.957587	0.435047
C61	C	-0.083582	1.023104	0.376391
C62	C	-0.155627	1.004768	0.341122
C63	C	-0.183794	0.920914	0.364509
C64	C	-0.139916	0.855391	0.423168
C65	C	-0.067871	0.873727	0.458437
H66	H	-0.062732	1.085183	0.359076
H67	H	-0.188109	1.053273	0.297699
H68	H	-0.237126	0.907340	0.338401
H69	H	-0.160766	0.793313	0.440483
H70	H	-0.035389	0.825223	0.501860
H71	H	0.186952	0.881505	0.444327
C72	C	0.165711	0.419387	0.156369
C73	C	0.138951	0.447000	0.249722
C74	C	0.176405	0.407748	0.333091
C75	C	0.240620	0.340884	0.323107
C76	C	0.267384	0.313268	0.229750
C77	C	0.229929	0.352520	0.146381
H78	H	0.091412	0.496500	0.257116
H79	H	0.156593	0.428191	0.402200
H80	H	0.268347	0.311827	0.384822
H81	H	0.314922	0.263768	0.222356
H82	H	0.249741	0.332076	0.077272
H83	H	0.034944	0.554076	0.134858
C84	C	-0.088588	0.836440	0.000012
C85	C	-0.091718	0.773116	-0.076877
C86	C	-0.042497	0.689617	-0.076872
C87	C	0.009854	0.669441	0.000020
C88	C	0.012986	0.732767	0.076914
C89	C	-0.036235	0.816266	0.076910
H90	H	-0.130473	0.788050	-0.133802
H91	H	-0.044816	0.642739	-0.133795
H92	H	0.046291	0.607630	0.000023
H93	H	0.051742	0.717833	0.133839
H94	H	-0.033916	0.863143	0.133832
H95	H	-0.575651	1.128039	-0.000004
H96	H	0.070472	0.851943	0.555778
C97	C	0.230607	1.026214	0.564923
C98	C	0.296950	0.966375	0.541542
C99	C	0.369017	0.984667	0.576777
C100	C	0.374740	1.062797	0.635394
C101	C	0.308395	1.122641	0.658778
C102	C	0.236328	1.104350	0.623543
H103	H	0.292715	0.908533	0.498148
H104	H	0.418130	0.940366	0.559467
H105	H	0.428088	1.076338	0.661477
H106	H	0.312629	1.180483	0.702172
H107	H	0.187215	1.148651	0.640854
H108	H	0.218823	0.524494	0.000041
H109	H	0.120502	1.131948	0.444337
H110	H	0.034915	0.554240	-0.134695
C111	C	-0.241521	0.833730	0.000003
C112	C	-0.224634	0.770738	0.076884
C113	C	-0.255522	0.685818	0.076878
C114	C	-0.303296	0.663891	-0.000009
C115	C	-0.320185	0.726884	-0.076896
C116	C	-0.289298	0.811804	-0.076890
H117	H	-0.189267	0.786969	0.133806
H118	H	-0.243019	0.639186	0.133795
H119	H	-0.326161	0.601028	-0.000014
H120	H	-0.355553	0.710654	-0.133818
H121	H	-0.301801	0.858436	-0.133807
H122	H	-0.707766	1.125694	-0.000033
H123	H	-0.677533	0.847916	-0.000044
H124	H	-0.131621	1.135911	0.000043
H125	H	-0.263736	1.133567	0.000020
C126	C	-0.532622	0.828569	-0.000017
C127	C	-0.563507	0.743653	-0.000017
C128	C	-0.514287	0.660153	-0.000009
C129	C	-0.434181	0.661570	-0.000000
C130	C	-0.403292	0.746490	-0.000000
C131	C	-0.452513	0.829990	-0.000009
H132	H	-0.622810	0.742601	-0.000023
H133	H	-0.537153	0.597289	-0.000009
H134	H	-0.397745	0.599758	0.000006
H135	H	-0.343990	0.747542	0.000006
H136	H	-0.429646	0.892853	-0.000008
