data_functionalizedCrystal
_audit_creation_method	'MofGen! by Chris Wilmer'
_symmetry_space_group_name_H-M	'P1'
_symmetry_Int_Tables_number	1
_symmetry_cell_setting	triclinic
loop_
_symmetry_equiv_pos_as_xyz
  x,y,z
_cell_length_a	13.339070
_cell_length_b	10.868271
_cell_length_c	13.185408
_cell_angle_alpha	90.002862
_cell_angle_beta	83.801397
_cell_angle_gamma	90.005479
loop_
_atom_site_label
_atom_site_type_symbol
_atom_site_fract_x
_atom_site_fract_y
_atom_site_fract_z
O1	O	1.204770	0.102366	0.505094
O2	O	1.704770	0.602366	1.005094
O3	O	0.928293	0.102359	0.438797
O4	O	1.428293	0.602359	0.938797
O5	O	1.113900	0.102355	0.327529
O6	O	1.613900	0.602355	0.827529
O7	O	1.019163	0.102370	0.616361
O8	O	1.519163	0.602370	1.116361
O9	O	1.113886	-0.102290	0.327530
O10	O	1.613886	0.397710	0.827530
O11	O	0.928278	-0.102286	0.438798
O12	O	1.428278	0.397714	0.938798
O13	O	1.204756	-0.102278	0.505095
O14	O	1.704756	0.397722	1.005095
Zn15	Zn	1.066515	-0.134774	0.471946
Zn16	Zn	1.566515	0.365226	0.971946
Zn17	Zn	1.066534	0.134854	0.471945
Zn18	Zn	1.566534	0.634854	0.971945
O19	O	1.019149	-0.102274	0.616362
O20	O	1.519149	0.397726	1.116362
C21	C	0.893645	0.000036	0.427598
C22	C	1.393645	0.500036	0.927598
C23	C	0.790432	0.000033	0.394217
C24	C	1.290432	0.500033	0.894217
N25	N	1.066509	-0.318788	0.471949
N26	N	1.566509	0.181212	0.971949
C27	C	0.354975	0.000066	0.653772
C28	C	0.854975	0.500066	1.153772
C29	C	0.451948	0.000073	0.685138
C30	C	0.951948	0.500073	1.185138
C31	C	0.536573	0.000062	0.612411
C32	C	1.036573	0.500062	1.112411
C33	C	0.524217	0.000046	0.508311
C34	C	1.024217	0.500046	1.008311
C35	C	0.427234	0.000049	0.476941
C36	C	0.927234	0.500049	0.976941
C37	C	0.608832	0.000045	0.435580
C38	C	1.108832	0.500045	0.935580
C39	C	0.596476	0.000029	0.331481
C40	C	1.096476	0.500029	0.831481
C41	C	0.499502	0.000031	0.300116
C42	C	0.999502	0.500031	0.800116
C43	C	0.414877	0.000042	0.372844
C44	C	0.914877	0.500042	0.872844
C45	C	0.705815	0.000042	0.466950
C46	C	1.205815	0.500042	0.966950
C47	C	0.778074	0.000025	0.290120
C48	C	1.278074	0.500025	0.790120
C49	C	0.681101	0.000019	0.258753
C50	C	1.181101	0.500019	0.758753
C51	C	1.066516	-0.430126	0.471951
C52	C	1.566516	0.069874	0.971951
C53	C	1.066531	-0.569803	0.471946
C54	C	1.566531	-0.069803	0.971946
C55	C	1.239404	0.000048	0.516293
C56	C	1.739404	0.500048	1.016293
C57	C	1.342617	0.000059	0.549674
C58	C	1.842617	0.500059	1.049674
C59	C	1.123497	0.000033	0.289807
C60	C	1.623497	0.500033	0.789807
C61	C	1.152104	0.000035	0.177402
C62	C	1.652104	0.500035	0.677402
N63	N	1.066549	0.318868	0.471937
N64	N	1.566549	0.818868	0.971937
C65	C	1.253958	0.000035	0.138351
C66	C	1.753958	0.500035	0.638351
C67	C	1.280839	0.000047	0.032742
C68	C	1.780839	0.500047	0.532742
C69	C	1.205868	0.000049	-0.033826
C70	C	1.705868	0.500049	0.466174
C71	C	1.104011	0.000040	0.005225
C72	C	1.604011	0.500040	0.505225
C73	C	1.077128	0.000038	0.110844
C74	C	1.577128	0.500038	0.610844
C75	C	1.029038	0.000052	-0.061333
C76	C	1.529038	0.500052	0.438667
C77	C	0.927181	0.000043	-0.022282
C78	C	1.427181	0.500043	0.477718
C79	C	0.900303	0.000040	0.083327
C80	C	1.400303	0.500040	0.583327
C81	C	0.975274	0.000038	0.149895
C82	C	1.475274	0.500038	0.649895
C83	C	1.055921	0.000054	-0.166953
C84	C	1.555921	0.500054	0.333047
C85	C	0.879090	0.000056	-0.194460
C86	C	1.379090	0.500056	0.305540
C87	C	0.852210	0.000045	-0.088851
C88	C	1.352210	0.500045	0.411149
C89	C	1.009551	0.000050	0.654084
C90	C	1.509551	0.500050	1.154084
C91	C	0.980945	0.000056	0.766489
C92	C	1.480945	0.500056	1.266489
H93	H	0.715865	0.000050	0.551708
H94	H	1.215865	0.500050	1.051708
F95	F	1.333736	0.000047	0.209202
F96	F	1.833736	0.500047	0.709202
F97	F	0.639780	0.000067	0.645796
F98	F	1.139780	0.500067	1.145796
H99	H	0.953393	0.000024	0.235892
H100	H	1.453393	0.500024	0.735892
F101	F	0.465092	0.000095	0.795924
F102	F	0.965092	0.500095	1.295924
H103	H	0.818043	0.000061	-0.248660
H104	H	1.318043	0.500061	0.251340
F105	F	0.791898	0.000053	0.124885
F106	F	1.291898	0.500053	0.624885
H107	H	0.286067	0.000085	0.712975
H108	H	0.786067	0.500085	1.212975
F109	F	0.311663	0.000031	0.339466
F110	F	0.811663	0.500031	0.839466
H111	H	0.489447	0.000032	0.215352
H112	H	0.989447	0.500032	0.715352
H113	H	0.671026	0.000016	0.173993
H114	H	1.171026	0.500016	0.673993
H115	H	0.846979	0.000022	0.230898
H116	H	1.346979	0.500022	0.730898
F117	F	1.164321	0.000063	-0.208502
F118	F	1.664321	0.500063	0.291498
H119	H	1.227760	0.000058	-0.119817
H120	H	1.727760	0.500058	0.380183
H121	H	1.363771	0.000053	0.000954
H122	H	1.863771	0.500053	0.500954
H123	H	0.769277	0.000037	-0.057040
H124	H	1.269277	0.500037	0.442960
