data_functionalizedCrystal
_audit_creation_method	'MofGen! by Chris Wilmer'
_symmetry_space_group_name_H-M	'P1'
_symmetry_Int_Tables_number	1
_symmetry_cell_setting	triclinic
loop_
_symmetry_equiv_pos_as_xyz
  x,y,z
_cell_length_a	17.639617
_cell_length_b	21.395362
_cell_length_c	21.395355
_cell_angle_alpha	90.020549
_cell_angle_beta	101.248275
_cell_angle_gamma	101.213953
loop_
_atom_site_label
_atom_site_type_symbol
_atom_site_fract_x
_atom_site_fract_y
_atom_site_fract_z
Zn1	Zn	1.208574	-0.056162	0.548274
Zn2	Zn	1.541908	0.277171	0.881608
Zn3	Zn	1.875241	0.610504	1.214941
Zn4	Zn	1.208453	-0.160942	0.443474
Zn5	Zn	1.541787	0.172392	0.776807
Zn6	Zn	1.875120	0.505725	1.110140
Zn7	Zn	1.076363	-0.077314	0.422286
Zn8	Zn	1.409696	0.256020	0.755619
Zn9	Zn	1.743029	0.589353	1.088953
Zn10	Zn	1.076326	-0.182063	0.527002
Zn11	Zn	1.409659	0.151270	0.860336
Zn12	Zn	1.742993	0.484603	1.193669
O13	O	1.142429	-0.119120	0.485259
O14	O	1.475762	0.214213	0.818592
O15	O	1.809096	0.547546	1.151926
O16	O	1.319185	-0.052370	0.552142
O17	O	1.652518	0.280963	0.885475
O18	O	1.985852	0.614297	1.218808
O19	O	1.190896	-0.149861	0.352979
O20	O	1.524229	0.183473	0.686313
O21	O	1.857563	0.516806	1.019646
O22	O	1.093967	0.013180	0.439034
O23	O	1.427300	0.346514	0.772367
O24	O	1.760634	0.679847	1.105701
O25	O	1.319096	-0.129351	0.475145
O26	O	1.652429	0.203982	0.808478
O27	O	1.985763	0.537316	1.141812
O28	O	1.191102	0.028720	0.531597
O29	O	1.524435	0.362054	0.864930
O30	O	1.857769	0.695387	1.198263
O31	O	1.093850	-0.088420	0.337413
O32	O	1.427183	0.244914	0.670746
O33	O	1.760516	0.578247	1.004080
O34	O	0.965731	-0.108900	0.418407
O35	O	1.299065	0.224433	0.751741
O36	O	1.632398	0.557766	1.085074
O37	O	1.093904	-0.165350	0.617508
O38	O	1.427238	0.167984	0.950841
O39	O	1.760571	0.501317	1.284174
O40	O	0.965704	-0.185859	0.495342
O41	O	1.299038	0.147474	0.828675
O42	O	1.632371	0.480807	1.162009
O43	O	1.191066	-0.072851	0.633136
O44	O	1.524400	0.260482	0.966469
O45	O	1.857733	0.593816	1.299803
O46	O	1.190860	-0.251432	0.454519
O47	O	1.524194	0.081902	0.787852
O48	O	1.857527	0.415235	1.121185
O49	O	1.093787	-0.266950	0.515887
O50	O	1.427120	0.066384	0.849220
O51	O	1.760454	0.399717	1.182553
C52	C	0.937033	-0.151968	0.452268
C53	C	1.270367	0.181366	0.785601
C54	C	1.603700	0.514699	1.118934
C55	C	0.849164	-0.166035	0.438169
C56	C	1.182498	0.167298	0.771502
C57	C	1.515831	0.500632	1.104835
C58	C	1.142328	-0.281924	0.485211
C59	C	1.475661	0.051409	0.818544
C60	C	1.808995	0.384743	1.151877
C61	C	1.142357	-0.351561	0.485223
C62	C	1.475690	-0.018227	0.818556
C63	C	1.809024	0.315106	1.151889
C64	C	1.192906	-0.376130	0.533444
C65	C	1.526240	-0.042797	0.866777
C66	C	1.859573	0.290537	1.200111
C67	C	1.192934	-0.441561	0.533464
C68	C	1.526268	-0.108227	0.866797
C69	C	1.859601	0.225106	1.200130
C70	C	1.142421	-0.482419	0.485252
C71	C	1.475754	-0.149085	0.818586
C72	C	1.809088	0.184248	1.151919
C73	C	1.091862	-0.457843	0.437026
C74	C	1.425195	-0.124510	0.770360
C75	C	1.758529	0.208824	1.103693
C76	C	1.091830	-0.392414	0.437012
C77	C	1.425163	-0.059081	0.770345
C78	C	1.758497	0.274253	1.103678
C79	C	1.136267	-0.587103	0.427826
C80	C	1.469601	-0.253770	0.761159
C81	C	1.802934	0.079563	1.094492
C82	C	1.136305	-0.652530	0.427840
C83	C	1.469638	-0.319197	0.761174
C84	C	1.802972	0.014136	1.094507
C85	C	1.142515	-0.684224	0.485298
C86	C	1.475848	-0.350891	0.818631
C87	C	1.809182	-0.017558	1.151964
C88	C	1.148704	-0.650481	0.542745
C89	C	1.482037	-0.317147	0.876078
C90	C	1.815371	0.016186	1.209411
C91	C	1.148672	-0.585052	0.542730
C92	C	1.482005	-0.251718	0.876063
C93	C	1.815339	0.081615	1.209396
C94	C	1.142450	-0.553366	0.485263
C95	C	1.475783	-0.220033	0.818596
C96	C	1.809116	0.113300	1.151930
C97	C	1.193097	-0.779741	0.533544
C98	C	1.526430	-0.446408	0.866878
C99	C	1.859764	-0.113074	1.200211
C100	C	1.193119	-0.845174	0.533564
C101	C	1.526453	-0.511841	0.866897
C102	C	1.859786	-0.178507	1.200231
C103	C	1.092051	-0.861454	0.437122
C104	C	1.425384	-0.528121	0.770455
C105	C	1.758718	-0.194788	1.103789
C106	C	1.092025	-0.796023	0.437107
C107	C	1.425358	-0.462690	0.770440
C108	C	1.758691	-0.129357	1.103774
C109	C	1.142552	-0.755170	0.485318
C110	C	1.475885	-0.421836	0.818651
C111	C	1.809219	-0.088503	1.151985
C112	C	0.560376	-0.012239	0.592523
C113	C	0.893710	0.321095	0.925856
C114	C	1.227043	0.654428	1.259189
C115	C	0.477810	-0.025473	0.579262
C116	C	0.811143	0.307861	0.912595
C117	C	1.144476	0.641194	1.245928
C118	C	0.477739	-0.105500	0.498970
C119	C	0.811073	0.227833	0.832303
C120	C	1.144406	0.561167	1.165636
C121	C	0.560307	-0.092275	0.512226
C122	C	0.893641	0.241059	0.845559
C123	C	1.226974	0.574392	1.178893
C124	C	0.601619	-0.045643	0.559003
C125	C	0.934953	0.287690	0.892336
C126	C	1.268286	0.621024	1.225669
C127	C	0.601550	-0.125679	0.478706
C128	C	0.934884	0.207654	0.812039
C129	C	1.268217	0.540988	1.145373
C130	C	0.684111	-0.112452	0.491959
C131	C	1.017445	0.220881	0.825292
C132	C	1.350778	0.554214	1.158626
C133	C	0.725429	-0.065821	0.538732
C134	C	1.058763	0.267512	0.872065
C135	C	1.392096	0.600845	1.205399
C136	C	0.684180	-0.032416	0.572256
C137	C	1.017514	0.300917	0.905589
C138	C	1.350847	0.634250	1.238922
C139	C	0.560237	-0.172307	0.431927
C140	C	0.893570	0.161026	0.765260
C141	C	1.226904	0.494359	1.098593
C142	C	0.601480	-0.205712	0.398407
C143	C	0.934813	0.127622	0.731740
C144	C	1.268147	0.460955	1.065073
C145	C	0.684042	-0.192488	0.411663
C146	C	1.017376	0.140845	0.744996
C147	C	1.350709	0.474178	1.078329
C148	C	0.725360	-0.145857	0.458436
C149	C	1.058694	0.187476	0.791769
C150	C	1.392027	0.520809	1.125102
C151	C	0.725291	-0.225893	0.378139
C152	C	1.058625	0.107440	0.711472
C153	C	1.391958	0.440773	1.044806
C154	C	0.807852	-0.212667	0.391392
C155	C	1.141186	0.120667	0.724726
C156	C	1.474519	0.454000	1.058059
C157	C	0.807921	-0.132631	0.471689
C158	C	1.141255	0.200703	0.805022
C159	C	1.474588	0.534036	1.138355
C160	C	1.348627	-0.086145	0.518380
C161	C	1.681960	0.247188	0.851713
C162	C	2.015293	0.580522	1.185046
C163	C	1.436496	-0.072093	0.532494
C164	C	1.769829	0.261240	0.865827
C165	C	2.103163	0.594574	1.199160
C166	C	1.142495	-0.119097	0.648693
C167	C	1.475828	0.214236	0.982026
C168	C	1.809161	0.547570	1.315360
C169	C	1.142523	-0.119087	0.718339
C170	C	1.475856	0.214246	1.051672
C171	C	1.809189	0.547580	1.385005
C172	C	1.142552	0.044323	0.485325
C173	C	1.475885	0.377656	0.818658
C174	C	1.809219	0.710989	1.151991
C175	C	1.142605	0.113972	0.485353
C176	C	1.475938	0.447306	0.818686
C177	C	1.809271	0.780639	1.152019
C178	C	1.142409	-0.119091	0.322468
C179	C	1.475743	0.214243	0.655802
C180	C	1.809076	0.547576	0.989135
C181	C	1.142535	-0.118900	0.252847
C182	C	1.475868	0.214434	0.586181
C183	C	1.809201	0.547767	0.919514
C184	C	1.193113	-0.070922	0.759190
C185	C	1.526446	0.262412	1.092523
C186	C	1.859780	0.595745	1.425857
C187	C	1.193112	-0.070895	0.824625
C188	C	1.526445	0.262438	1.157959
C189	C	1.859779	0.595772	1.491292
C190	C	1.142529	-0.119043	0.849208
C191	C	1.475862	0.214290	1.182541
C192	C	1.809196	0.547623	1.515875
C193	C	1.091929	-0.167213	0.808347
C194	C	1.425262	0.166120	1.141680
C195	C	1.758596	0.499453	1.475014
C196	C	1.091926	-0.167235	0.742912
C197	C	1.425259	0.166098	1.076246
C198	C	1.758592	0.499431	1.409579
C199	C	1.136252	-0.176463	0.951864
C200	C	1.469585	0.156870	1.285197
C201	C	1.802918	0.490204	1.618531
C202	C	1.136260	-0.176441	1.017298
C203	C	1.469594	0.156892	1.350632
C204	C	1.802927	0.490225	1.683965
C205	C	1.142534	-0.118976	1.051030
C206	C	1.475867	0.214357	1.384363
C207	C	1.809200	0.547690	1.717696
C208	C	1.148815	-0.061529	1.019321
C209	C	1.482149	0.271804	1.352655
C210	C	1.815482	0.605138	1.685988
C211	C	1.148812	-0.061551	0.953887
C212	C	1.482145	0.271783	1.287220
C213	C	1.815479	0.605116	1.620553
C214	C	1.142526	-0.119025	0.920160
C215	C	1.475860	0.214308	1.253493
C216	C	1.809193	0.547642	1.586827
C217	C	1.193126	-0.070778	1.162834
C218	C	1.526459	0.262555	1.496167
C219	C	1.859792	0.595889	1.829501
C220	C	1.193119	-0.070751	1.228270
C221	C	1.526452	0.262582	1.561603
C222	C	1.859786	0.595915	1.894936
C223	C	1.091940	-0.167075	1.211991
C224	C	1.425273	0.166259	1.545324
C225	C	1.758607	0.499592	1.878657
C226	C	1.091943	-0.167097	1.146556
C227	C	1.425276	0.166237	1.479889
C228	C	1.758609	0.499570	1.813222
C229	C	1.142539	-0.118949	1.121982
C230	C	1.475873	0.214385	1.455315
C231	C	1.809206	0.547718	1.788649
H232	H	1.234047	-0.342869	0.572701
H233	H	1.567380	-0.009535	0.906035
H234	H	1.900713	0.323798	1.239368
H235	H	1.234320	-0.031570	1.142824
H236	H	1.567653	0.301763	1.476158
H237	H	1.900987	0.635096	1.809491
F238	F	0.433764	-0.155125	0.449187
F239	F	0.767097	0.178208	0.782520
F240	F	1.100430	0.511541	1.115853
F241	F	1.129724	-0.688436	0.366702
F242	F	1.463057	-0.355103	0.700035
F243	F	1.796391	-0.021769	1.033368
F244	F	1.038078	-0.218502	0.699433
F245	F	1.371412	0.114832	1.032767
F246	F	1.704745	0.448165	1.366100
F247	F	1.155493	-0.000413	0.920142
F248	F	1.488827	0.332920	1.253475
F249	F	1.822160	0.666253	1.586809
H250	H	0.444233	0.001736	0.606558
H251	H	0.777566	0.335069	0.939891
H252	H	1.110899	0.668402	1.273225
F253	F	0.472367	-0.186380	0.417819
F254	F	0.805700	0.146953	0.751152
F255	F	1.139034	0.480287	1.084486
F256	F	1.038288	-0.904934	0.385812
F257	F	1.371622	-0.571601	0.719146
F258	F	1.704955	-0.238268	1.052479
F259	F	1.038223	-0.769874	0.385782
F260	F	1.371556	-0.436541	0.719115
F261	F	1.704890	-0.103207	1.052449
F262	F	1.129738	-0.553366	0.366675
F263	F	1.463071	-0.220033	0.700008
F264	F	1.796405	0.113301	1.033342
H265	H	0.594015	0.025731	0.630615
H266	H	0.927348	0.359065	0.963948
H267	H	1.260682	0.692398	1.297282
F268	F	1.246915	-0.871323	0.584896
F269	F	1.580249	-0.537989	0.918229
F270	F	1.913582	-0.204656	1.251563
H271	H	1.050751	-0.206321	1.113294
H272	H	1.384085	0.127012	1.446627
H273	H	1.717418	0.460345	1.779961
F274	F	1.155317	-0.684206	0.603900
F275	F	1.488650	-0.350872	0.937233
F276	F	1.821983	-0.017539	1.270567
H277	H	1.234307	-0.031670	0.857893
H278	H	1.567640	0.301664	1.191226
H279	H	1.900973	0.634997	1.524559
F280	F	1.155495	-0.000365	1.055216
F281	F	1.488829	0.332968	1.388549
F282	F	1.822162	0.666301	1.721883
H283	H	0.567833	-0.243677	0.360319
H284	H	0.901166	0.089656	0.693653
H285	H	1.234499	0.422989	1.026986
F286	F	0.681314	-0.275514	0.328352
F287	F	1.014647	0.057819	0.661685
F288	F	1.347981	0.391152	0.995019
F289	F	1.038098	-0.501328	0.385719
F290	F	1.371432	-0.167995	0.719052
F291	F	1.704765	0.165338	1.052385
F292	F	1.246960	-0.019676	0.733040
F293	F	1.580293	0.313657	1.066374
F294	F	1.913626	0.646991	1.399707
F295	F	0.728152	0.017210	0.622046
F296	F	1.061485	0.350543	0.955379
F297	F	1.394819	0.683877	1.288712
H298	H	1.050741	-0.206415	0.828366
H299	H	1.384075	0.126919	1.161699
H300	H	1.717408	0.460252	1.495033
H301	H	1.050666	-0.372410	0.397743
H302	H	1.383999	-0.039077	0.731076
H303	H	1.717332	0.294256	1.064410
H304	H	1.234091	-0.461570	0.572738
H305	H	1.567424	-0.128237	0.906071
H306	H	1.900758	0.205096	1.239404
H307	H	1.153709	-0.557579	0.589504
H308	H	1.487043	-0.224246	0.922837
H309	H	1.820376	0.109087	1.256171
F310	F	0.851893	-0.083004	0.521479
F311	F	1.185226	0.250329	0.854812
F312	F	1.518560	0.583662	1.188145
F313	F	1.246976	-0.019490	1.271749
F314	F	1.580309	0.313844	1.605082
F315	F	1.913643	0.647177	1.938416
F316	F	1.246869	-0.736260	0.584855
F317	F	1.580202	-0.402927	0.918189
F318	F	1.913536	-0.069593	1.251522
H319	H	1.050746	-0.206273	1.232004
H320	H	1.384080	0.127060	1.565337
H321	H	1.717413	0.460394	1.898670
F322	F	0.851749	-0.248224	0.355721
F323	F	1.185082	0.085110	0.689055
F324	F	1.518415	0.418443	1.022388
H325	H	1.131150	-0.223218	1.043111
H326	H	1.464484	0.110115	1.376444
H327	H	1.797817	0.443449	1.709777
H328	H	0.792656	-0.055051	0.549520
H329	H	1.125989	0.278282	0.882853
H330	H	1.459322	0.611616	1.216186
F331	F	1.129592	-0.237628	0.915973
F332	F	1.462926	0.095706	1.249307
F333	F	1.796259	0.429039	1.582640
