data_functionalizedCrystal
_audit_creation_method	'MofGen! by Chris Wilmer'
_symmetry_space_group_name_H-M	'P1'
_symmetry_Int_Tables_number	1
_symmetry_cell_setting	triclinic
loop_
_symmetry_equiv_pos_as_xyz
  x,y,z
_cell_length_a	16.974829
_cell_length_b	10.654541
_cell_length_c	15.455313
_cell_angle_alpha	92.691200
_cell_angle_beta	83.671566
_cell_angle_gamma	83.939946
loop_
_atom_site_label
_atom_site_type_symbol
_atom_site_fract_x
_atom_site_fract_y
_atom_site_fract_z
O1	O	1.056992	0.148950	-0.146325
O2	O	0.826126	0.170562	-0.130121
O3	O	0.946868	-0.023093	-0.138591
O4	O	0.936250	0.342606	-0.137856
O5	O	0.939963	-0.012065	0.006156
O6	O	0.819221	0.181591	0.014625
O7	O	1.050087	0.159979	-0.001579
Cu8	Cu	0.934024	0.171792	0.019740
Cu9	Cu	0.942189	0.158749	-0.151440
O10	O	0.929345	0.353635	0.006890
C11	C	0.793112	0.175458	-0.055673
C12	C	0.705028	0.173600	-0.049491
C13	C	0.208802	0.163826	-0.006221
C14	C	0.291566	0.165572	-0.012031
C15	C	0.336713	0.160424	-0.093839
C16	C	0.299091	0.153542	-0.169842
C17	C	0.216327	0.151805	-0.164030
C18	C	0.584642	0.164981	-0.119681
C19	C	0.667412	0.166714	-0.125487
C20	C	0.659881	0.178747	0.032324
C21	C	0.577117	0.177002	0.038128
C22	C	0.539501	0.170127	-0.037874
N23	N	0.421312	0.162204	-0.099781
N24	N	0.454904	0.168356	-0.031932
C25	C	0.942636	-0.064361	-0.066163
C26	C	0.940305	-0.203756	-0.066001
C27	C	1.084685	-0.234732	-0.076124
C28	C	1.155776	-0.315705	-0.081106
C29	C	1.153580	-0.446678	-0.080955
C30	C	1.080286	-0.496678	-0.075823
C31	C	1.009195	-0.415705	-0.070841
C32	C	1.011398	-0.284731	-0.070990
C33	C	0.864818	-0.384730	-0.060724
C34	C	0.867011	-0.253756	-0.060869
C35	C	0.791523	-0.434730	-0.055593
C36	C	0.720430	-0.353756	-0.050604
C37	C	0.722629	-0.222776	-0.050754
C38	C	0.795920	-0.172783	-0.055887
C39	C	1.083101	0.155083	-0.076029
C40	C	1.171185	0.156941	-0.082217
C41	C	0.933577	0.394902	-0.065539
C42	C	0.935909	0.534297	-0.065707
N43	N	0.928286	0.180965	0.140138
N44	N	0.947933	0.149566	-0.271838
C45	C	0.979600	0.098723	0.181932
C46	C	0.975268	0.105671	0.273044
C47	C	0.919626	0.194868	0.322359
C48	C	0.868307	0.277114	0.280558
C49	C	0.872635	0.270158	0.189448
C50	C	0.900943	0.224857	0.595251
C51	C	0.896620	0.231808	0.686367
C52	C	1.003580	0.060363	0.678846
C53	C	1.007907	0.053421	0.587735
C54	C	0.956585	0.135662	0.545942
N55	N	0.915199	0.201976	0.415490
N56	N	0.961009	0.128548	0.452813
H57	H	0.185701	0.146202	-0.225914
H58	H	0.789741	-0.541377	-0.055475
N59	N	0.798285	-0.031520	-0.056050
H60	H	0.824593	-0.001965	-0.004415
H61	H	0.829708	-0.010241	-0.111766
H62	H	1.017051	0.038703	0.307073
N63	N	0.641383	-0.407676	-0.045063
H64	H	0.612766	-0.382191	-0.096532
H65	H	0.650842	-0.502922	-0.045699
N66	N	0.845587	0.313549	0.550181
H67	H	0.809684	0.371108	0.595250
H68	H	0.878049	0.365999	0.510207
N69	N	1.058926	-0.028345	0.723921
H70	H	1.116062	-0.015435	0.704091
H71	H	1.047675	-0.010364	0.789111
H72	H	1.053215	-0.019210	0.547584
H73	H	1.086479	-0.128088	-0.076236
H74	H	1.024913	0.026094	0.141785
N75	N	0.808286	0.373312	0.333743
H76	H	0.813331	0.365243	0.397804
H77	H	0.818692	0.461128	0.317127
H78	H	0.851307	0.304448	0.726516
N79	N	0.700457	0.186181	0.114289
H80	H	0.678406	0.266353	0.150207
H81	H	0.690399	0.110614	0.149315
H82	H	0.704168	0.162532	-0.192109
N83	N	1.234824	-0.261772	-0.086631
H84	H	1.279525	-0.332944	-0.089764
H85	H	1.241449	-0.212187	-0.140572
N86	N	1.230254	-0.534023	-0.086335
H87	H	1.277019	-0.482480	-0.089611
H88	H	1.229920	-0.584954	-0.032833
H89	H	0.540366	0.181167	0.104745
H90	H	0.554026	0.159378	-0.181568
N91	N	0.817287	0.358854	0.144365
H92	H	0.781381	0.416417	0.189430
H93	H	0.849753	0.411301	0.104393
H94	H	0.335855	0.149357	-0.236452
N95	N	1.077924	-0.637942	-0.075665
H96	H	1.046488	-0.659332	-0.019985
H97	H	1.051634	-0.667396	-0.127337
N98	N	0.645955	-0.135431	-0.045381
H99	H	0.616577	-0.155531	-0.096801
H100	H	0.611508	-0.147409	0.010546
N101	N	0.160113	0.169368	0.082017
H102	H	0.196572	0.173121	0.129270
H103	H	0.119976	0.247216	0.088520
N104	N	0.332138	0.173011	0.069936
H105	H	0.290980	0.176004	0.122642
H106	H	0.372317	0.096155	0.070548
