data_functionalizedCrystal
_audit_creation_method	'MofGen! by Chris Wilmer'
_symmetry_space_group_name_H-M	'P1'
_symmetry_Int_Tables_number	1
_symmetry_cell_setting	triclinic
loop_
_symmetry_equiv_pos_as_xyz
  x,y,z
_cell_length_a	19.805406
_cell_length_b	12.759401
_cell_length_c	12.759393
_cell_angle_alpha	89.981504
_cell_angle_beta	90.022680
_cell_angle_gamma	89.999873
loop_
_atom_site_label
_atom_site_type_symbol
_atom_site_fract_x
_atom_site_fract_y
_atom_site_fract_z
Zn1	Zn	0.269420	1.606363	-0.594046
Zn2	Zn	0.382625	1.606302	-0.418394
Zn3	Zn	0.269456	1.430665	-0.418386
Zn4	Zn	0.382573	1.430699	-0.594035
O5	O	0.326019	1.518507	-0.506215
O6	O	0.284444	1.753376	-0.570754
O7	O	0.367650	1.582964	-0.271371
O8	O	0.174734	1.453983	-0.441689
O9	O	0.367615	1.753332	-0.441702
O10	O	0.174708	1.583067	-0.570746
O11	O	0.284505	1.453924	-0.271366
O12	O	0.284454	1.283648	-0.441678
O13	O	0.367526	1.454040	-0.741058
O14	O	0.367561	1.283673	-0.570727
O15	O	0.284394	1.583100	-0.741066
O16	O	0.477335	1.582997	-0.441692
O17	O	0.477296	1.453982	-0.570735
C18	C	0.326006	1.245540	-0.506201
C19	C	0.326017	1.128763	-0.506220
C20	C	0.149476	1.518528	-0.506218
C21	C	0.074244	1.518537	-0.506219
C22	C	0.369360	1.073942	-0.573304
C23	C	0.369369	0.964218	-0.573316
C24	C	0.282689	0.964146	-0.439149
C25	C	0.282678	1.073868	-0.439144
C26	C	0.419406	1.073982	-0.650761
C27	C	0.419414	0.964258	-0.650773
C28	C	0.038912	1.451338	-0.439028
C29	C	-0.031776	1.451344	-0.439040
C30	C	-0.067132	1.518556	-0.506237
C31	C	-0.031795	1.585758	-0.573435
C32	C	0.038892	1.585746	-0.573428
C33	C	-0.316868	1.585810	-0.573466
C34	C	-0.387561	1.585820	-0.573465
C35	C	-0.387537	1.451409	-0.439078
C36	C	-0.316850	1.451396	-0.439071
C37	C	-0.281519	1.518594	-0.506272
C38	C	-0.204871	1.518584	-0.506260
C39	C	-0.143779	1.518572	-0.506245
C40	C	0.501875	1.518515	-0.506236
C41	C	0.577106	1.518615	-0.506279
C42	C	0.325950	1.518581	-0.780249
C43	C	0.325921	1.518612	-0.897025
C44	C	0.326032	1.792541	-0.506230
C45	C	0.326037	1.909317	-0.506236
C46	C	0.282630	1.585823	-0.951893
C47	C	0.282605	1.585848	-1.061617
C48	C	0.369169	1.451448	-1.061596
C49	C	0.369190	1.451419	-0.951874
C50	C	0.232655	1.663421	-0.951907
C51	C	0.232630	1.663445	-1.061631
C52	C	0.326038	1.518494	-0.233248
C53	C	0.325876	1.518667	-0.116472
H54	H	0.247379	1.118500	-0.384524
H55	H	0.247404	0.919438	-0.384539
H56	H	0.067658	1.640458	-0.628149
H57	H	-0.060543	1.396625	-0.384329
H58	H	0.405426	1.103785	-0.732165
C59	C	0.486641	1.119966	-0.611219
N60	N	0.537283	1.154601	-0.581434
H61	H	0.400703	0.930253	-0.728120
C62	C	0.161843	1.633976	-0.911686
N63	N	0.108510	1.611795	-0.881391
C64	C	-0.070689	1.659693	-0.647352
N65	N	-0.099983	1.715387	-0.703024
H66	H	0.471823	0.934483	-0.628853
H67	H	0.404440	1.396686	-0.907204
H68	H	0.182825	1.634312	-1.095667
H69	H	-0.288067	1.396669	-0.384348
C70	C	0.077797	1.377398	-0.365105
N71	N	0.107083	1.321700	-0.309427
C72	C	-0.426407	1.377479	-0.365164
N73	N	-0.455682	1.321798	-0.309493
H74	H	-0.416346	1.640553	-0.628189
C75	C	0.416762	1.377539	-1.121939
N76	N	0.452609	1.321868	-1.167389
C77	C	-0.278014	1.659749	-0.647370
N78	N	-0.248747	1.715449	-0.703033
H79	H	0.251446	1.740700	-0.917875
H80	H	0.246670	1.744822	-1.091413
