data_functionalizedCrystal
_audit_creation_method	'MofGen! by Chris Wilmer'
_symmetry_space_group_name_H-M	'P1'
_symmetry_Int_Tables_number	1
_symmetry_cell_setting	triclinic
loop_
_symmetry_equiv_pos_as_xyz
  x,y,z
_cell_length_a	30.711293
_cell_length_b	30.706025
_cell_length_c	30.700862
_cell_angle_alpha	120.000090
_cell_angle_beta	90.000363
_cell_angle_gamma	59.983279
loop_
_atom_site_label
_atom_site_type_symbol
_atom_site_fract_x
_atom_site_fract_y
_atom_site_fract_z
O1	O	-0.298560	-0.384230	-0.012980
O2	O	-0.235274	-0.295030	0.012880
O3	O	-0.235240	-0.384228	-0.076322
O4	O	-0.298594	-0.295033	0.076221
O5	O	-0.307688	-0.311777	-0.076313
O6	O	-0.307723	-0.222579	0.012889
O7	O	-0.371009	-0.311779	-0.012971
Cu8	Cu	-0.345981	-0.260564	-0.000040
Cu9	Cu	-0.260302	-0.346246	-0.000051
O10	O	-0.371043	-0.222581	0.076231
C11	C	-0.110241	0.007429	0.039176
C12	C	-0.136559	-0.018656	0.039547
C13	C	-0.031366	-0.071445	0.039179
C14	C	-0.057804	-0.097410	0.039549
C15	C	-0.110216	-0.071444	0.039181
C16	C	-0.057829	-0.018657	0.039545
C17	C	-0.158445	0.183349	0.024886
C18	C	-0.183278	0.233174	0.020846
C19	C	-0.235216	0.258168	0.018819
C20	C	-0.262141	0.312185	0.014429
C21	C	-0.262319	0.233337	0.020837
C22	C	-0.237488	0.183521	0.024884
C23	C	-0.185548	0.158527	0.026909
C24	C	-0.237917	-0.133888	0.024905
C25	C	-0.262900	-0.162751	0.020870
C26	C	-0.235942	-0.216724	0.018843
C27	C	-0.263022	-0.248028	0.014459
C28	C	-0.183998	-0.241828	0.020858
C29	C	-0.159019	-0.212960	0.024903
C30	C	-0.185984	-0.158988	0.026923
C31	C	0.158800	-0.133894	0.024896
C32	C	0.212660	-0.162763	0.020852
C33	C	0.239689	-0.216736	0.018827
C34	C	0.298088	-0.248042	0.014439
C35	C	0.212860	-0.241839	0.020842
C36	C	0.159003	-0.212970	0.024884
C37	C	0.131975	-0.158993	0.026916
C38	C	-0.158625	0.104505	0.031292
C39	C	-0.137164	0.061446	0.034788
C40	C	0.027030	-0.102747	0.034793
C41	C	0.073577	-0.127696	0.031299
C42	C	-0.137301	-0.102744	0.034797
C43	C	-0.158892	-0.127692	0.031305
C44	C	-0.371613	-0.469667	-0.018875
C45	C	-0.344722	-0.523429	-0.015183
C46	C	-0.424026	-0.443579	-0.019241
C47	C	-0.371645	-0.390783	-0.018864
C48	C	-0.344788	-0.360201	-0.015161
C49	C	-0.424058	-0.364815	-0.019230
C50	C	-0.450493	-0.390785	-0.018865
C51	C	-0.507941	-0.360206	-0.015162
C52	C	-0.345298	-0.443577	-0.019240
C53	C	-0.110049	-0.535722	-0.503977
C54	C	-0.057625	-0.588516	-0.530318
C55	C	-0.110049	-0.535722	-0.425101
C56	C	-0.057625	-0.588515	-0.451562
C57	C	-0.031170	-0.614604	-0.503986
C58	C	-0.136385	-0.509754	-0.451553
C59	C	-0.237823	-0.393668	-0.552126
C60	C	-0.262827	-0.364627	-0.576949
C61	C	-0.235874	-0.389554	-0.628899
C62	C	-0.262979	-0.358063	-0.655813
C63	C	-0.183918	-0.443527	-0.656025
C64	C	-0.158921	-0.472568	-0.631204
C65	C	-0.185876	-0.447636	-0.579252
C66	C	0.159041	-0.790545	-0.631770
C67	C	0.212907	-0.840376	-0.656777
C68	C	0.239931	-0.865372	-0.629829
C69	C	0.298337	-0.919396	-0.656935
C70	C	0.213082	-0.840537	-0.577873
C71	C	0.159216	-0.790715	-0.552871
C72	C	0.132199	-0.765719	-0.579825
C73	C	-0.237824	-0.393667	-0.234876
C74	C	-0.262826	-0.364622	-0.181005
C75	C	-0.235873	-0.389549	-0.153987
C76	C	-0.262978	-0.358057	-0.095576
C77	C	-0.183919	-0.443517	-0.180839
C78	C	-0.158920	-0.472558	-0.234708
C79	C	-0.185879	-0.447631	-0.261724
C80	C	-0.158764	-0.479128	-0.552341
C81	C	-0.137156	-0.504230	-0.530889
C82	C	-0.137156	-0.504230	-0.366693
C83	C	-0.158765	-0.479128	-0.320135
C84	C	0.027236	-0.668627	-0.531096
C85	C	0.073791	-0.711691	-0.552708
O86	O	0.469843	-0.311788	-0.012980
O87	O	0.317331	-0.222593	0.012869
O88	O	0.406527	-0.311801	-0.076328
O89	O	0.380647	-0.222580	0.076217
O90	O	0.406550	-0.384244	-0.076324
O91	O	0.317353	-0.295036	0.012873
O92	O	0.469866	-0.384231	-0.012976
Cu93	Cu	0.393612	-0.346248	-0.000051
Cu94	Cu	0.393585	-0.260576	-0.000056
O95	O	0.380670	-0.295023	0.076221
O96	O	-0.370916	0.456546	-0.013002
O97	O	-0.307555	0.329869	0.012853
O98	O	-0.307548	0.329849	-0.076346
O99	O	-0.370924	0.456566	0.076198
O100	O	-0.235127	0.329849	-0.076348
O101	O	-0.235134	0.329868	0.012852
O102	O	-0.298495	0.456545	-0.013003
Cu103	Cu	-0.260202	0.393207	-0.000076
Cu104	Cu	-0.345848	0.393208	-0.000074
O105	O	-0.298503	0.456565	0.076196
O106	O	0.470124	-1.063774	-0.692551
O107	O	0.317595	-0.937080	-0.629197
O108	O	0.406754	-0.937078	-0.629194
O109	O	0.380966	-1.063776	-0.692554
O110	O	0.406756	-0.937080	-0.701640
O111	O	0.317597	-0.937082	-0.701643
O112	O	0.470126	-1.063776	-0.764997
Cu113	Cu	0.393862	-1.000429	-0.739935
Cu114	Cu	0.393860	-1.000427	-0.654259
O115	O	0.380968	-1.063778	-0.765000
O116	O	-0.298597	-0.295029	-0.764570
O117	O	-0.235239	-0.384228	-0.701240
O118	O	-0.235275	-0.295029	-0.701227
O119	O	-0.298561	-0.384229	-0.764583
O120	O	-0.307722	-0.222580	-0.628773
O121	O	-0.307686	-0.311779	-0.628786
O122	O	-0.371045	-0.222580	-0.692115
Cu123	Cu	-0.345981	-0.260564	-0.653835
Cu124	Cu	-0.260303	-0.346244	-0.739521
O125	O	-0.371008	-0.311779	-0.692128
C126	C	-0.450593	-0.137148	0.234779
C127	C	-0.508050	-0.083387	0.261663
C128	C	-0.424138	-0.163236	0.261112
C129	C	-0.371714	-0.216030	0.155895
C130	C	-0.344832	-0.246610	0.098435
C131	C	-0.345378	-0.241998	0.182347
C132	C	-0.371715	-0.216029	0.234771
C133	C	-0.344834	-0.246608	0.261647
C134	C	-0.424137	-0.163237	0.182355
C135	C	0.374767	-0.216006	0.234769
C136	C	0.378475	-0.246579	0.261651
C137	C	0.374383	-0.163215	0.261103
C138	C	0.374766	-0.216018	0.155887
C139	C	0.378472	-0.246603	0.098428
C140	C	0.374382	-0.163227	0.182341
C141	C	0.374743	-0.137134	0.234764
C142	C	0.378425	-0.083375	0.261641
C143	C	0.374406	-0.241980	0.182345
C144	C	-0.371658	0.609254	0.234748
C145	C	-0.344802	0.639837	0.261628
C146	C	-0.424072	0.635225	0.261084
C147	C	-0.371624	0.530362	0.155866
C148	C	-0.344731	0.476594	0.098406
C149	C	-0.424038	0.556453	0.182323
C150	C	-0.450507	0.609253	0.234747
C151	C	-0.507956	0.639835	0.261628
C152	C	-0.345309	0.556454	0.182323
C153	C	0.432912	-0.614317	-0.503984
C154	C	0.433272	-0.588236	-0.530323
C155	C	0.432889	-0.535433	-0.425107
C156	C	0.433249	-0.509471	-0.451565
C157	C	0.432887	-0.535444	-0.503989
C158	C	0.433274	-0.588225	-0.451561
C159	C	0.418691	-0.790245	-0.552141
C160	C	0.414670	-0.840075	-0.576966
C161	C	0.412651	-0.865075	-0.628915
C162	C	0.408281	-0.919097	-0.655831
C163	C	0.414657	-0.840247	-0.656039
C164	C	0.418685	-0.790427	-0.631216
C165	C	0.420702	-0.765426	-0.579265
C166	C	0.418589	-0.473019	-0.631763
C167	C	0.414543	-0.444160	-0.656767
C168	C	0.412498	-0.390184	-0.629818
C169	C	0.408103	-0.358883	-0.656921
C170	C	0.414506	-0.365072	-0.577862
C171	C	0.418561	-0.393937	-0.552863
C172	C	0.420599	-0.447912	-0.579819
C173	C	0.418598	-0.472961	-0.234886
C174	C	0.414547	-0.444086	-0.181015
C175	C	0.412504	-0.390110	-0.153995
C176	C	0.408109	-0.358797	-0.095584
C177	C	0.414508	-0.365010	-0.180845
C178	C	0.418557	-0.393886	-0.234713
C179	C	0.420607	-0.447866	-0.261731
C180	C	0.425065	-0.711401	-0.552351
C181	C	0.428545	-0.668338	-0.530898
C182	C	0.428497	-0.504124	-0.366699
C183	C	0.424997	-0.479170	-0.320142
C184	C	0.428493	-0.504148	-0.531096
C185	C	0.424991	-0.479204	-0.552705
O186	O	0.406520	-0.311722	0.371239
O187	O	0.380652	-0.222546	0.307887
O188	O	0.469843	-0.311740	0.307881
O189	O	0.317328	-0.222529	0.371245
O190	O	0.469864	-0.384194	0.235435
O191	O	0.380673	-0.295000	0.235441
O192	O	0.406541	-0.384176	0.298793
Cu193	Cu	0.393609	-0.346204	0.260502
Cu194	Cu	0.393584	-0.260518	0.346177
O195	O	0.317349	-0.294983	0.298799
C196	C	-0.031313	-0.071565	-0.504016
C197	C	-0.057748	-0.097537	-0.530352
C198	C	-0.110196	0.007326	-0.425134
C199	C	-0.136510	-0.018766	-0.451590
C200	C	-0.110162	-0.071565	-0.504015
C201	C	-0.057781	-0.018765	-0.451591
C202	C	0.158856	-0.134018	-0.552184
C203	C	0.212715	-0.162887	-0.577013
C204	C	0.239750	-0.216870	-0.628963
C205	C	0.298150	-0.248180	-0.655882
C206	C	0.212921	-0.241981	-0.656085
C207	C	0.159064	-0.213108	-0.631259
C208	C	0.132032	-0.159124	-0.579306
C209	C	-0.158251	-0.213634	-0.631786
C210	C	-0.183057	-0.242678	-0.656789
C211	C	-0.234995	-0.217752	-0.629837
C212	C	-0.261892	-0.249242	-0.656938
C213	C	-0.262129	-0.163773	-0.577880
C214	C	-0.237327	-0.134725	-0.552882
C215	C	-0.185383	-0.159664	-0.579841
C216	C	-0.158420	0.183292	-0.234912
C217	C	-0.183257	0.233126	-0.181041
C218	C	-0.235197	0.258125	-0.154017
C219	C	-0.262129	0.312156	-0.095606
C220	C	-0.262295	0.233287	-0.180865
C221	C	-0.237456	0.183453	-0.234734
C222	C	-0.185518	0.158463	-0.261755
C223	C	0.073634	-0.127823	-0.552389
C224	C	0.027085	-0.102871	-0.530933
C225	C	-0.137125	0.061357	-0.366725
C226	C	-0.158591	0.104427	-0.320167
C227	C	-0.137055	-0.103060	-0.531121
C228	C	-0.158492	-0.128165	-0.552728
H229	H	-0.305192	-0.142308	0.019228
C230	C	0.418941	-0.176452	0.107989
C231	C	0.373574	-0.133757	0.153669
H232	H	0.418440	-0.158259	0.090289
H233	H	0.450030	-0.188360	0.117976
H234	H	0.419114	-0.211690	0.084717
H235	H	0.373402	-0.098521	0.176942
H236	H	0.342476	-0.121840	0.143682
H237	H	0.412912	-0.464525	-0.159157
H238	H	-0.302257	0.534648	0.161070
H239	H	-0.445259	0.534614	0.161080
H240	H	-0.161188	0.253344	-0.159184
H241	H	-0.304607	0.253694	0.019189
C242	C	0.434275	-0.434732	-0.371200
C243	C	0.434039	-0.452131	-0.422899
H244	H	0.434768	-0.399338	-0.353507
H245	H	0.403176	-0.425513	-0.352009
H246	H	0.465047	-0.467546	-0.373023
H247	H	0.403264	-0.419318	-0.421076
H248	H	0.465141	-0.461347	-0.442095
H249	H	-0.445320	0.677711	0.304159
H250	H	-0.445306	-0.322331	-0.019814
H251	H	-0.302234	-0.465410	-0.019831
C252	C	0.367749	-0.260003	-0.501577
C253	C	0.412265	-0.305747	-0.548236
H254	H	0.366367	-0.223379	-0.483285
H255	H	0.336240	-0.251998	-0.510539
H256	H	0.370455	-0.273608	-0.479259
H257	H	0.409557	-0.292143	-0.570555
H258	H	0.443781	-0.313752	-0.539275
C259	C	0.086709	-0.768225	-0.495708
C260	C	0.129707	-0.763424	-0.495766
H261	H	0.068495	-0.751380	-0.460454
H262	H	0.062911	-0.746206	-0.508175
H263	H	0.099562	-0.810349	-0.518451
H264	H	0.116854	-0.721299	-0.473026
H265	H	0.153509	-0.785441	-0.483292
C266	C	0.458803	-0.531457	-0.748446
C267	C	0.412330	-0.471758	-0.713871
H268	H	0.457433	-0.548495	-0.783699
H269	H	0.488984	-0.529999	-0.747684
H270	H	0.461502	-0.556366	-0.737410
H271	H	0.409632	-0.446847	-0.724905
H272	H	0.382140	-0.473211	-0.714636
C273	C	-0.067933	0.093784	-0.016048
C274	C	-0.101357	0.155883	0.027121
H275	H	-0.032690	0.076829	-0.014669
H276	H	-0.080519	0.071871	-0.014268
H277	H	-0.067915	0.090539	-0.048486
H278	H	-0.101378	0.159127	0.059559
H279	H	-0.088767	0.177802	0.025345
H280	H	0.420197	-0.373488	-0.510562
C281	C	0.434339	-0.669653	-0.606101
C282	C	0.434084	-0.617716	-0.588471
H283	H	0.434838	-0.687849	-0.641997
H284	H	0.465107	-0.698605	-0.604068
H285	H	0.403236	-0.657723	-0.584197
H286	H	0.465189	-0.629646	-0.610372
H287	H	0.403312	-0.588758	-0.590508
C288	C	0.418987	-0.347680	0.107983
C289	C	0.373624	-0.299326	0.153670
H290	H	0.418505	-0.383082	0.090281
H291	H	0.419138	-0.335874	0.084719
H292	H	0.450083	-0.356885	0.117966
H293	H	0.342528	-0.290118	0.143686
H294	H	0.373468	-0.311134	0.176937
H295	H	0.433871	-0.610053	-0.430320
C296	C	-0.197504	-0.404066	-0.377168
C297	C	-0.194527	-0.452398	-0.422852
H298	H	-0.233396	-0.368656	-0.359446
H299	H	-0.185525	-0.415894	-0.353921
H300	H	-0.175617	-0.394865	-0.387159
H301	H	-0.216411	-0.461602	-0.412861
H302	H	-0.206513	-0.440568	-0.446103
H303	H	0.234554	-0.142438	-0.554927
H304	H	-0.302305	-0.284480	0.161101
C305	C	-0.424534	-0.116225	0.138952
C306	C	-0.452803	-0.133786	0.153668
H307	H	-0.442228	-0.098054	0.121235
H308	H	-0.422747	-0.087250	0.169943
H309	H	-0.389456	-0.151465	0.115691
H310	H	-0.487880	-0.098545	0.176933
H311	H	-0.454596	-0.162762	0.122673
H312	H	-0.036384	-0.610342	-0.430320
C313	C	-0.187253	-0.321192	0.014659
C314	C	-0.154362	-0.301152	0.018634
H315	H	-0.168954	-0.357820	0.013281
H316	H	-0.218898	-0.290157	0.044859
H317	H	-0.196205	-0.329199	-0.016866
H318	H	-0.145413	-0.293140	0.050161
H319	H	-0.122706	-0.332194	-0.011569
C320	C	0.418125	-0.312831	-0.229138
C321	C	0.420768	-0.366301	-0.264227
H322	H	0.419494	-0.295805	-0.247361
H323	H	0.385691	-0.283691	-0.199955
H324	H	0.447404	-0.322740	-0.216308
H325	H	0.391487	-0.356392	-0.277054
H326	H	0.453206	-0.395447	-0.293420
H327	H	-0.305125	-0.320673	-0.159143
H328	H	-0.036387	-0.610349	-0.573393
C329	C	-0.101728	-0.579771	-0.665882
C330	C	-0.101813	-0.531888	-0.661016
H331	H	-0.066470	-0.616392	-0.684288
H332	H	-0.114202	-0.569079	-0.631394
H333	H	-0.124447	-0.586324	-0.685272
H334	H	-0.079096	-0.525332	-0.641622
H335	H	-0.089332	-0.542582	-0.695510
C336	C	0.418226	-0.548224	-0.229642
C337	C	0.420846	-0.532294	-0.264584
H338	H	0.419611	-0.584850	-0.247978
H339	H	0.447500	-0.554836	-0.216806
H340	H	0.385786	-0.515791	-0.200449
H341	H	0.453289	-0.564725	-0.293775
H342	H	0.391570	-0.525685	-0.277429
H343	H	-0.445247	-0.465416	-0.019836
C344	C	0.418304	-0.795083	-0.476477
C345	C	0.420912	-0.762769	-0.495039
H346	H	0.419677	-0.778119	-0.441225
H347	H	0.385879	-0.791835	-0.476459
H348	H	0.447595	-0.837210	-0.499153
H349	H	0.391618	-0.720643	-0.472365
H350	H	0.453340	-0.766012	-0.495053
H351	H	0.373780	-0.141377	0.304178
C352	C	0.455634	-0.929448	-0.575734
C353	C	0.412460	-0.867360	-0.547152
H354	H	0.454269	-0.946290	-0.557325
H355	H	0.453853	-0.951462	-0.610219
H356	H	0.488059	-0.932696	-0.579032
H357	H	0.380034	-0.864112	-0.543857
H358	H	0.414237	-0.845340	-0.512657
H359	H	0.234764	-0.860591	-0.699078
C360	C	0.408476	-0.916699	-0.729199
C361	C	0.412436	-0.867727	-0.713138
H362	H	0.407102	-0.933659	-0.764450
H363	H	0.438675	-0.947513	-0.728371
H364	H	0.376959	-0.902133	-0.705674
H365	H	0.443955	-0.882294	-0.736662
H366	H	0.382234	-0.836907	-0.713971
H367	H	0.412842	-0.321057	-0.158840
C368	C	0.418264	-0.795598	-0.711866
C369	C	0.420888	-0.763137	-0.661028
H370	H	0.419619	-0.778746	-0.730268
H371	H	0.447551	-0.837713	-0.731250
H372	H	0.385835	-0.792341	-0.708555
H373	H	0.453319	-0.766398	-0.664339
H374	H	0.391598	-0.721012	-0.641640
H375	H	-0.445377	-0.141393	0.304189
C376	C	-0.103409	-0.524422	-0.186089
C377	C	-0.154288	-0.470922	-0.151144
H378	H	-0.085116	-0.541338	-0.167756
H379	H	-0.106631	-0.553625	-0.215280
H380	H	-0.083971	-0.514584	-0.198925
H381	H	-0.173727	-0.480762	-0.138311
H382	H	-0.151068	-0.441713	-0.121944
C383	C	-0.068331	-0.522207	-0.283137
C384	C	-0.101813	-0.531880	-0.264227
H385	H	-0.033075	-0.558829	-0.301359
H386	H	-0.080809	-0.511517	-0.306931
H387	H	-0.068395	-0.489719	-0.253942
H388	H	-0.101752	-0.564365	-0.293423
H389	H	-0.089332	-0.542578	-0.240432
H390	H	-0.259777	-0.373364	-0.256869
C391	C	-0.318336	-0.312766	-0.476459
C392	C	-0.267455	-0.366265	-0.495024
H393	H	-0.336627	-0.295853	-0.441208
H394	H	-0.315116	-0.283561	-0.476440
H395	H	-0.337773	-0.322605	-0.499135
H396	H	-0.248016	-0.356425	-0.472350
H397	H	-0.270672	-0.395476	-0.495039
H398	H	-0.116135	0.162957	-0.256914
C399	C	0.468657	-0.580137	-0.666152
C400	C	0.420840	-0.532353	-0.661395
H401	H	0.470044	-0.616766	-0.684441
H402	H	0.497926	-0.586750	-0.685608
H403	H	0.470423	-0.569306	-0.631630
H404	H	0.419076	-0.543183	-0.695917
H405	H	0.391563	-0.525741	-0.641940
C406	C	-0.212295	0.062658	-0.371219
C407	C	-0.194648	0.010712	-0.422920
H408	H	-0.248187	0.080855	-0.353522
H409	H	-0.190406	0.050741	-0.352033
H410	H	-0.210268	0.091610	-0.373039
H411	H	-0.196671	-0.018243	-0.421099
H412	H	-0.216543	0.022627	-0.442110
H413	H	-0.305128	-0.320683	-0.554859
H414	H	-0.036493	-0.140029	-0.573424
C415	C	0.022562	-0.023362	-0.457221
C416	C	-0.029133	0.010713	-0.422914
H417	H	0.040245	-0.005161	-0.439516
H418	H	0.041751	-0.064441	-0.467196
H419	H	0.020748	-0.023583	-0.488213
H420	H	-0.027319	0.010931	-0.391923
H421	H	-0.048326	0.051804	-0.412931
H422	H	0.136850	-0.090062	-0.509884
C423	C	0.295576	-0.321361	-0.729249
C424	C	0.242637	-0.301318	-0.713185
H425	H	0.313921	-0.357997	-0.764500
H426	H	0.296180	-0.290333	-0.728420
H427	H	0.312531	-0.329355	-0.705725
H428	H	0.225681	-0.293319	-0.736707
H429	H	0.242030	-0.332353	-0.714017
H430	H	0.137224	-0.233554	-0.653345
C431	C	-0.082586	-0.294544	-0.712302
C432	C	-0.101161	-0.241039	-0.661421
H433	H	-0.047343	-0.311457	-0.730596
H434	H	-0.082560	-0.323745	-0.709069
H435	H	-0.105256	-0.284710	-0.731752
H436	H	-0.078493	-0.250873	-0.641970
H437	H	-0.101183	-0.211831	-0.664652
C438	C	-0.148365	-0.349880	-0.713944
C439	C	-0.153233	-0.302012	-0.713893
H440	H	-0.129955	-0.386509	-0.749198
H441	H	-0.128990	-0.356417	-0.691208
H442	H	-0.182852	-0.339179	-0.701467
H443	H	-0.118746	-0.312711	-0.726366
H444	H	-0.172607	-0.295474	-0.736636
H445	H	-0.304421	-0.143473	-0.555937
H446	H	-0.259424	-0.090774	-0.510581
H447	H	-0.116728	-0.233401	0.026547
H448	H	-0.259524	0.163233	-0.256591
H449	H	-0.304590	0.253647	-0.158860
H450	H	0.137047	-0.770199	-0.653721
C451	C	-0.014434	-0.141157	0.086213
C452	C	-0.029133	-0.154748	0.040359
H453	H	0.003260	-0.176552	0.086715
H454	H	0.008831	-0.129372	0.086036
H455	H	-0.045429	-0.108336	0.116986
H456	H	0.001863	-0.187566	0.009586
H457	H	-0.052399	-0.166541	0.040531
C458	C	-0.197674	0.011101	-0.005030
C459	C	-0.194692	0.010808	0.040344
H460	H	-0.233561	0.029285	-0.004540
H461	H	-0.185727	0.034209	-0.005195
H462	H	-0.175761	-0.029996	-0.036129
H463	H	-0.216602	0.051905	0.071443
H464	H	-0.206646	-0.012299	0.040513
C465	C	-0.063485	0.062747	0.040582
C466	C	-0.029175	0.010813	0.040346
H467	H	-0.045794	0.080941	0.041079
H468	H	-0.073448	0.050820	0.009475
H469	H	-0.094476	0.091707	0.071357
H470	H	0.001816	-0.018149	0.009568
H471	H	-0.019203	0.022739	0.071456
H472	H	0.234501	-0.142320	0.019210
H473	H	-0.161979	-0.463820	-0.698323
C474	C	0.285793	-0.863217	-0.543494
C475	C	0.242785	-0.868012	-0.548251
H476	H	0.304129	-0.880175	-0.525204
H477	H	0.309483	-0.885135	-0.578011
H478	H	0.272930	-0.821086	-0.524033
H479	H	0.255648	-0.910144	-0.567716
H480	H	0.219090	-0.846095	-0.513729
C481	C	0.164019	-0.058642	0.024478
C482	C	0.129096	-0.074574	0.027112
H483	H	0.145680	-0.022026	0.025839
H484	H	0.176843	-0.052013	0.053764
H485	H	0.193214	-0.091082	-0.007962
H486	H	0.099902	-0.042135	0.059554
H487	H	0.116263	-0.081199	-0.002177
H488	H	-0.161207	0.253387	0.019202
H489	H	0.234870	-0.285787	0.019195
C490	C	-0.318106	0.188680	0.024463
C491	C	-0.267277	0.156226	0.027098
H492	H	-0.336494	0.171825	0.025825
H493	H	-0.337497	0.230796	0.053748
H494	H	-0.314797	0.185420	-0.007978
H495	H	-0.270586	0.159490	0.059541
H496	H	-0.247881	0.114100	-0.002189
H497	H	0.137161	-0.233412	0.026528
C498	C	-0.318424	-0.058617	0.024519
C499	C	-0.267558	-0.074558	0.027136
H500	H	-0.336722	-0.021987	0.025899
H501	H	-0.315181	-0.091041	-0.007917
H502	H	-0.337870	-0.052000	0.053808
H503	H	-0.248111	-0.081178	-0.002155
H504	H	-0.270800	-0.042126	0.059577
