data_functionalizedCrystal
_audit_creation_method	'MofGen! by Chris Wilmer'
_symmetry_space_group_name_H-M	'P1'
_symmetry_Int_Tables_number	1
_symmetry_cell_setting	triclinic
loop_
_symmetry_equiv_pos_as_xyz
  x,y,z
_cell_length_a	16.109301
_cell_length_b	17.038272
_cell_length_c	15.186229
_cell_angle_alpha	89.995962
_cell_angle_beta	89.999362
_cell_angle_gamma	87.286518
loop_
_atom_site_label
_atom_site_type_symbol
_atom_site_fract_x
_atom_site_fract_y
_atom_site_fract_z
O1	O	1.110268	0.100495	-0.073174
O2	O	1.610268	0.600495	0.426826
O3	O	0.869094	0.113001	-0.073188
O4	O	1.369094	0.613001	0.426812
O5	O	0.988247	-0.007067	-0.073174
O6	O	1.488247	0.492933	0.426826
O7	O	0.991114	0.220563	-0.073187
O8	O	1.491114	0.720563	0.426813
O9	O	0.988239	-0.007069	0.073284
O10	O	1.488239	0.492931	0.573284
O11	O	0.869085	0.113000	0.073270
O12	O	1.369085	0.613000	0.573270
O13	O	1.110259	0.100493	0.073284
O14	O	1.610259	0.600493	0.573284
Zn15	Zn	0.989671	0.106746	0.096530
Zn16	Zn	1.489671	0.606746	0.596530
Zn17	Zn	0.989682	0.106748	-0.096434
Zn18	Zn	1.489682	0.606748	0.403566
O19	O	0.991105	0.220562	0.073270
O20	O	1.491105	0.720562	0.573270
C21	C	0.838079	0.112494	0.000039
C22	C	1.338079	0.612494	0.500039
C23	C	0.745676	0.110975	0.000034
C24	C	1.245676	0.610975	0.500034
C25	C	0.528212	0.178690	0.000040
C26	C	1.028212	0.678690	0.500040
C27	C	0.441390	0.177257	0.000046
C28	C	0.941390	0.677257	0.500046
C29	C	0.451147	0.034799	0.000051
C30	C	0.951147	0.534799	0.500051
C31	C	0.537968	0.036233	0.000051
C32	C	1.037968	0.536233	0.500051
C33	C	0.576498	0.108181	0.000042
C34	C	1.076498	0.608181	0.500042
C35	C	0.402855	0.105314	0.000047
C36	C	0.902855	0.605314	0.500047
C37	C	0.308719	0.103759	0.000053
C38	C	0.808719	0.603759	0.500053
C39	C	0.670640	0.109736	0.000037
C40	C	1.170640	0.609736	0.500037
C41	C	0.985636	-0.036196	0.000055
C42	C	1.485636	0.463804	0.500055
C43	C	0.977857	-0.122989	0.000054
C44	C	1.477857	0.377011	0.500054
C45	C	1.049277	-0.173104	0.000059
C46	C	1.549277	0.326896	0.500059
C47	C	1.041963	-0.254654	0.000050
C48	C	1.541963	0.245346	0.500050
C49	C	0.963228	-0.286089	0.000043
C50	C	1.463228	0.213911	0.500043
C51	C	0.891802	-0.235967	0.000035
C52	C	1.391802	0.264033	0.500035
C53	C	0.899116	-0.154418	0.000038
C54	C	1.399116	0.345582	0.500038
C55	C	0.937385	-0.531846	0.000029
C56	C	1.437385	-0.031846	0.500029
C57	C	0.930076	-0.613402	0.000029
C58	C	1.430076	-0.113402	0.500029
C59	C	1.080238	-0.632083	0.000043
C60	C	1.580238	-0.132083	0.500043
C61	C	1.087546	-0.550532	0.000051
C62	C	1.587546	-0.050532	0.500051
C63	C	1.016120	-0.500418	0.000038
C64	C	1.516120	-0.000418	0.500038
C65	C	0.955749	-0.369446	0.000037
C66	C	1.455749	0.130554	0.500037
C67	C	1.023599	-0.417062	0.000038
C68	C	1.523599	0.082938	0.500038
C69	C	1.141274	0.101001	0.000055
C70	C	1.641274	0.601001	0.500055
C71	C	1.233677	0.102519	0.000054
C72	C	1.733677	0.602519	0.500054
C73	C	0.993717	0.249691	0.000039
C74	C	1.493717	0.749691	0.500039
C75	C	1.001496	0.336484	0.000034
C76	C	1.501496	0.836484	0.500034
N77	N	0.989669	0.106744	0.228223
N78	N	1.489669	0.606744	0.728223
N79	N	0.989690	0.106744	-0.228126
N80	N	1.489690	0.606744	0.271874
C81	C	1.042451	0.053596	0.453952
C82	C	1.542451	0.553596	0.953952
C83	C	1.042453	0.053594	0.546141
C84	C	1.542453	0.553594	1.046141
C85	C	0.936902	0.159895	0.546138
C86	C	1.436902	0.659895	1.046138
C87	C	0.936896	0.159893	0.453950
C88	C	1.436896	0.659893	0.953950
C89	C	0.989675	0.106744	0.407859
C90	C	1.489675	0.606744	0.907859
C91	C	0.989684	0.106745	0.592237
C92	C	1.489684	0.606745	1.092237
C93	C	0.989686	0.106743	0.692193
C94	C	1.489686	0.606743	1.192193
C95	C	0.989672	0.106744	0.307897
C96	C	1.489672	0.606744	0.807897
H97	H	0.402079	0.234672	0.000047
H98	H	0.902079	0.734672	0.500047
C99	C	1.120526	-0.309777	0.000065
C100	C	1.620526	0.190223	0.500065
H101	H	1.168465	-0.279377	0.000083
H102	H	1.668465	0.220623	0.500083
H103	H	1.120806	-0.341976	-0.051008
H104	H	1.620806	0.158024	0.448992
H105	H	1.120784	-0.341980	0.051145
H106	H	1.620784	0.158020	0.551145
C107	C	1.100503	-0.004864	0.403250
C108	C	1.600503	0.495136	0.903250
H109	H	1.092950	0.002751	0.341744
H110	H	1.592950	0.502751	0.841744
H111	H	1.087790	-0.057048	0.418363
H112	H	1.587790	0.442952	0.918363
H113	H	1.156591	0.003652	0.418357
H114	H	1.656591	0.503652	0.918357
C115	C	0.843465	-0.647981	0.000021
C116	C	1.343465	-0.147981	0.500021
H117	H	0.849341	-0.703726	0.000033
H118	H	1.349341	-0.203726	0.500033
H119	H	0.813816	-0.630780	-0.051055
H120	H	1.313816	-0.130780	0.448945
H121	H	0.813811	-0.630780	0.051097
H122	H	1.313811	-0.130780	0.551097
H123	H	0.559580	0.237274	0.000039
H124	H	1.059580	0.737274	0.500039
C125	C	0.408761	-0.044336	0.000050
C126	C	0.908761	0.455664	0.500050
H127	H	0.350138	-0.035093	0.000040
H128	H	0.850138	0.464907	0.500040
H129	H	0.424991	-0.073373	0.051122
H130	H	0.924991	0.426627	0.551122
H131	H	0.424997	-0.073361	-0.051030
H132	H	0.924997	0.426639	0.448970
C133	C	1.174155	-0.515960	0.000048
C134	C	1.674155	-0.015960	0.500048
H135	H	1.215645	-0.557487	0.000040
H136	H	1.715645	-0.057487	0.500040
H137	H	1.180131	-0.484537	0.051119
H138	H	1.680131	0.015463	0.551119
H139	H	1.180127	-0.484535	-0.051033
H140	H	1.680127	0.015465	0.448967
C141	C	1.100510	-0.004866	0.596839
C142	C	1.600510	0.495134	1.096839
H143	H	1.131944	-0.036514	0.556183
H144	H	1.631944	0.463486	1.056183
H145	H	1.068307	-0.037422	0.632808
H146	H	1.568307	0.462578	1.132808
H147	H	1.137110	0.023275	0.632795
H148	H	1.637110	0.523275	1.132795
C149	C	1.158799	-0.687209	0.000044
C150	C	1.658799	-0.187209	0.500044
H151	H	1.143169	-0.740279	0.000033
H152	H	1.643169	-0.240279	0.500033
H153	H	1.190848	-0.677688	0.051116
H154	H	1.690848	-0.177688	0.551116
H155	H	1.190844	-0.677676	-0.051036
H156	H	1.690844	-0.177676	0.448964
H157	H	0.577284	-0.021187	0.000055
H158	H	1.077284	0.478813	0.500055
C159	C	1.135887	-0.138534	0.000067
C160	C	1.635887	0.361466	0.500067
H161	H	1.177374	-0.180063	0.000061
H162	H	1.677374	0.319937	0.500061
H163	H	1.141861	-0.107113	0.051141
H164	H	1.641861	0.392887	0.551141
H165	H	1.141864	-0.107107	-0.051012
H166	H	1.641864	0.392893	0.448988
C167	C	0.858819	-0.476731	0.000031
C168	C	1.358819	0.023269	0.500031
H169	H	0.810882	-0.507135	0.000038
H170	H	1.310882	-0.007135	0.500038
H171	H	0.858546	-0.444524	-0.051039
H172	H	1.358546	0.055476	0.448961
H173	H	0.858551	-0.444538	0.051113
H174	H	1.358551	0.055462	0.551113
H175	H	0.827693	-0.261567	0.000023
H176	H	1.327693	0.238433	0.500023
H177	H	0.891642	-0.395049	0.000032
H178	H	1.391642	0.104951	0.500032
C179	C	0.878859	0.218361	0.596841
C180	C	1.378859	0.718361	1.096841
H181	H	0.886427	0.210757	0.658346
H182	H	1.386427	0.710757	1.158346
H183	H	0.822770	0.209859	0.581741
H184	H	1.322770	0.709859	1.081741
H185	H	0.891585	0.270545	0.581722
H186	H	1.391585	0.770545	1.081722
H187	H	0.840958	-0.113615	0.000033
H188	H	1.340958	0.386385	0.500033
C189	C	0.878843	0.218360	0.403245
C190	C	1.378843	0.718360	0.903245
H191	H	0.847419	0.250022	0.443897
H192	H	1.347419	0.750022	0.943897
H193	H	0.842245	0.190225	0.367288
H194	H	1.342245	0.690225	0.867288
H195	H	0.911056	0.250915	0.367277
H196	H	1.411056	0.750915	0.867277
H197	H	1.087705	-0.391465	0.000025
H198	H	1.587705	0.108535	0.500025
