data_functionalizedCrystal
_audit_creation_method	'MofGen! by Chris Wilmer'
_symmetry_space_group_name_H-M	'P1'
_symmetry_Int_Tables_number	1
_symmetry_cell_setting	triclinic
loop_
_symmetry_equiv_pos_as_xyz
  x,y,z
_cell_length_a	25.639242
_cell_length_b	25.639239
_cell_length_c	16.625539
_cell_angle_alpha	90.031255
_cell_angle_beta	90.028772
_cell_angle_gamma	90.033587
loop_
_atom_site_label
_atom_site_type_symbol
_atom_site_fract_x
_atom_site_fract_y
_atom_site_fract_z
Zn1	Zn	0.799262	-0.208221	0.456069
Zn2	Zn	0.799175	-0.295659	0.321229
Zn3	Zn	0.711828	-0.208231	0.321230
Zn4	Zn	0.711784	-0.295619	0.456000
O5	O	0.755512	-0.251933	0.388632
O6	O	0.872416	-0.219832	0.438211
O7	O	0.787570	-0.284082	0.208397
O8	O	0.723481	-0.135065	0.339146
O9	O	0.872351	-0.284072	0.339145
O10	O	0.787719	-0.135057	0.438212
O11	O	0.723396	-0.219850	0.208398
O12	O	0.638657	-0.219812	0.339079
O13	O	0.723406	-0.284005	0.568842
O14	O	0.638624	-0.284015	0.438094
O15	O	0.787676	-0.219794	0.568892
O16	O	0.787527	-0.368819	0.339078
O17	O	0.723321	-0.368790	0.438093
C18	C	0.619669	-0.251911	0.388580
C19	C	0.561555	-0.251914	0.388576
C20	C	0.310370	-0.218446	0.337165
C21	C	0.364974	-0.218441	0.337154
O22	O	0.393218	-0.189955	0.293397
N23	N	0.392282	-0.251920	0.388617
C24	C	0.364982	-0.285402	0.440099
O25	O	0.393222	-0.313878	0.483872
C26	C	0.310378	-0.285404	0.440113
C27	C	0.283074	-0.251927	0.388641
C28	C	0.283066	-0.184971	0.285697
C29	C	0.228465	-0.184977	0.285707
C30	C	0.201169	-0.218457	0.337183
C31	C	0.228473	-0.251932	0.388650
C32	C	0.283079	-0.318883	0.491598
C33	C	0.228472	-0.318882	0.491608
C34	C	0.201168	-0.285405	0.440136
C35	C	0.146577	-0.285419	0.440136
N36	N	0.119269	-0.251940	0.388673
C37	C	0.146566	-0.218459	0.337197
C38	C	0.479652	-0.285395	0.440067
C39	C	0.534255	-0.285397	0.440050
C40	C	0.534243	-0.218435	0.337106
C41	C	0.479640	-0.218436	0.337120
C42	C	0.452345	-0.251916	0.388605
C43	C	0.031900	-0.218474	0.337220
C44	C	-0.022705	-0.218484	0.337232
C45	C	-0.022689	-0.285444	0.440178
C46	C	0.031912	-0.285436	0.440164
C47	C	0.059205	-0.251947	0.388682
O48	O	0.118299	-0.313889	0.483874
O49	O	0.118318	-0.189983	0.293439
C50	C	0.755424	-0.387775	0.388595
C51	C	0.755434	-0.445889	0.388607
C52	C	0.789031	-0.806255	0.337163
C53	C	0.789051	-0.860859	0.337174
O54	O	0.817526	-0.889098	0.293394
N55	N	0.755604	-0.888172	0.388686
C56	C	0.722138	-0.860877	0.440196
O57	O	0.693690	-0.889123	0.484013
C58	C	0.722120	-0.806274	0.440189
C59	C	0.755566	-0.778964	0.388668
C60	C	0.822475	-0.778945	0.285646
C61	C	0.822454	-0.724344	0.285635
C62	C	0.788989	-0.697054	0.337140
C63	C	0.755545	-0.724364	0.388656
C64	C	0.688657	-0.778980	0.491703
C65	C	0.688643	-0.724373	0.491691
C66	C	0.722089	-0.697063	0.440170
C67	C	0.722059	-0.642472	0.440149
N68	N	0.755507	-0.615160	0.388637
C69	C	0.788972	-0.642450	0.337132
C70	C	0.722177	-0.975548	0.440209
C71	C	0.722191	-1.030150	0.440212
C72	C	0.789106	-1.030128	0.337191
C73	C	0.789089	-0.975525	0.337183
C74	C	0.755625	-0.948235	0.388697
C75	C	0.788925	-0.527785	0.337111
C76	C	0.788899	-0.473180	0.337102
C77	C	0.721987	-0.473207	0.440126
C78	C	0.722010	-0.527807	0.440133
C79	C	0.755483	-0.555095	0.388623
O80	O	0.693601	-0.614199	0.483909
O81	O	0.817419	-0.614198	0.293331
C82	C	0.891885	-0.251955	0.388685
C83	C	0.949999	-0.251965	0.388708
C84	C	0.755546	-0.251894	0.598941
C85	C	0.755560	-0.251877	0.688562
C86	C	0.755615	-0.115560	0.388687
C87	C	0.755658	-0.057446	0.388710
C88	C	0.755508	-0.251934	0.179141
C89	C	0.755595	-0.251803	0.089521
C90	C	0.755585	-0.251819	1.016738
C91	C	0.755576	-0.251837	0.925430
C92	C	0.755573	-0.251848	0.852653
C93	C	0.755564	-0.251865	0.761339
H94	H	-0.044934	-0.191222	0.295315
H95	H	0.054116	-0.191201	0.295302
O96	O	0.825203	-1.059572	0.281642
H97	H	0.848457	-1.031412	0.245811
O98	O	0.685936	-0.557268	0.495698
H99	H	0.662665	-0.529115	0.531512
H100	H	0.305284	-0.157704	0.243779
O101	O	0.858532	-0.694893	0.230070
H102	H	0.885109	-0.669974	0.266199
H103	H	0.694738	-0.450978	0.482058
O104	O	0.199018	-0.148862	0.230201
H105	H	0.227179	-0.125579	0.194416
O106	O	0.825167	-0.946070	0.281624
H107	H	0.848441	-0.974226	0.245818
H108	H	0.457413	-0.191174	0.295210
O109	O	0.199031	-0.355028	0.547085
H110	H	0.227195	-0.378319	0.582847
H111	H	0.457432	-0.312663	0.481991
O112	O	0.686114	-1.059604	0.495776
H113	H	0.662845	-1.031448	0.531589
O114	O	0.563689	-0.182316	0.281590
H115	H	0.606244	-0.187937	0.290239
O116	O	0.686069	-0.946114	0.495752
H117	H	0.662810	-0.974284	0.531560
O118	O	0.563703	-0.321503	0.495566
H119	H	0.553195	-0.362528	0.481632
O120	O	0.312522	-0.354986	0.547124
H121	H	0.284359	-0.378257	0.582925
H122	H	0.054144	-0.312700	0.482071
H123	H	-0.044923	-0.312705	0.482086
H124	H	0.661419	-0.801207	0.533653
H125	H	0.661393	-0.702156	0.533642
H126	H	0.816183	-0.549997	0.295169
O127	O	0.824978	-0.443723	0.281537
H128	H	0.848256	-0.471877	0.245733
H129	H	0.849729	-0.801159	0.243705
