data_functionalizedCrystal
_audit_creation_method	'MofGen! by Chris Wilmer'
_symmetry_space_group_name_H-M	'P1'
_symmetry_Int_Tables_number	1
_symmetry_cell_setting	triclinic
loop_
_symmetry_equiv_pos_as_xyz
  x,y,z
_cell_length_a	23.532355
_cell_length_b	23.532407
_cell_length_c	12.376457
_cell_angle_alpha	101.199798
_cell_angle_beta	78.786949
_cell_angle_gamma	82.838088
loop_
_atom_site_label
_atom_site_type_symbol
_atom_site_fract_x
_atom_site_fract_y
_atom_site_fract_z
O1	O	0.766246	0.058031	-0.093859
O2	O	0.600382	0.068061	-0.093896
O3	O	0.688313	-0.019884	-0.093856
O4	O	0.678315	0.145976	-0.093899
O5	O	0.666338	0.002072	0.094146
O6	O	0.578408	0.090017	0.094106
O7	O	0.744271	0.079988	0.094143
Zn8	Zn	0.657850	0.088489	0.123974
Zn9	Zn	0.686803	0.059560	-0.123727
O10	O	0.656340	0.167933	0.094103
C11	C	0.568179	0.078788	0.000100
C12	C	0.504962	0.078032	0.000087
C13	C	0.100964	0.085268	0.102615
C14	C	0.041564	0.084551	0.102620
O15	O	0.000658	0.094339	0.189774
N16	N	0.023834	0.072227	0.000141
C17	C	0.065508	0.060613	-0.102350
O18	O	0.044973	0.050064	-0.189516
C19	C	0.124908	0.061326	-0.102354
C20	C	0.142633	0.073657	0.000133
C21	C	0.118691	0.097597	0.205093
C22	C	0.178086	0.098315	0.205088
C23	C	0.219756	0.086704	0.102605
C24	C	0.202029	0.074375	0.000128
C25	C	0.166582	0.049709	-0.204843
C26	C	0.225984	0.050422	-0.204838
C27	C	0.243709	0.062753	-0.102351
C28	C	0.303094	0.063482	-0.102360
N29	N	0.320824	0.075806	0.000119
C30	C	0.279155	0.087417	0.102602
C31	C	-0.059235	0.059116	-0.102335
C32	C	-0.118633	0.058407	-0.102333
C33	C	-0.142574	0.082344	0.102637
C34	C	-0.083174	0.083057	0.102634
C35	C	-0.041505	0.071440	0.000144
C36	C	0.403891	0.088924	0.102584
C37	C	0.463293	0.089643	0.102570
C38	C	0.487228	0.065703	-0.102400
C39	C	0.427831	0.064987	-0.102387
C40	C	0.386163	0.076597	0.000114
O41	O	0.344032	0.053697	-0.189470
O42	O	0.299700	0.097957	0.189754
C43	C	0.677071	-0.030121	0.000148
C44	C	0.676304	-0.093337	0.000157
C45	C	0.723545	-0.492455	0.000106
C46	C	0.722834	-0.551856	0.000097
O47	O	0.766625	-0.588613	0.000065
N48	N	0.670558	-0.574474	0.000086
C49	C	0.618990	-0.537688	0.000072
O50	O	0.574460	-0.562381	0.000061
C51	C	0.619702	-0.478289	0.000073
C52	C	0.671980	-0.455674	0.000095
C53	C	0.775819	-0.469839	0.000127
C54	C	0.776529	-0.410442	0.000138
C55	C	0.724964	-0.373661	0.000127
C56	C	0.672690	-0.396277	0.000106
C57	C	0.568135	-0.441506	0.000051
C58	C	0.568852	-0.382104	0.000051
C59	C	0.621130	-0.359488	0.000073
C60	C	0.621836	-0.300098	0.000106
N61	N	0.674112	-0.277480	0.000118
C62	C	0.725676	-0.314262	0.000128
C63	C	0.617499	-0.662431	0.000069
C64	C	0.616785	-0.721828	0.000076
C65	C	0.720630	-0.735992	0.000099
C66	C	0.721342	-0.676593	0.000099
C67	C	0.669775	-0.639813	0.000080
C68	C	0.727163	-0.189522	0.000152
C69	C	0.727868	-0.130119	0.000167
C70	C	0.624025	-0.115961	0.000139
C71	C	0.623319	-0.175358	0.000129
C72	C	0.674893	-0.212139	0.000132
O73	O	0.578069	-0.263308	0.000134
O74	O	0.770201	-0.289562	0.000124
C75	C	0.776475	0.069260	0.000144
C76	C	0.839693	0.070015	0.000150
C77	C	0.667583	0.178170	0.000096
C78	C	0.668351	0.241385	0.000081
N79	N	0.638095	0.108231	0.293023
N80	N	0.706563	0.039813	-0.292776
C81	C	0.752421	-0.006027	0.648061
C82	C	0.766245	-0.019845	0.529728
C83	C	0.734208	0.012173	0.470546
C84	C	0.688346	0.058011	0.529709
C85	C	0.674524	0.071833	0.648054
C86	C	0.656312	0.090033	0.470538
C87	C	0.610450	0.135871	0.529702
C88	C	0.596630	0.149691	0.648035
C89	C	0.628666	0.117673	0.707217
C90	C	0.670134	0.076211	0.352193
C91	C	0.592237	0.154071	0.352186
C92	C	0.578413	0.167889	0.470520
H93	H	0.521165	0.056252	-0.185839
H94	H	0.477720	0.099687	0.186030
Br95	Br	0.142542	0.032972	-0.343941
H96	H	0.369970	0.098383	0.186050
Br97	Br	0.202133	0.115048	0.344184
Br98	Br	0.548760	0.197530	0.271877
Br99	Br	0.609900	0.136424	0.867820
H100	H	0.819100	-0.392035	0.000151
H101	H	0.559290	0.187019	0.696206
Br102	Br	0.516172	0.230096	0.550824
H103	H	0.084768	0.107052	0.288552
H104	H	0.259910	0.040962	-0.288299
Br105	Br	0.403772	0.048264	-0.241476
H106	H	0.580746	-0.193769	0.000142
Br107	Br	0.547507	-0.612520	0.000051
H108	H	0.525566	-0.459909	0.000026
H109	H	0.526859	-0.352160	0.000033
H110	H	0.574213	-0.740234	0.000077
H111	H	0.817812	-0.499782	0.000131
Br112	Br	-0.002688	0.043354	-0.241442
H113	H	0.582042	-0.086002	0.000134
Br114	Br	-0.059125	0.099792	0.241727
Br115	Br	-0.199136	0.098101	0.241723
Br116	Br	0.798822	-0.099430	0.000199
Br117	Br	0.797158	-0.239430	0.000154
H118	H	0.778504	-0.032089	0.696255
Br119	Br	0.732373	0.014005	0.271915
H120	H	-0.133060	0.048375	-0.185788
Br121	Br	0.828484	-0.082049	0.449436
H122	H	0.763912	-0.658184	0.000117
H123	H	0.762617	-0.765951	0.000103
H124	H	0.745466	0.000920	0.374193
