data_functionalizedCrystal
_audit_creation_method	'MofGen! by Chris Wilmer'
_symmetry_space_group_name_H-M	'P1'
_symmetry_Int_Tables_number	1
_symmetry_cell_setting	triclinic
loop_
_symmetry_equiv_pos_as_xyz
  x,y,z
_cell_length_a	14.971491
_cell_length_b	10.723023
_cell_length_c	14.048226
_cell_angle_alpha	89.994597
_cell_angle_beta	89.991693
_cell_angle_gamma	84.041892
loop_
_atom_site_label
_atom_site_type_symbol
_atom_site_fract_x
_atom_site_fract_y
_atom_site_fract_z
O1	O	1.187817	0.162647	-0.079199
O2	O	0.927522	0.182114	-0.079192
O3	O	1.063674	-0.009258	-0.079192
O4	O	1.051665	0.354019	-0.079199
O5	O	1.063658	-0.009270	0.079129
O6	O	0.927506	0.182103	0.079129
O7	O	1.187801	0.162636	0.079122
Zn8	Zn	1.057650	0.172367	0.104263
Zn9	Zn	1.057672	0.172382	-0.104333
O10	O	1.051649	0.354008	0.079122
C11	C	0.894185	0.181237	-0.000030
C12	C	0.794874	0.178624	-0.000028
C13	C	1.062792	-0.055754	-0.000032
C14	C	1.060178	-0.194281	-0.000035
C15	C	0.367117	0.167358	-0.086350
C16	C	0.460430	0.169809	-0.086347
C17	C	0.507073	0.171036	-0.000043
C18	C	0.460400	0.169800	0.086264
C19	C	0.367089	0.167340	0.086259
C20	C	0.654889	0.174930	0.086267
C21	C	0.748206	0.177392	0.086272
C22	C	0.748230	0.177398	-0.086339
C23	C	0.654919	0.174939	-0.086343
C24	C	0.608252	0.173705	-0.000037
C25	C	1.059021	-0.256029	-0.082052
C26	C	1.056319	-0.399204	-0.082057
C27	C	1.221138	0.163513	-0.000042
C28	C	1.320449	0.166126	-0.000051
C29	C	1.052531	0.400504	-0.000040
C30	C	1.055145	0.539031	-0.000043
N31	N	1.057642	0.172357	0.246623
N32	N	1.057688	0.172383	-0.246693
C33	C	1.117949	0.087652	0.296441
C34	C	1.117955	0.087651	0.396099
C35	C	1.057658	0.172362	0.445937
C36	C	0.997344	0.257071	0.396112
C37	C	0.997334	0.257064	0.296456
C38	C	0.997370	0.257080	0.603826
C39	C	0.997380	0.257088	0.703489
C40	C	1.117991	0.087667	0.703469
C41	C	1.117981	0.087660	0.603813
C42	C	1.057668	0.172371	0.553995
H43	H	0.329146	0.166367	-0.156630
Cl44	Cl	1.060601	-0.174012	-0.190462
H45	H	0.498423	0.170804	-0.156621
Cl46	Cl	1.058612	-0.276301	0.108375
H47	H	1.167054	0.018676	0.255870
Cl48	Cl	0.921535	0.363561	0.458763
H49	H	0.786231	0.178405	-0.156613
Cl50	Cl	1.193789	-0.018826	0.541158
H51	H	0.329092	0.166350	0.156533
H52	H	1.056144	-0.407876	0.070178
Cl53	Cl	1.193771	-0.018838	0.458729
H54	H	1.167099	0.018692	0.744037
H55	H	0.948279	0.326067	0.744062
Cl56	Cl	0.921543	0.363573	0.541201
H57	H	0.948225	0.326038	0.255895
H58	H	0.616944	0.173948	-0.156620
H59	H	0.786180	0.178398	0.156549
H60	H	0.498385	0.170791	0.156534
Cl61	Cl	0.596224	0.173365	0.194769
Cl62	Cl	1.054790	-0.481183	-0.190473
