data_functionalizedCrystal
_audit_creation_method	'MofGen! by Chris Wilmer'
_symmetry_space_group_name_H-M	'P1'
_symmetry_Int_Tables_number	1
_symmetry_cell_setting	triclinic
loop_
_symmetry_equiv_pos_as_xyz
  x,y,z
_cell_length_a	23.096457
_cell_length_b	23.096457
_cell_length_c	23.096457
_cell_angle_alpha	90.011518
_cell_angle_beta	60.008701
_cell_angle_gamma	60.000185
loop_
_atom_site_label
_atom_site_type_symbol
_atom_site_fract_x
_atom_site_fract_y
_atom_site_fract_z
Zr1	Zr	0.633740	0.557763	-0.075976
O2	O	0.754526	0.465295	-0.168417
O3	O	0.512954	0.586107	-0.047641
O4	O	0.633742	0.586081	-0.168427
O5	O	0.633736	0.465344	0.047651
O6	O	0.633743	0.681361	-0.168430
O7	O	0.633738	0.465321	-0.047631
O8	O	0.417676	0.681407	0.047634
O9	O	0.849804	0.465298	-0.168413
O10	O	0.562636	0.669304	-0.035555
O11	O	0.562634	0.598215	0.035556
O12	O	0.704846	0.598184	-0.106654
O13	O	0.704844	0.527095	-0.035543
Zr14	Zr	0.633740	0.709760	0.075983
Zr15	Zr	0.633742	0.709724	-0.075981
Zr16	Zr	0.633737	0.557799	0.075988
Zr17	Zr	0.785697	0.557767	-0.075969
Zr18	Zr	0.481782	0.709756	0.075976
O19	O	0.754526	0.681416	0.047648
O20	O	0.754529	0.681365	-0.168425
O21	O	0.754522	0.465347	0.047656
O22	O	0.512954	0.802227	0.168424
O23	O	0.512958	0.802176	-0.047649
O24	O	0.512950	0.586158	0.168432
O25	O	0.633743	0.802179	-0.047644
O26	O	0.633738	0.681442	0.168434
O27	O	0.633736	0.586161	0.168437
O28	O	0.633742	0.802202	0.047638
O29	O	0.849806	0.586087	-0.168418
O30	O	0.417674	0.681436	0.168425
O31	O	0.417676	0.802225	0.168420
O32	O	0.417678	0.802196	0.047629
O33	O	0.849802	0.465326	-0.047622
O34	O	0.849804	0.586115	-0.047627
O35	O	0.562634	0.669338	0.106661
O36	O	0.562636	0.740428	0.035551
O37	O	0.704846	0.669308	-0.035549
O38	O	0.704844	0.598218	0.035562
C39	C	0.443664	0.633757	-0.000004
C40	C	0.379154	0.633755	-0.000007
C41	C	0.633737	0.443681	0.000011
C42	C	0.633736	0.379170	0.000013
C43	C	0.348855	0.670858	-0.037129
C44	C	0.288232	0.670865	-0.037123
C45	C	0.257924	0.633755	-0.000005
C46	C	0.288228	0.596650	0.037124
C47	C	0.348843	0.596650	0.037123
N48	N	0.195527	0.573349	-0.005150
N49	N	0.137946	0.573351	-0.005153
C50	C	0.075292	0.633754	0.000001
N51	N	0.072401	0.694155	0.005145
N52	N	0.129989	0.694152	0.005144
C53	C	0.192196	0.633751	0.000000
C54	C	-0.020742	0.670868	-0.037116
C55	C	-0.081369	0.670877	-0.037105
C56	C	-0.081367	0.596655	0.037138
C57	C	-0.020747	0.596653	0.037132
C58	C	0.009564	0.633758	0.000001
C59	C	0.559506	0.385988	0.037119
C60	C	0.559505	0.325372	0.037122
C61	C	0.633737	0.257939	0.000005
C62	C	0.707977	0.251123	-0.037103
C63	C	0.707976	0.311739	-0.037099
N64	N	0.688994	0.135130	-0.060404
N65	N	0.688989	0.077551	-0.060406
C66	C	0.633745	0.075306	-0.000007
N67	N	0.578492	0.132823	0.060393
N68	N	0.578494	0.190408	0.060394
C69	C	0.633747	0.192208	-0.000003
C70	C	0.559509	0.016401	0.037106
C71	C	0.559511	-0.044217	0.037111
C72	C	0.707985	-0.118466	-0.037121
C73	C	0.707981	-0.057848	-0.037119
C74	C	0.633741	0.009583	-0.000008
C75	C	0.823815	0.633766	0.000012
C76	C	0.888325	0.633768	0.000014
C77	C	0.633743	0.633716	-0.190080
C78	C	0.633744	0.633701	-0.254593
C79	C	0.633743	0.823842	-0.000003
C80	C	0.633744	0.888353	-0.000006
C81	C	0.707974	0.596581	-0.322009
C82	C	0.707975	0.596599	-0.382626
C83	C	0.633742	0.633727	-0.375821
C84	C	0.559503	0.670856	-0.308392
C85	C	0.559504	0.670843	-0.247778
N86	N	0.578486	0.628604	-0.443379
N87	N	0.578490	0.628613	-0.500963
C88	C	0.633735	0.633771	-0.558447
N89	N	0.688988	0.638907	-0.556178
N90	N	0.688986	0.638894	-0.498590
C91	C	0.633733	0.633746	-0.441543
C92	C	0.707971	0.596668	-0.691593
C93	C	0.707969	0.596692	-0.752209
C94	C	0.559495	0.670944	-0.677974
C95	C	0.559499	0.670926	-0.617360
C96	C	0.633739	0.633784	-0.624174
C97	C	0.633737	0.633806	0.190087
C98	C	0.633736	0.633822	0.254600
C99	C	0.443668	0.823837	-0.000011
C100	C	0.379159	0.888347	-0.000017
C101	C	0.443661	0.633802	0.190079
C102	C	0.379150	0.633815	0.254589
C103	C	0.443664	0.823882	0.190072
C104	C	0.379154	0.888407	0.254580
C105	C	0.823815	0.443641	-0.190065
C106	C	0.888325	0.379115	-0.254573
C107	C	0.823812	0.443686	0.000019
C108	C	0.888321	0.379176	0.000024
C109	C	0.823819	0.633721	-0.190072
C110	C	0.888329	0.633707	-0.254582
C111	C	0.348865	0.881515	-0.037141
C112	C	0.288260	0.942124	-0.037160
C113	C	0.257947	1.009562	-0.000050
C114	C	0.288247	1.016392	0.037076
C115	C	0.348854	0.955785	0.037091
C116	C	0.348855	0.670948	0.322006
C117	C	0.288249	0.670958	0.382626
C118	C	0.257934	0.633839	0.375827
C119	C	0.288235	0.596703	0.308403
C120	C	0.348845	0.596689	0.247784
C121	C	0.348861	0.955823	0.247754
C122	C	0.288256	1.016458	0.308360
C123	C	0.257941	1.009674	0.375791
C124	C	0.288240	0.942250	0.382615
C125	C	0.348848	0.881618	0.322010
C126	C	0.918626	0.311699	-0.247747
C127	C	0.979250	0.251065	-0.308353
C128	C	1.009568	0.257849	-0.375784
C129	C	0.979265	0.325272	-0.382608
C130	C	0.918646	0.385905	-0.322003
C131	C	0.918621	0.386007	0.037142
C132	C	0.979242	0.325399	0.037145
C133	C	1.009558	0.257960	0.000032
C134	C	0.979255	0.251131	-0.037091
C135	C	0.918639	0.311738	-0.037097
C136	C	0.918625	0.670833	-0.247760
C137	C	0.979232	0.670834	-0.308368
C138	C	1.009546	0.633705	-0.375797
C139	C	0.979245	0.596578	-0.382618
C140	C	0.918635	0.596582	-0.322010
H141	H	0.373531	0.701073	-0.067361
H142	H	0.263548	0.936738	0.437525
H143	H	0.499053	0.701176	-0.672432
C144	C	0.789633	0.176945	-0.077935
N145	N	0.851140	0.121073	-0.108690
H146	H	0.263557	1.071309	0.067290
C147	C	0.477846	0.711695	-0.300909
N148	N	0.416340	0.742458	-0.295270
H149	H	0.208582	0.633856	0.425192
C150	C	1.076234	0.191297	0.000049
N151	N	1.126452	0.141088	0.000067
H152	H	1.003937	0.566348	-0.437526
H153	H	0.263597	0.936549	-0.067393
H154	H	1.003905	0.330974	0.067377
H155	H	-0.106044	0.566440	0.067360
H156	H	0.263544	0.566482	0.302877
H157	H	0.499056	0.330924	0.067339
C158	C	0.885292	0.304220	-0.173579
N159	N	0.860194	0.298580	-0.117716
C160	C	0.382162	0.807461	0.329530
N161	N	0.407253	0.751607	0.335199
H162	H	0.208596	1.058907	-0.000067
H163	H	1.003948	0.196214	-0.067308
C164	C	0.789643	-0.192640	-0.077949
N165	N	0.851149	-0.248512	-0.108701
H166	H	1.058928	0.208472	-0.425126
H167	H	1.003896	0.701066	-0.302801
H168	H	0.373512	0.961357	0.067326
H169	H	0.373535	0.961360	0.192854
C170	C	0.254898	0.711681	-0.077963
N171	N	0.229793	0.742423	-0.108725
H172	H	0.893975	0.566346	-0.327574
H173	H	0.208589	1.059051	0.425134
H174	H	0.373503	0.566454	0.192893
C175	C	1.076221	0.633707	-0.442461
N176	N	1.126441	0.633709	-0.492669
C177	C	0.254930	1.090616	0.300837
N178	N	0.229829	1.146471	0.295169
H179	H	1.003913	0.196172	-0.302783
H180	H	-0.106043	0.701096	-0.067331
H181	H	0.893970	0.306166	-0.067322
H182	H	0.263546	0.566435	0.067347
H183	H	1.003958	0.330787	-0.437517
H184	H	0.003926	0.566437	0.067357
C185	C	0.885313	0.460061	-0.329523
N186	N	0.860207	0.515916	-0.335192
H187	H	0.373530	0.701174	0.327556
C188	C	0.885289	0.460184	0.077968
N189	N	0.860192	0.516053	0.108717
C190	C	0.477841	0.711675	-0.173614
N191	N	0.416332	0.742428	-0.117752
H192	H	0.499053	0.440889	0.067334
C193	C	0.254921	0.711821	0.456786
N194	N	0.229818	0.742601	0.512641
H195	H	0.893952	0.701068	-0.192861
H196	H	0.003936	0.701084	-0.067347
C197	C	0.382168	0.555837	0.077967
N198	N	0.407268	0.525097	0.108733
H199	H	0.768425	0.306181	-0.067314
C200	C	0.477847	-0.036712	0.077928
N201	N	0.416337	-0.031059	0.108669
C202	C	0.477843	0.090577	0.077938
N203	N	0.416332	0.146446	0.108694
H204	H	0.768427	-0.063403	-0.067340
H205	H	0.768426	0.566340	-0.327564
H206	H	0.768424	0.566369	-0.437527
C207	C	0.477839	0.711753	-0.543197
N208	N	0.416329	0.742507	-0.487335
C209	C	0.789636	0.555820	-0.699087
N210	N	0.851147	0.525054	-0.704734
H211	H	0.768418	0.566466	-0.807105
H212	H	0.373545	0.826609	-0.067370
