data_functionalizedCrystal
_audit_creation_method	'MofGen! by Chris Wilmer'
_symmetry_space_group_name_H-M	'P1'
_symmetry_Int_Tables_number	1
_symmetry_cell_setting	triclinic
loop_
_symmetry_equiv_pos_as_xyz
  x,y,z
_cell_length_a	12.594516
_cell_length_b	12.827893
_cell_length_c	12.827885
_cell_angle_alpha	89.980538
_cell_angle_beta	89.971946
_cell_angle_gamma	90.016213
loop_
_atom_site_label
_atom_site_type_symbol
_atom_site_fract_x
_atom_site_fract_y
_atom_site_fract_z
Zn1	Zn	-0.423686	1.597667	-0.590861
Zn2	Zn	-0.601702	1.597558	-0.416127
Zn3	Zn	-0.423738	1.422908	-0.416135
Zn4	Zn	-0.601623	1.422891	-0.590827
O5	O	-0.512687	1.510256	-0.503487
O6	O	-0.447311	1.743888	-0.567693
O7	O	-0.578150	1.574352	-0.269892
O8	O	-0.274786	1.446142	-0.439330
O9	O	-0.578099	1.743809	-0.439317
O10	O	-0.274747	1.574537	-0.567701
O11	O	-0.447400	1.446037	-0.269898
O12	O	-0.447324	1.276669	-0.439297
O13	O	-0.577965	1.446114	-0.737067
O14	O	-0.578016	1.276658	-0.567642
O15	O	-0.447235	1.574521	-0.737093
O16	O	-0.750637	1.574336	-0.439283
O17	O	-0.750580	1.446009	-0.567635
C18	C	-0.512668	1.238746	-0.503468
C19	C	-0.512685	1.122593	-0.503484
C20	C	-0.448082	1.070848	-0.567108
C21	C	-0.448098	0.950797	-0.567126
C22	C	-0.789228	1.510188	-0.503477
C23	C	-0.907534	1.510254	-0.503508
C24	C	-0.976794	1.440450	-0.573269
C25	C	-1.047663	1.414988	-0.477914
C26	C	-1.047464	1.535811	-0.598879
C27	C	-0.976844	1.484741	-0.408102
C28	C	-0.976639	1.605609	-0.529132
C29	C	-1.047476	1.580183	-0.433711
C30	C	-0.235067	1.510353	-0.503521
C31	C	-0.116761	1.510395	-0.503535
C32	C	-0.512708	1.782826	-0.503508
C33	C	-0.512717	1.898979	-0.503517
C34	C	-0.512585	1.510328	-0.776058
C35	C	-0.512542	1.510359	-0.892211
C36	C	-0.447830	1.446885	-0.943999
C37	C	-0.447784	1.446915	-1.064049
C38	C	-0.512712	1.510244	-0.231978
C39	C	-0.512456	1.510416	-0.115825
H40	H	-0.568034	0.943473	-0.449049
H41	H	-0.945758	1.381314	-0.632178
C42	C	-0.373028	1.373437	-0.883838
C43	C	-0.252009	1.381997	-0.898755
C44	C	-0.177204	1.308547	-0.838596
C45	C	-0.223419	1.226538	-0.763521
C46	C	-0.344444	1.217975	-0.748601
C47	C	-0.419249	1.291424	-0.808760
H48	H	-0.217793	1.442708	-0.954333
H49	H	-0.087613	1.314887	-0.849642
H50	H	-0.168044	1.172166	-0.718989
H51	H	-0.378660	1.157264	-0.693023
H52	H	-0.508840	1.285085	-0.797714
C53	C	-0.373374	0.890690	-0.640718
C54	C	-0.382187	0.905653	-0.759513
C55	C	-0.307460	0.845544	-0.833107
C56	C	-0.223920	0.770472	-0.787906
C57	C	-0.215104	0.755506	-0.669105
C58	C	-0.289831	0.815615	-0.595510
H59	H	-0.444031	0.961229	-0.792979
H60	H	-0.313986	0.856623	-0.921052
H61	H	-0.168603	0.725975	-0.842385
H62	H	-0.153260	0.699930	-0.635638
H63	H	-0.283305	0.804536	-0.507565
H64	H	-0.392377	1.392577	-1.108585
C65	C	-1.089815	1.306135	-0.448639
C66	C	-1.061957	1.211229	-0.516842
C67	C	-1.104106	1.102375	-0.487576
C68	C	-1.174111	1.088427	-0.390106
C69	C	-1.201973	1.183337	-0.321897
C70	C	-1.159825	1.292191	-0.351163
H71	H	-1.010131	1.221552	-0.589000
H72	H	-1.083480	1.032117	-0.538069
H73	H	-1.205312	1.007847	-0.368442
H74	H	-1.253799	1.173014	-0.249739
H75	H	-1.180450	1.362448	-0.300670
C76	C	-0.587426	1.062386	-0.429911
C77	C	-0.541147	0.987291	-0.348022
C78	C	-0.615890	0.927087	-0.274446
C79	C	-0.736912	0.941978	-0.282759
C80	C	-0.783197	1.017077	-0.364651
C81	C	-0.708454	1.077281	-0.438227
H82	H	-0.451554	0.976264	-0.341865
H83	H	-0.581626	0.871493	-0.213824
H84	H	-0.792241	0.897412	-0.228294
H85	H	-0.872790	1.028104	-0.370808
H86	H	-0.742717	1.132874	-0.498849
H87	H	-0.945951	1.463088	-0.327436
C88	C	-0.587309	1.583838	-1.055676
C89	C	-0.541153	1.665811	-0.980627
C90	C	-0.616006	1.739233	-0.920469
C91	C	-0.737013	1.730681	-0.935361
C92	C	-0.783174	1.648704	-1.010414
C93	C	-0.708322	1.575283	-1.070571
H94	H	-0.451571	1.672145	-0.969600
H95	H	-0.581833	1.799918	-0.864910
H96	H	-0.792423	1.785032	-0.890829
H97	H	-0.872756	1.642371	-1.021441
H98	H	-0.742494	1.514598	-1.126130
H99	H	-0.392757	1.115423	-0.621561
H100	H	-1.078316	1.639274	-0.374660
H101	H	-0.567910	1.564722	-0.936750
H102	H	-0.945422	1.686165	-0.550829
C103	C	-1.089373	1.564947	-0.707820
C104	C	-1.209795	1.571286	-0.727554
C105	C	-1.251700	1.600412	-0.836496
C106	C	-1.173182	1.623200	-0.925703
C107	C	-1.052752	1.616862	-0.905972
C108	C	-1.010847	1.587735	-0.797030
H109	H	-1.267926	1.554417	-0.661515
H110	H	-1.340850	1.605104	-0.851102
H111	H	-1.204202	1.644761	-1.006348
H112	H	-0.994621	1.633731	-0.972011
H113	H	-0.921697	1.583043	-0.782424
