data_functionalizedCrystal
_audit_creation_method	'MofGen! by Chris Wilmer'
_symmetry_space_group_name_H-M	'P1'
_symmetry_Int_Tables_number	1
_symmetry_cell_setting	triclinic
loop_
_symmetry_equiv_pos_as_xyz
  x,y,z
_cell_length_a	14.519709
_cell_length_b	10.489741
_cell_length_c	13.596369
_cell_angle_alpha	89.994306
_cell_angle_beta	90.000291
_cell_angle_gamma	84.109659
loop_
_atom_site_label
_atom_site_type_symbol
_atom_site_fract_x
_atom_site_fract_y
_atom_site_fract_z
O1	O	1.224779	0.167203	-0.081663
O2	O	0.956410	0.186894	-0.081693
O3	O	1.096701	-0.008613	-0.081671
O4	O	1.084488	0.362710	-0.081684
O5	O	1.096687	-0.008623	0.081912
O6	O	0.956396	0.186883	0.081890
O7	O	1.224765	0.167193	0.081920
Zn8	Zn	1.090578	0.177037	0.107878
Zn9	Zn	1.090597	0.177050	-0.107650
O10	O	1.084474	0.362700	0.081899
C11	C	0.922038	0.185971	0.000095
C12	C	0.819642	0.183221	0.000084
C13	C	0.444691	0.173098	0.000129
C14	C	0.549014	0.175909	0.000116
C15	C	0.632163	0.178159	0.000105
C16	C	0.736493	0.180971	0.000094
C17	C	1.095772	-0.056140	0.000120
C18	C	1.093012	-0.197741	0.000118
C19	C	1.003749	-0.264951	0.000100
C20	C	1.045909	-0.357518	0.080760
C21	C	1.045944	-0.357482	-0.080520
C22	C	1.135209	-0.288443	0.080844
C23	C	1.135232	-0.288398	-0.080509
C24	C	1.177457	-0.380938	0.000171
C25	C	1.259137	0.168116	0.000130
C26	C	1.361533	0.170866	0.000135
C27	C	1.085403	0.410227	0.000106
C28	C	1.088163	0.551828	0.000101
N29	N	1.090572	0.177026	0.254969
N30	N	1.090610	0.177050	-0.254742
C31	C	1.090596	0.177052	0.656260
C32	C	1.090586	0.177049	0.544609
C33	C	1.090584	0.177040	0.455618
C34	C	1.090574	0.177035	0.343960
H35	H	1.008134	-0.388140	0.148944
H36	H	1.008169	-0.388048	-0.148718
H37	H	0.930357	-0.214534	0.000173
C38	C	1.185414	-0.247302	-0.171458
C39	C	1.125697	-0.161290	-0.226260
C40	C	1.171889	-0.123388	-0.310050
H41	H	1.204512	-0.320394	-0.210453
H42	H	1.238154	-0.206821	-0.152121
H43	H	1.072974	-0.201773	-0.245598
H44	H	1.106596	-0.088180	-0.187294
H45	H	1.224629	-0.082907	-0.290713
H46	H	1.190985	-0.196487	-0.349037
H47	H	1.131381	-0.065017	-0.347239
C48	C	1.185448	-0.247612	0.171840
C49	C	1.187395	-0.114447	0.170820
C50	C	1.233652	-0.076783	0.254635
H51	H	1.247003	-0.288241	0.172167
H52	H	1.153935	-0.271750	0.229067
H53	H	1.218909	-0.090322	0.113608
H54	H	1.125852	-0.073786	0.170508
H55	H	1.202139	-0.100920	0.311862
H56	H	1.295204	-0.117419	0.254954
H57	H	1.234971	0.013574	0.253958
C58	C	1.275420	-0.447808	0.000440
C59	C	1.321705	-0.412807	0.085043
C60	C	1.411943	-0.474398	0.085336
H61	H	1.307485	-0.423146	-0.056242
H62	H	1.273168	-0.538003	-0.000052
H63	H	1.323961	-0.322632	0.085525
H64	H	1.289668	-0.437471	0.141738
H65	H	1.409691	-0.564593	0.084844
H66	H	1.443999	-0.449731	0.028651
H67	H	1.443356	-0.450668	0.142742
