data_functionalizedCrystal
_audit_creation_method	'MofGen! by Chris Wilmer'
_symmetry_space_group_name_H-M	'P1'
_symmetry_Int_Tables_number	1
_symmetry_cell_setting	triclinic
loop_
_symmetry_equiv_pos_as_xyz
  x,y,z
_cell_length_a	11.026607
_cell_length_b	17.038272
_cell_length_c	10.065875
_cell_angle_alpha	99.426590
_cell_angle_beta	79.302338
_cell_angle_gamma	99.848786
loop_
_atom_site_label
_atom_site_type_symbol
_atom_site_fract_x
_atom_site_fract_y
_atom_site_fract_z
O1	O	1.661277	0.323101	-0.113507
O2	O	2.161277	0.823101	0.386493
O3	O	1.304065	0.285271	-0.113508
O4	O	1.804065	0.785271	0.386492
O5	O	1.480547	0.190072	-0.113497
O6	O	1.980547	0.690072	0.386503
O7	O	1.484796	0.418300	-0.113518
O8	O	1.984796	0.918300	0.386482
O9	O	1.446904	0.208319	0.113490
O10	O	1.946904	0.708319	0.613490
O11	O	1.270422	0.303517	0.113479
O12	O	1.770422	0.803517	0.613479
O13	O	1.627634	0.341348	0.113479
O14	O	2.127634	0.841348	0.613479
Zn15	Zn	1.443687	0.325329	0.149518
Zn16	Zn	1.943687	0.825329	0.649518
Zn17	Zn	1.488013	0.301289	-0.149547
Zn18	Zn	1.988013	0.801289	0.350453
O19	O	1.451153	0.436546	0.113468
O20	O	1.951153	0.936546	0.613468
C21	C	1.241312	0.287415	-0.000014
C22	C	1.741312	0.787415	0.499986
C23	C	1.104451	0.266610	-0.000014
C24	C	1.604451	0.766610	0.499986
C25	C	1.036576	0.324055	-0.000020
C26	C	1.536576	0.824055	0.499980
C27	C	0.895122	0.302554	-0.000020
C28	C	1.395122	0.802554	0.499980
C29	C	1.459863	0.169523	-0.000004
C30	C	1.959863	0.669523	0.499996
C31	C	1.448341	0.081107	-0.000004
C32	C	1.948341	0.581107	0.499996
C33	C	1.554125	0.045899	-0.000002
C34	C	2.054125	0.545899	0.499998
C35	C	1.543294	-0.037179	-0.000015
C36	C	2.043294	0.462821	0.499985
C37	C	1.426676	-0.085047	-0.000020
C38	C	1.926676	0.414953	0.499980
C39	C	1.320885	-0.049835	-0.000026
C40	C	1.820885	0.450165	0.499974
C41	C	1.331719	0.033241	-0.000022
C42	C	1.831719	0.533241	0.499978
C43	C	1.388403	-0.336200	-0.000039
C44	C	1.888403	0.163800	0.499961
C45	C	1.377576	-0.419281	-0.000038
C46	C	1.877576	0.080719	0.499962
C47	C	1.599986	-0.406621	-0.000030
C48	C	2.099986	0.093379	0.499970
C49	C	1.610809	-0.323543	-0.000019
C50	C	2.110809	0.176457	0.499981
C51	C	1.505019	-0.288338	-0.000032
C52	C	2.005019	0.211662	0.499968
C53	C	1.415601	-0.169966	-0.000029
C54	C	1.915601	0.330034	0.499971
C55	C	1.516096	-0.203421	-0.000032
C56	C	2.016096	0.296579	0.499968
C57	C	1.690387	0.339203	-0.000017
C58	C	2.190387	0.839203	0.499983
C59	C	1.827251	0.360008	-0.000026
C60	C	2.327251	0.860008	0.499974
C61	C	1.471837	0.457095	-0.000028
C62	C	1.971837	0.957095	0.499972
C63	C	1.483360	0.545511	-0.000036
C64	C	1.983360	1.045511	0.499964
N65	N	1.413444	0.341737	0.353622
N66	N	1.913444	0.841737	0.853622
N67	N	1.518264	0.284877	-0.353650
N68	N	2.018264	0.784877	0.146350
C69	C	1.477482	0.306992	0.421405
C70	C	1.977482	0.806992	0.921405
C71	C	1.454217	0.319627	0.578571
C72	C	1.954217	0.819627	1.078571
H73	H	0.873855	0.425112	-0.000023
H74	H	1.373855	0.925112	0.499977
H75	H	1.341390	0.380834	0.411944
H76	H	1.841390	0.880834	0.911944
C77	C	1.215357	0.071970	-0.000021
C78	C	1.715357	0.571970	0.499979
H79	H	1.144349	0.031566	-0.000012
H80	H	1.644349	0.531566	0.499988
H81	H	1.226694	0.097756	-0.079175
H82	H	1.726694	0.597756	0.420825
H83	H	1.203226	0.110475	0.079145
H84	H	1.703226	0.610475	0.579145
C85	C	1.574814	0.254168	0.342629
C86	C	2.074814	0.754168	0.842629
H87	H	1.577687	0.252609	0.247329
H88	H	2.077687	0.752609	0.747329
H89	H	1.552311	0.201207	0.365989
H90	H	2.052311	0.701207	0.865989
H91	H	1.654504	0.276110	0.365956
H92	H	2.154504	0.776110	0.865956
C93	C	1.356881	0.372453	0.657341
C94	C	1.856881	0.872453	1.157341
H95	H	1.354019	0.374020	0.752640
H96	H	1.854019	0.874020	1.252640
H97	H	1.277196	0.350520	0.634011
H98	H	1.777196	0.850520	1.134011
H99	H	1.379397	0.425419	0.633984
H100	H	1.879397	0.925419	1.133984
H101	H	1.057843	0.201508	-0.000043
H102	H	1.557843	0.701508	0.499957
H103	H	1.083188	0.389155	-0.000019
H104	H	1.583188	0.889155	0.499981
H105	H	1.649086	0.084868	0.000010
H106	H	2.149086	0.584868	0.500010
H107	H	1.590314	0.245770	0.588033
H108	H	2.090314	0.745770	1.088033
C109	C	0.832171	0.214604	-0.000019
C110	C	1.332171	0.714604	0.499981
H111	H	0.745358	0.211689	-0.000031
H112	H	1.245358	0.711689	0.499969
H113	H	0.844420	0.195291	0.079134
H114	H	1.344420	0.695291	0.579134
H115	H	0.867887	0.182574	-0.079186
H116	H	1.367887	0.682574	0.420814
H117	H	1.705771	-0.284574	-0.000015
H118	H	2.205771	0.215426	0.499985
C119	C	1.659654	-0.075904	0.000000
C120	C	2.159654	0.424096	0.500000
H121	H	1.730655	-0.035495	0.000023
H122	H	2.230655	0.464505	0.500023
H123	H	1.671795	-0.114408	-0.079155
H124	H	2.171795	0.385592	0.420845
H125	H	1.648307	-0.101687	0.079166
H126	H	2.148307	0.398313	0.579166
H127	H	1.686114	-0.435294	-0.000022
H128	H	2.186114	0.064706	0.499978
H129	H	1.611050	-0.164446	-0.000059
H130	H	2.111050	0.335554	0.499941
C131	C	1.249295	-0.471937	-0.000066
C132	C	1.749295	0.028063	0.499934
H133	H	1.187843	-0.439074	-0.000090
H134	H	1.687843	0.060926	0.499910
H135	H	1.228701	-0.498252	0.079084
H136	H	1.728701	0.001748	0.579084
H137	H	1.252201	-0.510965	-0.079236
H138	H	1.752201	-0.010965	0.420764
H139	H	1.302260	-0.307547	-0.000049
H140	H	1.802260	0.192453	0.499951
C141	C	1.192608	-0.102487	-0.000027
C142	C	1.692608	0.397513	0.499973
H143	H	1.201302	-0.157005	-0.000013
H144	H	1.701302	0.342995	0.499987
H145	H	1.160420	-0.097833	-0.079180
H146	H	1.660420	0.402167	0.420820
H147	H	1.136963	-0.085108	0.079140
H148	H	1.636963	0.414892	0.579140
H149	H	1.320650	-0.208950	-0.000030
H150	H	1.820650	0.291050	0.499970
