data_functionalizedCrystal
_audit_creation_method	'MofGen! by Chris Wilmer'
_symmetry_space_group_name_H-M	'P1'
_symmetry_Int_Tables_number	1
_symmetry_cell_setting	triclinic
loop_
_symmetry_equiv_pos_as_xyz
  x,y,z
_cell_length_a	13.032831
_cell_length_b	16.120531
_cell_length_c	13.032268
_cell_angle_alpha	80.361611
_cell_angle_beta	90.886977
_cell_angle_gamma	93.915245
loop_
_atom_site_label
_atom_site_type_symbol
_atom_site_fract_x
_atom_site_fract_y
_atom_site_fract_z
Zn1	Zn	1.458690	0.562090	-0.811406
Zn2	Zn	1.471654	0.686096	-0.646171
Zn3	Zn	1.311010	0.527321	-0.615756
Zn4	Zn	1.278221	0.681596	-0.796051
O5	O	1.379894	0.614276	-0.717346
O6	O	1.603167	0.594974	-0.808642
O7	O	1.469492	0.652367	-0.497530
O8	O	1.338897	0.415471	-0.635407
O9	O	1.612692	0.686081	-0.687244
O10	O	1.447397	0.441015	-0.779150
O11	O	1.351467	0.535715	-0.475185
O12	O	1.163903	0.531351	-0.620518
O13	O	1.283013	0.678411	-0.942694
O14	O	1.139813	0.644697	-0.752980
O15	O	1.415603	0.590610	-0.953975
O16	O	1.437698	0.801962	-0.672355
O17	O	1.295584	0.798655	-0.782472
C18	C	1.114843	0.583763	-0.681783
C19	C	1.001448	0.570732	-0.666594
C20	C	0.939008	0.621077	-0.725273
C21	C	0.821808	0.607610	-0.709576
C22	C	1.364514	0.830511	-0.729074
C23	C	1.358024	0.923031	-0.734138
C24	C	1.346177	1.092429	-0.743406
C25	C	1.413657	1.135281	-0.691233
C26	C	1.407065	1.229540	-0.696389
C27	C	1.352767	0.998162	-0.738250
C28	C	1.645980	0.644908	-0.753049
C29	C	1.759370	0.657961	-0.768263
C30	C	1.344204	0.637887	-0.986877
C31	C	1.328995	0.647949	-1.101735
C32	C	1.395324	1.397195	-0.705575
C33	C	1.401814	1.304674	-0.700498
C34	C	1.387818	0.608993	-1.158525
C35	C	1.372100	0.619391	-1.277237
C36	C	1.415508	0.590703	-0.448868
C37	C	1.430931	0.580429	-0.334024
H38	H	0.788504	0.554531	-0.647719
O39	O	1.255167	0.697036	-1.148639
C40	C	1.217403	0.818402	-1.274915
C41	C	1.301119	0.762890	-1.221867
H42	H	1.254521	0.871647	-1.334147
H43	H	1.175570	0.846183	-1.213745
H44	H	1.160124	0.778425	-1.316176
H45	H	1.358465	0.802809	-1.180610
H46	H	1.342874	0.735103	-1.283084
O47	O	1.488574	1.094738	-0.633303
C48	C	1.634789	1.107047	-0.520100
C49	C	1.550021	1.153075	-0.585684
H50	H	1.684479	1.154189	-0.481564
H51	H	1.684679	1.076600	-0.572506
H52	H	1.597912	1.056255	-0.457614
H53	H	1.586811	1.203904	-0.648176
H54	H	1.500141	1.183464	-0.533211
O55	O	0.978908	0.684376	-0.798993
C56	C	1.132091	0.755460	-0.881924
C57	C	1.087048	0.683752	-0.798381
H58	H	1.219526	0.754967	-0.881473
H59	H	1.108930	0.818589	-0.864511
H60	H	1.101147	0.745872	-0.961697
H61	H	1.117969	0.693259	-0.718577
H62	H	1.110201	0.620648	-0.815885
O63	O	1.271311	1.132982	-0.801392
C64	C	1.124996	1.120664	-0.914466
C65	C	1.209743	1.074624	-0.848862
H66	H	1.075181	1.073498	-0.952845
H67	H	1.161783	1.171416	-0.977058
H68	H	1.075238	1.151159	-0.861995
H69	H	1.259529	1.044077	-0.901249
H70	H	1.172889	1.023917	-0.786261
H71	H	1.449810	0.567939	-1.119257
O72	O	0.799262	0.721262	-0.841991
C73	C	0.952442	0.792342	-0.924935
C74	C	0.907402	0.720638	-0.841385
H75	H	1.039877	0.791851	-0.924487
H76	H	0.929281	0.855473	-0.907527
H77	H	0.921494	0.782749	-1.004704
H78	H	0.938327	0.730151	-0.761583
H79	H	0.930555	0.657533	-0.858883
O80	O	1.504766	0.531371	-1.287068
C81	C	1.542491	0.409921	-1.160910
C82	C	1.458782	0.465428	-1.213981
H83	H	1.505343	0.356584	-1.101824
H84	H	1.599765	0.449804	-1.119515
H85	H	1.584338	0.382252	-1.222167
H86	H	1.416858	0.493109	-1.152791
H87	H	1.401576	0.425507	-1.255398
H88	H	0.968138	0.517658	-0.604741
O89	O	1.298212	0.668370	-1.324239
C90	C	1.215117	0.723324	-1.485402
C91	C	1.298843	0.667846	-1.432308
H92	H	1.215585	0.722905	-1.572782
H93	H	1.231029	0.790678	-1.470355
H94	H	1.136697	0.697409	-1.452355
H95	H	1.377297	0.693686	-1.465323
H96	H	1.282842	0.600500	-1.447350
