data_functionalizedCrystal
_audit_creation_method	'MofGen! by Chris Wilmer'
_symmetry_space_group_name_H-M	'P1'
_symmetry_Int_Tables_number	1
_symmetry_cell_setting	triclinic
loop_
_symmetry_equiv_pos_as_xyz
  x,y,z
_cell_length_a	14.519731
_cell_length_b	14.519731
_cell_length_c	7.088929
_cell_angle_alpha	83.763267
_cell_angle_beta	96.215673
_cell_angle_gamma	83.688853
loop_
_atom_site_label
_atom_site_type_symbol
_atom_site_fract_x
_atom_site_fract_y
_atom_site_fract_z
O1	O	1.214413	0.130448	-0.158997
O2	O	1.547747	0.463781	0.174336
O3	O	1.881080	0.797115	0.507669
O4	O	0.945940	0.144664	-0.159001
O5	O	1.279273	0.477997	0.174333
O6	O	1.612607	0.811331	0.507666
O7	O	1.087286	0.003318	-0.158981
O8	O	1.420619	0.336652	0.174352
O9	O	1.753952	0.669985	0.507685
O10	O	1.073068	0.271794	-0.159016
O11	O	1.406401	0.605127	0.174317
O12	O	1.739734	0.938460	0.507650
O13	O	1.106175	-0.015614	0.158996
O14	O	1.439508	0.317720	0.492330
O15	O	1.772842	0.651053	0.825663
O16	O	0.964829	0.125732	0.158977
O17	O	1.298163	0.459065	0.492310
O18	O	1.631496	0.792399	0.825644
O19	O	1.233303	0.111516	0.158981
O20	O	1.566636	0.444849	0.492314
O21	O	1.899969	0.778182	0.825647
Cu22	Cu	1.100791	0.116895	0.188013
Cu23	Cu	1.434124	0.450228	0.521346
Cu24	Cu	1.767457	0.783562	0.854679
Cu25	Cu	1.078452	0.139285	-0.188033
Cu26	Cu	1.411785	0.472618	0.145301
Cu27	Cu	1.745119	0.805951	0.478634
O28	O	1.091957	0.252861	0.158961
O29	O	1.425290	0.586195	0.492295
O30	O	1.758624	0.919528	0.825628
C31	C	0.921025	0.134532	-0.000012
C32	C	1.254359	0.467865	0.333321
C33	C	1.587692	0.801199	0.666655
C34	C	0.818645	0.132536	-0.000013
C35	C	1.151978	0.465869	0.333320
C36	C	1.485311	0.799203	0.666654
C37	C	0.735500	0.130914	-0.000020
C38	C	1.068833	0.464248	0.333313
C39	C	1.402167	0.797581	0.666646
C40	C	0.631191	0.128888	-0.000021
C41	C	0.964524	0.462221	0.333313
C42	C	1.297858	0.795555	0.666646
C43	C	0.548052	0.127279	-0.000020
C44	C	0.881385	0.460613	0.333313
C45	C	1.214719	0.793946	0.666646
C46	C	0.443736	0.125253	-0.000024
C47	C	0.777069	0.458587	0.333309
C48	C	1.110403	0.791920	0.666642
C49	C	1.096064	-0.040507	0.000008
C50	C	1.429398	0.292826	0.333341
C51	C	1.762731	0.626159	0.666674
C52	C	1.094068	-0.142888	0.000009
C53	C	1.427402	0.190446	0.333342
C54	C	1.760735	0.523779	0.666676
C55	C	1.092446	-0.226032	0.000004
C56	C	1.425779	0.107302	0.333338
C57	C	1.759113	0.440635	0.666671
C58	C	1.090419	-0.330340	-0.000010
C59	C	1.423752	0.002994	0.333323
C60	C	1.757085	0.336327	0.666657
C61	C	1.088810	-0.413478	-0.000022
C62	C	1.422143	-0.080145	0.333311
C63	C	1.755476	0.253189	0.666644
C64	C	1.086783	-0.517793	-0.000034
C65	C	1.420116	-0.184460	0.333300
C66	C	1.753449	0.148874	0.666633
C67	C	1.258217	0.121648	-0.000012
C68	C	1.591551	0.454982	0.333321
C69	C	1.924884	0.788315	0.666654
C70	C	1.360597	0.123645	-0.000024
C71	C	1.693930	0.456978	0.333309
C72	C	2.027264	0.790312	0.666643
C73	C	1.083178	0.296687	-0.000032
C74	C	1.416512	0.630021	0.333301
C75	C	1.749845	0.963354	0.666635
C76	C	1.085173	0.399069	-0.000046
C77	C	1.418507	0.732402	0.333287
C78	C	1.751840	1.065735	0.666621
N79	N	1.116509	0.101147	0.452503
N80	N	1.449843	0.434480	0.785836
N81	N	1.783176	0.767814	1.119169
N82	N	1.062741	0.155026	-0.452523
N83	N	1.396074	0.488359	-0.119190
N84	N	1.729407	0.821692	0.214144
H85	H	1.007015	0.210859	0.465823
H86	H	1.340349	0.544193	0.799157
H87	H	1.673682	0.877526	1.132490
H88	H	1.172245	0.045316	0.534166
H89	H	1.505578	0.378649	0.867500
H90	H	1.838912	0.711983	1.200833
