data_functionalizedCrystal
_audit_creation_method	'MofGen! by Chris Wilmer'
_symmetry_space_group_name_H-M	'P1'
_symmetry_Int_Tables_number	1
_symmetry_cell_setting	triclinic
loop_
_symmetry_equiv_pos_as_xyz
  x,y,z
_cell_length_a	14.560438
_cell_length_b	14.628931
_cell_length_c	14.628931
_cell_angle_alpha	59.999972
_cell_angle_beta	90.001529
_cell_angle_gamma	60.001476
loop_
_atom_site_label
_atom_site_type_symbol
_atom_site_fract_x
_atom_site_fract_y
_atom_site_fract_z
Zr1	Zr	0.884754	1.000594	-0.119948
O2	O	0.738108	1.191297	-0.265911
O3	O	0.929709	0.809889	-0.075202
O4	O	0.929708	1.000594	-0.265908
O5	O	0.738108	1.000591	0.075226
O6	O	1.080847	1.000597	-0.265906
O7	O	0.738108	1.000591	-0.075206
O8	O	1.080847	0.659459	0.075232
O9	O	0.738108	1.341729	-0.265912
O10	O	1.061674	0.888331	-0.056117
O11	O	0.948882	0.888329	0.056147
O12	O	0.948882	1.112860	-0.168385
O13	O	0.836089	1.112858	-0.056121
Zr14	Zr	1.125802	1.000598	0.119977
Zr15	Zr	1.125802	1.000598	-0.119944
Zr16	Zr	0.884754	1.000594	0.119973
Zr17	Zr	0.884754	1.240515	-0.119948
Zr18	Zr	1.125802	0.760676	0.119978
O19	O	1.080848	1.191302	0.075232
O20	O	1.080847	1.191302	-0.265906
O21	O	0.738108	1.191297	0.075226
O22	O	1.272449	0.809895	0.265941
O23	O	1.272448	0.809895	-0.075197
O24	O	0.929709	0.809889	0.265935
O25	O	1.272448	1.000600	-0.075197
O26	O	1.080848	1.000597	0.265937
O27	O	0.929710	1.000594	0.265935
O28	O	1.272448	1.000600	0.075235
O29	O	0.929709	1.341732	-0.265909
O30	O	1.080847	0.659459	0.265938
O31	O	1.272448	0.659463	0.265941
O32	O	1.272448	0.659463	0.075235
O33	O	0.738108	1.341729	-0.075206
O34	O	0.929709	1.341732	-0.075203
O35	O	1.061675	0.888331	0.168414
O36	O	1.174467	0.888333	0.056150
O37	O	1.061675	1.112862	-0.056117
O38	O	0.948882	1.112860	0.056146
C39	C	1.005278	0.700490	0.000015
C40	C	1.005277	0.598637	0.000015
C41	C	1.061230	0.553229	-0.055675
C42	C	1.061231	0.447959	-0.055676
C43	C	0.703764	1.000590	0.000010
C44	C	0.601433	1.000589	0.000008
C45	C	0.612231	0.883389	0.058610
C46	C	0.516076	0.883395	0.058621
C47	C	0.398328	1.117811	-0.058583
C48	C	0.494482	1.117804	-0.058586
C49	C	0.719182	0.766174	0.117205
C50	C	0.729984	0.648964	0.175811
C51	C	0.633829	0.648971	0.175821
C52	C	0.526872	0.766186	0.117225
C53	C	1.306792	1.000601	0.000019
C54	C	1.409124	1.000602	0.000021
C55	C	1.005277	1.000596	-0.300091
C56	C	1.005277	1.000596	-0.401944
C57	C	1.005279	1.300701	0.000014
C58	C	1.005279	1.402554	0.000014
C59	C	1.084406	1.000597	-0.447352
C60	C	1.084408	1.000597	-0.552622
C61	C	1.005279	1.000596	0.300120
C62	C	1.005279	1.000596	0.401973
C63	C	1.306792	0.700495	0.000020
C64	C	1.409123	0.598644	0.000022
C65	C	1.005278	0.700490	0.300120
C66	C	1.005278	0.598637	0.401973
C67	C	1.306793	0.700495	0.300125
C68	C	1.409124	0.598644	0.401980
C69	C	0.703764	1.300696	-0.300096
C70	C	0.601432	1.402547	-0.401951
C71	C	0.703764	1.300696	0.000009
C72	C	0.601433	1.402547	0.000008
C73	C	1.005278	1.300701	-0.300091
C74	C	1.005278	1.402554	-0.401944
C75	C	1.398792	0.553235	-0.055670
C76	C	1.504556	0.447966	-0.055669
C77	C	1.061231	0.553229	0.503075
C78	C	1.061233	0.447959	0.608347
C79	C	1.510699	0.553237	0.391699
C80	C	1.616465	0.447968	0.496970
H81	H	1.109138	0.592281	-0.103349
H82	H	1.495887	0.408911	-0.103345
C83	C	1.175934	1.000598	-0.605367
C84	C	1.188559	1.112249	-0.648121
C85	C	1.280088	1.112250	-0.700868
C86	C	1.358993	1.000602	-0.710862
C87	C	1.346371	0.888943	-0.668107
C88	C	1.254842	0.888941	-0.615360
H89	H	1.130146	1.194905	-0.640724
H90	H	1.289431	1.194908	-0.732517
H91	H	1.426748	1.000603	-0.749908
H92	H	1.404783	0.806287	-0.675504
H93	H	1.245498	0.806284	-0.583710
C94	C	1.526843	0.545891	0.064439
C95	C	1.609106	0.559020	0.001549
C96	C	1.726826	0.506270	0.065968
C97	C	1.762282	0.440391	0.193277
C98	C	1.680018	0.427259	0.256174
C99	C	1.562298	0.480009	0.191755
H100	H	1.582861	0.607790	-0.092699
H101	H	1.787723	0.515991	0.019407
H102	H	1.849425	0.401342	0.240964
H103	H	1.706263	0.378489	0.350422
H104	H	1.501400	0.470288	0.238316
H105	H	1.109129	0.592293	0.511696
C106	C	0.280681	1.246741	-0.123044
C107	C	0.174914	1.246752	-0.123048
C108	C	0.057267	1.375684	-0.187514
C109	C	0.045386	1.504606	-0.251978
C110	C	0.151157	1.504600	-0.251977
C111	C	0.268804	1.375667	-0.187510
H112	H	0.183705	1.151312	-0.075326
H113	H	-0.021031	1.375687	-0.187515
H114	H	-0.041703	1.600049	-0.299700
H115	H	0.142365	1.600040	-0.299699
H116	H	0.347102	1.375664	-0.187510
H117	H	1.518996	0.441600	0.606701
H118	H	0.485686	1.213238	-0.106284
C119	C	0.913749	1.000594	-0.545288
C120	C	0.947018	0.888945	-0.423642
C121	C	0.855489	0.888943	-0.370895
C122	C	0.730690	1.000591	-0.439793
C123	C	0.697415	1.112249	-0.561446
C124	C	0.788945	1.112250	-0.614194
H125	H	1.039407	0.806289	-0.372633
H126	H	0.880122	0.806286	-0.280839
H127	H	0.662935	1.000590	-0.400747
H128	H	0.605027	1.194904	-0.612456
H129	H	0.764312	1.194907	-0.704250
C130	C	0.940561	0.545881	0.390312
C131	C	1.003747	0.401113	0.440077
C132	C	0.939027	0.348360	0.428411
C133	C	0.811121	0.440375	0.366980
C134	C	0.747928	0.585152	0.317211
C135	C	0.812648	0.637906	0.328877
H136	H	1.098437	0.332990	0.485556
H137	H	0.985808	0.241185	0.465253
H138	H	0.763212	0.401324	0.358344
H139	H	0.653238	0.653275	0.271733
H140	H	0.765867	0.745080	0.292035
H141	H	0.937536	1.000587	-0.440998
H142	H	1.311649	0.592296	-0.103354
H143	H	1.519363	0.592298	0.304964
H144	H	1.109130	0.408915	-0.103360
H145	H	0.957378	0.559576	0.047696
H146	H	0.957368	0.441603	0.047690
H147	H	1.614803	0.441601	0.047714
H148	H	0.817073	0.553532	0.223525
H149	H	0.797482	0.766156	0.117201
H150	H	1.152155	1.000591	-0.408291
H151	H	1.703602	0.408915	0.488342
H152	H	0.642630	0.553533	0.223549
H153	H	0.448580	0.766182	0.117244
H154	H	1.109137	0.408907	0.695078
H155	H	0.957380	0.441592	0.511331
H156	H	1.400463	0.559590	0.488716
