data_functionalizedCrystal
_audit_creation_method	'MofGen! by Chris Wilmer'
_symmetry_space_group_name_H-M	'P1'
_symmetry_Int_Tables_number	1
_symmetry_cell_setting	triclinic
loop_
_symmetry_equiv_pos_as_xyz
  x,y,z
_cell_length_a	14.044191
_cell_length_b	14.044190
_cell_length_c	13.596369
_cell_angle_alpha	89.989293
_cell_angle_beta	89.997249
_cell_angle_gamma	93.191777
loop_
_atom_site_label
_atom_site_type_symbol
_atom_site_fract_x
_atom_site_fract_y
_atom_site_fract_z
O1	O	1.277179	0.230202	-0.081764
O2	O	1.777179	0.730202	0.418236
O3	O	1.000507	0.221890	-0.081776
O4	O	1.500507	0.721890	0.418224
O5	O	1.134687	0.087710	-0.081751
O6	O	1.634687	0.587710	0.418249
O7	O	1.142999	0.364382	-0.081789
O8	O	1.642999	0.864382	0.418211
O9	O	1.134671	0.087701	0.081832
O10	O	1.634671	0.587701	0.581832
O11	O	1.000492	0.221881	0.081807
O12	O	1.500492	0.721881	0.581807
O13	O	1.277164	0.230193	0.081819
O14	O	1.777164	0.730193	0.581819
Zn15	Zn	1.138825	0.226036	0.107785
Zn16	Zn	1.638825	0.726036	0.607785
Zn17	Zn	1.138846	0.226047	-0.107742
Zn18	Zn	1.638846	0.726047	0.392258
O19	O	1.142984	0.364373	0.081794
O20	O	1.642984	0.864373	0.581794
C21	C	0.964877	0.218249	0.000014
C22	C	1.464877	0.718249	0.500014
C23	C	0.858734	0.207401	0.000011
C24	C	1.358734	0.707401	0.500011
C25	C	1.131043	0.052083	0.000043
C26	C	1.631043	0.552083	0.500043
C27	C	1.120195	-0.054060	0.000051
C28	C	1.620195	0.445940	0.500051
C29	C	0.613277	0.264502	0.000013
C30	C	1.113277	0.764502	0.500013
C31	C	0.664400	0.187585	0.000022
C32	C	1.164400	0.687585	0.500022
C33	C	0.772537	0.198614	0.000015
C34	C	1.272537	0.698614	0.500015
C35	C	0.505130	0.253475	0.000019
C36	C	1.005130	0.753475	0.500019
C37	C	1.177296	-0.299517	0.000015
C38	C	1.677296	0.200483	0.500015
C39	C	1.100379	-0.248394	0.000019
C40	C	1.600379	0.251606	0.500019
C41	C	1.111408	-0.140257	0.000037
C42	C	1.611408	0.359743	0.500037
C43	C	1.166269	-0.407664	-0.000003
C44	C	1.666269	0.092336	0.499997
C45	C	1.312794	0.233834	0.000026
C46	C	1.812794	0.733834	0.500026
C47	C	1.418937	0.244682	0.000023
C48	C	1.918937	0.744682	0.500023
C49	C	1.146628	0.400000	-0.000003
C50	C	1.646628	0.900000	0.499997
C51	C	1.157476	0.506143	-0.000017
C52	C	1.657476	1.006143	0.499983
N53	N	1.138819	0.226028	0.254877
N54	N	1.638819	0.726028	0.754877
N55	N	1.138859	0.226049	-0.254834
N56	N	1.638859	0.726049	0.245166
C57	C	1.138844	0.226048	0.656168
C58	C	1.638844	0.726048	1.156168
C59	C	1.138835	0.226046	0.544517
C60	C	1.638835	0.726046	1.044517
C61	C	1.138832	0.226039	0.455526
C62	C	1.638832	0.726039	0.955526
C63	C	1.138821	0.226034	0.343867
C64	C	1.638821	0.726034	0.843867
H65	H	0.626955	0.113453	-0.000037
H66	H	1.126955	0.613453	0.499963
H67	H	1.026247	-0.285839	0.000010
H68	H	1.526247	0.214161	0.500010
F69	F	1.274187	-0.250577	0.000031
F70	F	1.774187	0.249423	0.500031
H71	H	0.650720	0.338629	-0.000001
H72	H	1.150720	0.838629	0.499999
