data_functionalizedCrystal
_audit_creation_method	'MofGen! by Chris Wilmer'
_symmetry_space_group_name_H-M	'P1'
_symmetry_Int_Tables_number	1
_symmetry_cell_setting	triclinic
loop_
_symmetry_equiv_pos_as_xyz
  x,y,z
_cell_length_a	18.215407
_cell_length_b	16.120484
_cell_length_c	18.215399
_cell_angle_alpha	92.869789
_cell_angle_beta	89.980167
_cell_angle_gamma	92.926015
loop_
_atom_site_label
_atom_site_type_symbol
_atom_site_fract_x
_atom_site_fract_y
_atom_site_fract_z
Zn1	Zn	1.110213	-0.331906	-0.430960
Zn2	Zn	1.610213	0.168094	0.069040
Zn3	Zn	1.103879	-0.471328	-0.314129
Zn4	Zn	1.603879	0.028672	0.185871
Zn5	Zn	0.987144	-0.331934	-0.307908
Zn6	Zn	1.487144	0.168066	0.192092
Zn7	Zn	0.980871	-0.471282	-0.437152
Zn8	Zn	1.480871	0.028718	0.062848
O9	O	1.045527	-0.401612	-0.372537
O10	O	1.545527	0.098388	0.127463
O11	O	1.212356	-0.350409	-0.415474
O12	O	1.712356	0.149591	0.084526
O13	O	1.088368	-0.452868	-0.210321
O14	O	1.588368	0.047132	0.289679
O15	O	1.008745	-0.215264	-0.319037
O16	O	1.508745	0.284736	0.180963
O17	O	1.207703	-0.452841	-0.329639
O18	O	1.707703	0.047159	0.170361
O19	O	1.099163	-0.215244	-0.409442
O20	O	1.599163	0.284756	0.090558
O21	O	1.002604	-0.350456	-0.205751
O22	O	1.502604	0.149544	0.294249
O23	O	0.883328	-0.350411	-0.325041
O24	O	1.383328	0.149589	0.174959
O25	O	0.998054	-0.452762	-0.539313
O26	O	1.498054	0.047238	-0.039313
O27	O	0.878719	-0.452789	-0.419995
O28	O	1.378719	0.047211	0.080005
O29	O	1.093081	-0.350364	-0.534764
O30	O	1.593081	0.149636	-0.034764
O31	O	1.082286	-0.587988	-0.335643
O32	O	1.582286	-0.087988	0.164357
O33	O	0.991913	-0.587954	-0.426027
O34	O	1.491913	-0.087954	0.073973
C35	C	0.854321	-0.401598	-0.372516
C36	C	1.354321	0.098402	0.127484
C37	C	0.772522	-0.401612	-0.372525
C38	C	1.272522	0.098388	0.127475
C39	C	0.581943	-0.455004	-0.421912
C40	C	1.081943	0.044996	0.078088
C41	C	0.505085	-0.455007	-0.421921
C42	C	1.005085	0.044993	0.078079
C43	C	0.509861	-0.348236	-0.323179
C44	C	1.009861	0.151764	0.176821
C45	C	0.586719	-0.348229	-0.323174
C46	C	1.086719	0.151771	0.176826
C47	C	0.622758	-0.401619	-0.372540
C48	C	1.122758	0.098381	0.127460
C49	C	0.469041	-0.401627	-0.372554
C50	C	0.969041	0.098373	0.127446
C51	C	0.385708	-0.401630	-0.372564
C52	C	0.885708	0.098370	0.127436
C53	C	0.706097	-0.401615	-0.372531
C54	C	1.206097	0.098385	0.127469
C55	C	1.035751	-0.618221	-0.382198
C56	C	1.535751	-0.118221	0.117802
C57	C	1.031637	-0.710887	-0.386356
C58	C	1.531637	-0.210887	0.113644
C59	C	1.024129	-0.880549	-0.393961
C60	C	1.524129	-0.380549	0.106039
C61	C	1.067056	-0.921836	-0.351125
C62	C	1.567056	-0.421836	0.148875
C63	C	1.062879	-1.016241	-0.355357
C64	C	1.562879	-0.516241	0.144643
C65	C	1.028305	-0.786135	-0.389730
C66	C	1.528305	-0.286135	0.110270
C67	C	1.237479	-0.401627	-0.372560
C68	C	1.737479	0.098373	0.127440
C69	C	1.319277	-0.401634	-0.372569
C70	C	1.819277	0.098366	0.127431
C71	C	1.045574	-0.401555	-0.564488
C72	C	1.545574	0.098445	-0.064488
C73	C	1.045594	-0.401530	-0.646286
C74	C	1.545594	0.098470	-0.146286
C75	C	1.055360	-0.184158	-0.362855
C76	C	1.555360	0.315842	0.137145
C77	C	1.059551	-0.091492	-0.358729
C78	C	1.559551	0.408508	0.141271
C79	C	1.095094	-0.348162	-0.832110
C80	C	1.595094	0.151838	-0.332110
C81	C	1.095104	-0.348138	-0.908967
C82	C	1.595104	0.151862	-0.408967
C83	C	0.996153	-0.454770	-0.913694
C84	C	1.496153	0.045230	-0.413694
C85	C	0.996140	-0.454790	-0.836837
C86	C	1.496140	0.045210	-0.336837
C87	C	1.045615	-0.401487	-0.796047
C88	C	1.545615	0.098513	-0.296047
C89	C	1.045637	-0.401443	-0.949761
C90	C	1.545637	0.098557	-0.449761
C91	C	1.045648	-0.401417	-1.033094
C92	C	1.545648	0.098583	-0.533094
C93	C	1.045603	-0.401511	-0.712709
C94	C	1.545603	0.098489	-0.212709
C95	C	1.045524	-0.401610	-0.181331
C96	C	1.545524	0.098390	0.318669
C97	C	1.045657	-0.401399	-0.099523
C98	C	1.545657	0.098601	0.400477
H99	H	0.611284	-0.498475	-0.462110
H100	H	1.111284	0.001525	0.037890
O101	O	1.114536	-0.879391	-0.303496
O102	O	1.614536	-0.379391	0.196504
C103	C	1.074839	-0.829090	-0.253730
C104	C	1.574839	-0.329090	0.246270
H105	H	1.015736	-0.855462	-0.250299
H106	H	1.515736	-0.355462	0.249701
H107	H	1.075154	-0.763118	-0.273580
H108	H	1.575154	-0.263118	0.226420
C109	C	1.183481	-0.795249	-0.181404
C110	C	1.683481	-0.295249	0.318596
C111	C	1.110891	-0.827644	-0.177185
C112	C	1.610891	-0.327644	0.322815
H113	H	1.205721	-0.794353	-0.134188
H114	H	1.705721	-0.294353	0.365812
H115	H	1.210227	-0.829135	-0.214934
H116	H	1.710227	-0.329135	0.285066
H117	H	1.183734	-0.740275	-0.197949
H118	H	1.683734	-0.240275	0.302051
H119	H	1.110640	-0.882620	-0.160650
H120	H	1.610640	-0.382620	0.339350
H121	H	1.084146	-0.793767	-0.143651
H122	H	1.584146	-0.293767	0.356349
H123	H	0.984243	-0.916101	-0.433809
H124	H	1.484243	-0.416101	0.066191
H125	H	1.135377	-0.304757	-0.798901
H126	H	1.635377	0.195243	-0.298901
H127	H	0.471857	-0.498478	-0.462126
H128	H	0.971857	0.001522	0.037874
O129	O	0.474734	-0.296456	-0.275254
O130	O	0.974734	0.203544	0.224746
C131	C	0.398146	-0.307893	-0.285857
C132	C	0.898146	0.192107	0.214143
H133	H	0.384754	-0.372269	-0.312736
H134	H	0.884754	0.127731	0.187264
H135	H	0.378580	-0.258501	-0.322919
H136	H	0.878580	0.241499	0.177081
C137	C	0.375452	-0.221076	-0.178050
C138	C	0.875452	0.278924	0.321950
C139	C	0.359004	-0.300147	-0.211058
C140	C	0.859004	0.199853	0.288942
H141	H	0.351306	-0.216294	-0.131912
H142	H	0.851306	0.283706	0.368088
H143	H	0.427051	-0.213368	-0.170908
H144	H	0.927051	0.286632	0.329092
H145	H	0.359147	-0.179925	-0.208942
H146	H	0.859147	0.320075	0.291058
H147	H	0.375317	-0.341295	-0.180170
H148	H	0.875317	0.158705	0.319830
H149	H	0.307406	-0.307861	-0.218194
H150	H	0.807406	0.192139	0.281806
H151	H	0.619951	-0.304751	-0.282969
H152	H	1.119951	0.195249	0.217031
O153	O	0.948169	-0.506523	-0.953431
O154	O	1.448169	-0.006523	-0.453431
C155	C	0.958778	-0.495059	-1.029000
C156	C	1.458778	0.004941	-0.529000
H157	H	1.016808	-0.467755	-1.038293
H158	H	1.516808	0.032245	-0.538293
H159	H	0.917136	-0.450655	-1.048827
H160	H	1.417136	0.049345	-0.548827
C161	C	0.876955	-0.612939	-1.060795
C162	C	1.376955	-0.112939	-0.560795
C163	C	0.948230	-0.579410	-1.072210
C164	C	1.448230	-0.079410	-0.572210
H165	H	0.870445	-0.664969	-1.087451
H166	H	1.370445	-0.164969	-0.587451
H167	H	0.869805	-0.620661	-1.009883
H168	H	1.369805	-0.120661	-0.509883
H169	H	0.842261	-0.575928	-1.077318
H170	H	1.342261	-0.075928	-0.577318
H171	H	0.982922	-0.616417	-1.055679
H172	H	1.482922	-0.116417	-0.555679
H173	H	0.955385	-0.571696	-1.123120
H174	H	1.455385	-0.071696	-0.623120
H175	H	1.135393	-0.304714	-0.938326
H176	H	1.635393	0.195286	-0.438326
H177	H	0.955843	-0.498213	-0.807474
H178	H	1.455843	0.001787	-0.307474
