data_functionalizedCrystal
_audit_creation_method	'MofGen! by Chris Wilmer'
_symmetry_space_group_name_H-M	'P1'
_symmetry_Int_Tables_number	1
_symmetry_cell_setting	triclinic
loop_
_symmetry_equiv_pos_as_xyz
  x,y,z
_cell_length_a	14.519731
_cell_length_b	10.967961
_cell_length_c	9.482900
_cell_angle_alpha	87.495787
_cell_angle_beta	80.692239
_cell_angle_gamma	84.211295
loop_
_atom_site_label
_atom_site_type_symbol
_atom_site_fract_x
_atom_site_fract_y
_atom_site_fract_z
O1	O	1.243036	0.138595	-0.155613
O2	O	1.743036	0.638595	0.344387
O3	O	0.975207	0.157083	-0.160246
O4	O	1.475207	0.657083	0.339754
O5	O	1.110154	-0.026738	-0.114192
O6	O	1.610154	0.473262	0.385808
O7	O	1.108089	0.322415	-0.201667
O8	O	1.608089	0.822415	0.298333
O9	O	1.082748	0.010750	0.118208
O10	O	1.582748	0.510750	0.618208
O11	O	0.947801	0.194571	0.072154
O12	O	1.447801	0.694571	0.572154
O13	O	1.215631	0.176083	0.076787
O14	O	1.715631	0.676083	0.576787
Cu15	Cu	1.079214	0.188750	0.095690
Cu16	Cu	1.579214	0.688750	0.595690
Cu17	Cu	1.111624	0.144416	-0.179150
Cu18	Cu	1.611624	0.644416	0.320850
O19	O	1.080684	0.359903	0.030733
O20	O	1.580684	0.859903	0.530733
C21	C	1.094230	-0.052679	0.013200
C22	C	1.594230	0.447321	0.513200
C23	C	1.087601	-0.185828	0.046549
C24	C	1.587601	0.314172	0.546549
C25	C	0.927114	0.174960	-0.043829
C26	C	1.427114	0.674960	0.456171
C27	C	0.824644	0.172364	-0.043180
C28	C	1.324644	0.672364	0.456820
C29	C	1.091996	-0.402225	-0.024504
C30	C	1.591996	0.097775	0.475496
C31	C	1.098845	-0.264610	-0.058982
C32	C	1.598845	0.235390	0.441018
C33	C	0.741427	0.170254	-0.042657
C34	C	1.241427	0.670254	0.457343
C35	C	0.637026	0.167618	-0.041997
C36	C	1.137026	0.667618	0.458003
C37	C	0.553814	0.165527	-0.041473
C38	C	1.053814	0.665527	0.458527
C39	C	0.449407	0.162891	-0.040816
C40	C	0.949407	0.662891	0.459184
C41	C	1.263724	0.158205	-0.039633
C42	C	1.763724	0.658205	0.460367
C43	C	1.366195	0.160799	-0.040292
C44	C	1.866195	0.660799	0.459708
C45	C	1.096608	0.385844	-0.096662
C46	C	1.596608	0.885844	0.403338
C47	C	1.103238	0.518991	-0.130021
C48	C	1.603238	1.018991	0.369979
N49	N	1.056425	0.219931	0.288998
N50	N	1.556425	0.719931	0.788998
N51	N	1.134420	0.113225	-0.372455
N52	N	1.634420	0.613225	0.127545
C53	C	1.104896	0.153606	0.377815
C54	C	1.604896	0.653606	0.877815
C55	C	1.085942	0.179559	0.538730
C56	C	1.585942	0.679559	1.038730
H57	H	1.113534	-0.230184	-0.174852
H58	H	1.613534	0.269816	0.325148
H59	H	1.160422	0.077605	0.334728
H60	H	1.660422	0.577605	0.834728
H61	H	1.030406	0.255557	0.581814
H62	H	1.530406	0.755557	1.081814
H63	H	1.189949	0.037218	0.584463
H64	H	1.689949	0.537218	1.084463
O65	O	0.990114	0.310457	0.340588
O66	O	1.490114	0.810457	0.840588
C67	C	0.845701	0.362583	0.499530
C68	C	1.345701	0.862583	0.999530
C69	C	0.920743	0.259949	0.441256
C70	C	1.420743	0.759949	0.941256
H71	H	0.789585	0.321782	0.580909
H72	H	1.289585	0.821782	1.080909
H73	H	0.879730	0.433442	0.553130
H74	H	1.379730	0.933442	1.053130
H75	H	0.812200	0.408506	0.407601
H76	H	1.312200	0.908506	0.907601
H77	H	0.954271	0.213931	0.533105
H78	H	1.454271	0.713931	1.033105
H79	H	0.886663	0.189170	0.387615
H80	H	1.386663	0.689170	0.887615
O81	O	1.074349	-0.443417	0.113659
O82	O	1.574349	0.056583	0.613659
C83	C	0.970612	-0.547674	0.292591
C84	C	1.470612	-0.047674	0.792591
C85	C	0.990494	-0.501116	0.136074
C86	C	1.490494	-0.001116	0.636074
H87	H	0.902806	-0.594311	0.310771
H88	H	1.402806	-0.094311	0.810771
H89	H	1.031020	-0.616143	0.316256
H90	H	1.531020	-0.116143	0.816256
H91	H	0.963264	-0.466945	0.366651
H92	H	1.463264	0.033055	0.866651
H93	H	0.997824	-0.581766	0.061912
H94	H	1.497824	-0.081766	0.561912
H95	H	0.930079	-0.432611	0.112526
H96	H	1.430079	0.067389	0.612526
H97	H	1.072898	-0.220250	0.162418
H98	H	1.572898	0.279750	0.662418
H99	H	1.117926	-0.446576	-0.245882
H100	H	1.617926	0.053424	0.254118
