data_functionalizedCrystal
_audit_creation_method	'MofGen! by Chris Wilmer'
_symmetry_space_group_name_H-M	'P1'
_symmetry_Int_Tables_number	1
_symmetry_cell_setting	triclinic
loop_
_symmetry_equiv_pos_as_xyz
  x,y,z
_cell_length_a	11.792254
_cell_length_b	11.792254
_cell_length_c	9.730217
_cell_angle_alpha	89.996560
_cell_angle_beta	89.998639
_cell_angle_gamma	84.198598
loop_
_atom_site_label
_atom_site_type_symbol
_atom_site_fract_x
_atom_site_fract_y
_atom_site_fract_z
O1	O	1.506902	0.155633	-0.114289
O2	O	1.176564	0.171651	-0.114293
O3	O	1.349742	-0.001527	-0.114281
O4	O	1.333724	0.328812	-0.114301
O5	O	1.349737	-0.001528	0.114299
O6	O	1.176559	0.171650	0.114288
O7	O	1.506897	0.155632	0.114291
Zn8	Zn	1.341727	0.163641	0.150581
Zn9	Zn	1.341734	0.163643	-0.150583
O10	O	1.333719	0.328810	0.114279
C11	C	1.134271	0.170642	-0.000003
C12	C	1.008257	0.167621	-0.000004
C13	C	0.905921	0.165168	-0.000009
C14	C	0.777534	0.162099	-0.000010
C15	C	1.348730	-0.043818	0.000008
C16	C	1.345710	-0.169832	0.000007
C17	C	1.343256	-0.272168	0.000002
C18	C	1.340188	-0.400555	-0.000010
C19	C	1.549190	0.156642	-0.000002
C20	C	1.675204	0.159662	-0.000010
C21	C	1.334731	0.371102	-0.000013
C22	C	1.337751	0.497115	-0.000021
N23	N	1.341730	0.163638	0.356118
N24	N	1.341739	0.163636	-0.356120
C25	C	1.495143	0.010334	0.356118
C26	C	1.571856	-0.066315	0.428059
C27	C	1.571868	-0.066316	0.571938
C28	C	1.495155	0.010339	0.643881
C29	C	1.418442	0.086988	0.571941
C30	C	1.418441	0.086982	0.428058
C31	C	1.265026	0.240285	0.571940
C32	C	1.265018	0.240293	0.428060
C33	C	1.188313	0.316939	0.643883
C34	C	1.111603	0.393595	0.571943
C35	C	1.111595	0.393594	0.428054
C36	C	1.188304	0.316942	0.356120
H37	H	1.495150	0.010336	0.238964
N38	N	1.033233	0.471876	0.354552
N39	N	0.962566	0.435378	0.274272
H40	H	0.907221	0.490665	0.222363
H41	H	1.495160	0.010324	0.761036
N42	N	1.033262	0.471899	0.645426
N43	N	1.035452	0.576824	0.629362
H44	H	0.980123	0.632129	0.681263
H45	H	1.634313	-0.128728	0.369470
H46	H	1.188321	0.316930	0.761038
H47	H	1.634331	-0.128734	0.630512
H48	H	1.188309	0.316938	0.238966
