data_functionalizedCrystal
_audit_creation_method	'MofGen! by Chris Wilmer'
_symmetry_space_group_name_H-M	'P1'
_symmetry_Int_Tables_number	1
_symmetry_cell_setting	triclinic
loop_
_symmetry_equiv_pos_as_xyz
  x,y,z
_cell_length_a	10.723024
_cell_length_b	19.188928
_cell_length_c	9.198806
_cell_angle_alpha	89.985825
_cell_angle_beta	90.000000
_cell_angle_gamma	96.194159
loop_
_atom_site_label
_atom_site_type_symbol
_atom_site_fract_x
_atom_site_fract_y
_atom_site_fract_z
O1	O	1.655146	-0.097926	0.120909
O2	O	2.155146	0.402074	0.620909
O3	O	1.291799	-0.107299	0.120917
O4	O	1.791799	0.392701	0.620917
O5	O	1.483960	-0.001025	0.120876
O6	O	1.983960	0.498975	0.620876
O7	O	1.462986	-0.204200	0.120950
O8	O	1.962986	0.295800	0.620950
O9	O	1.483959	-0.001017	-0.120909
O10	O	1.983959	0.498983	0.379091
O11	O	1.291799	-0.107291	-0.120868
O12	O	1.791799	0.392709	0.379132
O13	O	1.655146	-0.097918	-0.120876
O14	O	2.155146	0.402082	0.379124
Cu15	Cu	1.473472	-0.102603	-0.142949
Cu16	Cu	1.973472	0.397397	0.357051
Cu17	Cu	1.473473	-0.102613	0.142990
Cu18	Cu	1.973473	0.397387	0.642990
O19	O	1.462985	-0.204192	-0.120835
O20	O	1.962985	0.295808	0.379165
C21	C	1.245314	-0.106613	0.000025
C22	C	1.745314	0.393387	0.500025
C23	C	1.106802	-0.104572	0.000026
C24	C	1.606802	0.395428	0.500026
C25	C	0.916361	-0.041179	0.000006
C26	C	1.416361	0.458821	0.500006
C27	C	1.059521	-0.043287	0.000004
C28	C	1.559521	0.456713	0.500004
C29	C	1.483281	0.024995	-0.000023
C30	C	1.983281	0.524995	0.499977
C31	C	1.481243	0.102512	-0.000042
C32	C	1.981243	0.602512	0.499958
C33	C	1.593997	0.146704	-0.000054
C34	C	2.093997	0.646704	0.499946
C35	C	1.592082	0.219540	-0.000037
C36	C	2.092082	0.719540	0.499963
C37	C	1.477409	0.248182	-0.000036
C38	C	1.977409	0.748182	0.499964
C39	C	1.364641	0.203981	-0.000015
C40	C	1.864641	0.703981	0.499985
C41	C	1.366558	0.131146	-0.000018
C42	C	1.866558	0.631146	0.499982
N43	N	1.389755	0.356759	-0.082328
N44	N	1.889755	0.856759	0.417672
N45	N	1.387942	0.425950	-0.082328
N46	N	1.887942	0.925950	0.417672
C47	C	1.471625	0.467628	-0.000025
C48	C	1.971625	0.967628	0.499975
N49	N	1.557209	0.437504	0.082261
N50	N	2.057209	0.937504	0.582261
N51	N	1.559027	0.368307	0.082255
N52	N	2.059027	0.868307	0.582255
C53	C	1.475317	0.327158	-0.000032
C54	C	1.975317	0.827158	0.499968
C55	C	1.582311	0.590798	-0.000017
C56	C	2.082311	1.090798	0.499983
C57	C	1.580392	0.663635	0.000010
C58	C	2.080392	1.163635	0.500010
C59	C	1.352947	0.648074	0.000017
C60	C	1.852947	1.148074	0.500017
C61	C	1.354869	0.575238	0.000005
C62	C	1.854869	1.075238	0.500005
C63	C	1.469554	0.546605	-0.000019
C64	C	1.969554	1.046605	0.499981
C65	C	1.701631	-0.098604	0.000020
C66	C	2.201631	0.401396	0.500020
C67	C	1.840143	-0.100645	0.000028
C68	C	2.340143	0.399355	0.500028
C69	C	1.463668	0.769789	0.000046
C70	C	1.963668	1.269789	0.500046
C71	C	1.465717	0.692272	0.000013
C72	C	1.965717	1.192272	0.500013
N73	N	1.473474	-0.102615	0.344104
N74	N	1.973474	0.397385	0.844104
N75	N	1.473481	-0.102596	-0.344063
N76	N	1.973481	0.397404	0.155937
C77	C	1.554333	-0.057894	0.416284
C78	C	2.054333	0.442106	0.916284
C79	C	1.554337	-0.057884	0.583696
C80	C	2.054337	0.442116	1.083696
H81	H	0.875629	0.011292	-0.000035
H82	H	1.375629	0.511292	0.499965
H83	H	1.675694	0.567483	-0.000029
H84	H	2.175694	1.067483	0.499971
H85	H	1.125011	0.007620	-0.000006
H86	H	1.625011	0.507620	0.499994
H87	H	1.683903	0.255527	-0.000042
H88	H	2.183903	0.755527	0.499958
H89	H	1.274738	0.095165	-0.000008
H90	H	1.774738	0.595165	0.499992
H91	H	1.672213	0.699615	0.000007
H92	H	2.172213	1.199615	0.500007
N93	N	1.024646	-0.168435	0.000030
N94	N	1.524646	0.331565	0.500030
N95	N	0.948610	-0.181481	-0.101887
N96	N	1.448610	0.318519	0.398113
H97	H	0.890578	-0.226585	-0.101888
H98	H	1.390578	0.273415	0.398112
N99	N	0.891207	-0.166479	0.000066
N100	N	1.391207	0.333521	0.500066
N101	N	0.819623	-0.222387	0.000092
N102	N	1.319623	0.277613	0.500092
H103	H	0.855682	-0.268886	0.000120
H104	H	1.355682	0.231114	0.500120
H105	H	1.263053	0.539257	0.000007
H106	H	1.763053	1.039257	0.500007
N107	N	1.235819	0.677333	0.000034
N108	N	1.735819	1.177333	0.500034
N109	N	1.234120	0.742364	0.000045
N110	N	1.734120	1.242364	0.500045
H111	H	1.151396	0.763033	0.000063
H112	H	1.651396	1.263033	0.500063
H113	H	1.687382	0.123395	-0.000068
H114	H	2.187382	0.623395	0.499932
N115	N	1.247515	0.233246	-0.000002
N116	N	1.747515	0.733246	0.499998
N117	N	1.245817	0.298277	-0.000000
N118	N	1.745817	0.798277	0.500000
H119	H	1.163094	0.318946	0.000017
H120	H	1.663094	0.818946	0.500017
H121	H	1.623561	-0.019617	0.354143
H122	H	2.123561	0.480383	0.854143
H123	H	1.623559	-0.019593	0.645768
H124	H	2.123559	0.480407	1.145768
N125	N	1.386610	-0.150622	0.578090
N126	N	1.886610	0.349378	1.078090
N127	N	1.309335	-0.128050	0.493118
N128	N	1.809335	0.371950	0.993118
H129	H	1.247979	-0.161967	0.438129
H130	H	1.747979	0.338033	0.938129
N131	N	1.386648	-0.150650	0.422047
N132	N	1.886648	0.349350	0.922047
N133	N	1.426097	-0.194141	0.507035
N134	N	1.926097	0.305859	1.007035
H135	H	1.364775	-0.228068	0.562080
H136	H	1.864775	0.271932	1.062080
