data_functionalizedCrystal
_audit_creation_method	'MofGen! by Chris Wilmer'
_symmetry_space_group_name_H-M	'P1'
_symmetry_Int_Tables_number	1
_symmetry_cell_setting	triclinic
loop_
_symmetry_equiv_pos_as_xyz
  x,y,z
_cell_length_a	14.446369
_cell_length_b	14.446369
_cell_length_c	19.377372
_cell_angle_alpha	48.620146
_cell_angle_beta	89.998266
_cell_angle_gamma	59.996355
loop_
_atom_site_label
_atom_site_type_symbol
_atom_site_fract_x
_atom_site_fract_y
_atom_site_fract_z
Zr1	Zr	0.864564	1.067528	-0.114438
O2	O	0.683690	1.326776	-0.253714
O3	O	0.920018	0.854135	-0.071741
O4	O	0.876821	1.133640	-0.253706
O5	O	0.760953	0.979130	0.071787
O6	O	1.029160	1.133630	-0.253701
O7	O	0.726886	1.047271	-0.071749
O8	O	1.106430	0.633646	0.071801
O9	O	0.683682	1.479113	-0.253715
O10	O	1.057349	0.924916	-0.053529
O11	O	0.969084	0.874071	0.053587
O12	O	0.918226	1.203152	-0.160654
O13	O	0.829961	1.152307	-0.053538
Zr14	Zr	1.161859	0.958834	0.114494
Zr15	Zr	1.107526	1.067511	-0.114429
Zr16	Zr	0.918897	0.958851	0.114486
Zr17	Zr	0.864552	1.310489	-0.114439
Zr18	Zr	1.161870	0.715873	0.114496
O19	O	1.106405	1.172226	0.071797
O20	O	1.029151	1.326751	-0.253702
O21	O	0.760944	1.172251	0.071785
O22	O	1.342733	0.699586	0.253770
O23	O	1.265479	0.854111	-0.071729
O24	O	0.997272	0.699611	0.253758
O25	O	1.265469	1.047232	-0.071731
O26	O	1.149601	0.892721	0.253762
O27	O	0.997263	0.892732	0.253757
O28	O	1.299536	0.979091	0.071805
O29	O	0.876805	1.479099	-0.253708
O30	O	1.149618	0.547263	0.253765
O31	O	1.342740	0.547249	0.253771
O32	O	1.299553	0.633632	0.071808
O33	O	0.726870	1.392729	-0.071752
O34	O	0.919992	1.392716	-0.071745
O35	O	1.108197	0.823210	0.160710
O36	O	1.196461	0.874055	0.053594
O37	O	1.057338	1.152291	-0.053530
O38	O	0.969074	1.101446	0.053585
C39	C	1.013226	0.709274	0.000030
C40	C	1.013231	0.606131	0.000031
C41	C	1.068899	0.598922	-0.067538
C42	C	1.068478	0.492175	-0.067902
C43	C	0.878014	0.570171	-0.048902
C44	C	0.878308	0.677788	-0.049409
C45	C	1.091746	0.423994	0.116564
C46	C	1.094177	0.315616	0.116384
C47	C	0.709303	1.013203	0.000018
C48	C	0.606159	1.013210	0.000014
C49	C	0.371829	1.188517	-0.067209
C50	C	0.478971	1.188793	-0.067587
C51	C	0.591143	0.965372	-0.049265
C52	C	0.483257	0.966516	-0.049758
C53	C	0.524105	0.884587	0.116602
C54	C	0.630030	0.887377	0.116418
C55	C	1.317120	1.013159	0.000039
C56	C	1.420264	1.013152	0.000042
C57	C	0.945249	1.149119	-0.286320
C58	C	0.922183	1.195255	-0.383504
C59	C	1.013197	1.317088	0.000026
C60	C	1.013192	1.420231	0.000025
C61	C	1.209389	0.620826	-0.423546
C62	C	1.187691	0.664216	-0.514880
C63	C	1.042457	0.954674	-0.626700
C64	C	1.064147	0.911308	-0.535374
C65	C	1.147614	0.744381	-0.433802
C66	C	1.002372	1.034863	-0.545631
C67	C	1.024056	0.991500	-0.454312
C68	C	1.107516	0.824581	-0.352738
C69	C	1.169298	0.701018	-0.342484
C70	C	0.918900	1.201789	-0.647204
C71	C	0.857125	1.325344	-0.657460
C72	C	0.878815	1.281982	-0.566141
C73	C	0.962274	1.115063	-0.464566
C74	C	0.817033	1.405545	-0.576395
C75	C	0.838717	1.362182	-0.485076
C76	C	0.983959	1.071700	-0.373248
C77	C	1.081173	0.877243	0.286376
C78	C	1.104239	0.831106	0.383560
C79	C	1.317134	0.709252	0.000041
C80	C	1.420283	0.606102	0.000045
C81	C	1.081188	0.573336	0.286378
C82	C	1.104258	0.424057	0.383563
C83	C	1.385096	0.573314	0.286389
C84	C	1.511311	0.424028	0.383577
C85	C	0.641326	1.453048	-0.286333
C86	C	0.515112	1.602334	-0.383521
C87	C	0.709288	1.317109	0.000015
C88	C	0.606140	1.420260	0.000011
C89	C	0.945235	1.453026	-0.286322
C90	C	0.922164	1.602305	-0.383507
C91	C	1.187710	0.327400	0.485129
C92	C	1.209385	0.187146	0.576453
C93	C	1.147614	0.143544	0.566209
C94	C	1.064152	0.240215	0.464632
C95	C	1.042472	0.380473	0.373311
C96	C	1.616666	0.380461	0.373305
C97	C	1.735265	0.240208	0.464614
C98	C	1.748506	0.143517	0.566196
C99	C	1.643139	0.187094	0.576466
C100	C	1.524543	0.327351	0.485157
C101	C	0.409757	1.645912	-0.373248
C102	C	0.291158	1.786195	-0.464558
C103	C	0.277917	1.882892	-0.566140
C104	C	0.383283	1.839309	-0.576410
C105	C	0.501880	1.699034	-0.485101
C106	C	0.983955	1.645860	-0.373229
C107	C	0.962302	1.786107	-0.464535
C108	C	0.878851	1.882803	-0.566119
C109	C	0.817059	1.839238	-0.576395
C110	C	0.838719	1.698987	-0.485090
C111	C	1.654611	0.427866	0.067261
C112	C	1.547465	0.534614	0.067643
C113	C	1.435313	0.455848	0.049324
C114	C	1.543203	0.348232	0.049812
C115	C	1.502337	0.602189	-0.116549
C116	C	1.396408	0.710579	-0.116361
H117	H	1.051771	0.424546	0.167136
H118	H	1.013864	0.204693	0.456307
H119	H	0.412553	1.057856	-0.135530
Cl120	Cl	1.867706	0.185452	0.451679
H121	H	1.845082	0.029314	0.640537
Cl122	Cl	1.314315	0.065638	0.704135
H123	H	0.587659	1.663560	-0.493478
H124	H	0.181341	1.997108	-0.640481
Cl125	Cl	0.772136	0.685916	0.200284
H126	H	0.573111	1.055180	-0.134223
Cl127	Cl	1.659807	0.065519	0.704177
H128	H	0.861225	1.997001	-0.640457
H129	H	1.237270	0.565090	-0.259775
H130	H	1.605907	0.459172	0.290600
Cl131	Cl	0.300563	1.251340	-0.016439
Cl132	Cl	1.392105	0.382091	0.498090
H133	H	0.563497	0.755023	0.166947
H134	H	0.456115	1.285842	-0.153569
Cl135	Cl	0.761014	1.644266	-0.498030
H136	H	0.974496	1.090584	-0.709411
H137	H	1.541231	0.639655	0.034593
Cl138	Cl	0.426370	1.524376	-0.245557
H139	H	1.165279	0.029333	0.640577
H140	H	0.372487	1.918057	-0.659128
Cl141	Cl	1.041929	0.225732	0.200599
Cl142	Cl	1.463160	0.334034	0.180496
Cl143	Cl	1.088874	1.524322	-0.245534
Cl144	Cl	0.808154	0.689961	0.021684
Cl145	Cl	0.752193	1.535186	-0.785155
H146	H	0.974522	0.459159	0.290615
H147	H	1.613911	0.216755	0.135583
Cl148	Cl	1.039987	1.840850	-0.451592
H149	H	0.205378	1.821654	-0.456175
Cl150	Cl	0.761074	1.517510	-0.497967
Cl151	Cl	1.485273	0.335555	-0.020923
Cl152	Cl	0.712140	1.960830	-0.704109
Cl153	Cl	1.725866	0.509465	0.016489
H154	H	1.729886	0.297622	0.152724
H155	H	1.570332	0.456327	0.153628
Cl156	Cl	1.297389	0.524362	-0.022652
H157	H	1.542583	0.661302	-0.157715
Cl158	Cl	1.220959	0.330347	-0.017261
Cl159	Cl	1.134770	0.770063	-0.237934
Cl160	Cl	1.383697	0.877286	-0.173206
Cl161	Cl	1.254287	0.799997	-0.200232
H162	H	1.167859	0.546326	-0.034930
Cl163	Cl	0.983599	0.800183	-0.199473
Cl164	Cl	1.441514	0.600819	-0.194275
H165	H	0.680481	0.837734	-0.002641
H166	H	0.817270	0.809362	-0.135150
Cl167	Cl	0.982451	0.613225	-0.200623
H168	H	0.816876	0.649148	-0.133816
Cl169	Cl	1.245147	0.333055	0.179726
Cl170	Cl	1.248125	0.149260	0.172831
Cl171	Cl	0.809062	0.501133	0.023460
Cl172	Cl	0.255619	1.337656	-0.199161
Cl173	Cl	0.488588	1.250852	-0.016557
H174	H	0.520789	0.839527	-0.003942
Cl175	Cl	0.461952	0.925257	0.180167
H176	H	1.277361	0.484897	-0.340837
H177	H	0.638247	0.921838	0.153232
H178	H	1.237998	0.563590	-0.506516
Cl179	Cl	0.891638	1.256302	-0.762005
Cl180	Cl	1.088930	0.861846	-0.245550
Cl181	Cl	0.712091	1.615385	-0.704091
H182	H	1.238016	0.362880	0.493490
