data_functionalizedCrystal
_audit_creation_method	'MofGen! by Chris Wilmer'
_symmetry_space_group_name_H-M	'P1'
_symmetry_Int_Tables_number	1
_symmetry_cell_setting	triclinic
loop_
_symmetry_equiv_pos_as_xyz
  x,y,z
_cell_length_a	18.215407
_cell_length_b	29.839131
_cell_length_c	18.215399
_cell_angle_alpha	89.966717
_cell_angle_beta	89.983176
_cell_angle_gamma	90.041868
loop_
_atom_site_label
_atom_site_type_symbol
_atom_site_fract_x
_atom_site_fract_y
_atom_site_fract_z
Zn1	Zn	1.124966	-0.178842	-0.416101
Zn2	Zn	1.624966	0.321158	0.083899
Zn3	Zn	1.124845	-0.253974	-0.293028
Zn4	Zn	1.624845	0.246026	0.206972
Zn5	Zn	1.001905	-0.178860	-0.293048
Zn6	Zn	1.501905	0.321140	0.206952
Zn7	Zn	1.001828	-0.253946	-0.416053
Zn8	Zn	1.501828	0.246054	0.083947
O9	O	1.063386	-0.216406	-0.354558
O10	O	1.563386	0.283594	0.145442
O11	O	1.227934	-0.188813	-0.399787
O12	O	1.727934	0.311187	0.100213
O13	O	1.108518	-0.244030	-0.190047
O14	O	1.608518	0.255970	0.309953
O15	O	1.018311	-0.115990	-0.309400
O16	O	1.518311	0.384010	0.190600
O17	O	1.227845	-0.244012	-0.309366
O18	O	1.727845	0.255988	0.190634
O19	O	1.108724	-0.115977	-0.399806
O20	O	1.608724	0.384023	0.100194
O21	O	1.018194	-0.188843	-0.190061
O22	O	1.518194	0.311157	0.309939
O23	O	0.898910	-0.188816	-0.309354
O24	O	1.398910	0.311184	0.190646
O25	O	1.018182	-0.243964	-0.519044
O26	O	1.518182	0.256036	-0.019044
O27	O	0.898854	-0.243982	-0.399725
O28	O	1.398854	0.256018	0.100275
O29	O	1.108650	-0.188785	-0.519079
O30	O	1.608650	0.311215	-0.019079
O31	O	1.108444	-0.316838	-0.309320
O32	O	1.608444	0.183162	0.190680
O33	O	1.018065	-0.316817	-0.399705
O34	O	1.518065	0.183183	0.100295
C35	C	0.872180	-0.216398	-0.354537
C36	C	1.372180	0.283602	0.145463
C37	C	0.790381	-0.216405	-0.354545
C38	C	1.290381	0.283595	0.145455
C39	C	0.602177	-0.245175	-0.401542
C40	C	1.102177	0.254825	0.098458
C41	C	0.525318	-0.245177	-0.401551
C42	C	1.025318	0.254823	0.098449
C43	C	0.525347	-0.187644	-0.307589
C44	C	1.025347	0.312356	0.192411
C45	C	0.602204	-0.187641	-0.307584
C46	C	1.102204	0.312359	0.192416
C47	C	0.640617	-0.216409	-0.354560
C48	C	1.140617	0.283591	0.145440
C49	C	0.486901	-0.216414	-0.354574
C50	C	0.986901	0.283586	0.145426
C51	C	0.403567	-0.216415	-0.354583
C52	C	0.903567	0.283585	0.145417
C53	C	0.723956	-0.216407	-0.354551
C54	C	1.223956	0.283593	0.145449
C55	C	1.063253	-0.333128	-0.354521
C56	C	1.563253	0.166872	0.145479
C57	C	1.063263	-0.383063	-0.354530
C58	C	1.563263	0.116937	0.145470
C59	C	1.110532	-0.692704	-0.307563
C60	C	1.610532	-0.192704	0.192437
C61	C	1.110623	-0.880377	-0.307591
C62	C	1.610623	-0.380377	0.192409
O63	O	1.150707	-0.904640	-0.267629
O64	O	1.650707	-0.404640	0.232371
N65	N	1.063538	-0.903848	-0.354613
N66	N	1.563538	-0.403848	0.145387
C67	C	1.016431	-0.880397	-0.401635
C68	C	1.516431	-0.380397	0.098365
O69	O	0.976391	-0.904666	-0.441636
O70	O	1.476391	-0.404666	0.058364
C71	C	1.016345	-0.692725	-0.401609
C72	C	1.516345	-0.192725	0.098391
C73	C	1.063427	-0.669257	-0.354579
C74	C	1.563427	-0.169257	0.145421
C75	C	1.157611	-0.669236	-0.260536
C76	C	1.657611	-0.169236	0.239464
C77	C	1.157585	-0.622320	-0.260527
C78	C	1.657585	-0.122320	0.239473
C79	C	1.110480	-0.598873	-0.307544
C80	C	1.610480	-0.098873	0.192456
C81	C	1.063401	-0.622341	-0.354570
C82	C	1.563401	-0.122341	0.145430
C83	C	0.969242	-0.669275	-0.448634
C84	C	1.469242	-0.169275	0.051366
C85	C	0.969226	-0.622354	-0.448625
C86	C	1.469226	-0.122354	0.051375
C87	C	1.016308	-0.598886	-0.401595
C88	C	1.516308	-0.098886	0.098405
C89	C	1.016270	-0.551978	-0.401577
C90	C	1.516270	-0.051978	0.098423
N91	N	1.063354	-0.528508	-0.354554
N92	N	1.563354	-0.028508	0.145446
C93	C	1.110460	-0.551955	-0.307538
C94	C	1.610460	-0.051955	0.192462
C95	C	1.016479	-0.978928	-0.401644
C96	C	1.516479	-0.478928	0.098356
C97	C	1.016500	-1.025845	-0.401649
C98	C	1.516500	-0.525845	0.098351
C99	C	1.110692	-1.025822	-0.307606
C100	C	1.610692	-0.525822	0.192394
C101	C	1.110668	-0.978904	-0.307598
C102	C	1.610668	-0.478904	0.192402
C103	C	1.063564	-0.955457	-0.354622
C104	C	1.563564	-0.455457	0.145378
C105	C	1.110401	-0.453430	-0.307521
C106	C	1.610401	0.046570	0.192479
C107	C	1.110369	-0.406510	-0.307514
C108	C	1.610369	0.093490	0.192486
C109	C	1.016179	-0.406537	-0.401559
C110	C	1.516179	0.093463	0.098441
C111	C	1.016208	-0.453453	-0.401564
C112	C	1.516208	0.046547	0.098436
C113	C	1.063325	-0.476898	-0.354543
C114	C	1.563325	0.023102	0.145457
O115	O	0.976213	-0.527686	-0.441523
O116	O	1.476213	-0.027686	0.058477
O117	O	1.150506	-0.527678	-0.267554
O118	O	1.650506	-0.027678	0.232446
C119	C	1.110558	-0.739619	-0.307572
C120	C	1.610558	-0.239619	0.192428
C121	C	1.063479	-0.763088	-0.354598
C122	C	1.563479	-0.263088	0.145402
C123	C	1.016374	-0.739640	-0.401615
C124	C	1.516374	-0.239640	0.098385
C125	C	1.063500	-0.810005	-0.354604
C126	C	1.563500	-0.310005	0.145396
C127	C	1.110605	-0.833453	-0.307587
C128	C	1.610605	-0.333453	0.192413
C129	C	1.157689	-0.809982	-0.260565
C130	C	1.657689	-0.309982	0.239435
C131	C	1.157663	-0.763067	-0.260555
C132	C	1.657663	-0.263067	0.239445
C133	C	0.969290	-0.763111	-0.448637
C134	C	1.469290	-0.263111	0.051363
C135	C	0.969319	-0.810026	-0.448642
C136	C	1.469319	-0.310026	0.051358
C137	C	1.016424	-0.833474	-0.401625
C138	C	1.516424	-0.333474	0.098375
C139	C	1.255339	-0.216414	-0.354579
C140	C	1.755339	0.283586	0.145421
C141	C	1.337138	-0.216417	-0.354589
C142	C	1.837138	0.283583	0.145411
C143	C	1.063421	-0.216370	-0.546511
C144	C	1.563421	0.283630	-0.046511
C145	C	1.063435	-0.216354	-0.628310
C146	C	1.563435	0.283646	-0.128310
C147	C	1.063539	-0.099227	-0.354610
C148	C	1.563539	0.400773	0.145390
C149	C	1.063605	-0.049293	-0.354633
C150	C	1.563605	0.450707	0.145367
C151	C	1.016444	-0.187599	-0.816512
C152	C	1.516444	0.312401	-0.316512
C153	C	1.016456	-0.187590	-0.893371
C154	C	1.516456	0.312410	-0.393371
C155	C	1.110515	-0.245056	-0.893345
C156	C	1.610515	0.254944	-0.393345
C157	C	1.110498	-0.245067	-0.816488
C158	C	1.610498	0.254933	-0.316488
C159	C	1.063464	-0.216336	-0.778073
C160	C	1.563464	0.283664	-0.278073
C161	C	1.063493	-0.216316	-0.931789
C162	C	1.563493	0.283684	-0.431789
C163	C	1.063508	-0.216306	-1.015123
C164	C	1.563508	0.283694	-0.515123
C165	C	1.063448	-0.216346	-0.694734
C166	C	1.563448	0.283654	-0.194734
C167	C	1.063394	-0.216409	-0.163351
C168	C	1.563394	0.283591	0.336649
C169	C	1.063521	-0.216298	-0.081553
C170	C	1.563521	0.283702	0.418447
H171	H	0.494023	-0.268601	-0.439810
H172	H	0.994023	0.231399	0.060190
H173	H	0.633503	-0.164213	-0.269325
H174	H	1.133503	0.335787	0.230675
H175	H	1.148789	-0.268469	-0.785190
H176	H	1.648789	0.231531	-0.285190
H177	H	1.148708	-0.387404	-0.269213
H178	H	1.648708	0.112596	0.230787
H179	H	0.494062	-0.164223	-0.269342
H180	H	0.994062	0.335777	0.230658
H181	H	1.148770	-0.472513	-0.269233
H182	H	1.648770	0.027487	0.230767
F183	F	1.160571	-0.275631	-0.934235
F184	F	1.660571	0.224369	-0.434235
F185	F	1.207820	-0.834945	-0.210524
F186	F	1.707820	-0.334945	0.289476
H187	H	1.195926	-0.603216	-0.222233
H188	H	1.695926	-0.103216	0.277767
F189	F	0.643056	-0.275792	-0.451540
F190	F	1.143056	0.224208	0.048460
F191	F	0.966380	-1.050817	-0.451697
F192	F	1.466380	-0.550817	0.048303
F193	F	1.207753	-0.694183	-0.210492
F194	F	1.707753	-0.194183	0.289508
F195	F	1.160779	-0.953931	-0.257542
F196	F	1.660779	-0.453931	0.242458
H197	H	0.978120	-0.959841	-0.439938
H198	H	1.478120	-0.459841	0.060062
F199	F	1.160824	-1.050785	-0.257566
F200	F	1.660824	-0.550785	0.242434
F201	F	0.919136	-0.694241	-0.498698
F202	F	1.419136	-0.194241	0.001302
H203	H	0.977872	-0.472561	-0.439862
H204	H	1.477872	0.027439	0.060138
F205	F	0.919091	-0.597403	-0.498678
F206	F	1.419091	-0.097403	0.001322
H207	H	0.930972	-0.829130	-0.486939
H208	H	1.430972	-0.329130	0.013061
F209	F	0.966051	-0.381575	-0.451597
F210	F	1.466051	0.118425	0.048403
F211	F	0.919152	-0.738163	-0.498682
F212	F	1.419152	-0.238163	0.001318
H213	H	1.196002	-0.743962	-0.222259
H214	H	1.696002	-0.243962	0.277741
H215	H	0.978145	-0.164205	-0.785237
H216	H	1.478145	0.335795	-0.285237
H217	H	0.978168	-0.164191	-0.924665
H218	H	1.478168	0.335809	-0.424665
