data_functionalizedCrystal
_audit_creation_method	'MofGen! by Chris Wilmer'
_symmetry_space_group_name_H-M	'P1'
_symmetry_Int_Tables_number	1
_symmetry_cell_setting	triclinic
loop_
_symmetry_equiv_pos_as_xyz
  x,y,z
_cell_length_a	18.050591
_cell_length_b	12.759399
_cell_length_c	12.759393
_cell_angle_alpha	89.972549
_cell_angle_beta	90.026377
_cell_angle_gamma	89.988462
loop_
_atom_site_label
_atom_site_type_symbol
_atom_site_fract_x
_atom_site_fract_y
_atom_site_fract_z
Zn1	Zn	1.135398	0.418326	0.594263
Zn2	Zn	1.135324	0.594042	0.418593
Zn3	Zn	1.011205	0.418365	0.418574
Zn4	Zn	1.011193	0.593951	0.594206
O5	O	1.073280	0.506171	0.506409
O6	O	1.239313	0.441656	0.570991
O7	O	1.118834	0.570792	0.271569
O8	O	1.027716	0.271339	0.441895
O9	O	1.239259	0.570754	0.441927
O10	O	1.118960	0.271310	0.570973
O11	O	1.027645	0.441724	0.271555
O12	O	0.907279	0.441635	0.441840
O13	O	1.027694	0.570599	0.741234
O14	O	0.907270	0.570638	0.570876
O15	O	1.118947	0.441568	0.741276
O16	O	1.118822	0.741051	0.441872
O17	O	1.027623	0.740984	0.570894
C18	C	1.073233	0.779138	0.506402
C19	C	1.073281	0.895915	0.506434
C20	C	0.880328	0.506132	0.506351
C21	C	0.797782	0.506140	0.506351
C22	C	1.120821	0.950777	0.439330
C23	C	1.120865	1.060501	0.439368
C24	C	1.025824	1.060491	0.573619
C25	C	1.025784	0.950769	0.573585
C26	C	1.168318	0.895922	0.372179
C27	C	1.215860	0.950784	0.305068
C28	C	1.215905	1.060508	0.305107
C29	C	1.168407	1.115370	0.372256
C30	C	0.598315	0.435908	0.436342
C31	C	0.548909	0.531738	0.410499
C32	C	0.646652	0.506172	0.506398
C33	C	0.548977	0.410375	0.532239
C34	C	0.500667	0.506194	0.506442
C35	C	0.598333	0.602053	0.480504
C36	C	0.598405	0.480625	0.602290
C37	C	0.549021	0.576522	0.576482
C38	C	0.730750	0.506158	0.506370
C39	C	0.416570	0.506220	0.506470
C40	C	1.266986	0.506211	0.506468
C41	C	1.349532	0.506228	0.506493
C42	C	1.073328	0.506069	0.780442
C43	C	1.073348	0.506026	0.897219
C44	C	1.073345	1.232138	0.506452
C45	C	1.073366	1.115361	0.506507
C46	C	1.073276	0.506196	0.233441
C47	C	1.073399	0.505944	0.116665
C48	C	1.025848	0.573181	0.952061
C49	C	1.025876	0.573143	1.061785
C50	C	1.120904	0.438786	1.061816
C51	C	1.120880	0.438830	0.952093
C52	C	0.978316	0.640377	0.897186
C53	C	0.930812	0.707536	0.952029
C54	C	0.930839	0.707498	1.061753
C55	C	0.978371	0.640301	1.116635
H56	H	1.168285	0.806579	0.372137
Br57	Br	0.961269	0.876307	0.664662
H58	H	0.892118	0.762252	0.907336
H59	H	1.254536	0.906110	0.250403
H60	H	0.619922	0.683101	0.458576
H61	H	0.527258	0.329362	0.554041
Br62	Br	0.978270	0.640422	0.748276
Br63	Br	1.280434	1.134962	0.214043
Br64	Br	0.866381	0.798654	1.136180
Br65	Br	1.185405	0.347594	1.136298
Br66	Br	1.185350	0.347697	0.877658
Br67	Br	0.513169	0.675684	0.675261
H68	H	0.978394	0.640282	1.205980
H69	H	1.168452	1.204715	0.372291
Br70	Br	0.634668	0.444539	0.737385
H71	H	0.619960	0.376551	0.377034
H72	H	0.987153	1.105169	0.628288
H73	H	0.527169	0.553362	0.329424
