data_functionalizedCrystal
_audit_creation_method	'MofGen! by Chris Wilmer'
_symmetry_space_group_name_H-M	'P1'
_symmetry_Int_Tables_number	1
_symmetry_cell_setting	triclinic
loop_
_symmetry_equiv_pos_as_xyz
  x,y,z
_cell_length_a	11.026607
_cell_length_b	7.088929
_cell_length_c	8.559649
_cell_angle_alpha	84.655815
_cell_angle_beta	89.182341
_cell_angle_gamma	97.577146
loop_
_atom_site_label
_atom_site_type_symbol
_atom_site_fract_x
_atom_site_fract_y
_atom_site_fract_z
O1	O	1.535813	-0.158970	0.664139
O2	O	1.189421	-0.158975	0.589938
O3	O	1.393134	-0.158970	0.403214
O4	O	1.332099	-0.158975	0.850862
O5	O	1.420365	0.159005	0.378188
O6	O	1.216652	0.159001	0.564912
O7	O	1.563043	0.159005	0.639113
Cu8	Cu	1.392334	0.188037	0.599727
Cu9	Cu	1.360130	-0.188006	0.629323
O10	O	1.359330	0.159001	0.825836
C11	C	1.159102	0.000012	0.563736
C12	C	1.028190	0.000010	0.522929
N13	N	1.414993	0.452525	0.578912
N14	N	1.337482	-0.452495	0.650128
C15	C	0.943884	0.000008	0.635604
C16	C	0.808580	0.000006	0.593431
C17	C	1.593363	0.000014	0.665315
C18	C	1.724273	0.000003	0.706123
C19	C	1.411375	0.000014	0.332502
C20	C	1.425142	0.000004	0.159083
C21	C	1.341089	0.000012	0.896549
C22	C	1.327321	0.000010	1.069969
H23	H	0.971876	0.000017	0.763290
H24	H	1.519432	0.000020	0.102696
O25	O	0.774989	-0.000080	0.441175
C26	C	0.647376	-0.000031	0.432959
H27	H	0.602073	-0.060228	0.550878
H28	H	0.610052	-0.092350	0.337757
H29	H	0.626812	0.152518	0.403598
H30	H	1.233039	0.000015	0.126346
H31	H	1.000195	-0.000037	0.395246
O32	O	1.241608	0.450408	0.738279
C33	C	1.173189	0.581479	0.801094
H34	H	1.233633	0.724206	0.805596
H35	H	1.138768	0.523497	0.924746
H36	H	1.091841	0.602719	0.723737
O37	O	0.757665	-0.000361	0.858475
C38	C	0.813129	-0.165029	0.901715
H39	H	0.781615	-0.280110	0.821086
H40	H	0.785752	-0.220336	1.028323
H41	H	0.916869	-0.127798	0.890703
H42	H	1.495337	0.534183	0.505123
