data_functionalizedCrystal
_audit_creation_method	'MofGen! by Chris Wilmer'
_symmetry_space_group_name_H-M	'P1'
_symmetry_Int_Tables_number	1
_symmetry_cell_setting	triclinic
loop_
_symmetry_equiv_pos_as_xyz
  x,y,z
_cell_length_a	16.994730
_cell_length_b	19.077236
_cell_length_c	19.076919
_cell_angle_alpha	90.112677
_cell_angle_beta	92.355184
_cell_angle_gamma	87.751231
loop_
_atom_site_label
_atom_site_type_symbol
_atom_site_fract_x
_atom_site_fract_y
_atom_site_fract_z
Zn1	Zn	0.286336	1.058597	0.440914
Zn2	Zn	0.412747	1.063371	0.323572
Zn3	Zn	0.285922	0.945812	0.318694
Zn4	Zn	0.423270	0.941202	0.436324
O5	O	0.352069	1.002245	0.379876
O6	O	0.298874	1.157559	0.429311
O7	O	0.391346	1.051704	0.224588
O8	O	0.175594	0.960704	0.334786
O9	O	0.391747	1.161067	0.343101
O10	O	0.175897	1.043566	0.424581
O11	O	0.298169	0.965334	0.221004
O12	O	0.308373	0.846871	0.330335
O13	O	0.409683	0.952847	0.535270
O14	O	0.409282	0.843484	0.416758
O15	O	0.309078	1.039096	0.538642
O16	O	0.524526	1.047234	0.338650
O17	O	0.532258	0.957477	0.421488
C18	C	0.359925	0.819682	0.372519
C19	C	0.363306	0.741580	0.369389
C20	C	0.316623	0.703059	0.412872
C21	C	0.319795	0.629674	0.409924
C22	C	0.369655	0.594811	0.363497
C23	C	0.416339	0.633337	0.320008
C24	C	0.413162	0.706721	0.322953
C25	C	0.384329	0.375533	0.349866
C26	C	0.387505	0.302144	0.346926
C27	C	0.290959	0.298486	0.436842
C28	C	0.287790	0.371871	0.439785
C29	C	0.334471	0.410391	0.396295
N30	N	0.372901	0.519800	0.360484
N31	N	0.331221	0.485401	0.399304
C32	C	0.646332	1.002257	0.379955
C33	C	0.557011	1.002323	0.380043
C34	C	0.146324	1.002112	0.379649
C35	C	0.057000	1.002056	0.379552
Zn36	Zn	0.916741	0.945662	0.318577
Zn37	Zn	0.917663	1.058542	0.440710
Zn38	Zn	0.790661	0.941136	0.436221
Zn39	Zn	0.779999	1.063217	0.323374
O40	O	0.851266	1.002139	0.379721
O41	O	1.027241	0.960573	0.334649
O42	O	0.905664	1.039117	0.538454
O43	O	0.811462	0.843404	0.416730
O44	O	1.027919	1.043505	0.424379
O45	O	0.904092	0.846729	0.330297
O46	O	0.812356	0.952859	0.535157
O47	O	0.678869	0.957393	0.421381
O48	O	0.793290	1.051474	0.224398
O49	O	0.671035	1.047085	0.338473
O50	O	0.893754	0.965107	0.220874
O51	O	0.895326	1.157494	0.429031
O52	O	0.794184	1.160929	0.342825
C53	C	0.360600	0.994925	0.563167
C54	C	0.364236	0.991805	0.641274
C55	C	0.344183	1.185522	0.387262
C56	C	0.340822	1.263623	0.390410
C57	C	0.343512	1.009578	0.197300
C58	C	0.339648	1.012833	0.119199
C59	C	0.313567	1.035243	0.679726
C60	C	0.316980	1.032303	0.753116
C61	C	0.371067	0.985929	0.788053
C62	C	0.421738	0.942487	0.749595
C63	C	0.418321	0.945423	0.676207
C64	C	0.386902	0.972328	1.007353
C65	C	0.390317	0.969396	1.080747
C66	C	0.285558	1.059212	1.084262
C67	C	0.282148	1.062147	1.010872
C68	C	0.332816	1.018702	0.972421
N69	N	0.374559	0.982925	0.863069
N70	N	0.329320	1.021704	0.897406
C71	C	0.843700	1.184708	0.386938
C72	C	0.840487	1.262811	0.390045
C73	C	0.842230	1.009317	0.196425
C74	C	0.838379	1.012376	0.118315
C75	C	0.858864	0.818857	0.372477
C76	C	0.862101	0.740753	0.369391
C77	C	0.860314	0.994939	0.562302
C78	C	0.864324	0.991684	0.640403
C79	C	0.891684	1.297681	0.436350
C80	C	0.888681	1.371068	0.439271
C81	C	0.834477	1.409582	0.395889
C82	C	0.783278	1.374707	0.349579
C83	C	0.786286	1.301322	0.346656
C84	C	0.888877	0.968840	0.079794
C85	C	0.885260	0.971700	0.006401
C86	C	0.831147	1.018100	-0.028470
C87	C	0.780644	1.061637	0.010056
C88	C	0.784258	1.058773	0.083447
C89	C	0.815388	0.702340	0.412942
C90	C	0.818415	0.628953	0.410042
C91	C	0.868159	0.593981	0.363594
C92	C	0.914874	0.632400	0.320038
C93	C	0.911843	0.705785	0.322934
C94	C	0.817246	0.945569	0.675346
C95	C	0.821013	0.942498	0.748731
C96	C	0.871854	0.985545	0.787170
C97	C	0.918938	1.031661	0.752222
C98	C	0.915174	1.034729	0.678839
H99	H	0.276024	0.731439	0.450680
Br100	Br	0.953807	0.912609	-0.045868
H101	H	0.828214	1.020426	-0.088230
H102	H	0.775841	0.910515	0.644058
Br103	Br	0.487084	0.886466	0.624020
H104	H	0.451176	0.738084	0.287544
Br105	Br	0.975245	0.757909	0.263820
H106	H	0.874910	0.983041	0.846923
Br107	Br	0.455199	0.254830	0.283933
H108	H	0.782668	0.904945	0.777175
H109	H	0.269526	1.073008	0.651286
Br110	Br	0.715730	1.117876	0.135716
Br111	Br	0.965253	1.245428	0.495234
Br112	Br	0.830405	1.509176	0.399865
Br113	Br	0.747870	0.749785	0.475986
H114	H	0.739147	1.406076	0.314259
Br115	Br	0.962322	0.905861	0.127103
H116	H	0.960333	1.066707	0.783531
Br117	Br	0.220129	0.419180	0.502804
Br118	Br	0.716792	1.254007	0.283811
Br119	Br	0.707191	1.124588	-0.037281
Br120	Br	0.455665	0.913365	0.955178
H121	H	0.953508	1.072286	0.650394
H122	H	0.275722	1.067676	0.784420
H123	H	0.434363	0.931630	1.109190
H124	H	0.780373	0.597682	0.445514
Br125	Br	0.256438	0.577398	0.468941
H126	H	0.870616	0.534225	0.361239
H127	H	0.244305	1.094581	1.115577
Br128	Br	0.227609	0.246205	0.495861
Br129	Br	0.982381	0.584926	0.257004
H130	H	0.422341	0.406888	0.314454
H131	H	0.456932	0.604946	0.282203
Br132	Br	0.208744	1.125088	0.963463
H133	H	0.465774	0.904725	0.778046
Br134	Br	0.958169	1.418382	0.502125
