data_functionalizedCrystal
_audit_creation_method	'MofGen! by Chris Wilmer'
_symmetry_space_group_name_H-M	'P1'
_symmetry_Int_Tables_number	1
_symmetry_cell_setting	triclinic
loop_
_symmetry_equiv_pos_as_xyz
  x,y,z
_cell_length_a	15.995300
_cell_length_b	15.995292
_cell_length_c	13.101039
_cell_angle_alpha	93.364742
_cell_angle_beta	86.641414
_cell_angle_gamma	83.470212
loop_
_atom_site_label
_atom_site_type_symbol
_atom_site_fract_x
_atom_site_fract_y
_atom_site_fract_z
O1	O	1.115598	0.103105	-0.085245
O2	O	0.871814	0.116477	-0.085238
O3	O	1.000396	-0.012101	-0.085243
O4	O	0.987017	0.231683	-0.085240
O5	O	0.991170	-0.002861	0.085187
O6	O	0.862588	0.125718	0.085192
O7	O	1.106373	0.112346	0.085185
Zn8	Zn	0.983016	0.120499	0.112248
Zn9	Zn	0.995171	0.108324	-0.112301
O10	O	0.977791	0.240924	0.085190
C11	C	0.995238	-0.038677	-0.000031
C12	C	0.993606	-0.131630	-0.000039
C13	C	0.836006	0.120552	-0.000022
C14	C	0.743053	0.118917	-0.000020
C15	C	0.987604	-0.469366	-0.000029
C16	C	1.080391	-0.446050	0.000349
C17	C	1.082175	-0.349396	-0.000039
C18	C	0.990583	-0.301811	-0.000033
C19	C	0.949452	-0.336181	-0.097353
C20	C	0.948339	-0.432975	-0.097430
C21	C	0.935952	-0.422324	0.096381
C22	C	0.939322	-0.325762	0.097663
C23	C	0.992261	-0.207116	-0.000039
C24	C	0.985924	-0.564062	-0.000030
C25	C	0.572871	0.115897	-0.000028
C26	C	0.525386	0.207448	-0.000024
C27	C	0.428720	0.205757	-0.000414
C28	C	0.405316	0.112925	-0.000034
C29	C	0.451716	0.062237	-0.097167
C30	C	0.548353	0.064550	-0.097246
C31	C	0.538141	0.073703	0.096572
C32	C	0.441128	0.073780	0.097846
C33	C	0.310621	0.111240	-0.000042
C34	C	0.667567	0.117579	-0.000027
C35	C	1.142181	0.108270	-0.000033
C36	C	1.235134	0.109905	-0.000042
C37	C	0.982948	0.267499	-0.000025
C38	C	0.984581	0.360452	-0.000024
N39	N	0.974726	0.128807	0.265497
N40	N	1.003467	0.100009	-0.265550
C41	C	0.963448	0.140119	0.474540
C42	C	1.014742	0.088700	0.525413
C43	C	1.008467	0.094994	0.641732
C44	C	0.969722	0.133826	0.358211
H45	H	1.114737	-0.326595	0.069722
H46	H	0.914825	0.188865	0.518339
H47	H	1.122511	-0.334787	-0.069925
H48	H	1.112385	-0.470270	0.070141
Cl49	Cl	0.548652	0.270287	0.107049
Cl50	Cl	1.005252	-0.311288	-0.209180
H51	H	0.570610	0.093333	-0.170128
H52	H	1.119721	-0.478837	-0.069053
Cl53	Cl	0.598552	-0.039587	-0.103650
H54	H	0.437811	-0.006169	-0.100507
Cl55	Cl	1.004038	-0.480481	-0.209749
Cl56	Cl	0.563625	0.126403	0.210275
H57	H	0.867604	-0.436266	0.097040
Cl58	Cl	0.414029	0.104309	-0.209194
Cl59	Cl	1.090139	0.013756	0.457789
H60	H	0.880531	-0.447752	-0.101836
H61	H	0.882247	-0.304497	-0.100967
Cl62	Cl	0.561455	0.257586	-0.107403
Cl63	Cl	0.378941	0.266695	0.107057
Cl64	Cl	0.416950	-0.030222	0.107351
Cl65	Cl	0.974615	-0.459846	0.210267
Cl66	Cl	0.587167	-0.030424	0.098029
H67	H	0.404656	0.237496	-0.070447
Cl68	Cl	0.835610	-0.274353	0.106746
H69	H	0.969210	-0.303299	0.169659
H70	H	0.409891	0.110846	0.169706
