data_functionalizedCrystal
_audit_creation_method	'MofGen! by Chris Wilmer'
_symmetry_space_group_name_H-M	'P1'
_symmetry_Int_Tables_number	1
_symmetry_cell_setting	triclinic
loop_
_symmetry_equiv_pos_as_xyz
  x,y,z
_cell_length_a	14.853567
_cell_length_b	15.944551
_cell_length_c	13.330367
_cell_angle_alpha	89.994404
_cell_angle_beta	89.995418
_cell_angle_gamma	83.566834
loop_
_atom_site_label
_atom_site_type_symbol
_atom_site_fract_x
_atom_site_fract_y
_atom_site_fract_z
O1	O	1.196228	0.109665	-0.083357
O2	O	1.696228	0.609665	0.416643
O3	O	0.933752	0.122728	-0.083374
O4	O	1.433752	0.622728	0.416626
O5	O	1.072158	-0.006070	-0.083356
O6	O	1.572158	0.493930	0.416644
O7	O	1.057822	0.238463	-0.083375
O8	O	1.557822	0.738463	0.416625
O9	O	1.072137	-0.006073	0.083491
O10	O	1.572137	0.493927	0.583491
O11	O	0.933732	0.122725	0.083473
O12	O	1.433732	0.622725	0.583473
O13	O	1.196208	0.109662	0.083491
O14	O	1.696208	0.609662	0.583491
Cu15	Cu	1.064968	0.116193	0.098716
Cu16	Cu	1.564968	0.616193	0.598716
Cu17	Cu	1.064992	0.116197	-0.098600
Cu18	Cu	1.564992	0.616197	0.401400
O19	O	1.057802	0.238460	0.083472
O20	O	1.557802	0.738460	0.583472
C21	C	0.900154	0.122135	0.000047
C22	C	1.400154	0.622135	0.500047
C23	C	0.800072	0.120361	0.000041
C24	C	1.300072	0.620361	0.500041
C25	C	0.387646	0.036354	0.000070
C26	C	0.887646	0.536354	0.500070
C27	C	0.366169	0.189369	0.000057
C28	C	0.866169	0.689369	0.500057
C29	C	0.460201	0.191037	0.000054
C30	C	0.960201	0.691037	0.500054
C31	C	0.517960	0.115362	0.000057
C32	C	1.017960	0.615362	0.500057
C33	C	0.481687	0.038019	0.000064
C34	C	0.981687	0.538019	0.500064
C35	C	0.496480	0.268379	0.000037
C36	C	0.996480	0.768379	0.500037
C37	C	0.590517	0.270050	0.000033
C38	C	1.090517	0.770050	0.500033
C39	C	0.648278	0.194374	0.000043
C40	C	1.148278	0.694374	0.500043
C41	C	0.612000	0.117028	0.000051
C42	C	1.112000	0.617028	0.500051
C43	C	0.669759	0.041353	0.000054
C44	C	1.169759	0.541353	0.500054
C45	C	0.633483	-0.035994	0.000069
C46	C	1.133483	0.464006	0.500069
C47	C	0.539448	-0.037657	0.000074
C48	C	1.039448	0.462343	0.500074
C49	C	0.742313	0.196036	0.000038
C50	C	1.242313	0.696036	0.500038
C51	C	0.763800	0.043018	0.000048
C52	C	1.263800	0.543018	0.500048
C53	C	1.071552	-0.037367	0.000068
C54	C	1.571552	0.462633	0.500068
C55	C	1.069768	-0.130615	0.000068
C56	C	1.569768	0.369385	0.500068
C57	C	0.979713	-0.345572	0.000049
C58	C	1.479713	0.154428	0.500049
C59	C	1.021522	-0.406544	0.082317
C60	C	1.521522	0.093456	0.582317
C61	C	1.066541	-0.301344	0.000060
C62	C	1.566541	0.198656	0.500060
C63	C	1.021562	-0.406524	-0.082181
C64	C	1.521562	0.093476	0.417819
C65	C	1.063416	-0.466260	0.000048
C66	C	1.563416	0.033740	0.500048
C67	C	1.108373	-0.361088	0.082397
C68	C	1.608373	0.138912	0.582397
C69	C	1.108401	-0.361062	-0.082175
C70	C	1.608401	0.138938	0.417825
C71	C	1.150273	-0.422017	0.000113
C72	C	1.650273	0.077983	0.500113
C73	C	1.068338	-0.206340	0.000068
C74	C	1.568338	0.293660	0.500068
C75	C	1.061626	-0.561263	0.000048
C76	C	1.561626	-0.061263	0.500048
C77	C	1.229806	0.110255	0.000067
C78	C	1.729806	0.610255	0.500067
C79	C	1.329887	0.112029	0.000067
C80	C	1.829887	0.612029	0.500067
C81	C	1.058407	0.269756	0.000046
C82	C	1.558407	0.769756	0.500046
C83	C	1.060191	0.363004	0.000039
C84	C	1.560191	0.863004	0.500039
N85	N	1.064958	0.116190	0.237498
N86	N	1.564958	0.616190	0.737498
N87	N	1.065009	0.116193	-0.237381
N88	N	1.565009	0.616193	0.262619
C89	C	1.003703	0.173206	0.710113
C90	C	1.503703	0.673206	1.210113
C91	C	1.126305	0.059180	0.710097
C92	C	1.626305	0.559180	1.210097
C93	C	1.126295	0.059178	0.605078
C94	C	1.626295	0.559178	1.105078
C95	C	1.064989	0.116191	0.552572
C96	C	1.564989	0.616191	1.052572
C97	C	1.003693	0.173207	0.605085
C98	C	1.503693	0.673207	1.105085
C99	C	1.187595	0.002169	0.552558
C100	C	1.687595	0.502169	1.052558
C101	C	1.187588	0.002164	0.447534
C102	C	1.687588	0.502164	0.947534
C103	C	1.126277	0.059174	0.395026
C104	C	1.626277	0.559174	0.895026
C105	C	1.064978	0.116192	0.447544
C106	C	1.564978	0.616192	0.947544
C107	C	1.003672	0.173205	0.395038
C108	C	1.503672	0.673205	0.895038
C109	C	0.942368	0.230220	0.447555
C110	C	1.442368	0.730220	0.947555
C111	C	0.942382	0.230217	0.552577
C112	C	1.442382	0.730217	1.052577
C113	C	1.126264	0.059177	0.290004
C114	C	1.626264	0.559177	0.790004
C115	C	1.003662	0.173206	0.290010
C116	C	1.503662	0.673206	0.790010
H117	H	0.771845	0.259011	0.000027
H118	H	1.271845	0.759011	0.500027
O119	O	0.629635	0.353472	0.000040
O120	O	1.129635	0.853472	0.500040
H121	H	0.606436	0.389850	-0.067958
H122	H	1.106436	0.889850	0.432042
H123	H	0.892471	0.276637	0.595342
H124	H	1.392471	0.776637	1.095342
O125	O	0.884253	-0.301547	0.000156
O126	O	1.384253	0.198453	0.500156
H127	H	0.886429	-0.232193	-0.000545
H128	H	1.386429	0.267807	0.499455
H129	H	1.222407	-0.455095	0.000165
H130	H	1.722407	0.044905	0.500165
H131	H	1.145102	-0.340890	-0.151725
H132	H	1.645102	0.159110	0.348275
O133	O	0.303869	0.270983	0.000056
O134	O	0.803869	0.770983	0.500056
H135	H	0.316760	0.307991	-0.067954
H136	H	0.816760	0.807991	0.432046
O137	O	1.253720	-0.059317	0.609186
O138	O	1.753720	0.440683	1.109186
H139	H	1.215776	-0.100214	0.657038
H140	H	1.715776	0.399786	1.157038
H141	H	0.984835	-0.426641	-0.151738
H142	H	1.484835	0.073359	0.348262
O143	O	0.695790	-0.117611	0.000077
O144	O	1.195790	0.382389	0.500077
H145	H	0.682902	-0.154620	-0.067923
H146	H	1.182902	0.345380	0.432077
H147	H	0.449447	0.329989	0.000024
H148	H	0.949447	0.829989	0.500024
O149	O	0.500324	-0.121077	0.000085
O150	O	1.000324	0.378923	0.500085
H151	H	0.425233	-0.109519	0.000077
H152	H	0.925233	0.390481	0.500077
H153	H	1.145058	-0.341058	0.152025
H154	H	1.645058	0.158942	0.652025
O155	O	0.937596	0.234706	0.766753
O156	O	1.437596	0.734706	1.266753
H157	H	0.894967	0.274348	0.712594
H158	H	1.394967	0.774348	1.212594
H159	H	0.358106	-0.026620	0.000086
H160	H	0.858106	0.473380	0.500086
H161	H	0.984789	-0.426694	0.151864
H162	H	1.484789	0.073306	0.651864
O163	O	0.937541	0.234702	0.233378
O164	O	1.437541	0.734702	0.733378
H165	H	0.894923	0.274348	0.287542
H166	H	1.394923	0.774348	0.787542
H167	H	0.892456	0.276644	0.404792
H168	H	1.392456	0.776644	0.904792
H169	H	1.176223	0.012766	0.752851
H170	H	1.676223	0.512766	1.252851
H171	H	1.237504	-0.044260	0.404781
H172	H	1.737504	0.455740	0.904781
H173	H	1.176181	0.012761	0.247250
H174	H	1.676181	0.512761	0.747250
H175	H	0.810822	-0.018607	0.000054
H176	H	1.310822	0.481393	0.500054
