data_functionalizedCrystal
_audit_creation_method	'MofGen! by Chris Wilmer'
_symmetry_space_group_name_H-M	'P1'
_symmetry_Int_Tables_number	1
_symmetry_cell_setting	triclinic
loop_
_symmetry_equiv_pos_as_xyz
  x,y,z
_cell_length_a	18.050591
_cell_length_b	18.050590
_cell_length_c	18.050582
_cell_angle_alpha	89.976663
_cell_angle_beta	89.980240
_cell_angle_gamma	90.015000
loop_
_atom_site_label
_atom_site_type_symbol
_atom_site_fract_x
_atom_site_fract_y
_atom_site_fract_z
Zn1	Zn	1.135342	-0.295777	-0.420004
Zn2	Zn	1.135274	-0.419960	-0.295813
Zn3	Zn	1.011162	-0.295781	-0.295818
Zn4	Zn	1.011131	-0.419922	-0.419951
O5	O	1.073227	-0.357860	-0.357897
O6	O	1.239258	-0.312265	-0.403550
O7	O	1.118795	-0.403505	-0.191889
O8	O	1.027676	-0.191856	-0.312316
O9	O	1.239208	-0.403501	-0.312307
O10	O	1.118911	-0.191853	-0.403556
O11	O	1.027610	-0.312271	-0.191893
O12	O	0.907233	-0.312234	-0.312264
O13	O	1.027623	-0.403436	-0.523883
O14	O	0.907210	-0.403440	-0.403464
O15	O	1.118881	-0.312227	-0.523922
O16	O	1.118765	-0.523880	-0.312255
O17	O	1.027557	-0.523852	-0.403459
C18	C	0.880275	-0.357834	-0.357859
C19	C	0.797729	-0.357841	-0.357861
C20	C	1.073170	-0.550812	-0.357867
C21	C	1.073214	-0.633358	-0.357879
C22	C	0.548895	-0.308191	-0.308384
C23	C	0.598323	-0.290110	-0.376160
C24	C	0.500609	-0.357879	-0.357922
C25	C	0.598262	-0.375906	-0.290119
C26	C	0.646594	-0.357858	-0.357888
C27	C	0.548951	-0.339762	-0.425734
C28	C	0.548884	-0.425589	-0.339648
C29	C	0.598291	-0.407534	-0.407471
C30	C	0.416511	-0.357888	-0.357940
C31	C	0.730690	-0.357848	-0.357878
C32	C	1.122916	-0.832797	-0.308352
C33	C	1.141051	-0.882137	-0.376133
C34	C	1.073256	-0.784488	-0.357909
C35	C	1.055196	-0.882230	-0.290158
C36	C	1.073298	-0.930473	-0.357931
C37	C	1.091426	-0.832741	-0.425726
C38	C	1.005539	-0.832830	-0.339704
C39	C	1.023649	-0.882147	-0.407533
C40	C	1.073233	-0.700390	-0.357895
C41	C	1.073320	-1.014570	-0.357953
C42	C	1.266933	-0.357887	-0.357934
C43	C	1.349479	-0.357898	-0.357950
C44	C	1.073256	-0.357827	-0.551602
C45	C	1.073269	-0.357813	-0.634148
C46	C	1.073305	-0.164154	-0.357943
C47	C	1.073338	-0.081609	-0.357962
C48	C	1.023681	-0.407345	-0.833577
C49	C	1.091439	-0.425502	-0.882974
C50	C	1.073305	-0.357756	-0.785278
C51	C	1.005584	-0.339578	-0.882963
C52	C	1.073335	-0.357703	-0.931264
C53	C	1.141099	-0.375950	-0.833588
C54	C	1.055199	-0.289994	-0.833573
C55	C	1.123004	-0.308126	-0.882948
C56	C	1.073287	-0.357789	-0.701180
C57	C	1.073360	-0.357670	-1.015360
C58	C	1.073241	-0.357839	-0.164944
C59	C	1.073372	-0.357644	-0.082399
H60	H	0.527208	-0.266150	-0.266557
N61	N	0.971086	-0.460008	-0.806358
N62	N	0.918329	-0.438977	-0.766735
H63	H	0.881188	-0.476171	-0.747507
N64	N	1.175711	-0.255478	-0.909973
N65	N	1.169563	-0.188583	-0.893192
H66	H	1.206789	-0.151401	-0.912279
N67	N	0.521613	-0.497416	-0.320262
N68	N	0.538329	-0.552376	-0.358908
H69	H	0.519066	-0.603105	-0.345211
H70	H	0.619842	-0.449544	-0.449397
H71	H	1.106662	-0.811095	-0.483081
N72	N	0.970990	-0.909154	-0.460183
N73	N	0.977740	-0.893128	-0.527222
H74	H	0.940553	-0.912202	-0.564409
N75	N	1.035934	-0.218153	-0.806336
N76	N	0.974458	-0.190485	-0.822125
H77	H	0.960844	-0.139746	-0.802889
H78	H	1.164925	-0.811127	-0.266486
N79	N	0.933729	-0.320295	-0.910170
N80	N	0.925649	-0.264054	-0.949772
H81	H	0.874901	-0.250439	-0.968985
N82	N	0.625446	-0.395030	-0.218206
N83	N	0.609607	-0.355541	-0.163583
H84	H	0.628808	-0.369038	-0.112793
N85	N	1.212908	-0.909342	-0.395437
N86	N	1.267633	-0.893546	-0.356073
H87	H	1.318381	-0.912772	-0.369691
N88	N	0.933697	-0.805643	-0.320339
N89	N	0.906088	-0.821489	-0.258823
H90	H	0.855348	-0.802288	-0.245139
H91	H	1.039903	-0.903968	-0.232852
H92	H	1.198399	-0.391368	-0.811990
N93	N	0.625560	-0.218263	-0.395534
N94	N	0.609730	-0.163503	-0.356236
H95	H	0.628963	-0.112759	-0.369914
N96	N	0.521885	-0.320552	-0.497670
N97	N	0.453694	-0.317441	-0.509288
H98	H	0.434576	-0.303876	-0.560092
N99	N	1.110669	-0.497365	-0.910191
N100	N	1.071244	-0.552073	-0.894368
H101	H	1.084821	-0.602829	-0.913588
