data_functionalizedCrystal
_audit_creation_method	'MofGen! by Chris Wilmer'
_symmetry_space_group_name_H-M	'P1'
_symmetry_Int_Tables_number	1
_symmetry_cell_setting	triclinic
loop_
_symmetry_equiv_pos_as_xyz
  x,y,z
_cell_length_a	8.559649
_cell_length_b	16.109301
_cell_length_c	14.586319
_cell_angle_alpha	90.004978
_cell_angle_beta	89.996673
_cell_angle_gamma	103.379927
loop_
_atom_site_label
_atom_site_type_symbol
_atom_site_fract_x
_atom_site_fract_y
_atom_site_fract_z
O1	O	2.120141	0.028207	-0.076224
O2	O	1.654915	-0.014731	-0.076230
O3	O	1.900308	0.128583	-0.076218
O4	O	1.874748	-0.115107	-0.076237
O5	O	1.900290	0.128583	0.076263
O6	O	1.654897	-0.014731	0.076250
O7	O	2.120123	0.028207	0.076257
Cu8	Cu	1.887508	0.006738	0.090176
Cu9	Cu	1.887530	0.006738	-0.090150
O10	O	1.874730	-0.115107	0.076244
C11	C	1.595374	-0.017985	0.000009
C12	C	1.417989	-0.027671	0.000007
C13	C	1.899264	0.159492	0.000023
C14	C	1.896160	0.251590	0.000024
C15	C	2.179664	0.031461	0.000015
C16	C	2.357049	0.041147	0.000011
C17	C	1.875774	-0.146016	0.000001
C18	C	1.878878	-0.238114	-0.000006
N19	N	1.887505	0.006739	0.217008
C20	C	2.034553	0.482679	0.000012
C21	C	2.031624	0.569213	0.000004
C22	C	1.740473	0.530789	0.000004
C23	C	1.743404	0.444257	0.000005
C24	C	1.890449	0.420205	0.000013
C25	C	1.884589	0.593271	0.000005
C26	C	1.881412	0.687094	-0.000003
C27	C	1.893627	0.326376	0.000020
C28	C	1.996200	0.070181	0.452020
C29	C	1.996204	0.070183	0.548001
C30	C	1.778833	-0.056706	0.547999
C31	C	1.778823	-0.056704	0.452020
C32	C	1.887515	0.006740	0.404033
C33	C	1.887529	0.006739	0.595994
C34	C	1.887533	0.006741	0.700061
C35	C	1.887510	0.006739	0.299959
N36	N	1.887539	0.006739	0.783018
H37	H	2.154287	0.463099	0.000017
O38	O	1.318112	-0.106746	0.000038
C39	C	1.157293	-0.099144	0.000010
H40	H	1.151083	-0.034224	0.028883
H41	H	1.109107	-0.105342	-0.073146
C42	C	1.062733	-0.249897	0.024334
C43	C	1.055104	-0.170164	0.059804
H44	H	0.999694	-0.293708	0.061215
H45	H	1.171079	-0.255020	0.024350
H46	H	1.022580	-0.255050	-0.036628
H47	H	1.095275	-0.165008	0.120761
H48	H	0.946762	-0.165042	0.059800
H49	H	2.148969	0.620077	0.000001
O50	O	1.603306	0.383642	-0.000115
C51	C	1.514053	0.393079	-0.079098
H52	H	1.553314	0.461368	-0.105425
H53	H	1.535893	0.347039	-0.134397
C54	C	1.285801	0.289459	-0.022775
C55	C	1.334012	0.373335	-0.055106
H56	H	1.174742	0.277277	-0.007978
H57	H	1.345933	0.283098	0.030436
H58	H	1.304014	0.251102	-0.068863
H59	H	1.315818	0.411691	-0.009014
H60	H	1.273872	0.379702	-0.108309
O61	O	1.673420	-0.118295	0.594758
C62	C	1.696708	-0.104684	0.689763
H63	H	1.823759	-0.065533	0.702867
H64	H	1.606294	-0.068734	0.717014
C65	C	1.516610	-0.239352	0.722932
C66	C	1.672661	-0.191272	0.739028
H67	H	1.501770	-0.292763	0.753323
H68	H	1.500914	-0.248521	0.658926
H69	H	1.441283	-0.209384	0.745642
H70	H	1.747985	-0.221236	0.716308
H71	H	1.688369	-0.182111	0.803032
H72	H	2.084701	0.121842	0.412951
O73	O	2.101938	0.131850	0.594474
C74	C	2.197833	0.187856	0.531533
H75	H	2.199611	0.153881	0.463113
H76	H	2.145989	0.246325	0.521334
C77	C	2.368032	0.257678	0.653019
C78	C	2.370226	0.215946	0.568986
H79	H	2.474370	0.275008	0.676122
H80	H	2.303422	0.219948	0.695424
H81	H	2.324821	0.306396	0.644508
H82	H	2.413418	0.167223	0.577500
H83	H	2.434847	0.253668	0.526583
O84	O	1.673307	-0.118254	0.405257
C85	C	1.696634	-0.104657	0.310254
H86	H	1.756384	-0.034756	0.297154
H87	H	1.776752	-0.146620	0.283006
C88	C	1.459792	-0.213398	0.277069
C89	C	1.533165	-0.127543	0.260979
H90	H	1.358958	-0.227518	0.246673
H91	H	1.444078	-0.222561	0.341074
H92	H	1.526573	-0.248356	0.254362
H93	H	1.466393	-0.092585	0.283696
H94	H	1.548863	-0.118374	0.196977
O95	O	1.597742	0.554263	-0.000118
C96	C	1.587322	0.603145	-0.079100
H97	H	1.713275	0.632785	-0.105430
H98	H	1.516612	0.560313	-0.134398
C99	C	1.346616	0.637956	-0.022768
C100	C	1.501315	0.674366	-0.055103
H101	H	1.293556	0.681887	-0.007968
H102	H	1.353632	0.605021	0.030442
H103	H	1.287711	0.602263	-0.068855
H104	H	1.560222	0.710049	-0.009012
H105	H	1.494306	0.707309	-0.108304
O106	O	1.456917	0.120218	0.000058
C107	C	1.617734	0.112612	0.000034
H108	H	1.623932	0.047692	0.028898
H109	H	1.665944	0.118810	-0.073118
C110	C	1.712296	0.263365	0.024386
C111	C	1.719909	0.183631	0.059844
H112	H	1.775326	0.307174	0.061276
H113	H	1.603951	0.268490	0.024399
H114	H	1.752468	0.268518	-0.036574
H115	H	1.679719	0.178475	0.120798
H116	H	1.828250	0.178506	0.059843
