data_functionalizedCrystal
_audit_creation_method	'MofGen! by Chris Wilmer'
_symmetry_space_group_name_H-M	'P1'
_symmetry_Int_Tables_number	1
_symmetry_cell_setting	triclinic
loop_
_symmetry_equiv_pos_as_xyz
  x,y,z
_cell_length_a	10.868271
_cell_length_b	11.792241
_cell_length_c	11.792241
_cell_angle_alpha	84.193416
_cell_angle_beta	89.994719
_cell_angle_gamma	89.996558
loop_
_atom_site_label
_atom_site_type_symbol
_atom_site_fract_x
_atom_site_fract_y
_atom_site_fract_z
O1	O	-0.102298	1.506908	0.155568
O2	O	0.147702	1.756908	0.405568
O3	O	0.397702	2.006908	0.655568
O4	O	0.647702	2.256908	0.905568
O5	O	-0.102306	1.176567	0.171601
O6	O	0.147694	1.426567	0.421601
O7	O	0.397694	1.676567	0.671601
O8	O	0.647694	1.926567	0.921601
O9	O	-0.102294	1.349754	-0.001586
O10	O	0.147706	1.599754	0.248414
O11	O	0.397706	1.849754	0.498414
O12	O	0.647706	2.099754	0.748414
O13	O	-0.102311	1.333721	0.328755
O14	O	0.147689	1.583721	0.578755
O15	O	0.397689	1.833721	0.828755
O16	O	0.647689	2.083721	1.078755
O17	O	0.102351	1.349740	-0.001592
O18	O	0.352351	1.599740	0.248408
O19	O	0.602351	1.849740	0.498408
O20	O	0.852351	2.099740	0.748408
O21	O	0.102338	1.176553	0.171595
O22	O	0.352338	1.426553	0.421595
O23	O	0.602338	1.676553	0.671595
O24	O	0.852338	1.926553	0.921595
O25	O	0.102346	1.506894	0.155562
O26	O	0.352346	1.756894	0.405562
O27	O	0.602346	2.006894	0.655562
O28	O	0.852346	2.256894	0.905562
Zn29	Zn	0.134834	1.341721	0.163577
Zn30	Zn	0.384834	1.591721	0.413577
Zn31	Zn	0.634834	1.841721	0.663577
Zn32	Zn	0.884834	2.091721	0.913577
Zn33	Zn	-0.134794	1.341740	0.163586
Zn34	Zn	0.115206	1.591740	0.413586
Zn35	Zn	0.365206	1.841740	0.663586
Zn36	Zn	0.615206	2.091740	0.913586
O37	O	0.102333	1.333707	0.328749
O38	O	0.352333	1.583707	0.578749
O39	O	0.602333	1.833707	0.828749
O40	O	0.852333	2.083707	1.078749
C41	C	0.000015	1.134269	0.170591
C42	C	0.250015	1.384269	0.420591
C43	C	0.500015	1.634269	0.670591
C44	C	0.750015	1.884269	0.920591
C45	C	0.000012	1.008255	0.167576
C46	C	0.250012	1.258255	0.417576
C47	C	0.500012	1.508255	0.667576
C48	C	0.750012	1.758255	0.917576
N49	N	0.318848	1.341717	0.163570
N50	N	0.568848	1.591717	0.413570
N51	N	0.818848	1.841717	0.663570
N52	N	1.068848	2.091717	0.913570
C53	C	0.000028	1.348740	-0.043880
C54	C	0.250028	1.598740	0.206120
C55	C	0.500028	1.848740	0.456120
C56	C	0.750028	2.098740	0.706120
C57	C	0.000027	1.345726	-0.169894
C58	C	0.250027	1.595726	0.080106
C59	C	0.500027	1.845726	0.330106
C60	C	0.750027	2.095726	0.580106
N61	N	-0.318808	1.341754	0.163584
N62	N	-0.068808	1.591754	0.413584
N63	N	0.181192	1.841754	0.663584
N64	N	0.431192	2.091754	0.913584
C65	C	0.569854	1.341734	0.163584
C66	C	0.819854	1.591734	0.413584
C67	C	1.069854	1.841734	0.663584
C68	C	1.319854	2.091734	0.913584
C69	C	0.430177	1.341721	0.163580
C70	C	0.680177	1.591721	0.413580
C71	C	0.930177	1.841721	0.663580
C72	C	1.180177	2.091721	0.913580
C73	C	0.000022	1.549192	0.156572
C74	C	0.250022	1.799192	0.406572
C75	C	0.500022	2.049192	0.656572
C76	C	0.750022	2.299192	0.906572
C77	C	0.000017	1.675206	0.159587
C78	C	0.250017	1.925206	0.409587
C79	C	0.500017	2.175206	0.659587
C80	C	0.750017	2.425206	0.909587
C81	C	0.000017	1.905918	0.165130
C82	C	0.250017	2.155918	0.415130
C83	C	0.500017	2.405918	0.665130
C84	C	0.750017	2.655918	0.915130
C85	C	0.000017	1.777533	0.162050
C86	C	0.250017	2.027533	0.412050
C87	C	0.500017	2.277533	0.662050
C88	C	0.750017	2.527533	0.912050
C89	C	0.000006	1.340183	-0.400606
C90	C	0.250006	1.590183	-0.150606
C91	C	0.500006	1.840183	0.099394
C92	C	0.750006	2.090183	0.349394
C93	C	0.000018	1.343262	-0.272221
C94	C	0.250018	1.593262	-0.022221
C95	C	0.500018	1.843262	0.227779
C96	C	0.750018	2.093262	0.477779
C97	C	0.000009	1.334721	0.371043
C98	C	0.250009	1.584721	0.621043
C99	C	0.500009	1.834721	0.871043
C100	C	0.750009	2.084721	1.121043
C101	C	0.000002	1.337736	0.497057
C102	C	0.250002	1.587736	0.747057
C103	C	0.500002	1.837736	0.997057
C104	C	0.750002	2.087736	1.247057
