data_functionalizedCrystal
_audit_creation_method	'MofGen! by Chris Wilmer'
_symmetry_space_group_name_H-M	'P1'
_symmetry_Int_Tables_number	1
_symmetry_cell_setting	triclinic
loop_
_symmetry_equiv_pos_as_xyz
  x,y,z
_cell_length_a	27.440280
_cell_length_b	12.477989
_cell_length_c	12.477989
_cell_angle_alpha	60.281571
_cell_angle_beta	89.994677
_cell_angle_gamma	55.719673
loop_
_atom_site_label
_atom_site_type_symbol
_atom_site_fract_x
_atom_site_fract_y
_atom_site_fract_z
Zr1	Zr	0.432239	1.186903	-0.067902
O2	O	0.342157	1.433312	-0.234518
O3	O	0.464113	0.957079	-0.027652
O4	O	0.449974	1.210799	-0.250142
O5	O	0.362604	1.154958	0.175792
O6	O	0.530176	1.210783	-0.250150
O7	O	0.356296	1.179592	-0.012028
O8	O	0.555469	0.756923	0.147843
O9	O	0.337311	1.608818	-0.222201
O10	O	0.532415	1.045454	0.002589
O11	O	0.477269	1.027083	0.142763
O12	O	0.460621	1.325806	-0.119190
O13	O	0.405475	1.307434	0.020984
Zr14	Zr	0.570213	1.147590	0.231637
Zr15	Zr	0.560152	1.186877	-0.067914
Zr16	Zr	0.442299	1.147616	0.231650
Zr17	Zr	0.424511	1.466814	-0.048258
Zr18	Zr	0.577941	0.867678	0.211994
O19	O	0.538338	1.377414	0.191387
O20	O	0.524033	1.433275	-0.234536
O21	O	0.356462	1.377450	0.191406
O22	O	0.660294	0.901181	0.398253
O23	O	0.645989	0.957042	-0.027670
O24	O	0.478418	0.901217	0.398271
O25	O	0.639847	1.179534	-0.012057
O26	O	0.552478	1.123693	0.413877
O27	O	0.472275	1.123710	0.413885
O28	O	0.646155	1.154901	0.175763
O29	O	0.438985	1.608797	-0.222212
O30	O	0.563466	0.725695	0.385947
O31	O	0.665140	0.725675	0.385937
O32	O	0.657143	0.756903	0.147833
O33	O	0.345308	1.577590	0.015902
O34	O	0.446982	1.577569	0.015892
O35	O	0.541830	1.008687	0.282925
O36	O	0.596977	1.027058	0.142751
O37	O	0.525183	1.307410	0.020972
O38	O	0.470036	1.289038	0.161146
C39	C	0.510892	0.817120	0.057297
C40	C	0.514173	0.698290	0.048958
C41	C	0.341226	1.167279	0.081884
C42	C	0.286923	1.167290	0.081889
C43	C	-0.053248	1.180784	-0.021609
C44	C	-0.104266	1.180773	-0.021610
O45	O	-0.133594	1.192254	-0.109583
N46	N	-0.126309	1.167205	0.081860
C47	C	-0.097327	1.153631	0.185346
O48	O	-0.120760	1.142088	0.273356
C49	C	-0.046307	1.153630	0.185351
C50	C	-0.024272	1.167215	0.081867
C51	C	-0.031212	1.194366	-0.125083
C52	C	0.019802	1.194379	-0.125083
C53	C	0.048778	1.180811	-0.021607
C54	C	0.026742	1.167229	0.081868
C55	C	-0.017323	1.140044	0.288840
C56	C	0.033700	1.140044	0.288837
C57	C	0.055736	1.153629	0.185353
C58	C	0.106732	1.153674	0.185344
N59	N	0.128775	1.167242	0.081874
C60	C	0.099798	1.180810	-0.021602
C61	C	-0.204471	1.153631	0.185328
C62	C	-0.255493	1.153643	0.185319
C63	C	-0.262428	1.180782	-0.021636
C64	C	-0.211408	1.180781	-0.021631
C65	C	-0.182428	1.167198	0.081858
C66	C	0.206930	1.180839	-0.021593
C67	C	0.257946	1.180858	-0.021586
C68	C	0.264879	1.153711	0.185371
C69	C	0.213865	1.153700	0.185361
C70	C	0.184892	1.167260	0.081872
O71	O	0.136092	1.142192	0.273275
O72	O	0.123243	1.192330	-0.109588
C73	C	0.661226	1.167214	0.081852
C74	C	0.715528	1.167203	0.081846
C75	C	0.488641	1.216389	-0.292825
C76	C	0.484370	1.233067	-0.419993
C77	C	0.491559	1.517373	0.106438
C78	C	0.488278	1.636202	0.114777
C79	C	0.513810	1.118104	0.456561
C80	C	0.518081	1.101425	0.583728
C81	C	0.670892	0.817087	0.057281
C82	C	0.728475	0.698247	0.048936
C83	C	0.523477	0.767977	0.431990
C84	C	0.531028	0.632469	0.550818
C85	C	0.683477	0.767945	0.431974
C86	C	0.745331	0.632426	0.550797
C87	C	0.318975	1.566547	-0.268239
C88	C	0.257120	1.702067	-0.387062
C89	C	0.331559	1.517405	0.106454
C90	C	0.273976	1.636246	0.114799
C91	C	0.478975	1.566515	-0.268255
C92	C	0.471423	1.702023	-0.387083
C93	C	0.721816	0.652042	-0.028158
C94	C	0.775916	0.540397	-0.036025
C95	C	0.836674	0.474951	0.033210
C96	C	0.843332	0.521167	0.110307
C97	C	0.789233	0.632818	0.118166
C98	C	0.803170	0.578374	0.533428
C99	C	0.861292	0.451057	0.645064
C100	C	0.861575	0.377785	0.774068
C101	C	0.803730	0.431848	0.791435
C102	C	0.745609	0.559171	0.679800
C103	C	0.199281	1.756132	-0.369692
C104	C	0.141158	1.883484	-0.481326
C105	C	0.140874	1.956761	-0.610329
C106	C	0.198720	1.902691	-0.627696
C107	C	0.256842	1.775349	-0.516063
C108	C	0.280634	1.682464	0.191881
C109	C	0.226533	1.794143	0.199718
C110	C	0.165774	1.859594	0.130479
C111	C	0.159117	1.813373	0.053387
C112	C	0.213217	1.701704	0.045543
H113	H	0.183347	1.191878	-0.105863
C114	C	0.320464	1.715877	-0.535184
C115	C	0.320145	1.796487	-0.677090
C116	C	0.383765	1.737027	-0.696222
C117	C	0.447704	1.596957	-0.573449
C118	C	0.448026	1.516338	-0.431533
C119	C	0.384406	1.575798	-0.412401
H120	H	0.272811	1.900184	-0.767983
H121	H	0.383526	1.796707	-0.801278
H122	H	0.494800	1.552940	-0.587612
H123	H	0.495360	1.412642	-0.340640
H124	H	0.384644	1.516118	-0.307345
H125	H	0.330103	1.629180	0.248275
H126	H	0.452234	1.358539	-0.520474
H127	H	0.672348	0.705330	-0.084556
H128	H	0.572046	0.501840	0.590829
C129	C	0.092280	1.885357	-0.022754
C130	C	0.032779	2.008165	-0.014096
C131	C	-0.034058	2.080138	-0.090223
C132	C	-0.041394	2.029303	-0.175009
C133	C	0.018109	1.906488	-0.183671
C134	C	0.084946	1.834515	-0.107543
H135	H	0.038207	2.045802	0.048671
H136	H	-0.078106	2.171054	-0.083811
H137	H	-0.090871	2.082582	-0.231363
H138	H	0.012681	1.868851	-0.246437
H139	H	0.128994	1.743599	-0.113956
H140	H	0.094064	1.927485	-0.467159
H141	H	0.892809	0.467865	0.166675
H142	H	0.550208	0.975962	-0.315800
H143	H	0.231966	1.831756	0.262499
C144	C	0.189621	1.138770	0.299189
C145	C	0.235210	0.988168	0.445108
C146	C	0.210976	0.973219	0.558946
C147	C	0.141152	1.108874	0.526865
C148	C	0.095558	1.259487	0.380939
C149	C	0.119792	1.274435	0.267101
H150	H	0.286902	0.887739	0.468863
H151	H	0.244728	0.861725	0.666970
H152	H	0.123213	1.097808	0.611135
H153	H	0.043866	1.359915	0.357184
H154	H	0.086040	1.385929	0.159077
H155	H	0.121727	1.950521	0.136877
C156	C	0.434453	0.840389	0.556207
C157	C	0.364654	0.911943	0.507359
C158	C	0.309238	1.088408	0.453306
C159	C	0.323621	1.193319	0.448100
C160	C	0.393423	1.121767	0.496949
C161	C	0.448840	0.945302	0.551002
H162	H	0.354004	0.834280	0.511212
H163	H	0.257565	1.141375	0.417145
H164	H	0.282598	1.323949	0.408087
H165	H	0.404073	1.199430	0.493097
H166	H	0.500512	0.892335	0.587163
H167	H	0.770482	0.502783	-0.098806
H168	H	0.207787	1.664077	-0.017222
H169	H	0.198481	1.962370	-0.732744
H170	H	0.538849	0.660546	-0.013780
C171	C	0.796565	0.683613	0.202995
C172	C	0.863402	0.611600	0.279158
C173	C	0.870740	0.662386	0.363994
C174	C	0.811242	0.785185	0.372666
C175	C	0.744401	0.857205	0.296500
C176	C	0.737063	0.806420	0.211665
H177	H	0.907450	0.520690	0.272741
H178	H	0.920221	0.609071	0.420376
H179	H	0.816675	0.822780	0.435466
H180	H	0.700353	0.948115	0.302918
H181	H	0.687582	0.859735	0.155282
C182	C	0.924915	0.391599	0.625937
C183	C	0.943206	0.324909	0.543758
C184	C	1.006826	0.265456	0.524626
C185	C	1.052155	0.272694	0.587674
C186	C	1.033865	0.339387	0.669859
C187	C	0.970245	0.398840	0.688990
H188	H	0.909650	0.319548	0.497081
H189	H	1.020365	0.216085	0.463787
H190	H	1.099251	0.228684	0.573511
H191	H	1.067421	0.344748	0.716535
H192	H	0.956706	0.448211	0.749830
H193	H	0.463594	0.673966	0.177507
H194	H	0.275885	1.191925	-0.105860
H195	H	0.880720	0.384038	0.026801
C196	C	0.681988	0.618601	0.698920
C197	C	0.663690	0.685265	0.781118
C198	C	0.600072	0.744684	0.800251
C199	C	0.554751	0.737439	0.737185
C200	C	0.573048	0.670772	0.654981
C201	C	0.636666	0.611353	0.635848
H202	H	0.697241	0.690630	0.827809
H203	H	0.586528	0.794035	0.861104
H204	H	0.507657	0.781425	0.751347
H205	H	0.539498	0.665407	0.608290
H206	H	0.650210	0.562002	0.574995
H207	H	0.037741	1.205435	-0.209345
H208	H	-0.035257	1.128981	0.373107
H209	H	-0.054799	1.205410	-0.209347
H210	H	-0.193469	1.191842	-0.105896
H211	H	-0.286029	1.191827	-0.105890
H212	H	-0.273437	1.142606	0.269574
H213	H	-0.180881	1.142582	0.269599
H214	H	0.093543	2.060450	-0.701216
H215	H	0.057294	1.128978	0.373114
H216	H	0.802951	0.638015	0.428396
H217	H	0.288478	1.142670	0.269617
H218	H	0.803970	0.372172	0.896484
H219	H	0.908906	0.274112	0.864956
H220	H	0.199500	1.696476	-0.264661
