data_functionalizedCrystal
_audit_creation_method	'MofGen! by Chris Wilmer'
_symmetry_space_group_name_H-M	'P1'
_symmetry_Int_Tables_number	1
_symmetry_cell_setting	triclinic
loop_
_symmetry_equiv_pos_as_xyz
  x,y,z
_cell_length_a	16.120444
_cell_length_b	16.120542
_cell_length_c	11.169409
_cell_angle_alpha	87.078149
_cell_angle_beta	87.138527
_cell_angle_gamma	89.835691
loop_
_atom_site_label
_atom_site_type_symbol
_atom_site_fract_x
_atom_site_fract_y
_atom_site_fract_z
Zn1	Zn	-0.395619	-1.254504	0.798975
Zn2	Zn	-0.062285	-0.921170	1.132308
Zn3	Zn	0.271048	-0.587837	1.465641
Zn4	Zn	-0.534698	-1.247336	0.607898
Zn5	Zn	-0.201364	-0.914002	0.941232
Zn6	Zn	0.131969	-0.580669	1.274565
Zn7	Zn	-0.388597	-1.115434	0.587641
Zn8	Zn	-0.055264	-0.782100	0.920975
Zn9	Zn	0.278070	-0.448767	1.254308
Zn10	Zn	-0.527562	-1.108353	0.797873
Zn11	Zn	-0.194228	-0.775020	1.131207
Zn12	Zn	0.139105	-0.441687	1.464540
O13	O	-0.461619	-1.181407	0.698097
O14	O	-0.128285	-0.848073	1.031430
O15	O	0.205048	-0.514740	1.364764
O16	O	-0.419993	-1.369919	0.782566
O17	O	-0.086659	-1.036585	1.115900
O18	O	0.246674	-0.703252	1.449233
O19	O	-0.515365	-1.229802	0.437262
O20	O	-0.182031	-0.896468	0.770595
O21	O	0.151302	-0.563135	1.103929
O22	O	-0.273166	-1.139845	0.607658
O23	O	0.060167	-0.806511	0.940992
O24	O	0.393501	-0.473178	1.274325
O25	O	-0.522174	-1.364652	0.642183
O26	O	-0.188840	-1.031319	0.975517
O27	O	0.144493	-0.697986	1.308850
O28	O	-0.278325	-1.242019	0.762924
O29	O	0.055008	-0.908685	1.096257
O30	O	0.388342	-0.575352	1.429591
O31	O	-0.408025	-1.132894	0.422379
O32	O	-0.074692	-0.799561	0.755713
O33	O	0.258641	-0.466227	1.089046
O34	O	-0.401106	-0.998129	0.606591
O35	O	-0.067773	-0.664795	0.939924
O36	O	0.265561	-0.331462	1.273257
O37	O	-0.510011	-1.127777	0.965969
O38	O	-0.176678	-0.794444	1.299302
O39	O	0.156655	-0.461111	1.632635
O40	O	-0.503203	-0.992927	0.761047
O41	O	-0.169869	-0.659593	1.094381
O42	O	0.163464	-0.326260	1.427714
O43	O	-0.413073	-1.235153	0.966778
O44	O	-0.079740	-0.901820	1.300111
O45	O	0.253593	-0.568487	1.633444
O46	O	-0.650113	-1.222936	0.641116
O47	O	-0.316780	-0.889603	0.974449
O48	O	0.016553	-0.556270	1.307782
O49	O	-0.644871	-1.120827	0.780690
O50	O	-0.311537	-0.787493	1.114023
O51	O	0.021796	-0.454160	1.447356
C52	C	-0.450619	-0.965355	0.681502
C53	C	-0.117285	-0.632022	1.014835
C54	C	0.216048	-0.298689	1.348169
C55	C	-0.445933	-0.872927	0.674433
C56	C	-0.112599	-0.539593	1.007766
C57	C	0.220734	-0.206260	1.341099
C58	C	-0.677664	-1.170358	0.713009
C59	C	-0.344331	-0.837025	1.046342
C60	C	-0.010998	-0.503691	1.379676
C61	C	-0.770094	-1.165707	0.719435
C62	C	-0.436760	-0.832374	1.052768
C63	C	-0.103427	-0.499041	1.386101
C64	C	-0.485901	-0.659959	0.734701
C65	C	-0.152568	-0.326626	1.068034
C66	C	0.180765	0.006708	1.401368
C67	C	-0.437385	-0.703703	0.661524
C68	C	-0.104052	-0.370369	0.994858
C69	C	0.229282	-0.037036	1.328191
C70	C	-0.442142	-0.797868	0.668709
C71	C	-0.108809	-0.464534	1.002042
C72	C	0.224524	-0.131201	1.335375
C73	C	-0.481145	-0.565786	0.727518
C74	C	-0.147812	-0.232452	1.060852
C75	C	0.185522	0.100881	1.394185
C76	C	-0.983075	-1.205735	0.665038
C77	C	-0.649742	-0.872402	0.998372
C78	C	-0.316409	-0.539069	1.331705
C79	C	-0.939319	-1.157232	0.731180
C80	C	-0.605985	-0.823899	1.064513
C81	C	-0.272652	-0.490565	1.397846
C82	C	-0.845153	-1.161949	0.724643
C83	C	-0.511820	-0.828616	1.057976
C84	C	-0.178486	-0.495282	1.391309
C85	C	-1.077249	-1.201019	0.671574
C86	C	-0.743916	-0.867686	1.004907
C87	C	-0.410583	-0.534353	1.338241
C88	C	-0.244730	-1.192521	0.683155
C89	C	0.088603	-0.859188	1.016488
C90	C	0.421936	-0.525854	1.349821
C91	C	-0.152306	-1.197257	0.676787
C92	C	0.181028	-0.863924	1.010120
C93	C	0.514361	-0.530591	1.343454
C94	C	-0.461530	-1.181475	1.011138
C95	C	-0.128196	-0.848142	1.344471
C96	C	0.205137	-0.514808	1.677805
C97	C	-0.461492	-1.181504	1.144537
C98	C	-0.128158	-0.848171	1.477871
C99	C	0.205175	-0.514838	1.811204
C100	C	-0.472658	-0.398302	0.714740
C101	C	-0.139325	-0.064968	1.048074
C102	C	0.194009	0.268365	1.381407
C103	C	-0.477351	-0.490730	0.721789
C104	C	-0.144018	-0.157397	1.055122
C105	C	0.189316	0.175937	1.388456
C106	C	-0.461650	-1.181389	0.386273
C107	C	-0.128317	-0.848056	0.719606
C108	C	0.205017	-0.514723	1.052940
C109	C	-0.461462	-1.181533	0.252871
C110	C	-0.128128	-0.848200	0.586204
C111	C	0.205205	-0.514866	0.919537
H112	H	-0.392276	-0.670433	0.593480
H113	H	-0.058943	-0.337100	0.926813
H114	H	0.274390	-0.003766	1.260147
H115	H	-0.531007	-0.693227	0.802739
H116	H	-0.197674	-0.359893	1.136072
H117	H	0.135660	-0.026560	1.469406
H118	H	-0.949820	-1.250799	0.603507
H119	H	-0.616487	-0.917466	0.936840
H120	H	-0.283154	-0.584133	1.270174
H121	H	-0.972578	-1.112164	0.792714
H122	H	-0.639244	-0.778831	1.126047
H123	H	-0.305911	-0.445497	1.459381
