data_functionalizedCrystal
_audit_creation_method	'MofGen! by Chris Wilmer'
_symmetry_space_group_name_H-M	'P1'
_symmetry_Int_Tables_number	1
_symmetry_cell_setting	triclinic
loop_
_symmetry_equiv_pos_as_xyz
  x,y,z
_cell_length_a	15.995350
_cell_length_b	10.489741
_cell_length_c	15.072220
_cell_angle_alpha	89.999236
_cell_angle_beta	89.991149
_cell_angle_gamma	84.015774
loop_
_atom_site_label
_atom_site_type_symbol
_atom_site_fract_x
_atom_site_fract_y
_atom_site_fract_z
O1	O	1.111987	0.164400	-0.073707
O2	O	0.868334	0.184702	-0.073725
O3	O	0.995705	-0.011125	-0.073710
O4	O	0.984616	0.360226	-0.073722
O5	O	0.995673	-0.011114	0.073855
O6	O	0.868303	0.184713	0.073840
O7	O	1.111955	0.164411	0.073858
Zn8	Zn	0.990124	0.174563	0.097278
Zn9	Zn	0.990166	0.174549	-0.097145
O10	O	0.984585	0.360237	0.073844
C11	C	0.837119	0.183868	0.000055
C12	C	0.744153	0.181352	0.000048
C13	C	0.406351	0.172315	0.000067
C14	C	0.452944	0.032851	0.000401
C15	C	0.549650	0.035368	0.000062
C16	C	0.573939	0.176797	0.000058
C17	C	0.533284	0.245580	-0.084207
C18	C	0.436628	0.242076	-0.084271
C19	C	0.436270	0.244970	0.083538
C20	C	0.533215	0.244937	0.084645
C21	C	0.668651	0.179338	0.000050
C22	C	0.311638	0.169778	0.000069
C23	C	0.994852	-0.058639	0.000072
C24	C	0.992346	-0.200234	0.000070
C25	C	0.911304	-0.267240	0.000057
C26	C	0.949572	-0.359892	0.072818
C27	C	0.949622	-0.359878	-0.072670
C28	C	1.030647	-0.291022	0.072890
C29	C	1.030686	-0.290997	-0.072663
C30	C	1.069013	-0.383624	0.000115
C31	C	1.143171	0.165244	0.000076
C32	C	1.236137	0.167761	0.000077
C33	C	0.985438	0.407752	0.000060
C34	C	0.987944	0.549346	0.000056
N35	N	0.990102	0.174572	0.229967
N36	N	0.990195	0.174530	-0.229834
C37	C	0.990164	0.174544	0.589169
C38	C	0.921777	0.278976	0.551554
C39	C	0.921938	0.279357	0.448728
C40	C	0.990132	0.174558	0.410965
C41	C	1.077672	0.203626	0.448261
C42	C	1.077290	0.204368	0.551119
C43	C	0.971788	0.040735	0.551272
C44	C	0.969788	0.041628	0.448408
C45	C	0.990120	0.174564	0.310251
C46	C	0.990182	0.174541	0.689882
H47	H	0.548036	0.349484	-0.087343
H48	H	0.418030	0.191908	-0.147259
N49	N	1.073613	-0.252930	0.150139
N50	N	1.082446	-0.137296	0.162628
H51	H	1.112788	-0.110389	0.217185
N52	N	0.936407	0.402851	0.583944
N53	N	0.950050	0.489640	0.530673
H54	H	0.960384	0.577128	0.553548
N55	N	0.827712	-0.203794	0.000145
N56	N	0.778787	-0.221790	0.062519
H57	H	0.719752	-0.176981	0.062584
H58	H	0.915334	-0.390367	-0.134189
N59	N	0.840342	0.257667	0.417074
N60	N	0.826499	0.254251	0.335534
H61	H	0.768867	0.238940	0.313180
H62	H	0.856525	0.261942	0.576311
H63	H	0.434073	-0.022892	0.060831
H64	H	0.933756	0.378654	0.424112
N65	N	0.427949	-0.036798	-0.074965
N66	N	0.393508	-0.137324	-0.064282
H67	H	0.375848	-0.186512	-0.117508
N68	N	0.906531	-0.398182	0.149976
N69	N	0.831526	-0.356016	0.162934
H70	H	0.801123	-0.383054	0.217424
N71	N	0.410141	0.187798	0.163668
N72	N	0.333701	0.182494	0.178544
H73	H	0.315245	0.142107	0.235132
N74	N	1.034329	-0.056777	0.581775
N75	N	1.079410	-0.121961	0.527148
H76	H	1.123582	-0.190822	0.548694
H77	H	1.135706	-0.433981	0.000160
N78	N	0.584196	-0.032929	-0.075847
N79	N	0.536873	-0.082595	-0.128743
H80	H	0.561270	-0.130831	-0.182358
H81	H	1.064961	-0.260437	-0.134174
H82	H	1.093361	0.301954	0.575099
H83	H	0.404997	0.344468	-0.088098
N84	N	0.584882	-0.032472	0.075837
N85	N	0.538054	-0.082015	0.129342
H86	H	0.562933	-0.129939	0.182858
N87	N	1.143097	0.112573	0.582325
N88	N	1.189163	0.048171	0.528136
H89	H	1.235642	-0.016655	0.550170
H90	H	0.561384	0.197798	-0.146917
N91	N	1.143073	0.110737	0.417573
N92	N	1.125853	0.021867	0.367750
H93	H	1.172041	-0.043740	0.346075
N94	N	0.567076	0.181922	0.162844
N95	N	0.621002	0.087181	0.156373
H96	H	0.644922	0.042673	0.211600
N97	N	0.553274	0.374318	0.091022
N98	N	0.598107	0.418612	0.033066
H99	H	0.612274	0.509992	0.037562
N100	N	1.098300	0.324659	0.415960
N101	N	1.165949	0.365383	0.438223
H102	H	1.180513	0.450867	0.415413
N103	N	0.893372	0.005712	0.583841
N104	N	0.850075	0.078956	0.635387
H105	H	0.794688	0.054238	0.658386
H106	H	0.905389	0.019568	0.424032
H107	H	1.016301	-0.039726	0.422705
N108	N	0.397202	0.373961	0.084240
N109	N	0.347529	0.412365	0.023599
H110	H	0.319933	0.503462	0.024088
