data_functionalizedCrystal
_audit_creation_method	'MofGen! by Chris Wilmer'
_symmetry_space_group_name_H-M	'P1'
_symmetry_Int_Tables_number	1
_symmetry_cell_setting	triclinic
loop_
_symmetry_equiv_pos_as_xyz
  x,y,z
_cell_length_a	18.101398
_cell_length_b	18.101397
_cell_length_c	18.101390
_cell_angle_alpha	89.964458
_cell_angle_beta	89.975319
_cell_angle_gamma	90.015732
loop_
_atom_site_label
_atom_site_type_symbol
_atom_site_fract_x
_atom_site_fract_y
_atom_site_fract_z
Zn1	Zn	1.132178	-0.294895	-0.418825
Zn2	Zn	1.632178	0.205105	0.081175
Zn3	Zn	1.132096	-0.418752	-0.294978
Zn4	Zn	1.632096	0.081248	0.205022
Zn5	Zn	1.008337	-0.294918	-0.294986
Zn6	Zn	1.508337	0.205082	0.205014
Zn7	Zn	1.008311	-0.418689	-0.418767
Zn8	Zn	1.508311	0.081311	0.081233
O9	O	1.070231	-0.356813	-0.356889
O10	O	1.570231	0.143187	0.143111
O11	O	1.235800	-0.311341	-0.402418
O12	O	1.735800	0.188659	0.097582
O13	O	1.115656	-0.402361	-0.191346
O14	O	1.615656	0.097639	0.308654
O15	O	1.024809	-0.191282	-0.311442
O16	O	1.524809	0.308718	0.188558
O17	O	1.235740	-0.402338	-0.311428
O18	O	1.735740	0.097662	0.188572
O19	O	1.115795	-0.191265	-0.402426
O20	O	1.615795	0.308735	0.097574
O21	O	1.024730	-0.311381	-0.191352
O22	O	1.524730	0.188619	0.308648
O23	O	0.904700	-0.311320	-0.311385
O24	O	1.404700	0.188680	0.188615
O25	O	1.024766	-0.402231	-0.522407
O26	O	1.524766	0.097769	-0.022407
O27	O	0.904682	-0.402254	-0.402326
O28	O	1.404682	0.097746	0.097674
O29	O	1.115771	-0.311280	-0.522450
O30	O	1.615771	0.188720	-0.022450
O31	O	1.115631	-0.522376	-0.311371
O32	O	1.615631	-0.022376	0.188629
O33	O	1.024686	-0.522330	-0.402318
O34	O	1.524686	-0.022330	0.097682
C35	C	0.877820	-0.356783	-0.356850
C36	C	1.377820	0.143217	0.143150
C37	C	0.795506	-0.356788	-0.356851
C38	C	1.295506	0.143212	0.143149
C39	C	0.496415	-0.356835	-0.356914
C40	C	0.996415	0.143165	0.143086
C41	C	0.527727	-0.299336	-0.299975
C42	C	1.027727	0.200664	0.200025
C43	C	0.613345	-0.299490	-0.299732
C44	C	1.113345	0.200510	0.200268
C45	C	0.644798	-0.356811	-0.356883
C46	C	1.144798	0.143189	0.143117
C47	C	0.613694	-0.434824	-0.335555
C48	C	1.113694	0.065176	0.164445
C49	C	0.528049	-0.434505	-0.335159
C50	C	1.028049	0.065495	0.164841
C51	C	0.528026	-0.336998	-0.435314
C52	C	1.028026	0.163002	0.064686
C53	C	0.613677	-0.335261	-0.434886
C54	C	1.113677	0.164739	0.065114
C55	C	0.728657	-0.356802	-0.356867
C56	C	1.228657	0.143198	0.143133
C57	C	0.412556	-0.356848	-0.356928
C58	C	0.912556	0.143152	0.143072
C59	C	1.070167	-0.549224	-0.356853
C60	C	1.570167	-0.049224	0.143147
C61	C	1.070208	-0.631538	-0.356863
C62	C	1.570208	-0.131538	0.143137
C63	C	1.070302	-0.930629	-0.356930
C64	C	1.570302	-0.430629	0.143070
C65	C	1.127363	-0.899302	-0.299555
C66	C	1.627363	-0.399302	0.200445
C67	C	1.127560	-0.813684	-0.299704
C68	C	1.627560	-0.313684	0.200296
C69	C	1.070256	-0.782246	-0.356896
C70	C	1.570256	-0.282246	0.143104
C71	C	1.091412	-0.813249	-0.434959
C72	C	1.591412	-0.313249	0.065041
C73	C	1.091854	-0.898894	-0.434646
C74	C	1.591854	-0.398894	0.065354
C75	C	0.991933	-0.899133	-0.336918
C76	C	1.491933	-0.399133	0.163082
C77	C	0.992321	-0.813484	-0.335175
C78	C	1.492321	-0.313484	0.164825
C79	C	1.070228	-0.698387	-0.356881
C80	C	1.570228	-0.198387	0.143119
C81	C	1.070332	-1.014488	-0.356950
C82	C	1.570332	-0.514488	0.143050
C83	C	1.263392	-0.356844	-0.356928
C84	C	1.763392	0.143156	0.143072
C85	C	1.345707	-0.356857	-0.356945
C86	C	1.845707	0.143143	0.143055
C87	C	1.070275	-0.356746	-0.550051
C88	C	1.570275	0.143254	-0.050051
C89	C	1.070293	-0.356717	-0.632365
C90	C	1.570293	0.143283	-0.132365
C91	C	1.070314	-0.163652	-0.356941
C92	C	1.570314	0.336348	0.143059
C93	C	1.070350	-0.081337	-0.356964
C94	C	1.570350	0.418663	0.143036
C95	C	1.070333	-0.356671	-0.931456
C96	C	1.570333	0.143329	-0.431456
C97	C	1.127780	-0.299648	-0.900158
C98	C	1.627780	0.200352	-0.400158
C99	C	1.127600	-0.299437	-0.814540
C100	C	1.627600	0.200563	-0.314540
C101	C	1.070314	-0.356694	-0.783074
C102	C	1.570314	0.143306	-0.283074
C103	C	0.992293	-0.335484	-0.814141
C104	C	1.492293	0.164516	-0.314141
C105	C	0.992637	-0.335057	-0.899787
C106	C	1.492637	0.164943	-0.399787
C107	C	1.090221	-0.435050	-0.899867
C108	C	1.590221	0.064950	-0.399867
C109	C	1.091933	-0.434650	-0.814217
C110	C	1.591933	0.065350	-0.314217
C111	C	1.070299	-0.356708	-0.699214
C112	C	1.570299	0.143292	-0.199214
C113	C	1.070344	-0.356655	-1.015316
C114	C	1.570344	0.143345	-0.515316
C115	C	1.070229	-0.356827	-0.164479
C116	C	1.570229	0.143173	0.335521
C117	C	1.070354	-0.356648	-0.082165
C118	C	1.570354	0.143352	0.417835
H119	H	0.507146	-0.241309	-0.313197
H120	H	1.007146	0.258691	0.186803
H121	H	0.508040	-0.451326	-0.277844
H122	H	1.008040	0.048674	0.222156
F123	F	0.640086	-0.316627	-0.223799
F124	F	1.140086	0.183373	0.276201
F125	F	0.971465	-0.787006	-0.260089
F126	F	1.471465	-0.287006	0.239911
H127	H	0.506444	-0.281101	-0.454705
H128	H	1.006444	0.218899	0.045295
F129	F	1.166983	-0.455554	-0.787682
F130	F	1.666983	0.044446	-0.287682
H131	H	1.185612	-0.793144	-0.312946
H132	H	1.685612	-0.293144	0.187054
H133	H	1.185454	-0.312720	-0.793536
H134	H	1.685454	0.187280	-0.293536
H135	H	0.634067	-0.478814	-0.375728
H136	H	1.134067	0.021186	0.124272
F137	F	1.203647	-0.316791	-0.927095
F138	F	1.703647	0.183209	-0.427095
H139	H	0.947519	-0.792092	-0.373903
H140	H	1.447519	-0.292092	0.126097
F141	F	1.039884	-0.925978	-0.492422
F142	F	1.539884	-0.425978	0.007578
H143	H	0.507778	-0.378878	-0.477738
H144	H	1.007778	0.121122	0.022262
H145	H	0.972687	-0.920797	-0.280981
H146	H	1.472687	-0.420797	0.219019
F147	F	0.936364	-0.925614	-0.391536
F148	F	1.436364	-0.425614	0.108464
H149	H	1.048383	-0.477538	-0.920111
H150	H	1.548383	0.022462	-0.420111
H151	H	0.948329	-0.375737	-0.793757
H152	H	1.448329	0.124263	-0.293757
F153	F	0.641685	-0.457194	-0.261449
F154	F	1.141685	0.042806	0.238551
H155	H	0.634010	-0.277852	-0.450968
H156	H	1.134010	0.222148	0.049032
H157	H	0.635090	-0.374088	-0.479583
H158	H	1.135090	0.125912	0.020417
F159	F	1.110221	-0.786288	-0.224057
F160	F	1.610221	-0.286288	0.275943
H161	H	1.114781	-0.241908	-0.921697
H162	H	1.614781	0.258092	-0.421697
F163	F	1.166728	-0.924936	-0.456801
F164	F	1.666728	-0.424936	0.043199
H165	H	1.051123	-0.792882	-0.478857
H166	H	1.551123	-0.292882	0.021143
F167	F	0.499551	-0.316270	-0.224486
F168	F	0.999551	0.183730	0.275514
F169	F	0.934782	-0.386971	-0.926848
F170	F	1.434782	0.113029	-0.426848
F171	F	1.110393	-0.223542	-0.787779
F172	F	1.610393	0.276458	-0.287779
F173	F	0.970576	-0.260177	-0.925920
F174	F	1.470576	0.239823	-0.425920
H175	H	0.507335	-0.478797	-0.374821
H176	H	1.007335	0.021203	0.125179
H177	H	1.114287	-0.919949	-0.241500
H178	H	1.614287	-0.419949	0.258500
F179	F	0.969859	-0.261425	-0.786128
F180	F	1.469859	0.238575	-0.286128
F181	F	1.041218	-0.493168	-0.786222
F182	F	1.541218	0.006832	-0.286222
F183	F	1.202827	-0.927364	-0.316664
F184	F	1.702827	-0.427364	0.183336
F185	F	1.165448	-0.785143	-0.457491
F186	F	1.665448	-0.285143	0.042509
H187	H	0.634375	-0.241640	-0.313102
H188	H	1.134375	0.258360	0.186898
F189	F	1.163309	-0.460264	-0.928112
F190	F	1.663309	0.039736	-0.428112
