data_functionalizedCrystal
_audit_creation_method	'MofGen! by Chris Wilmer'
_symmetry_space_group_name_H-M	'P1'
_symmetry_Int_Tables_number	1
_symmetry_cell_setting	triclinic
loop_
_symmetry_equiv_pos_as_xyz
  x,y,z
_cell_length_a	14.971486
_cell_length_b	16.109301
_cell_length_c	14.048226
_cell_angle_alpha	89.992144
_cell_angle_beta	89.998499
_cell_angle_gamma	83.537805
loop_
_atom_site_label
_atom_site_type_symbol
_atom_site_fract_x
_atom_site_fract_y
_atom_site_fract_z
O1	O	1.186791	0.108348	-0.079054
O2	O	0.926372	0.121323	-0.079081
O3	O	1.063735	-0.006187	-0.079057
O4	O	1.049427	0.235857	-0.079078
O5	O	1.063719	-0.006194	0.079264
O6	O	0.926355	0.121315	0.079241
O7	O	1.186774	0.108340	0.079267
Zn8	Zn	1.056562	0.114826	0.104391
Zn9	Zn	1.056584	0.114836	-0.104204
O10	O	1.049411	0.235850	0.079244
C11	C	0.893040	0.120739	0.000077
C12	C	0.793745	0.119000	0.000067
C13	C	1.063147	-0.037166	0.000104
C14	C	1.061410	-0.129464	0.000105
C15	C	0.736412	0.193908	0.000062
C16	C	0.643115	0.192269	0.000076
C17	C	0.607153	0.115721	0.000089
C18	C	0.664494	0.040807	0.000097
C19	C	0.757789	0.042447	0.000089
C20	C	0.470036	0.037395	0.000110
C21	C	0.376734	0.035755	0.000116
C22	C	0.355362	0.187217	0.000097
C23	C	0.448657	0.188857	0.000090
C24	C	0.505991	0.113942	0.000096
C25	C	1.138878	-0.351640	0.000098
C26	C	1.137239	-0.438362	0.000090
C27	C	0.974262	-0.418691	0.000077
C28	C	0.975902	-0.331970	0.000078
C29	C	1.058213	-0.298447	0.000094
C30	C	1.054933	-0.471890	0.000085
C31	C	1.053155	-0.565918	0.000076
C32	C	1.059992	-0.204413	0.000101
C33	C	1.220106	0.108924	0.000108
C34	C	1.319401	0.110663	0.000111
C35	C	1.049999	0.266829	0.000080
C36	C	1.051736	0.359127	0.000073
N37	N	1.056554	0.114819	0.246752
N38	N	1.056599	0.114837	-0.246565
C39	C	1.117397	0.058381	0.296580
C40	C	1.117403	0.058381	0.396238
C41	C	1.056570	0.114823	0.446065
C42	C	0.995719	0.171263	0.396230
C43	C	0.995710	0.171259	0.296574
C44	C	0.995745	0.171269	0.603944
C45	C	0.995756	0.171275	0.703607
C46	C	1.117439	0.058391	0.703608
C47	C	1.117429	0.058387	0.603952
C48	C	1.056580	0.114829	0.554123
H49	H	0.765684	0.256242	0.000051
H50	H	1.166984	0.012434	0.744184
C51	C	0.883725	-0.455565	0.000064
H52	H	0.835918	-0.411463	0.000051
H53	H	0.879689	-0.488994	0.055272
H54	H	0.879705	-0.488978	-0.055156
H55	H	0.910211	-0.288658	0.000072
C56	C	0.337177	-0.048446	0.000136
H57	H	0.384683	-0.092827	0.000151
H58	H	0.301225	-0.052234	-0.055072
H59	H	0.301228	-0.052227	0.055355
C60	C	1.225968	-0.496874	0.000091
H61	H	1.213206	-0.553324	0.000076
H62	H	1.259718	-0.486714	0.055303
H63	H	1.259717	-0.486690	-0.055124
C64	C	0.533102	-0.045009	0.000106
H65	H	0.498324	-0.090834	0.000102
H66	H	0.569950	-0.047528	0.055309
H67	H	0.569931	-0.047507	-0.055118
C68	C	0.928784	0.233306	0.758415
H69	H	0.892518	0.266898	0.714468
H70	H	0.960893	0.267990	0.797309
H71	H	0.891592	0.203281	0.797272
C72	C	1.184315	-0.003707	0.241779
H73	H	1.220545	-0.037324	0.285731
H74	H	1.221533	0.026254	0.202889
H75	H	1.152142	-0.038371	0.202918
C76	C	1.184340	-0.003693	0.451045
H77	H	1.220578	-0.037299	0.407097
H78	H	1.152191	-0.038357	0.489936
H79	H	1.221563	0.026287	0.489906
C80	C	0.820855	-0.039952	0.000086
H81	H	0.786078	-0.085777	0.000084
H82	H	0.857700	-0.042466	0.055291
H83	H	0.857688	-0.042455	-0.055136
H84	H	0.477934	0.251189	0.000070
C85	C	1.229413	-0.314762	0.000107
H86	H	1.218840	-0.255496	0.000117
H87	H	1.262631	-0.333008	-0.055101
H88	H	1.262620	-0.333024	0.055327
H89	H	0.946192	0.217228	0.563377
C90	C	0.928775	0.233325	0.451032
H91	H	0.892524	0.266925	0.407081
H92	H	0.960913	0.267997	0.489911
H93	H	0.891566	0.203331	0.489904
H94	H	0.635206	-0.021520	0.000121
C95	C	0.928786	0.233344	0.241762
H96	H	0.892562	0.266965	0.285709
H97	H	0.891561	0.203378	0.202898
H98	H	0.960950	0.268005	0.202876
H99	H	0.596437	0.253267	0.000071
H100	H	0.308675	0.248215	0.000097
H101	H	1.166969	0.012432	0.563383
