data_functionalizedCrystal
_audit_creation_method	'MofGen! by Chris Wilmer'
_symmetry_space_group_name_H-M	'P1'
_symmetry_Int_Tables_number	1
_symmetry_cell_setting	triclinic
loop_
_symmetry_equiv_pos_as_xyz
  x,y,z
_cell_length_a	18.050591
_cell_length_b	21.295417
_cell_length_c	21.295412
_cell_angle_alpha	89.969332
_cell_angle_beta	89.970494
_cell_angle_gamma	90.026512
loop_
_atom_site_label
_atom_site_type_symbol
_atom_site_fract_x
_atom_site_fract_y
_atom_site_fract_z
Zn1	Zn	1.135344	-0.250692	-0.356012
Zn2	Zn	1.135231	-0.355960	-0.250737
Zn3	Zn	1.011144	-0.250702	-0.250746
Zn4	Zn	1.011106	-0.355920	-0.355958
O5	O	1.073206	-0.303318	-0.303363
O6	O	1.239253	-0.264669	-0.342066
O7	O	1.118739	-0.342019	-0.162649
O8	O	1.027683	-0.162611	-0.264736
O9	O	1.239170	-0.342009	-0.264721
O10	O	1.118932	-0.162604	-0.342074
O11	O	1.027573	-0.264685	-0.162655
O12	O	0.907215	-0.264646	-0.264684
O13	O	1.027617	-0.341940	-0.444055
O14	O	0.907186	-0.341950	-0.341983
O15	O	1.118894	-0.264630	-0.444094
O16	O	1.118702	-0.444044	-0.264669
O17	O	1.027508	-0.444015	-0.341974
C18	C	0.880254	-0.303295	-0.303329
C19	C	0.797708	-0.303300	-0.303329
C20	C	0.598251	-0.261214	-0.261390
C21	C	0.548826	-0.318630	-0.245895
C22	C	0.646578	-0.303319	-0.303357
C23	C	0.548921	-0.245923	-0.318851
C24	C	0.500593	-0.303333	-0.303383
C25	C	0.598240	-0.360765	-0.287832
C26	C	0.598339	-0.288020	-0.360814
C27	C	0.548937	-0.345476	-0.345341
C28	C	0.730676	-0.303311	-0.303340
C29	C	0.416496	-0.303348	-0.303400
C30	C	1.073109	-0.466870	-0.303329
C31	C	1.073135	-0.536838	-0.303335
C32	C	1.120662	-0.569699	-0.263123
C33	C	1.120697	-0.635442	-0.263137
C34	C	1.073191	-0.668321	-0.303356
C35	C	1.025661	-0.635451	-0.343576
C36	C	1.025633	-0.569710	-0.343565
N37	N	1.008225	-0.771583	-0.308144
N38	N	1.008254	-0.834034	-0.308150
C39	C	1.073275	-0.866395	-0.303392
N40	N	1.138267	-0.833946	-0.298616
N41	N	1.138237	-0.771489	-0.298606
C42	C	1.073217	-0.739606	-0.303373
C43	C	1.120843	-0.970542	-0.263194
C44	C	1.120879	-1.036286	-0.263213
C45	C	1.025837	-1.036294	-0.343648
C46	C	1.025808	-0.970552	-0.343633
C47	C	1.073310	-0.937680	-0.303402
C48	C	1.266912	-0.303342	-0.303399
C49	C	1.349457	-0.303353	-0.303414
C50	C	1.073264	-0.303279	-0.467554
C51	C	1.073289	-0.303263	-0.537522
C52	C	1.073324	-0.139128	-0.303412
C53	C	1.073374	-0.069160	-0.303433
C54	C	1.025832	-0.262991	-0.570382
C55	C	1.025829	-0.262979	-0.636124
C56	C	1.073297	-0.303233	-0.669004
C57	C	1.120758	-0.343512	-0.636136
C58	C	1.120754	-0.343527	-0.570395
N59	N	1.138307	-0.308044	-0.772248
N60	N	1.138309	-0.308026	-0.834700
C61	C	1.073311	-0.303191	-0.867079
N62	N	1.008309	-0.298362	-0.834648
N63	N	1.008309	-0.298376	-0.772191
C64	C	1.073306	-0.303221	-0.740290
C65	C	1.025846	-0.262904	-0.971225
C66	C	1.025843	-0.262897	-1.036969
C67	C	1.120778	-0.343427	-1.036979
C68	C	1.120775	-0.343437	-0.971237
C69	C	1.073310	-0.303173	-0.938364
C70	C	1.073191	-0.303312	-0.139812
C71	C	1.073310	-0.303151	-0.069844
H72	H	0.527420	-0.381130	-0.380842
N73	N	0.627169	-0.270850	-0.425146
H74	H	0.609262	-0.227458	-0.436804
H75	H	0.683114	-0.271416	-0.424711
H76	H	0.527079	-0.331580	-0.197315
H77	H	1.159422	-0.376230	-0.944482
N78	N	0.520220	-0.181623	-0.336196
H79	H	0.563351	-0.152320	-0.343662
H80	H	0.489452	-0.184731	-0.375671
N81	N	1.171905	-0.534245	-0.219743
H82	H	1.202022	-0.565042	-0.194274
H83	H	1.206244	-0.506931	-0.245399
N84	N	1.171961	-0.670896	-0.219766
H85	H	1.202049	-0.640096	-0.194280
H86	H	1.141754	-0.698213	-0.190616
H87	H	0.986983	-0.662226	-0.376324
N88	N	0.626804	-0.425087	-0.270403
H89	H	0.608445	-0.456934	-0.301896
H90	H	0.682753	-0.424625	-0.270471
H91	H	0.986930	-0.542954	-0.376311
N92	N	1.171961	-0.386928	-0.671592
H93	H	1.160391	-0.431906	-0.660133
H94	H	1.164744	-0.380755	-0.718214
N95	N	1.172076	-0.935081	-0.219807
H96	H	1.202194	-0.965877	-0.194338
H97	H	1.206415	-0.907759	-0.245455
N98	N	0.974633	-0.219551	-0.671580
H99	H	1.004834	-0.190380	-0.698883
H100	H	0.940217	-0.245178	-0.698794
N101	N	0.974629	-0.219565	-0.534937
H102	H	0.940188	-0.245145	-0.507640
H103	H	1.004878	-0.190408	-0.507718
N104	N	1.172147	-1.071733	-0.219843
H105	H	1.202232	-1.040930	-0.194357
H106	H	1.141944	-1.099053	-0.190693
N107	N	0.974644	-0.219487	-0.935765
H108	H	0.981846	-0.225604	-0.889131
H109	H	0.986233	-0.174528	-0.947277
N110	N	1.171942	-0.386966	-0.534949
H111	H	1.202011	-0.412467	-0.565752
H112	H	1.206328	-0.361353	-0.507696
N113	N	0.974648	-0.219463	-1.072414
H114	H	0.944582	-0.193960	-1.041611
H115	H	1.004901	-0.190333	-1.099715
N116	N	1.171971	-0.386849	-1.072433
H117	H	1.164772	-0.380731	-1.119067
H118	H	1.225018	-0.377062	-1.060967
H119	H	0.987161	-1.063063	-0.376398
H120	H	0.619905	-0.225645	-0.225862
N121	N	0.974541	-0.935103	-0.386999
H122	H	0.944449	-0.965906	-0.412480
H123	H	0.940177	-0.907870	-0.361338
