data_functionalizedCrystal
_audit_creation_method	'MofGen! by Chris Wilmer'
_symmetry_space_group_name_H-M	'P1'
_symmetry_Int_Tables_number	1
_symmetry_cell_setting	triclinic
loop_
_symmetry_equiv_pos_as_xyz
  x,y,z
_cell_length_a	17.639617
_cell_length_b	12.645330
_cell_length_c	17.640968
_cell_angle_alpha	101.231500
_cell_angle_beta	109.666032
_cell_angle_gamma	101.198358
loop_
_atom_site_label
_atom_site_type_symbol
_atom_site_fract_x
_atom_site_fract_y
_atom_site_fract_z
Zn1	Zn	1.354368	0.140214	0.721240
Zn2	Zn	1.326428	-0.082013	0.583403
Zn3	Zn	1.188669	0.050377	0.555514
Zn4	Zn	1.216517	-0.081909	0.693286
O5	O	1.271495	0.006667	0.638361
O6	O	1.466005	0.148289	0.726327
O7	O	1.284806	-0.102091	0.464360
O8	O	1.210687	0.210659	0.577525
O9	O	1.445478	-0.014980	0.625059
O10	O	1.332426	0.276662	0.699283
O11	O	1.183595	-0.004825	0.443870
O12	O	1.077019	-0.004725	0.550418
O13	O	1.258151	-0.014804	0.812338
O14	O	1.097479	-0.101915	0.651639
O15	O	1.359429	0.148389	0.832876
O16	O	1.311810	-0.230364	0.597952
O17	O	1.231059	-0.230288	0.678683
C18	C	1.057342	-0.063058	0.594970
C19	C	0.965730	-0.092906	0.576426
C20	C	0.717916	0.233507	0.779437
C21	C	0.631829	0.205429	0.761996
C22	C	0.610445	0.035592	0.656394
C23	C	0.696532	0.063654	0.673829
C24	C	0.750261	0.162613	0.735351
C25	C	0.728877	-0.007240	0.629742
C26	C	0.814956	0.020822	0.647173
C27	C	0.868690	0.119779	0.708690
C28	C	0.836340	0.190676	0.752782
C29	C	0.675146	-0.106195	0.568216
C30	C	0.707491	-0.177089	0.524130
C31	C	0.793573	-0.149031	0.541564
C32	C	0.847306	-0.050074	0.603082
C33	C	0.825923	-0.219928	0.497473
C34	C	0.912002	-0.191865	0.514904
C35	C	0.933385	-0.022012	0.620513
C36	C	1.271450	-0.268782	0.638333
C37	C	1.271512	-0.386587	0.638364
C38	C	1.322184	-0.554230	0.587426
C39	C	1.322422	-0.431552	0.587625
C40	C	1.312633	-0.394986	0.730014
C41	C	1.313069	-0.517530	0.729777
C42	C	1.179867	-0.589535	0.598502
C43	C	1.179891	-0.467430	0.596639
C44	C	1.486485	0.076664	0.681922
C45	C	1.578101	0.106492	0.700485
C46	C	1.315013	0.076825	0.853350
C47	C	1.333558	0.106722	0.944966
C48	C	1.271567	0.283206	0.638411
C49	C	1.271597	0.401050	0.638433
C50	C	1.228194	-0.063126	0.424217
C51	C	1.209809	-0.092672	0.332635
C52	C	1.130930	-0.219778	1.192819
C53	C	1.148373	-0.191666	1.278909
C54	C	1.253825	-0.021748	1.300283
C55	C	1.236388	-0.049843	1.214193
C56	C	1.174940	-0.148860	1.160467
C57	C	1.280398	0.021075	1.181840
C58	C	1.262965	-0.007021	1.095758
C59	C	1.201522	-0.106035	1.042027
C60	C	1.157507	-0.176956	1.074384
C61	C	1.341850	0.120088	1.235568
C62	C	1.385860	0.191006	1.203216
C63	C	1.368423	0.162915	1.117131
C64	C	1.306980	0.063900	1.063401
C65	C	1.412438	0.233836	1.084774
C66	C	1.395006	0.205740	0.998691
C67	C	1.289548	0.035804	0.977318
H68	H	1.294660	-0.427342	0.520220
C69	C	0.777024	0.342364	0.847120
N70	N	0.821543	0.424352	0.898095
C71	C	1.266752	-0.555406	0.784160
N72	N	1.231874	-0.583926	0.825128
C73	C	1.443418	0.283755	0.963102
N74	N	1.479885	0.342517	0.936296
C75	C	0.963380	0.150648	0.727866
N76	N	1.034701	0.173897	0.742310
H77	H	0.880090	0.271256	0.802882
C78	C	0.580457	-0.137064	0.549045
N79	N	0.509137	-0.160314	0.534607
C80	C	1.221951	-0.073120	0.918214
N81	N	1.171041	-0.155160	0.873698
C82	C	0.596254	0.283423	0.810503
N83	N	0.569460	0.342168	0.847038
H84	H	1.379549	-0.337420	0.761955
H85	H	1.380642	-0.519133	0.761550
C86	C	1.265405	-0.353819	0.783758
N87	N	1.229833	-0.322809	0.824237
C88	C	1.413727	-0.356912	0.625191
N89	N	1.482503	-0.300694	0.653486
C90	C	1.133928	-0.668247	0.508542
N91	N	1.099336	-0.727531	0.440782
C92	C	1.361023	0.150993	1.330262
N93	N	1.375463	0.174271	1.401585
H94	H	0.566687	-0.044978	0.606300
H95	H	1.149203	-0.465053	0.529105
C96	C	1.124298	-0.429031	0.641229
N97	N	1.082429	-0.400106	0.674822
C98	C	1.089910	-0.285880	1.015280
N99	N	1.039001	-0.367920	0.970764
C100	C	0.648381	-0.285943	0.456458
N101	N	0.603860	-0.367935	0.405489
H102	H	1.141960	-0.618791	0.635437
C103	C	1.063333	-0.328702	1.133715
N104	N	1.012423	-0.410742	1.089199
C105	C	0.766809	-0.328775	0.429796
N106	N	0.722285	-0.410761	0.378821
H107	H	1.303858	0.058870	1.344039
H108	H	1.435893	0.271624	1.246971
C109	C	1.480028	0.342752	1.143883
N110	N	1.530935	0.424792	1.188403
C111	C	0.947584	-0.269855	0.466410
N112	N	0.974385	-0.328599	0.429881
H113	H	0.977135	0.058568	0.670613
H114	H	1.294568	-0.609577	0.519871
C115	C	1.412970	-0.561087	0.624666
N116	N	1.481348	-0.566263	0.652712
H117	H	1.187333	-0.128912	0.971934
C118	C	1.099950	-0.269688	1.314492
N119	N	1.063480	-0.328454	1.341293
