data_functionalizedCrystal
_audit_creation_method	'MofGen! by Chris Wilmer'
_symmetry_space_group_name_H-M	'P1'
_symmetry_Int_Tables_number	1
_symmetry_cell_setting	triclinic
loop_
_symmetry_equiv_pos_as_xyz
  x,y,z
_cell_length_a	17.699083
_cell_length_b	14.853567
_cell_length_c	16.176319
_cell_angle_alpha	89.996997
_cell_angle_beta	89.998611
_cell_angle_gamma	83.458972
loop_
_atom_site_label
_atom_site_type_symbol
_atom_site_fract_x
_atom_site_fract_y
_atom_site_fract_z
O1	O	1.004375	0.114008	-0.068624
O2	O	1.504375	0.614008	0.431376
O3	O	0.784035	0.128841	-0.068650
O4	O	1.284035	0.628841	0.431350
O5	O	0.900090	-0.009827	-0.068639
O6	O	1.400090	0.490173	0.431361
O7	O	0.888319	0.252676	-0.068635
O8	O	1.388319	0.752676	0.431365
O9	O	0.900074	-0.009836	0.068855
O10	O	1.400074	0.490164	0.568855
O11	O	0.784019	0.128832	0.068843
O12	O	1.284019	0.628832	0.568843
O13	O	1.004359	0.113999	0.068869
O14	O	1.504359	0.613999	0.568869
Cu15	Cu	0.894187	0.121415	0.081411
Cu16	Cu	1.394187	0.621415	0.581411
Cu17	Cu	0.894206	0.121425	-0.081191
Cu18	Cu	1.394206	0.621425	0.418809
O19	O	0.888303	0.252667	0.068858
O20	O	1.388303	0.752667	0.568858
C21	C	0.755828	0.128305	0.000093
C22	C	1.255828	0.628305	0.500093
C23	C	0.671806	0.126711	0.000083
C24	C	1.171806	0.626711	0.500083
C25	C	0.899549	-0.043418	0.000106
C26	C	1.399549	0.456582	0.500106
C27	C	0.897951	-0.143496	0.000098
C28	C	1.397951	0.356504	0.500098
C29	C	0.623396	0.208106	0.000084
C30	C	1.123396	0.708106	0.500084
C31	C	0.544449	0.206602	0.000095
C32	C	1.044449	0.706602	0.500095
C33	C	0.513913	0.123703	0.000098
C34	C	1.013913	0.623703	0.500098
C35	C	0.562329	0.042301	0.000099
C36	C	1.062329	0.542301	0.500099
C37	C	0.641275	0.043806	0.000095
C38	C	1.141275	0.543806	0.500095
C39	C	0.243950	0.036232	0.000120
C40	C	0.743950	0.536232	0.500120
C41	C	0.164999	0.034734	0.000122
C42	C	0.664999	0.534734	0.500122
C43	C	0.147125	0.199028	0.000120
C44	C	0.647125	0.699028	0.500120
C45	C	0.226070	0.200533	0.000115
C46	C	0.726070	0.700533	0.500115
C47	C	0.274479	0.119132	0.000121
C48	C	0.774479	0.619132	0.500121
C49	C	0.360083	0.120763	0.000111
C50	C	0.860083	0.620763	0.500111
C51	C	0.428311	0.122070	0.000102
C52	C	0.928311	0.622070	0.500102
C53	C	0.822255	-0.555751	0.000105
C54	C	1.322255	-0.055751	0.500105
C55	C	0.960131	-0.577539	0.000121
C56	C	1.460131	-0.077539	0.500121
C57	C	0.961634	-0.483511	0.000117
C58	C	1.461634	0.016489	0.500117
C59	C	0.893446	-0.425598	0.000107
C60	C	1.393446	0.074402	0.500107
C61	C	0.823756	-0.461714	0.000103
C62	C	1.323756	0.038286	0.500103
C63	C	1.031324	-0.447389	0.000129
C64	C	1.531324	0.052611	0.500129
C65	C	1.032829	-0.353355	0.000126
C66	C	1.532829	0.146645	0.500126
C67	C	0.964641	-0.295441	0.000111
C68	C	1.464641	0.204559	0.500111
C69	C	0.894947	-0.331561	0.000105
C70	C	1.394947	0.168439	0.500105
C71	C	0.826759	-0.273648	0.000096
C72	C	1.326759	0.226352	0.500096
C73	C	0.757065	-0.309767	0.000084
C74	C	1.257065	0.190233	0.500084
C75	C	0.755567	-0.403799	0.000088
C76	C	1.255567	0.096201	0.500088
C77	C	0.966139	-0.201409	0.000107
C78	C	1.466139	0.298591	0.500107
C79	C	0.828260	-0.179611	0.000094
C80	C	1.328260	0.320389	0.500094
C81	C	1.032565	0.114535	0.000125
C82	C	1.532565	0.614535	0.500125
C83	C	1.116587	0.116130	0.000129
C84	C	1.616587	0.616130	0.500129
C85	C	0.888844	0.286258	0.000112
C86	C	1.388844	0.786258	0.500112
C87	C	0.890443	0.386336	0.000114
C88	C	1.390443	0.886336	0.500114
N89	N	0.894179	0.121407	0.195776
N90	N	1.394179	0.621407	0.695776
N91	N	0.894220	0.121426	-0.195556
N92	N	1.394220	0.621426	0.304444
C93	C	0.945584	0.060030	0.239045
C94	C	1.445584	0.560030	0.739045
C95	C	0.945588	0.060029	0.325592
C96	C	1.445588	0.560029	0.825592
C97	C	0.894190	0.121410	0.368868
C98	C	1.394190	0.621410	0.868868
C99	C	0.842780	0.182790	0.325593
C100	C	1.342780	0.682790	0.825593
C101	C	0.842773	0.182786	0.239048
C102	C	1.342773	0.682786	0.739048
C103	C	0.842806	0.182807	0.674621
C104	C	1.342806	0.682807	1.174621
C105	C	0.842818	0.182808	0.761173
C106	C	1.342818	0.682808	1.261173
C107	C	0.945621	0.060050	0.761166
C108	C	1.445621	0.560050	1.261166
C109	C	0.945614	0.060046	0.674620
C110	C	1.445614	0.560046	1.174620
C111	C	0.894201	0.121422	0.631353
C112	C	1.394201	0.621422	1.131353
C113	C	0.894197	0.121422	0.537508
C114	C	1.394197	0.621422	1.037508
C115	C	0.894198	0.121416	0.462711
C116	C	1.394198	0.621416	0.962711
H117	H	0.505037	0.272882	0.000095
H118	H	1.005037	0.772882	0.500095
N119	N	1.001059	-0.006149	0.372250
N120	N	1.501059	0.493851	0.872250
H121	H	0.992303	-0.070132	0.357196
H122	H	1.492303	0.429868	0.857196
H123	H	1.054744	0.004269	0.357141
H124	H	1.554744	0.504269	0.857141
H125	H	0.107700	0.265309	0.000120
H126	H	0.607700	0.765309	0.500120
H127	H	0.680690	-0.022475	0.000093
H128	H	1.180690	0.477525	0.500093
N129	N	1.001053	-0.006153	0.627944
N130	N	1.501053	0.493847	1.127944
H131	H	1.033619	-0.045038	0.668488
H132	H	1.533619	0.454962	1.168488
H133	H	0.972035	-0.045967	0.592043
H134	H	1.472035	0.454033	1.092043
N135	N	0.258996	0.289951	0.000114
N136	N	0.758996	0.789951	0.500114
H137	H	0.291354	0.294234	0.051081
H138	H	0.791354	0.794234	0.551081
H139	H	0.291312	0.294191	-0.050890
H140	H	0.791312	0.794191	0.449110
H141	H	1.022883	-0.172005	0.000122
H142	H	1.522883	0.327995	0.500122
H143	H	0.800945	0.232783	0.639400
H144	H	1.300945	0.732783	1.139400
H145	H	0.765511	-0.585163	0.000092
H146	H	1.265511	-0.085163	0.500092
H147	H	0.701546	-0.262602	0.000083
H148	H	1.201546	0.237398	0.500083
N149	N	0.680404	-0.442758	0.000090
N150	N	1.180404	0.057242	0.500090
H151	H	0.637433	-0.391805	0.000082
H152	H	1.137433	0.108195	0.500082
H153	H	0.676783	-0.481302	-0.050877
H154	H	1.176783	0.018698	0.449123
H155	H	0.140140	-0.032777	0.000126
H156	H	0.640140	0.467223	0.500126
N157	N	1.107996	-0.314405	0.000121
N158	N	1.607996	0.185595	0.500121
H159	H	1.098603	-0.246048	0.000114
H160	H	1.598603	0.253952	0.500114
H161	H	1.137836	-0.335596	0.051095
H162	H	1.637836	0.164404	0.551095
H163	H	1.086839	-0.494548	0.000145
H164	H	1.586839	0.005452	0.500145
N165	N	1.001075	-0.006153	0.807833
N166	N	1.501075	0.493847	1.307833
H167	H	0.993281	0.003158	0.869226
H168	H	1.493281	0.503158	1.369226
H169	H	0.992271	-0.070098	0.792709
H170	H	1.492271	0.429902	1.292709
N171	N	0.754716	-0.117143	0.000095
N172	N	1.254716	0.382857	0.500095
H173	H	0.752270	-0.077637	-0.050871
H174	H	1.252270	0.422363	0.449129
H175	H	0.710381	-0.154353	0.000122
H176	H	1.210381	0.345647	0.500122
N177	N	0.787375	0.249010	0.807853
N178	N	1.287375	0.749010	1.307853
H179	H	0.754801	0.287888	0.767311
H180	H	1.254801	0.787888	1.267311
H181	H	0.753893	0.214535	0.843769
H182	H	1.253893	0.714535	1.343769
H183	H	1.015647	-0.624697	0.000135
H184	H	1.515647	-0.124697	0.500135
N185	N	1.001026	-0.006169	0.192371
N186	N	1.501026	0.493831	0.692371
H187	H	1.033590	-0.045052	0.232918
H188	H	1.533590	0.454948	0.732918
H189	H	0.972010	-0.045985	0.156470
H190	H	1.472010	0.454015	0.656470
H191	H	0.800927	0.232765	0.360834
H192	H	1.300927	0.732765	0.860834
H193	H	0.800913	0.232764	0.203819
H194	H	1.300913	0.732764	0.703819
N195	N	0.296148	-0.051567	0.000126
N196	N	0.796148	0.448433	0.500126
H197	H	0.286314	-0.087739	-0.050842
H198	H	0.786314	0.412261	0.449158
H199	H	0.350775	-0.037975	0.000159
H200	H	0.850775	0.462025	0.500159
N201	N	0.656329	0.297520	0.000071
N202	N	1.156329	0.797520	0.500071
H203	H	0.613679	0.348854	0.000074
H204	H	1.113679	0.848854	0.500074
H205	H	0.688698	0.301723	0.051038
H206	H	1.188698	0.801723	0.551038
N207	N	0.529399	-0.047114	0.000116
N208	N	1.029399	0.452886	0.500116
H209	H	0.472041	-0.035718	0.000119
H210	H	0.972041	0.464282	0.500119
H211	H	0.547100	-0.082727	-0.050852
H212	H	1.047100	0.417273	0.449148
