data_functionalizedCrystal
_audit_creation_method	'MofGen! by Chris Wilmer'
_symmetry_space_group_name_H-M	'P1'
_symmetry_Int_Tables_number	1
_symmetry_cell_setting	triclinic
loop_
_symmetry_equiv_pos_as_xyz
  x,y,z
_cell_length_a	14.519709
_cell_length_b	11.026607
_cell_length_c	9.482900
_cell_angle_alpha	78.599815
_cell_angle_beta	99.301351
_cell_angle_gamma	96.133081
loop_
_atom_site_label
_atom_site_type_symbol
_atom_site_fract_x
_atom_site_fract_y
_atom_site_fract_z
O1	O	-1.261291	-0.140186	-0.120696
O2	O	-0.761291	0.359814	0.379304
O3	O	-0.995906	-0.158920	-0.120740
O4	O	-0.495906	0.341080	0.379260
O5	O	-1.106603	0.027148	-0.120716
O6	O	-0.606603	0.527148	0.379284
O7	O	-1.150594	-0.326254	-0.120720
O8	O	-0.650594	0.173746	0.379280
O9	O	-1.084143	-0.010799	0.121071
O10	O	-0.584143	0.489201	0.621071
O11	O	-0.973446	-0.196866	0.121048
O12	O	-0.473446	0.303134	0.621048
O13	O	-1.238831	-0.178133	0.121091
O14	O	-0.738831	0.321867	0.621091
Cu15	Cu	-1.104088	-0.190964	0.143147
Cu16	Cu	-0.604088	0.309036	0.643147
Cu17	Cu	-1.130649	-0.146088	-0.142795
Cu18	Cu	-0.630649	0.353912	0.357205
O19	O	-1.128134	-0.364200	0.121068
O20	O	-0.628134	0.135800	0.621068
C21	C	-1.087258	0.053403	0.000174
C22	C	-0.587258	0.553403	0.500174
C23	C	-1.063067	0.188171	0.000165
C24	C	-0.563067	0.688171	0.500165
C25	C	-0.950173	-0.177018	0.000148
C26	C	-0.450173	0.322982	0.500148
C27	C	-0.847362	-0.174399	0.000132
C28	C	-0.347362	0.325601	0.500132
C29	C	-1.284565	-0.160033	0.000200
C30	C	-0.784565	0.339967	0.500200
C31	C	-1.387377	-0.162652	0.000207
C32	C	-0.887377	0.337348	0.500207
C33	C	-0.470873	-0.164774	0.000198
C34	C	0.029127	0.335226	0.500198
C35	C	-0.575623	-0.167447	0.000179
C36	C	-0.075623	0.332553	0.500179
C37	C	-0.659114	-0.169586	0.000163
C38	C	-0.159114	0.330414	0.500163
C39	C	-0.763871	-0.172260	0.000147
C40	C	-0.263871	0.327740	0.500147
C41	C	-1.147479	-0.390455	0.000174
C42	C	-0.647479	0.109545	0.500174
C43	C	-1.171672	-0.525222	0.000174
C44	C	-0.671672	-0.025222	0.500174
N45	N	-1.085413	-0.222527	0.344263
N46	N	-0.585413	0.277473	0.844263
C47	C	-1.129865	0.261831	0.000174
C48	C	-0.629865	0.761831	0.500174
C49	C	-1.104864	0.401121	0.000165
C50	C	-0.604864	0.901121	0.500165
N51	N	-1.149330	-0.114516	-0.343911
N52	N	-0.649330	0.385484	0.156089
C53	C	-1.125134	-0.155391	0.416471
C54	C	-0.625134	0.344609	0.916471
C55	C	-1.109604	-0.181661	0.583885
C56	C	-0.609604	0.318339	1.083885
H57	H	-1.029161	0.441174	0.000143
H58	H	-0.529161	0.941174	0.500143
N59	N	-1.224837	0.211617	0.000182
N60	N	-0.724837	0.711617	0.500182
N61	N	-1.286462	0.251228	-0.101727
N62	N	-0.786462	0.751228	0.398273
H63	H	-1.353539	0.215770	-0.101722
H64	H	-0.853539	0.715770	0.398278
N65	N	-1.206408	-0.018001	0.578158
N66	N	-0.706408	0.481999	1.078158
N67	N	-1.218940	0.003210	0.442272
N68	N	-0.718940	0.503210	0.942272
H69	H	-1.259249	0.071374	0.387231
H70	H	-0.759249	0.571374	0.887231
N71	N	-1.266637	0.424526	0.000210
N72	N	-0.766637	0.924526	0.500210
N73	N	-1.288003	0.341019	0.102139
N74	N	-0.788003	0.841019	0.602139
H75	H	-1.355071	0.305526	0.102168
H76	H	-0.855071	0.805526	0.602168
N77	N	-0.968105	0.238430	0.000163
N78	N	-0.468105	0.738430	0.500163
N79	N	-0.927804	0.289958	0.102075
N80	N	-0.427804	0.789958	0.602075
H81	H	-0.860735	0.325453	0.102075
H82	H	-0.360735	0.825453	0.602075
H83	H	-1.170633	-0.078461	0.354352
H84	H	-0.670633	0.421539	0.854352
H85	H	-1.039905	-0.299448	0.406383
H86	H	-0.539905	0.200552	0.906383
N87	N	-1.052509	-0.278157	0.661818
N88	N	-0.552509	0.221843	1.161818
N89	N	-1.039970	-0.299356	0.797704
N90	N	-0.539970	0.200644	1.297704
H91	H	-0.999647	-0.367504	0.852748
H92	H	-0.499647	0.132496	1.352748
