data_functionalizedCrystal
_audit_creation_method	'MofGen! by Chris Wilmer'
_symmetry_space_group_name_H-M	'P1'
_symmetry_Int_Tables_number	1
_symmetry_cell_setting	triclinic
loop_
_symmetry_equiv_pos_as_xyz
  x,y,z
_cell_length_a	19.805407
_cell_length_b	13.897448
_cell_length_c	19.805399
_cell_angle_alpha	89.974981
_cell_angle_beta	89.980427
_cell_angle_gamma	90.017692
loop_
_atom_site_label
_atom_site_type_symbol
_atom_site_fract_x
_atom_site_fract_y
_atom_site_fract_z
Zn1	Zn	1.034777	-0.384037	-0.382732
Zn2	Zn	1.034709	-0.545343	-0.269549
Zn3	Zn	0.921591	-0.384064	-0.269556
Zn4	Zn	0.921572	-0.545292	-0.382695
O5	O	0.978162	-0.464684	-0.326133
O6	O	1.129484	-0.405445	-0.367730
O7	O	1.019683	-0.523982	-0.174833
O8	O	0.936642	-0.249079	-0.284588
O9	O	1.129434	-0.523956	-0.284575
O10	O	1.019799	-0.249059	-0.367737
O11	O	0.936576	-0.405490	-0.174839
O12	O	0.826872	-0.405441	-0.284552
O13	O	0.936609	-0.523869	-0.477417
O14	O	0.826858	-0.523894	-0.367675
O15	O	1.019780	-0.405395	-0.477443
O16	O	1.019664	-0.680318	-0.284539
O17	O	0.936543	-0.680280	-0.367668
C18	C	0.802306	-0.464666	-0.326111
C19	C	0.727074	-0.464681	-0.326118
C20	C	0.691740	-0.526453	-0.369330
C21	C	0.621052	-0.526454	-0.369339
C22	C	0.585699	-0.464688	-0.326133
C23	C	0.621037	-0.402910	-0.282919
C24	C	0.691725	-0.402904	-0.282913
C25	C	0.335964	-0.402931	-0.282941
C26	C	0.265272	-0.402944	-0.282949
C27	C	0.265292	-0.526481	-0.369367
C28	C	0.335979	-0.526476	-0.369362
C29	C	0.371311	-0.464694	-0.326151
C30	C	0.447960	-0.464692	-0.326142
C31	C	0.509051	-0.464695	-0.326138
C32	C	0.978113	-0.715298	-0.326113
C33	C	0.978154	-0.822512	-0.326128
C34	C	0.978225	-1.018807	-0.326170
C35	C	0.978183	-0.909575	-0.326149
C36	C	1.154705	-0.464703	-0.326155
C37	C	1.229937	-0.464711	-0.326165
C38	C	0.978200	-0.464623	-0.502676
C39	C	0.978216	-0.464597	-0.577908
C40	C	0.978230	-0.213091	-0.326167
C41	C	0.978259	-0.105877	-0.326182
C42	C	1.021524	-0.402905	-0.613267
C43	C	1.021531	-0.402877	-0.683955
C44	C	0.978233	-0.464547	-0.719283
C45	C	0.934920	-0.526242	-0.683919
C46	C	0.934910	-0.526264	-0.613232
C47	C	0.934958	-0.526152	-0.968993
C48	C	0.934973	-0.526127	-1.039685
C49	C	1.021579	-0.402765	-1.039716
C50	C	1.021570	-0.402787	-0.969029
C51	C	0.978255	-0.464478	-0.933671
C52	C	0.978247	-0.464507	-0.857022
C53	C	0.978244	-0.464524	-0.795931
C54	C	0.978163	-0.464675	-0.150277
C55	C	0.978278	-0.464429	-0.075045
H56	H	0.236489	-0.352641	-0.247765
H57	H	1.056846	-0.352530	-1.068513
H58	H	0.720492	-0.352598	-0.247729
O59	O	0.892817	-0.585937	-0.934615
C60	C	0.801449	-0.598913	-0.854752
C61	C	0.849122	-0.531097	-0.893663
H62	H	0.766119	-0.554604	-0.821622
H63	H	0.770453	-0.642976	-0.892108
H64	H	0.832519	-0.649379	-0.821684
H65	H	0.818104	-0.480573	-0.926732
H66	H	0.880120	-0.487102	-0.856270
O67	O	0.370385	-0.342959	-0.241026
C68	C	0.479271	-0.288235	-0.202676
C69	C	0.440371	-0.356187	-0.250196
H70	H	0.535861	-0.298921	-0.210063
H71	H	0.465440	-0.210458	-0.214656
H72	H	0.465303	-0.305070	-0.148088
H73	H	0.454317	-0.339439	-0.304799
H74	H	0.454205	-0.433944	-0.238157
H75	H	0.364760	-0.576775	-0.404542
O76	O	0.892940	-0.586167	-1.073928
C77	C	0.860061	-0.750233	-1.095558
C78	C	0.907690	-0.682349	-1.056725
H79	H	0.871978	-0.828011	-1.081675
H80	H	0.805475	-0.733364	-1.081642
H81	H	0.867499	-0.739572	-1.152151
H82	H	0.900311	-0.692972	-1.000124
H83	H	0.962258	-0.699234	-1.070698
H84	H	1.056785	-0.352690	-0.584508
H85	H	1.056830	-0.352573	-0.940268
O86	O	0.586624	-0.586371	-0.411292
C87	C	0.477735	-0.641175	-0.449577
C88	C	0.516639	-0.573253	-0.402040
H89	H	0.421146	-0.630607	-0.442103
H90	H	0.491612	-0.624341	-0.504189
H91	H	0.491654	-0.718919	-0.437598
H92	H	0.502741	-0.495486	-0.413958
H93	H	0.502759	-0.590170	-0.347442
O94	O	0.892893	-0.586282	-0.718161
C95	C	0.860024	-0.750352	-0.739789
C96	C	0.907649	-0.682462	-0.700958
H97	H	0.871946	-0.828128	-0.725906
H98	H	0.805437	-0.733490	-0.725871
H99	H	0.867460	-0.739692	-0.796382
H100	H	0.900273	-0.693084	-0.644357
H101	H	0.962218	-0.699340	-0.714932
H102	H	0.592247	-0.352615	-0.247743
O103	O	0.892940	-0.586242	-0.578804
C104	C	0.883798	-0.716527	-0.498998
C105	C	0.931407	-0.648651	-0.537935
H106	H	0.914880	-0.767016	-0.465957
H107	H	0.848426	-0.672299	-0.465857
H108	H	0.852836	-0.760563	-0.536397
H109	H	0.962412	-0.604601	-0.500585
H110	H	0.966734	-0.692935	-0.571086
O111	O	1.063667	-0.342923	-0.718198
C112	C	1.149549	-0.220531	-0.710770
C113	C	1.101874	-0.288400	-0.671906
H114	H	1.180441	-0.176417	-0.673360
H115	H	1.184976	-0.264766	-0.743847
H116	H	1.118484	-0.170116	-0.743882
H117	H	1.132884	-0.338828	-0.638757
H118	H	1.066445	-0.244104	-0.638872
H119	H	0.236515	-0.576783	-0.404554
O120	O	0.725975	-0.586483	-0.411365
C121	C	0.718525	-0.709055	-0.497060
C122	C	0.679674	-0.641105	-0.449497
H123	H	0.681108	-0.753249	-0.527891
H124	H	0.751623	-0.664878	-0.532548
H125	H	0.751616	-0.759392	-0.465911
H126	H	0.646546	-0.590755	-0.480591
H127	H	0.646619	-0.685342	-0.414007
