data_functionalizedCrystal
_audit_creation_method	'MofGen! by Chris Wilmer'
_symmetry_space_group_name_H-M	'P1'
_symmetry_Int_Tables_number	1
_symmetry_cell_setting	triclinic
loop_
_symmetry_equiv_pos_as_xyz
  x,y,z
_cell_length_a	15.995350
_cell_length_b	17.038272
_cell_length_c	15.072220
_cell_angle_alpha	89.999202
_cell_angle_beta	89.991149
_cell_angle_gamma	87.301966
loop_
_atom_site_label
_atom_site_type_symbol
_atom_site_fract_x
_atom_site_fract_y
_atom_site_fract_z
O1	O	1.118174	0.100774	-0.073708
O2	O	1.618174	0.600774	0.426292
O3	O	0.875285	0.113219	-0.073726
O4	O	1.375285	0.613219	0.426274
O5	O	0.995286	-0.006819	-0.073710
O6	O	1.495286	0.493181	0.426290
O7	O	0.998173	0.220812	-0.073724
O8	O	1.498173	0.720812	0.426276
O9	O	0.995255	-0.006813	0.073855
O10	O	1.495255	0.493187	0.573855
O11	O	0.875254	0.113226	0.073839
O12	O	1.375254	0.613226	0.573839
O13	O	1.118143	0.100781	0.073857
O14	O	1.618143	0.600781	0.573857
Zn15	Zn	0.996694	0.107004	0.097277
Zn16	Zn	1.496694	0.607004	0.597277
Zn17	Zn	0.996735	0.106995	-0.097146
Zn18	Zn	1.496735	0.606995	0.402854
O19	O	0.998142	0.220819	0.073841
O20	O	1.498142	0.720819	0.573841
C21	C	0.844038	0.112708	0.000054
C22	C	1.344038	0.612708	0.500054
C23	C	0.750978	0.111165	0.000047
C24	C	1.250978	0.611165	0.500047
C25	C	0.992645	-0.035945	0.000072
C26	C	1.492645	0.464055	0.500072
C27	C	0.984810	-0.122740	0.000071
C28	C	1.484810	0.377260	0.500071
C29	C	0.412836	0.105626	0.000066
C30	C	0.912836	0.605626	0.500066
C31	C	0.454180	0.020137	0.000400
C32	C	0.954180	0.520137	0.500400
C33	C	0.550981	0.021680	0.000062
C34	C	1.050981	0.521680	0.500062
C35	C	0.580592	0.108374	0.000057
C36	C	1.080592	0.608374	0.500057
C37	C	0.542527	0.150536	-0.084209
C38	C	1.042527	0.650536	0.415791
C39	C	0.445738	0.148388	-0.084273
C40	C	0.945738	0.648388	0.415727
C41	C	0.445489	0.150162	0.083536
C42	C	0.945489	0.650162	0.583536
C43	C	0.542433	0.150142	0.084644
C44	C	1.042433	0.650142	0.584644
C45	C	0.675401	0.109931	0.000049
C46	C	1.175401	0.609931	0.500049
C47	C	0.318027	0.104071	0.000068
C48	C	0.818027	0.604071	0.500068
C49	C	1.056739	-0.172836	0.000078
C50	C	1.556739	0.327164	0.500078
C51	C	1.049373	-0.254389	0.000069
C52	C	1.549373	0.245611	0.500069
C53	C	0.970077	-0.285843	0.000060
C54	C	1.470077	0.214157	0.500060
C55	C	0.898143	-0.235740	0.000051
C56	C	1.398143	0.264260	0.500051
C57	C	0.905510	-0.154189	0.000053
C58	C	1.405510	0.345811	0.500053
C59	C	0.944051	-0.531607	0.000046
C60	C	1.444051	-0.031607	0.500046
C61	C	0.936689	-0.613164	0.000046
C62	C	1.436689	-0.113164	0.500046
C63	C	1.087920	-0.631807	0.000062
C64	C	1.587920	-0.131807	0.500062
C65	C	1.095280	-0.550254	0.000070
C66	C	1.595280	-0.050254	0.500070
C67	C	1.023346	-0.500158	0.000056
C68	C	1.523346	-0.000158	0.500056
C69	C	0.962546	-0.369202	0.000053
C70	C	1.462546	0.130798	0.500053
C71	C	1.030878	-0.416801	0.000056
C72	C	1.530878	0.083199	0.500056
C73	C	1.149390	0.101292	0.000075
C74	C	1.649390	0.601292	0.500075
C75	C	1.242450	0.102834	0.000076
C76	C	1.742450	0.602834	0.500076
C77	C	1.000784	0.249944	0.000057
C78	C	1.500784	0.749944	0.500057
C79	C	1.008618	0.336739	0.000052
C80	C	1.508618	0.836739	0.500052
N81	N	0.996671	0.107010	0.229966
N82	N	1.496671	0.607010	0.729966
N83	N	0.996763	0.106984	-0.229835
N84	N	1.496763	0.606984	0.270165
C85	C	0.996733	0.106992	0.589168
C86	C	1.496733	0.606992	1.089168
C87	C	0.932276	0.171007	0.551552
C88	C	1.432276	0.671007	1.051552
C89	C	0.932451	0.171241	0.448726
C90	C	1.432451	0.671241	0.948726
C91	C	0.996702	0.107001	0.410963
C92	C	1.496702	0.607001	0.910963
C93	C	1.085336	0.124819	0.448260
C94	C	1.585336	0.624819	0.948260
C95	C	1.084981	0.125274	0.551118
C96	C	1.584981	0.625274	1.051118
C97	C	0.973321	0.024970	0.551271
C98	C	1.473321	0.524970	1.051271
C99	C	0.971355	0.025517	0.448408
C100	C	1.471355	0.525517	0.948408
C101	C	0.996689	0.107004	0.310250
C102	C	1.496689	0.607004	0.810250
C103	C	0.996751	0.106991	0.689881
C104	C	1.496751	0.606991	1.189881
H105	H	0.577036	-0.011462	0.060467
H106	H	1.077036	0.488538	0.560467
Br107	Br	0.411589	0.097134	-0.189256
Br108	Br	0.911589	0.597134	0.310744
H109	H	0.866383	0.160566	0.576309
H110	H	1.366383	0.660566	1.076309
H111	H	0.562300	0.213362	0.089730
H112	H	1.062300	0.713362	0.589730
H113	H	0.432177	-0.013880	-0.059693
H114	H	0.932177	0.486120	0.440307
Br115	Br	1.202899	-0.507572	0.000054
Br116	Br	1.702899	-0.007572	0.500054
H117	H	1.134687	0.079434	0.423797
H118	H	1.634687	0.579434	0.923797
H119	H	0.433211	-0.014032	0.060831
H120	H	0.933211	0.485968	0.560831
H121	H	1.107945	-0.295174	0.000076
H122	H	1.607945	0.204826	0.500076
Br123	Br	0.593462	-0.033693	-0.100964
Br124	Br	1.093462	0.466307	0.399036
Br125	Br	1.185539	-0.699798	0.000081
Br126	Br	1.685539	-0.199798	0.500081
Br127	Br	1.043783	-0.057604	0.405583
Br128	Br	1.543783	0.442396	0.905583
Br129	Br	0.829067	-0.655851	0.000043
Br130	Br	1.329067	-0.155851	0.500043
H131	H	0.906125	0.011995	0.424032
H132	H	1.406125	0.511995	0.924032
H133	H	0.885477	-0.490828	0.000035
H134	H	1.385477	0.009172	0.500035
Br135	Br	1.051551	-0.054430	0.591811
Br136	Br	1.551551	0.445570	1.091811
Br137	Br	0.399436	0.252996	-0.090652
Br138	Br	0.899436	0.752996	0.409348
H139	H	0.909778	0.007836	0.577258
H140	H	1.409778	0.507836	1.077258
H141	H	0.897983	-0.394821	0.000048
H142	H	1.397983	0.105179	0.500048
H143	H	1.121310	-0.147233	0.000090
H144	H	1.621310	0.352767	0.500090
Br145	Br	1.138490	-0.374111	0.000061
Br146	Br	1.638490	0.125889	0.500061
H147	H	0.833579	-0.261356	0.000038
H148	H	1.333579	0.238644	0.500038
H149	H	1.105400	0.183956	0.422489
H150	H	1.605400	0.683956	0.922489
Br151	Br	0.400038	0.255217	0.084481
Br152	Br	0.900038	0.755217	0.584481
Br153	Br	0.573655	0.256685	-0.089461
Br154	Br	1.073655	0.756685	0.410539
H155	H	0.846938	-0.113400	0.000048
H156	H	1.346938	0.386600	0.500048
H157	H	0.568828	0.121246	-0.146918
H158	H	1.068828	0.621246	0.353082
H159	H	0.422949	0.122217	0.147408
H160	H	0.922949	0.622217	0.647408
H161	H	0.866755	0.160625	0.423511
H162	H	1.366755	0.660625	0.923511
H163	H	0.947652	0.231532	0.577388
H164	H	1.447652	0.731532	1.077388
H165	H	0.567544	0.119364	0.146983
H166	H	1.067544	0.619364	0.646983
Br167	Br	0.958338	0.272701	0.407689
Br168	Br	1.458338	0.772701	0.907689
H169	H	1.104725	0.185092	0.575097
H170	H	1.604725	0.685092	1.075097
Br171	Br	1.167733	0.050433	0.592594
Br172	Br	1.667733	0.550433	1.092594
