data_functionalizedCrystal
_audit_creation_method	'MofGen! by Chris Wilmer'
_symmetry_space_group_name_H-M	'P1'
_symmetry_Int_Tables_number	1
_symmetry_cell_setting	triclinic
loop_
_symmetry_equiv_pos_as_xyz
  x,y,z
_cell_length_a	14.519709
_cell_length_b	10.654545
_cell_length_c	9.130313
_cell_angle_alpha	89.997672
_cell_angle_beta	89.995157
_cell_angle_gamma	84.081612
loop_
_atom_site_label
_atom_site_type_symbol
_atom_site_fract_x
_atom_site_fract_y
_atom_site_fract_z
O1	O	0.129512	1.666596	-0.121788
O2	O	0.141857	1.300998	-0.121795
O3	O	0.001496	1.493491	-0.121778
O4	O	0.269873	1.474104	-0.121805
O5	O	0.001493	1.493480	0.121821
O6	O	0.141854	1.300988	0.121804
O7	O	0.129509	1.666586	0.121811
Cu8	Cu	0.135681	1.483786	0.144050
Cu9	Cu	0.135685	1.483798	-0.144034
O10	O	0.269870	1.474093	0.121794
C11	C	0.140950	1.254204	0.000004
C12	C	0.138241	1.114786	0.000002
C13	C	0.136964	1.049288	0.132789
C14	C	0.134403	0.918293	0.132789
C15	C	0.134400	0.918305	-0.132796
C16	C	0.136954	1.049299	-0.132795
C17	C	-0.032870	1.492582	0.000022
C18	C	-0.135265	1.489874	0.000022
C19	C	-0.510212	1.479907	-0.000016
C20	C	-0.405890	1.482675	-0.000005
C21	C	-0.322742	1.484890	0.000005
C22	C	-0.218413	1.487659	0.000013
C23	C	0.304236	1.475002	-0.000009
C24	C	0.406631	1.477710	-0.000019
C25	C	0.130416	1.713380	0.000009
C26	C	0.133125	1.852798	0.000001
N27	N	0.135679	1.483786	0.346673
N28	N	0.135680	1.483808	-0.346657
C29	C	0.073550	1.569056	0.576678
C30	C	0.073551	1.569048	0.423342
C31	C	0.197815	1.398534	0.423348
C32	C	0.197818	1.398548	0.576682
H33	H	0.133363	0.864970	0.240917
H34	H	0.248405	1.329116	0.360915
H35	H	0.022955	1.638481	0.639092
H36	H	0.022961	1.638466	0.360925
O37	O	0.133017	0.847658	-0.276013
H38	H	0.070753	0.883852	-0.339669
H39	H	0.248416	1.329129	0.639107
O40	O	0.138334	1.119958	-0.276020
H41	H	0.137025	1.052414	-0.368363
H42	H	0.138012	1.102604	0.240920
