data_functionalizedCrystal
_audit_creation_method	'MofGen! by Chris Wilmer'
_symmetry_space_group_name_H-M	'P1'
_symmetry_Int_Tables_number	1
_symmetry_cell_setting	triclinic
loop_
_symmetry_equiv_pos_as_xyz
  x,y,z
_cell_length_a	13.596369
_cell_length_b	8.559649
_cell_length_c	8.559649
_cell_angle_alpha	69.778664
_cell_angle_beta	89.995606
_cell_angle_gamma	89.994773
loop_
_atom_site_label
_atom_site_type_symbol
_atom_site_fract_x
_atom_site_fract_y
_atom_site_fract_z
O1	O	0.081776	-2.126883	0.055032
O2	O	0.081780	-1.651398	-0.028749
O3	O	0.081777	-1.931031	0.250884
O4	O	0.081779	-1.847250	-0.224601
O5	O	-0.081806	-1.931008	0.250894
O6	O	-0.081803	-1.651375	-0.028739
O7	O	-0.081807	-2.126860	0.055043
Zn8	Zn	-0.107777	-1.889113	0.013154
Zn9	Zn	0.107750	-1.889144	0.013140
O10	O	-0.081804	-1.847227	-0.224590
C11	C	-0.000011	-1.591077	-0.035093
C12	C	-0.000010	-1.411378	-0.053992
C13	C	-0.000013	-1.937369	0.311198
C14	C	-0.000008	-1.956268	0.490898
N15	N	-0.254869	-1.889105	0.013165
C16	C	-0.656160	-1.889142	0.013138
C17	C	-0.544509	-1.889126	0.013140
C18	C	-0.455518	-1.889124	0.013151
C19	C	-0.343860	-1.889107	0.013154
N20	N	0.254842	-1.889167	0.013143
C21	C	-0.000014	-2.187180	0.061387
C22	C	-0.000009	-2.366879	0.080286
C23	C	-0.000012	-1.840889	-0.284904
C24	C	-0.000011	-1.821990	-0.464604
H25	H	-0.000005	-1.466258	0.209705
H26	H	-0.000017	-2.085696	0.590286
Br27	Br	0.000006	-1.245737	-0.269719
Br28	Br	-0.000015	-1.606272	0.369763
