data_functionalizedCrystal
_audit_creation_method	'MofGen! by Chris Wilmer'
_symmetry_space_group_name_H-M	'P1'
_symmetry_Int_Tables_number	1
_symmetry_cell_setting	triclinic
loop_
_symmetry_equiv_pos_as_xyz
  x,y,z
_cell_length_a	11.169417
_cell_length_b	12.645330
_cell_length_c	11.169409
_cell_angle_alpha	90.034413
_cell_angle_beta	90.019513
_cell_angle_gamma	90.013895
loop_
_atom_site_label
_atom_site_type_symbol
_atom_site_fract_x
_atom_site_fract_y
_atom_site_fract_z
Zn1	Zn	1.834943	-0.421918	0.678515
Zn2	Zn	2.334943	0.078082	1.178515
Zn3	Zn	1.834824	-0.599229	0.477825
Zn4	Zn	2.334824	-0.099229	0.977825
Zn5	Zn	1.634229	-0.421984	0.477851
Zn6	Zn	2.134229	0.078016	0.977851
Zn7	Zn	1.634228	-0.599144	0.678471
Zn8	Zn	2.134228	-0.099144	1.178471
O9	O	1.734556	-0.510569	0.578166
O10	O	2.234556	-0.010569	1.078166
O11	O	2.002877	-0.445447	0.651901
O12	O	2.502877	0.054553	1.151901
O13	O	1.808166	-0.575780	0.309879
O14	O	2.308166	-0.075780	0.809879
O15	O	1.660904	-0.273628	0.504499
O16	O	2.160904	0.226372	1.004499
O17	O	2.002790	-0.575716	0.504455
O18	O	2.502790	-0.075716	1.004455
O19	O	1.808368	-0.273580	0.651926
O20	O	2.308368	0.226420	1.151926
O21	O	1.660789	-0.445559	0.309898
O22	O	2.160789	0.054441	0.809898
O23	O	1.466279	-0.445476	0.504456
O24	O	1.966279	0.054524	1.004456
O25	O	1.660903	-0.575571	0.846427
O26	O	2.160903	-0.075571	1.346427
O27	O	1.466279	-0.575635	0.651851
O28	O	1.966279	-0.075635	1.151851
O29	O	1.808367	-0.445364	0.846459
O30	O	2.308367	0.054636	1.346459
O31	O	1.808165	-0.747565	0.504412
O32	O	2.308165	-0.247565	1.004412
O33	O	1.660788	-0.747502	0.651826
O34	O	2.160788	-0.247502	1.151826
C35	C	1.422731	-0.510554	0.578152
C36	C	1.922731	-0.010554	1.078152
C37	C	1.289332	-0.510574	0.578174
C38	C	1.789332	-0.010574	1.078174
C39	C	1.734496	-0.785999	0.578137
C40	C	2.234496	-0.285999	1.078137
C41	C	1.734580	-0.903829	0.578165
C42	C	2.234580	-0.403829	1.078165
C43	C	1.827146	-1.071388	0.485239
C44	C	2.327146	-0.571388	0.985239
C45	C	1.827448	-0.948827	0.485467
C46	C	2.327448	-0.448827	0.985467
C47	C	1.768886	-0.948196	0.704674
C48	C	2.268886	-0.448196	1.204674
C49	C	1.769620	-1.070794	0.704181
C50	C	2.269620	-0.570794	1.204181
C51	C	1.607672	-1.071162	0.545830
C52	C	2.107672	-0.571162	1.045830
C53	C	1.608281	-0.948558	0.542993
C54	C	2.108281	-0.448558	1.042993
C55	C	2.047598	-0.510584	0.578180
C56	C	2.547598	-0.010584	1.078180
C57	C	2.180998	-0.510590	0.578186
C58	C	2.680998	-0.010590	1.078186
C59	C	1.734648	-0.510451	0.891208
C60	C	2.234648	-0.010451	1.391208
C61	C	1.734688	-0.510401	1.024608
C62	C	2.234688	-0.010401	1.524608
C63	C	1.734649	-0.234063	0.578220
C64	C	2.234649	0.265937	1.078220
C65	C	1.734689	-0.116233	0.578244
C66	C	2.234689	0.383767	1.078244
C67	C	1.734533	-0.510610	0.266341
C68	C	2.234533	-0.010610	0.766341
C69	C	1.734727	-0.510361	0.132941
C70	C	2.234727	-0.010361	0.632941
H71	H	1.805984	-0.918835	0.391662
H72	H	2.305984	-0.418835	0.891662
N73	N	1.799057	-1.110550	0.360623
N74	N	2.299057	-0.610550	0.860623
H75	H	1.802848	-1.190340	0.359101
H76	H	2.302848	-0.690340	0.859101
H77	H	1.859442	-1.080782	0.302398
H78	H	2.359442	-0.580782	0.802398
N79	N	1.892606	-1.108561	0.740524
N80	N	2.392606	-0.608561	1.240524
H81	H	1.886185	-1.152997	0.815357
H82	H	2.386185	-0.652997	1.315357
H83	H	1.945759	-1.045516	0.756650
H84	H	2.445759	-0.545516	1.256650
N85	N	1.573987	-0.910507	0.419544
N86	N	2.073987	-0.410507	0.919544
H87	H	1.497355	-0.868340	0.424371
H88	H	1.997355	-0.368340	0.924371
H89	H	1.561759	-0.973461	0.365208
H90	H	2.061759	-0.473461	0.865208
H91	H	1.705228	-1.100454	0.775863
H92	H	2.205228	-0.600454	1.275863
H93	H	1.703594	-0.919043	0.775826
H94	H	2.203594	-0.419043	1.275826
N95	N	1.952060	-0.909862	0.513871
N96	N	2.452060	-0.409862	1.013871
H97	H	1.949976	-0.865611	0.589150
H98	H	2.449976	-0.365611	1.089150
H99	H	1.982618	-0.865588	0.445132
H100	H	2.482618	-0.365588	0.945132
N101	N	1.890486	-0.907431	0.741652
N102	N	2.390486	-0.407431	1.241652
H103	H	1.888740	-0.827633	0.745164
H104	H	2.388740	-0.327633	1.245164
H105	H	1.952358	-0.931000	0.681366
H106	H	2.452358	-0.431000	1.181366
H107	H	1.576477	-1.102182	0.455187
H108	H	2.076477	-0.602182	0.955187
N109	N	1.512093	-0.907980	0.626115
N110	N	2.012093	-0.407980	1.126115
H111	H	1.549192	-0.859818	0.688033
H112	H	2.049192	-0.359818	1.188033
H113	H	1.472168	-0.969646	0.667406
H114	H	1.972168	-0.469646	1.167406
N115	N	1.516415	-1.109573	0.635550
N116	N	2.016415	-0.609573	1.135550
H117	H	1.557082	-1.155942	0.696899
H118	H	2.057082	-0.655942	1.196899
H119	H	1.452433	-1.151556	0.592782
H120	H	1.952433	-0.651556	1.092782
H121	H	1.920718	-1.102114	0.506438
H122	H	2.420718	-0.602114	1.006438
