data_functionalizedCrystal
_audit_creation_method	'MofGen! by Chris Wilmer'
_symmetry_space_group_name_H-M	'P1'
_symmetry_Int_Tables_number	1
_symmetry_cell_setting	triclinic
loop_
_symmetry_equiv_pos_as_xyz
  x,y,z
_cell_length_a	18.215407
_cell_length_b	21.295411
_cell_length_c	18.215405
_cell_angle_alpha	89.979957
_cell_angle_beta	90.025333
_cell_angle_gamma	89.975315
loop_
_atom_site_label
_atom_site_type_symbol
_atom_site_fract_x
_atom_site_fract_y
_atom_site_fract_z
Zn1	Zn	1.125107	-0.355921	-0.293059
Zn2	Zn	1.458440	-0.022587	0.040274
Zn3	Zn	1.791774	0.310746	0.373607
Zn4	Zn	1.125005	-0.250649	-0.416108
Zn5	Zn	1.458338	0.082684	-0.082775
Zn6	Zn	1.791672	0.416018	0.250559
Zn7	Zn	1.002029	-0.250665	-0.293061
Zn8	Zn	1.335363	0.082668	0.040272
Zn9	Zn	1.668696	0.416001	0.373606
Zn10	Zn	1.002006	-0.355880	-0.416090
Zn11	Zn	1.335339	-0.022547	-0.082756
Zn12	Zn	1.668672	0.310786	0.250577
O13	O	1.063537	-0.303279	-0.354579
O14	O	1.396870	0.030055	-0.021246
O15	O	1.730203	0.363388	0.312087
O16	O	1.228078	-0.341966	-0.309389
O17	O	1.561411	-0.008633	0.023944
O18	O	1.894745	0.324701	0.357278
O19	O	1.108659	-0.162562	-0.399794
O20	O	1.441993	0.170772	-0.066461
O21	O	1.775326	0.504105	0.266873
O22	O	1.018408	-0.264651	-0.190076
O23	O	1.351742	0.068682	0.143257
O24	O	1.685075	0.402015	0.476590
O25	O	1.228003	-0.264623	-0.399792
O26	O	1.561336	0.068710	-0.066459
O27	O	1.894670	0.402043	0.266874
O28	O	1.108833	-0.341982	-0.190075
O29	O	1.442167	-0.008649	0.143258
O30	O	1.775500	0.324685	0.476591
O31	O	1.018310	-0.162574	-0.309392
O32	O	1.351643	0.170760	0.023942
O33	O	1.684976	0.504093	0.357275
O34	O	0.899042	-0.264612	-0.309374
O35	O	1.232375	0.068721	0.023960
O36	O	1.565709	0.402054	0.357293
O37	O	1.018368	-0.443975	-0.399761
O38	O	1.351701	-0.110642	-0.066428
O39	O	1.685035	0.222692	0.266906
O40	O	0.899024	-0.341913	-0.399763
O41	O	1.232358	-0.008580	-0.066429
O42	O	1.565691	0.324753	0.266904
O43	O	1.108810	-0.444005	-0.309371
O44	O	1.442144	-0.110671	0.023962
O45	O	1.775477	0.222662	0.357295
O46	O	1.108636	-0.264584	-0.519090
O47	O	1.441970	0.068749	-0.185757
O48	O	1.775303	0.402082	0.147577
O49	O	1.018269	-0.341897	-0.519076
O50	O	1.351602	-0.008564	-0.185743
O51	O	1.684936	0.324769	0.147590
C52	C	0.872331	-0.303261	-0.354567
C53	C	1.205664	0.030073	-0.021234
C54	C	1.538997	0.363406	0.312100
C55	C	0.790532	-0.303268	-0.354579
C56	C	1.123865	0.030065	-0.021246
C57	C	1.457198	0.363399	0.312087
C58	C	0.602348	-0.343468	-0.401719
C59	C	0.935681	-0.010135	-0.068385
C60	C	1.269015	0.323199	0.264948
C61	C	0.525489	-0.343476	-0.401721
C62	C	0.858822	-0.010143	-0.068388
C63	C	1.192156	0.323191	0.264946
C64	C	0.525478	-0.263103	-0.307454
C65	C	0.858811	0.070230	0.025880
C66	C	1.192144	0.403563	0.359213
C67	C	0.602335	-0.263099	-0.307448
C68	C	0.935668	0.070234	0.025885
C69	C	1.269002	0.403568	0.359218
C70	C	0.640768	-0.303280	-0.354585
C71	C	0.974101	0.030053	-0.021252
C72	C	1.307435	0.363386	0.312082
C73	C	0.487052	-0.303293	-0.354593
C74	C	0.820385	0.030041	-0.021259
C75	C	1.153719	0.363374	0.312074
C76	C	0.403718	-0.303301	-0.354595
C77	C	0.737052	0.030033	-0.021261
C78	C	1.070385	0.363366	0.312072
C79	C	0.724107	-0.303273	-0.354582
C80	C	1.057440	0.030060	-0.021249
C81	C	1.390774	0.363393	0.312085
C82	C	1.063598	-0.467469	-0.354564
C83	C	1.396931	-0.134136	-0.021231
C84	C	1.730265	0.199198	0.312103
C85	C	1.063624	-0.537437	-0.354557
C86	C	1.396957	-0.204104	-0.021224
C87	C	1.730291	0.129229	0.312109
C88	C	1.110715	-0.570320	-0.307489
C89	C	1.444048	-0.236987	0.025844
C90	C	1.777382	0.096346	0.359177
C91	C	1.110714	-0.636063	-0.307457
C92	C	1.444047	-0.302729	0.025876
C93	C	1.777381	0.030604	0.359209
C94	C	1.063630	-0.668920	-0.354507
C95	C	1.396963	-0.335586	-0.021173
C96	C	1.730296	-0.002253	0.312160
C97	C	1.016529	-0.636029	-0.401578
C98	C	1.349863	-0.302696	-0.068245
C99	C	1.683196	0.030638	0.265089
C100	C	1.016526	-0.570288	-0.401603
C101	C	1.349860	-0.236954	-0.068270
C102	C	1.683193	0.096379	0.265063
N103	N	1.057958	-0.772137	-0.418886
N104	N	1.391291	-0.438803	-0.085552
N105	N	1.724625	-0.105470	0.247781
N106	N	1.057965	-0.834588	-0.418860
N107	N	1.391298	-0.501255	-0.085526
N108	N	1.724632	-0.167922	0.247807
C109	C	1.063634	-0.866995	-0.354432
C110	C	1.396968	-0.533661	-0.021099
C111	C	1.730301	-0.200328	0.312235
N112	N	1.069311	-0.834590	-0.290030
N113	N	1.402644	-0.501257	0.043303
N114	N	1.735977	-0.167924	0.376637
N115	N	1.069307	-0.772133	-0.290057
N116	N	1.402641	-0.438800	0.043276
N117	N	1.735974	-0.105466	0.376610
C118	C	1.063627	-0.740205	-0.354484
C119	C	1.396960	-0.406872	-0.021151
C120	C	1.730294	-0.073539	0.312183
C121	C	1.110727	-0.971163	-0.307325
C122	C	1.444060	-0.637830	0.026008
C123	C	1.777394	-0.304497	0.359341
C124	C	1.110721	-1.036907	-0.307292
C125	C	1.444054	-0.703574	0.026041
C126	C	1.777387	-0.370240	0.359374
C127	C	1.016540	-1.036872	-0.401419
C128	C	1.349873	-0.703538	-0.068086
C129	C	1.683206	-0.370205	0.265247
C130	C	1.016542	-0.971129	-0.401446
C131	C	1.349875	-0.637796	-0.068113
C132	C	1.683209	-0.304463	0.265221
C133	C	1.063640	-0.938279	-0.354400
C134	C	1.396973	-0.604946	-0.021067
C135	C	1.730306	-0.271612	0.312267
C136	C	1.255490	-0.303297	-0.354593
C137	C	1.588823	0.030036	-0.021259
C138	C	1.922156	0.363369	0.312074
C139	C	1.337289	-0.303305	-0.354598
C140	C	1.670622	0.030028	-0.021265
C141	C	2.003955	0.363362	0.312068
C142	C	1.063459	-0.303248	-0.545786
C143	C	1.396792	0.030085	-0.212452
C144	C	1.730126	0.363418	0.120881
C145	C	1.063493	-0.303257	-0.627585
C146	C	1.396827	0.030077	-0.294251
C147	C	1.730160	0.363410	0.039082
C148	C	1.063518	-0.139727	-0.354542
C149	C	1.396852	0.193606	-0.021208
C150	C	1.730185	0.526939	0.312125
C151	C	1.063635	-0.069759	-0.354341
C152	C	1.396968	0.263574	-0.021008
C153	C	1.730302	0.596907	0.312326
C154	C	1.110658	-0.263074	-0.815761
C155	C	1.443991	0.070260	-0.482428
C156	C	1.777325	0.403593	-0.149094
C157	C	1.110691	-0.263089	-0.892620
C158	C	1.444024	0.070244	-0.559287
C159	C	1.777357	0.403578	-0.225953
C160	C	1.016510	-0.343529	-0.892646
C161	C	1.349843	-0.010196	-0.559312
C162	C	1.683177	0.323138	-0.225979
C163	C	1.016481	-0.343517	-0.815788
C164	C	1.349815	-0.010183	-0.482455
C165	C	1.683148	0.323150	-0.149122
C166	C	1.063554	-0.303285	-0.777348
C167	C	1.396887	0.030048	-0.444015
C168	C	1.730221	0.363381	-0.110681
C169	C	1.063616	-0.303313	-0.931064
C170	C	1.396949	0.030020	-0.597731
C171	C	1.730282	0.363354	-0.264397
C172	C	1.063651	-0.303330	-1.014398
C173	C	1.396984	0.030003	-0.681064
C174	C	1.730318	0.363337	-0.347731
C175	C	1.063520	-0.303269	-0.694009
C176	C	1.396853	0.030064	-0.360676
C177	C	1.730187	0.363398	-0.027342
C178	C	1.063635	-0.303323	-0.162627
C179	C	1.396968	0.030010	0.170707
C180	C	1.730302	0.363344	0.504040
C181	C	1.063677	-0.303342	-0.080828
C182	C	1.397010	0.029992	0.252506
C183	C	1.730343	0.363325	0.585839
H184	H	0.633618	-0.230373	-0.269062
H185	H	0.966951	0.102960	0.064272
H186	H	1.300284	0.436293	0.397605
N187	N	1.161487	-0.219714	-0.934055
N188	N	1.494821	0.113620	-0.600722
N189	N	1.828154	0.446953	-0.267388
H190	H	1.195591	-0.245327	-0.965898
H191	H	1.528924	0.088006	-0.632564
H192	H	1.862258	0.421340	-0.299231
H193	H	1.191252	-0.194234	-0.897995
H194	H	1.524586	0.139099	-0.564661
H195	H	1.857919	0.472432	-0.231328
H196	H	0.494211	-0.376202	-0.440101
H197	H	0.827544	-0.042868	-0.106768
H198	H	1.160877	0.290465	0.226566
H199	H	1.149065	-0.543578	-0.269180
H200	H	1.482398	-0.210244	0.064154
H201	H	1.815731	0.123089	0.397487
H202	H	0.978184	-0.376283	-0.923953
H203	H	1.311517	-0.042950	-0.590620
H204	H	1.644850	0.290384	-0.257286
H205	H	0.978200	-0.944356	-0.439778
H206	H	1.311533	-0.611022	-0.106445
H207	H	1.644866	-0.277689	0.226888
H208	H	0.978176	-0.543515	-0.439931
H209	H	1.311509	-0.210181	-0.106598
H210	H	1.644842	0.123152	0.226736
H211	H	1.149072	-0.944415	-0.269014
H212	H	1.482406	-0.611082	0.064320
H213	H	1.815739	-0.277748	0.397653
N214	N	0.965733	-0.671463	-0.452313
N215	N	1.299066	-0.338129	-0.118980
N216	N	1.632399	-0.004796	0.214354
H217	H	0.972878	-0.718100	-0.445154
H218	H	1.306212	-0.384767	-0.111820
H219	H	1.639545	-0.051433	0.221513
H220	H	0.977148	-0.659977	-0.504881
H221	H	1.310481	-0.326644	-0.171548
H222	H	1.643815	0.006689	0.161786
N223	N	0.965676	-0.386891	-0.774350
N224	N	1.299009	-0.053558	-0.441017
N225	N	1.632343	0.279776	-0.107684
H226	H	0.935856	-0.412376	-0.810363
H227	H	1.269189	-0.079042	-0.477030
H228	H	1.602522	0.254291	-0.143697
H229	H	0.931625	-0.361233	-0.742505
H230	H	1.264958	-0.027899	-0.409172
H231	H	1.598291	0.305434	-0.075838
N232	N	0.643804	-0.386809	-0.452549
N233	N	0.977137	-0.053476	-0.119216
N234	N	1.310470	0.279857	0.214118
H235	H	0.675662	-0.361174	-0.486610
H236	H	1.008996	-0.027840	-0.153277
H237	H	1.342329	0.305493	0.180057
H238	H	0.607754	-0.412261	-0.482358
H239	H	0.941087	-0.078928	-0.149025
H240	H	1.274420	0.254405	0.184309
H241	H	0.494176	-0.230388	-0.269078
H242	H	0.827509	0.102945	0.064255
H243	H	1.160843	0.436279	0.397589
H244	H	1.149060	-0.662841	-0.269125
H245	H	1.482393	-0.329508	0.064209
H246	H	1.815727	0.003825	0.397542
H247	H	1.149067	-1.063679	-0.268959
H248	H	1.482400	-0.730346	0.064374
H249	H	1.815734	-0.397013	0.397707
N250	N	0.965752	-1.072305	-0.452160
N251	N	1.299085	-0.738972	-0.118827
N252	N	1.632418	-0.405639	0.214507
H253	H	0.995641	-1.099592	-0.486256
H254	H	1.328974	-0.766259	-0.152923
H255	H	1.662308	-0.432926	0.180411
H256	H	0.935929	-1.041457	-0.481936
H257	H	1.269262	-0.708124	-0.148603
H258	H	1.602595	-0.374791	0.184731
N259	N	1.161430	-0.219687	-0.774299
N260	N	1.494763	0.113647	-0.440965
N261	N	1.828096	0.446980	-0.107632
H262	H	1.191276	-0.194217	-0.810299
H263	H	1.524609	0.139117	-0.476966
H264	H	1.857943	0.472450	-0.143632
H265	H	1.195458	-0.245335	-0.742367
H266	H	1.528791	0.087998	-0.409033
H267	H	1.862125	0.421332	-0.075700
