data_functionalizedCrystal
_audit_creation_method	'MofGen! by Chris Wilmer'
_symmetry_space_group_name_H-M	'P1'
_symmetry_Int_Tables_number	1
_symmetry_cell_setting	triclinic
loop_
_symmetry_equiv_pos_as_xyz
  x,y,z
_cell_length_a	14.044202
_cell_length_b	19.288865
_cell_length_c	17.766277
_cell_angle_alpha	90.011603
_cell_angle_beta	90.006688
_cell_angle_gamma	88.164474
loop_
_atom_site_label
_atom_site_type_symbol
_atom_site_fract_x
_atom_site_fract_y
_atom_site_fract_z
O1	O	-1.256999	-0.167444	-0.062573
O2	O	-0.756999	0.332556	0.437427
O3	O	-0.981055	-0.161396	-0.062582
O4	O	-0.481055	0.338604	0.437418
O5	O	-1.127000	-0.063802	-0.062562
O6	O	-0.627000	0.436198	0.437438
O7	O	-1.111053	-0.265037	-0.062593
O8	O	-0.611053	0.234963	0.437407
O9	O	-1.126975	-0.063795	0.062626
O10	O	-0.626975	0.436205	0.562626
O11	O	-0.981030	-0.161389	0.062607
O12	O	-0.481030	0.338611	0.562607
O13	O	-1.256973	-0.167437	0.062616
O14	O	-0.756973	0.332563	0.562616
Cu15	Cu	-1.118999	-0.164412	0.074042
Cu16	Cu	-0.618999	0.335588	0.574042
Cu17	Cu	-1.119029	-0.164420	-0.074008
Cu18	Cu	-0.619029	0.335580	0.425992
O19	O	-1.111028	-0.265030	0.062596
O20	O	-0.611028	0.234970	0.562596
C21	C	-0.945739	-0.158747	0.000011
C22	C	-0.445739	0.341253	0.500011
C23	C	-0.840547	-0.150857	0.000008
C24	C	-0.340547	0.349143	0.500008
C25	C	-0.590084	-0.192387	0.000009
C26	C	-0.090084	0.307613	0.500009
C27	C	-0.647951	-0.136443	0.000017
C28	C	-0.147951	0.363557	0.500017
C29	C	-0.755121	-0.144465	0.000012
C30	C	-0.255121	0.355535	0.500012
C31	C	-0.482904	-0.184366	0.000014
C32	C	0.017096	0.315634	0.500014
C33	C	-1.126474	-0.037889	0.000034
C34	C	-0.626474	0.462111	0.500034
C35	C	-1.124934	0.039314	0.000041
C36	C	-0.624934	0.539314	0.500041
C37	C	-1.111554	-0.290943	-0.000002
C38	C	-0.611554	0.209057	0.499998
C39	C	-1.113094	-0.368146	-0.000014
C40	C	-0.613094	0.131854	0.499986
C41	C	-0.292289	-0.170084	0.000021
C42	C	0.207711	0.329916	0.500021
C43	C	-0.397482	-0.177970	0.000018
C44	C	0.102518	0.322030	0.500018
N45	N	-1.118985	-0.164406	0.178172
N46	N	-0.618985	0.335594	0.678172
C47	C	-1.210568	0.078506	0.000047
C48	C	-0.710568	0.578506	0.500047
C49	C	-1.209121	0.151046	0.000035
C50	C	-0.709121	0.651046	0.500035
C51	C	-1.122035	0.184391	0.000032
C52	C	-0.622035	0.684391	0.500032
C53	C	-1.036390	0.145190	0.000021
C54	C	-0.536390	0.645190	0.500021
C55	C	-1.037839	0.072651	0.000026
C56	C	-0.537839	0.572651	0.500026
C57	C	-1.053566	0.297081	0.043881
C58	C	-0.553566	0.797081	0.543881
C59	C	-1.052120	0.369619	0.043881
C60	C	-0.552120	0.869619	0.543881
C61	C	-1.117561	0.408124	0.000015
C62	C	-0.617561	0.908124	0.500015
C63	C	-1.184463	0.374084	-0.043841
C64	C	-0.684463	0.874084	0.456159
C65	C	-1.185913	0.301545	-0.043837
C66	C	-0.685913	0.801545	0.456163
C67	C	-1.120454	0.263047	0.000027
C68	C	-0.620454	0.763047	0.500027
C69	C	-1.201632	0.525973	0.000008
C70	C	-0.701632	1.025973	0.500008
C71	C	-1.200181	0.598514	-0.000009
C72	C	-0.700181	1.098514	0.499991
C73	C	-1.027447	0.592656	-0.000016
C74	C	-0.527447	1.092656	0.499984
C75	C	-1.028900	0.520117	-0.000007
C76	C	-0.528900	1.020117	0.499993
C77	C	-1.115995	0.486779	0.000009
C78	C	-0.615995	0.986779	0.500009
N79	N	-1.119051	-0.164421	-0.178138
N80	N	-0.619051	0.335579	0.321862
C81	C	-1.183630	-0.121216	0.217568
C82	C	-0.683630	0.378784	0.717568
C83	C	-1.183635	-0.121213	0.296370
C84	C	-0.683635	0.378787	0.796370
C85	C	-1.119005	-0.164413	0.335773
C86	C	-0.619005	0.335587	0.835773
C87	C	-1.054347	-0.207606	0.296368
C88	C	-0.554347	0.292394	0.796368
C89	C	-1.054337	-0.207602	0.217567
C90	C	-0.554337	0.292398	0.717567
C91	C	-1.106318	-0.226885	0.460601
C92	C	-0.606318	0.273115	0.960601
C93	C	-1.106335	-0.226890	0.539400
C94	C	-0.606335	0.273110	1.039400
C95	C	-1.119030	-0.164423	0.578819
C96	C	-0.619030	0.335577	1.078819
C97	C	-1.131729	-0.101950	0.539430
C98	C	-0.631729	0.398050	1.039430
C99	C	-1.131719	-0.101946	0.460630
C100	C	-0.631719	0.398054	0.960630
C101	C	-1.119008	-0.164421	0.421218
C102	C	-0.619008	0.335579	0.921218
C103	C	-1.183685	-0.121226	0.703661
C104	C	-0.683685	0.378774	1.203661
C105	C	-1.183684	-0.121222	0.782464
C106	C	-0.683684	0.378778	1.282464
C107	C	-1.054400	-0.207621	0.782460
C108	C	-0.554400	0.292379	1.282460
C109	C	-1.054397	-0.207619	0.703659
C110	C	-0.554397	0.292381	1.203659
C111	C	-1.119044	-0.164422	0.664264
C112	C	-0.619044	0.335578	1.164264
H113	H	-0.617006	-0.082523	-0.000028
H114	H	-0.117006	0.417477	0.499972
H115	H	-1.142066	-0.051083	0.571523
H116	H	-0.642066	0.448917	1.071523
H117	H	-1.001760	-0.242791	0.671580
H118	H	-0.501760	0.257209	1.171580
Br119	Br	-0.641658	-0.282253	-0.000012
Br120	Br	-0.141658	0.217747	0.499988
Br121	Br	-0.966597	-0.266221	0.164097
Br122	Br	-0.466597	0.233779	0.664097
Br123	Br	-1.089183	-0.311678	0.407112
Br124	Br	-0.589183	0.188322	0.907112
H125	H	-1.096001	-0.277760	0.571465
H126	H	-0.596001	0.222240	1.071465
H127	H	-1.281487	0.051367	0.000057
H128	H	-0.781487	0.551367	0.500057
Br129	Br	-0.909257	0.637902	-0.000028
Br130	Br	-0.409257	1.137902	0.499972
H131	H	-1.278857	0.182962	0.000038
H132	H	-0.778857	0.682962	0.500038
Br133	Br	-1.276699	0.255349	-0.103356
Br134	Br	-0.776699	0.755349	0.396644
H135	H	-0.997641	0.397328	0.079587
H136	H	-0.497641	0.897328	0.579587
H137	H	-1.001773	-0.242792	0.814542
H138	H	-0.501773	0.257208	1.314542
H139	H	-1.001722	-0.242779	0.328453
H140	H	-0.501722	0.257221	0.828453
Br141	Br	-1.271415	-0.062596	0.835934
Br142	Br	-0.771415	0.437404	1.335934
Br143	Br	-1.273283	0.426332	-0.103377
Br144	Br	-0.773283	0.926332	0.396623
Br145	Br	-1.319828	0.480725	0.000036
Br146	Br	-0.819828	0.980725	0.500036
Br147	Br	-1.316409	0.651705	-0.000008
Br148	Br	-0.816409	1.151705	0.499992
H149	H	-0.959168	0.488206	-0.000008
H150	H	-0.459168	0.988206	0.499992
H151	H	-1.000275	0.265736	0.079605
H152	H	-0.500275	0.765736	0.579605
H153	H	-0.965484	0.172344	0.000017
H154	H	-0.465484	0.672344	0.500017
Br155	Br	-0.921612	0.019458	0.000015
Br156	Br	-0.421612	0.519458	0.500015
H157	H	-1.236267	-0.086041	0.185495
H158	H	-0.736267	0.413959	0.685495
Br159	Br	-1.271375	-0.062592	0.349845
Br160	Br	-0.771375	0.437408	0.849845
H161	H	-1.142056	-0.051078	0.428562
H162	H	-0.642056	0.448922	0.928562
H163	H	-1.236322	-0.086051	0.671584
H164	H	-0.736322	0.413949	1.171584
