data_functionalizedCrystal
_audit_creation_method	'MofGen! by Chris Wilmer'
_symmetry_space_group_name_H-M	'P1'
_symmetry_Int_Tables_number	1
_symmetry_cell_setting	triclinic
loop_
_symmetry_equiv_pos_as_xyz
  x,y,z
_cell_length_a	14.971486
_cell_length_b	16.109301
_cell_length_c	14.048226
_cell_angle_alpha	89.992144
_cell_angle_beta	89.998499
_cell_angle_gamma	83.537805
loop_
_atom_site_label
_atom_site_type_symbol
_atom_site_fract_x
_atom_site_fract_y
_atom_site_fract_z
O1	O	1.186791	0.108348	-0.079054
O2	O	0.926372	0.121323	-0.079081
O3	O	1.063735	-0.006187	-0.079057
O4	O	1.049427	0.235857	-0.079078
O5	O	1.063719	-0.006194	0.079264
O6	O	0.926355	0.121315	0.079241
O7	O	1.186774	0.108340	0.079267
Zn8	Zn	1.056562	0.114826	0.104391
Zn9	Zn	1.056584	0.114836	-0.104204
O10	O	1.049411	0.235850	0.079244
C11	C	0.893040	0.120739	0.000077
C12	C	0.793745	0.119000	0.000067
C13	C	0.736412	0.193908	0.000062
C14	C	0.643115	0.192269	0.000076
C15	C	0.607153	0.115721	0.000089
C16	C	0.664494	0.040807	0.000097
C17	C	0.757789	0.042447	0.000089
C18	C	0.470036	0.037395	0.000110
C19	C	0.376734	0.035755	0.000116
C20	C	0.355362	0.187217	0.000097
C21	C	0.448657	0.188857	0.000090
C22	C	0.505991	0.113942	0.000096
C23	C	1.063147	-0.037166	0.000104
C24	C	1.061410	-0.129464	0.000105
C25	C	1.138878	-0.351640	0.000098
C26	C	1.137239	-0.438362	0.000090
C27	C	0.974262	-0.418691	0.000077
C28	C	0.975902	-0.331970	0.000078
C29	C	1.058213	-0.298447	0.000094
C30	C	1.054933	-0.471890	0.000085
C31	C	1.053155	-0.565918	0.000076
C32	C	1.059992	-0.204413	0.000101
C33	C	1.220106	0.108924	0.000108
C34	C	1.319401	0.110663	0.000111
C35	C	1.049999	0.266829	0.000080
C36	C	1.051736	0.359127	0.000073
N37	N	1.056554	0.114819	0.246752
N38	N	1.056599	0.114837	-0.246565
C39	C	1.117397	0.058381	0.296580
C40	C	1.117403	0.058381	0.396238
C41	C	1.056570	0.114823	0.446065
C42	C	0.995719	0.171263	0.396230
C43	C	0.995710	0.171259	0.296574
C44	C	0.995745	0.171269	0.603944
C45	C	0.995756	0.171275	0.703607
C46	C	1.117439	0.058391	0.703608
C47	C	1.117429	0.058387	0.603952
C48	C	1.056580	0.114829	0.554123
H49	H	0.477934	0.251189	0.000070
O50	O	1.218909	-0.319212	0.000059
C51	C	1.289754	-0.384762	0.000082
H52	H	1.264694	-0.443692	-0.029891
H53	H	1.314635	-0.397018	0.076036
C54	C	1.398161	-0.287825	-0.025196
C55	C	1.367384	-0.360203	-0.062016
H56	H	1.446049	-0.272676	-0.063497
H57	H	1.350433	-0.243662	-0.025208
H58	H	1.418890	-0.298048	0.038099
H59	H	1.346646	-0.349976	-0.125305
H60	H	1.415111	-0.404364	-0.062016
O61	O	1.176480	0.003449	0.444531
C62	C	1.161969	-0.078882	0.420214
H63	H	1.127479	-0.078838	0.347867
H64	H	1.117476	-0.104671	0.476318
C65	C	1.295173	-0.134091	0.504454
C66	C	1.252819	-0.134038	0.415591
H67	H	1.351212	-0.168116	0.501606
H68	H	1.304949	-0.078624	0.520840
H69	H	1.258086	-0.155580	0.551198
H70	H	1.289900	-0.112539	0.368852
H71	H	1.243052	-0.189503	0.399197
H72	H	1.202924	-0.481669	0.000092
H73	H	0.907247	-0.445996	0.000067
O74	O	0.341752	-0.038580	-0.000030
C75	C	0.288404	-0.044053	-0.082008
H76	H	0.310460	-0.000594	-0.139334
H77	H	0.214828	-0.024937	-0.063470
C78	C	0.272636	-0.187934	-0.048752
C79	C	0.299730	-0.134563	-0.119164
H80	H	0.279618	-0.243765	-0.071670
H81	H	0.308574	-0.184246	0.006480
H82	H	0.211324	-0.171994	-0.033310
H83	H	0.361043	-0.150496	-0.134596
H84	H	0.263801	-0.138255	-0.174400
O85	O	0.897456	-0.280411	0.000117
C86	C	0.824455	-0.328593	0.000088
H87	H	0.847167	-0.393298	0.030064
H88	H	0.799232	-0.334783	-0.075869
C89	C	0.720209	-0.205986	0.025349
C90	C	0.748102	-0.285455	0.062175
H91	H	0.673108	-0.179376	0.063644
H92	H	0.769390	-0.173524	0.025366
H93	H	0.699195	-0.211155	-0.037948
H94	H	0.769125	-0.280284	0.125466
H95	H	0.698922	-0.317916	0.062171
H96	H	0.635206	-0.021520	0.000121
O97	O	0.299545	0.259914	0.000133
C98	C	0.209488	0.242056	0.000121
H99	H	0.205931	0.176752	0.030112
H100	H	0.182504	0.245175	-0.075833
C101	C	0.156740	0.386761	0.025360
C102	C	0.152371	0.306555	0.062204
H103	H	0.121506	0.426548	0.063652
H104	H	0.217413	0.398793	0.025365
H105	H	0.134255	0.389348	-0.037934
H106	H	0.174866	0.303966	0.125492
H107	H	0.091700	0.294524	0.062211
H108	H	1.166939	0.012423	0.256017
H109	H	1.166969	0.012432	0.563383
H110	H	0.946183	0.217217	0.436805
O111	O	0.936564	0.226121	0.751863
C112	C	0.882859	0.275942	0.686517
H113	H	0.881865	0.241856	0.615481
H114	H	0.911856	0.337761	0.675908
C115	C	0.787591	0.334765	0.812669
C116	C	0.786363	0.292897	0.725425
H117	H	0.728068	0.345228	0.836670
H118	H	0.823774	0.301203	0.856695
H119	H	0.811759	0.386277	0.803816
H120	H	0.762206	0.241382	0.734280
H121	H	0.750173	0.326451	0.681400
O122	O	0.936731	0.226120	0.248062
C123	C	0.984605	0.277498	0.190415
H124	H	1.054604	0.244493	0.175483
H125	H	0.990662	0.338958	0.228805
C126	C	0.848187	0.335721	0.114095
C127	C	0.934158	0.295180	0.095748
H128	H	0.817068	0.346632	0.055702
H129	H	0.815933	0.301109	0.152935
H130	H	0.853247	0.386933	0.146089
H131	H	0.929098	0.243965	0.063766
H132	H	0.966411	0.329784	0.056900
O133	O	0.936760	0.226132	0.555433
C134	C	0.984640	0.277507	0.497788
H135	H	1.054637	0.244499	0.482859
H136	H	0.990700	0.338966	0.536180
C137	C	0.848228	0.335738	0.421464
C138	C	0.934197	0.295193	0.403121
H139	H	0.817111	0.346651	0.363070
H140	H	0.815969	0.301128	0.460303
H141	H	0.853289	0.386949	0.453460
H142	H	0.929134	0.243979	0.371137
H143	H	0.966454	0.329795	0.364274
H144	H	0.765684	0.256242	0.000051
H145	H	1.166984	0.012434	0.744184
H146	H	0.596437	0.253267	0.000071
H147	H	0.516716	-0.023609	0.000117
H148	H	0.804470	-0.018551	0.000093
