data_functionalizedCrystal
_audit_creation_method	'MofGen! by Chris Wilmer'
_symmetry_space_group_name_H-M	'P1'
_symmetry_Int_Tables_number	1
_symmetry_cell_setting	triclinic
loop_
_symmetry_equiv_pos_as_xyz
  x,y,z
_cell_length_a	18.050590
_cell_length_b	18.050590
_cell_length_c	19.076919
_cell_angle_alpha	92.270515
_cell_angle_beta	92.297065
_cell_angle_gamma	90.007719
loop_
_atom_site_label
_atom_site_type_symbol
_atom_site_fract_x
_atom_site_fract_y
_atom_site_fract_z
Zn1	Zn	1.118501	-0.312744	-0.397655
Zn2	Zn	1.123417	-0.431949	-0.279958
Zn3	Zn	0.999303	-0.307755	-0.280005
Zn4	Zn	0.994290	-0.436873	-0.397647
O5	O	1.058878	-0.372330	-0.338816
O6	O	1.223079	-0.328584	-0.382026
O7	O	1.111109	-0.411325	-0.181474
O8	O	1.015156	-0.204494	-0.295635
O9	O	1.226691	-0.416163	-0.295555
O10	O	1.102730	-0.208159	-0.382072
O11	O	1.019923	-0.320081	-0.181509
O12	O	0.894713	-0.324856	-0.295627
O13	O	1.006611	-0.424556	-0.496138
O14	O	0.891030	-0.419719	-0.382057
O15	O	1.097869	-0.333359	-0.496144
O16	O	1.106248	-0.536525	-0.295546
O17	O	1.011378	-0.540144	-0.382012
C18	C	0.865924	-0.372281	-0.338847
C19	C	0.783377	-0.372278	-0.338876
C20	C	0.581950	-0.424002	-0.385766
C21	C	0.531812	-0.357020	-0.403086
C22	C	0.632249	-0.372318	-0.338842
C23	C	0.535305	-0.439339	-0.321521
C24	C	0.486265	-0.372363	-0.338810
C25	C	0.583196	-0.305302	-0.356196
C26	C	0.586695	-0.387666	-0.274601
C27	C	0.536580	-0.320636	-0.291897
C28	C	0.716346	-0.372294	-0.338862
C29	C	0.402169	-0.372380	-0.338790
C30	C	1.058822	-0.565281	-0.338788
C31	C	1.058865	-0.647828	-0.338800
C32	C	1.110555	-0.845286	-0.291846
C33	C	1.125971	-0.897346	-0.356077
C34	C	1.058906	-0.798959	-0.338828
C35	C	1.043565	-0.893983	-0.274626
C36	C	1.058947	-0.944945	-0.338849
C37	C	1.074355	-0.849933	-0.403093
C38	C	0.991919	-0.846563	-0.321599
C39	C	1.007307	-0.898602	-0.385874
C40	C	1.058884	-0.714860	-0.338815
C41	C	1.058969	-1.029043	-0.338870
C42	C	1.252585	-0.372381	-0.338786
C43	C	1.335131	-0.372402	-0.338774
C44	C	1.051132	-0.380064	-0.522392
C45	C	1.047832	-0.383359	-0.600622
C46	C	1.058954	-0.178627	-0.338860
C47	C	1.058986	-0.096082	-0.338878
C48	C	1.093791	-0.337428	-0.637378
C49	C	1.090681	-0.340522	-0.710883
C50	C	1.041614	-0.389551	-0.747630
C51	C	0.995649	-0.435484	-0.710868
C52	C	0.998756	-0.432386	-0.637364
C53	C	1.027223	-0.403904	-0.967461
C54	C	1.024121	-0.407000	-1.040969
C55	C	1.119152	-0.312037	-1.040979
C56	C	1.122258	-0.308946	-0.967474
C57	C	1.076290	-0.354876	-0.930719
N58	N	1.038435	-0.392716	-0.822763
N59	N	1.079466	-0.351707	-0.855587
C60	C	1.066636	-0.364574	-0.155954
C61	C	1.070081	-0.361069	-0.077726
H62	H	0.604165	-0.248627	-0.370894
H63	H	0.610728	-0.400654	-0.220303
H64	H	1.162216	-0.269024	-0.937560
H65	H	0.935270	-0.824262	-0.306993
H66	H	0.514239	-0.495999	-0.306886
O67	O	1.193621	-0.923898	-0.373363
C68	C	1.324525	-0.926751	-0.343415
C69	C	1.247954	-0.896647	-0.323754
H70	H	1.368476	-0.904719	-0.303325
H71	H	1.323778	-0.989917	-0.343726
H72	H	1.338014	-0.907863	-0.397786
H73	H	1.234417	-0.915480	-0.269379
H74	H	1.248741	-0.833484	-0.323491
H75	H	1.154246	-0.821943	-0.252155
H76	H	0.507795	-0.344053	-0.457400
O77	O	1.163722	-0.267447	-1.076793
C78	C	1.201084	-0.230156	-1.190033
C79	C	1.150555	-0.280689	-1.149563
H80	H	1.190467	-0.240856	-1.248874
H81	H	1.188670	-0.169648	-1.175647
H82	H	1.261567	-0.242592	-1.175530
H83	H	1.090055	-0.268319	-1.164044
H84	H	1.163032	-0.341182	-1.163952
H85	H	0.516731	-0.276899	-0.252202
H86	H	1.030573	-0.913421	-0.220322
H87	H	1.087288	-0.830588	-0.457443
O88	O	1.141475	-0.289736	-0.601795
C89	C	1.235432	-0.195901	-0.609571
C90	C	1.181453	-0.249869	-0.649954
H91	H	1.267780	-0.163665	-0.648491
H92	H	1.202841	-0.155561	-0.575190
H93	H	1.275676	-0.228566	-0.575128
H94	H	1.141197	-0.217265	-0.684435
H95	H	1.214093	-0.290210	-0.684291
O96	O	1.135217	-0.295820	-0.746614
C97	C	1.141733	-0.199066	-0.829638
C98	C	1.091211	-0.249643	-0.789207
H99	H	1.106175	-0.161730	-0.864095
H100	H	1.177319	-0.163443	-0.790774
H101	H	1.179117	-0.234626	-0.864013
H102	H	1.053783	-0.214140	-0.754831
H103	H	1.055676	-0.285270	-0.828109
H104	H	0.601937	-0.467637	-0.425492
O105	O	0.955297	-0.926267	-0.433430
C106	C	0.912726	-0.935117	-0.554819
C107	C	0.971681	-0.903753	-0.501036
H108	H	0.925943	-0.916914	-0.609488
H109	H	0.912792	-0.998247	-0.554218
H110	H	0.855760	-0.913366	-0.540552
H111	H	1.028677	-0.925448	-0.515266
H112	H	0.971550	-0.840625	-0.501647
H113	H	0.984162	-0.446927	-1.070886
O114	O	0.982535	-0.448584	-0.931871
C115	C	0.887891	-0.543043	-0.939625
C116	C	0.938481	-0.492501	-0.980021
H117	H	0.852250	-0.578551	-0.978536
H118	H	0.923370	-0.580490	-0.905209
H119	H	0.850562	-0.507457	-0.905216
H120	H	0.975819	-0.528028	-1.014467
H121	H	0.902958	-0.455050	-1.014392
H122	H	0.955695	-0.475401	-0.740793
H123	H	0.961323	-0.469780	-0.607438
