data_functionalizedCrystal
_audit_creation_method	'MofGen! by Chris Wilmer'
_symmetry_space_group_name_H-M	'P1'
_symmetry_Int_Tables_number	1
_symmetry_cell_setting	triclinic
loop_
_symmetry_equiv_pos_as_xyz
  x,y,z
_cell_length_a	29.839131
_cell_length_b	29.839134
_cell_length_c	12.759393
_cell_angle_alpha	89.977314
_cell_angle_beta	89.963184
_cell_angle_gamma	90.021992
loop_
_atom_site_label
_atom_site_type_symbol
_atom_site_fract_x
_atom_site_fract_y
_atom_site_fract_z
Zn1	Zn	-0.179064	0.686766	-0.594023
Zn2	Zn	-0.254202	0.686684	-0.418323
Zn3	Zn	-0.179061	0.611635	-0.418352
Zn4	Zn	-0.254143	0.611597	-0.593955
O5	O	-0.216617	0.649171	-0.506163
O6	O	-0.189058	0.749622	-0.570732
O7	O	-0.244257	0.676711	-0.271306
O8	O	-0.116194	0.621652	-0.441696
O9	O	-0.244261	0.749562	-0.441646
O10	O	-0.116197	0.676850	-0.570760
O11	O	-0.189052	0.621572	-0.271327
O12	O	-0.188995	0.548763	-0.441630
O13	O	-0.244160	0.621586	-0.740985
O14	O	-0.244157	0.548735	-0.570645
O15	O	-0.189001	0.676813	-0.741035
O16	O	-0.317061	0.676674	-0.441581
O17	O	-0.317018	0.621507	-0.570617
C18	C	-0.216569	0.532448	-0.506134
C19	C	-0.216559	0.482514	-0.506147
C20	C	-0.187933	0.125953	-0.573510
C21	C	-0.187897	0.313627	-0.573486
O22	O	-0.163501	0.337914	-0.630756
N23	N	-0.216589	0.337068	-0.506171
C24	C	-0.245294	0.313589	-0.438863
O25	O	-0.269701	0.337834	-0.381614
C26	C	-0.245332	0.125917	-0.438893
C27	C	-0.216635	0.102477	-0.506205
C28	C	-0.159239	0.102514	-0.640817
C29	C	-0.159246	0.055599	-0.640819
C30	C	-0.187948	0.032123	-0.573513
C31	C	-0.216643	0.055562	-0.506206
C32	C	-0.274039	0.102439	-0.371590
C33	C	-0.274047	0.055517	-0.371606
C34	C	-0.245350	0.032078	-0.438918
C35	C	-0.245352	-0.014829	-0.438902
N36	N	-0.216660	-0.038271	-0.506217
C37	C	-0.187958	-0.014795	-0.573522
C38	C	-0.245271	0.412120	-0.438850
C39	C	-0.245261	0.459038	-0.438841
C40	C	-0.187865	0.459072	-0.573466
C41	C	-0.187873	0.412153	-0.573469
C42	C	-0.216579	0.388678	-0.506165
C43	C	-0.187976	-0.113321	-0.573519
C44	C	-0.187985	-0.160241	-0.573512
C45	C	-0.245383	-0.160271	-0.438891
C46	C	-0.245373	-0.113355	-0.438894
C47	C	-0.216668	-0.089882	-0.506217
O48	O	-0.269739	-0.039146	-0.381670
O49	O	-0.163562	-0.039048	-0.630778
C50	C	-0.187926	0.172869	-0.573509
C51	C	-0.216620	0.196308	-0.506202
C52	C	-0.245322	0.172832	-0.438896
C53	C	-0.216610	0.243226	-0.506193
C54	C	-0.187908	0.266702	-0.573499
C55	C	-0.159216	0.243260	-0.640813
C56	C	-0.159224	0.196345	-0.640815
C57	C	-0.274014	0.196274	-0.371582
C58	C	-0.274003	0.243190	-0.371585
C59	C	-0.245301	0.266666	-0.438891
C60	C	-0.333340	0.649089	-0.506111
C61	C	-0.383274	0.649096	-0.506124
C62	C	-0.692928	0.677948	-0.439072
C63	C	-0.880601	0.678004	-0.439113
O64	O	-0.904874	0.702470	-0.382063
N65	N	-0.904059	0.649264	-0.506243
C66	C	-0.880597	0.620510	-0.573371
O67	O	-0.904856	0.596070	-0.630478
C68	C	-0.692925	0.620457	-0.573335
C69	C	-0.669469	0.649196	-0.506194
C70	C	-0.669471	0.706685	-0.371938
C71	C	-0.622556	0.706669	-0.371924
C72	C	-0.599097	0.677916	-0.439045
C73	C	-0.622553	0.649180	-0.506180
C74	C	-0.669463	0.591706	-0.640468
C75	C	-0.622542	0.591696	-0.640455
C76	C	-0.599086	0.620435	-0.573314
C77	C	-0.552179	0.620412	-0.573288
N78	N	-0.528720	0.649151	-0.506159
C79	C	-0.552179	0.677904	-0.439037
C80	C	-0.979128	0.620539	-0.573384
C81	C	-1.026046	0.620552	-0.573392
C82	C	-1.026046	0.678046	-0.439135
C83	C	-0.979127	0.678031	-0.439123
C84	C	-0.955669	0.649279	-0.506255
C85	C	-0.453653	0.677868	-0.439013
C86	C	-0.406733	0.677848	-0.439003
C87	C	-0.406737	0.620356	-0.573263
C88	C	-0.453653	0.620374	-0.573270
C89	C	-0.477109	0.649133	-0.506142
O90	O	-0.527876	0.595961	-0.630316
O91	O	-0.527911	0.702348	-0.381956
C92	C	-0.739843	0.677964	-0.439086
C93	C	-0.763299	0.649227	-0.506221
C94	C	-0.739840	0.620475	-0.573342
C95	C	-0.810217	0.649240	-0.506229
C96	C	-0.833676	0.677992	-0.439108
C97	C	-0.810218	0.706732	-0.371978
C98	C	-0.763302	0.706716	-0.371965
C99	C	-0.763299	0.591735	-0.640472
C100	C	-0.810215	0.591753	-0.640479
C101	C	-0.833674	0.620505	-0.573358
C102	C	-0.099439	0.649264	-0.506239
C103	C	-0.049505	0.649304	-0.506271
C104	C	-0.216574	0.649204	-0.780197
C105	C	-0.216556	0.649219	-0.896974
C106	C	-0.216666	0.766349	-0.506193
C107	C	-0.216687	0.816283	-0.506206
C108	C	-0.187830	0.677977	-0.951863
C109	C	-0.187810	0.677985	-1.061587
C110	C	-0.245247	0.620474	-1.061523
C111	C	-0.245264	0.620464	-0.951801
C112	C	-0.216628	0.649163	-0.233196
C113	C	-0.216520	0.649236	-0.116420
H114	H	-0.135880	0.036518	-0.695636
O115	O	-0.273236	0.592575	-0.898520
C116	C	-0.318011	0.602351	-0.925321
H117	H	-0.320292	0.638241	-0.955501
H118	H	-0.329736	0.578259	-0.988987
C119	C	-0.345203	0.553010	-0.790756
C120	C	-0.348005	0.597092	-0.827816
H121	H	-0.363705	0.549765	-0.730613
H122	H	-0.315037	0.546423	-0.772702
H123	H	-0.354973	0.532939	-0.843821
H124	H	-0.338230	0.617162	-0.774757
H125	H	-0.378170	0.603683	-0.845859
O126	O	-0.159857	0.705857	-1.114950
C127	C	-0.130825	0.680309	-1.178438
H128	H	-0.128041	0.644925	-1.145357
H129	H	-0.144698	0.678757	-1.261588
C130	C	-0.087549	0.745753	-1.220783
C131	C	-0.084128	0.702295	-1.180147
H132	H	-0.058745	0.759316	-1.221842
H133	H	-0.107109	0.762966	-1.178013
H134	H	-0.099112	0.744454	-1.290071
H135	H	-0.072571	0.703595	-1.110856
H136	H	-0.064564	0.685083	-1.222905
O137	O	-0.740465	0.563780	-0.705526
C138	C	-0.713376	0.534760	-0.645638
H139	H	-0.706358	0.550622	-0.566055
H140	H	-0.731490	0.501478	-0.634018
C141	C	-0.677419	0.507107	-0.801164
C142	C	-0.668796	0.526592	-0.703421
H143	H	-0.649920	0.502067	-0.836808
H144	H	-0.695670	0.526658	-0.841513
H145	H	-0.692514	0.479375	-0.791467
H146	H	-0.653706	0.554326	-0.713120
H147	H	-0.650541	0.507046	-0.663075
H148	H	-0.829326	0.730142	-0.317323
O149	O	-0.159943	0.481811	-0.638887
C150	C	-0.134628	0.451067	-0.698335
H151	H	-0.133051	0.417612	-0.655322
H152	H	-0.151125	0.446090	-0.778054
C153	C	-0.088759	0.510485	-0.766521
C154	C	-0.086818	0.469397	-0.713686
H155	H	-0.059268	0.521793	-0.775995
H156	H	-0.105815	0.531199	-0.726473
H157	H	-0.102508	0.506333	-0.832948
H158	H	-0.073074	0.473551	-0.647256
H159	H	-0.069759	0.448684	-0.753724
H160	H	-0.960032	0.701432	-0.384451
O161	O	-0.131400	0.266090	-0.706308
C162	C	-0.157012	0.293244	-0.774028
H163	H	-0.192398	0.279094	-0.780368
H164	H	-0.158541	0.328794	-0.741525
C165	C	-0.091658	0.311378	-0.875555
C166	C	-0.135119	0.293996	-0.883349
H167	H	-0.078153	0.311843	-0.942988
H168	H	-0.074402	0.293085	-0.829929
H169	H	-0.092938	0.341001	-0.848465
H170	H	-0.133838	0.264371	-0.910426
H171	H	-0.152374	0.312284	-0.928982
H172	H	-0.164614	-0.179323	-0.628325
H173	H	-1.045154	0.701457	-0.384482
H174	H	-0.960031	0.597125	-0.628053
O175	O	-0.160050	-0.090593	-0.638948
C176	C	-0.134737	-0.121349	-0.698366
H177	H	-0.133171	-0.154799	-0.655332
H178	H	-0.151228	-0.126331	-0.778090
C179	C	-0.088848	-0.061948	-0.766564
C180	C	-0.086921	-0.103031	-0.713704
H181	H	-0.059354	-0.050649	-0.776031
H182	H	-0.105903	-0.041226	-0.726537
H183	H	-0.102592	-0.066105	-0.832995
H184	H	-0.073182	-0.098873	-0.647270
H185	H	-0.069863	-0.123752	-0.753722
O186	O	-0.273121	0.592588	-1.114946
C187	C	-0.266939	0.598755	-1.223561
H188	H	-0.252240	0.633439	-1.238572
H189	H	-0.242999	0.572130	-1.254703
C190	C	-0.330439	0.552006	-1.261423
C191	C	-0.312388	0.594607	-1.279861
H192	H	-0.358474	0.549445	-1.296153
H193	H	-0.334603	0.547849	-1.188248
H194	H	-0.310485	0.529823	-1.287375
H195	H	-0.332340	0.616788	-1.253897
H196	H	-0.308229	0.598767	-1.353033
O197	O	-0.160004	0.705951	-0.898554
C198	C	-0.185600	0.734935	-0.835060
H199	H	-0.220979	0.737688	-0.868101
H200	H	-0.187155	0.721035	-0.751897
C201	C	-0.120214	0.778272	-0.792825
C202	C	-0.163667	0.781656	-0.833413
H203	H	-0.106684	0.807091	-0.791804
H204	H	-0.102969	0.758744	-0.835599
H205	H	-0.121516	0.766687	-0.723527
H206	H	-0.162364	0.793235	-0.902714
H207	H	-0.180911	0.801187	-0.790650
O208	O	-0.131376	0.125265	-0.706347
C209	C	-0.141253	0.113824	-0.811020
H210	H	-0.158539	0.079760	-0.813126
H211	H	-0.164355	0.140236	-0.846319
C212	C	-0.076256	0.153503	-0.872246
C213	C	-0.097483	0.111662	-0.874833
H214	H	-0.049257	0.152171	-0.911611
H215	H	-0.069602	0.161212	-0.801726
H216	H	-0.095512	0.175509	-0.901659
H217	H	-0.078229	0.089659	-0.845408
H218	H	-0.104132	0.103949	-0.945350
O219	O	-0.273219	0.389370	-0.373510
C220	C	-0.318003	0.400828	-0.396296
H221	H	-0.318943	0.434898	-0.436687
H222	H	-0.333172	0.374428	-0.450239
C223	C	-0.344007	0.361135	-0.244146
C224	C	-0.345162	0.402983	-0.293747
H225	H	-0.360761	0.362463	-0.180891
H226	H	-0.313835	0.353414	-0.228797
H227	H	-0.356647	0.339140	-0.289110
H228	H	-0.332517	0.424976	-0.248789
H229	H	-0.375332	0.410708	-0.309087
O230	O	-0.301959	0.125131	-0.306172
C231	C	-0.327284	0.094340	-0.246764
H232	H	-0.328859	0.060905	-0.289805
H233	H	-0.310797	0.089337	-0.167038
C234	C	-0.373157	0.153695	-0.178563
C235	C	-0.375094	0.112631	-0.231431
H236	H	-0.402647	0.164978	-0.169099
H237	H	-0.356094	0.174439	-0.218583
H238	H	-0.359416	0.149520	-0.112130
H239	H	-0.388830	0.116807	-0.297867
H240	H	-0.392160	0.091887	-0.191421
H241	H	-0.297425	0.036406	-0.316800
O242	O	-0.832928	0.563819	-0.705803
C243	C	-0.802155	0.538434	-0.765021
H244	H	-0.768697	0.556824	-0.768674
H245	H	-0.797203	0.504319	-0.726479
C246	C	-0.861522	0.509356	-0.872351
C247	C	-0.820429	0.531946	-0.876845
H248	H	-0.872794	0.505351	-0.941328
H249	H	-0.882254	0.526457	-0.832453
H250	H	-0.857390	0.480929	-0.840228
H251	H	-0.824562	0.560373	-0.908955
H252	H	-0.799697	0.514849	-0.916751
O253	O	-0.273290	-0.090653	-0.373474
C254	C	-0.298615	-0.121437	-0.314049
H255	H	-0.300191	-0.154876	-0.357071
H256	H	-0.282128	-0.126432	-0.234320
C257	C	-0.344486	-0.062075	-0.245880
C258	C	-0.346425	-0.103144	-0.298725
H259	H	-0.373977	-0.050790	-0.236423
H260	H	-0.327423	-0.041334	-0.285913
H261	H	-0.330745	-0.066243	-0.179446
H262	H	-0.360160	-0.098974	-0.365164
H263	H	-0.363491	-0.123883	-0.258703
O264	O	-0.301924	0.265887	-0.306158
C265	C	-0.327249	0.235099	-0.246742
H266	H	-0.328824	0.201662	-0.289773
H267	H	-0.310762	0.230100	-0.167014
C268	C	-0.373121	0.294458	-0.178556
C269	C	-0.375059	0.253391	-0.231413
H270	H	-0.402611	0.305741	-0.169096
H271	H	-0.356058	0.315200	-0.218583
H272	H	-0.359380	0.290286	-0.112123
H273	H	-0.388794	0.257564	-0.297850
H274	H	-0.392125	0.232650	-0.191397
H275	H	-0.744207	0.730118	-0.317292
H276	H	-0.472752	0.596974	-0.627945
H277	H	-0.135856	0.177265	-0.695627
H278	H	-0.387629	0.596945	-0.627910
H279	H	-0.164505	0.393072	-0.628279
H280	H	-0.297387	0.177165	-0.316773
O281	O	-0.273311	-0.183101	-0.373666
C282	C	-0.302349	-0.210242	-0.433378
H283	H	-0.305159	-0.196083	-0.516108
H284	H	-0.288463	-0.245795	-0.437067
C285	C	-0.345577	-0.228380	-0.280258
C286	C	-0.349032	-0.210987	-0.381866
H287	H	-0.374373	-0.228842	-0.248481
H288	H	-0.326013	-0.210096	-0.240027
H289	H	-0.334004	-0.258006	-0.283346
H290	H	-0.360599	-0.181360	-0.378776
H291	H	-0.368599	-0.229267	-0.422095
H292	H	-0.268624	0.478118	-0.384018
O293	O	-0.599735	0.563830	-0.705780
C294	C	-0.572547	0.589384	-0.773666
H295	H	-0.586658	0.624770	-0.780230
H296	H	-0.536998	0.590925	-0.741177
C297	C	-0.554477	0.523951	-0.874778
C298	C	-0.571810	0.567413	-0.882847
H299	H	-0.554020	0.510398	-0.942125
H300	H	-0.572792	0.506734	-0.829040
H301	H	-0.524854	0.525242	-0.847700
H302	H	-0.601434	0.566121	-0.909912
H303	H	-0.553500	0.584629	-0.928592
O304	O	-0.476365	0.705817	-0.373703
C305	C	-0.445593	0.731182	-0.314471
H306	H	-0.412165	0.712767	-0.310799
H307	H	-0.440566	0.765292	-0.353012
C308	C	-0.504986	0.760304	-0.207174
C309	C	-0.463929	0.737684	-0.202657
H310	H	-0.516297	0.764317	-0.138204
H311	H	-0.525718	0.743217	-0.247083
H312	H	-0.500791	0.788727	-0.239297
H313	H	-0.468126	0.709260	-0.170547
H314	H	-0.443198	0.754767	-0.162741
H315	H	-0.387637	0.701250	-0.384325
H316	H	-0.688567	0.730101	-0.317279
O317	O	-0.599843	0.734633	-0.306680
C318	C	-0.630618	0.760004	-0.247433
H319	H	-0.664047	0.761551	-0.290483
H320	H	-0.635643	0.743575	-0.167602
C321	C	-0.571230	0.805919	-0.179527
C322	C	-0.612287	0.807823	-0.232406
H323	H	-0.559922	0.835416	-0.170253
H324	H	-0.550496	0.788825	-0.219439
H325	H	-0.575423	0.792227	-0.113007
H326	H	-0.608092	0.821510	-0.298930
H327	H	-0.633020	0.824920	-0.192505
H328	H	-1.045140	0.597146	-0.628055
O329	O	-0.692220	0.563839	-0.705848
C330	C	-0.680698	0.573631	-0.810567
H331	H	-0.667779	0.609518	-0.815927
H332	H	-0.653466	0.549537	-0.837966
C333	C	-0.738218	0.524321	-0.874124
C334	C	-0.722354	0.568400	-0.880708
H335	H	-0.763912	0.521092	-0.917392
H336	H	-0.745980	0.517722	-0.803573
H337	H	-0.715521	0.504247	-0.896955
H338	H	-0.745049	0.588472	-0.857866
H339	H	-0.714597	0.575002	-0.951258
