data_functionalizedCrystal
_audit_creation_method	'MofGen! by Chris Wilmer'
_symmetry_space_group_name_H-M	'P1'
_symmetry_Int_Tables_number	1
_symmetry_cell_setting	triclinic
loop_
_symmetry_equiv_pos_as_xyz
  x,y,z
_cell_length_a	9.065218
_cell_length_b	19.288865
_cell_length_c	8.140239
_cell_angle_alpha	89.991261
_cell_angle_beta	90.002802
_cell_angle_gamma	95.923934
loop_
_atom_site_label
_atom_site_type_symbol
_atom_site_fract_x
_atom_site_fract_y
_atom_site_fract_z
O1	O	1.956830	-0.101840	0.136640
O2	O	1.527253	-0.110193	0.136644
O3	O	1.754454	-0.004983	0.136609
O4	O	1.729629	-0.207051	0.136675
O5	O	1.754442	-0.004981	-0.136618
O6	O	1.527240	-0.110192	-0.136583
O7	O	1.956818	-0.101839	-0.136587
Zn8	Zn	1.742027	-0.106015	-0.179966
Zn9	Zn	1.742043	-0.106017	0.180023
O10	O	1.729616	-0.207049	-0.136552
C11	C	1.472288	-0.109390	0.000031
C12	C	1.308529	-0.106989	0.000031
C13	C	1.753649	0.020901	-0.000009
C14	C	1.751251	0.098023	-0.000024
N15	N	1.742027	-0.106014	-0.425648
C16	C	2.011782	-0.102642	0.000030
C17	C	2.175541	-0.105043	0.000041
C18	C	1.730421	-0.232933	0.000070
C19	C	1.732819	-0.310055	0.000095
C20	C	1.884563	0.141684	-0.000033
C21	C	1.882310	0.214149	-0.000007
C22	C	1.746738	0.242949	-0.000005
C23	C	1.613409	0.199278	0.000014
C24	C	1.615666	0.126815	0.000005
C25	C	1.640158	0.352064	-0.095709
C26	C	1.637908	0.424526	-0.095710
C27	C	1.739773	0.466448	0.000032
C28	C	1.843914	0.435901	0.095754
C29	C	1.846170	0.363438	0.095744
C30	C	1.744276	0.321522	0.000007
C31	C	1.870651	0.588685	0.000054
C32	C	1.868392	0.661150	0.000090
C33	C	1.599488	0.646278	0.000094
C34	C	1.601750	0.573814	0.000074
C35	C	1.737335	0.545022	0.000046
N36	N	1.742056	-0.106013	0.425705
H37	H	1.994967	0.118247	-0.000050
Br38	Br	1.496585	0.465976	-0.225626
Br39	Br	1.501901	0.295176	-0.225657
Br40	Br	1.420817	0.514555	0.000085
H41	H	1.507104	0.091265	0.000012
Br42	Br	1.429417	0.238362	0.000038
Br43	Br	2.049332	0.720407	0.000095
H44	H	1.489102	0.669726	0.000104
Br45	Br	1.982172	0.492787	0.225697
Br46	Br	2.063245	0.273415	-0.000012
H47	H	1.981053	0.565241	0.000038
H48	H	1.930963	0.338570	0.173687
