data_functionalizedCrystal
_audit_creation_method	'MofGen! by Chris Wilmer'
_symmetry_space_group_name_H-M	'P1'
_symmetry_Int_Tables_number	1
_symmetry_cell_setting	triclinic
loop_
_symmetry_equiv_pos_as_xyz
  x,y,z
_cell_length_a	16.109301
_cell_length_b	15.186229
_cell_length_c	16.109304
_cell_angle_alpha	89.999066
_cell_angle_beta	83.462059
_cell_angle_gamma	89.999362
loop_
_atom_site_label
_atom_site_type_symbol
_atom_site_fract_x
_atom_site_fract_y
_atom_site_fract_z
O1	O	1.103132	-0.073167	0.106866
O2	O	1.603132	0.426833	0.606866
O3	O	0.861070	-0.073181	0.120165
O4	O	1.361070	0.426819	0.620165
O5	O	0.988749	-0.073174	-0.007515
O6	O	1.488749	0.426826	0.492485
O7	O	0.975452	-0.073174	0.234546
O8	O	1.475452	0.426826	0.734546
O9	O	0.988741	0.073283	-0.007517
O10	O	1.488741	0.573283	0.492483
O11	O	0.861061	0.073277	0.120163
O12	O	1.361061	0.573277	0.620163
O13	O	1.103123	0.073290	0.106864
O14	O	1.603123	0.573290	0.606864
Zn15	Zn	0.982091	0.096537	0.113513
Zn16	Zn	1.482091	0.596537	0.613513
Zn17	Zn	0.982102	-0.096427	0.113516
Zn18	Zn	1.482102	0.403573	0.613516
O19	O	0.975444	0.073283	0.234545
O20	O	1.475444	0.573283	0.734545
C21	C	0.830091	0.000046	0.119626
C22	C	1.330091	0.500046	0.619626
C23	C	0.737795	0.000041	0.118010
C24	C	1.237795	0.500041	0.618010
N25	N	0.982089	0.228229	0.113511
N26	N	1.482089	0.728229	0.613511
N27	N	0.982110	-0.228120	0.113511
N28	N	1.482110	0.271880	0.613511
C29	C	0.515524	0.000051	0.190018
C30	C	1.015524	0.500051	0.690018
C31	C	0.428803	0.000057	0.188494
C32	C	0.928803	0.500057	0.688494
C33	C	0.448676	0.000053	0.037005
C34	C	0.948676	0.500053	0.537005
C35	C	0.535395	0.000054	0.038530
C36	C	1.035395	0.500054	0.538530
C37	C	0.568816	0.000048	0.115039
C38	C	1.068816	0.500048	0.615039
C39	C	0.395377	0.000053	0.111990
C40	C	0.895377	0.500053	0.611990
C41	C	0.301351	0.000059	0.110337
C42	C	0.801351	0.500059	0.610337
C43	C	0.662848	0.000044	0.116693
C44	C	1.162848	0.500044	0.616693
C45	C	1.134102	0.000061	0.107404
C46	C	1.634102	0.500061	0.607404
C47	C	1.226398	0.000061	0.109019
C48	C	1.726398	0.500061	0.609019
C49	C	0.988206	0.000052	-0.038491
C50	C	1.488206	0.500052	0.461509
C51	C	0.986590	0.000046	-0.130786
C52	C	1.486590	0.500046	0.369214
C53	C	1.038645	0.453955	0.056993
C54	C	1.538645	0.953955	0.556993
C55	C	1.038648	0.546145	0.056991
C56	C	1.538648	1.046145	0.556991
C57	C	0.925549	0.546148	0.170032
C58	C	1.425549	1.046148	0.670032
C59	C	0.925543	0.453960	0.170029
C60	C	1.425543	0.953960	0.670029
C61	C	0.982096	0.407866	0.113511
C62	C	1.482096	0.907866	0.613511
C63	C	0.982104	0.592243	0.113512
C64	C	1.482104	1.092243	0.613512
C65	C	0.982107	0.692200	0.113510
C66	C	1.482107	1.192200	0.613510
C67	C	0.982092	0.307903	0.113511
C68	C	1.482092	0.807903	0.613511
C69	C	0.982861	-0.079784	-0.343123
C70	C	1.482861	0.420216	0.156877
C71	C	0.981335	-0.079784	-0.429843
C72	C	1.481335	0.420216	0.070157
C73	C	0.981330	0.079892	-0.429842
C74	C	1.481330	0.579892	0.070158
C75	C	0.982850	0.079890	-0.343122
C76	C	1.482850	0.579890	0.156878
C77	C	0.983620	0.000050	-0.299766
C78	C	1.483620	0.500050	0.200234
C79	C	0.980573	0.000052	-0.473205
C80	C	1.480573	0.500052	0.026795
C81	C	0.978919	0.000053	-0.567231
C82	C	1.478919	0.500053	-0.067231
C83	C	0.985273	0.000048	-0.205734
C84	C	1.485273	0.500048	0.294266
C85	C	0.975987	0.000055	0.265520
C86	C	1.475987	0.500055	0.765520
C87	C	0.977603	0.000055	0.357816
C88	C	1.477603	0.500055	0.857816
H89	H	0.542732	0.000053	0.252316
H90	H	1.042732	0.500053	0.752316
O91	O	0.980628	0.157367	-0.472095
O92	O	1.480628	0.657367	0.027905
C93	C	0.978249	0.228137	-0.605685
C94	C	1.478249	0.728137	-0.105685
C95	C	0.979055	0.140333	-0.557942
C96	C	1.479055	0.640333	-0.057942
H97	H	0.976960	0.214396	-0.675098
H98	H	1.476960	0.714396	-0.175098
H99	H	1.036711	0.267515	-0.596319
H100	H	1.536711	0.767515	-0.096319
H101	H	0.920414	0.267510	-0.580965
H102	H	1.420414	0.767510	-0.080965
H103	H	1.036852	0.100888	-0.582631
H104	H	1.536852	0.600888	-0.082631
H105	H	0.920555	0.101022	-0.567306
H106	H	1.420555	0.601022	-0.067306
O107	O	0.983474	0.157502	-0.301076
O108	O	1.483474	0.657502	0.198924
C109	C	0.911922	0.293947	-0.265054
C110	C	1.411922	0.793947	0.234946
C111	C	0.911125	0.206099	-0.312725
C112	C	1.411125	0.706099	0.187275
H113	H	0.853426	0.333254	-0.274441
H114	H	1.353426	0.833254	0.225559
H115	H	0.969732	0.333382	-0.289736
H116	H	1.469732	0.833382	0.210264
H117	H	0.913178	0.280206	-0.195635
H118	H	1.413178	0.780206	0.304365
H119	H	0.909840	0.219760	-0.382151
H120	H	1.409840	0.719760	0.117849
H121	H	0.853321	0.166691	-0.287975
H122	H	1.353321	0.666691	0.212025
H123	H	0.879506	0.583687	0.216049
H124	H	1.379506	1.083687	0.716049
H125	H	0.421454	0.000063	-0.025285
H126	H	0.921454	0.500063	0.474715
O127	O	0.587051	0.000011	-0.034386
O128	O	1.087051	0.500011	0.465614
C129	C	0.597618	0.000061	-0.184803
C130	C	1.097618	0.500061	0.315197
C131	C	0.539024	0.000084	-0.102294
C132	C	1.039024	0.500084	0.397706
H133	H	0.558812	0.000139	-0.239728
H134	H	1.058812	0.500139	0.260272
H135	H	0.638701	-0.061244	-0.187930
H136	H	1.138701	0.438756	0.312070
H137	H	0.638729	0.061340	-0.187829
H138	H	1.138729	0.561340	0.312171
H139	H	0.497860	-0.061153	-0.099213
H140	H	0.997860	0.438847	0.400787
H141	H	0.497997	0.061430	-0.099201
H142	H	0.997997	0.561430	0.400799
O143	O	0.377154	0.000018	0.261406
O144	O	0.877154	0.500018	0.761406
C145	C	0.366600	0.000069	0.411822
C146	C	0.866600	0.500069	0.911822
C147	C	0.425188	0.000092	0.329309
C148	C	0.925188	0.500092	0.829309
H149	H	0.405412	0.000148	0.466743
H150	H	0.905412	0.500148	0.966743
H151	H	0.325518	-0.061235	0.414955
H152	H	0.825518	0.438765	0.914955
H153	H	0.325489	0.061349	0.414850
H154	H	0.825489	0.561349	0.914850
H155	H	0.466352	-0.061146	0.326226
H156	H	0.966352	0.438854	0.826226
H157	H	0.466214	0.061437	0.326210
H158	H	0.966214	0.561437	0.826210
H159	H	1.084693	0.416427	0.010972
H160	H	1.584693	0.916427	0.510972
H161	H	1.084694	0.583668	0.010969
H162	H	1.584694	1.083668	0.510969
O163	O	0.870576	0.409320	0.225015
O164	O	1.370576	0.909320	0.725015
C165	C	0.758364	0.419043	0.337102
C166	C	1.258364	0.919043	0.837102
C167	C	0.820579	0.469708	0.274896
C168	C	1.320579	0.969708	0.774896
H169	H	0.717913	0.467845	0.377435
H170	H	1.217913	0.967845	0.877435
H171	H	0.794200	0.375900	0.378701
H172	H	1.294200	0.875900	0.878701
H173	H	0.716879	0.375866	0.301173
H174	H	1.216879	0.875866	0.801173
H175	H	0.862079	0.512933	0.310757
H176	H	1.362079	1.012933	0.810757
H177	H	0.784691	0.512796	0.233298
H178	H	1.284691	1.012796	0.733298
H179	H	0.983485	-0.144796	-0.307824
H180	H	1.483485	0.355204	0.192176
O181	O	0.980638	-0.157413	-0.471836
O182	O	1.480638	0.342587	0.028164
C183	C	0.980754	-0.315790	-0.462673
C184	C	1.480754	0.184210	0.037327
C185	C	0.981567	-0.227934	-0.415016
C186	C	1.481567	0.272066	0.084984
H187	H	0.981487	-0.372829	-0.416753
H188	H	1.481487	0.127171	0.083247
H189	H	1.038204	-0.319841	-0.510880
H190	H	1.538204	0.180159	-0.010880
H191	H	0.921904	-0.319735	-0.495668
H192	H	1.421904	0.180265	0.004332
H193	H	1.040379	-0.223930	-0.381971
H194	H	1.540379	0.276070	0.118029
H195	H	0.924079	-0.223920	-0.366857
H196	H	1.424079	0.276080	0.133143
