data_functionalizedCrystal
_audit_creation_method	'MofGen! by Chris Wilmer'
_symmetry_space_group_name_H-M	'P1'
_symmetry_Int_Tables_number	1
_symmetry_cell_setting	triclinic
loop_
_symmetry_equiv_pos_as_xyz
  x,y,z
_cell_length_a	12.594517
_cell_length_b	25.639239
_cell_length_c	12.594510
_cell_angle_alpha	89.959750
_cell_angle_beta	89.978880
_cell_angle_gamma	90.038486
loop_
_atom_site_label
_atom_site_type_symbol
_atom_site_fract_x
_atom_site_fract_y
_atom_site_fract_z
Zn1	Zn	1.627097	-0.208106	-0.601816
Zn2	Zn	1.626919	-0.295558	-0.423820
Zn3	Zn	1.449102	-0.208138	-0.423845
Zn4	Zn	1.449013	-0.295512	-0.601750
O5	O	1.538033	-0.251829	-0.512808
O6	O	1.776019	-0.219713	-0.578222
O7	O	1.603293	-0.283994	-0.274877
O8	O	1.472825	-0.134969	-0.447492
O9	O	1.775888	-0.283963	-0.447448
O10	O	1.603598	-0.134945	-0.578247
O11	O	1.472652	-0.219767	-0.274896
O12	O	1.300144	-0.219722	-0.447427
O13	O	1.472674	-0.283885	-0.750704
O14	O	1.300079	-0.283916	-0.578133
O15	O	1.603512	-0.219668	-0.750753
O16	O	1.603207	-0.368717	-0.447384
O17	O	1.472501	-0.368683	-0.578108
C18	C	1.261492	-0.251818	-0.512776
C19	C	1.143186	-0.251826	-0.512788
C20	C	1.073938	-0.216864	-0.441833
C21	C	1.003089	-0.264557	-0.415643
C22	C	1.003237	-0.204156	-0.538996
C23	C	1.073895	-0.299545	-0.486547
C24	C	1.074050	-0.239112	-0.609946
C25	C	1.003232	-0.286838	-0.583793
C26	C	1.537854	-0.387671	-0.512759
C27	C	1.537875	-0.445785	-0.512774
C28	C	1.606269	-0.806153	-0.444855
C29	C	1.606310	-0.860757	-0.444870
O30	O	1.664276	-0.888998	-0.387070
N31	N	1.538220	-0.888068	-0.512878
C32	C	1.470091	-0.860771	-0.580885
O33	O	1.412179	-0.889014	-0.638733
C34	C	1.470056	-0.806167	-0.580875
C35	C	1.538144	-0.778860	-0.512854
C36	C	1.674352	-0.778846	-0.376841
C37	C	1.674309	-0.724245	-0.376826
C38	C	1.606183	-0.696952	-0.444825
C39	C	1.538101	-0.724259	-0.512839
C40	C	1.401934	-0.778871	-0.648886
C41	C	1.401905	-0.724264	-0.648871
C42	C	1.469992	-0.696957	-0.580850
C43	C	1.469932	-0.642366	-0.580822
N44	N	1.538023	-0.615056	-0.512814
C45	C	1.606148	-0.642349	-0.444815
C46	C	1.470171	-0.975441	-0.580901
C47	C	1.470200	-1.030044	-0.580906
C48	C	1.606421	-1.030027	-0.444892
C49	C	1.606386	-0.975423	-0.444883
C50	C	1.538262	-0.948131	-0.512892
C51	C	1.606052	-0.527684	-0.444787
C52	C	1.606000	-0.473078	-0.444775
C53	C	1.469784	-0.473100	-0.580792
C54	C	1.469831	-0.527701	-0.580801
C55	C	1.537974	-0.554991	-0.512795
O56	O	1.411999	-0.614090	-0.638596
O57	O	1.664060	-0.614099	-0.386986
C58	C	1.815654	-0.251839	-0.512840
C59	C	1.933959	-0.251844	-0.512853
C60	C	1.538103	-0.251768	-0.790429
C61	C	1.538133	-0.251742	-0.908734
C62	C	1.538241	-0.115455	-0.512880
C63	C	1.538330	-0.057341	-0.512911
C64	C	1.609317	-0.216812	-0.978014
C65	C	1.512251	-0.204015	-1.048808
C66	C	1.635256	-0.264504	-1.048740
C67	C	1.441016	-0.238920	-0.977970
C68	C	1.564086	-0.299431	-0.977895
C69	C	1.466953	-0.286652	-1.048657
C70	C	1.538024	-0.251851	-0.236267
C71	C	1.538200	-0.251729	-0.117962
H72	H	1.661445	-0.450846	-0.389381
C73	C	1.177609	-0.373612	-0.539697
C74	C	1.115612	-0.353993	-0.456525
H75	H	1.203369	-0.407223	-0.521156
H76	H	1.135660	-0.376062	-0.602154
H77	H	1.235856	-0.350858	-0.552176
H78	H	1.057361	-0.376745	-0.444051
H79	H	1.157563	-0.351546	-0.394050
C80	C	1.808973	-0.729730	-0.242404
C81	C	1.749170	-0.694234	-0.302071
H82	H	1.855199	-0.711204	-0.196260
H83	H	1.762635	-0.751062	-0.201650
H84	H	1.849658	-0.750992	-0.288842
H85	H	1.708479	-0.672974	-0.255633
H86	H	1.795513	-0.672892	-0.342829
C87	C	1.667092	-1.113727	-0.384665
C88	C	1.681403	-1.060034	-0.370240
H89	H	1.713411	-1.132252	-0.338610
H90	H	1.595631	-1.122735	-0.368935
H91	H	1.682549	-1.122608	-0.456232
H92	H	1.665939	-1.051153	-0.298674
H93	H	1.752881	-1.051022	-0.385962
H94	H	1.717362	-0.275302	-1.079830
C95	C	0.998049	-0.328665	-0.276646
C96	C	0.960908	-0.279087	-0.304801
H97	H	0.971986	-0.337629	-0.208223
H98	H	0.973887	-0.353530	-0.327031
H99	H	1.073465	-0.328456	-0.275572
H100	H	0.885491	-0.279297	-0.305883
H101	H	0.985063	-0.254216	-0.254403
H102	H	1.406714	-0.316185	-1.079480
H103	H	1.104983	-0.187326	-0.381755
H104	H	1.490323	-0.163680	-1.079956
C105	C	1.331124	-0.224392	-0.825016
C106	C	1.330142	-0.224274	-0.936190
H107	H	1.262678	-0.215346	-0.799224
H108	H	1.349643	-0.258164	-0.800154
H109	H	1.381707	-0.199738	-0.800275
H110	H	1.279564	-0.248931	-0.960931
H111	H	1.311610	-0.190497	-0.961062
C112	C	1.695482	-0.367159	-0.971463
C113	C	1.593727	-0.353865	-0.935803
H114	H	1.713790	-0.400763	-0.945468
H115	H	1.696357	-0.367474	-1.046870
H116	H	1.745311	-0.342260	-0.946217
H117	H	1.543896	-0.378763	-0.961055
H118	H	1.592844	-0.353554	-0.860380
H119	H	0.972383	-0.316446	-0.643825
H120	H	1.346431	-0.702046	-0.704256
H121	H	1.105242	-0.228332	-0.692058
C122	C	1.740685	-0.522167	-0.310329
C123	C	1.680947	-0.557676	-0.370027
H124	H	1.786912	-0.540684	-0.264168
H125	H	1.781355	-0.500833	-0.356738
H126	H	1.694297	-0.500908	-0.269580
H127	H	1.727335	-0.578932	-0.410782
H128	H	1.640274	-0.579019	-0.323612
H129	H	0.972142	-0.163840	-0.561099
H130	H	1.661829	-0.953193	-0.389495
C131	C	1.735027	-0.862537	-0.316552
C132	C	1.749320	-0.808841	-0.302165
H133	H	1.781338	-0.881051	-0.270469
H134	H	1.663564	-0.871547	-0.300835
H135	H	1.750506	-0.871430	-0.388108
H136	H	1.733834	-0.799947	-0.230610
H137	H	1.820800	-0.799827	-0.317875
C138	C	1.335552	-1.024562	-0.715348
C139	C	1.395350	-1.060056	-0.655670
H140	H	1.289350	-1.043090	-0.761513
H141	H	1.294853	-1.003307	-0.668926
H142	H	1.381903	-1.003223	-0.756091
H143	H	1.349000	-1.081393	-0.614921
H144	H	1.436053	-1.081320	-0.702098
H145	H	1.414688	-0.953223	-0.636280
H146	H	1.346484	-0.801096	-0.704271
H147	H	1.414313	-0.450870	-0.636153
C148	C	1.335186	-0.522230	-0.715249
C149	C	1.394990	-0.557720	-0.655569
H150	H	1.288993	-0.540761	-0.761419
H151	H	1.294476	-0.500979	-0.668830
H152	H	1.381533	-0.500887	-0.755988
H153	H	1.348643	-0.579061	-0.614824
H154	H	1.435703	-0.578980	-0.701994
H155	H	1.669409	-0.187256	-0.946992
