data_functionalizedCrystal
_audit_creation_method	'MofGen! by Chris Wilmer'
_symmetry_space_group_name_H-M	'P1'
_symmetry_Int_Tables_number	1
_symmetry_cell_setting	triclinic
loop_
_symmetry_equiv_pos_as_xyz
  x,y,z
_cell_length_a	12.759401
_cell_length_b	18.215405
_cell_length_c	12.759393
_cell_angle_alpha	90.033485
_cell_angle_beta	90.020938
_cell_angle_gamma	90.024257
loop_
_atom_site_label
_atom_site_type_symbol
_atom_site_fract_x
_atom_site_fract_y
_atom_site_fract_z
Zn1	Zn	1.606208	-0.292919	0.593998
Zn2	Zn	2.106208	0.207081	1.093998
Zn3	Zn	1.606074	-0.416003	0.418309
Zn4	Zn	2.106074	0.083997	0.918309
Zn5	Zn	1.430506	-0.292958	0.418333
Zn6	Zn	1.930506	0.207042	0.918333
Zn7	Zn	1.430474	-0.415951	0.593946
Zn8	Zn	1.930474	0.084049	1.093946
O9	O	1.518316	-0.354458	0.506147
O10	O	2.018316	0.145542	1.006147
O11	O	1.753211	-0.309251	0.570704
O12	O	2.253211	0.190749	1.070704
O13	O	1.582743	-0.399718	0.271291
O14	O	2.082743	0.100282	0.771291
O15	O	1.453883	-0.189968	0.441668
O16	O	1.953883	0.310032	0.941668
O17	O	1.753113	-0.399681	0.441626
O18	O	2.253113	0.100319	0.941626
O19	O	1.582970	-0.189940	0.570728
O20	O	2.082970	0.310060	1.070728
O21	O	1.453754	-0.309318	0.271309
O22	O	1.953754	0.190682	0.771309
O23	O	1.283481	-0.309268	0.441617
O24	O	1.783481	0.190732	0.941617
O25	O	1.453827	-0.399593	0.740974
O26	O	1.953827	0.100407	1.240974
O27	O	1.283457	-0.399631	0.570639
O28	O	1.783457	0.100369	1.070639
O29	O	1.582938	-0.309201	0.741013
O30	O	2.082938	0.190799	1.241013
O31	O	1.582711	-0.518980	0.441576
O32	O	2.082711	-0.018980	0.941576
O33	O	1.453698	-0.518942	0.570616
O34	O	1.953698	-0.018942	1.070616
C35	C	1.245348	-0.354449	0.506126
C36	C	1.745348	0.145551	1.006126
C37	C	1.128572	-0.354463	0.506142
C38	C	1.628572	0.145537	1.006142
C39	C	1.073725	-0.401586	0.573218
C40	C	1.573725	0.098414	1.073218
C41	C	0.964000	-0.401589	0.573239
C42	C	1.464000	0.098411	1.073239
C43	C	0.963980	-0.307343	0.439099
C44	C	1.463980	0.192657	0.939099
C45	C	1.073702	-0.307337	0.439084
C46	C	1.573702	0.192663	0.939084
C47	C	1.518215	-0.545664	0.506111
C48	C	2.018215	-0.045664	1.006111
C49	C	1.518268	-0.627463	0.506130
C50	C	2.018268	-0.127463	1.006130
C51	C	1.585515	-0.815581	0.573423
C52	C	2.085515	-0.315581	1.073423
C53	C	1.585554	-0.892439	0.573443
C54	C	2.085554	-0.392439	1.073443
C55	C	1.451246	-0.892583	0.438936
C56	C	1.951246	-0.392583	0.938936
C57	C	1.451203	-0.815725	0.438922
C58	C	1.951203	-0.315725	0.938922
C59	C	1.518344	-0.777226	0.506164
C60	C	2.018344	-0.277226	1.006164
C61	C	1.518425	-0.930942	0.506198
C62	C	2.018425	-0.430942	1.006198
C63	C	1.518465	-1.014276	0.506218
C64	C	2.018465	-0.514276	1.006218
C65	C	1.518302	-0.693887	0.506145
C66	C	2.018302	-0.193887	1.006145
C67	C	1.792349	-0.354467	0.506168
C68	C	2.292349	0.145533	1.006168
C69	C	1.909125	-0.354471	0.506178
C70	C	2.409125	0.145529	1.006178
C71	C	1.518394	-0.354387	0.780180
C72	C	2.018394	0.145613	1.280180
C73	C	1.518428	-0.354357	0.896957
C74	C	2.018428	0.145643	1.396957
C75	C	1.518445	-0.162505	0.506206
C76	C	2.018445	0.337495	1.006206
C77	C	1.518501	-0.080706	0.506231
C78	C	2.018501	0.419294	1.006231
C79	C	1.518298	-0.354475	0.233179
C80	C	2.018298	0.145525	0.733179
C81	C	1.518468	-0.354298	0.116403
C82	C	2.018468	0.145702	0.616403
C83	C	1.585661	-0.307283	0.951841
C84	C	2.085661	0.192717	1.451841
C85	C	1.585679	-0.307251	1.061565
C86	C	2.085679	0.192749	1.561565
C87	C	1.451227	-0.401374	1.061512
C88	C	1.951227	0.098626	1.561512
C89	C	1.451205	-0.401402	0.951790
C90	C	1.951205	0.098598	1.451790
H91	H	0.919292	-0.268976	0.384501
H92	H	1.419292	0.231024	0.884501
Br93	Br	1.148145	-0.243371	0.348055
Br94	Br	1.648145	0.256629	0.848055
H95	H	1.640184	-0.784237	0.628177
H96	H	2.140184	-0.284237	1.128177
Br97	Br	1.676889	-0.243435	0.877427
Br98	Br	2.176889	0.256565	1.377427
Br99	Br	1.676710	-0.944489	0.664735
Br100	Br	2.176710	-0.444489	1.164735
Br101	Br	1.360023	-0.763668	0.347648
Br102	Br	1.860023	-0.263668	0.847648
H103	H	1.396584	-0.923938	0.384188
H104	H	1.896584	-0.423938	0.884188
Br105	Br	1.676935	-0.243367	1.136046
Br106	Br	2.176935	0.256633	1.636046
Br107	Br	1.360005	-0.465220	1.135935
Br108	Br	1.860005	0.034780	1.635935
H109	H	1.396448	-0.439735	0.907103
H110	H	1.896448	0.060265	1.407103
H111	H	1.118396	-0.439957	0.627824
H112	H	1.618396	0.060043	1.127824
H113	H	0.919349	-0.439960	0.627861
H114	H	1.419349	0.060040	1.127861
