data_functionalizedCrystal
_audit_creation_method	'MofGen! by Chris Wilmer'
_symmetry_space_group_name_H-M	'P1'
_symmetry_Int_Tables_number	1
_symmetry_cell_setting	triclinic
loop_
_symmetry_equiv_pos_as_xyz
  x,y,z
_cell_length_a	16.625546
_cell_length_b	25.639242
_cell_length_c	16.625539
_cell_angle_alpha	89.972728
_cell_angle_beta	90.028532
_cell_angle_gamma	89.982506
loop_
_atom_site_label
_atom_site_type_symbol
_atom_site_fract_x
_atom_site_fract_y
_atom_site_fract_z
Zn1	Zn	-0.321122	-0.799303	0.456117
Zn2	Zn	-0.455961	-0.799246	0.321280
Zn3	Zn	-0.321134	-0.711874	0.321274
Zn4	Zn	-0.455905	-0.711849	0.456045
O5	O	-0.388530	-0.755568	0.388679
O6	O	-0.339027	-0.872461	0.438263
O7	O	-0.438104	-0.787642	0.208446
O8	O	-0.208300	-0.723506	0.339189
O9	O	-0.438092	-0.872418	0.339199
O10	O	-0.208291	-0.787740	0.438258
O11	O	-0.339048	-0.723450	0.208442
O12	O	-0.338993	-0.638705	0.339119
O13	O	-0.437997	-0.723464	0.568887
O14	O	-0.438009	-0.638687	0.438135
O15	O	-0.338973	-0.787716	0.568940
O16	O	-0.568786	-0.787618	0.339129
O17	O	-0.568744	-0.723408	0.438141
C18	C	-0.388497	-0.619725	0.388619
C19	C	-0.388502	-0.561611	0.388613
C20	C	-0.598021	-0.755518	0.388645
C21	C	-0.687642	-0.755545	0.388658
C22	C	-1.015818	-0.755636	0.388742
C23	C	-0.924509	-0.755609	0.388721
C24	C	-0.851733	-0.755590	0.388699
C25	C	-0.760419	-0.755564	0.388679
C26	C	-0.440166	-0.201248	0.440167
C27	C	-0.440170	-0.146643	0.440177
O28	O	-0.484062	-0.118406	0.483975
N29	N	-0.388544	-0.119329	0.388707
C30	C	-0.336904	-0.146621	0.337229
O31	O	-0.292991	-0.118374	0.293451
C32	C	-0.336896	-0.201225	0.337223
C33	C	-0.388532	-0.228536	0.388691
C34	C	-0.491797	-0.228560	0.491631
C35	C	-0.491794	-0.283160	0.491619
C36	C	-0.440160	-0.310449	0.440143
C37	C	-0.388529	-0.283137	0.388679
C38	C	-0.285253	-0.228516	0.285750
C39	C	-0.285249	-0.283123	0.285748
C40	C	-0.336885	-0.310435	0.337216
C41	C	-0.336891	-0.365026	0.337191
N42	N	-0.388518	-0.392341	0.388661
C43	C	-0.440152	-0.365052	0.440137
C44	C	-0.336923	-0.031951	0.337246
C45	C	-0.336934	0.022652	0.337248
C46	C	-0.440200	0.022626	0.440197
C47	C	-0.440192	-0.031978	0.440191
C48	C	-0.388550	-0.059265	0.388716
C49	C	-0.440142	-0.479717	0.440107
C50	C	-0.440136	-0.534323	0.440089
C51	C	-0.336868	-0.534292	0.337143
C52	C	-0.336876	-0.479691	0.337158
C53	C	-0.388516	-0.452405	0.388647
O54	O	-0.293020	-0.393298	0.293418
O55	O	-0.484050	-0.393306	0.483915
C56	C	-0.178221	-0.755632	0.388731
C57	C	-0.088600	-0.755659	0.388753
C58	C	-0.388477	-0.755593	0.598988
C59	C	-0.388454	-0.755604	0.688609
C60	C	-0.388561	0.108059	0.388730
C61	C	-0.388566	0.049945	0.388727
C62	C	-0.388525	-0.755572	0.179188
C63	C	-0.388321	-0.755663	0.089568
C64	C	-0.388437	-0.755613	0.761392
C65	C	-0.388407	-0.755625	0.852700
C66	C	-0.388378	-0.755637	0.925477
C67	C	-0.388349	-0.755650	1.016791
H68	H	-0.482187	-0.556557	0.482000
H69	H	-0.294832	-0.457453	0.295247
H70	H	-0.482190	-0.457507	0.482037
Br71	Br	-0.561871	-0.320218	0.561475
Br72	Br	-0.266835	-0.068979	0.267376
Br73	Br	-0.561881	-0.191535	0.561502
Br74	Br	-0.215167	-0.191464	0.215901
Br75	Br	-0.266867	0.059711	0.267383
H76	H	-0.243190	-0.305338	0.243835
H77	H	-0.294831	-0.556520	0.295230
H78	H	-0.482237	-0.054211	0.482102
Br79	Br	-0.510269	0.059671	0.510065
