data_functionalizedCrystal
_audit_creation_method	'MofGen! by Chris Wilmer'
_symmetry_space_group_name_H-M	'P1'
_symmetry_Int_Tables_number	1
_symmetry_cell_setting	triclinic
loop_
_symmetry_equiv_pos_as_xyz
  x,y,z
_cell_length_a	11.169417
_cell_length_b	11.169416
_cell_length_c	11.169409
_cell_angle_alpha	89.970483
_cell_angle_beta	90.019824
_cell_angle_gamma	89.994884
loop_
_atom_site_label
_atom_site_type_symbol
_atom_site_fract_x
_atom_site_fract_y
_atom_site_fract_z
Zn1	Zn	-1.835013	-0.477682	-0.678566
Zn2	Zn	-1.501680	-0.144348	-0.345233
Zn3	Zn	-1.168347	0.188985	-0.011900
Zn4	Zn	-1.834924	-0.678422	-0.477893
Zn5	Zn	-1.501591	-0.345089	-0.144560
Zn6	Zn	-1.168257	-0.011756	0.188774
Zn7	Zn	-1.634299	-0.477755	-0.477901
Zn8	Zn	-1.300966	-0.144422	-0.144567
Zn9	Zn	-0.967632	0.188912	0.188766
Zn10	Zn	-1.634328	-0.678325	-0.678538
Zn11	Zn	-1.300995	-0.344991	-0.345205
Zn12	Zn	-0.967661	-0.011658	-0.011871
O13	O	-1.734641	-0.578046	-0.578224
O14	O	-1.401308	-0.244713	-0.244891
O15	O	-1.067974	0.088621	0.088442
O16	O	-2.002951	-0.504321	-0.651955
O17	O	-1.669618	-0.170987	-0.318622
O18	O	-1.336284	0.162346	0.014711
O19	O	-1.808261	-0.651875	-0.309944
O20	O	-1.474928	-0.318542	0.023389
O21	O	-1.141595	0.014792	0.356722
O22	O	-1.660950	-0.309796	-0.504534
O23	O	-1.327616	0.023538	-0.171201
O24	O	-0.994283	0.356871	0.162132
O25	O	-2.002885	-0.651804	-0.504522
O26	O	-1.669552	-0.318471	-0.171188
O27	O	-1.336219	0.014863	0.162145
O28	O	-1.808413	-0.309742	-0.651963
O29	O	-1.475080	0.023592	-0.318629
O30	O	-1.141747	0.356925	0.014704
O31	O	-1.660863	-0.504445	-0.309950
O32	O	-1.327530	-0.171112	0.023384
O33	O	-0.994196	0.162221	0.356717
O34	O	-1.466353	-0.504351	-0.504507
O35	O	-1.133020	-0.171017	-0.171174
O36	O	-0.799687	0.162316	0.162160
O37	O	-1.660999	-0.651637	-0.846492
O38	O	-1.327665	-0.318304	-0.513158
O39	O	-0.994332	0.015029	-0.179825
O40	O	-1.466374	-0.651708	-0.651914
O41	O	-1.133041	-0.318375	-0.318581
O42	O	-0.799708	0.014958	0.014752
O43	O	-1.808441	-0.504226	-0.846512
O44	O	-1.475108	-0.170893	-0.513179
O45	O	-1.141775	0.162441	-0.179846
O46	O	-1.808289	-0.846359	-0.504494
O47	O	-1.474956	-0.513026	-0.171161
O48	O	-1.141623	-0.179692	0.162173
O49	O	-1.660912	-0.846287	-0.651907
O50	O	-1.327579	-0.512954	-0.318574
O51	O	-0.994245	-0.179621	0.014760
C52	C	-1.734627	-0.889871	-0.578223
C53	C	-1.401293	-0.556537	-0.244889
C54	C	-1.067960	-0.223204	0.088444
C55	C	-1.734730	-1.023271	-0.578262
C56	C	-1.401397	-0.689937	-0.244929
C57	C	-1.068064	-0.356604	0.088405
C58	C	-1.422816	-0.578028	-0.578209
C59	C	-1.089483	-0.244694	-0.244876
C60	C	-0.756150	0.088639	0.088458
C61	C	-1.289416	-0.578049	-0.578231
C62	C	-0.956083	-0.244715	-0.244898
C63	C	-0.622750	0.088618	0.088436
C64	C	-1.734733	-0.577913	-0.891267
C65	C	-1.401400	-0.244579	-0.557934
C66	C	-1.068067	0.088754	-0.224600
C67	C	-1.734772	-0.577856	-1.024667
C68	C	-1.401439	-0.244523	-0.691334
C69	C	-1.068106	0.088811	-0.358001
C70	C	-2.047683	-0.578065	-0.578241
C71	C	-1.714350	-0.244732	-0.244907
C72	C	-1.381017	0.088602	0.088426
C73	C	-2.181083	-0.578073	-0.578248
C74	C	-1.847750	-0.244740	-0.244914
C75	C	-1.514417	0.088593	0.088419
C76	C	-1.734688	-0.265004	-0.578252
C77	C	-1.401355	0.068330	-0.244919
C78	C	-1.068021	0.401663	0.088414
C79	C	-1.734708	-0.131604	-0.578264
C80	C	-1.401375	0.201730	-0.244931
C81	C	-1.068042	0.535063	0.088402
C82	C	-1.734618	-0.578092	-0.266400
C83	C	-1.401285	-0.244759	0.066934
C84	C	-1.067952	0.088575	0.400267
C85	C	-1.734811	-0.577811	-0.133000
C86	C	-1.401478	-0.244477	0.200333
C87	C	-1.068145	0.088856	0.533666
