data_functionalizedCrystal
_audit_creation_method	'MofGen! by Chris Wilmer'
_symmetry_space_group_name_H-M	'P1'
_symmetry_Int_Tables_number	1
_symmetry_cell_setting	triclinic
loop_
_symmetry_equiv_pos_as_xyz
  x,y,z
_cell_length_a	11.792254
_cell_length_b	10.868271
_cell_length_c	11.792253
_cell_angle_alpha	89.993028
_cell_angle_beta	84.198598
_cell_angle_gamma	89.994440
loop_
_atom_site_label
_atom_site_type_symbol
_atom_site_fract_x
_atom_site_fract_y
_atom_site_fract_z
O1	O	-1.506908	0.102373	-0.155630
O2	O	-1.006908	0.602373	0.344370
O3	O	-1.176569	0.102370	-0.171648
O4	O	-0.676569	0.602370	0.328352
O5	O	-1.349747	0.102346	0.001530
O6	O	-0.849747	0.602346	0.501530
O7	O	-1.333729	0.102397	-0.328808
O8	O	-0.833729	0.602397	0.171192
O9	O	-1.349732	-0.102298	0.001525
O10	O	-0.849732	0.397702	0.501525
O11	O	-1.176553	-0.102275	-0.171653
O12	O	-0.676553	0.397725	0.328347
O13	O	-1.506892	-0.102271	-0.155635
O14	O	-1.006892	0.397729	0.344365
Zn15	Zn	-1.341720	-0.134765	-0.163645
Zn16	Zn	-0.841720	0.365235	0.336355
Zn17	Zn	-1.341741	0.134863	-0.163638
Zn18	Zn	-0.841741	0.634863	0.336362
O19	O	-1.333714	-0.102248	-0.328814
O20	O	-0.833714	0.397752	0.171186
C21	C	-1.134271	0.000047	-0.170642
C22	C	-0.634271	0.500047	0.329358
C23	C	-1.008257	0.000044	-0.167621
C24	C	-0.508257	0.500044	0.332379
C25	C	-0.905921	0.000047	-0.165168
C26	C	-0.405921	0.500047	0.334832
C27	C	-0.777534	0.000044	-0.162099
C28	C	-0.277534	0.500044	0.337901
N29	N	-1.341714	-0.318779	-0.163650
N30	N	-0.841714	0.181221	0.336350
C31	C	-1.341723	-0.430116	-0.163650
C32	C	-0.841723	0.069884	0.336350
C33	C	-1.341738	-0.569794	-0.163640
C34	C	-0.841738	-0.069794	0.336360
C35	C	-0.549190	0.000049	-0.156642
C36	C	-0.049190	0.500049	0.343358
C37	C	-0.675204	0.000041	-0.159662
C38	C	-0.175204	0.500041	0.340338
C39	C	-1.348730	0.000020	0.043818
C40	C	-0.848730	0.500020	0.543818
C41	C	-1.345710	0.000008	0.169832
C42	C	-0.845710	0.500008	0.669832
N43	N	-1.341756	0.318878	-0.163625
N44	N	-0.841756	0.818878	0.336375
C45	C	-1.343256	0.000002	0.272168
C46	C	-0.843256	0.500002	0.772168
C47	C	-1.340188	0.000000	0.400555
C48	C	-0.840188	0.500000	0.900555
C49	C	-1.334731	0.000056	0.628898
C50	C	-0.834731	0.500056	1.128898
C51	C	-1.337751	-0.000001	0.502885
C52	C	-0.837751	0.499999	1.002885
