data_functionalizedCrystal
_audit_creation_method	'MofGen! by Chris Wilmer'
_symmetry_space_group_name_H-M	'P1'
_symmetry_Int_Tables_number	1
_symmetry_cell_setting	triclinic
loop_
_symmetry_equiv_pos_as_xyz
  x,y,z
_cell_length_a	17.038275
_cell_length_b	26.809956
_cell_length_c	17.038272
_cell_angle_alpha	89.995541
_cell_angle_beta	88.888330
_cell_angle_gamma	89.997074
loop_
_atom_site_label
_atom_site_type_symbol
_atom_site_fract_x
_atom_site_fract_y
_atom_site_fract_z
O1	O	-1.048760	0.041408	0.170528
O2	O	-0.548760	0.541408	0.670528
O3	O	-0.820948	0.041425	0.167820
O4	O	-0.320948	0.541425	0.667820
O5	O	-0.933500	0.041412	0.055268
O6	O	-0.433500	0.541412	0.555268
O7	O	-0.936208	0.041420	0.283080
O8	O	-0.436208	0.541420	0.783080
O9	O	-0.933479	-0.041547	0.055285
O10	O	-0.433479	0.458453	0.555285
O11	O	-0.820927	-0.041535	0.167837
O12	O	-0.320927	0.458465	0.667837
O13	O	-1.048738	-0.041551	0.170545
O14	O	-0.548738	0.458449	0.670545
Zn15	Zn	-0.934829	-0.054715	0.169194
Zn16	Zn	-0.434829	0.445285	0.669194
Zn17	Zn	-0.934858	0.054588	0.169171
Zn18	Zn	-0.434858	0.554588	0.669171
O19	O	-0.936187	-0.041539	0.283097
O20	O	-0.436187	0.458461	0.783097
C21	C	-0.791645	-0.000053	0.165365
C22	C	-0.291645	0.499947	0.665365
C23	C	-0.704361	-0.000047	0.158017
C24	C	-0.204361	0.499953	0.658017
C25	C	-0.658752	-0.000044	0.225481
C26	C	-0.158752	0.499956	0.725481
C27	C	-0.576740	-0.000051	0.218572
C28	C	-0.076740	0.499949	0.718572
C29	C	-0.540339	-0.000056	0.144198
C30	C	-0.040339	0.499944	0.644198
C31	C	-0.585954	-0.000059	0.076730
C32	C	-0.085954	0.499941	0.576730
C33	C	-0.667965	-0.000057	0.083639
C34	C	-0.167965	0.499943	0.583639
C35	C	-0.292951	-0.000068	0.119787
C36	C	0.207049	0.499932	0.619787
C37	C	-0.210935	-0.000069	0.112882
C38	C	0.289065	0.499931	0.612882
C39	C	-0.201726	-0.000061	0.254725
C40	C	0.298274	0.499939	0.754725
C41	C	-0.283739	-0.000055	0.261628
C42	C	0.216261	0.499945	0.761628
C43	C	-0.329347	-0.000061	0.194160
C44	C	0.170653	0.499939	0.694160
C45	C	-0.456510	-0.000061	0.137134
C46	C	0.043490	0.499939	0.637134
C47	C	-0.413174	-0.000060	0.201224
C48	C	0.086826	0.499940	0.701224
N49	N	-0.934815	-0.129311	0.169209
N50	N	-0.434815	0.370689	0.669209
C51	C	-0.984690	-0.473942	0.119346
C52	C	-0.484690	0.026058	0.619346
C53	C	-0.984707	-0.682820	0.119336
C54	C	-0.484707	-0.182820	0.619336
O55	O	-1.027080	-0.709828	0.076943
O56	O	-0.527080	-0.209828	0.576943
N57	N	-0.934861	-0.708938	0.169154
N58	N	-0.434861	-0.208938	0.669154
C59	C	-0.885002	-0.682833	0.218976
C60	C	-0.385002	-0.182833	0.718976
O61	O	-0.842599	-0.709841	0.261344
O62	O	-0.342599	-0.209841	0.761344
C63	C	-0.884981	-0.473956	0.218982
C64	C	-0.384981	0.026044	0.718982
C65	C	-0.934837	-0.447841	0.169165
C66	C	-0.434837	0.052159	0.669165
C67	C	-1.034540	-0.447827	0.069533
C68	C	-0.534540	0.052173	0.569533
C69	C	-1.034539	-0.395610	0.069540
C70	C	-0.534539	0.104390	0.569540
C71	C	-0.984686	-0.369509	0.119359
C72	C	-0.484686	0.130491	0.619359
C73	C	-0.934835	-0.395625	0.169172
C74	C	-0.434835	0.104375	0.669172
C75	C	-0.835119	-0.447852	0.268799
C76	C	-0.335119	0.052148	0.768799
C77	C	-0.835117	-0.395630	0.268794
C78	C	-0.335117	0.104370	0.768794
C79	C	-0.884973	-0.369515	0.218978
C80	C	-0.384973	0.130485	0.718978
C81	C	-0.884980	-0.317307	0.218997
C82	C	-0.384980	0.182693	0.718997
N83	N	-0.934827	-0.291189	0.169178
N84	N	-0.434827	0.208811	0.669178
C85	C	-0.984680	-0.317290	0.119359
C86	C	-0.484680	0.182710	0.619359
C87	C	-0.885018	-0.792496	0.218970
C88	C	-0.385018	-0.292496	0.718970
C89	C	-0.885024	-0.844715	0.218970
C90	C	-0.385024	-0.344715	0.718970
C91	C	-0.984728	-0.844698	0.119328
C92	C	-0.484728	-0.344698	0.619328
C93	C	-0.984726	-0.792478	0.119333
C94	C	-0.484726	-0.292478	0.619333
C95	C	-0.934865	-0.766378	0.169151
C96	C	-0.434865	-0.266378	0.669151
C97	C	-0.984672	-0.207632	0.119376
C98	C	-0.484672	0.292368	0.619376
C99	C	-0.984668	-0.155412	0.119389
C100	C	-0.484668	0.344588	0.619389
C101	C	-0.884962	-0.155433	0.219028
C102	C	-0.384962	0.344567	0.719028
C103	C	-0.884968	-0.207649	0.219018
C104	C	-0.384968	0.292351	0.719018
C105	C	-0.934826	-0.233748	0.169186
C106	C	-0.434826	0.266252	0.669186
O107	O	-0.842623	-0.290267	0.261361
O108	O	-0.342623	0.209733	0.761361
O109	O	-1.027064	-0.290274	0.076985
O110	O	-0.527064	0.209726	0.576985
C111	C	-0.984691	-0.526158	0.119340
C112	C	-0.484691	-0.026158	0.619340
C113	C	-0.934840	-0.552274	0.169153
C114	C	-0.434840	-0.052274	0.669153
C115	C	-0.884988	-0.526173	0.218972
C116	C	-0.384988	-0.026173	0.718972
C117	C	-0.934847	-0.604493	0.169153
C118	C	-0.434847	-0.104493	0.669153
C119	C	-0.984699	-0.630594	0.119333
C120	C	-0.484699	-0.130594	0.619333
C121	C	-1.034546	-0.604476	0.069515
C122	C	-0.534546	-0.104476	0.569515
C123	C	-1.034544	-0.552259	0.069521
C124	C	-0.534544	-0.052259	0.569521
C125	C	-0.835141	-0.552290	0.268791
C126	C	-0.335141	-0.052290	0.768791
C127	C	-0.835148	-0.604507	0.268781
C128	C	-0.335148	-0.104507	0.768781
C129	C	-0.885000	-0.630608	0.218962
C130	C	-0.385000	-0.130608	0.718962
C131	C	-0.078042	-0.000070	0.172999
C132	C	0.421958	0.499930	0.672999
C133	C	-0.165325	-0.000067	0.180346
C134	C	0.334675	0.499933	0.680346
C135	C	-0.931026	-0.000067	0.025984
C136	C	-0.431026	0.499933	0.525984
C137	C	-0.923678	-0.000066	-0.061300
C138	C	-0.423678	0.499934	0.438700
N139	N	-0.934877	0.129184	0.169151
N140	N	-0.434877	0.629184	0.669151
C141	C	-0.991142	-0.000072	-0.106909
C142	C	-0.491142	0.499928	0.393091
C143	C	-0.984233	-0.000067	-0.188921
C144	C	-0.484233	0.499933	0.311079
C145	C	-0.909860	-0.000059	-0.225322
C146	C	-0.409860	0.499941	0.274678
C147	C	-0.842391	-0.000052	-0.179707
C148	C	-0.342391	0.499948	0.320293
C149	C	-0.849301	-0.000054	-0.097696
C150	C	-0.349301	0.499946	0.402304
C151	C	-0.885449	-0.000051	-0.472710
C152	C	-0.385449	0.499949	0.027290
C153	C	-0.878545	-0.000051	-0.554726
C154	C	-0.378545	0.499949	-0.054726
C155	C	-1.020387	-0.000064	-0.563935
C156	C	-0.520387	0.499936	-0.063935
C157	C	-1.027290	-0.000068	-0.481922
C158	C	-0.527290	0.499932	0.018078
C159	C	-0.959822	-0.000059	-0.436314
C160	C	-0.459822	0.499941	0.063686
C161	C	-0.902796	-0.000056	-0.309151
C162	C	-0.402796	0.499944	0.190849
C163	C	-0.966886	-0.000059	-0.352487
C164	C	-0.466886	0.499941	0.147513
C165	C	-0.938660	-0.000059	0.312381
C166	C	-0.438660	0.499941	0.812381
C167	C	-0.946008	-0.000056	0.399665
C168	C	-0.446008	0.499944	0.899665
H169	H	-0.442816	-0.000059	0.261779
H170	H	0.057184	0.499941	0.761779
C171	C	-0.830097	-0.236377	0.273782
C172	C	-0.330097	0.263623	0.773782
H173	H	-0.800394	-0.213351	0.303440
H174	H	-0.300394	0.286649	0.803440
H175	H	-0.860482	-0.256765	0.308378
H176	H	-0.360482	0.243235	0.808378
H177	H	-0.795536	-0.256731	0.243294
H178	H	-0.295536	0.243269	0.743294
C179	C	-0.151560	-0.000056	0.328936
C180	C	0.348440	0.499944	0.828936
H181	H	-0.184985	-0.000049	0.374218
H182	H	0.315015	0.499951	0.874218
H183	H	-0.119374	-0.028986	0.329198
H184	H	0.380626	0.471014	0.829198
H185	H	-0.119379	0.028877	0.329181
H186	H	0.380621	0.528877	0.829181
H187	H	-0.705099	-0.000058	0.028703
H188	H	-0.205099	0.499942	0.528703
C189	C	-0.830174	-0.763792	0.273780
C190	C	-0.330174	-0.263792	0.773780
H191	H	-0.800499	-0.786830	0.303452
H192	H	-0.300499	-0.286830	0.803452
H193	H	-0.795598	-0.743422	0.243346
H194	H	-0.295598	-0.243422	0.743346
H195	H	-0.860600	-0.743424	0.308373
H196	H	-0.360600	-0.243424	0.808373
C197	C	-0.796731	-0.000034	-0.594766
C198	C	-0.296731	0.499966	-0.094766
H199	H	-0.757538	-0.000022	-0.555859
H200	H	-0.257538	0.499978	-0.055859
H201	H	-0.791071	-0.028962	-0.626566
H202	H	-0.291071	0.471038	-0.126566
H203	H	-0.791108	0.028901	-0.626568
H204	H	-0.291108	0.528901	-0.126568
H205	H	-0.181300	-0.000072	0.052316
H206	H	0.318700	0.499928	0.552316
H207	H	-0.688383	-0.000040	0.286043
H208	H	-0.188383	0.499960	0.786043
H209	H	-0.794522	-0.469108	0.309363
H210	H	-0.294522	0.030892	0.809363
H211	H	-1.039169	-0.000072	-0.226052
H212	H	-0.539169	0.499928	0.273948
H213	H	-0.426863	-0.000079	0.076579
H214	H	0.073137	0.499921	0.576579
C215	C	-0.526573	-0.000046	0.292782
C216	C	-0.026573	0.499954	0.792782
H217	H	-0.559998	-0.000037	0.338065
H218	H	-0.059998	0.499963	0.838065
H219	H	-0.494391	-0.028977	0.293046
H220	H	0.005609	0.471023	0.793046
H221	H	-0.494389	0.028886	0.293025
H222	H	0.005611	0.528886	0.793025
C223	C	-0.343110	-0.000071	0.045574
C224	C	0.156890	0.499929	0.545574
H225	H	-0.309682	-0.000069	0.000293
H226	H	0.190318	0.499931	0.500293
H227	H	-0.375292	-0.029000	0.045325
H228	H	0.124708	0.471000	0.545325
H229	H	-0.375294	0.028863	0.045313
H230	H	0.124706	0.528863	0.545313
H231	H	-0.844374	-0.134173	0.259592
H232	H	-0.344374	0.365827	0.759592
C233	C	-0.811236	-0.000049	-0.422551
C234	C	-0.311236	0.499951	0.077449
H235	H	-0.765955	-0.000051	-0.455979
H236	H	-0.265955	0.499949	0.044021
H237	H	-0.810983	0.028879	-0.390368
H238	H	-0.310983	0.528879	0.109632
H239	H	-0.810979	-0.028984	-0.390368
H240	H	-0.310979	0.471016	0.109632
H241	H	-1.051705	-0.000081	-0.077277
H242	H	-0.551705	0.499919	0.422723
H243	H	-1.025269	-0.134150	0.078823
H244	H	-0.525269	0.365850	0.578823
C245	C	-0.760582	-0.000046	-0.219746
C246	C	-0.260582	0.499954	0.280254
H247	H	-0.766128	-0.000051	-0.275121
H248	H	-0.266128	0.499949	0.224879
H249	H	-0.732580	0.028885	-0.204417
H250	H	-0.232580	0.528885	0.295583
H251	H	-0.732571	-0.028978	-0.204408
H252	H	-0.232571	0.471022	0.295592
H253	H	-1.025270	-0.228876	0.078798
H254	H	-0.525270	0.271124	0.578798
C255	C	-1.089370	-0.366890	0.014731
C256	C	-0.589370	0.133110	0.514731
H257	H	-1.119051	-0.389920	-0.014942
H258	H	-0.619051	0.110080	0.485058
H259	H	-1.123943	-0.346517	0.045166
H260	H	-0.623943	0.153483	0.545166
H261	H	-1.058939	-0.346523	-0.019860
H262	H	-0.558939	0.153477	0.480140
C263	C	-1.089388	-0.476530	0.014732
C264	C	-0.589388	0.023470	0.514732
H265	H	-1.119076	-0.453491	-0.014926
H266	H	-0.619076	0.046509	0.485074
H267	H	-1.058980	-0.496903	-0.019863
H268	H	-0.558980	0.003097	0.480137
H269	H	-1.123965	-0.496896	0.045182
H270	H	-0.623965	0.003104	0.545182
C271	C	-0.780273	-0.366923	0.323600
C272	C	-0.280273	0.133077	0.823600
H273	H	-0.750590	-0.389958	0.353269
H274	H	-0.250590	0.110042	0.853269
H275	H	-0.745703	-0.346550	0.293160
H276	H	-0.245703	0.153450	0.793160
H277	H	-0.810698	-0.346556	0.358195
H278	H	-0.310698	0.153444	0.858195
H279	H	-0.313370	-0.000045	0.322191
H280	H	0.186630	0.499955	0.822191
H281	H	-0.556310	-0.000071	0.016173
H282	H	-0.056310	0.499929	0.516173
H283	H	-1.087853	-0.000074	-0.452290
H284	H	-0.587853	0.499926	0.047710
H285	H	-1.025322	-0.771218	0.078768
H286	H	-0.525322	-0.271218	0.578768
C287	C	-1.039559	-0.873416	0.064522
C288	C	-0.539559	-0.373416	0.564522
H289	H	-1.032412	-0.908255	0.071655
H290	H	-0.532412	-0.408255	0.571655
H291	H	-1.092541	-0.864859	0.076554
H292	H	-0.592541	-0.364859	0.576554
H293	H	-1.027531	-0.864857	0.011535
H294	H	-0.527531	-0.364857	0.511535
H295	H	-1.075141	-0.531000	0.028956
H296	H	-0.575141	-0.031000	0.528956
H297	H	-1.075316	-0.000071	-0.601077
H298	H	-0.575316	0.499929	-0.101077
C299	C	-0.830184	-0.873436	0.273768
C300	C	-0.330184	-0.373436	0.773768
H301	H	-0.800488	-0.850408	0.303429
H302	H	-0.300488	-0.350408	0.803429
H303	H	-0.860598	-0.893810	0.308360
H304	H	-0.360598	-0.393810	0.808360
H305	H	-0.795614	-0.893804	0.243314
H306	H	-0.295614	-0.393804	0.743314
C307	C	-0.775091	-0.000049	-0.047526
C308	C	-0.275091	0.499951	0.452474
H309	H	-0.729807	-0.000049	-0.080950
H310	H	-0.229807	0.499951	0.419050
H311	H	-0.774847	0.028880	-0.015345
H312	H	-0.274847	0.528880	0.484655
H313	H	-0.774830	-0.028983	-0.015340
H314	H	-0.274830	0.471017	0.484660
H315	H	-1.027441	-0.000054	-0.322845
H316	H	-0.527441	0.499946	0.177155
H317	H	-0.794551	-0.625766	0.309355
H318	H	-0.294551	-0.125766	0.809355
H319	H	-1.075141	-0.625736	0.028952
H320	H	-0.575141	-0.125736	0.528952
C321	C	-0.780305	-0.523586	0.323600
C322	C	-0.280305	-0.023586	0.823600
H323	H	-0.750627	-0.546624	0.353270
H324	H	-0.250627	-0.046624	0.853270
H325	H	-0.745731	-0.503212	0.293168
H326	H	-0.245731	-0.003212	0.793168
H327	H	-0.810734	-0.503220	0.358195
H328	H	-0.310734	-0.003220	0.858195
H329	H	-0.842241	-0.000051	-0.338798
H330	H	-0.342241	0.499949	0.161202
