data_functionalizedCrystal
_audit_creation_method	'MofGen! by Chris Wilmer'
_symmetry_space_group_name_H-M	'P1'
_symmetry_Int_Tables_number	1
_symmetry_cell_setting	triclinic
loop_
_symmetry_equiv_pos_as_xyz
  x,y,z
_cell_length_a	14.044220
_cell_length_b	10.489716
_cell_length_c	12.503572
_cell_angle_alpha	93.562900
_cell_angle_beta	86.164750
_cell_angle_gamma	88.859007
loop_
_atom_site_label
_atom_site_type_symbol
_atom_site_fract_x
_atom_site_fract_y
_atom_site_fract_z
O1	O	1.265199	0.300993	-0.089188
O2	O	0.989157	0.289886	-0.089216
O3	O	1.133472	0.110477	-0.089205
O4	O	1.120885	0.480401	-0.089199
O5	O	1.122619	0.123994	0.089436
O6	O	0.978304	0.303403	0.089425
O7	O	1.254346	0.314510	0.089453
Cu8	Cu	1.115334	0.310190	0.105750
Cu9	Cu	1.128169	0.294205	-0.105513
O10	O	1.110031	0.493918	0.089442
C11	C	0.948383	0.291783	0.000101
C12	C	0.843060	0.277282	0.000090
C13	C	1.127100	0.069608	0.000112
C14	C	1.124271	-0.072311	0.000102
C15	C	0.650218	0.250775	0.000111
C16	C	0.593280	0.353614	0.000117
C17	C	0.485976	0.338865	0.000128
C18	C	0.757532	0.265522	0.000099
C19	C	1.212768	-0.161008	0.000120
C20	C	1.171355	-0.249776	-0.087961
C21	C	1.160634	-0.236415	0.088165
C22	C	1.082899	-0.159216	-0.088052
C23	C	1.072186	-0.145843	0.088153
C24	C	1.030709	-0.234570	0.000050
C25	C	1.295120	0.312612	0.000134
C26	C	1.400444	0.327112	0.000138
C27	C	1.116404	0.534788	0.000123
C28	C	1.119233	0.676706	0.000126
N29	N	1.106313	0.321434	0.254342
N30	N	1.137197	0.282953	-0.254105
C31	C	1.093044	0.337984	0.473456
C32	C	1.150464	0.266406	0.526788
C33	C	1.143080	0.275615	0.648710
C34	C	1.100426	0.328776	0.351523
H35	H	0.625121	0.452734	0.000113
C36	C	1.227925	-0.311033	-0.188551
H37	H	1.186559	-0.361263	-0.230024
H38	H	1.278198	-0.363778	-0.167378
H39	H	1.253908	-0.245832	-0.230319
H40	H	0.953675	-0.266819	-0.000005
C41	C	1.224394	0.174322	0.464777
H42	H	1.219740	0.180156	0.389778
H43	H	1.212347	0.089328	0.483123
H44	H	1.286718	0.196709	0.483159
C45	C	0.607210	0.116881	0.000102
H46	H	0.539687	0.124409	0.000098
H47	H	0.623920	0.076519	0.062389
H48	H	0.631474	0.067116	-0.062211
C49	C	1.019156	0.430115	0.535467
H50	H	1.023834	0.424304	0.610464
H51	H	0.956817	0.407796	0.517110
H52	H	1.031251	0.515098	0.517103
C53	C	1.015656	-0.084543	0.188744
H54	H	1.043410	-0.110836	0.251273
H55	H	0.951292	-0.110820	0.189373
H56	H	1.017412	0.005857	0.187656
H57	H	1.289752	-0.128530	0.000039
H58	H	1.050089	-0.125340	-0.162601
H59	H	1.193488	-0.270462	0.162629
