data_functionalizedCrystal
_audit_creation_method	'MofGen! by Chris Wilmer'
_symmetry_space_group_name_H-M	'P1'
_symmetry_Int_Tables_number	1
_symmetry_cell_setting	triclinic
loop_
_symmetry_equiv_pos_as_xyz
  x,y,z
_cell_length_a	27.732064
_cell_length_b	27.732048
_cell_length_c	7.681481
_cell_angle_alpha	84.300807
_cell_angle_beta	95.683562
_cell_angle_gamma	82.646040
loop_
_atom_site_label
_atom_site_type_symbol
_atom_site_fract_x
_atom_site_fract_y
_atom_site_fract_z
O1	O	0.636326	0.062156	-0.146138
O2	O	0.495532	0.070896	-0.146213
O3	O	0.570303	-0.003872	-0.146140
O4	O	0.561555	0.136924	-0.146211
O5	O	0.579506	-0.013095	0.146727
O6	O	0.504735	0.061673	0.146654
O7	O	0.645530	0.052933	0.146729
Zn8	Zn	0.576593	0.055838	0.193190
Zn9	Zn	0.564468	0.067990	-0.192674
O10	O	0.570758	0.127700	0.146655
C11	C	0.482126	0.066100	0.000211
C12	C	0.428471	0.065545	0.000184
C13	C	0.051402	0.017574	0.000309
C14	C	0.253061	0.019621	0.000262
O15	O	0.284316	-0.017602	0.000347
N16	N	0.272187	0.063957	0.000232
C17	C	0.240896	0.107783	0.000224
O18	O	0.261792	0.145539	0.000216
C19	C	0.039239	0.105734	0.000284
C20	C	0.020115	0.061396	0.000296
C21	C	0.032278	-0.026760	0.000323
C22	C	-0.018134	-0.027272	0.000325
C23	C	-0.049422	0.016551	0.000313
C24	C	-0.030297	0.060885	0.000299
C25	C	0.007949	0.149559	0.000289
C26	C	-0.042468	0.149043	0.000309
C27	C	-0.061592	0.104705	0.000321
C28	C	-0.111997	0.104197	0.000288
N29	N	-0.131123	0.059862	0.000319
C30	C	-0.099836	0.016039	0.000331
C31	C	0.346769	0.108855	0.000190
C32	C	0.397183	0.109368	0.000172
C33	C	0.409345	0.021206	0.000213
C34	C	0.358930	0.020694	0.000218
C35	C	0.327643	0.064520	0.000220
C36	C	-0.205705	0.014969	0.000334
C37	C	-0.256123	0.014462	0.000329
C38	C	-0.268279	0.102623	0.000297
C39	C	-0.217867	0.103131	0.000293
C40	C	-0.186580	0.059299	0.000317
O41	O	-0.143280	0.141400	0.000223
O42	O	-0.120740	-0.021713	0.000379
C43	C	0.101814	0.018085	0.000307
C44	C	0.120939	0.062419	0.000292
C45	C	0.089651	0.106242	0.000280
C46	C	0.171353	0.062931	0.000274
C47	C	0.202640	0.019108	0.000287
C48	C	0.183514	-0.025227	0.000317
C49	C	0.133102	-0.025738	0.000319
C50	C	0.108778	0.150577	0.000249
C51	C	0.159190	0.151085	0.000245
C52	C	0.190478	0.107262	0.000258
C53	C	0.574721	-0.026490	0.000299
C54	C	0.574169	-0.080146	0.000313
C55	C	0.614870	-0.418956	0.000244
C56	C	0.612818	-0.620615	0.000218
O57	O	0.650037	-0.651867	0.000161
N58	N	0.568483	-0.639741	0.000196
C59	C	0.524657	-0.608448	0.000169
O60	O	0.486899	-0.629342	0.000132
C61	C	0.526708	-0.406789	0.000182
C62	C	0.571047	-0.387667	0.000222
C63	C	0.659205	-0.399833	0.000282
C64	C	0.659718	-0.349422	0.000298
C65	C	0.615896	-0.318133	0.000276
C66	C	0.571560	-0.337256	0.000238
C67	C	0.482883	-0.375497	0.000143
C68	C	0.483399	-0.325080	0.000141
C69	C	0.527738	-0.305958	0.000181
C70	C	0.528250	-0.255556	0.000232
N71	N	0.572586	-0.236430	0.000254
C72	C	0.616409	-0.267719	0.000276
C73	C	0.523583	-0.714322	0.000166
C74	C	0.523070	-0.764736	0.000166
C75	C	0.611231	-0.776900	0.000212
C76	C	0.611744	-0.726485	0.000224
C77	C	0.567918	-0.695196	0.000188
C78	C	0.617482	-0.161851	0.000311
C79	C	0.617991	-0.111434	0.000335
C80	C	0.529830	-0.099275	0.000280
C81	C	0.529320	-0.149687	0.000265
C82	C	0.573150	-0.180974	0.000275
O83	O	0.491051	-0.224275	0.000270
O84	O	0.654160	-0.246814	0.000275
C85	C	0.614357	-0.469368	0.000228
C86	C	0.570022	-0.488490	0.000190
C87	C	0.526199	-0.457202	0.000168
C88	C	0.569509	-0.538905	0.000190
C89	C	0.613331	-0.570193	0.000212
C90	C	0.657667	-0.551068	0.000234
C91	C	0.658180	-0.500656	0.000250
C92	C	0.481864	-0.476327	0.000146
C93	C	0.481355	-0.526739	0.000132
C94	C	0.525177	-0.558028	0.000154
C95	C	0.658935	0.057729	0.000301
C96	C	0.712590	0.058285	0.000316
C97	C	0.566340	0.150319	0.000213
C98	C	0.566892	0.203975	0.000188
N99	N	0.584872	0.047545	0.456533
N100	N	0.556193	0.076280	-0.456017
H101	H	-0.180237	-0.020723	0.000353
O102	O	0.475249	-0.785361	0.000156
H103	H	0.450461	-0.769005	-0.119230
H104	H	0.695823	-0.333857	0.000323
H105	H	0.646913	-0.802384	0.000230
H106	H	0.526916	0.105611	0.468758
H107	H	0.614154	0.018216	0.531767
H108	H	-0.271690	-0.021644	0.000334
H109	H	0.057748	-0.062448	0.000339
O110	O	-0.038753	-0.075096	0.000385
H111	H	-0.029912	-0.092381	-0.118959
O112	O	0.338304	-0.027127	0.000262
H113	H	0.368535	-0.057511	0.000280
H114	H	0.434828	-0.014476	0.000216
O115	O	0.704932	-0.584823	0.000257
H116	H	0.729919	-0.581836	0.119646
H117	H	0.412749	0.145472	0.000137
O118	O	0.476309	-0.680581	0.000165
H119	H	0.451318	-0.683582	-0.119197
O120	O	0.313026	0.156127	0.000179
H121	H	0.334800	0.187038	0.000138
O122	O	0.435059	-0.396115	0.000093
H123	H	0.404677	-0.365880	0.000056
H124	H	0.023510	0.185664	0.000271
H125	H	0.174755	0.187193	0.000222
O126	O	-0.076215	0.196313	0.000301
H127	H	-0.054443	0.227226	0.000276
H128	H	0.446177	-0.450856	0.000125
O129	O	-0.197235	0.150950	0.000273
H130	H	-0.227463	0.181336	0.000273
O131	O	0.659566	-0.705861	0.000256
H132	H	0.658157	-0.679419	-0.119108
H133	H	0.117536	-0.061842	0.000330
O134	O	-0.302028	0.149887	0.000312
H135	H	-0.340295	0.142078	0.000346
O136	O	0.706005	-0.480039	0.000269
H137	H	0.712108	-0.461130	0.119646
H138	H	0.208997	-0.060909	0.000317
O139	O	0.075034	0.197845	0.000228
H140	H	0.096808	0.228757	0.000195
O141	O	0.665815	-0.090808	0.000350
H142	H	0.696199	-0.121037	0.000336
O143	O	0.664755	-0.195593	0.000348
H144	H	0.695667	-0.173820	0.000398
H145	H	0.694893	-0.425304	0.000293
O146	O	0.436130	-0.291332	0.000123
H147	H	0.405216	-0.313103	0.000113
O148	O	0.481502	-0.170320	0.000243
H149	H	0.456713	-0.153962	-0.119139
H150	H	0.494151	-0.073791	0.000268
H151	H	0.445246	-0.542304	0.000115
