data_functionalizedCrystal
_audit_creation_method	'MofGen! by Chris Wilmer'
_symmetry_space_group_name_H-M	'P1'
_symmetry_Int_Tables_number	1
_symmetry_cell_setting	triclinic
loop_
_symmetry_equiv_pos_as_xyz
  x,y,z
_cell_length_a	17.640112
_cell_length_b	12.759400
_cell_length_c	17.645741
_cell_angle_alpha	78.797550
_cell_angle_beta	109.476361
_cell_angle_gamma	78.760776
loop_
_atom_site_label
_atom_site_type_symbol
_atom_site_fract_x
_atom_site_fract_y
_atom_site_fract_z
Zn1	Zn	1.166045	0.161533	-0.211382
Zn2	Zn	1.193502	0.292789	-0.073791
Zn3	Zn	1.055850	0.161632	-0.101559
Zn4	Zn	1.028311	0.381693	-0.239123
O5	O	1.110927	0.249412	-0.156464
O6	O	1.284937	0.141696	-0.169899
O7	O	1.198258	0.238226	0.037678
O8	O	1.070503	0.014592	-0.116139
O9	O	1.305109	0.238130	-0.068812
O10	O	1.151462	0.014519	-0.196825
O11	O	1.097126	0.141865	0.017277
O12	O	0.936948	0.228071	-0.143038
O13	O	1.023566	0.389653	-0.350596
O14	O	0.916715	0.389749	-0.244106
O15	O	1.124759	0.227902	-0.330215
O16	O	1.171554	0.451610	-0.095712
O17	O	1.050190	0.516927	-0.217180
C18	C	1.110882	0.522389	-0.156457
C19	C	1.110932	0.639155	-0.156466
C20	C	0.896948	0.318569	-0.199596
C21	C	0.805403	0.348187	-0.218068
C22	C	1.068028	0.318683	-0.371098
C23	C	1.049747	0.348203	-0.462563
C24	C	0.556798	0.024394	-0.016143
C25	C	0.470776	0.052249	-0.033511
C26	C	0.449798	0.220731	-0.138571
C27	C	0.535820	0.192887	-0.121215
C28	C	0.589314	0.094718	-0.059999
C29	C	0.568336	0.263211	-0.165071
C30	C	0.654351	0.235372	-0.147713
C31	C	0.707851	0.137209	-0.086498
C32	C	0.675329	0.066879	-0.042641
C33	C	0.514841	0.361383	-0.226282
C34	C	0.547356	0.431707	-0.270138
C35	C	0.633372	0.403864	-0.252785
C36	C	0.686872	0.305702	-0.191570
C37	C	0.665894	0.474194	-0.296642
C38	C	0.751909	0.446356	-0.279283
C39	C	0.772887	0.277863	-0.174212
C40	C	1.325742	0.179985	-0.113164
C41	C	1.417283	0.150399	-0.094712
C42	C	1.110992	-0.024633	-0.156485
C43	C	1.111019	-0.141415	-0.156494
C44	C	1.174173	0.659971	-0.093263
C45	C	1.174219	0.769687	-0.093279
C46	C	1.047774	0.837763	-0.219702
C47	C	1.047733	0.728049	-0.219690
C48	C	1.247173	0.620669	-0.020272
C49	C	1.247219	0.730385	-0.020287
C50	C	1.153707	0.180318	0.057345
C51	C	1.172148	0.150451	0.148841
C52	C	1.250391	0.023860	0.288110
C53	C	1.233057	0.051934	0.202134
C54	C	1.128551	0.220937	0.181510
C55	C	1.145879	0.192879	0.267486
C56	C	1.206799	0.094339	0.320780
C57	C	1.102287	0.263358	0.300156
C58	C	1.119611	0.235300	0.386125
C59	C	1.180527	0.136763	0.439423
C60	C	1.224123	0.066281	0.406748
C61	C	1.041363	0.361894	0.246861
C62	C	0.997771	0.432374	0.279531
C63	C	1.015099	0.404320	0.365501
C64	C	1.076015	0.305782	0.418799
C65	C	0.971502	0.474802	0.398176
C66	C	0.988826	0.446743	0.484144
C67	C	1.093338	0.277724	0.504767
H68	H	0.816443	0.197912	-0.124376
F69	F	1.279435	-0.023110	0.167364
F70	F	0.799398	0.107584	-0.068020
F71	F	1.320432	0.758826	-0.034237
H72	H	0.948168	0.512604	0.236127
H73	H	0.718885	-0.013071	0.007195
F74	F	1.326040	0.561925	-0.025839
H75	H	0.996320	0.910153	-0.271177
H76	H	0.996243	0.711104	-0.271160
F77	F	1.063716	0.325806	0.124783
H78	H	1.236464	0.574521	0.035693
H79	H	1.142950	0.197486	0.548163
H80	H	0.600355	-0.055556	0.033692
F81	F	0.436175	-0.022602	0.013176
H82	H	1.027252	0.384729	0.176859
H83	H	0.406232	0.300662	-0.188411
H84	H	0.921896	0.555028	0.354771
H85	H	0.444802	0.384046	-0.240413
H86	H	0.503791	0.511638	-0.319978
F87	F	1.241622	0.749686	0.058539
F88	F	1.198964	0.106899	0.530919
F89	F	1.288970	-0.038590	0.463474
H90	H	0.622327	0.554129	-0.346478
F91	F	0.786517	0.521203	-0.325958
F92	F	1.315238	-0.081011	0.344836
H93	H	0.953316	0.504123	0.510741
