data_functionalizedCrystal
_audit_creation_method	'MofGen! by Chris Wilmer'
_symmetry_space_group_name_H-M	'P1'
_symmetry_Int_Tables_number	1
_symmetry_cell_setting	triclinic
loop_
_symmetry_equiv_pos_as_xyz
  x,y,z
_cell_length_a	21.395364
_cell_length_b	18.050590
_cell_length_c	21.395355
_cell_angle_alpha	89.981964
_cell_angle_beta	89.975448
_cell_angle_gamma	90.033504
loop_
_atom_site_label
_atom_site_type_symbol
_atom_site_fract_x
_atom_site_fract_y
_atom_site_fract_z
Zn1	Zn	0.957912	-0.295449	-0.354264
Zn2	Zn	0.957837	-0.419621	-0.249487
Zn3	Zn	0.853127	-0.295482	-0.249500
Zn4	Zn	0.853118	-0.419634	-0.354227
O5	O	0.905499	-0.357547	-0.301870
O6	O	1.045580	-0.311902	-0.340374
O7	O	0.943919	-0.403162	-0.161811
O8	O	0.867062	-0.191553	-0.263418
O9	O	1.045525	-0.403130	-0.263396
O10	O	0.944047	-0.191529	-0.340387
O11	O	0.866989	-0.311957	-0.161821
O12	O	0.765448	-0.311970	-0.263383
O13	O	0.867047	-0.403153	-0.441910
O14	O	0.765442	-0.403184	-0.340325
O15	O	0.944039	-0.311915	-0.441937
O16	O	0.943911	-0.523547	-0.263360
O17	O	0.866974	-0.523557	-0.340312
C18	C	0.742711	-0.357583	-0.301852
C19	C	0.673070	-0.357616	-0.301859
C20	C	0.640408	-0.310191	-0.342004
C21	C	0.574972	-0.310171	-0.342007
C22	C	0.542201	-0.357590	-0.301871
C23	C	0.574871	-0.405018	-0.261718
C24	C	0.640305	-0.405031	-0.261712
C25	C	0.438489	-0.424470	-0.296834
C26	C	0.373056	-0.424458	-0.296844
C27	C	0.340381	-0.357549	-0.301885
C28	C	0.373146	-0.290650	-0.306929
C29	C	0.438580	-0.290663	-0.306923
C30	C	0.471249	-0.357580	-0.301872
C31	C	0.236766	-0.310099	-0.342034
C32	C	0.171330	-0.310078	-0.342032
C33	C	0.171230	-0.404931	-0.261747
C34	C	0.236665	-0.404945	-0.261746
C35	C	0.269429	-0.357530	-0.301893
C36	C	0.905450	-0.550499	-0.301845
C37	C	0.905487	-0.633044	-0.301855
C38	C	0.947412	-0.832463	-0.260067
C39	C	0.962722	-0.881803	-0.317251
C40	C	0.905523	-0.784175	-0.301880
C41	C	0.890277	-0.881916	-0.244722
C42	C	0.905558	-0.930160	-0.301899
C43	C	0.920862	-0.832428	-0.359094
C44	C	0.848390	-0.832537	-0.286526
C45	C	0.863678	-0.881855	-0.343750
C46	C	0.905504	-0.700076	-0.301868
C47	C	0.905577	-1.014256	-0.301917
C48	C	1.068922	-0.357511	-0.301888
C49	C	1.138563	-0.357496	-0.301895
C50	C	0.905551	-0.357531	-0.465293
C51	C	0.905573	-0.357525	-0.534934
C52	C	0.905564	-0.163841	-0.301908
C53	C	0.905592	-0.081295	-0.301925
C54	C	0.945660	-0.310015	-0.567662
C55	C	0.945660	-0.309983	-0.633098
C56	C	0.905578	-0.357474	-0.665803
C57	C	0.865482	-0.404988	-0.633067
C58	C	0.865480	-0.405013	-0.567632
C59	C	0.900614	-0.424345	-0.769469
C60	C	0.900621	-0.424321	-0.834902
C61	C	0.905582	-0.357396	-0.867623
C62	C	0.910549	-0.290493	-0.834904
C63	C	0.910546	-0.290518	-0.769470
C64	C	0.905576	-0.357452	-0.736755
C65	C	0.945670	-0.309848	-0.971304
C66	C	0.945665	-0.309814	-1.036741
C67	C	0.865491	-0.404825	-1.036708
C68	C	0.865493	-0.404852	-0.971273
C69	C	0.905586	-0.357364	-0.938575
C70	C	0.905483	-0.357508	-0.139082
C71	C	0.905582	-0.357305	-0.069441
H72	H	0.263444	-0.271486	-0.374720
H73	H	0.144737	-0.271454	-0.374722
O74	O	0.139307	-0.450971	-0.222819
C75	C	0.038458	-0.492958	-0.187219
C76	C	0.074536	-0.440793	-0.231350
H77	H	-0.013916	-0.484736	-0.194092
H78	H	0.051244	-0.552879	-0.198133
H79	H	0.051344	-0.479842	-0.136723
H80	H	0.061669	-0.453842	-0.281861
H81	H	0.061746	-0.380887	-0.220382
H82	H	0.978303	-0.271291	-0.659750
H83	H	0.548374	-0.271549	-0.374696
H84	H	0.933724	-0.810782	-0.407481
O85	O	0.268368	-0.451128	-0.222820
C86	C	0.288262	-0.577404	-0.192190
C87	C	0.252332	-0.525187	-0.236326
H88	H	0.275300	-0.637290	-0.203084
H89	H	0.340665	-0.569334	-0.199081
H90	H	0.275386	-0.564233	-0.141693
H91	H	0.265155	-0.538325	-0.286839
H92	H	0.199937	-0.533266	-0.229380
H93	H	0.982848	-0.810776	-0.224743
H94	H	0.828269	-0.903404	-0.379159
H95	H	0.800073	-0.810878	-0.273511
H96	H	1.011053	-0.903446	-0.330249
O97	O	0.915247	-0.225479	-0.866705
C98	C	0.867354	-0.142246	-0.940571
C99	C	0.861950	-0.215882	-0.904585
H100	H	0.824277	-0.134471	-0.971215
H101	H	0.870861	-0.094408	-0.905969
H102	H	0.910955	-0.143371	-0.971202
H103	H	0.818352	-0.214830	-0.873952
H104	H	0.858479	-0.263688	-0.939220
H105	H	0.877367	-0.903654	-0.196376
O106	O	0.826627	-0.451206	-0.535768
C107	C	0.818171	-0.551535	-0.461918
C108	C	0.862239	-0.499254	-0.497956
H109	H	0.846946	-0.590405	-0.431349
H110	H	0.785432	-0.517499	-0.431224
H111	H	0.789506	-0.585439	-0.496540
H112	H	0.890945	-0.465339	-0.463379
H113	H	0.894937	-0.533332	-0.528659
H114	H	0.914589	-0.236044	-0.742833
H115	H	0.832845	-0.443653	-0.659699
O116	O	0.341446	-0.225638	-0.311937
C117	C	0.321565	-0.116904	-0.374182
C118	C	0.357494	-0.190517	-0.368593
H119	H	0.334536	-0.088480	-0.419979
H120	H	0.269161	-0.128337	-0.373361
H121	H	0.334432	-0.079373	-0.333314
H122	H	0.344679	-0.228084	-0.409451
H123	H	0.409889	-0.179029	-0.369386
H124	H	0.978307	-0.271346	-0.541043
O125	O	0.341327	-0.489503	-0.291910
C126	C	0.348145	-0.622227	-0.281930
C127	C	0.384153	-0.548614	-0.287500
H128	H	0.382754	-0.670038	-0.278376
H129	H	0.317505	-0.621037	-0.238335
H130	H	0.317511	-0.630103	-0.325005
H131	H	0.414821	-0.540691	-0.244458
H132	H	0.414753	-0.549838	-0.331121
H133	H	0.978313	-0.271176	-0.944680
O134	O	0.895664	-0.489379	-0.737732
C135	C	0.833417	-0.598107	-0.717624
C136	C	0.838980	-0.524502	-0.753629
H137	H	0.787585	-0.626518	-0.730454
H138	H	0.874251	-0.635690	-0.730474
H139	H	0.834282	-0.586576	-0.665246
H140	H	0.838099	-0.535963	-0.806015
H141	H	0.798148	-0.486942	-0.740727
O142	O	0.984667	-0.263636	-1.068438
C143	C	1.064169	-0.169382	-1.061562
C144	C	1.020041	-0.221653	-1.025586
H145	H	1.092771	-0.135414	-1.026932
H146	H	1.096958	-0.203426	-1.092195
H147	H	1.035410	-0.130571	-1.092199
H148	H	1.048751	-0.260474	-0.994915
H149	H	0.987251	-0.187563	-0.994992
O150	O	0.826619	-0.450941	-1.068567
C151	C	0.791072	-0.492989	-1.169357
C152	C	0.835137	-0.440736	-1.133353
H153	H	0.797935	-0.484745	-1.221743
H154	H	0.802063	-0.552889	-1.156541
H155	H	0.740559	-0.479980	-1.156437
H156	H	0.885665	-0.453678	-1.146254
H157	H	0.824093	-0.380852	-1.146172
O158	O	0.826534	-0.451077	-0.939574
C159	C	0.746984	-0.545274	-0.946450
C160	C	0.791087	-0.492975	-0.982426
H161	H	0.718304	-0.579151	-0.981079
H162	H	0.775703	-0.584162	-0.915843
H163	H	0.714261	-0.511182	-0.915786
H164	H	0.823819	-0.527007	-1.013123
H165	H	0.762329	-0.454084	-1.012993
H166	H	0.896580	-0.478798	-0.861536
H167	H	0.667080	-0.271581	-0.374694
H168	H	0.465256	-0.236191	-0.311028
H169	H	0.465088	-0.478959	-0.292728
O170	O	0.543109	-0.451185	-0.222762
C171	C	0.522965	-0.577457	-0.192185
C172	C	0.558984	-0.525257	-0.236335
H173	H	0.535776	-0.637356	-0.203151
H174	H	0.535823	-0.564390	-0.141671
H175	H	0.470590	-0.569265	-0.199076
H176	H	0.611368	-0.533420	-0.229500
H177	H	0.546074	-0.538337	-0.286833
H178	H	0.666898	-0.443651	-0.229021
