data_functionalizedCrystal
_audit_creation_method	'MofGen! by Chris Wilmer'
_symmetry_space_group_name_H-M	'P1'
_symmetry_Int_Tables_number	1
_symmetry_cell_setting	triclinic
loop_
_symmetry_equiv_pos_as_xyz
  x,y,z
_cell_length_a	15.995350
_cell_length_b	15.995350
_cell_length_c	15.072220
_cell_angle_alpha	89.998899
_cell_angle_beta	89.991149
_cell_angle_gamma	96.507625
loop_
_atom_site_label
_atom_site_type_symbol
_atom_site_fract_x
_atom_site_fract_y
_atom_site_fract_z
O1	O	1.110996	-0.107921	-0.073703
O2	O	1.360996	0.142079	0.176297
O3	O	1.610996	0.392079	0.426297
O4	O	1.860996	0.642079	0.676297
O5	O	0.867221	-0.121249	-0.073721
O6	O	1.117221	0.128751	0.176279
O7	O	1.367221	0.378751	0.426279
O8	O	1.617221	0.628751	0.676279
O9	O	0.995772	0.007303	-0.073710
O10	O	1.245772	0.257303	0.176290
O11	O	1.495772	0.507303	0.426290
O12	O	1.745772	0.757303	0.676290
O13	O	0.982444	-0.236472	-0.073713
O14	O	1.232444	0.013528	0.176287
O15	O	1.482444	0.263528	0.426287
O16	O	1.732444	0.513528	0.676287
O17	O	0.995740	0.007296	0.073855
O18	O	1.245740	0.257296	0.323855
O19	O	1.495740	0.507296	0.573855
O20	O	1.745740	0.757296	0.823855
O21	O	0.867189	-0.121256	0.073844
O22	O	1.117189	0.128744	0.323844
O23	O	1.367189	0.378744	0.573844
O24	O	1.617189	0.628744	0.823844
O25	O	1.110964	-0.107928	0.073862
O26	O	1.360964	0.142072	0.323862
O27	O	1.610964	0.392072	0.573862
O28	O	1.860964	0.642072	0.823862
Zn29	Zn	0.989071	-0.114593	0.097283
Zn30	Zn	1.239071	0.135407	0.347283
Zn31	Zn	1.489071	0.385407	0.597283
Zn32	Zn	1.739071	0.635407	0.847283
Zn33	Zn	0.989113	-0.114584	-0.097141
Zn34	Zn	1.239113	0.135416	0.152859
Zn35	Zn	1.489113	0.385416	0.402859
Zn36	Zn	1.739113	0.635416	0.652859
O37	O	0.982413	-0.236480	0.073852
O38	O	1.232413	0.013520	0.323852
O39	O	1.482413	0.263520	0.573852
O40	O	1.732413	0.513520	0.823852
C41	C	0.836010	-0.120701	0.000060
C42	C	1.086010	0.129299	0.250060
C43	C	1.336010	0.379299	0.500060
C44	C	1.586010	0.629299	0.750060
C45	C	0.743060	-0.119049	0.000053
C46	C	0.993060	0.130951	0.250053
C47	C	1.243060	0.380951	0.500053
C48	C	1.493060	0.630951	0.750053
C49	C	0.995205	0.038494	0.000070
C50	C	1.245205	0.288494	0.250070
C51	C	1.495205	0.538494	0.500070
C52	C	1.745205	0.788494	0.750070
C53	C	0.993553	0.131444	0.000065
C54	C	1.243553	0.381444	0.250065
C55	C	1.493553	0.631444	0.500065
C56	C	1.743553	0.881444	0.750065
C57	C	0.405312	-0.113117	0.000071
C58	C	0.655312	0.136883	0.250071
C59	C	0.905312	0.386883	0.500071
C60	C	1.155312	0.636883	0.750071
C61	C	0.452746	-0.021565	0.000401
C62	C	0.702746	0.228435	0.250401
C63	C	0.952746	0.478435	0.500401
C64	C	1.202746	0.728435	0.750401
C65	C	0.549436	-0.023217	0.000063
C66	C	0.799436	0.226783	0.250063
C67	C	1.049436	0.476783	0.500063
C68	C	1.299436	0.726783	0.750063
C69	C	0.572873	-0.116060	0.000063
C70	C	0.822873	0.133940	0.250063
C71	C	1.072873	0.383940	0.500063
C72	C	1.322873	0.633940	0.750063
C73	C	0.531804	-0.161212	-0.084201
C74	C	0.781804	0.088788	0.165799
C75	C	1.031804	0.338788	0.415799
C76	C	1.281804	0.588788	0.665799
C77	C	0.435168	-0.158912	-0.084266
C78	C	0.685168	0.091088	0.165734
C79	C	0.935168	0.341088	0.415734
C80	C	1.185168	0.591088	0.665734
C81	C	0.434793	-0.160812	0.083543
C82	C	0.684793	0.089188	0.333543
C83	C	0.934793	0.339188	0.583543
C84	C	1.184793	0.589188	0.833543
C85	C	0.531738	-0.160790	0.084651
C86	C	0.781738	0.089210	0.334651
C87	C	1.031738	0.339210	0.584651
C88	C	1.281738	0.589210	0.834651
C89	C	0.667570	-0.117727	0.000055
C90	C	0.917570	0.132273	0.250055
C91	C	1.167570	0.382273	0.500055
C92	C	1.417570	0.632273	0.750055
C93	C	0.310614	-0.111452	0.000073
C94	C	0.560614	0.138548	0.250073
C95	C	0.810614	0.388548	0.500073
C96	C	1.060614	0.638548	0.750073
C97	C	1.142175	-0.108476	0.000080
C98	C	1.392175	0.141524	0.250080
C99	C	1.642175	0.391524	0.500080
C100	C	1.892175	0.641524	0.750080
C101	C	1.235125	-0.110127	0.000081
C102	C	1.485125	0.139873	0.250081
C103	C	1.735125	0.389873	0.500081
C104	C	1.985125	0.639873	0.750081
C105	C	0.982980	-0.267671	0.000069
C106	C	1.232980	-0.017671	0.250069
C107	C	1.482980	0.232329	0.500069
C108	C	1.732980	0.482329	0.750069
C109	C	0.984631	-0.360621	0.000069
C110	C	1.234631	-0.110621	0.250069
C111	C	1.484631	0.139379	0.500069
C112	C	1.734631	0.389379	0.750069
N113	N	0.989049	-0.114599	0.229971
N114	N	1.239049	0.135401	0.479971
N115	N	1.489049	0.385401	0.729971
N116	N	1.739049	0.635401	0.979971
C117	C	0.987621	0.469192	0.000068
C118	C	1.237621	0.719192	0.250068
C119	C	1.487621	0.969192	0.500068
C120	C	1.737621	1.219192	0.750068
C121	C	0.896069	0.421758	-0.000270
C122	C	1.146069	0.671758	0.249730
C123	C	1.396069	0.921758	0.499730
C124	C	1.646069	1.171758	0.749730
C125	C	0.897721	0.325068	0.000063
C126	C	1.147721	0.575068	0.250063
C127	C	1.397721	0.825068	0.500063
C128	C	1.647721	1.075068	0.750063
C129	C	0.990564	0.301631	0.000066
C130	C	1.240564	0.551631	0.250066
C131	C	1.490564	0.801631	0.500066
C132	C	1.740564	1.051631	0.750066
C133	C	1.035702	0.342705	0.084335
C134	C	1.285702	0.592705	0.334335
C135	C	1.535702	0.842705	0.584335
C136	C	1.785702	1.092705	0.834335
C137	C	1.033402	0.439341	0.084405
C138	C	1.283402	0.689341	0.334405
C139	C	1.533402	0.939341	0.584405
C140	C	1.783402	1.189341	0.834405
C141	C	1.035330	0.439707	-0.083404
C142	C	1.285330	0.689707	0.166596
C143	C	1.535330	0.939707	0.416596
C144	C	1.785330	1.189707	0.666596
C145	C	1.035308	0.342761	-0.084518
C146	C	1.285308	0.592761	0.165482
C147	C	1.535308	0.842761	0.415482
C148	C	1.785308	1.092761	0.665482
C149	C	0.992231	0.206934	0.000068
C150	C	1.242231	0.456934	0.250068
C151	C	1.492231	0.706934	0.500068
C152	C	1.742231	0.956934	0.750068
C153	C	0.985956	0.563890	0.000072
C154	C	1.235956	0.813890	0.250072
C155	C	1.485956	1.063890	0.500072
C156	C	1.735956	1.313890	0.750072
N157	N	0.989142	-0.114571	-0.229830
N158	N	1.239142	0.135429	0.020170
N159	N	1.489142	0.385429	0.270170
N160	N	1.739142	0.635429	0.520170
C161	C	0.989112	-0.114580	0.589173
C162	C	1.239112	0.135420	0.839173
C163	C	1.489112	0.385420	1.089173
C164	C	1.739112	0.635420	1.339173
C165	C	0.920095	-0.183135	0.551560
C166	C	1.170095	0.066865	0.801560
C167	C	1.420095	0.316865	1.051560
C168	C	1.670095	0.566865	1.301560
C169	C	0.920254	-0.183385	0.448735
C170	C	1.170254	0.066615	0.698735
C171	C	1.420254	0.316615	0.948735
C172	C	1.670254	0.566615	1.198735
C173	C	0.989080	-0.114590	0.410969
C174	C	1.239080	0.135410	0.660969
C175	C	1.489080	0.385410	0.910969
C176	C	1.739080	0.635410	1.160969
C177	C	1.076445	-0.133671	0.448266
C178	C	1.326445	0.116329	0.698266
C179	C	1.576445	0.366329	0.948266
C180	C	1.826445	0.616329	1.198266
C181	C	1.076058	-0.134159	0.551124
C182	C	1.326058	0.115841	0.801124
C183	C	1.576058	0.365841	1.051124
C184	C	1.826058	0.615841	1.301124
C185	C	0.971542	-0.026741	0.551272
C186	C	1.221542	0.223259	0.801272
C187	C	1.471542	0.473259	1.051272
C188	C	1.721542	0.723259	1.301272
C189	C	0.969537	-0.027327	0.448409
C190	C	1.219537	0.222673	0.698409
C191	C	1.469537	0.472673	0.948409
C192	C	1.719537	0.722673	1.198409
C193	C	0.989067	-0.114593	0.310255
C194	C	1.239067	0.135407	0.560255
C195	C	1.489067	0.385407	0.810255
C196	C	1.739067	0.635407	1.060255
C197	C	0.989130	-0.114579	0.689886
C198	C	1.239130	0.135421	0.939886
C199	C	1.489130	0.385421	1.189886
C200	C	1.739130	0.635421	1.439886
H201	H	0.577852	0.012275	0.060467
H202	H	0.827852	0.262275	0.310467
H203	H	1.077852	0.512275	0.560467
H204	H	1.327852	0.762275	0.810467
F205	F	0.568906	-0.120215	-0.166171
F206	F	0.818906	0.129785	0.083829
F207	F	1.068906	0.379785	0.333829
F208	F	1.318906	0.629785	0.583829
H209	H	0.434211	0.015027	0.060830
H210	H	0.684211	0.265027	0.310830
H211	H	0.934211	0.515027	0.560830
H212	H	1.184211	0.765027	0.810830
F213	F	0.393015	-0.246766	-0.089265
F214	F	0.643015	0.003234	0.160735
F215	F	0.893015	0.253234	0.410735
F216	F	1.143015	0.503234	0.660735
H217	H	1.129029	-0.085068	0.423801
H218	H	1.379029	0.164932	0.673801
H219	H	1.629029	0.414932	0.923801
H220	H	1.879029	0.664932	1.173801
F221	F	0.835360	-0.168568	0.415773
F222	F	1.085360	0.081432	0.665773
F223	F	1.335360	0.331432	0.915773
F224	F	1.585360	0.581432	1.165773
F225	F	0.411253	-0.115866	-0.166596
F226	F	0.661253	0.134134	0.083404
F227	F	0.911253	0.384134	0.333404
F228	F	1.161253	0.634134	0.583404
F229	F	1.123804	0.322679	-0.091171
F230	F	1.373804	0.572679	0.158829
F231	F	1.623804	0.822679	0.408829
F232	F	1.873804	1.072679	0.658829
F233	F	0.851342	0.287919	-0.078893
F234	F	1.101342	0.537919	0.171107
F235	F	1.351342	0.787919	0.421107
F236	F	1.601342	1.037919	0.671107
H237	H	0.403031	-0.228312	0.084113
H238	H	0.653031	0.021688	0.334113
H239	H	0.903031	0.271688	0.584113
H240	H	1.153031	0.521688	0.834113
H241	H	0.905271	-0.012846	0.424032
H242	H	1.155271	0.237154	0.674032
H243	H	1.405271	0.487154	0.924032
H244	H	1.655271	0.737154	1.174032
F245	F	0.407938	-0.121693	0.167027
F246	F	0.657938	0.128307	0.417027
F247	F	0.907938	0.378307	0.667027
F248	F	1.157938	0.628307	0.917027
H249	H	0.909219	-0.008392	0.577258
H250	H	1.159219	0.241608	0.827258
H251	H	1.409219	0.491608	1.077258
H252	H	1.659219	0.741608	1.327258
F253	F	1.096294	-0.217890	0.582473
F254	F	1.346294	0.032110	0.832473
F255	F	1.596294	0.282110	1.082473
F256	F	1.846294	0.532110	1.332473
F257	F	0.834935	-0.168510	0.583902
F258	F	1.084935	0.081490	0.833902
F259	F	1.334935	0.331490	1.083902
F260	F	1.584935	0.581490	1.333902
H261	H	1.102831	0.471468	-0.083968
H262	H	1.352831	0.721468	0.166032
H263	H	1.602831	0.971468	0.416032
H264	H	1.852831	1.221468	0.666032
F265	F	0.585844	0.023306	-0.079152
F266	F	0.835844	0.273306	0.170848
F267	F	1.085844	0.523306	0.420848
F268	F	1.335844	0.773306	0.670848
H269	H	0.931473	-0.248570	0.424121
H270	H	1.181473	0.001430	0.674121
H271	H	1.431473	0.251430	0.924121
H272	H	1.681473	0.501430	1.174121
H273	H	0.545929	-0.229421	-0.087335
H274	H	0.795929	0.020579	0.162665
H275	H	1.045929	0.270579	0.412665
H276	H	1.295929	0.520579	0.662665
F277	F	1.121255	0.481493	0.089415
F278	F	1.371255	0.731493	0.339415
F279	F	1.621255	0.981493	0.589415
F280	F	1.871255	1.231493	0.839415
H281	H	0.859626	0.441349	0.059819
H282	H	1.109626	0.691349	0.309819
H283	H	1.359626	0.941349	0.559819
H284	H	1.609626	1.191349	0.809819
H285	H	1.103910	0.328579	0.087471
H286	H	1.353910	0.578579	0.337471
H287	H	1.603910	0.828579	0.587471
H288	H	1.853910	1.078579	0.837471
F289	F	0.934564	-0.267859	0.585318
F290	F	1.184564	-0.017859	0.835318
F291	F	1.434564	0.232141	1.085318
F292	F	1.684564	0.482141	1.335318
F293	F	0.990342	0.463260	0.166735
F294	F	1.240342	0.713260	0.416735
F295	F	1.490342	0.963260	0.666735
F296	F	1.740342	1.213260	0.916735
H297	H	0.559041	-0.127829	0.146989
H298	H	0.809041	0.122171	0.396989
H299	H	1.059041	0.372171	0.646989
H300	H	1.309041	0.622171	0.896989
H301	H	1.004325	0.314320	0.147042
H302	H	1.254325	0.564320	0.397042
H303	H	1.504325	0.814320	0.647042
H304	H	1.754325	1.064320	0.897042
F305	F	0.996218	0.466548	-0.166888
F306	F	1.246218	0.716548	0.083112
F307	F	1.496218	0.966548	0.333112
F308	F	1.746218	1.216548	0.583112
F309	F	0.992504	0.306761	-0.166012
F310	F	1.242504	0.556761	0.083988
F311	F	1.492504	0.806761	0.333988
F312	F	1.742504	1.056761	0.583988
H313	H	0.433165	0.014865	-0.059694
H314	H	0.683165	0.264865	0.190306
H315	H	0.933165	0.514865	0.440306
H316	H	1.183165	0.764865	0.690306
H317	H	1.129019	-0.086195	0.576003
H318	H	1.379019	0.163805	0.826003
H319	H	1.629019	0.413805	1.076003
H320	H	1.879019	0.663805	1.326003
H321	H	1.016540	0.026078	0.422704
H322	H	1.266540	0.276078	0.672704
H323	H	1.516540	0.526078	0.922704
H324	H	1.766540	0.776078	1.172704
F325	F	0.551814	-0.249287	0.091303
F326	F	0.801814	0.000713	0.341303
F327	F	1.051814	0.250713	0.591303
F328	F	1.301814	0.500713	0.841303
H329	H	1.021872	0.024275	0.575595
H330	H	1.271872	0.274275	0.825595
H331	H	1.521872	0.524275	1.075595
H332	H	1.771872	0.774275	1.325595
H333	H	1.092297	-0.197002	0.422498
H334	H	1.342297	0.052998	0.672498
H335	H	1.592297	0.302998	0.922498
H336	H	1.842297	0.552998	1.172498
F337	F	0.850994	0.288638	0.079146
F338	F	1.100994	0.538638	0.329146
F339	F	1.350994	0.788638	0.579146
F340	F	1.600994	1.038638	0.829146
F341	F	0.848254	0.445982	-0.079258
F342	F	1.098254	0.695982	0.170742
F343	F	1.348254	0.945982	0.420742
F344	F	1.598254	1.195982	0.670742
