data_functionalizedCrystal
_audit_creation_method	'MofGen! by Chris Wilmer'
_symmetry_space_group_name_H-M	'P1'
_symmetry_Int_Tables_number	1
_symmetry_cell_setting	triclinic
loop_
_symmetry_equiv_pos_as_xyz
  x,y,z
_cell_length_a	16.625548
_cell_length_b	16.625545
_cell_length_c	16.625539
_cell_angle_alpha	90.026243
_cell_angle_beta	90.017055
_cell_angle_gamma	90.026626
loop_
_atom_site_label
_atom_site_type_symbol
_atom_site_fract_x
_atom_site_fract_y
_atom_site_fract_z
Zn1	Zn	1.232635	-0.320992	0.455910
Zn2	Zn	1.565969	0.012341	0.789244
Zn3	Zn	1.899302	0.345675	1.122577
Zn4	Zn	1.232539	-0.455831	0.321078
Zn5	Zn	1.565873	-0.122497	0.654411
Zn6	Zn	1.899206	0.210836	0.987745
Zn7	Zn	1.097805	-0.321018	0.321091
Zn8	Zn	1.431139	0.012315	0.654424
Zn9	Zn	1.764472	0.345648	0.987758
Zn10	Zn	1.097760	-0.455789	0.455868
Zn11	Zn	1.431093	-0.122456	0.789201
Zn12	Zn	1.764427	0.210878	1.122535
O13	O	1.165185	-0.388408	0.388487
O14	O	1.498518	-0.055074	0.721820
O15	O	1.831852	0.278259	1.055154
O16	O	1.345455	-0.338885	0.438037
O17	O	1.678788	-0.005552	0.771370
O18	O	2.012122	0.327781	1.104704
O19	O	1.214645	-0.437976	0.208247
O20	O	1.547979	-0.104643	0.541581
O21	O	1.881312	0.228690	0.874914
O22	O	1.115750	-0.208182	0.338998
O23	O	1.449083	0.125151	0.672332
O24	O	1.782416	0.458484	1.005665
O25	O	1.345384	-0.437951	0.338976
O26	O	1.678718	-0.104617	0.672310
O27	O	2.012051	0.228716	1.005643
O28	O	1.214809	-0.208163	0.438049
O29	O	1.548142	0.125170	0.771383
O30	O	1.881475	0.458504	1.104716
O31	O	1.115657	-0.338930	0.208257
O32	O	1.448990	-0.005597	0.541590
O33	O	1.782324	0.327737	0.874923
O34	O	0.984967	-0.338889	0.338957
O35	O	1.318300	-0.005556	0.672290
O36	O	1.651634	0.327777	1.005624
O37	O	1.115673	-0.437879	0.568706
O38	O	1.449006	-0.104546	0.902039
O39	O	1.782339	0.228787	1.235373
O40	O	0.984934	-0.437905	0.437977
O41	O	1.318267	-0.104571	0.771310
O42	O	1.651600	0.228762	1.104644
O43	O	1.214765	-0.338845	0.568737
O44	O	1.548098	-0.005511	0.902071
O45	O	1.881432	0.327822	1.235404
O46	O	1.214602	-0.568658	0.338935
O47	O	1.547935	-0.235324	0.672268
O48	O	1.881268	0.098009	1.005602
O49	O	1.115580	-0.568627	0.437965
O50	O	1.448913	-0.235294	0.771298
O51	O	1.782247	0.098040	1.104631
C52	C	0.955694	-0.388396	0.388464
C53	C	1.289027	-0.055063	0.721798
C54	C	1.622361	0.278271	1.055131
C55	C	0.866073	-0.388410	0.388474
C56	C	1.199406	-0.055077	0.721807
C57	C	1.532740	0.278256	1.055140
C58	C	0.537897	-0.388416	0.388508
C59	C	0.871231	-0.055082	0.721842
C60	C	1.204564	0.278251	1.055175
C61	C	0.629206	-0.388412	0.388496
C62	C	0.962539	-0.055079	0.721829
C63	C	1.295873	0.278255	1.055163
C64	C	0.701982	-0.388414	0.388490
C65	C	1.035316	-0.055080	0.721824
C66	C	1.368649	0.278253	1.055157
C67	C	0.793297	-0.388409	0.388480
C68	C	1.126630	-0.055076	0.721813
C69	C	1.459963	0.278258	1.055146
C70	C	1.165097	-0.597898	0.388461
C71	C	1.498431	-0.264565	0.721795
C72	C	1.831764	0.068768	1.055128
C73	C	1.165134	-0.687520	0.388478
C74	C	1.498467	-0.354186	0.721811
C75	C	1.831800	-0.020853	1.055144
C76	C	1.165165	-0.760302	0.388494
C77	C	1.498498	-0.426969	0.721827
C78	C	1.831832	-0.093635	1.055160
C79	C	1.165212	-0.851610	0.388511
C80	C	1.498545	-0.518277	0.721845
C81	C	1.831879	-0.184944	1.055178
C82	C	1.165254	-0.924387	0.388522
C83	C	1.498587	-0.591053	0.721855
C84	C	1.831920	-0.257720	1.055188
C85	C	1.165300	-1.015701	0.388538
C86	C	1.498633	-0.682368	0.721872
C87	C	1.831967	-0.349034	1.055205
C88	C	1.375494	-0.388420	0.388510
C89	C	1.708827	-0.055086	0.721843
C90	C	2.042161	0.278247	1.055177
C91	C	1.465115	-0.388425	0.388520
C92	C	1.798448	-0.055092	0.721853
C93	C	2.131782	0.278242	1.055186
C94	C	1.165225	-0.388354	0.598796
C95	C	1.498558	-0.055021	0.932129
C96	C	1.831891	0.278312	1.265463
C97	C	1.165241	-0.388332	0.688417
C98	C	1.498575	-0.054998	1.021750
C99	C	1.831908	0.278335	1.355084
C100	C	1.165295	-0.178099	0.388530
C101	C	1.498628	0.155235	0.721863
C102	C	1.831962	0.488568	1.055197
C103	C	1.165342	-0.088477	0.388548
C104	C	1.498675	0.244856	0.721882
C105	C	1.832008	0.578189	1.055215
C106	C	1.165192	-0.388402	0.178996
C107	C	1.498525	-0.055069	0.512329
C108	C	1.831859	0.278264	0.845663
C109	C	1.165331	-0.388198	0.089375
C110	C	1.498665	-0.054865	0.422709
C111	C	1.831998	0.278469	0.756042
C112	C	1.165255	-0.388314	0.761200
C113	C	1.498588	-0.054980	1.094533
C114	C	1.831921	0.278353	1.427866
C115	C	1.165273	-0.388284	0.852508
C116	C	1.498607	-0.054950	1.185841
C117	C	1.831940	0.278383	1.519175
C118	C	1.165292	-0.388255	0.925285
C119	C	1.498626	-0.054922	1.258618
C120	C	1.831959	0.278411	1.591951
C121	C	1.165312	-0.388226	1.016599
C122	C	1.498646	-0.054893	1.349932
C123	C	1.831979	0.278440	1.683266
