data_functionalizedCrystal
_audit_creation_method	'MofGen! by Chris Wilmer'
_symmetry_space_group_name_H-M	'P1'
_symmetry_Int_Tables_number	1
_symmetry_cell_setting	triclinic
loop_
_symmetry_equiv_pos_as_xyz
  x,y,z
_cell_length_a	16.992695
_cell_length_b	9.065218
_cell_length_c	7.540329
_cell_angle_alpha	90.003038
_cell_angle_beta	89.996072
_cell_angle_gamma	92.157946
loop_
_atom_site_label
_atom_site_type_symbol
_atom_site_fract_x
_atom_site_fract_y
_atom_site_fract_z
O1	O	0.115065	-1.971074	-0.147490
O2	O	0.615065	-1.471074	0.352510
O3	O	0.124504	-1.542664	-0.147492
O4	O	0.624504	-1.042664	0.352508
O5	O	0.005630	-1.755152	-0.147477
O6	O	0.505630	-1.255152	0.352523
O7	O	0.233939	-1.758586	-0.147505
O8	O	0.733939	-1.258586	0.352495
O9	O	0.005628	-1.755138	0.147488
O10	O	0.505628	-1.255138	0.647488
O11	O	0.124502	-1.542651	0.147473
O12	O	0.624502	-1.042651	0.647473
O13	O	0.115064	-1.971060	0.147476
O14	O	0.615064	-1.471060	0.647476
Cu15	Cu	0.119783	-1.756854	0.174407
Cu16	Cu	0.619783	-1.256854	0.674407
Cu17	Cu	0.119785	-1.756870	-0.174424
Cu18	Cu	0.619785	-1.256870	0.325576
O19	O	0.233938	-1.758573	0.147460
O20	O	0.733938	-1.258573	0.647460
C21	C	0.123596	-1.487587	-0.000010
C22	C	0.623596	-0.987587	0.499990
C23	C	0.120884	-1.323492	-0.000011
C24	C	0.620884	-0.823492	0.499989
C25	C	-0.023615	-1.750726	0.000005
C26	C	0.476385	-1.250726	0.500005
C27	C	-0.110753	-1.737542	0.000005
C28	C	0.389247	-1.237542	0.500005
N29	N	0.119781	-1.756853	0.419755
N30	N	0.619781	-1.256853	0.919755
C31	C	-0.160090	-1.864748	0.000008
C32	C	0.339910	-1.364748	0.500008
C33	C	-0.241964	-1.852352	-0.000009
C34	C	0.258036	-1.352352	0.499991
C35	C	-0.274500	-1.712748	-0.000016
C36	C	0.225500	-1.212748	0.499984
C37	C	-0.225157	-1.585533	-0.000024
C38	C	0.274843	-1.085533	0.499976
C39	C	-0.143284	-1.597931	-0.000020
C40	C	0.356716	-1.097931	0.499980
C41	C	-0.518463	-1.661364	-0.000041
C42	C	-0.018463	-1.161364	0.499959
C43	C	-0.600343	-1.648976	-0.000040
C44	C	-0.100343	-1.148976	0.499960
C45	C	-0.617144	-1.915797	-0.000028
C46	C	-0.117144	-1.415797	0.499972
C47	C	-0.535269	-1.928182	-0.000013
C48	C	-0.035269	-1.428182	0.499987
C49	C	-0.485933	-1.800967	-0.000031
C50	C	0.014067	-1.300967	0.499969
N51	N	-0.358189	-1.700074	-0.000028
N52	N	0.141811	-1.200074	0.499972
N53	N	-0.402245	-1.813642	-0.000032
N54	N	0.097755	-1.313642	0.499968
C55	C	0.263183	-1.762998	-0.000026
C56	C	0.763183	-1.262998	0.499974
C57	C	0.350320	-1.776182	-0.000037
C58	C	0.850320	-1.276182	0.499963
C59	C	0.115972	-2.026138	-0.000011
C60	C	0.615972	-1.526138	0.499989
C61	C	0.118684	-2.190232	-0.000022
C62	C	0.618684	-1.690232	0.499978
N63	N	0.119780	-1.756882	-0.419772
N64	N	0.619780	-1.256882	0.080228
H65	H	-0.133606	-1.978428	0.000024
H66	H	0.366394	-1.478428	0.500024
H67	H	-0.251654	-1.471864	-0.000041
H68	H	0.248346	-0.971864	0.499959
H69	H	-0.103114	-1.494345	-0.000023
H70	H	0.396886	-0.994345	0.499977
H71	H	-0.508785	-2.041862	-0.000008
H72	H	-0.008785	-1.541862	0.499992
H73	H	-0.282132	-1.955937	-0.000003
H74	H	0.217868	-1.455937	0.499997
Br75	Br	-0.644498	-1.459501	-0.000031
Br76	Br	-0.144498	-0.959501	0.499969
Br77	Br	-0.451517	-1.488713	-0.000076
Br78	Br	0.048483	-0.988713	0.499924
Br79	Br	-0.684104	-2.088436	-0.000005
Br80	Br	-0.184104	-1.588436	0.499995
