data_functionalizedCrystal
_audit_creation_method	'MofGen! by Chris Wilmer'
_symmetry_space_group_name_H-M	'P1'
_symmetry_Int_Tables_number	1
_symmetry_cell_setting	triclinic
loop_
_symmetry_equiv_pos_as_xyz
  x,y,z
_cell_length_a	13.635800
_cell_length_b	17.078509
_cell_length_c	17.458065
_cell_angle_alpha	84.101289
_cell_angle_beta	106.368158
_cell_angle_gamma	80.693456
loop_
_atom_site_label
_atom_site_type_symbol
_atom_site_fract_x
_atom_site_fract_y
_atom_site_fract_z
V1	V	2.019569	-0.111344	0.249077
O2	O	2.023930	0.003727	0.244418
O3	O	1.984972	-0.219216	0.247293
O4	O	2.002772	-0.110344	0.357744
O5	O	2.006007	-0.105898	0.133203
V6	V	2.261770	-0.097496	0.235227
O7	O	2.149232	-0.141721	0.279457
O8	O	2.357206	-0.067119	0.204846
O9	O	2.184763	0.010375	0.237010
O10	O	2.316108	-0.212568	0.239885
O11	O	2.334030	-0.102942	0.351101
O12	O	2.166964	-0.098497	0.126560
V13	V	2.519569	-0.111344	0.249077
O14	O	2.523930	0.003727	0.244418
O15	O	2.484972	-0.219216	0.247293
O16	O	2.502772	-0.110344	0.357744
O17	O	2.506007	-0.105898	0.133203
V18	V	2.761770	-0.097496	0.235227
O19	O	2.649232	-0.141721	0.279457
O20	O	2.857206	-0.067119	0.204846
O21	O	2.684763	0.010375	0.237010
O22	O	2.816108	-0.212568	0.239885
O23	O	2.834030	-0.102942	0.351101
O24	O	2.666964	-0.098497	0.126560
C25	C	1.904704	-0.245490	0.243343
C26	C	1.917110	-0.333681	0.242610
C27	C	1.977151	-0.829665	0.238059
C28	C	1.965503	-0.746801	0.238751
C29	C	2.050618	-0.709438	0.243077
C30	C	2.147390	-0.754944	0.246718
C31	C	2.159039	-0.837807	0.246031
C32	C	2.025532	-0.462050	0.245564
C33	C	2.013874	-0.379180	0.246248
C34	C	1.831988	-0.371044	0.238283
C35	C	1.843644	-0.453908	0.237592
C36	C	1.940416	-0.499408	0.241237
N37	N	2.038713	-0.624737	0.243782
N38	N	1.952322	-0.584108	0.240537
C39	C	1.927409	-0.106612	0.384233
C40	C	1.954248	-0.106508	0.473069
C41	C	2.096702	0.036645	0.240958
C42	C	2.073915	0.124835	0.241697
C43	C	2.073998	-0.102231	0.100066
C44	C	2.036778	-0.102331	0.011230
C45	C	2.404704	-0.245490	0.243343
C46	C	2.417110	-0.333681	0.242610
C47	C	1.875908	-0.102473	0.510739
C48	C	1.901135	-0.102382	0.594211
C49	C	2.004700	-0.106321	0.640010
C50	C	2.083045	-0.110358	0.602335
C51	C	2.057820	-0.110455	0.518865
C52	C	2.089897	-0.106465	0.890085
C53	C	2.115117	-0.106366	0.973560
C54	C	1.933205	-0.098391	0.965430
C55	C	1.907986	-0.098483	0.881959
C56	C	1.986334	-0.102525	0.844291
N57	N	2.030487	-0.106225	0.725332
N58	N	1.960548	-0.102626	0.758972
C59	C	2.399015	-0.363307	0.169086
C60	C	2.410683	-0.446170	0.168386
C61	C	2.440439	-0.499406	0.241209
C62	C	2.458539	-0.469775	0.314738
C63	C	2.446878	-0.386913	0.315438
C64	C	2.427409	-0.106612	0.384233
C65	C	2.454248	-0.106508	0.473069
C66	C	2.596702	0.036645	0.240958
C67	C	2.573915	0.124835	0.241697
C68	C	2.573998	-0.102231	0.100066
C69	C	2.536778	-0.102331	0.011230
C70	C	2.557812	-0.110440	0.518857
C71	C	2.583043	-0.110332	0.602327
C72	C	2.504710	-0.106297	0.640007
C73	C	2.401136	-0.102362	0.594212
C74	C	2.375906	-0.102465	0.510743
C75	C	2.649634	0.170321	0.238054
C76	C	2.628231	0.253187	0.238735
C77	C	2.531111	0.290566	0.243065
C78	C	2.455385	0.245075	0.246706
C79	C	2.476786	0.162211	0.246019
C80	C	2.432883	-0.106357	-0.026430
C81	C	2.397894	-0.106442	-0.109902
C82	C	2.466803	-0.102506	-0.155712
C83	C	2.570706	-0.098477	-0.118047
C84	C	2.605691	-0.098387	-0.034578
H85	H	1.907840	-0.860081	0.234539
H86	H	2.513698	0.358040	0.243623
H87	H	2.525268	-0.106215	0.707973
Br88	Br	2.419305	-0.102631	-0.268993
H89	H	2.621610	-0.113728	0.488190
H90	H	2.083187	-0.348760	0.249762
H91	H	2.376759	-0.109561	0.010858
Br92	Br	1.700660	-0.309291	0.233334
Br93	Br	2.294839	-0.096897	0.645364
Br94	Br	2.386114	-0.486365	0.068589
H95	H	2.291573	-0.099264	0.473468
H96	H	2.313289	-0.109722	-0.140556
Br97	Br	1.834176	-0.685055	0.233815
Br98	Br	2.498919	-0.542034	0.413563
Br99	Br	1.728117	-0.504606	0.231695
Br100	Br	2.196230	-0.111949	0.838975
Br101	Br	2.781451	0.119612	0.232179
H102	H	2.626802	-0.095270	-0.155359
Br103	Br	2.358629	-0.291075	0.070243
H104	H	2.449930	-0.566875	0.240628
Br105	Br	1.767433	-0.093156	0.819810
H106	H	2.689904	0.290215	0.235772
H107	H	2.415125	0.125181	0.248993
Br108	Br	2.156862	-0.523788	0.250505
Br109	Br	2.262908	-0.704238	0.252596
H110	H	2.690293	-0.095113	-0.003921
Br111	Br	2.290369	-0.899559	0.250977
Br112	Br	2.471433	-0.346718	0.415230
Br113	Br	1.794811	-0.096913	0.645333
Br114	Br	1.735349	-0.097117	0.448589
Br115	Br	1.826884	-0.092912	1.016555
H116	H	2.199456	-0.109579	1.010849
Br117	Br	2.223602	-0.115713	0.664492
Br118	Br	2.723611	-0.115677	0.664460
Br119	Br	2.164144	-0.115938	0.467742
H120	H	2.376309	0.275521	0.250230
