data_functionalizedCrystal
_audit_creation_method	'MofGen! by Chris Wilmer'
_symmetry_space_group_name_H-M	'P1'
_symmetry_Int_Tables_number	1
_symmetry_cell_setting	triclinic
loop_
_symmetry_equiv_pos_as_xyz
  x,y,z
_cell_length_a	18.215407
_cell_length_b	21.295418
_cell_length_c	18.215399
_cell_angle_alpha	90.030464
_cell_angle_beta	90.016899
_cell_angle_gamma	90.024859
loop_
_atom_site_label
_atom_site_type_symbol
_atom_site_fract_x
_atom_site_fract_y
_atom_site_fract_z
Zn1	Zn	1.125059	-0.250658	0.416045
Zn2	Zn	1.124962	-0.355929	0.292974
Zn3	Zn	1.001992	-0.250673	0.292999
Zn4	Zn	1.001952	-0.355889	0.416005
O5	O	1.063491	-0.303288	0.354506
O6	O	1.228030	-0.264633	0.399726
O7	O	1.108626	-0.341990	0.189993
O8	O	1.018374	-0.162582	0.309349
O9	O	1.227959	-0.341976	0.309306
O10	O	1.108791	-0.162571	0.399751
O11	O	1.018280	-0.264659	0.190011
O12	O	0.899002	-0.264620	0.309310
O13	O	1.018307	-0.341907	0.518995
O14	O	0.898973	-0.341921	0.399682
O15	O	1.108753	-0.264594	0.519024
O16	O	1.108587	-0.444013	0.309266
O17	O	1.018212	-0.443984	0.399657
C18	C	0.872285	-0.303268	0.354494
C19	C	0.790486	-0.303275	0.354507
C20	C	1.063405	-0.466839	0.354471
C21	C	1.063436	-0.536807	0.354480
C22	C	0.525433	-0.343604	0.401498
C23	C	0.602291	-0.343599	0.401494
C24	C	0.602291	-0.262985	0.307527
C25	C	0.525434	-0.262994	0.307527
C26	C	0.487006	-0.303303	0.354517
C27	C	0.640723	-0.303288	0.354513
C28	C	0.724056	-0.303282	0.354509
C29	C	0.403667	-0.303310	0.354520
C30	C	1.110726	-1.036260	0.307558
C31	C	1.110698	-0.970517	0.307541
C32	C	1.063595	-0.937647	0.354557
C33	C	1.016503	-0.970524	0.401581
C34	C	1.016527	-1.036265	0.401592
N35	N	1.057874	-0.834393	0.418954
N36	N	1.057855	-0.771942	0.418942
C37	C	1.063518	-0.739572	0.354526
N38	N	1.069215	-0.772013	0.290122
N39	N	1.069237	-0.834470	0.290135
C40	C	1.063563	-0.866361	0.354550
C41	C	1.110573	-0.635417	0.307483
C42	C	1.110540	-0.569673	0.307464
C43	C	1.016349	-0.569681	0.401511
C44	C	1.016378	-0.635424	0.401523
C45	C	1.063494	-0.668288	0.354510
C46	C	1.255444	-0.303307	0.354518
C47	C	1.337243	-0.303316	0.354523
C48	C	1.063536	-0.303244	0.546459
C49	C	1.063555	-0.303226	0.628258
C50	C	1.063598	-0.139097	0.354557
C51	C	1.063643	-0.069129	0.354579
C52	C	1.063489	-0.303285	0.163300
C53	C	1.063612	-0.303127	0.081501
C54	C	1.110667	-0.262931	0.816468
C55	C	1.110676	-0.262913	0.893327
C56	C	1.016495	-0.343423	0.893285
C57	C	1.016483	-0.343437	0.816428
C58	C	1.063573	-0.303193	0.778021
C59	C	1.063594	-0.303160	0.931737
C60	C	1.063603	-0.303140	1.015071
C61	C	1.063563	-0.303211	0.694682
H62	H	0.494147	-0.376427	0.439760
H63	H	0.633588	-0.230166	0.269270
C64	C	0.974698	-0.379152	1.011084
C65	C	0.964741	-0.387663	0.935504
H66	H	0.942750	-0.406469	1.037145
H67	H	0.963953	-0.336859	1.023690
H68	H	1.024144	-0.388366	1.023674
H69	H	0.915296	-0.378444	0.922913
H70	H	0.975481	-0.429965	0.922893
C71	C	0.980569	-0.450036	0.792709
C72	C	0.964717	-0.387697	0.774158
H73	H	0.948613	-0.477357	0.766609
H74	H	0.973832	-0.455786	0.843972
H75	H	1.030010	-0.459246	0.780115
H76	H	0.915276	-0.378487	0.786758
H77	H	0.971447	-0.381945	0.722884
C78	C	0.533147	-0.183301	0.214646
C79	C	0.483190	-0.218689	0.255883
H80	H	0.507066	-0.155949	0.182767
H81	H	0.563105	-0.210693	0.186439
H82	H	0.563144	-0.159252	0.246766
H83	H	0.453197	-0.242741	0.223763
H84	H	0.453219	-0.191293	0.284092
C85	C	1.120805	-0.495802	0.208460
C86	C	1.162297	-0.533542	0.255771
H87	H	1.152759	-0.473500	0.176544
H88	H	1.092752	-0.466820	0.236455
H89	H	1.088774	-0.521495	0.180287
H90	H	1.194324	-0.507849	0.283948
H91	H	1.190362	-0.562527	0.227773
C92	C	1.006273	-1.110144	0.500587
C93	C	0.964775	-1.072401	0.453286
H94	H	0.974322	-1.132456	0.532498
H95	H	1.038300	-1.084458	0.528759
H96	H	1.034329	-1.139124	0.472580
H97	H	0.936722	-1.043418	0.481293
H98	H	0.932735	-1.098089	0.425111
C99	C	0.594566	-0.423276	0.494384
C100	C	0.644529	-0.387897	0.453141
H101	H	0.620644	-0.450622	0.526272
H102	H	0.564572	-0.447324	0.462272
H103	H	0.564607	-0.395872	0.522587
H104	H	0.674485	-0.415300	0.424934
H105	H	0.674536	-0.363847	0.485256
C106	C	1.203825	-1.029643	0.214595
C107	C	1.162507	-1.072383	0.255873
H108	H	1.235788	-1.051947	0.182683
H109	H	1.231946	-1.003969	0.246682
H110	H	1.171761	-1.004035	0.186415
H111	H	1.194572	-1.097988	0.284057
H112	H	1.134385	-1.098068	0.223782
H113	H	0.977993	-0.542919	0.439790
C114	C	1.120967	-0.896629	0.208550
C115	C	1.162457	-0.934376	0.255855
H116	H	1.152922	-0.874321	0.176640
H117	H	1.092912	-0.867652	0.236549
H118	H	1.088938	-0.922318	0.180370
H119	H	1.194483	-0.908686	0.284038
H120	H	1.190524	-0.963356	0.227852
C121	C	1.203668	-0.628808	0.214514
C122	C	1.162353	-0.671546	0.255799
H123	H	1.235630	-0.651113	0.182604
H124	H	1.231788	-0.603131	0.246597
H125	H	1.171601	-0.603204	0.186332
H126	H	1.194420	-0.697148	0.283985
H127	H	1.134231	-0.697235	0.223712
H128	H	0.978149	-0.943757	0.439862
C129	C	0.923281	-0.628826	0.494487
C130	C	0.964630	-0.671558	0.453219
H131	H	0.891335	-0.651135	0.526405
H132	H	0.895141	-0.603224	0.462394
H133	H	0.955326	-0.603146	0.522660
H134	H	0.932585	-0.697236	0.425043
H135	H	0.992773	-0.697171	0.485317
H136	H	1.149009	-0.230160	0.785200
C137	C	1.203775	-0.183342	0.885644
C138	C	1.162447	-0.218660	0.935588
H139	H	1.235740	-0.156024	0.911735
H140	H	1.171723	-0.159268	0.855671
H141	H	1.231901	-0.210786	0.855661
H142	H	1.134317	-0.191216	0.965568
H143	H	1.194503	-0.242736	0.965573
