data_functionalizedCrystal
_audit_creation_method	'MofGen! by Chris Wilmer'
_symmetry_space_group_name_H-M	'P1'
_symmetry_Int_Tables_number	1
_symmetry_cell_setting	triclinic
loop_
_symmetry_equiv_pos_as_xyz
  x,y,z
_cell_length_a	18.101398
_cell_length_b	11.169416
_cell_length_c	11.169409
_cell_angle_alpha	90.030874
_cell_angle_beta	90.013915
_cell_angle_gamma	90.005896
loop_
_atom_site_label
_atom_site_type_symbol
_atom_site_fract_x
_atom_site_fract_y
_atom_site_fract_z
Zn1	Zn	1.132258	-0.477852	0.678366
Zn2	Zn	1.132190	-0.678593	0.477688
Zn3	Zn	1.008408	-0.477907	0.477721
Zn4	Zn	1.008413	-0.678477	0.678353
O5	O	1.070317	-0.578207	0.578032
O6	O	1.235882	-0.504507	0.651737
O7	O	1.115740	-0.652043	0.309742
O8	O	1.024864	-0.309950	0.504356
O9	O	1.235832	-0.651990	0.504299
O10	O	1.115856	-0.309910	0.651769
O11	O	1.024798	-0.504600	0.309766
O12	O	0.904776	-0.504487	0.504344
O13	O	1.024872	-0.651792	0.846305
O14	O	0.904779	-0.651845	0.651748
O15	O	1.115860	-0.504394	0.846314
O16	O	1.115744	-0.846527	0.504287
O17	O	1.024806	-0.846442	0.651715
C18	C	1.070288	-0.890032	0.578023
C19	C	1.070343	-1.023432	0.578059
C20	C	0.877907	-0.578160	0.578049
C21	C	0.795593	-0.578169	0.578084
C22	C	0.496502	-0.578239	0.578034
C23	C	0.527854	-0.671401	0.670319
C24	C	0.613472	-0.671109	0.670698
C25	C	0.644884	-0.578205	0.578059
C26	C	0.613803	-0.451788	0.612609
C27	C	0.528158	-0.452347	0.613265
C28	C	0.528051	-0.610381	0.450976
C29	C	0.613701	-0.613154	0.451656
C30	C	0.728744	-0.578178	0.578071
C31	C	0.412642	-0.578258	0.578025
C32	C	1.263479	-0.578255	0.578016
C33	C	1.345793	-0.578276	0.578009
C34	C	1.070374	-0.578074	0.891074
C35	C	1.070398	-0.578017	1.024474
C36	C	1.070367	-0.265165	0.578067
C37	C	1.070388	-0.131765	0.578082
C38	C	1.070303	-0.578253	0.266207
C39	C	1.070423	-0.577972	0.132808
H40	H	0.634487	-0.764854	0.649045
H41	H	0.507417	-0.380446	0.549131
Cl42	Cl	0.496051	-0.816613	0.637276
H43	H	0.506456	-0.700988	0.419576
H44	H	0.508195	-0.425088	0.706150
H45	H	0.635266	-0.424037	0.704484
H46	H	0.634025	-0.706179	0.425598
H47	H	0.633974	-0.649841	0.764840
Cl48	Cl	0.646707	-0.515995	0.339793
Cl49	Cl	0.645216	-0.341707	0.512078
Cl50	Cl	0.496743	-0.505618	0.344814
H51	H	0.506343	-0.650404	0.763916
