data_functionalizedCrystal
_audit_creation_method	'MofGen! by Chris Wilmer'
_symmetry_space_group_name_H-M	'P1'
_symmetry_Int_Tables_number	1
_symmetry_cell_setting	triclinic
loop_
_symmetry_equiv_pos_as_xyz
  x,y,z
_cell_length_a	16.625547
_cell_length_b	16.625546
_cell_length_c	10.686551
_cell_angle_alpha	94.409858
_cell_angle_beta	94.401304
_cell_angle_gamma	90.022405
loop_
_atom_site_label
_atom_site_type_symbol
_atom_site_fract_x
_atom_site_fract_y
_atom_site_fract_z
Zn1	Zn	1.267698	-0.285960	0.713627
Zn2	Zn	1.257247	-0.431165	0.502605
Zn3	Zn	1.122506	-0.296349	0.502618
Zn4	Zn	1.132826	-0.420758	0.713537
O5	O	1.195069	-0.358558	0.608097
O6	O	1.379146	-0.305229	0.685667
O7	O	1.230680	-0.421984	0.326023
O8	O	1.141821	-0.182136	0.530652
O9	O	1.371467	-0.411910	0.530630
O10	O	1.248493	-0.174503	0.685680
O11	O	1.131686	-0.322936	0.326032
O12	O	1.011041	-0.312845	0.530564
O13	O	1.159410	-0.394174	0.890133
O14	O	1.018623	-0.404248	0.685525
O15	O	1.258501	-0.295138	0.890199
O16	O	1.240687	-0.542619	0.530542
O17	O	1.149276	-0.534973	0.685513
C18	C	0.985576	-0.358545	0.608037
C19	C	0.895955	-0.358558	0.608042
C20	C	0.823173	-0.358558	0.608057
C21	C	0.731866	-0.358561	0.608089
C22	C	0.659091	-0.358567	0.608121
C23	C	0.567778	-0.358571	0.608151
C24	C	1.194990	-0.568051	0.608044
C25	C	1.195033	-0.657672	0.608064
C26	C	1.195180	-0.985841	0.608195
C27	C	1.195136	-0.894534	0.608162
C28	C	1.195105	-0.821759	0.608129
C29	C	1.195063	-0.730446	0.608097
C30	C	1.405381	-0.358571	0.608157
C31	C	1.495004	-0.358577	0.608183
C32	C	1.211273	-0.342336	0.937232
C33	C	1.218177	-0.335423	1.077490
C34	C	1.195172	-0.148245	0.608177
C35	C	1.195216	-0.058622	0.608212
C36	C	1.178976	-0.374659	0.280242
C37	C	1.172227	-0.381344	0.139984
H38	H	1.262806	-0.290820	1.131294
H39	H	1.127607	-0.425950	1.086187
