data_functionalizedCrystal
_audit_creation_method	'MofGen! by Chris Wilmer'
_symmetry_space_group_name_H-M	'P1'
_symmetry_Int_Tables_number	1
_symmetry_cell_setting	triclinic
loop_
_symmetry_equiv_pos_as_xyz
  x,y,z
_cell_length_a	25.639239
_cell_length_b	21.395364
_cell_length_c	21.395355
_cell_angle_alpha	89.974702
_cell_angle_beta	90.019334
_cell_angle_gamma	89.944613
loop_
_atom_site_label
_atom_site_type_symbol
_atom_site_fract_x
_atom_site_fract_y
_atom_site_fract_z
Zn1	Zn	-0.207978	-0.957825	0.354270
Zn2	Zn	-0.295398	-0.957712	0.249491
Zn3	Zn	-0.208004	-0.853040	0.249506
Zn4	Zn	-0.295410	-0.852994	0.354230
O5	O	-0.251698	-0.905393	0.301874
O6	O	-0.219559	-1.045488	0.340382
O7	O	-0.283811	-0.943799	0.161815
O8	O	-0.134835	-0.867005	0.263426
O9	O	-0.283786	-1.045405	0.263401
O10	O	-0.134817	-0.943990	0.340396
O11	O	-0.219603	-0.866897	0.161826
O12	O	-0.219614	-0.765356	0.263387
O13	O	-0.283806	-0.866928	0.441913
O14	O	-0.283831	-0.765322	0.340327
O15	O	-0.219571	-0.943946	0.441943
O16	O	-0.368565	-0.943755	0.263362
O17	O	-0.368574	-0.866819	0.340314
C18	C	-0.251727	-0.742605	0.301855
C19	C	-0.251752	-0.672964	0.301861
C20	C	-0.218365	-0.640316	0.342006
C21	C	-0.218353	-0.574880	0.342008
C22	C	-0.251737	-0.542095	0.301871
C23	C	-0.285127	-0.574751	0.261718
C24	C	-0.285135	-0.640185	0.261713
C25	C	-0.298825	-0.438363	0.296831
C26	C	-0.298818	-0.372930	0.296840
C27	C	-0.251714	-0.340275	0.301882
C28	C	-0.204614	-0.373060	0.306928
C29	C	-0.204622	-0.438494	0.306923
C30	C	-0.251733	-0.471143	0.301871
C31	C	-0.218310	-0.236674	0.342031
C32	C	-0.218297	-0.171238	0.342029
C33	C	-0.285076	-0.171110	0.261741
C34	C	-0.285084	-0.236545	0.261741
C35	C	-0.251702	-0.269323	0.301889
C36	C	-0.387540	-0.905287	0.301846
C37	C	-0.445654	-0.905300	0.301854
C38	C	-0.806000	-0.945558	0.261874
C39	C	-0.860604	-0.945582	0.261883
O40	O	-0.888827	-0.979702	0.227859
N41	N	-0.887937	-0.905503	0.301916
C42	C	-0.860662	-0.865401	0.341948
O43	O	-0.888924	-0.831313	0.376001
C44	C	-0.806058	-0.865380	0.341942
C45	C	-0.778729	-0.905458	0.301902
C46	C	-0.778671	-0.985633	0.221838
C47	C	-0.724070	-0.985607	0.221829
C48	C	-0.696799	-0.945507	0.261856
C49	C	-0.724129	-0.905433	0.301893
C50	C	-0.778785	-0.825282	0.381977
C51	C	-0.724178	-0.825265	0.381968
C52	C	-0.696848	-0.865343	0.341928
C53	C	-0.642257	-0.865307	0.341911
N54	N	-0.614925	-0.905387	0.301878
C55	C	-0.642196	-0.945487	0.261850
C56	C	-0.975332	-0.865448	0.341958
C57	C	-1.029935	-0.865465	0.341961
C58	C	-1.029874	-0.945647	0.261896
C59	C	-0.975270	-0.945627	0.261890
C60	C	-0.948000	-0.905528	0.301924
C61	C	-0.527531	-0.945430	0.261834
C62	C	-0.472925	-0.945399	0.261827
C63	C	-0.472991	-0.865220	0.341894
C64	C	-0.527592	-0.865248	0.341899
C65	C	-0.554860	-0.905358	0.301867
O66	O	-0.614000	-0.831207	0.375920
O67	O	-0.613927	-0.979575	0.227809
C68	C	-0.115325	-0.905516	0.301917
C69	C	-0.057210	-0.905568	0.301935
C70	C	-0.251687	-0.905445	0.465298
C71	C	-0.251683	-0.905467	0.534939
C72	C	-0.251675	-0.068816	0.301891
C73	C	-0.251681	-0.138457	0.301890
C74	C	-0.251670	-0.905377	0.139087
C75	C	-0.251528	-0.905476	0.069446
C76	C	-0.218234	-0.945569	0.567669
C77	C	-0.218211	-0.945568	0.633104
C78	C	-0.251647	-0.905472	0.665807
C79	C	-0.285098	-0.865362	0.633070
C80	C	-0.285116	-0.865360	0.567636
C81	C	-0.298725	-0.900488	0.769472
C82	C	-0.298708	-0.900495	0.834905
C83	C	-0.251592	-0.905476	0.867628
C84	C	-0.204490	-0.910463	0.834910
C85	C	-0.204508	-0.910460	0.769476
C86	C	-0.251631	-0.905470	0.736760
C87	C	-0.218115	-0.945579	0.971310
C88	C	-0.218092	-0.945573	1.036747
C89	C	-0.284984	-0.865371	1.036712
C90	C	-0.285003	-0.865373	0.971276
C91	C	-0.251569	-0.905480	0.938580
H92	H	-0.191162	-0.548293	0.374698
H93	H	-1.052182	-0.832824	0.374560
H94	H	-0.701977	-0.792612	0.414571
H95	H	-0.800869	-1.018290	0.189242
H96	H	-0.953022	-0.978262	0.229286
H97	H	-0.801027	-0.792644	0.414579
H98	H	-0.166157	-0.914519	0.742840
N99	N	-0.443447	-0.988630	0.218643
H100	H	-0.452979	-0.978929	0.173868
H101	H	-0.452909	-1.033378	0.228475
N102	N	-0.182133	-0.988821	0.668416
H103	H	-0.160955	-1.014227	0.637773
H104	H	-0.203407	-1.017795	0.695575
H105	H	-0.953132	-0.832790	0.374556
H106	H	-0.337061	-0.896438	0.861539
H107	H	-0.450779	-0.832569	0.374482
N108	N	-0.153664	-0.915828	0.870189
H109	H	-0.135868	-0.956393	0.858821
H110	H	-0.160835	-0.915041	0.916595
N111	N	-0.557073	-0.822017	0.385077
H112	H	-0.531509	-0.796608	0.410431
H113	H	-0.579685	-0.847518	0.414102
N114	N	-0.349548	-0.895124	0.734181
H115	H	-0.379383	-0.891974	0.764834
H116	H	-0.354396	-0.933299	0.707052
H117	H	-0.191009	-0.978226	0.541051
H118	H	-0.337186	-0.464946	0.292725
N119	N	-0.182056	-0.988832	0.936039
H120	H	-0.160859	-1.014234	0.966705
H121	H	-0.157874	-0.963350	0.908877
H122	H	-0.190851	-0.978228	1.063394
H123	H	-0.312203	-0.832718	1.063338
H124	H	-0.191182	-0.667000	0.374698
N125	N	-0.153827	-0.473857	0.312362
H126	H	-0.123983	-0.443246	0.315557
H127	H	-0.148931	-0.500992	0.274194
N128	N	-0.321196	-0.822112	0.532323
H129	H	-0.299957	-0.793100	0.505162
H130	H	-0.342369	-0.796747	0.563001
H131	H	-0.166257	-0.346473	0.311034
H132	H	-0.312324	-0.666767	0.229021
H133	H	-0.701822	-1.018244	0.189226
N134	N	-0.321072	-0.822110	0.935970
H135	H	-0.342247	-0.796704	0.966615
H136	H	-0.345274	-0.847579	0.908824
N137	N	-0.556937	-0.988691	0.218659
H138	H	-0.531332	-1.014070	0.193297
H139	H	-0.579631	-0.963212	0.189641
H140	H	-0.191125	-0.263364	0.374718
N141	N	-1.059293	-0.988900	0.218721
H142	H	-1.098030	-0.982829	0.224805
H143	H	-1.049698	-1.033639	0.228514
N144	N	-0.321153	-0.822105	0.668338
H145	H	-0.316066	-0.828190	0.714758
H146	H	-0.358498	-0.831813	0.656907
H147	H	-0.191106	-0.144657	0.374719
H148	H	-0.312258	-0.144417	0.229061
H149	H	-0.337170	-0.346241	0.292735
N150	N	-0.321096	-0.271763	0.218442
H151	H	-0.342243	-0.241067	0.193014
H152	H	-0.345327	-0.298894	0.243890
H153	H	-0.312308	-0.548053	0.229037
