data_functionalizedCrystal
_audit_creation_method	'MofGen! by Chris Wilmer'
_symmetry_space_group_name_H-M	'P1'
_symmetry_Int_Tables_number	1
_symmetry_cell_setting	triclinic
loop_
_symmetry_equiv_pos_as_xyz
  x,y,z
_cell_length_a	10.967926
_cell_length_b	10.065875
_cell_length_c	10.723024
_cell_angle_alpha	81.125686
_cell_angle_beta	84.591890
_cell_angle_gamma	86.879521
loop_
_atom_site_label
_atom_site_type_symbol
_atom_site_fract_x
_atom_site_fract_y
_atom_site_fract_z
O1	O	1.614685	-0.266275	0.217682
O2	O	1.264670	-0.183951	0.221246
O3	O	1.447750	-0.227017	0.038193
O4	O	1.431605	-0.223209	0.400735
O5	O	1.412841	-0.445794	0.073245
O6	O	1.229760	-0.402728	0.256299
O7	O	1.579775	-0.485052	0.252734
Zn8	Zn	1.399225	-0.478626	0.260082
Zn9	Zn	1.445220	-0.190378	0.213899
O10	O	1.396695	-0.441986	0.435788
C11	C	1.202398	-0.282799	0.235865
C12	C	1.068856	-0.251389	0.227185
N13	N	1.367843	-0.675349	0.291600
C14	C	0.991234	-0.350719	0.241474
C15	C	0.853212	-0.318258	0.232503
C16	C	1.434294	-0.758759	0.224857
C17	C	1.410151	-0.910247	0.249124
C18	C	1.642048	-0.386202	0.238116
C19	C	1.775591	-0.417602	0.246794
C20	C	1.429121	-0.336127	0.009175
C21	C	1.425606	-0.335296	-0.129512
N22	N	1.476611	0.006344	0.182371
C23	C	1.528048	-0.359389	-0.200635
C24	C	1.524418	-0.358530	-0.343976
C25	C	1.415325	-0.332873	0.464805
C26	C	1.418841	-0.333696	0.603491
H27	H	1.026963	-0.459790	0.260340
Cl28	Cl	1.286040	-0.302456	-0.199332
H29	H	1.551376	-0.952922	0.107254
Cl30	Cl	0.798070	-0.149848	0.203352
H31	H	1.618440	-0.380657	-0.155406
H32	H	1.293075	-0.716088	0.366703
Cl33	Cl	1.549454	-0.695807	0.108601
H34	H	1.612116	-0.379161	-0.405103
Cl35	Cl	1.283426	-0.301859	-0.302144
H36	H	1.335377	-0.950979	0.324232
H37	H	0.811311	-0.526682	0.265665
H38	H	1.033129	-0.142318	0.208308
