data_functionalizedCrystal
_audit_creation_method	'MofGen! by Chris Wilmer'
_symmetry_space_group_name_H-M	'P1'
_symmetry_Int_Tables_number	1
_symmetry_cell_setting	triclinic
loop_
_symmetry_equiv_pos_as_xyz
  x,y,z
_cell_length_a	14.519709
_cell_length_b	14.519731
_cell_length_c	12.996460
_cell_angle_alpha	89.992872
_cell_angle_beta	90.000034
_cell_angle_gamma	83.684499
loop_
_atom_site_label
_atom_site_type_symbol
_atom_site_fract_x
_atom_site_fract_y
_atom_site_fract_z
O1	O	1.223878	0.120892	-0.085435
O2	O	1.723878	0.620892	0.414565
O3	O	0.955402	0.135128	-0.085467
O4	O	1.455402	0.635128	0.414533
O5	O	1.096748	-0.006227	-0.085441
O6	O	1.596748	0.493773	0.414559
O7	O	1.082532	0.262247	-0.085461
O8	O	1.582532	0.762247	0.414539
O9	O	1.096733	-0.006235	0.085693
O10	O	1.596733	0.493765	0.585693
O11	O	0.955387	0.135120	0.085667
O12	O	1.455387	0.635120	0.585667
O13	O	1.223863	0.120884	0.085699
O14	O	1.723863	0.620884	0.585699
Cu15	Cu	1.089624	0.128001	0.101309
Cu16	Cu	1.589624	0.628001	0.601309
Cu17	Cu	1.089641	0.128011	-0.101077
Cu18	Cu	1.589641	0.628011	0.398923
O19	O	1.082517	0.262239	0.085673
O20	O	1.582517	0.762239	0.585673
C21	C	0.921035	0.134461	0.000096
C22	C	1.421035	0.634461	0.500096
C23	C	0.818654	0.132473	0.000084
C24	C	1.318654	0.632473	0.500084
C25	C	1.096075	-0.040591	0.000126
C26	C	1.596075	0.459409	0.500126
C27	C	1.094079	-0.142971	0.000127
C28	C	1.594079	0.357029	0.500127
C29	C	0.443757	0.125153	0.000132
C30	C	0.943757	0.625153	0.500132
C31	C	0.548065	0.127186	0.000118
C32	C	1.048065	0.627186	0.500118
C33	C	0.631202	0.128813	0.000107
C34	C	1.131202	0.628813	0.500107
C35	C	0.735517	0.130846	0.000095
C36	C	1.235517	0.630846	0.500095
C37	C	1.092457	-0.226115	0.000124
C38	C	1.592457	0.273885	0.500124
C39	C	1.090430	-0.330424	0.000116
C40	C	1.590430	0.169576	0.500116
C41	C	1.088822	-0.413563	0.000109
C42	C	1.588822	0.086437	0.500109
C43	C	1.086795	-0.517878	0.000103
C44	C	1.586795	-0.017878	0.500103
C45	C	1.258230	0.121551	0.000133
C46	C	1.758230	0.621551	0.500133
C47	C	1.360612	0.123539	0.000138
C48	C	1.860612	0.623539	0.500138
C49	C	1.083191	0.296603	0.000103
C50	C	1.583191	0.796603	0.500103
C51	C	1.085187	0.398983	0.000096
C52	C	1.585187	0.898983	0.500096
N53	N	1.089618	0.127994	0.243656
N54	N	1.589618	0.627994	0.743656
N55	N	1.089654	0.128010	-0.243424
N56	N	1.589654	0.628010	0.256576
C57	C	1.089640	0.128012	0.663470
C58	C	1.589640	0.628012	1.163470
C59	C	1.089631	0.128010	0.546665
C60	C	1.589631	0.628010	1.046665
C61	C	1.089630	0.128004	0.453567
C62	C	1.589630	0.628004	0.953567
C63	C	1.089620	0.128001	0.336754
C64	C	1.589620	0.628001	0.836754
