data_functionalizedCrystal
_audit_creation_method	'MofGen! by Chris Wilmer'
_symmetry_space_group_name_H-M	'P1'
_symmetry_Int_Tables_number	1
_symmetry_cell_setting	triclinic
loop_
_symmetry_equiv_pos_as_xyz
  x,y,z
_cell_length_a	6.817900
_cell_length_b	10.773890
_cell_length_c	16.305550
_cell_angle_alpha	96.344786
_cell_angle_beta	103.455250
_cell_angle_gamma	96.645716
loop_
_atom_site_label
_atom_site_type_symbol
_atom_site_fract_x
_atom_site_fract_y
_atom_site_fract_z
V1	V	-3.991657	-0.173642	-0.261649
O2	O	-4.015287	0.007261	-0.258082
O3	O	-3.909321	-0.343261	-0.258499
O4	O	-3.943501	-0.171446	-0.376383
O5	O	-3.980871	-0.165743	-0.139382
V6	V	-4.479651	-0.151948	-0.247190
O7	O	-4.243109	-0.221230	-0.293365
O8	O	-4.678397	-0.104359	-0.215473
O9	O	-4.338781	0.017671	-0.250339
O10	O	-4.573418	-0.332850	-0.250757
O11	O	-4.607834	-0.159846	-0.369457
O12	O	-4.304601	-0.154143	-0.132455
C13	C	-3.746059	-0.384595	-0.254021
C14	C	-3.760028	-0.523264	-0.252210
C15	C	-3.938109	-0.591139	-0.255356
C16	C	-3.952551	-0.734460	-0.253485
C17	C	-3.789657	-0.165427	-0.404392
C18	C	-3.831343	-0.164754	-0.498180
C19	C	-3.982949	-0.162147	-0.838946
C20	C	-3.748443	-0.154407	-0.798079
C21	C	-3.705007	-0.155623	-0.700574
C22	C	-3.907734	-0.163440	-0.669888
C23	C	-4.050228	-0.286635	-0.719533
C24	C	-4.092230	-0.285939	-0.817088
C25	C	-4.060506	-0.047676	-0.794014
C26	C	-4.012771	-0.046701	-0.696179
C27	C	-3.865238	-0.164175	-0.574344
C28	C	-4.025453	-0.161421	-0.934491
C29	C	-4.165384	0.058999	-0.254816
C30	C	-4.130653	0.197667	-0.256631
C31	C	-4.121786	-0.160166	-0.104442
C32	C	-4.059340	-0.160833	-0.010654
H33	H	-3.596154	-0.067046	-0.666256
Br34	Br	-3.523722	-0.603246	-0.245423
Br35	Br	-3.566685	-0.294289	-0.672306
Br36	Br	-4.003223	-0.430374	-0.866581
Br37	Br	-4.258764	-0.044131	-0.660611
H38	H	-3.987698	0.045668	-0.808125
H39	H	-3.660032	-0.065411	-0.811151
H40	H	-4.263914	-0.296743	-0.844994
H41	H	-3.686970	-0.236649	-0.828936
Br42	Br	-4.366986	-0.722365	-0.263440
Br43	Br	-4.345769	-0.055296	-0.838649
H44	H	-4.079882	-0.543146	-0.259439
Br45	Br	-4.302131	-0.303600	-0.687885
H46	H	-3.909875	0.044421	-0.662526
Br47	Br	-3.716232	-0.814437	-0.246698
Br48	Br	-3.929071	-0.431115	-0.690362
