data_functionalizedCrystal
_audit_creation_method	'MofGen! by Chris Wilmer'
_symmetry_space_group_name_H-M	'P1'
_symmetry_Int_Tables_number	1
_symmetry_cell_setting	triclinic
loop_
_symmetry_equiv_pos_as_xyz
  x,y,z
_cell_length_a	11.792254
_cell_length_b	10.868271
_cell_length_c	9.065218
_cell_angle_alpha	90.003285
_cell_angle_beta	95.392759
_cell_angle_gamma	89.994489
loop_
_atom_site_label
_atom_site_type_symbol
_atom_site_fract_x
_atom_site_fract_y
_atom_site_fract_z
O1	O	-1.508022	0.102352	0.202314
O2	O	-1.177798	0.102346	0.223136
O3	O	-1.349736	0.102346	-0.001981
O4	O	-1.336084	0.102351	0.427431
O5	O	-1.349721	-0.102298	-0.001990
O6	O	-1.177784	-0.102299	0.223127
O7	O	-1.508007	-0.102293	0.202305
Zn8	Zn	-1.342893	-0.134788	0.212714
Zn9	Zn	-1.342912	0.134841	0.212726
O10	O	-1.336070	-0.102293	0.427422
C11	C	-1.135493	0.000023	0.221819
C12	C	-1.009458	0.000021	0.217894
C13	C	-0.907104	0.000024	0.214704
C14	C	-0.778695	0.000021	0.210715
N15	N	-1.342889	-0.318802	0.212706
C16	C	-1.342906	-0.569808	0.212723
C17	C	-1.342893	-0.430130	0.212718
C18	C	-0.550313	0.000027	0.203621
C19	C	-0.676347	0.000019	0.207547
C20	C	-1.348416	0.000026	-0.056960
C21	C	-1.344494	0.000032	-0.220767
N22	N	-1.342926	0.318855	0.212723
C23	C	-1.337389	0.000030	0.482401
C24	C	-1.341312	0.000032	0.646207
