data_functionalizedCrystal
_audit_creation_method	'MofGen! by Chris Wilmer'
_symmetry_space_group_name_H-M	'P1'
_symmetry_Int_Tables_number	1
_symmetry_cell_setting	triclinic
loop_
_symmetry_equiv_pos_as_xyz
  x,y,z
_cell_length_a	6.817900
_cell_length_b	15.301126
_cell_length_c	17.110486
_cell_angle_alpha	96.160805
_cell_angle_beta	99.060439
_cell_angle_gamma	104.177575
loop_
_atom_site_label
_atom_site_type_symbol
_atom_site_fract_x
_atom_site_fract_y
_atom_site_fract_z
V1	V	-3.980328	-0.124490	-0.246960
O2	O	-3.965201	0.006259	-0.242012
O3	O	-3.935553	-0.247108	-0.245509
O4	O	-3.910130	-0.122454	-0.354559
O5	O	-3.990800	-0.119259	-0.132206
V6	V	-4.466311	-0.108865	-0.233206
O7	O	-4.236191	-0.158764	-0.277131
O8	O	-4.660646	-0.074591	-0.203034
O9	O	-4.287880	0.013753	-0.234657
O10	O	-4.598835	-0.239614	-0.238154
O11	O	-4.573237	-0.114096	-0.347959
O12	O	-4.313303	-0.110901	-0.125606
C13	C	-3.782141	-0.277004	-0.241675
C14	C	-3.826673	-0.377245	-0.241205
C15	C	-3.749711	-0.117993	-0.380778
C16	C	-3.773623	-0.117140	-0.468743
C17	C	-4.029030	-0.428927	-0.244941
C18	C	-4.070862	-0.523116	-0.244505
C19	C	-3.910333	-0.565619	-0.240327
C20	C	-3.707960	-0.513930	-0.236594
C21	C	-3.666132	-0.419745	-0.237036
C22	C	-3.795154	-0.710242	-0.235671
C23	C	-3.836983	-0.804433	-0.235228
C24	C	-4.199884	-0.813613	-0.243140
C25	C	-4.158057	-0.719427	-0.243582
C26	C	-3.955685	-0.667745	-0.239847
C27	C	-3.966277	-0.121239	-0.514108
C28	C	-3.988734	-0.120437	-0.596760
C29	C	-3.818537	-0.115542	-0.634045
C30	C	-3.625866	-0.111439	-0.588673
C31	C	-3.603409	-0.112235	-0.506022
C32	C	-3.877263	-0.112907	-0.883395
C33	C	-3.899737	-0.112114	-0.966053
C34	C	-4.262604	-0.121110	-0.974134
C35	C	-4.240132	-0.121911	-0.891481
C36	C	-4.047462	-0.117804	-0.846116
C37	C	-3.841488	-0.114724	-0.718529
C38	C	-4.024510	-0.118615	-0.761633
C39	C	-4.104635	0.043644	-0.238489
C40	C	-4.039340	0.143885	-0.238963
C41	C	-4.137065	-0.115365	-0.099384
C42	C	-4.092391	-0.116214	-0.011418
H43	H	-4.159755	-0.394327	-0.248335
C44	C	-3.572534	-0.653393	-0.231560
N45	N	-3.404859	-0.610573	-0.228459
H46	H	-3.706271	-0.839041	-0.231850
H47	H	-3.446520	-0.108875	-0.469083
C48	C	-4.422496	-0.870465	-0.247248
N49	N	-4.590161	-0.913289	-0.250337
C50	C	-4.211719	-0.123999	-0.720616
N51	N	-4.352725	-0.128058	-0.689716
C52	C	-4.427361	-0.127286	-0.850472
N53	N	-4.568384	-0.131333	-0.819585
C54	C	-3.443524	-0.362894	-0.232924
N55	N	-3.275851	-0.320076	-0.229829
H56	H	-3.761130	-0.108125	-0.996407
C57	C	-4.153513	-0.126624	-0.473102
N58	N	-4.294545	-0.130675	-0.442218
H59	H	-3.577258	-0.548545	-0.233198
H60	H	-4.419469	-0.124453	-1.011079
H61	H	-4.235638	-0.565192	-0.247548
H62	H	-4.288775	-0.684823	-0.246979
H63	H	-4.145607	-0.123770	-0.633693
H64	H	-3.720399	-0.109595	-0.846473
H65	H	-3.487287	-0.107448	-0.619037
H66	H	-3.702918	-0.110742	-0.748896
