data_functionalizedCrystal
_audit_creation_method	'MofGen! by Chris Wilmer'
_symmetry_space_group_name_H-M	'P1'
_symmetry_Int_Tables_number	1
_symmetry_cell_setting	triclinic
loop_
_symmetry_equiv_pos_as_xyz
  x,y,z
_cell_length_a	10.654550
_cell_length_b	17.038272
_cell_length_c	9.730223
_cell_angle_alpha	89.995299
_cell_angle_beta	89.999957
_cell_angle_gamma	87.798243
loop_
_atom_site_label
_atom_site_type_symbol
_atom_site_fract_x
_atom_site_fract_y
_atom_site_fract_z
O1	O	1.678042	0.109878	-0.114188
O2	O	2.178042	0.609878	0.385812
O3	O	1.313535	0.120346	-0.114214
O4	O	1.813535	0.620346	0.385786
O5	O	1.493622	0.001285	-0.114190
O6	O	1.993622	0.501285	0.385810
O7	O	1.497955	0.228940	-0.114212
O8	O	1.997955	0.728940	0.385788
O9	O	1.493609	0.001281	0.114390
O10	O	1.993609	0.501281	0.614390
O11	O	1.313523	0.120343	0.114366
O12	O	1.813523	0.620343	0.614366
O13	O	1.678029	0.109875	0.114392
O14	O	2.178029	0.609875	0.614392
Zn15	Zn	1.495774	0.115108	0.150671
Zn16	Zn	1.995774	0.615108	0.650671
Zn17	Zn	1.495791	0.115113	-0.150493
Zn18	Zn	1.995791	0.615113	0.349507
O19	O	1.497942	0.228936	0.114368
O20	O	1.997942	0.728936	0.614368
C21	C	1.266660	0.119576	0.000073
C22	C	1.766660	0.619576	0.500073
C23	C	1.127003	0.117276	0.000064
C24	C	1.627003	0.617276	0.500064
C25	C	1.054026	0.187378	0.000061
C26	C	1.554026	0.687378	0.500061
C27	C	0.922805	0.185213	0.000085
C28	C	1.422805	0.685213	0.500085
C29	C	0.937548	0.042838	0.000109
C30	C	1.437548	0.542838	0.500109
C31	C	1.068767	0.045004	0.000095
C32	C	1.568767	0.545004	0.500095
C33	C	1.489675	-0.027867	0.000099
C34	C	1.989675	0.472133	0.500099
C35	C	1.477918	-0.114726	0.000098
C36	C	1.977918	0.385274	0.500098
C37	C	1.585862	-0.164237	0.000107
C38	C	2.085862	0.335763	0.500107
C39	C	1.574808	-0.245849	0.000093
C40	C	2.074808	0.254151	0.500093
C41	C	1.455808	-0.277949	0.000080
C42	C	1.955808	0.222051	0.500080
C43	C	1.347855	-0.228431	0.000067
C44	C	1.847855	0.271569	0.500067
C45	C	1.358911	-0.146820	0.000071
C46	C	1.858911	0.353180	0.500071
C47	C	1.416750	-0.523925	0.000059
C48	C	1.916750	-0.023925	0.500059
C49	C	1.405702	-0.605542	0.000059
C50	C	1.905702	-0.105542	0.500059
C51	C	1.632655	-0.622955	0.000082
C52	C	2.132655	-0.122955	0.500082
C53	C	1.643701	-0.541341	0.000094
C54	C	2.143701	-0.041341	0.500094
C55	C	1.535748	-0.491831	0.000074
C56	C	2.035748	0.008169	0.500074
C57	C	1.444505	-0.361369	0.000070
C58	C	1.944505	0.138631	0.500070
C59	C	1.547052	-0.408412	0.000074
C60	C	2.047052	0.091588	0.500074
C61	C	1.724905	0.110645	0.000102
C62	C	2.224905	0.610645	0.500102
C63	C	1.864561	0.112945	0.000102
C64	C	2.364561	0.612945	0.500102
C65	C	1.501889	0.258088	0.000076
C66	C	2.001889	0.758088	0.500076
C67	C	1.513646	0.344947	0.000068
C68	C	2.013646	0.844947	0.500068
N69	N	1.495771	0.115105	0.356207
N70	N	1.995771	0.615105	0.856207
N71	N	1.495802	0.115110	-0.356029
N72	N	1.995802	0.615110	0.143971
C73	C	1.575545	0.062407	0.428144
C74	C	2.075545	0.562407	0.928144
C75	C	1.575558	0.062407	0.572027
C76	C	2.075558	0.562407	1.072027
C77	C	1.416020	0.167810	0.572024
C78	C	1.916020	0.667810	1.072024
C79	C	1.416002	0.167806	0.428144
C80	C	1.916002	0.667806	0.928144
H81	H	1.128187	-0.012085	0.000101
H82	H	1.628187	0.487915	0.500101
H83	H	1.347615	-0.387514	0.000063
H84	H	1.847615	0.112486	0.500063
F85	F	1.331130	0.223898	0.648594
F86	F	1.831130	0.723898	1.148594
H87	H	1.640497	0.019494	0.369576
H88	H	2.140497	0.519494	0.869576
H89	H	1.682764	-0.138109	0.000126
H90	H	2.182764	0.361891	0.500126
H91	H	0.890116	-0.016004	0.000142
H92	H	1.390116	0.483996	0.500142
H93	H	1.101438	0.246227	0.000046
H94	H	1.601438	0.746227	0.500046
F95	F	1.660461	0.006317	0.648582
F96	F	2.160461	0.506317	1.148582
F97	F	1.331086	0.223894	0.351578
F98	F	1.831086	0.723894	0.851578
H99	H	0.863392	0.242297	0.000086
H100	H	1.363392	0.742297	0.500086
H101	H	1.271011	-0.106509	0.000064
H102	H	1.771011	0.393491	0.500064
F103	F	1.689698	-0.298540	0.000105
F104	F	2.189698	0.201460	0.500105
F105	F	1.747537	-0.675652	0.000102
F106	F	2.247537	-0.175652	0.500102
F107	F	1.770357	-0.507185	0.000073
F108	F	2.270357	-0.007185	0.500073
F109	F	1.301856	-0.471242	0.000034
F110	F	1.801856	0.028758	0.500034
F111	F	1.221206	-0.262596	0.000038
F112	F	1.721206	0.237404	0.500038
F113	F	1.279041	-0.639702	0.000052
F114	F	1.779041	-0.139702	0.500052
H115	H	1.643941	-0.382273	0.000054
H116	H	2.143941	0.117727	0.500054
