data_functionalizedCrystal
_audit_creation_method	'MofGen! by Chris Wilmer'
_symmetry_space_group_name_H-M	'P1'
_symmetry_Int_Tables_number	1
_symmetry_cell_setting	triclinic
loop_
_symmetry_equiv_pos_as_xyz
  x,y,z
_cell_length_a	17.000383
_cell_length_b	17.019448
_cell_length_c	13.930277
_cell_angle_alpha	93.870284
_cell_angle_beta	89.989610
_cell_angle_gamma	79.510910
loop_
_atom_site_label
_atom_site_type_symbol
_atom_site_fract_x
_atom_site_fract_y
_atom_site_fract_z
O1	O	1.056073	0.028435	-0.077549
O2	O	0.824310	0.057064	-0.075173
O3	O	0.946649	-0.072527	-0.085873
O4	O	0.933733	0.158027	-0.066849
O5	O	0.946632	-0.072529	0.073789
O6	O	0.824293	0.057063	0.084489
O7	O	1.056056	0.028434	0.082113
Zn8	Zn	0.940172	0.042748	0.108651
Zn9	Zn	0.940194	0.042750	-0.101711
O10	O	0.933717	0.158025	0.092813
C11	C	0.794646	0.058601	0.004787
C12	C	0.706283	0.063173	0.005169
C13	C	0.946149	-0.101882	-0.008466
C14	C	0.944672	-0.189347	-0.015688
C15	C	0.206034	0.092695	0.007569
C16	C	0.289062	0.088393	0.007215
C17	C	0.340137	0.013720	0.001061
C18	C	0.308180	-0.056656	-0.004749
C19	C	0.225154	-0.052353	-0.004402
C20	C	0.591300	-0.002900	-0.000294
C21	C	0.674332	-0.007198	-0.000638
C22	C	0.655208	0.137852	0.011325
C23	C	0.572181	0.142149	0.011677
C24	C	0.540231	0.071773	0.005862
C25	C	0.425004	0.009321	0.000702
C26	C	0.455365	0.076173	0.006215
C27	C	0.936394	-0.684047	-0.061008
C28	C	0.937773	-0.601863	-0.054202
C29	C	0.938448	-0.560786	0.036233
C30	C	0.937750	-0.601900	0.119867
C31	C	0.936376	-0.684085	0.113060
C32	C	0.942601	-0.312646	0.061139
C33	C	0.943972	-0.230455	0.067940
C34	C	0.943997	-0.230423	-0.106130
C35	C	0.942618	-0.312608	-0.112929
C36	C	0.941925	-0.353716	-0.029295
C37	C	0.939855	-0.476780	0.043192
C38	C	0.940523	-0.437722	-0.036255
C39	C	1.085720	0.026897	0.002151
C40	C	1.174083	0.022325	0.001762
C41	C	0.934217	0.187380	0.015404
C42	C	0.935694	0.274845	0.022620
N43	N	0.940162	0.042746	0.252216
N44	N	0.940210	0.042745	-0.245277
C45	C	0.886020	0.100112	0.709222
C46	C	0.994390	-0.014620	0.699719
C47	C	0.994381	-0.014622	0.599223
C48	C	0.940191	0.042745	0.553722
C49	C	0.886011	0.100113	0.608717
C50	C	1.048565	-0.071984	0.544221
C51	C	1.048558	-0.071988	0.443718
C52	C	0.994364	-0.014624	0.398216
C53	C	0.940181	0.042746	0.453217
C54	C	0.885992	0.100113	0.407717
C55	C	0.831804	0.157480	0.462716
C56	C	0.831817	0.157477	0.563215
C57	C	0.994352	-0.014621	0.297717
C58	C	0.885982	0.100114	0.307212
H59	H	0.164454	0.153503	0.012588
H60	H	1.038474	-0.061325	0.252942
H61	H	0.787700	0.204185	0.608001
F62	F	0.557308	-0.077801	-0.006501
H63	H	1.092689	-0.118687	0.581271
H64	H	0.349772	-0.117457	-0.009766
H65	H	0.935806	-0.717553	0.181159
H66	H	0.942037	-0.346106	0.129240
F67	F	0.938473	-0.558183	0.216115
H68	H	0.315072	0.145697	0.011935
F69	F	0.828350	0.161162	0.767754
F70	F	0.517829	0.221626	0.018222
H71	H	0.944562	-0.196945	-0.174220
F72	F	0.939811	-0.481440	-0.132499
F73	F	0.479369	-0.070150	-0.005840
H74	H	1.038514	-0.061323	0.736769
H75	H	0.940403	-0.443326	0.116824
H76	H	0.944498	-0.197009	0.141587
H77	H	1.092680	-0.118700	0.398944
F78	F	0.728688	-0.086679	-0.007189
H79	H	0.199141	-0.109657	-0.009132
H80	H	0.681230	0.195148	0.016058
F81	F	0.828301	0.161170	0.258794
H82	H	0.787686	0.204192	0.425658
H83	H	0.935837	-0.717484	-0.134650
F84	F	0.938520	-0.558117	-0.143211
F85	F	0.401007	0.155643	0.012758
H86	H	0.942075	-0.346048	-0.186571
