data_functionalizedCrystal
_audit_creation_method	'MofGen! by Chris Wilmer'
_symmetry_space_group_name_H-M	'P1'
_symmetry_Int_Tables_number	1
_symmetry_cell_setting	triclinic
loop_
_symmetry_equiv_pos_as_xyz
  x,y,z
_cell_length_a	6.817900
_cell_length_b	10.992469
_cell_length_c	10.992410
_cell_angle_alpha	91.830594
_cell_angle_beta	108.764651
_cell_angle_gamma	108.765624
loop_
_atom_site_label
_atom_site_type_symbol
_atom_site_fract_x
_atom_site_fract_y
_atom_site_fract_z
V1	V	-4.114252	-0.177761	-0.400575
O2	O	-4.072376	0.008542	-0.392968
O3	O	-4.091835	-0.352470	-0.397817
O4	O	-4.091844	-0.175026	-0.575288
O5	O	-4.072367	-0.170130	-0.214269
V6	V	-4.591146	-0.155477	-0.378293
O7	O	-4.390054	-0.226642	-0.449451
O8	O	-4.765541	-0.106595	-0.329417
O9	O	-4.390356	0.019232	-0.381051
O10	O	-4.750419	-0.341780	-0.385900
O11	O	-4.750428	-0.163108	-0.564599
O12	O	-4.390347	-0.158211	-0.203581
C13	C	-3.942316	-0.395060	-0.391493
C14	C	-4.005448	-0.537887	-0.390403
C15	C	-3.807069	-0.584385	-0.382247
C16	C	-3.872923	-0.733022	-0.381616
C17	C	-4.270158	-0.764535	-0.515760
C18	C	-4.203032	-0.615889	-0.516930
C19	C	-4.079366	-0.577587	-0.271579
C20	C	-4.140104	-0.725808	-0.268700
C21	C	-3.942326	-0.168712	-0.617873
C22	C	-4.005461	-0.167632	-0.760701
C23	C	-3.872583	-0.157796	-0.955826
C24	C	-3.807033	-0.159451	-0.807342
C25	C	-4.203480	-0.294312	-0.837792
C26	C	-4.267793	-0.293192	-0.986359
C27	C	-4.145553	-0.047893	-0.948352
C28	C	-4.074844	-0.047293	-0.799339
C29	C	-4.203218	0.061816	-0.387371
C30	C	-4.119326	0.204641	-0.388470
C31	C	-4.203207	-0.164530	-0.160989
C32	C	-4.119310	-0.165603	-0.018159
H33	H	-4.314806	-0.767458	-0.266277
H34	H	-4.449795	-0.304208	-1.028989
N35	N	-3.991111	-0.749903	-0.144064
H36	H	-4.035667	-0.846394	-0.140974
H37	H	-4.005231	-0.704861	-0.067442
N38	N	-4.142519	-0.585364	-0.635927
H39	H	-4.098383	-0.488693	-0.637873
H40	H	-4.274019	-0.632963	-0.716523
N41	N	-3.839545	-0.269831	-1.019366
H42	H	-3.680636	-0.264088	-0.978758
H43	H	-3.875580	-0.265792	-1.115406
N44	N	-3.898609	-0.505322	-0.145097
H45	H	-3.766960	-0.446107	-0.163546
H46	H	-3.852983	-0.569736	-0.089386
N47	N	-3.717950	-0.758843	-0.260573
H48	H	-3.638132	-0.812786	-0.285931
H49	H	-3.805417	-0.807391	-0.207484
N50	N	-4.247195	-0.411248	-1.047650
H51	H	-4.196502	-0.463525	-0.978096
H52	H	-4.135746	-0.382569	-1.092706
H53	H	-4.353047	-0.586514	-0.528115
N54	N	-3.731296	-0.273041	-0.774481
H55	H	-3.829346	-0.332872	-0.732977
H56	H	-3.573342	-0.240042	-0.711989
H57	H	-4.353856	-0.304874	-0.808988
N58	N	-4.274991	-0.538453	-0.277905
H59	H	-4.315601	-0.495216	-0.357309
H60	H	-4.235306	-0.475784	-0.197281
H61	H	-3.657894	-0.531792	-0.291257
H62	H	-4.157720	-0.383659	-0.812178
N63	N	-3.610559	-0.038747	-0.736598
H64	H	-3.482930	-0.064361	-0.683273
H65	H	-3.651661	0.012867	-0.677392
N66	N	-4.262970	-0.045252	-0.756187
H67	H	-4.306099	-0.122662	-0.710791
H68	H	-4.394016	-0.049093	-0.834526
H69	H	-3.755378	-0.066081	-0.974664
N70	N	-4.253917	-0.829217	-0.633609
H71	H	-4.303727	-0.926383	-0.634495
H72	H	-4.095551	-0.795701	-0.630188
N73	N	-4.009244	0.079537	-0.975330
H74	H	-3.929094	0.062249	-1.033086
H75	H	-3.897910	0.134202	-0.890645
N76	N	-4.510516	-0.819854	-0.528564
H77	H	-4.523975	-0.865542	-0.451791
H78	H	-4.596955	-0.883867	-0.611493
H79	H	-3.931588	0.046420	-0.746991
H80	H	-3.749666	-0.557714	-0.467603
N81	N	-4.382627	-0.053979	-1.002444
H82	H	-4.472655	-0.132556	-1.071823
H83	H	-4.388326	0.027356	-1.041366
H84	H	-3.847754	-0.779329	-0.467026
