data_functionalizedCrystal
_audit_creation_method	'MofGen! by Chris Wilmer'
_symmetry_space_group_name_H-M	'P1'
_symmetry_Int_Tables_number	1
_symmetry_cell_setting	triclinic
loop_
_symmetry_equiv_pos_as_xyz
  x,y,z
_cell_length_a	14.044220
_cell_length_b	10.540539
_cell_length_c	13.101018
_cell_angle_alpha	86.605148
_cell_angle_beta	93.664297
_cell_angle_gamma	88.857185
loop_
_atom_site_label
_atom_site_type_symbol
_atom_site_fract_x
_atom_site_fract_y
_atom_site_fract_z
O1	O	1.264950	0.299856	0.085097
O2	O	1.764950	0.799856	0.585097
O3	O	0.988907	0.288802	0.085123
O4	O	1.488907	0.788802	0.585123
O5	O	1.133226	0.110260	0.085108
O6	O	1.633226	0.610260	0.585108
O7	O	1.120631	0.478399	0.085112
O8	O	1.620631	0.978399	0.585112
O9	O	1.122860	0.123081	-0.085321
O10	O	1.622860	0.623081	0.414679
O11	O	0.978541	0.301624	-0.085306
O12	O	1.478541	0.801624	0.414694
O13	O	1.254583	0.312677	-0.085333
O14	O	1.754583	0.812677	0.414667
Zn15	Zn	1.114916	0.309186	-0.112379
Zn16	Zn	1.614916	0.809186	0.387621
Zn17	Zn	1.128574	0.292294	0.112169
Zn18	Zn	1.628574	0.792294	0.612169
O19	O	1.110264	0.491220	-0.085318
O20	O	1.610264	0.991220	0.414682
C21	C	0.948377	0.290375	-0.000088
C22	C	1.448377	0.790375	0.499912
C23	C	0.843054	0.275945	-0.000078
C24	C	1.343054	0.775945	0.499922
C25	C	0.650213	0.249565	-0.000099
C26	C	1.150213	0.749565	0.499901
C27	C	0.593272	0.351908	-0.000102
C28	C	1.093272	0.851908	0.499898
C29	C	0.485969	0.337230	-0.000114
C30	C	0.985969	0.837230	0.499886
C31	C	0.757526	0.264241	-0.000087
C32	C	1.257526	0.764241	0.499913
C33	C	1.127098	0.069271	-0.000105
C34	C	1.627098	0.569271	0.499895
C35	C	1.124273	-0.071963	-0.000099
C36	C	1.624273	0.428037	0.499901
C37	C	1.016007	-0.266367	0.000294
C38	C	1.516007	0.233633	0.500294
C39	C	1.018849	-0.119430	-0.000090
C40	C	1.518849	0.380570	0.499910
C41	C	1.169088	-0.121169	-0.097427
C42	C	1.669088	0.378831	0.402573
C43	C	1.165485	-0.268071	-0.097509
C44	C	1.665485	0.231929	0.402491
C45	C	1.179418	-0.282953	0.096301
C46	C	1.679418	0.217047	0.596301
C47	C	1.180467	-0.135970	0.097587
C48	C	1.680467	0.364030	0.597587
C49	C	1.295114	0.311104	-0.000119
C50	C	1.795114	0.811104	0.499881
C51	C	1.400437	0.325534	-0.000123
C52	C	1.900437	0.825534	0.499877
C53	C	1.116392	0.532208	-0.000103
C54	C	1.616392	1.032208	0.499897
C55	C	1.119218	0.673442	-0.000102
C56	C	1.619218	1.173442	0.499898
N57	N	1.105601	0.320715	-0.265627
N58	N	1.605601	0.820715	0.234373
C59	C	1.150565	0.265065	-0.525541
C60	C	1.650565	0.765065	-0.025541
C61	C	1.092936	0.336401	-0.474662
C62	C	1.592936	0.836401	0.025338
C63	C	1.099985	0.327671	-0.358344
C64	C	1.599985	0.827671	0.141656
C65	C	1.143517	0.273794	-0.641870
C66	C	1.643517	0.773794	-0.141870
N67	N	1.137897	0.280756	0.265417
N68	N	1.637897	0.780756	0.765417
H69	H	0.978607	-0.304428	0.070090
H70	H	1.478607	0.195572	0.570090
O71	O	1.222909	0.175457	-0.467538
O72	O	1.722909	0.675457	0.032462
H73	H	1.217154	0.182570	-0.383956
H74	H	1.717154	0.682570	0.116044
O75	O	1.280334	-0.335378	0.097156
O76	O	1.780334	0.164622	0.597156
H77	H	1.330695	-0.255595	0.094642
H78	H	1.830695	0.244405	0.594642
H79	H	0.625111	0.450550	-0.000096
H80	H	1.125111	0.950550	0.499904
H81	H	0.618376	0.150932	-0.000105
H82	H	1.118376	0.650932	0.499895
H83	H	1.038306	0.404032	-0.518462
H84	H	1.538306	0.904032	-0.018462
O85	O	0.971572	-0.075277	0.092310
O86	O	1.471572	0.424723	0.592310
H87	H	0.946467	-0.158923	0.137672
H88	H	1.446467	0.341077	0.637672
H89	H	0.970310	-0.295547	-0.069104
H90	H	1.470310	0.204453	0.430896
H91	H	1.147724	-0.104281	0.169588
H92	H	1.647724	0.395719	0.669588
H93	H	0.974397	-0.076482	-0.069968
H94	H	1.474397	0.423518	0.430032
H95	H	1.257686	-0.104419	0.103457
H96	H	1.757686	0.395581	0.603457
H97	H	1.123564	-0.294589	-0.170257
H98	H	1.623564	0.205411	0.329743
H99	H	1.246288	-0.090715	-0.101053
H100	H	1.746288	0.409285	0.398947
O101	O	1.265551	-0.321032	-0.103392
O102	O	1.765551	0.178968	0.396608
H103	H	1.316299	-0.241702	-0.106174
H104	H	1.816299	0.258298	0.393826
H105	H	1.129439	-0.076685	-0.169849
H106	H	1.629439	0.423315	0.330151
O107	O	1.140167	-0.336651	0.194022
O108	O	1.640167	0.163349	0.694022
H109	H	1.077307	-0.395025	0.174966
H110	H	1.577307	0.104975	0.674966
