data_functionalizedCrystal
_audit_creation_method	'MofGen! by Chris Wilmer'
_symmetry_space_group_name_H-M	'P1'
_symmetry_Int_Tables_number	1
_symmetry_cell_setting	triclinic
loop_
_symmetry_equiv_pos_as_xyz
  x,y,z
_cell_length_a	19.188930
_cell_length_b	15.995362
_cell_length_c	17.666332
_cell_angle_alpha	89.998915
_cell_angle_beta	90.023234
_cell_angle_gamma	96.678919
loop_
_atom_site_label
_atom_site_type_symbol
_atom_site_fract_x
_atom_site_fract_y
_atom_site_fract_z
O1	O	0.926420	-0.104534	0.063183
O2	O	0.723145	-0.118606	0.063130
O3	O	0.830334	0.010337	0.063163
O4	O	0.819230	-0.233478	0.063149
O5	O	0.830316	0.010344	-0.062734
O6	O	0.723126	-0.118600	-0.062767
O7	O	0.926401	-0.104528	-0.062714
Cu8	Cu	0.824762	-0.111563	-0.074236
Cu9	Cu	0.824784	-0.111571	0.074652
O10	O	0.819211	-0.233471	-0.062747
C11	C	0.697123	-0.118147	0.000175
C12	C	0.619615	-0.116779	0.000155
C13	C	0.829864	0.041533	0.000218
C14	C	0.828484	0.134478	0.000226
N15	N	0.824751	-0.111557	-0.178955
C16	C	0.574887	-0.192439	0.000163
C17	C	0.502059	-0.191154	0.000171
C18	C	0.473964	-0.114205	0.000187
C19	C	0.518702	-0.038535	0.000175
C20	C	0.591528	-0.039822	0.000159
N21	N	0.365838	-0.055389	0.043069
N22	N	0.296657	-0.054171	0.043086
C23	C	0.254545	-0.110321	0.000233
N24	N	0.284228	-0.167748	-0.042627
N25	N	0.353416	-0.168968	-0.042640
C26	C	0.394998	-0.112800	0.000204
C27	C	0.130849	-0.184593	0.000249
C28	C	0.058021	-0.183304	0.000253
C29	C	0.074665	-0.030684	0.000264
C30	C	0.147492	-0.031974	0.000253
C31	C	0.175579	-0.108931	0.000249
C32	C	0.952422	-0.104987	0.000243
C33	C	1.029931	-0.106355	0.000268
C34	C	0.823525	0.472205	0.000239
C35	C	0.747184	0.424492	0.000500
C36	C	0.748566	0.327807	0.000211
C37	C	0.825984	0.304655	0.000233
C38	C	0.863627	0.345874	-0.071647
C39	C	0.861705	0.442502	-0.071703
C40	C	0.863304	0.442858	0.071466
C41	C	0.863289	0.345913	0.072411
C42	C	0.827379	0.209963	0.000227
C43	C	0.822133	0.566898	0.000240
C44	C	0.819672	0.735331	0.000212
C45	C	0.821025	0.642382	0.000246
C46	C	0.872230	-0.054489	-0.218550
C47	C	0.872234	-0.054484	-0.297798
C48	C	0.824766	-0.111563	-0.337447
C49	C	0.777278	-0.168636	-0.297843
C50	C	0.777271	-0.168633	-0.218597
N51	N	0.815881	-0.185684	-0.461872
N52	N	0.815892	-0.185684	-0.537152
C53	C	0.824784	-0.111575	-0.576211
N54	N	0.833678	-0.037463	-0.537146
N55	N	0.833671	-0.037463	-0.461859
C56	C	0.824768	-0.111572	-0.423377
C57	C	0.872270	-0.054497	-0.701736
C58	C	0.872270	-0.054492	-0.780985
C59	C	0.777317	-0.168651	-0.781028
C60	C	0.777314	-0.168649	-0.701781
C61	C	0.824795	-0.111573	-0.662139
N62	N	0.824800	-0.111571	0.179371
H63	H	0.597750	-0.255103	0.000161
H64	H	0.465635	-0.252767	0.000175
Cl65	Cl	0.717579	-0.240382	-0.168817
Cl66	Cl	0.717637	-0.240401	-0.830868
H67	H	0.738655	-0.215122	-0.669540
H68	H	0.835768	0.318561	0.125586
H69	H	0.495823	0.024118	0.000198
Cl70	Cl	0.819295	0.470610	-0.154684
Cl71	Cl	0.948235	0.492611	-0.076722
H72	H	0.919747	0.330758	0.076768
Cl73	Cl	0.700139	0.454932	-0.078431
H74	H	0.920504	0.331957	-0.074304
H75	H	0.838351	0.463303	0.125950
H76	H	0.627947	0.021791	0.000153
Cl77	Cl	0.823239	0.301917	-0.154264
Cl78	Cl	0.166162	-0.281336	0.000237
Cl79	Cl	0.931956	0.017259	-0.651899
H80	H	0.919589	0.474825	0.071967
Cl81	Cl	0.931915	0.017266	-0.168716
H82	H	0.021603	-0.244918	0.000255
H83	H	0.051791	0.031970	0.000324
H84	H	0.183911	0.029636	0.000251
Cl85	Cl	0.702880	0.283751	0.079762
Cl86	Cl	0.931928	0.017264	-0.347583
Cl87	Cl	0.717600	-0.240389	-0.347686
H88	H	0.716678	0.442909	0.052047
Cl89	Cl	0.702547	0.284616	-0.079503
Cl90	Cl	0.931958	0.017262	-0.830764
