data_functionalizedCrystal
_audit_creation_method	'MofGen! by Chris Wilmer'
_symmetry_space_group_name_H-M	'P1'
_symmetry_Int_Tables_number	1
_symmetry_cell_setting	triclinic
loop_
_symmetry_equiv_pos_as_xyz
  x,y,z
_cell_length_a	13.032831
_cell_length_b	18.101396
_cell_length_c	13.032268
_cell_angle_alpha	97.146132
_cell_angle_beta	89.113023
_cell_angle_gamma	97.158357
loop_
_atom_site_label
_atom_site_type_symbol
_atom_site_fract_x
_atom_site_fract_y
_atom_site_fract_z
Zn1	Zn	1.498248	0.500110	0.780795
Zn2	Zn	1.519939	0.610443	0.608806
Zn3	Zn	1.348120	0.469175	0.587038
Zn4	Zn	1.326189	0.606439	0.758932
O5	O	1.423124	0.546542	0.683893
O6	O	1.645039	0.529368	0.776240
O7	O	1.515403	0.580432	0.462003
O8	O	1.368136	0.369658	0.612781
O9	O	1.660975	0.610429	0.649881
O10	O	1.478434	0.392386	0.755133
O11	O	1.389169	0.476643	0.446010
O12	O	1.201297	0.472761	0.591581
O13	O	1.330756	0.603605	0.905748
O14	O	1.185184	0.573608	0.717870
O15	O	1.457167	0.525486	0.921811
O16	O	1.494137	0.713532	0.628681
O17	O	1.351790	0.710590	0.738977
C18	C	1.155925	0.519394	0.649991
C19	C	1.041614	0.507800	0.635513
C20	C	0.982717	0.552593	0.691449
C21	C	0.864569	0.540611	0.676486
C22	C	1.422962	0.738933	0.683845
C23	C	1.422983	0.821251	0.683870
C24	C	1.423158	1.120366	0.683953
C25	C	1.333760	1.087255	0.753570
C26	C	1.333428	1.001580	0.753273
C27	C	1.423071	0.971972	0.683913
C28	C	1.407497	0.991635	0.571808
C29	C	1.406913	1.077265	0.572220
C30	C	1.528428	1.101936	0.725510
C31	C	1.527499	1.016408	0.727806
C32	C	1.423024	0.888105	0.683884
C33	C	1.423203	1.204231	0.683975
C34	C	1.691366	0.573796	0.717927
C35	C	1.805674	0.585410	0.732431
C36	C	1.389096	0.567549	0.952138
C37	C	1.374595	0.576502	1.066449
C38	C	1.423275	1.353400	0.683967
C39	C	1.423246	1.271086	0.683996
C40	C	1.457079	0.525568	0.416698
C41	C	1.471779	0.516427	0.302414
C42	C	1.430676	0.541841	1.125359
C43	C	1.415690	0.551093	1.243505
H44	H	1.004569	0.460577	0.576550
Cl45	Cl	1.505808	0.961565	0.488607
Cl46	Cl	1.212536	0.955173	0.709100
H47	H	1.530885	0.479896	1.265388
Cl48	Cl	1.283329	0.632889	1.123612
H49	H	1.596529	0.997087	0.681894
Cl50	Cl	1.039901	0.625502	0.782489
Cl51	Cl	0.807389	0.467697	0.585444
H52	H	1.356572	0.587614	1.280531
H53	H	1.341687	1.115977	0.836500
H54	H	0.842712	0.632629	0.791408
H55	H	1.331858	0.960382	0.537893
H56	H	1.341576	0.988689	0.835967
H57	H	1.330371	1.087386	0.538619
Cl58	Cl	1.504222	1.110473	0.488254
Cl59	Cl	1.213572	1.105834	0.709869
H60	H	1.545304	1.132298	0.806588
H61	H	1.539492	1.004553	0.810376
H62	H	1.489779	0.505314	1.088328
Cl63	Cl	1.631002	1.135444	0.647504
