data_functionalizedCrystal
_audit_creation_method	'MofGen! by Chris Wilmer'
_symmetry_space_group_name_H-M	'P1'
_symmetry_Int_Tables_number	1
_symmetry_cell_setting	triclinic
loop_
_symmetry_equiv_pos_as_xyz
  x,y,z
_cell_length_a	14.519709
_cell_length_b	23.532357
_cell_length_c	12.996460
_cell_angle_alpha	89.988323
_cell_angle_beta	90.000034
_cell_angle_gamma	83.254219
loop_
_atom_site_label
_atom_site_type_symbol
_atom_site_fract_x
_atom_site_fract_y
_atom_site_fract_z
O1	O	1.222964	0.074656	-0.085446
O2	O	1.556297	0.407989	0.247887
O3	O	1.889630	0.741322	0.581221
O4	O	0.954380	0.083447	-0.085479
O5	O	1.287714	0.416781	0.247854
O6	O	1.621047	0.750114	0.581188
O7	O	1.096795	-0.003846	-0.085440
O8	O	1.430129	0.329488	0.247893
O9	O	1.763462	0.662821	0.581226
O10	O	1.080549	0.161949	-0.085485
O11	O	1.413882	0.495282	0.247849
O12	O	1.747216	0.828615	0.581182
O13	O	1.096781	-0.003850	0.085694
O14	O	1.430114	0.329483	0.419027
O15	O	1.763447	0.662816	0.752360
O16	O	0.954366	0.083442	0.085655
O17	O	1.287699	0.416776	0.418988
O18	O	1.621032	0.750109	0.752322
O19	O	1.222949	0.074651	0.085688
O20	O	1.556282	0.407984	0.419021
O21	O	1.889616	0.741318	0.752355
Cu22	Cu	1.088656	0.079046	0.101297
Cu23	Cu	1.421989	0.412380	0.434631
Cu24	Cu	1.755323	0.745713	0.767964
Cu25	Cu	1.088673	0.079052	-0.101088
Cu26	Cu	1.422007	0.412385	0.232245
Cu27	Cu	1.755340	0.745719	0.565578
O28	O	1.080534	0.161944	0.085649
O29	O	1.413868	0.495277	0.418983
O30	O	1.747201	0.828610	0.752316
C31	C	0.920018	0.083035	0.000084
C32	C	1.253352	0.416368	0.333417
C33	C	1.586685	0.749702	0.666751
C34	C	0.817652	0.081807	0.000072
C35	C	1.150985	0.415141	0.333406
C36	C	1.484318	0.748474	0.666739
C37	C	0.442811	0.077287	0.000120
C38	C	0.776144	0.410621	0.333454
C39	C	1.109477	0.743954	0.666787
C40	C	0.547104	0.078543	0.000107
C41	C	0.880437	0.411876	0.333440
C42	C	1.213770	0.745209	0.666773
C43	C	0.630228	0.079547	0.000095
C44	C	0.963561	0.412881	0.333429
C45	C	1.296895	0.746214	0.666762
C46	C	0.734527	0.080803	0.000084
C47	C	1.067861	0.414136	0.333417
C48	C	1.401194	0.747469	0.666750
C49	C	1.096382	-0.025066	0.000130
C50	C	1.429715	0.308267	0.333463
C51	C	1.763048	0.641600	0.666796
C52	C	1.095160	-0.088290	0.000139
C53	C	1.428493	0.245043	0.333473
C54	C	1.761826	0.578376	0.666806
C55	C	1.087498	-0.480334	-0.093202
C56	C	1.420831	-0.147000	0.240131
C57	C	1.754164	0.186333	0.573464
C58	C	1.086336	-0.539738	-0.093208
C59	C	1.419670	-0.206405	0.240125
C60	C	1.753003	0.126928	0.573458
O61	O	1.085711	-0.570455	-0.172544
O62	O	1.419044	-0.237122	0.160790
O63	O	1.752378	0.096211	0.494123
N64	N	1.085752	-0.569455	0.000075
N65	N	1.419086	-0.236122	0.333409
N66	N	1.752419	0.097212	0.666742
C67	C	1.086320	-0.539763	0.093371
C68	C	1.419654	-0.206429	0.426705
C69	C	1.752987	0.126904	0.760038
O70	O	1.085716	-0.570494	0.172716
O71	O	1.419049	-0.237160	0.506049
O72	O	1.752383	0.096173	0.839382
C73	C	1.087475	-0.480359	0.093376
C74	C	1.420808	-0.147025	0.426709
C75	C	1.754142	0.186308	0.760043
C76	C	1.088068	-0.450646	0.000086
C77	C	1.421402	-0.117313	0.333420
C78	C	1.754735	0.216021	0.666753
C79	C	1.088090	-0.450621	-0.186484
C80	C	1.421423	-0.117288	0.146849
C81	C	1.754757	0.216046	0.480182
C82	C	1.089253	-0.391221	-0.186478
C83	C	1.422586	-0.057887	0.146855
C84	C	1.755920	0.275446	0.480189
C85	C	1.089824	-0.361533	-0.093189
C86	C	1.423157	-0.028200	0.240144
C87	C	1.756490	0.305134	0.573477
C88	C	1.089232	-0.391246	0.000093
C89	C	1.422565	-0.057912	0.333426
C90	C	1.755898	0.275421	0.666759
C91	C	1.088037	-0.450667	0.186671
C92	C	1.421370	-0.117334	0.520004
C93	C	1.754703	0.216000	0.853338
C94	C	1.089191	-0.391259	0.186668
C95	C	1.422524	-0.057926	0.520001
C96	C	1.755857	0.275408	0.853334
C97	C	1.089784	-0.361546	0.093378
C98	C	1.423117	-0.028213	0.426711
C99	C	1.756451	0.305120	0.760045
C100	C	1.090965	-0.302157	0.093388
C101	C	1.424299	0.031176	0.426721
C102	C	1.757632	0.364509	0.760054
N103	N	1.091549	-0.272441	0.000104
N104	N	1.424883	0.060892	0.333437
N105	N	1.758216	0.394226	0.666771
C106	C	1.090979	-0.302129	-0.093185
C107	C	1.424312	0.031205	0.240149
C108	C	1.757645	0.364538	0.573482
C109	C	1.083894	-0.664515	0.093354
C110	C	1.417227	-0.331182	0.426687
C111	C	1.750560	0.002151	0.760020
C112	C	1.082746	-0.723919	0.093350
C113	C	1.416079	-0.390586	0.426683
C114	C	1.749412	-0.057252	0.760017
C115	C	1.082760	-0.723890	-0.093230
C116	C	1.416093	-0.390557	0.240103
C117	C	1.749426	-0.057224	0.573437
C118	C	1.083914	-0.664486	-0.093225
C119	C	1.417248	-0.331153	0.240108
C120	C	1.750581	0.002181	0.573442
C121	C	1.084478	-0.634799	0.000070
C122	C	1.417811	-0.301466	0.333403
C123	C	1.751144	0.031868	0.666737
C124	C	1.093422	-0.177384	-0.093164
C125	C	1.426755	0.155950	0.240169
C126	C	1.760089	0.489283	0.573503
C127	C	1.094589	-0.117978	-0.093149
C128	C	1.427922	0.215355	0.240184
C129	C	1.761256	0.548688	0.573517
C130	C	1.094570	-0.118012	0.093430
C131	C	1.427903	0.215322	0.426763
C132	C	1.761236	0.548655	0.760097
C133	C	1.093408	-0.177412	0.093416
C134	C	1.426741	0.155921	0.426749
C135	C	1.760074	0.489255	0.760083
C136	C	1.092831	-0.207096	0.000111
C137	C	1.426164	0.126237	0.333444
C138	C	1.759497	0.459570	0.666777
O139	O	1.091587	-0.271402	0.172683
O140	O	1.424921	0.061931	0.506016
O141	O	1.758254	0.395264	0.839349
O142	O	1.091571	-0.271390	-0.172516
O143	O	1.424904	0.061944	0.160818
O144	O	1.758237	0.395277	0.494151
C145	C	1.257311	0.075063	0.000123
C146	C	1.590645	0.408396	0.333456
C147	C	1.923978	0.741730	0.666789
C148	C	1.359678	0.076291	0.000127
C149	C	1.693011	0.409624	0.333461
C150	C	2.026344	0.742957	0.666794
C151	C	1.080948	0.183165	0.000077
C152	C	1.414281	0.516498	0.333410
C153	C	1.747615	0.849831	0.666744
C154	C	1.082170	0.246389	0.000061
C155	C	1.415503	0.579722	0.333394
C156	C	1.748836	0.913055	0.666727
N157	N	1.088651	0.079042	0.243644
N158	N	1.421984	0.412375	0.576978
N159	N	1.755317	0.745709	0.910311
N160	N	1.088686	0.079052	-0.243435
N161	N	1.422020	0.412385	0.089898
N162	N	1.755353	0.745718	0.423231
C163	C	1.088672	0.079053	0.663459
C164	C	1.422005	0.412386	0.996792
C165	C	1.755339	0.745719	1.330125
C166	C	1.088663	0.079051	0.546654
C167	C	1.421997	0.412385	0.879987
C168	C	1.755330	0.745718	1.213320
C169	C	1.088662	0.079048	0.453555
C170	C	1.421995	0.412381	0.786889
C171	C	1.755328	0.745714	1.120222
C172	C	1.088652	0.079046	0.336743
C173	C	1.421985	0.412379	0.670076
C174	C	1.755319	0.745712	1.003409
H175	H	1.095074	-0.093789	-0.169120
H176	H	1.428407	0.239544	0.164213
H177	H	1.761741	0.572878	0.497546
H178	H	1.092947	-0.201545	-0.169142
H179	H	1.426281	0.131788	0.164191
H180	H	1.759614	0.465122	0.497525
H181	H	1.095039	-0.093829	0.169383
H182	H	1.428372	0.239504	0.502716
H183	H	1.761705	0.572837	0.836050
H184	H	1.089733	-0.367034	-0.262444
H185	H	1.423066	-0.033700	0.070889
H186	H	1.756399	0.299633	0.404222
H187	H	1.087555	-0.474849	0.262638
H188	H	1.420888	-0.141516	0.595971
H189	H	1.754222	0.191818	0.929304
H190	H	1.087622	-0.474786	-0.262455
H191	H	1.420955	-0.141453	0.070878
H192	H	1.754288	0.191881	0.404211
C193	C	1.171401	-0.250555	0.201667
C194	C	1.504734	0.082778	0.535001
C195	C	1.838068	0.416112	0.868334
C196	C	1.092780	-0.210073	0.195965
C197	C	1.426113	0.123261	0.529298
C198	C	1.759446	0.456594	0.862632
H199	H	1.171012	-0.270710	0.264983
H200	H	1.504346	0.062623	0.598316
H201	H	1.837679	0.395957	0.931650
H202	H	1.170878	-0.276740	0.146122
H203	H	1.504212	0.056594	0.479455
H204	H	1.837545	0.389927	0.812789
H205	H	1.225633	-0.231666	0.197781
H206	H	1.558967	0.101667	0.531115
H207	H	1.892300	0.435000	0.864448
H208	H	1.038547	-0.228962	0.199844
H209	H	1.371880	0.104372	0.533177
H210	H	1.705214	0.437705	0.866510
H211	H	1.093294	-0.183884	0.251526
H212	H	1.426627	0.149449	0.584859
H213	H	1.759961	0.482783	0.918192
C214	C	1.011185	-0.318144	0.294904
C215	C	1.344518	0.015189	0.628238
C216	C	1.677852	0.348522	0.961571
C217	C	1.089808	-0.358625	0.289221
C218	C	1.423141	-0.025291	0.622554
C219	C	1.756475	0.308042	0.955888
H220	H	1.011566	-0.298001	0.358218
H221	H	1.344899	0.035333	0.691551
H222	H	1.678232	0.368666	1.024884
H223	H	1.011713	-0.291949	0.239356
H224	H	1.345046	0.041384	0.572689
H225	H	1.678379	0.374717	0.906023
H226	H	0.956954	-0.337033	0.291010
H227	H	1.290287	-0.003700	0.624343
H228	H	1.623621	0.329634	0.957677
H229	H	1.144039	-0.339736	0.293107
H230	H	1.477373	-0.006402	0.626441
H231	H	1.810706	0.326931	0.959774
H232	H	1.089289	-0.384824	0.344784
H233	H	1.422622	-0.051490	0.678118
H234	H	1.755955	0.281843	1.011451
H235	H	1.084396	-0.640298	-0.169190
H236	H	1.417729	-0.306965	0.164143
H237	H	1.751063	0.026369	0.497477
H238	H	1.082276	-0.748107	0.169316
H239	H	1.415610	-0.414774	0.502649
H240	H	1.748943	-0.081440	0.835983
C241	C	1.080973	-0.814944	-0.176071
C242	C	1.414307	-0.481610	0.157263
C243	C	1.747640	-0.148277	0.490596
C244	C	1.082120	-0.756530	-0.195778
C245	C	1.415453	-0.423197	0.137556
C246	C	1.748787	-0.089863	0.470889
H247	H	1.080573	-0.835093	-0.239376
H248	H	1.413906	-0.501760	0.093957
H249	H	1.747240	-0.168427	0.427291
H250	H	1.134565	-0.828971	-0.137745
H251	H	1.467899	-0.495637	0.195589
H252	H	1.801232	-0.162304	0.528922
H253	H	1.026993	-0.820382	-0.137739
H254	H	1.360327	-0.487049	0.195594
H255	H	1.693660	-0.153715	0.528927
H256	H	1.136104	-0.751091	-0.234103
H257	H	1.469437	-0.417758	0.099231
H258	H	1.802771	-0.084425	0.432564
H259	H	1.028523	-0.742499	-0.234120
H260	H	1.361856	-0.409165	0.099213
H261	H	1.695189	-0.075832	0.432547
C262	C	1.083773	-0.670521	0.277781
C263	C	1.417106	-0.337187	0.611114
C264	C	1.750439	-0.003854	0.944447
C265	C	1.084526	-0.631887	0.195914
C266	C	1.417860	-0.298553	0.529247
C267	C	1.751193	0.034780	0.862580
H268	H	1.084167	-0.650378	0.341095
H269	H	1.417500	-0.317045	0.674428
H270	H	1.750834	0.016288	1.007761
H271	H	1.029539	-0.689397	0.273887
H272	H	1.362873	-0.356064	0.607220
H273	H	1.696206	-0.022731	0.940553
H274	H	1.137112	-0.697982	0.273889
H275	H	1.470445	-0.364648	0.607223
H276	H	1.803778	-0.031315	0.940556
H277	H	1.031184	-0.604428	0.199801
H278	H	1.364517	-0.271095	0.533134
H279	H	1.697850	0.062239	0.866467
H280	H	1.138765	-0.613001	0.199810
H281	H	1.472099	-0.279667	0.533143
H282	H	1.805432	0.053666	0.866476
