data_functionalizedCrystal
_audit_creation_method	'MofGen! by Chris Wilmer'
_symmetry_space_group_name_H-M	'P1'
_symmetry_Int_Tables_number	1
_symmetry_cell_setting	triclinic
loop_
_symmetry_equiv_pos_as_xyz
  x,y,z
_cell_length_a	16.120530
_cell_length_b	25.639240
_cell_length_c	16.120297
_cell_angle_alpha	87.138170
_cell_angle_beta	89.871860
_cell_angle_gamma	87.127770
loop_
_atom_site_label
_atom_site_type_symbol
_atom_site_fract_x
_atom_site_fract_y
_atom_site_fract_z
Zn1	Zn	1.247376	-0.264883	0.534485
Zn2	Zn	1.747376	0.235117	1.034485
Zn3	Zn	1.254307	-0.348114	0.395403
Zn4	Zn	1.754307	0.151886	0.895403
Zn5	Zn	1.115369	-0.256048	0.388406
Zn6	Zn	1.615369	0.243952	0.888406
Zn7	Zn	1.108263	-0.347633	0.527372
Zn8	Zn	1.608263	0.152367	1.027372
O9	O	1.181329	-0.304169	0.461417
O10	O	1.681329	0.195831	0.961417
O11	O	1.364661	-0.279823	0.521941
O12	O	1.864661	0.220177	1.021941
O13	O	1.241750	-0.332405	0.278110
O14	O	1.741750	0.167595	0.778110
O15	O	1.132953	-0.184058	0.407832
O16	O	1.632953	0.315942	0.907832
O17	O	1.369753	-0.340972	0.419757
O18	O	1.869753	0.159028	0.919757
O19	O	1.229938	-0.190549	0.515156
O20	O	1.729938	0.309451	1.015156
O21	O	1.139673	-0.264765	0.272970
O22	O	1.639673	0.235235	0.772970
O23	O	0.998061	-0.264298	0.400935
O24	O	1.498061	0.235702	0.900935
O25	O	1.120843	-0.340152	0.644680
O26	O	1.620843	0.159848	1.144680
O27	O	0.992840	-0.331585	0.503033
O28	O	1.492840	0.168415	1.003033
O29	O	1.223048	-0.279356	0.649906
O30	O	1.723048	0.220644	1.149906
O31	O	1.234860	-0.421212	0.412860
O32	O	1.734860	0.078788	0.912860
O33	O	1.127563	-0.420858	0.509818
O34	O	1.627563	0.079142	1.009818
C35	C	0.965278	-0.296931	0.450453
C36	C	1.465278	0.203069	0.950453
C37	C	0.872850	-0.293847	0.445783
C38	C	1.372850	0.206153	0.945783
C39	C	0.703622	-0.288205	0.437263
C40	C	1.203622	0.211795	0.937263
C41	C	0.659873	-0.320174	0.485630
C42	C	1.159873	0.179826	0.985630
C43	C	0.565708	-0.317035	0.480890
C44	C	1.065708	0.182965	0.980890
C45	C	0.797795	-0.291344	0.442003
C46	C	1.297795	0.208656	0.942003
C47	C	1.181214	-0.440006	0.461345
C48	C	1.681214	0.059994	0.961345
C49	C	1.181240	-0.498121	0.461347
C50	C	1.681240	0.001879	0.961347
C51	C	1.231850	-0.861834	0.517397
C52	C	1.731850	-0.361834	1.017397
C53	C	1.231874	-0.916440	0.517416
C54	C	1.731874	-0.416440	1.017416
O55	O	1.274768	-0.947518	0.564998
O56	O	1.774768	-0.447518	1.064998
N57	N	1.181440	-0.940415	0.461503
N58	N	1.681440	-0.440415	0.961503
C59	C	1.130972	-0.909781	0.405574
C60	C	1.630972	-0.409781	0.905574
O61	O	1.088076	-0.935187	0.358018
O62	O	1.588076	-0.435187	0.858018
C63	C	1.130945	-0.855176	0.405560
C64	C	1.630945	-0.355176	0.905560
C65	C	1.181389	-0.831204	0.461471
C66	C	1.681389	-0.331204	0.961471
C67	C	1.282289	-0.837862	0.573304
C68	C	1.782289	-0.337862	1.073304
C69	C	1.282267	-0.783260	0.573285
C70	C	1.782267	-0.283260	1.073285
C71	C	1.231805	-0.752630	0.517359
C72	C	1.731805	-0.252630	1.017359
C73	C	1.181366	-0.776603	0.461452
C74	C	1.681366	-0.276603	0.961452
C75	C	1.080474	-0.824543	0.349636
C76	C	1.580474	-0.324543	0.849636
C77	C	1.080450	-0.769935	0.349628
C78	C	1.580450	-0.269935	0.849628
C79	C	1.130894	-0.745964	0.405539
C80	C	1.630894	-0.245964	0.905539
C81	C	1.130882	-0.691371	0.405506
C82	C	1.630882	-0.191371	0.905506
N83	N	1.181316	-0.667396	0.461419
N84	N	1.681316	-0.167396	0.961419
C85	C	1.231778	-0.698026	0.517345
C86	C	1.731778	-0.198026	1.017345
C87	C	1.131033	-1.024454	0.405608
C88	C	1.631033	-0.524454	0.905608
C89	C	1.131064	-1.079058	0.405616
C90	C	1.631064	-0.579058	0.905616
C91	C	1.231965	-1.085713	0.517459
C92	C	1.731965	-0.585713	1.017459
C93	C	1.231937	-1.031109	0.517446
C94	C	1.731937	-0.531109	1.017446
C95	C	1.181467	-1.000480	0.461520
C96	C	1.681467	-0.500480	0.961520
C97	C	1.231727	-0.583358	0.517300
C98	C	1.731727	-0.083358	1.017300
C99	C	1.231702	-0.528751	0.517273
C100	C	1.731702	-0.028751	1.017273
C101	C	1.130798	-0.522100	0.405433
C102	C	1.630798	-0.022100	0.905433
C103	C	1.130826	-0.576703	0.405457
C104	C	1.630826	-0.076703	0.905457
C105	C	1.181292	-0.607330	0.461397
C106	C	1.681292	-0.107330	0.961397
O107	O	1.088007	-0.660259	0.357950
O108	O	1.588007	-0.160259	0.857950
O109	O	1.274659	-0.672612	0.564900
O110	O	1.774659	-0.172612	1.064900
C111	C	1.398223	-0.311437	0.472423
C112	C	1.898223	0.188563	0.972423
C113	C	1.490650	-0.314534	0.477113
C114	C	1.990650	0.185466	0.977113
C115	C	1.170380	-0.310686	0.678309
C116	C	1.670380	0.189314	1.178309
C117	C	1.165714	-0.313462	0.770735
C118	C	1.665714	0.186538	1.270735
C119	C	1.181465	-0.167804	0.461507
C120	C	1.681465	0.332196	0.961507
C121	C	1.181523	-0.109693	0.461546
C122	C	1.681523	0.390307	0.961546
C123	C	1.192283	-0.297642	0.245371
C124	C	1.692283	0.202358	0.745371
C125	C	1.197109	-0.294724	0.152953
C126	C	1.697109	0.205276	0.652953
C127	C	1.157165	-0.318519	0.939958
C128	C	1.657165	0.181481	1.439958
C129	C	1.205656	-0.289668	0.983735
C130	C	1.705656	0.210332	1.483735
C131	C	1.200899	-0.292482	1.077896
C132	C	1.700899	0.207518	1.577896
C133	C	1.161921	-0.315706	0.845788
C134	C	1.661921	0.184294	1.345788
H135	H	1.272782	-0.509235	0.562802
H136	H	1.772782	-0.009235	1.062802
H137	H	1.272815	-0.608289	0.562857
H138	H	1.772815	-0.108289	1.062857
H139	H	1.323340	-0.763746	0.618814
H140	H	1.823340	-0.263746	1.118814
H141	H	1.250742	-0.262854	0.950495
H142	H	1.750742	0.237146	1.450495
H143	H	0.670359	-0.258482	0.392298
H144	H	1.170359	0.241518	0.892298
H145	H	1.112083	-0.345331	0.973196
H146	H	1.612083	0.154669	1.473196
H147	H	0.693138	-0.349899	0.530600
H148	H	1.193138	0.150101	1.030600
H149	H	1.273013	-1.011594	0.562973
H150	H	1.773013	-0.511594	1.062973
H151	H	1.323381	-0.862796	0.618851
H152	H	1.823381	-0.362796	1.118851
H153	H	1.089716	-0.497153	0.359896
H154	H	1.589716	0.002847	0.859896
H155	H	1.273052	-1.110662	0.562999
H156	H	1.773052	-0.610662	1.062999
H157	H	1.089997	-1.098571	0.360080
H158	H	1.589997	-0.598571	0.860080
H159	H	1.039397	-0.844052	0.304107
H160	H	1.539397	-0.344052	0.804107
H161	H	1.039348	-0.744999	0.304087
H162	H	1.539348	-0.244999	0.804087
H163	H	1.089937	-0.999518	0.360059
H164	H	1.589937	-0.499518	0.860059
H165	H	1.089757	-0.596221	0.359923
H166	H	1.589757	-0.096221	0.859923
