data_functionalizedCrystal
_audit_creation_method	'MofGen! by Chris Wilmer'
_symmetry_space_group_name_H-M	'P1'
_symmetry_Int_Tables_number	1
_symmetry_cell_setting	triclinic
loop_
_symmetry_equiv_pos_as_xyz
  x,y,z
_cell_length_a	33.428889
_cell_length_b	33.428139
_cell_length_c	33.424847
_cell_angle_alpha	60.004234
_cell_angle_beta	60.008465
_cell_angle_gamma	59.994972
loop_
_atom_site_label
_atom_site_type_symbol
_atom_site_fract_x
_atom_site_fract_y
_atom_site_fract_z
O1	O	0.055565	-0.584504	0.488714
O2	O	0.555565	-0.084504	0.988714
O3	O	0.020982	-0.455083	0.393778
O4	O	0.520982	0.044917	0.893778
O5	O	0.102943	-0.536959	0.393689
O6	O	0.602943	-0.036959	0.893689
O7	O	-0.026396	-0.502628	0.488803
O8	O	0.473604	-0.002628	0.988803
O9	O	0.130140	-0.509767	0.420792
O10	O	0.630140	-0.009767	0.920792
O11	O	0.048179	-0.427891	0.420881
O12	O	0.548179	0.072109	0.920881
O13	O	0.082762	-0.557312	0.515817
O14	O	0.582762	-0.057312	1.015817
Cu15	Cu	0.067954	-0.490119	0.470823
Cu16	Cu	0.567954	0.009881	0.970823
Cu17	Cu	0.035790	-0.522276	0.438771
Cu18	Cu	0.535790	-0.022276	0.938771
O19	O	0.000801	-0.475436	0.515906
O20	O	0.500801	0.024564	1.015906
N21	N	0.090577	-0.467504	0.493370
N22	N	0.590577	0.032496	0.993370
N23	N	0.013171	-0.544895	0.416225
N24	N	0.513171	-0.044895	0.916225
C25	C	0.143377	-0.280390	0.546067
C26	C	0.643377	0.219610	1.046067
C27	C	0.143515	-0.414755	0.680369
C28	C	0.643515	0.085245	1.180369
C29	C	0.143392	-0.414735	0.546069
C30	C	0.643392	0.085265	1.046069
C31	C	0.277766	-0.414702	0.545966
C32	C	0.777766	0.085298	1.045966
C33	C	0.158177	-0.324719	0.560828
C34	C	0.658177	0.175281	1.060828
C35	C	0.158255	-0.399967	0.636038
C36	C	0.658255	0.100033	1.136038
C37	C	0.233434	-0.399936	0.560773
C38	C	0.733434	0.100064	1.060773
C39	C	0.158186	-0.399955	0.560829
C40	C	0.658186	0.100045	1.060829
C41	C	0.124540	-0.223964	0.527278
C42	C	0.624540	0.276036	1.027278
C43	C	0.124565	-0.433545	0.527281
C44	C	0.624565	0.066455	1.027281
C45	C	0.177014	-0.381145	0.579617
C46	C	0.677014	0.118855	1.079617
C47	C	0.359814	-0.400540	0.502735
C48	C	0.859814	0.099460	1.002735
C49	C	0.411105	-0.417624	0.485606
C50	C	0.911105	0.082376	0.985606
C51	C	0.411136	-0.500620	0.517255
C52	C	0.911136	-0.000620	1.017255
C53	C	0.359845	-0.483534	0.534385
C54	C	0.859845	0.016466	1.034385
C55	C	0.136887	-0.198305	0.476855
C56	C	0.636887	0.301695	0.976855
C57	C	0.119761	-0.147011	0.459777
C58	C	0.619761	0.352989	0.959777
C59	C	0.077945	-0.147038	0.543547
C60	C	0.577945	0.352962	1.043547
C61	C	0.095072	-0.198332	0.560625
C62	C	0.595072	0.301668	1.060625
C63	C	0.074134	-0.421169	0.539710
C64	C	0.574134	0.078831	1.039710
C65	C	0.057023	-0.438269	0.522625
C66	C	0.557023	0.061731	1.022625
C67	C	0.140770	-0.480120	0.480694
C68	C	0.640770	0.019880	0.980694
C69	C	0.157883	-0.463020	0.497773
C70	C	0.657883	0.036980	0.997773
C71	C	0.074339	-0.421208	0.762475
C72	C	0.574339	0.078792	1.262475
C73	C	0.057288	-0.438323	0.813768
C74	C	0.557288	0.061677	1.313768
C75	C	0.141075	-0.480183	0.813699
C76	C	0.641075	0.019817	1.313699
C77	C	0.158125	-0.463069	0.762404
C78	C	0.658125	0.036931	1.262404
C79	C	0.124756	-0.433580	0.736794
C80	C	0.624756	0.066420	1.236794
C81	C	0.334186	-0.433494	0.527123
C82	C	0.834186	0.066506	1.027123
C83	C	-0.173769	-0.597444	0.363037
C84	C	0.326231	-0.097444	0.863037
C85	C	-0.039302	-0.597595	0.228856
C86	C	0.460698	-0.097595	0.728856
C87	C	-0.039496	-0.597587	0.363300
C88	C	0.460504	-0.097587	0.863300
C89	C	-0.039512	-0.731889	0.363237
C90	C	0.460488	-0.231889	0.863237
C91	C	-0.129442	-0.612265	0.348329
C92	C	0.370558	-0.112265	0.848329
C93	C	-0.054138	-0.612351	0.273187
C94	C	0.445862	-0.112351	0.773187
C95	C	-0.054257	-0.687554	0.348440
C96	C	0.445743	-0.187554	0.848440
C97	C	-0.054247	-0.612346	0.348477
C98	C	0.445753	-0.112346	0.848477
C99	C	-0.230191	-0.578579	0.381758
C100	C	0.269809	-0.078579	0.881758
C101	C	-0.020722	-0.578803	0.382168
C102	C	0.479278	-0.078803	0.882168
C103	C	-0.073020	-0.631130	0.329609
C104	C	0.426980	-0.131130	0.829609
C105	C	-0.053713	-0.813916	0.406386
C106	C	0.446287	-0.313916	0.906386
C107	C	-0.036654	-0.865210	0.423504
C108	C	0.463346	-0.365210	0.923504
C109	C	0.046338	-0.865293	0.391984
C110	C	0.546338	-0.365293	0.891984
C111	C	0.029278	-0.813999	0.374865
C112	C	0.529278	-0.313999	0.874865
C113	C	-0.255900	-0.590938	0.432169
C114	C	0.244100	-0.090938	0.932169
C115	C	-0.307191	-0.573786	0.449185
C116	C	0.192809	-0.073786	0.949185
C117	C	-0.307060	-0.531922	0.365377
C118	C	0.192940	-0.031922	0.865377
C119	C	-0.255769	-0.549074	0.348360
C120	C	0.244231	-0.049074	0.848360
C121	C	-0.033081	-0.528377	0.369764
C122	C	0.466919	-0.028377	0.869764
C123	C	-0.016014	-0.511306	0.386922
C124	C	0.483986	-0.011306	0.886922
C125	C	0.025770	-0.595083	0.428877
C126	C	0.525770	-0.095083	0.928877
C127	C	0.008703	-0.612156	0.411725
C128	C	0.508703	-0.112156	0.911725
C129	C	-0.032755	-0.528393	0.146761
C130	C	0.467245	-0.028393	0.646761
C131	C	-0.015585	-0.511324	0.095468
C132	C	0.484415	-0.011324	0.595468
C133	C	0.026262	-0.595106	0.095516
C134	C	0.526262	-0.095106	0.595516
C135	C	0.009094	-0.612174	0.146811
C136	C	0.509094	-0.112174	0.646811
C137	C	-0.020417	-0.578816	0.172432
C138	C	0.479583	-0.078816	0.672432
C139	C	-0.020748	-0.788312	0.382068
C140	C	0.479252	-0.288312	0.882068
N141	N	0.436037	-0.467415	0.493101
N142	N	0.936037	0.032585	0.993101
O143	O	0.592642	-0.471896	0.376066
O144	O	1.092642	0.028104	0.876066
O145	O	0.592838	-0.567146	0.505347
O146	O	1.092838	-0.067146	1.005347
O147	O	0.592754	-0.566928	0.423360
O148	O	1.092754	-0.066928	0.923360
O149	O	0.592727	-0.472113	0.458053
O150	O	1.092727	0.027887	0.958053
O151	O	0.511269	-0.539835	0.450606
O152	O	1.011269	-0.039835	0.950606
O153	O	0.511353	-0.540052	0.532594
O154	O	1.011353	-0.040052	1.032594
O155	O	0.511157	-0.444802	0.403312
O156	O	1.011157	0.055198	0.903312
Cu157	Cu	0.503815	-0.489954	0.470441
Cu158	Cu	1.003815	0.010046	0.970441
Cu159	Cu	0.600180	-0.521995	0.438219
Cu160	Cu	1.100180	-0.021995	0.938219
O161	O	0.511242	-0.445020	0.485300
O162	O	1.011242	0.054980	0.985300
N163	N	0.667959	-0.544533	0.415554
N164	N	1.167959	-0.044533	0.915554
N165	N	0.090544	-0.122107	0.493359
N166	N	0.590544	0.377893	0.993359
O167	O	-0.026406	0.034587	0.488773
O168	O	0.473594	0.534587	0.988773
O169	O	0.102877	0.034627	0.393499
O170	O	0.602877	0.534627	0.893499
O171	O	0.020848	0.034591	0.393771
O172	O	0.520848	0.534591	0.893771
O173	O	0.055623	0.034623	0.488500
O174	O	0.555623	0.534623	0.988500
O175	O	0.048051	-0.046899	0.420925
O176	O	0.548051	0.453101	0.920925
O177	O	0.130080	-0.046864	0.420653
O178	O	0.630080	0.453136	0.920653
O179	O	0.000796	-0.046903	0.515927
O180	O	0.500796	0.453097	1.015927
Cu181	Cu	0.067922	-0.054324	0.470769
Cu182	Cu	0.567922	0.445676	0.970769
Cu183	Cu	0.035752	0.042048	0.438656
Cu184	Cu	0.535752	0.542048	0.938656
O185	O	0.082825	-0.046867	0.515655
O186	O	0.582825	0.453133	1.015655
N187	N	0.013123	0.109830	0.416068
N188	N	0.513123	0.609830	0.916068
N189	N	0.090892	-0.467554	0.838649
N190	N	0.590892	0.032446	1.338649
O191	O	0.086330	-0.584488	0.995334
O192	O	0.586330	-0.084488	1.495334
O193	O	-0.008902	-0.455160	0.995379
O194	O	0.491098	0.044840	1.495379
O195	O	-0.008679	-0.537172	0.995355
O196	O	0.491321	-0.037172	1.495355
O197	O	0.086107	-0.502475	0.995358
O198	O	0.586107	-0.002475	1.495358
O199	O	0.018452	-0.509990	0.913868
O200	O	0.518452	-0.009990	1.413868
O201	O	0.018230	-0.427978	0.913891
O202	O	0.518230	0.072022	1.413891
O203	O	0.113461	-0.557306	0.913847
O204	O	0.613461	-0.057306	1.413847
Cu205	Cu	0.068323	-0.490160	0.906429
Cu206	Cu	0.568323	0.009840	1.406429
Cu207	Cu	0.036237	-0.522306	1.002797
Cu208	Cu	0.536237	-0.022306	1.502797
O209	O	0.113239	-0.475293	0.913870
O210	O	0.613239	0.024707	1.413870
N211	N	0.013667	-0.544916	1.070577
N212	N	0.513667	-0.044916	1.570577
C213	C	0.031339	-0.425179	0.394250
C214	C	0.531339	0.074821	0.894250
C215	C	0.132837	-0.526572	0.394139
C216	C	0.632837	-0.026572	0.894139
C217	C	0.072405	-0.587216	0.515344
C218	C	0.572405	-0.087216	1.015344
C219	C	-0.029093	-0.485823	0.515455
C220	C	0.470907	0.014177	1.015455
C221	C	0.552119	-0.566716	0.535258
C222	C	1.052119	-0.066716	1.035258
C223	C	0.552016	-0.566447	0.433726
C224	C	1.052016	-0.066447	0.933726
C225	C	0.551873	-0.445232	0.373402
C226	C	1.051873	0.054768	0.873402
C227	C	0.551980	-0.445502	0.474933
C228	C	1.051980	0.054498	0.974933
C229	C	0.132731	-0.006013	0.393923
C230	C	0.632731	0.493987	0.893923
C231	C	0.031182	-0.006158	0.394293
C232	C	0.531182	0.493842	0.894293
C233	C	-0.029092	-0.006163	0.515469
C234	C	0.470908	0.493837	1.015469
C235	C	0.072491	-0.006119	0.515133
C236	C	0.572491	0.493881	1.015133
C237	C	-0.008451	-0.425276	0.954641
C238	C	0.491549	0.074724	1.454641
C239	C	-0.008170	-0.526833	0.954596
C240	C	0.491830	-0.026833	1.454596
C241	C	0.113010	-0.587190	0.954585
C242	C	0.613010	-0.087190	1.454585
C243	C	0.112735	-0.485627	0.954611
C244	C	0.612735	0.014373	1.454611
H245	H	0.047163	-0.397193	0.741627
H246	H	0.547163	0.102807	1.241627
H247	H	0.169984	-0.533889	0.364272
H248	H	0.669984	-0.033889	0.864272
C249	C	0.552031	-0.606687	0.423704
C250	C	1.052031	-0.106687	0.923704
H251	H	0.552082	-0.635214	0.452015
H252	H	1.052082	-0.135214	0.952015
H253	H	0.523597	-0.595390	0.415959
H254	H	1.023597	-0.095390	0.915959
H255	H	0.580431	-0.614289	0.396957
H256	H	1.080431	-0.114289	0.896957
H257	H	-0.038348	-0.388133	0.954654
H258	H	0.461652	0.111867	1.454654
H259	H	0.142910	-0.624330	0.954565
H260	H	0.642910	-0.124330	1.454565
C261	C	0.152966	-0.475598	0.954602
C262	C	0.652966	0.024402	1.454602
H263	H	0.140991	-0.443150	0.954606
H264	H	0.640991	0.056850	1.454606
H265	H	0.161906	-0.498203	0.983010
H266	H	0.661906	0.001797	1.483010
H267	H	0.180820	-0.479244	0.926173
H268	H	0.680820	0.020756	1.426173
H269	H	0.016234	-0.428240	0.834672
H270	H	0.516234	0.071760	1.334672
H271	H	0.552170	-0.596617	0.572390
H272	H	1.052170	-0.096617	1.072390
C273	C	0.177782	-0.512586	0.841869
C274	C	0.677782	-0.012586	1.341869
H275	H	0.210251	-0.517497	0.819228
H276	H	0.710251	-0.017497	1.319228
H277	H	0.172852	-0.496908	0.861866
H278	H	0.672852	0.003092	1.361866
H279	H	0.172891	-0.543345	0.861887
H280	H	0.672891	-0.043345	1.361887
C281	C	0.213585	-0.476682	0.734156
C282	C	0.713585	0.023318	1.234156
H283	H	0.218963	-0.462272	0.699940
H284	H	0.718963	0.037728	1.199940
H285	H	0.228004	-0.464885	0.742547
H286	H	0.728004	0.035115	1.242547
H287	H	0.228003	-0.511293	0.742550
H288	H	0.728003	-0.011293	1.242550
C289	C	0.037484	-0.388746	0.572164
C290	C	0.537484	0.111254	1.072164
H291	H	0.004999	-0.383821	0.577113
H292	H	0.504999	0.116179	1.077113
H293	H	0.042442	-0.404413	0.602896
H294	H	0.542442	0.095587	1.102896
H295	H	0.042397	-0.357996	0.556501
H296	H	0.542397	0.142004	1.056501
H297	H	0.169783	-0.005775	0.363939
H298	H	0.669783	0.494225	0.863939
C299	C	0.001551	-0.424655	0.536287
C300	C	0.501551	0.075345	1.036287
H301	H	-0.003868	-0.439054	0.521880
H302	H	0.496132	0.060946	1.021880
H303	H	-0.012831	-0.436463	0.570896
H304	H	0.487169	0.063537	1.070896
H305	H	-0.012870	-0.390044	0.524502
H306	H	0.487130	0.109956	1.024502
C307	C	0.177423	-0.512545	0.448238
C308	C	0.677423	-0.012545	0.948238
H309	H	0.209908	-0.517464	0.443283
H310	H	0.709908	-0.017464	0.943283
H311	H	0.172511	-0.543294	0.463897
H312	H	0.672511	-0.043294	0.963897
H313	H	0.172465	-0.496874	0.417504
H314	H	0.672465	0.003126	0.917504
C315	C	-0.079247	-0.006178	0.555875
C316	C	0.420753	0.493822	1.055875
H317	H	-0.099849	-0.006186	0.544058
H318	H	0.400151	0.493814	1.044058
H319	H	-0.074933	-0.034593	0.583716
H320	H	0.425067	0.465407	1.083716
H321	H	-0.093906	0.022245	0.564774
H322	H	0.406094	0.522245	1.064774
H323	H	0.079939	-0.006110	0.544893
H324	H	0.579939	0.493890	1.044893
C325	C	0.551791	-0.404831	0.323247
C326	C	1.051791	0.095169	0.823247
H327	H	0.551780	-0.416669	0.302664
H328	H	1.051780	0.083331	0.802664
H329	H	0.523358	-0.377005	0.327569
H330	H	1.023358	0.122995	0.827569
H331	H	0.580192	-0.395901	0.308561
H332	H	1.080192	0.104099	0.808561
H333	H	0.079796	-0.624394	0.545162
H334	H	0.579796	-0.124394	1.045162
C335	C	-0.079275	-0.475948	0.555804
C336	C	0.420725	0.024052	1.055804
H337	H	-0.079349	-0.504318	0.584274
H338	H	0.420651	-0.004318	1.084274
H339	H	-0.085236	-0.449237	0.563469
H340	H	0.414764	0.050763	1.063469
H341	H	-0.104201	-0.468206	0.544563
H342	H	0.395799	0.031794	1.044563
H343	H	0.023733	-0.006162	0.364531
H344	H	0.523733	0.493838	0.864531
C345	C	0.021358	-0.374958	0.353966
C346	C	0.521358	0.125042	0.853966
H347	H	-0.011080	-0.354444	0.365900
H348	H	0.488920	0.145556	0.865900
H349	H	0.043979	-0.360239	0.345022
H350	H	0.543979	0.139761	0.845022
H351	H	0.025008	-0.379209	0.326123
H352	H	0.525008	0.120791	0.826123
C353	C	-0.048381	-0.536843	0.954549
C354	C	0.451619	-0.036843	1.454549
H355	H	-0.036400	-0.569284	0.954525
H356	H	0.463600	-0.069284	1.454525
H357	H	-0.076253	-0.533194	0.982960
H358	H	0.423747	-0.033194	1.482960
H359	H	-0.057293	-0.514228	0.926123
H360	H	0.442707	-0.014228	1.426123
H361	H	0.551974	-0.415718	0.482355
H362	H	1.051974	0.084282	0.982355
H363	H	0.198948	-0.473094	0.487648
H364	H	0.698948	0.026906	0.987648
H365	H	0.338981	-0.510371	0.554246
H366	H	0.838981	-0.010371	1.054246
H367	H	0.431972	-0.390789	0.465748
H368	H	0.931972	0.109211	0.965748
C369	C	0.439360	-0.555662	0.525241
C370	C	0.939360	-0.055662	1.025241
H371	H	0.416751	-0.572843	0.542222
H372	H	0.916751	-0.072843	1.042222
H373	H	0.459348	-0.560414	0.494418
H374	H	0.959348	-0.060414	0.994418
H375	H	0.459390	-0.567690	0.544018
H376	H	0.959390	-0.067690	1.044018
H377	H	0.338923	-0.359792	0.496821
H378	H	0.838923	0.140208	0.996821
H379	H	0.129813	-0.126117	0.418717
H380	H	0.629813	0.373883	0.918717
C381	C	0.169298	-0.226497	0.440173
C382	C	0.669298	0.273503	0.940173
H383	H	0.174192	-0.203867	0.407695
H384	H	0.674192	0.296133	0.907695
H385	H	0.200056	-0.246499	0.445073
H386	H	0.700056	0.253501	0.945073
H387	H	0.153636	-0.246513	0.445115
H388	H	0.653636	0.253487	0.945115
C389	C	0.045534	-0.118840	0.580226
C390	C	0.545534	0.381160	1.080226
H391	H	0.037103	-0.084616	0.562833
H392	H	0.537103	0.415384	1.062833
H393	H	0.016544	-0.127261	0.600257
H394	H	0.516544	0.372739	1.100257
H395	H	0.062963	-0.127243	0.600213
H396	H	0.562963	0.372757	1.100213
C397	C	0.081491	-0.226557	0.616090
C398	C	0.581491	0.273443	1.116090
H399	H	0.095907	-0.260777	0.621487
H400	H	0.595907	0.239223	1.121487
H401	H	0.093299	-0.218149	0.630485
H402	H	0.593299	0.281851	1.130485
H403	H	0.046885	-0.218162	0.630515
H404	H	0.546885	0.281838	1.130515
C405	C	-0.029170	-0.455857	0.067237
C406	C	0.470830	0.044143	0.567237
H407	H	-0.049209	-0.438439	0.089844
H408	H	0.450791	0.061561	0.589844
H409	H	-0.000155	-0.447475	0.047271
H410	H	0.499845	0.052525	0.547271
H411	H	-0.046536	-0.447437	0.047182
H412	H	0.453464	0.052563	0.547182
H413	H	0.050281	-0.622271	0.074658
H414	H	0.550281	-0.122271	0.574658
C415	C	-0.065216	-0.491697	0.174940
C416	C	0.434784	0.008303	0.674940
H417	H	-0.070102	-0.459222	0.152304
H418	H	0.429898	0.040778	0.652304
H419	H	-0.095974	-0.496589	0.194904
H420	H	0.404026	0.003411	0.694904
H421	H	-0.049588	-0.496638	0.194992
H422	H	0.450412	0.003362	0.694992
H423	H	0.019144	-0.653235	0.167709
H424	H	0.519144	-0.153235	0.667709
H425	H	-0.026079	-0.470245	0.376824
H426	H	0.473921	0.029755	0.876824
C427	C	-0.065464	-0.491691	0.337270
C428	C	0.434536	0.008309	0.837270
H429	H	-0.073858	-0.509080	0.328829
H430	H	0.426142	-0.009080	0.828829
H431	H	-0.094474	-0.471664	0.354648
H432	H	0.405526	0.028336	0.854648
H433	H	-0.048034	-0.471699	0.308282
H434	H	0.451966	0.028301	0.808282
C435	C	0.058141	-0.631775	0.461386
C436	C	0.558141	-0.131775	0.961386
H437	H	0.063054	-0.664252	0.466316
H438	H	0.563054	-0.164252	0.966316
H439	H	0.088892	-0.626881	0.445776
H440	H	0.588892	-0.126881	0.945776
H441	H	0.042438	-0.626831	0.492128
H442	H	0.542438	-0.126831	0.992128
H443	H	0.018765	-0.653217	0.421828
H444	H	0.518765	-0.153217	0.921828
H445	H	0.087072	-0.886205	0.386121
H446	H	0.587072	-0.386205	0.886121
C447	C	0.065541	-0.785839	0.348118
C448	C	0.565541	-0.285839	0.848118
H449	H	0.097777	-0.808487	0.346287
H450	H	0.597777	-0.308487	0.846287
H451	H	0.064282	-0.765834	0.315967
H452	H	0.564282	-0.265834	0.815967
H453	H	0.056942	-0.765829	0.365608
H454	H	0.556942	-0.265829	0.865608
H455	H	-0.094449	-0.793002	0.412253
H456	H	0.405551	-0.293002	0.912253
C457	C	-0.072913	-0.893379	0.450260
C458	C	0.427087	-0.393379	0.950260
H459	H	-0.055586	-0.927607	0.459422
H460	H	0.444414	-0.427607	0.959422
H461	H	-0.096424	-0.884949	0.478747
H462	H	0.403576	-0.384949	0.978747
H463	H	-0.089094	-0.884965	0.429114
H464	H	0.410906	-0.384965	0.929114
C465	C	-0.227766	-0.623390	0.468906
C466	C	0.272234	-0.123390	0.968906
H467	H	-0.250425	-0.628287	0.501367
H468	H	0.249575	-0.128287	1.001367
H469	H	-0.207765	-0.654146	0.464002
H470	H	0.292235	-0.154146	0.964002
H471	H	-0.207757	-0.607750	0.464017
H472	H	0.292243	-0.107750	0.964017
H473	H	-0.328125	-0.583847	0.490235
H474	H	0.171875	-0.083847	0.990235
H475	H	-0.327887	-0.507903	0.338181
H476	H	0.172113	-0.007903	0.838181
C477	C	-0.227492	-0.535480	0.292909
C478	C	0.272508	-0.035480	0.792909
H479	H	-0.250074	-0.515453	0.275458
H480	H	0.249926	-0.015453	0.775458
H481	H	-0.207476	-0.518106	0.284539
H482	H	0.292524	-0.018106	0.784539
H483	H	-0.207487	-0.564497	0.284517
H484	H	0.292513	-0.064497	0.784517
