data_functionalizedCrystal
_audit_creation_method	'MofGen! by Chris Wilmer'
_symmetry_space_group_name_H-M	'P1'
_symmetry_Int_Tables_number	1
_symmetry_cell_setting	triclinic
loop_
_symmetry_equiv_pos_as_xyz
  x,y,z
_cell_length_a	14.908571
_cell_length_b	29.839131
_cell_length_c	14.908308
_cell_angle_alpha	93.261283
_cell_angle_beta	90.175053
_cell_angle_gamma	86.737317
loop_
_atom_site_label
_atom_site_type_symbol
_atom_site_fract_x
_atom_site_fract_y
_atom_site_fract_z
Zn1	Zn	1.345126	-0.234441	-0.587534
Zn2	Zn	1.353655	-0.305498	-0.437159
Zn3	Zn	1.203447	-0.225812	-0.428533
Zn4	Zn	1.194683	-0.304964	-0.578811
O5	O	1.274228	-0.267679	-0.508009
O6	O	1.472080	-0.247701	-0.574847
O7	O	1.340967	-0.291540	-0.310191
O8	O	1.222340	-0.164094	-0.449665
O9	O	1.478346	-0.299907	-0.464367
O10	O	1.326430	-0.170433	-0.566482
O11	O	1.230610	-0.232995	-0.303854
O12	O	1.076461	-0.232477	-0.441208
O13	O	1.207402	-0.298997	-0.705792
O14	O	1.070022	-0.290630	-0.551616
O15	O	1.317932	-0.247184	-0.712201
O16	O	1.332468	-0.368290	-0.455909
O17	O	1.215672	-0.367898	-0.559980
C18	C	1.040617	-0.260560	-0.494530
C19	C	0.940676	-0.257526	-0.488784
C20	C	0.746229	-0.312463	-0.592802
C21	C	0.652326	-0.309614	-0.587407
C22	C	0.658964	-0.248976	-0.472604
C23	C	0.752867	-0.251825	-0.477999
C24	C	0.796497	-0.283570	-0.538099
C25	C	0.890402	-0.286422	-0.543489
C26	C	0.897038	-0.225781	-0.428692
C27	C	0.803135	-0.222932	-0.423297
C28	C	1.274068	-0.384395	-0.507955
C29	C	1.274080	-0.434330	-0.507967
C30	C	1.335143	-0.744176	-0.453910
C31	C	1.335252	-0.931853	-0.453951
O32	O	1.387043	-0.956286	-0.407948
N33	N	1.274410	-0.955128	-0.508088
C34	C	1.213541	-0.931481	-0.562223
O35	O	1.161800	-0.955585	-0.608278
C36	C	1.213437	-0.743805	-0.562186
C37	C	1.274276	-0.720532	-0.508038
C38	C	1.395978	-0.720903	-0.399768
C39	C	1.395947	-0.673987	-0.399754
C40	C	1.335081	-0.650343	-0.453883
C41	C	1.274245	-0.673615	-0.508025
C42	C	1.152572	-0.720159	-0.616325
C43	C	1.152553	-0.673237	-0.616312
C44	C	1.213393	-0.649964	-0.562165
C45	C	1.213348	-0.603055	-0.562140
N46	N	1.274189	-0.579780	-0.508003
C47	C	1.335056	-0.603424	-0.453875
C48	C	1.213598	-1.030014	-0.562237
C49	C	1.213623	-1.076933	-0.562245
C50	C	1.335336	-1.077302	-0.453975
C51	C	1.335306	-1.030382	-0.453962
C52	C	1.274440	-1.006739	-0.508100
C53	C	1.334986	-0.504895	-0.453850
C54	C	1.334947	-0.457974	-0.453839
C55	C	1.213238	-0.457609	-0.562112
C56	C	1.213273	-0.504526	-0.562121
C57	C	1.274154	-0.528168	-0.507987
O58	O	1.161590	-0.578594	-0.608127
O59	O	1.386803	-0.579313	-0.407842
C60	C	1.335174	-0.791093	-0.453923
C61	C	1.274339	-0.814366	-0.508065
C62	C	1.213472	-0.790722	-0.562194
C63	C	1.274363	-0.861284	-0.508074
C64	C	1.335230	-0.884928	-0.453945
C65	C	1.396072	-0.861654	-0.399808
C66	C	1.396041	-0.814737	-0.399794
C67	C	1.152630	-0.813996	-0.616331
C68	C	1.152666	-0.860913	-0.616339
C69	C	1.213532	-0.884557	-0.562211
C70	C	1.508750	-0.274826	-0.521542
C71	C	1.608690	-0.277872	-0.527309
C72	C	1.260738	-0.273993	-0.742533
C73	C	1.254989	-0.276684	-0.842474
C74	C	1.274411	-0.150508	-0.508085
C75	C	1.274490	-0.100577	-0.508117
C76	C	1.359279	-0.227777	-1.036946
C77	C	1.353881	-0.230304	-1.130849
C78	C	1.238790	-0.284262	-1.124184
C79	C	1.244189	-0.281735	-1.030281
C80	C	1.304436	-0.253492	-0.986666
C81	C	1.309839	-0.250968	-0.892761
C82	C	1.194744	-0.304924	-0.886097
C83	C	1.189345	-0.307450	-0.980000
C84	C	1.287717	-0.261358	-0.274401
C85	C	1.293639	-0.258546	-0.174471
H86	H	0.623424	-0.223127	-0.423680
C87	C	0.938398	-0.321341	-0.609590
H88	H	1.001524	-0.318904	-0.604963
H89	H	0.919557	-0.315974	-0.669145
H90	H	0.923732	-0.350691	-0.595429
H91	H	1.103066	-0.794749	-0.660410
H92	H	1.140292	-0.330444	-1.015524
C93	C	1.146294	-0.431595	-0.621654
H94	H	1.155002	-0.400320	-0.613894
H95	H	1.086651	-0.437121	-0.604973
H96	H	1.155946	-0.441292	-0.682839
H97	H	1.150089	-0.325864	-0.845148
H98	H	1.408340	-0.204783	-1.001435
C99	C	0.755138	-0.188017	-0.357187
H100	H	0.692013	-0.190460	-0.361803
H101	H	0.769801	-0.158666	-0.371331
H102	H	0.773982	-0.193393	-0.297633
C103	C	1.085654	-0.745749	-0.675895
H104	H	1.049414	-0.724942	-0.708134
H105	H	1.048486	-0.761962	-0.639227
H106	H	1.117781	-0.766126	-0.717092
C107	C	0.794224	-0.347382	-0.658904
H108	H	0.750837	-0.364182	-0.690713
H109	H	0.832810	-0.367112	-0.626541
H110	H	0.828625	-0.332393	-0.700253
C111	C	0.597033	-0.341388	-0.647598
H112	H	0.636469	-0.360700	-0.684164
H113	H	0.558183	-0.324168	-0.684726
H114	H	0.562344	-0.358902	-0.611041
H115	H	1.398538	-0.209362	-1.171784
C116	C	0.952334	-0.193996	-0.368519
H117	H	1.014509	-0.200237	-0.380341
H118	H	0.940397	-0.198430	-0.307197
H119	H	0.936219	-0.163711	-0.380910
H120	H	1.384490	-0.439027	-0.409742
H121	H	1.384563	-0.524139	-0.409771
H122	H	1.445491	-0.655041	-0.355666
H123	H	1.164032	-1.010767	-0.606324
C124	C	1.462933	-0.746904	-0.340215
H125	H	1.499150	-0.726318	-0.307969
H126	H	1.500119	-0.767302	-0.376891
H127	H	1.430828	-0.763126	-0.299023
H128	H	1.384847	-1.011436	-0.409871
H129	H	1.384896	-1.096561	-0.409901
H130	H	1.358896	-0.227972	-0.857251
C131	C	1.146695	-1.102527	-0.621801
H132	H	1.110451	-1.081722	-0.654041
H133	H	1.109532	-1.118739	-0.585126
H134	H	1.178818	-1.122906	-0.662999
H135	H	1.102990	-0.653989	-0.660401
C136	C	1.146350	-0.530127	-0.621679
H137	H	1.110100	-0.509324	-0.653917
H138	H	1.109193	-0.546343	-0.585007
H139	H	1.178482	-0.550502	-0.662878
C140	C	1.463022	-0.887668	-0.340267
H141	H	1.454324	-0.918944	-0.348039
H142	H	1.453388	-0.877974	-0.279083
H143	H	1.522664	-0.882142	-0.356965
H144	H	1.103115	-0.879858	-0.660431
C145	C	1.172521	-0.315325	-1.172166
H146	H	1.140625	-0.330277	-1.128773
H147	H	1.204780	-0.336929	-1.210776
H148	H	1.131261	-0.297928	-1.206542
H149	H	1.445582	-0.795792	-0.355703
