data_functionalizedCrystal
_audit_creation_method	'MofGen! by Chris Wilmer'
_symmetry_space_group_name_H-M	'P1'
_symmetry_Int_Tables_number	1
_symmetry_cell_setting	triclinic
loop_
_symmetry_equiv_pos_as_xyz
  x,y,z
_cell_length_a	19.077399
_cell_length_b	13.031981
_cell_length_c	19.076919
_cell_angle_alpha	84.787276
_cell_angle_beta	94.479523
_cell_angle_gamma	99.757739
loop_
_atom_site_label
_atom_site_type_symbol
_atom_site_fract_x
_atom_site_fract_y
_atom_site_fract_z
Zn1	Zn	1.030976	-0.373998	-0.324614
Zn2	Zn	1.530976	0.126002	0.175386
Zn3	Zn	1.021884	-0.541473	-0.192950
Zn4	Zn	1.521884	-0.041473	0.307050
Zn5	Zn	0.917829	-0.374026	-0.211466
Zn6	Zn	1.417829	0.125974	0.288534
Zn7	Zn	0.898116	-0.556041	-0.314320
Zn8	Zn	1.398116	-0.056041	0.185680
O9	O	0.967201	-0.461384	-0.260838
O10	O	1.467201	0.038616	0.239162
O11	O	1.128920	-0.390105	-0.303708
O12	O	1.628920	0.109895	0.196292
O13	O	1.012525	-0.513175	-0.097260
O14	O	1.512525	-0.013175	0.402740
O15	O	0.944893	-0.227759	-0.238532
O16	O	1.444893	0.272241	0.261468
O17	O	1.122240	-0.513148	-0.206975
O18	O	1.622240	-0.013148	0.293025
O19	O	1.028022	-0.227738	-0.321661
O20	O	1.528022	0.272262	0.178339
O21	O	0.936076	-0.390153	-0.110863
O22	O	1.436076	0.109847	0.389137
O23	O	0.816064	-0.404279	-0.228551
O24	O	1.316064	0.095721	0.271449
O25	O	0.911296	-0.537978	-0.413832
O26	O	1.411296	-0.037978	0.086168
O27	O	0.801581	-0.538005	-0.304117
O28	O	1.301581	-0.038005	0.195883
O29	O	1.008908	-0.404231	-0.421395
O30	O	1.508908	0.095769	0.078605
O31	O	0.993411	-0.689668	-0.196994
O32	O	1.493411	-0.189668	0.303006
O33	O	0.902479	-0.700371	-0.286163
O34	O	1.402479	-0.200371	0.213837
C35	C	0.783114	-0.472727	-0.267226
C36	C	1.283114	0.027273	0.232774
C37	C	0.704358	-0.477606	-0.269974
C38	C	1.204358	0.022394	0.230026
C39	C	0.944838	-0.732944	-0.238467
C40	C	1.444838	-0.232944	0.261533
C41	C	0.935334	-0.849115	-0.228918
C42	C	1.435334	-0.349115	0.271082
C43	C	0.674883	-0.410178	-0.232003
C44	C	1.174883	0.089822	0.267997
C45	C	0.600883	-0.414771	-0.234584
C46	C	1.100883	0.085229	0.265416
C47	C	0.556359	-0.486787	-0.275140
C48	C	1.056359	0.013213	0.224860
C49	C	0.585839	-0.554223	-0.313112
C50	C	1.085839	-0.054223	0.186888
C51	C	0.659838	-0.549634	-0.310526
C52	C	1.159838	-0.049634	0.189474
C53	C	0.334239	-0.507992	-0.287078
C54	C	0.834239	-0.007992	0.212922
C55	C	0.260235	-0.512574	-0.289662
C56	C	0.760235	-0.012574	0.210338
C57	C	0.275284	-0.373123	-0.211133
C58	C	0.775284	0.126877	0.288867
C59	C	0.349284	-0.368536	-0.208555
C60	C	0.849284	0.131464	0.291445
C61	C	0.378757	-0.435975	-0.246524
C62	C	0.878757	0.064025	0.253476
N63	N	0.480719	-0.491482	-0.277780
N64	N	0.980719	0.008518	0.222220
N65	N	0.454396	-0.431285	-0.243879
N66	N	0.954396	0.068715	0.256121
C67	C	0.972198	-0.900819	-0.265834
C68	C	1.472198	-0.400819	0.234166
C69	C	0.962377	-1.020889	-0.255965
C70	C	1.462377	-0.520889	0.244035
C71	C	1.152007	-0.449998	-0.254424
C72	C	1.652007	0.050002	0.245576
C73	C	1.230760	-0.445146	-0.251691
C74	C	1.730760	0.054854	0.248309
C75	C	0.958917	-0.472726	-0.443773
C76	C	1.458917	0.027274	0.056227
C77	C	0.955387	-0.477559	-0.521729
C78	C	1.455387	0.022441	-0.021729
C79	C	0.989671	-0.188764	-0.283310
C80	C	1.489671	0.311236	0.216690
C81	C	0.999246	-0.072590	-0.292887
C82	C	1.499246	0.427410	0.207113
C83	C	1.004547	-0.410199	-0.562292
C84	C	1.504547	0.089801	-0.062292
C85	C	1.001222	-0.414737	-0.635541
C86	C	1.501222	0.085263	-0.135541
C87	C	0.948739	-0.486641	-0.668225
C88	C	1.448739	0.013359	-0.168225
C89	C	0.899574	-0.554005	-0.627657
C90	C	1.399574	-0.054005	-0.127657
C91	C	0.902897	-0.549461	-0.554410
C92	C	1.402897	-0.049461	-0.054410
C93	C	0.933349	-0.507692	-0.886868
C94	C	1.433349	-0.007692	-0.386868
C95	C	0.930032	-0.512233	-0.960120
C96	C	1.430032	-0.012233	-0.460120
C97	C	1.031679	-0.372963	-0.967998
C98	C	1.531679	0.127037	-0.467998
C99	C	1.035000	-0.368430	-0.894749
C100	C	1.535000	0.131570	-0.394749
C101	C	0.985832	-0.435790	-0.854188
C102	C	1.485832	0.064210	-0.354188
N103	N	0.945340	-0.491284	-0.743097
N104	N	1.445340	0.008716	-0.243097
N105	N	0.989229	-0.431142	-0.779318
N106	N	1.489229	0.068858	-0.279318
C107	C	0.975500	-0.450009	-0.078619
C108	C	1.475500	0.049991	0.421381
C109	C	0.979192	-0.444872	-0.000682
C110	C	1.479192	0.055128	0.499318
H111	H	0.711130	-0.351526	-0.198984
H112	H	1.211130	0.148474	0.301016
Cl113	Cl	0.902415	-1.089775	-0.195888
Cl114	Cl	1.402415	-0.589775	0.304112
Cl115	Cl	0.696892	-0.634408	-0.358260
Cl116	Cl	1.196892	-0.134408	0.141740
Cl117	Cl	0.875375	-0.918005	-0.168843
Cl118	Cl	1.375375	-0.418005	0.331157
H119	H	1.038077	-1.027970	-0.331804
H120	H	1.538077	-0.527970	0.168196
H121	H	0.893323	-0.562556	-0.853850
H122	H	1.393323	-0.062556	-0.353850
H123	H	1.047286	-0.351649	-0.535686
H124	H	1.547286	0.148351	-0.035686
H125	H	0.549581	-0.612865	-0.346129
H126	H	1.049581	-0.112865	0.153871
Cl127	Cl	1.063054	-0.330094	-0.686526
Cl128	Cl	1.563054	0.169906	-0.186526
H129	H	0.887291	-0.570789	-0.986729
H130	H	1.387291	-0.070789	-0.486729
Cl131	Cl	0.405252	-0.277988	-0.157576
Cl132	Cl	0.905252	0.222012	0.342424
Cl133	Cl	0.563832	-0.329994	-0.186851
Cl134	Cl	1.063832	0.170006	0.313149
Cl135	Cl	1.100981	-0.278032	-0.853666
Cl136	Cl	1.600981	0.221968	-0.353666
Cl137	Cl	1.093483	-0.288284	-1.018993
Cl138	Cl	1.593483	0.211716	-0.518993
Cl139	Cl	0.833593	-0.644396	-0.668747
Cl140	Cl	1.333593	-0.144396	-0.168747
H141	H	1.011027	-0.856196	-0.304749
H142	H	1.511027	-0.356196	0.195251
Cl143	Cl	0.841091	-0.634144	-0.503417
Cl144	Cl	1.341091	-0.134144	-0.003417
H145	H	0.251279	-0.318219	-0.180220
H146	H	0.751279	0.181781	0.319780
H147	H	0.358226	-0.562906	-0.317995
H148	H	0.858226	-0.062906	0.182005
Cl149	Cl	0.204263	-0.603114	-0.340652
Cl150	Cl	0.704263	-0.103114	0.159348
