data_functionalizedCrystal
_audit_creation_method	'MofGen! by Chris Wilmer'
_symmetry_space_group_name_H-M	'P1'
_symmetry_Int_Tables_number	1
_symmetry_cell_setting	triclinic
loop_
_symmetry_equiv_pos_as_xyz
  x,y,z
_cell_length_a	6.817900
_cell_length_b	15.866870
_cell_length_c	16.255661
_cell_angle_alpha	112.481265
_cell_angle_beta	103.488922
_cell_angle_gamma	102.655915
loop_
_atom_site_label
_atom_site_type_symbol
_atom_site_fract_x
_atom_site_fract_y
_atom_site_fract_z
V1	V	-4.052302	-0.133532	-0.305528
O2	O	-4.013114	0.005619	-0.257095
O3	O	-4.028858	-0.264004	-0.344425
O4	O	-4.003538	-0.131828	-0.420080
O5	O	-4.038609	-0.127472	-0.180917
V6	V	-4.532744	-0.116847	-0.285644
O7	O	-4.320320	-0.170133	-0.349144
O8	O	-4.714923	-0.080246	-0.242028
O9	O	-4.332981	0.013626	-0.246747
O10	O	-4.689329	-0.255998	-0.334077
O11	O	-4.663834	-0.122906	-0.410255
O12	O	-4.358302	-0.118551	-0.171093
C13	C	-3.879942	-0.295800	-0.350182
C14	C	-3.942057	-0.402465	-0.382749
C15	C	-3.931920	-0.683662	-0.080662
C16	C	-3.990297	-0.783895	-0.111292
C17	C	-4.076067	-0.811728	-0.274974
C18	C	-4.017687	-0.711496	-0.244357
C19	C	-3.945618	-0.647470	-0.147200
C20	C	-4.031385	-0.675303	-0.310896
C21	C	-3.973020	-0.575079	-0.280281
C22	C	-3.900957	-0.511048	-0.183129
C23	C	-3.887253	-0.547246	-0.116586
C24	C	-4.103469	-0.739331	-0.408053
C25	C	-4.117168	-0.703138	-0.474591
C26	C	-4.058788	-0.602912	-0.443977
C27	C	-3.986724	-0.538881	-0.346824
C28	C	-4.072491	-0.566714	-0.510520
C29	C	-4.014126	-0.466491	-0.479906
C30	C	-3.928359	-0.438657	-0.316210
C31	C	-3.847642	-0.127194	-0.446685
C32	C	-3.889220	-0.126665	-0.540600
C33	C	-3.798563	-0.120335	-0.761444
C34	C	-3.970636	-0.202032	-0.856407
C35	C	-3.965414	-0.125671	-0.712539
C36	C	-3.867453	-0.043038	-0.784922
C37	C	-4.038997	-0.124707	-0.878622
C38	C	-4.136983	-0.207441	-0.806294
C39	C	-4.033723	-0.048376	-0.734772
C40	C	-4.205937	-0.130096	-0.829722
C41	C	-3.923020	-0.126227	-0.616863
C42	C	-4.081410	-0.124158	-0.974299
C43	C	-4.145241	0.045416	-0.240990
C44	C	-4.062363	0.152080	-0.208429
C45	C	-4.177540	-0.123187	-0.144484
C46	C	-4.115200	-0.123712	-0.050566
H47	H	-3.828535	-0.495111	-0.037470
H48	H	-3.853443	-0.429440	-0.158205
H49	H	-4.059868	0.016591	-0.682396
H50	H	-3.869641	-0.386522	-0.237094
H51	H	-4.134760	-0.863871	-0.354080
C52	C	-4.288642	-0.300229	-0.817467
C53	C	-4.422039	-0.357295	-0.912900
C54	C	-4.561782	-0.442770	-0.923224
H55	H	-4.207672	-0.335325	-0.798053
H56	H	-4.373953	-0.284400	-0.779156
H57	H	-4.336738	-0.373125	-0.951198
H58	H	-4.503056	-0.322228	-0.932335
H59	H	-4.647093	-0.426942	-0.884913
H60	H	-4.480794	-0.477858	-0.903806
H61	H	-4.652321	-0.481496	-0.987974
C62	C	-3.716301	0.049720	-0.774032
C63	C	-3.747773	0.130027	-0.710125
C64	C	-3.608580	0.215486	-0.700078
H65	H	-3.571946	0.053209	-0.750511
H66	H	-3.744921	0.049732	-0.834094
H67	H	-3.719138	0.130015	-0.650075
H68	H	-3.892099	0.126570	-0.733629
H69	H	-3.637199	0.215498	-0.760140
H70	H	-3.464233	0.218965	-0.676559
H71	H	-3.629927	0.269984	-0.656723
H72	H	-3.626039	-0.116313	-0.731710
C73	C	-3.853845	-0.614299	0.024863
C74	C	-3.854388	-0.667444	0.076587
C75	C	-3.782527	-0.603582	0.173791
H76	H	-3.712156	-0.571455	0.044023
H77	H	-3.946456	-0.577782	0.036555
H78	H	-3.761778	-0.703945	0.064901
H79	H	-3.996054	-0.710285	0.057456
H80	H	-3.875138	-0.567065	0.185484
H81	H	-3.640841	-0.560741	0.192942
H82	H	-3.782904	-0.639632	0.208898
H83	H	-3.979130	-0.813357	-0.057100
C84	C	-4.166395	-0.848127	-0.441230
C85	C	-3.989550	-0.869085	-0.401359
C86	C	-4.047427	-0.969298	-0.431911
H87	H	-4.280783	-0.868911	-0.421619
H88	H	-4.211196	-0.881107	-0.508619
H89	H	-3.944778	-0.836118	-0.333985
H90	H	-3.875143	-0.848325	-0.420966
H91	H	-4.092228	-1.002278	-0.499300
H92	H	-4.161817	-0.990073	-0.412298
H93	H	-3.927443	-0.983532	-0.404871
H94	H	-4.175861	-0.755281	-0.553697
C95	C	-4.150811	-0.636080	-0.616046
C96	C	-4.150368	-0.582933	-0.667769
C97	C	-4.222535	-0.646799	-0.764984
H98	H	-4.058374	-0.672655	-0.627847
H99	H	-4.292534	-0.678872	-0.635109
H100	H	-4.008667	-0.540158	-0.648714
H101	H	-4.242810	-0.546361	-0.655998
H102	H	-4.364258	-0.689591	-0.784047
H103	H	-4.130091	-0.683370	-0.776775
H104	H	-4.222263	-0.610749	-0.800091
C105	C	-4.028931	-0.427001	-0.552000
C106	C	-3.962446	-0.325527	-0.504394
C107	C	-3.976090	-0.289118	-0.570778
H108	H	-3.939005	-0.445903	-0.586996
H109	H	-4.173240	-0.452225	-0.594322
H110	H	-3.818161	-0.300313	-0.462088
H111	H	-4.052354	-0.306599	-0.469402
H112	H	-4.120398	-0.314342	-0.613100
H113	H	-3.886162	-0.308026	-0.605770
H114	H	-3.931001	-0.220265	-0.538488
C115	C	-3.935435	-0.288525	-0.926279
C116	C	-3.774840	-0.255497	-0.958074
C117	C	-3.742358	-0.335142	-1.022444
H118	H	-3.892581	-0.325319	-0.895696
H119	H	-4.065200	-0.328156	-0.978971
H120	H	-3.645102	-0.215882	-0.905391
H121	H	-3.817652	-0.218712	-0.988672
H122	H	-3.872123	-0.374772	-1.075136
H123	H	-3.699511	-0.371931	-0.991854
H124	H	-3.633407	-0.312744	-1.044032
C125	C	-4.436012	-0.135420	-0.869205
C126	C	-4.435711	-0.052628	-0.881276
C127	C	-4.647614	-0.057497	-0.917637
H128	H	-4.508988	-0.191704	-0.928795
H129	H	-4.506977	-0.138584	-0.826078
H130	H	-4.364776	-0.049474	-0.924401
H131	H	-4.362777	0.003668	-0.821700
H132	H	-4.718579	-0.060661	-0.874510
H133	H	-4.720573	-0.113784	-0.977225
H134	H	-4.647438	-0.001320	-0.925824
