data_functionalizedCrystal
_audit_creation_method	'MofGen! by Chris Wilmer'
_symmetry_space_group_name_H-M	'P1'
_symmetry_Int_Tables_number	1
_symmetry_cell_setting	triclinic
loop_
_symmetry_equiv_pos_as_xyz
  x,y,z
_cell_length_a	6.817900
_cell_length_b	11.168121
_cell_length_c	16.255661
_cell_angle_alpha	93.883604
_cell_angle_beta	103.488922
_cell_angle_gamma	108.508496
loop_
_atom_site_label
_atom_site_type_symbol
_atom_site_fract_x
_atom_site_fract_y
_atom_site_fract_z
V1	V	-4.052428	-0.175725	-0.263878
O2	O	-4.013108	0.007395	-0.258848
O3	O	-4.029107	-0.347423	-0.262080
O4	O	-4.003662	-0.173482	-0.378961
O5	O	-4.038730	-0.167750	-0.141158
V6	V	-4.532854	-0.153767	-0.249199
O7	O	-4.320481	-0.223890	-0.296078
O8	O	-4.714999	-0.105601	-0.216999
O9	O	-4.332969	0.017931	-0.250997
O10	O	-4.689571	-0.336886	-0.254229
O11	O	-4.663950	-0.161741	-0.371919
O12	O	-4.358414	-0.156010	-0.134116
C13	C	-3.880221	-0.389265	-0.257919
C14	C	-3.942438	-0.529634	-0.257217
C15	C	-4.144141	-0.598340	-0.260917
C16	C	-4.208449	-0.743419	-0.260191
C17	C	-3.847762	-0.167385	-0.407012
C18	C	-3.889340	-0.166687	-0.501093
C19	C	-3.798677	-0.158357	-0.723911
C20	C	-3.970827	-0.265869	-0.793392
C21	C	-3.965533	-0.165380	-0.673341
C22	C	-3.867493	-0.056637	-0.771498
C23	C	-4.039115	-0.164111	-0.839725
C24	C	-4.137179	-0.272987	-0.741592
C25	C	-4.033769	-0.063661	-0.719683
C26	C	-4.206060	-0.171203	-0.789144
C27	C	-3.923139	-0.166112	-0.577492
C28	C	-4.081528	-0.163389	-0.935573
C29	C	-4.145198	0.059767	-0.255155
C30	C	-4.062220	0.200134	-0.255864
C31	C	-4.177657	-0.162111	-0.106061
C32	C	-4.115317	-0.162802	-0.011979
H33	H	-4.269220	-0.549758	-0.264628
H34	H	-3.889421	-0.740810	-0.252693
H35	H	-4.378731	-0.176663	-0.817491
O36	O	-4.065219	0.038278	-0.681468
C37	C	-4.313807	0.148039	-0.672500
C38	C	-4.278503	0.032542	-0.715873
H39	H	-4.486253	0.143426	-0.700287
H40	H	-4.198368	0.240222	-0.684357
H41	H	-4.282958	0.145928	-0.600694
H42	H	-4.309382	0.034530	-0.787690
H43	H	-4.393923	-0.059590	-0.703947
O44	O	-3.940018	-0.367957	-0.831742
C45	C	-4.097574	-0.560761	-0.934950
C46	C	-4.132794	-0.445233	-0.891576
H47	H	-4.253392	-0.623257	-0.983348
H48	H	-4.046453	-0.618883	-0.884425
H49	H	-3.966730	-0.525614	-0.969231
H50	H	-4.263664	-0.480269	-0.857298
H51	H	-4.183799	-0.387135	-0.942139
H52	H	-3.817364	-0.578218	-0.253515
H53	H	-4.381236	-0.802479	-0.263349
H54	H	-3.753881	0.034772	-0.785104
H55	H	-3.626149	-0.153065	-0.695430
H56	H	-4.250790	-0.364520	-0.728129
