data_functionalizedCrystal
_audit_creation_method	'MofGen! by Chris Wilmer'
_symmetry_space_group_name_H-M	'P1'
_symmetry_Int_Tables_number	1
_symmetry_cell_setting	triclinic
loop_
_symmetry_equiv_pos_as_xyz
  x,y,z
_cell_length_a	12.759395
_cell_length_b	18.050589
_cell_length_c	12.759387
_cell_angle_alpha	89.970268
_cell_angle_beta	89.982772
_cell_angle_gamma	90.029758
loop_
_atom_site_label
_atom_site_type_symbol
_atom_site_fract_x
_atom_site_fract_y
_atom_site_fract_z
Zn1	Zn	1.606136	-0.295592	-0.594011
Zn2	Zn	1.605995	-0.419800	-0.418334
Zn3	Zn	1.430444	-0.295632	-0.418348
Zn4	Zn	1.430385	-0.419748	-0.593973
O5	O	1.518240	-0.357693	-0.506166
O6	O	1.753138	-0.312073	-0.570717
O7	O	1.582674	-0.403367	-0.271315
O8	O	1.453834	-0.191702	-0.441672
O9	O	1.753035	-0.403329	-0.441648
O10	O	1.582914	-0.191672	-0.570731
O11	O	1.453697	-0.312141	-0.271325
O12	O	1.283415	-0.312091	-0.441635
O13	O	1.453733	-0.403240	-0.740999
O14	O	1.283372	-0.403278	-0.570666
O15	O	1.582856	-0.312023	-0.741027
O16	O	1.582616	-0.523718	-0.441611
O17	O	1.453596	-0.523679	-0.570652
C18	C	1.245273	-0.357684	-0.506148
C19	C	1.128496	-0.357698	-0.506166
C20	C	1.128489	-0.452805	-0.640308
C21	C	1.073625	-0.500364	-0.707383
C22	C	0.963903	-0.500373	-0.707395
C23	C	0.909044	-0.452816	-0.640329
C24	C	0.963908	-0.405257	-0.573255
C25	C	1.073632	-0.405255	-0.573247
C26	C	0.963914	-0.310147	-0.439119
C27	C	1.073636	-0.310141	-0.439099
C28	C	0.909054	-0.262590	-0.372052
C29	C	0.963919	-0.215033	-0.304971
C30	C	1.073647	-0.215027	-0.304960
C31	C	1.128500	-0.262581	-0.372025
C32	C	1.518113	-0.550645	-0.506149
C33	C	1.518155	-0.633191	-0.506177
C34	C	1.448063	-0.832647	-0.576325
C35	C	1.422452	-0.882096	-0.480456
C36	C	1.518258	-0.784321	-0.506190
C37	C	1.543921	-0.881955	-0.602070
C38	C	1.518356	-0.930306	-0.506212
C39	C	1.492597	-0.832682	-0.410271
C40	C	1.614110	-0.832537	-0.531950
C41	C	1.588536	-0.881962	-0.436015
C42	C	1.518199	-0.700223	-0.506179
C43	C	1.518415	-1.014403	-0.506212
C44	C	1.792274	-0.357702	-0.506185
C45	C	1.909050	-0.357706	-0.506193
C46	C	1.518304	-0.357621	-0.780200
C47	C	1.518331	-0.357590	-0.896977
C48	C	1.518396	-0.163987	-0.506207
C49	C	1.518463	-0.081441	-0.506224
C50	C	1.652708	-0.452532	-1.116391
C51	C	1.719840	-0.500044	-1.061515
C52	C	1.719805	-0.500072	-0.951793
C53	C	1.652629	-0.452585	-0.896945
C54	C	1.585497	-0.405074	-0.951822
C55	C	1.585542	-0.405049	-1.061546
C56	C	1.451199	-0.310078	-0.951853
C57	C	1.451238	-0.310045	-1.061575
C58	C	1.384023	-0.262591	-0.897006
C59	C	1.316895	-0.215075	-0.951882
C60	C	1.316934	-0.215048	-1.061611
C61	C	1.384106	-0.262533	-1.116452
C62	C	1.518237	-0.357711	-0.233199
C63	C	1.518414	-0.357532	-0.116423
H64	H	0.919233	-0.539097	-0.762019
C65	C	1.133989	-0.162706	-0.231172
N66	N	1.179434	-0.123298	-0.175591
H67	H	1.652753	-0.452507	-1.205733
H68	H	1.262265	-0.176359	-1.106285
H69	H	1.695105	-0.810754	-0.553763
H70	H	1.565587	-0.903599	-0.683146
C71	C	0.903566	-0.162724	-0.231209
N72	N	0.858104	-0.123325	-0.175649
H73	H	1.774530	-0.538709	-1.106184
C74	C	0.788358	-0.262594	-0.372079
N75	N	0.697447	-0.262596	-0.372098
H76	H	1.774475	-0.538757	-0.907113
C77	C	1.367751	-0.803386	-0.656332
N78	N	1.307258	-0.781343	-0.716587
C79	C	1.133979	-0.552678	-0.781148
N80	N	1.179435	-0.592081	-0.836707
C81	C	1.652600	-0.452615	-0.776249
N82	N	1.652584	-0.452634	-0.685338
C83	C	1.249197	-0.262583	-0.372012
N84	N	1.340107	-0.262587	-0.372007
H85	H	1.383996	-0.262621	-0.807664
H86	H	1.341439	-0.903880	-0.458688
C87	C	1.463195	-0.803565	-0.300711
N88	N	1.441044	-0.781633	-0.218194
H89	H	1.647940	-0.903479	-0.376645
H90	H	1.262202	-0.176418	-0.907217
H91	H	1.217830	-0.452808	-0.640297
H92	H	1.384148	-0.262513	-1.205793
H93	H	0.819702	-0.452822	-0.640355
