data_functionalizedCrystal
_audit_creation_method	'MofGen! by Chris Wilmer'
_symmetry_space_group_name_H-M	'P1'
_symmetry_Int_Tables_number	1
_symmetry_cell_setting	triclinic
loop_
_symmetry_equiv_pos_as_xyz
  x,y,z
_cell_length_a	13.032831
_cell_length_b	29.839131
_cell_length_c	13.032268
_cell_angle_alpha	82.859460
_cell_angle_beta	89.113023
_cell_angle_gamma	82.845366
loop_
_atom_site_label
_atom_site_type_symbol
_atom_site_fract_x
_atom_site_fract_y
_atom_site_fract_z
Zn1	Zn	1.498202	-0.303377	0.780727
Zn2	Zn	1.998202	0.196623	1.280727
Zn3	Zn	1.519883	-0.370307	0.608723
Zn4	Zn	2.019883	0.129693	1.108723
Zn5	Zn	1.348078	-0.284611	0.586974
Zn6	Zn	1.848078	0.215389	1.086974
Zn7	Zn	1.326134	-0.367878	0.758849
Zn8	Zn	1.826134	0.132122	1.258849
O9	O	1.423074	-0.331543	0.683818
O10	O	1.923074	0.168457	1.183818
O11	O	1.644991	-0.321125	0.776168
O12	O	2.144991	0.178875	1.276168
O13	O	1.515350	-0.352102	0.461924
O14	O	2.015350	0.147898	0.961924
O15	O	1.368102	-0.224242	0.612730
O16	O	1.868102	0.275758	1.112730
O17	O	1.660920	-0.370299	0.649797
O18	O	2.160920	0.129701	1.149797
O19	O	1.478398	-0.238029	0.755079
O20	O	1.978398	0.261971	1.255079
O21	O	1.389125	-0.289141	0.445945
O22	O	1.889125	0.210859	0.945945
O23	O	1.201254	-0.286786	0.591516
O24	O	1.701254	0.213214	1.091516
O25	O	1.330702	-0.366159	0.905665
O26	O	1.830702	0.133841	1.405665
O27	O	1.185132	-0.347962	0.717792
O28	O	1.685132	0.152038	1.217792
O29	O	1.457120	-0.318770	0.921739
O30	O	1.957120	0.181230	1.421739
O31	O	1.494072	-0.432843	0.628583
O32	O	1.994072	0.067157	1.128583
O33	O	1.351725	-0.431059	0.738880
O34	O	1.851725	0.068941	1.238880
C35	C	1.155878	-0.315075	0.649920
C36	C	1.655878	0.184925	1.149920
C37	C	1.041567	-0.308042	0.635443
C38	C	1.541567	0.191958	1.135443
C39	C	0.982667	-0.335214	0.691374
C40	C	1.482667	0.164786	1.191374
C41	C	0.864520	-0.327945	0.676412
C42	C	1.364520	0.172055	1.176412
C43	C	1.422895	-0.448252	0.683744
C44	C	1.922895	0.051748	1.183744
C45	C	1.422908	-0.498188	0.683758
C46	C	1.922908	0.001812	1.183758
C47	C	1.497302	-0.808772	0.626498
C48	C	1.997302	-0.308772	1.126498
C49	C	1.497423	-0.996455	0.626554
C50	C	1.997423	-0.496455	1.126554
O51	O	1.560533	-1.021509	0.577811
O52	O	2.060533	-0.521509	1.077811
N53	N	1.423278	-1.019002	0.683923
N54	N	1.923278	-0.519002	1.183923
C55	C	1.349100	-0.994626	0.741287
C56	C	1.849100	-0.494626	1.241287
O57	O	1.286044	-1.018111	0.790093
O58	O	1.786044	-0.518111	1.290093
C59	C	1.348984	-0.806945	0.741236
C60	C	1.848984	-0.306945	1.241236
C61	C	1.423128	-0.784399	0.683855
C62	C	1.923128	-0.284399	1.183855
C63	C	1.571441	-0.786226	0.569122
C64	C	2.071441	-0.286226	1.069122
C65	C	1.571406	-0.739308	0.569105
C66	C	2.071406	-0.239308	1.069105
C67	C	1.497232	-0.714935	0.626462
C68	C	1.997232	-0.214935	1.126462
C69	C	1.423093	-0.737481	0.683837
C70	C	1.923093	-0.237481	1.183837
C71	C	1.274811	-0.782571	0.798606
C72	C	1.774811	-0.282571	1.298606
C73	C	1.274790	-0.735648	0.798590
C74	C	1.774790	-0.235648	1.298590
C75	C	1.348935	-0.713102	0.741209
C76	C	1.848935	-0.213102	1.241209
C77	C	1.348885	-0.666190	0.741177
C78	C	1.848885	-0.166190	1.241177
N79	N	1.423031	-0.643643	0.683808
N80	N	1.923031	-0.143643	1.183808
C81	C	1.497205	-0.668015	0.626451
C82	C	1.997205	-0.168015	1.126451
C83	C	1.349165	-1.093162	0.741308
C84	C	1.849165	-0.593162	1.241308
C85	C	1.349193	-1.140082	0.741320
C86	C	1.849193	-0.640082	1.241320
C87	C	1.497518	-1.141907	0.626588
C88	C	1.997518	-0.641907	1.126588
C89	C	1.497485	-1.094986	0.626571
C90	C	1.997485	-0.594986	1.126571
C91	C	1.423311	-1.070614	0.683939
C92	C	1.923311	-0.570614	1.183939
C93	C	1.497126	-0.569483	0.626417
C94	C	1.997126	-0.069483	1.126417
C95	C	1.497082	-0.522561	0.626401
C96	C	1.997082	-0.022561	1.126401
C97	C	1.348761	-0.520740	0.741137
C98	C	1.848761	-0.020740	1.241137
C99	C	1.348801	-0.567658	0.741149
C100	C	1.848801	-0.067658	1.241149
C101	C	1.422992	-0.592029	0.683787
C102	C	1.922992	-0.092029	1.183787
O103	O	1.285815	-0.641109	0.789903
O104	O	1.785815	-0.141109	1.289903
O105	O	1.560265	-0.644524	0.577671
O106	O	2.060265	-0.144524	1.077671
C107	C	1.497336	-0.855690	0.626516
C108	C	1.997336	-0.355690	1.126516
C109	C	1.423197	-0.878236	0.683891
C110	C	1.923197	-0.378236	1.183891
C111	C	1.349024	-0.853863	0.741249
C112	C	1.849024	-0.353863	1.241249
C113	C	1.423225	-0.925156	0.683903
C114	C	1.923225	-0.425156	1.183903
C115	C	1.497399	-0.949529	0.626545
C116	C	1.997399	-0.449529	1.126545
C117	C	1.571545	-0.926981	0.569176
C118	C	2.071545	-0.426981	1.069176
C119	C	1.571510	-0.880063	0.569158
C120	C	2.071510	-0.380063	1.069158
C121	C	1.274878	-0.876411	0.798618
C122	C	1.774878	-0.376411	1.298618
C123	C	1.274918	-0.923329	0.798630
C124	C	1.774918	-0.423329	1.298630
C125	C	1.349091	-0.947702	0.741272
C126	C	1.849091	-0.447702	1.241272
C127	C	1.691313	-0.348076	0.717849
C128	C	2.191313	0.151924	1.217849
C129	C	1.805621	-0.355122	0.732351
C130	C	2.305621	0.144878	1.232351
C131	C	1.389044	-0.344287	0.952061
C132	C	1.889044	0.155713	1.452061
C133	C	1.374543	-0.349718	1.066370
C134	C	1.874543	0.150282	1.566370
C135	C	1.423279	-0.214382	0.683919
C136	C	1.923279	0.285618	1.183919
C137	C	1.423367	-0.164454	0.683962
C138	C	1.923367	0.335546	1.183962
C139	C	1.457031	-0.318820	0.416627
C140	C	1.957031	0.181180	0.916627
C141	C	1.471732	-0.313275	0.302344
C142	C	1.971732	0.186725	0.802344
C143	C	1.430627	-0.328692	1.125285
C144	C	1.930627	0.171308	1.625285
C145	C	1.415640	-0.334304	1.243430
C146	C	1.915640	0.165696	1.743430
H147	H	1.019706	-0.363857	0.750338
H148	H	1.519706	0.136143	1.250338
H149	H	1.214431	-0.800919	0.845326
H150	H	1.714431	-0.300919	1.345326
Br151	Br	1.672204	-0.960068	0.491329
Br152	Br	2.172204	-0.460068	0.991329
H153	H	0.842654	-0.383766	0.791322
H154	H	1.342654	0.116234	1.291322
H155	H	1.004527	-0.279396	0.576487
H156	H	1.504527	0.220604	1.076487
Br157	Br	1.597711	-0.491966	0.548519
Br158	Br	2.097711	0.008034	1.048519
H159	H	1.489733	-0.306534	1.088259
H160	H	1.989733	0.193466	1.588259
H161	H	1.315426	-0.371870	1.103395
H162	H	1.815426	0.128130	1.603395
Br163	Br	1.174280	-0.953920	0.876509
Br164	Br	1.674280	-0.453920	1.376509
Br165	Br	1.317101	-0.371231	1.305125
Br166	Br	1.817101	0.128769	1.805125
H167	H	1.557541	-0.589321	0.579709
H168	H	2.057541	-0.089321	1.079709
H169	H	1.631783	-0.720955	0.522384
H170	H	2.131783	-0.220955	1.022384
Br171	Br	0.802800	-0.280195	0.578141
Br172	Br	1.302800	0.219805	1.078141
H173	H	1.557860	-1.076632	0.579847
H174	H	2.057860	-0.576632	1.079847
Br175	Br	1.672121	-0.819295	0.491272
Br176	Br	2.172121	-0.319295	0.991272
Br177	Br	1.598179	-1.174993	0.548741
Br178	Br	2.098179	-0.674993	1.048741
Br179	Br	1.248551	-1.170672	0.819180
Br180	Br	1.748551	-0.670672	1.319180
Br181	Br	1.174124	-0.702575	0.876456
Br182	Br	1.674124	-0.202575	1.376456
Br183	Br	1.248490	-1.060093	0.819173
Br184	Br	1.748490	-0.560093	1.319173
H185	H	1.288429	-0.586016	0.787877
H186	H	1.788429	-0.086016	1.287877
H187	H	1.288366	-0.500888	0.787833
H188	H	1.788366	-0.000888	1.287833
Br189	Br	1.174204	-0.843341	0.876470
Br190	Br	1.674204	-0.343341	1.376470
Br191	Br	1.570276	-0.276350	1.240652
Br192	Br	2.070276	0.223650	1.740652
H193	H	1.631885	-0.861710	0.522433
H194	H	2.131885	-0.361710	1.022433
