data_functionalizedCrystal
_audit_creation_method	'MofGen! by Chris Wilmer'
_symmetry_space_group_name_H-M	'P1'
_symmetry_Int_Tables_number	1
_symmetry_cell_setting	triclinic
loop_
_symmetry_equiv_pos_as_xyz
  x,y,z
_cell_length_a	8.597340
_cell_length_b	9.065218
_cell_length_c	7.540329
_cell_angle_alpha	90.001757
_cell_angle_beta	97.699141
_cell_angle_gamma	94.826720
loop_
_atom_site_label
_atom_site_type_symbol
_atom_site_fract_x
_atom_site_fract_y
_atom_site_fract_z
O1	O	2.085534	-0.220240	0.171214
O2	O	2.585534	0.279760	0.671214
O3	O	1.628848	-0.237136	0.101426
O4	O	2.128848	0.262864	0.601426
O5	O	1.866631	-0.014063	0.137766
O6	O	2.366631	0.485937	0.637766
O7	O	1.847751	-0.443313	0.134874
O8	O	2.347751	0.056687	0.634874
O9	O	1.866616	-0.014060	0.432729
O10	O	2.366616	0.485940	0.932729
O11	O	1.628833	-0.237133	0.396388
O12	O	2.128833	0.262867	0.896388
O13	O	2.085520	-0.220237	0.466177
O14	O	2.585520	0.279763	0.966177
Cu15	Cu	1.857175	-0.228685	0.458215
Cu16	Cu	2.357175	0.271315	0.958215
Cu17	Cu	1.857192	-0.228688	0.109388
Cu18	Cu	2.357192	0.271312	0.609388
O19	O	1.847737	-0.443310	0.429837
O20	O	2.347737	0.056690	0.929837
C21	C	1.570344	-0.235320	0.239968
C22	C	2.070344	0.264680	0.739968
C23	C	1.396043	-0.229895	0.213332
C24	C	1.896043	0.270105	0.713332
C25	C	1.864809	0.040929	0.284967
C26	C	2.364809	0.540929	0.784967
C27	C	1.859384	0.204782	0.284130
C28	C	2.359384	0.704782	0.784130
C29	C	2.144024	-0.222053	0.327631
C30	C	2.644024	0.277947	0.827631
C31	C	2.318325	-0.227477	0.354256
C32	C	2.818325	0.272523	0.854256
C33	C	1.849559	-0.498301	0.282632
C34	C	2.349559	0.001699	0.782632
C35	C	1.854984	-0.662154	0.283457
C36	C	2.354984	-0.162154	0.783457
N37	N	1.857175	-0.228681	0.703564
N38	N	2.357175	0.271319	1.203564
N39	N	1.857205	-0.228680	-0.135959
N40	N	2.357205	0.271320	0.364041
H41	H	1.385135	-0.229547	0.495291
H42	H	1.885135	0.270453	0.995291
H43	H	1.329226	-0.227815	0.072287
H44	H	1.829226	0.272185	0.572287
