data_functionalizedCrystal
_audit_creation_method	'MofGen! by Chris Wilmer'
_symmetry_space_group_name_H-M	'P1'
_symmetry_Int_Tables_number	1
_symmetry_cell_setting	triclinic
loop_
_symmetry_equiv_pos_as_xyz
  x,y,z
_cell_length_a	12.759401
_cell_length_b	16.625545
_cell_length_c	16.625539
_cell_angle_alpha	90.028107
_cell_angle_beta	90.017397
_cell_angle_gamma	90.025719
loop_
_atom_site_label
_atom_site_type_symbol
_atom_site_fract_x
_atom_site_fract_y
_atom_site_fract_z
Zn1	Zn	1.606165	-0.320997	0.455842
Zn2	Zn	2.106165	0.179003	0.955842
Zn3	Zn	1.606029	-0.455840	0.321010
Zn4	Zn	2.106029	0.044160	0.821010
Zn5	Zn	1.430470	-0.321025	0.321030
Zn6	Zn	1.930470	0.178975	0.821030
Zn7	Zn	1.430422	-0.455791	0.455807
Zn8	Zn	1.930422	0.044209	0.955807
O9	O	1.518271	-0.388413	0.388422
O10	O	2.018271	0.111587	0.888422
O11	O	1.753168	-0.338892	0.437963
O12	O	2.253168	0.161108	0.937963
O13	O	1.582704	-0.437989	0.208180
O14	O	2.082704	0.062011	0.708180
O15	O	1.453853	-0.208189	0.338936
O16	O	1.953853	0.291811	0.838936
O17	O	1.753068	-0.437961	0.338902
O18	O	2.253068	0.062039	0.838902
O19	O	1.582935	-0.208168	0.437982
O20	O	2.082935	0.291832	0.937982
O21	O	1.453722	-0.338941	0.208195
O22	O	1.953722	0.161059	0.708195
O23	O	1.283443	-0.338894	0.338903
O24	O	1.783443	0.161106	0.838903
O25	O	1.453771	-0.437878	0.568644
O26	O	1.953771	0.062122	1.068644
O27	O	1.283407	-0.437906	0.437923
O28	O	1.783407	0.062094	0.937923
O29	O	1.582889	-0.338845	0.568670
O30	O	2.082889	0.161155	1.068670
O31	O	1.582658	-0.568666	0.338868
O32	O	2.082658	-0.068666	0.838868
O33	O	1.453640	-0.568630	0.437903
O34	O	1.953640	-0.068630	0.937903
C35	C	1.245304	-0.388399	0.388411
C36	C	1.745304	0.111601	0.888411
C37	C	1.128527	-0.388412	0.388426
C38	C	1.628527	0.111588	0.888426
C39	C	1.073675	-0.440050	0.439900
C40	C	1.573675	0.059950	0.939900
C41	C	0.963951	-0.440060	0.439909
C42	C	1.463951	0.059940	0.939909
C43	C	0.963942	-0.336792	0.336962
C44	C	1.463942	0.163208	0.836962
C45	C	1.073664	-0.336778	0.336958
C46	C	1.573664	0.163222	0.836958
C47	C	1.073679	-0.499673	0.499334
C48	C	1.573679	0.000327	0.999334
C49	C	0.963955	-0.499684	0.499342
C50	C	1.463955	0.000316	0.999342
C51	C	1.518157	-0.597904	0.388397
C52	C	2.018157	-0.097904	0.888397
C53	C	1.518205	-0.687525	0.388413
C54	C	2.018205	-0.187525	0.888413
C55	C	1.518245	-0.760308	0.388429
C56	C	2.018245	-0.260308	0.888429
C57	C	1.518307	-0.851616	0.388447
C58	C	2.018307	-0.351616	0.888447
C59	C	1.518361	-0.924393	0.388457
C60	C	2.018361	-0.424393	0.888457
C61	C	1.518421	-1.015707	0.388474
C62	C	2.018421	-0.515707	0.888474
C63	C	1.792305	-0.388429	0.388434
C64	C	2.292305	0.111571	0.888434
C65	C	1.909081	-0.388435	0.388439
C66	C	2.409081	0.111565	0.888439
C67	C	1.518340	-0.388353	0.598731
C68	C	2.018340	0.111647	1.098731
C69	C	1.518369	-0.388328	0.688353
C70	C	2.018369	0.111672	1.188353
C71	C	1.518415	-0.178104	0.388466
C72	C	2.018415	0.321896	0.888466
C73	C	1.518476	-0.088483	0.388484
C74	C	2.018476	0.411517	0.888484
C75	C	1.518264	-0.388415	0.178932
C76	C	2.018264	0.111585	0.678932
C77	C	1.518438	-0.388213	0.089311
C78	C	2.018438	0.111787	0.589311
C79	C	1.518417	-0.388237	1.016528
C80	C	2.018417	0.111763	1.516528
C81	C	1.518401	-0.388265	0.925220
C82	C	2.018401	0.111735	1.425220
C83	C	1.518394	-0.388283	0.852443
C84	C	2.018394	0.111717	1.352443
C85	C	1.518376	-0.388310	0.761129
C86	C	2.018376	0.111690	1.261129
H87	H	1.103489	-0.483026	0.561811
H88	H	1.603489	0.016974	1.061811
O89	O	1.114198	-0.570465	0.472652
O90	O	1.614198	-0.070465	0.972652
C91	C	1.079951	-0.633581	0.522802
C92	C	1.579951	-0.133581	1.022802
H93	H	1.057447	-0.608311	0.584163
H94	H	1.557447	-0.108311	1.084163
H95	H	1.008959	-0.664147	0.494472
H96	H	1.508959	-0.164147	0.994472
C97	C	1.196481	-0.726411	0.457599
C98	C	1.696481	-0.226411	0.957599
C99	C	1.168849	-0.695374	0.532966
C100	C	1.668849	-0.195374	1.032966
H101	H	1.251314	-0.764531	0.463866
H102	H	1.751314	-0.264531	0.963866
H103	H	1.219551	-0.683890	0.423809
H104	H	1.719551	-0.183890	0.923809
H105	H	1.137312	-0.751877	0.433998
H106	H	1.637312	-0.251877	0.933998
H107	H	1.228013	-0.669901	0.556561
H108	H	1.728013	-0.169901	1.056561
H109	H	1.145791	-0.737894	0.566760
H110	H	1.645791	-0.237894	1.066760
O111	O	1.126786	-0.286583	0.286888
O112	O	1.626786	0.213417	0.786888
C113	C	1.054831	-0.241000	0.241480
C114	C	1.554831	0.259000	0.741480
H115	H	0.976605	-0.274034	0.238625
H116	H	1.476605	0.225966	0.738625
H117	H	1.043193	-0.179808	0.271128
H118	H	1.543193	0.320192	0.771128
C119	C	1.193698	-0.188672	0.159195
C120	C	1.693698	0.311328	0.659195
C121	C	1.097623	-0.229249	0.155682
C122	C	1.597623	0.270751	0.655682
H123	H	1.220095	-0.181419	0.106271
H124	H	1.720095	0.318581	0.606271
H125	H	1.242177	-0.219379	0.189789
H126	H	1.742177	0.280621	0.689789
H127	H	1.183987	-0.137683	0.183905
H128	H	1.683987	0.362317	0.683905
H129	H	1.107337	-0.280240	0.130982
H130	H	1.607337	0.219760	0.630982
H131	H	1.049146	-0.198550	0.125082
H132	H	1.549146	0.301450	0.625082
O133	O	0.910483	-0.286720	0.286988
O134	O	1.410483	0.213280	0.786988
C135	C	0.801876	-0.297789	0.298043
C136	C	1.301876	0.202211	0.798043
H137	H	0.786879	-0.360048	0.324345
H138	H	1.286879	0.139952	0.824345
H139	H	0.770777	-0.250018	0.341063
H140	H	1.270777	0.249982	0.841063
C141	C	0.763930	-0.213840	0.184170
C142	C	1.263930	0.286160	0.684170
C143	C	0.745509	-0.290311	0.216469
C144	C	1.245509	0.209689	0.716469
H145	H	0.729158	-0.209224	0.133853
H146	H	1.229158	0.290776	0.633853
H147	H	0.837100	-0.206380	0.176724
H148	H	1.337100	0.293620	0.676724
H149	H	0.738013	-0.174040	0.220028
H150	H	1.238013	0.325960	0.720028
H151	H	0.771436	-0.330109	0.180616
H152	H	1.271436	0.169891	0.680616
H153	H	0.672341	-0.297777	0.223907
H154	H	1.172341	0.202223	0.723907
O155	O	0.923444	-0.473227	0.570226
O156	O	1.423444	0.026773	1.070226
C157	C	0.957698	-0.523569	0.633181
C158	C	1.457698	-0.023569	1.133181
H159	H	0.980199	-0.584849	0.607716
H160	H	1.480199	-0.084849	1.107716
H161	H	1.028694	-0.495326	0.663822
H162	H	1.528694	0.004674	1.163822
C163	C	0.841179	-0.458667	0.726234
C164	C	1.341179	0.041333	1.226234
C165	C	0.868807	-0.533935	0.694958
C166	C	1.368807	-0.033935	1.194958
H167	H	0.786350	-0.465059	0.764343
H168	H	1.286350	0.034941	1.264343
H169	H	0.818104	-0.424748	0.683821
H170	H	1.318104	0.075252	1.183821
H171	H	0.900351	-0.435139	0.751762
H172	H	1.400351	0.064861	1.251762
H173	H	0.809640	-0.557457	0.669422
H174	H	1.309640	-0.057457	1.169422
H175	H	0.891871	-0.567858	0.737368
H176	H	1.391871	-0.067858	1.237368
O177	O	0.928327	-0.574180	0.479393
O178	O	1.428327	-0.074180	0.979393
C179	C	0.866967	-0.604931	0.542847
C180	C	1.366967	-0.104931	1.042847
H181	H	0.889674	-0.573762	0.601407
H182	H	1.389674	-0.073762	1.101407
H183	H	0.780544	-0.593520	0.529714
H184	H	1.280544	-0.093520	1.029714
C185	C	0.858121	-0.734321	0.478870
C186	C	1.358121	-0.234321	0.978870
C187	C	0.886016	-0.696044	0.550796
C188	C	1.386016	-0.196044	1.050796
H189	H	0.869866	-0.790525	0.483772
H190	H	1.369866	-0.290525	0.983772
H191	H	0.899457	-0.713604	0.436118
H192	H	1.399457	-0.213604	0.936118
H193	H	0.786103	-0.724804	0.467933
H194	H	1.286103	-0.224804	0.967933
H195	H	0.958035	-0.705553	0.561726
H196	H	1.458035	-0.205553	1.061726
H197	H	0.844692	-0.716766	0.593550
H198	H	1.344692	-0.216766	1.093550
