data_functionalizedCrystal
_audit_creation_method	'MofGen! by Chris Wilmer'
_symmetry_space_group_name_H-M	'P1'
_symmetry_Int_Tables_number	1
_symmetry_cell_setting	triclinic
loop_
_symmetry_equiv_pos_as_xyz
  x,y,z
_cell_length_a	16.992694
_cell_length_b	16.109301
_cell_length_c	15.186229
_cell_angle_alpha	90.005167
_cell_angle_beta	89.997727
_cell_angle_gamma	87.064852
loop_
_atom_site_label
_atom_site_type_symbol
_atom_site_fract_x
_atom_site_fract_y
_atom_site_fract_z
O1	O	-1.040345	-0.176288	-0.073123
O2	O	-0.812060	-0.174354	-0.073149
O3	O	-0.932474	-0.054708	-0.073126
O4	O	-0.919931	-0.295934	-0.073146
O5	O	-0.932466	-0.054706	0.073331
O6	O	-0.812052	-0.174352	0.073308
O7	O	-1.040337	-0.176286	0.073334
Zn8	Zn	-0.926193	-0.175318	0.096574
Zn9	Zn	-0.926204	-0.175321	-0.096389
O10	O	-0.919923	-0.295931	0.073312
C11	C	-0.782844	-0.171865	0.000076
C12	C	-0.695802	-0.164441	0.000067
C13	C	-1.069553	-0.178775	0.000107
C14	C	-1.156595	-0.186198	0.000111
C15	C	-0.931962	-0.023699	0.000103
C16	C	-0.930439	0.068698	0.000104
C17	C	-0.645543	-0.236067	0.000062
C18	C	-0.563758	-0.229087	0.000074
C19	C	-0.532234	-0.150481	0.000086
C20	C	-0.582499	-0.078849	0.000094
C21	C	-0.664282	-0.085830	0.000087
C22	C	-0.288644	-0.121548	0.000112
C23	C	-0.206854	-0.114572	0.000116
C24	C	-0.188119	-0.264811	0.000098
C25	C	-0.269904	-0.271785	0.000086
C26	C	-0.320163	-0.200154	0.000099
N27	N	-0.448637	-0.143344	0.000096
N28	N	-0.403758	-0.207291	0.000095
C29	C	-0.920435	-0.326941	0.000081
C30	C	-0.921959	-0.419338	0.000074
N31	N	-0.926192	-0.175316	0.228267
C32	C	-0.998348	0.286439	0.000097
C33	C	-0.996911	0.373256	0.000090
C34	C	-0.854044	0.362915	0.000077
C35	C	-0.855482	0.276100	0.000078
C36	C	-0.927636	0.237865	0.000093
C37	C	-0.924761	0.411496	0.000084
C38	C	-0.923202	0.505626	0.000076
C39	C	-0.929196	0.143729	0.000099
N40	N	-0.926212	-0.175317	-0.228082
C41	C	-0.979529	-0.122357	0.454000
C42	C	-0.979532	-0.122355	0.546190
C43	C	-0.872869	-0.228279	0.546179
C44	C	-0.872863	-0.228275	0.453991
C45	C	-0.926198	-0.175316	0.407904
C46	C	-0.926206	-0.175317	0.592281
C47	C	-0.926208	-0.175316	0.692237
C48	C	-0.926195	-0.175316	0.307941
H49	H	-0.671204	-0.300077	0.000052
H50	H	-0.705203	-0.027504	0.000091
H51	H	-0.829430	-0.271401	0.416457
H52	H	-0.522840	-0.287413	0.000069
C53	C	-1.074694	0.426689	0.000100
C54	C	-1.093359	0.487783	-0.075953
C55	C	-1.171146	0.541216	-0.075945
C56	C	-1.230269	0.533555	0.000116
C57	C	-1.211605	0.472459	0.076175
C58	C	-1.133818	0.419025	0.076166
H59	H	-1.049592	0.493456	-0.132263
H60	H	-1.184962	0.586444	-0.132249
H61	H	-1.287851	0.573110	0.000122
H62	H	-1.255373	0.466786	0.132485
H63	H	-1.120003	0.373798	0.132470
H64	H	-1.057101	0.255311	0.000107
H65	H	-0.181191	-0.050558	0.000124
H66	H	-0.795298	0.394057	0.000067
C67	C	-0.304569	-0.358259	0.000097
C68	C	-0.358214	-0.383708	0.076154
C69	C	-0.392875	-0.470185	0.076170
C70	C	-0.373890	-0.531213	0.000129
C71	C	-0.320243	-0.505765	-0.075934
C72	C	-0.285582	-0.419288	-0.075950
H73	H	-0.372270	-0.338531	0.132450
H74	H	-0.432588	-0.489023	0.132477
H75	H	-0.399548	-0.595228	0.000140
H76	H	-0.306187	-0.550943	-0.132230
H77	H	-0.245869	-0.400450	-0.132257
H78	H	-1.022956	-0.079233	0.416478
C79	C	-0.777695	0.222660	0.000074
C80	C	-0.759039	0.161558	0.076122
C81	C	-0.681256	0.108117	0.076114
C82	C	-0.622129	0.115779	0.000058
C83	C	-0.640783	0.176884	-0.075995
C84	C	-0.718566	0.230324	-0.075987
H85	H	-0.802810	0.155884	0.132428
H86	H	-0.667448	0.062883	0.132414
H87	H	-0.564549	0.076219	0.000052
H88	H	-0.597012	0.182558	-0.132301
H89	H	-0.732374	0.275558	-0.132287
C90	C	-1.038199	-0.064103	0.596897
C91	C	-1.096869	-0.005859	0.546201
C92	C	-1.155539	0.052397	0.596908
C93	C	-1.155537	0.052410	0.698311
C94	C	-1.096865	-0.005836	0.749013
C95	C	-1.038196	-0.064092	0.698306
H96	H	-1.096872	-0.005867	0.471131
H97	H	-1.198972	0.095514	0.559375
H98	H	-1.198968	0.095535	0.735847
H99	H	-1.096862	-0.005828	0.824082
H100	H	-0.994762	-0.107209	0.735839
C101	C	-0.814208	-0.286539	0.596875
C102	C	-0.814253	-0.286598	0.698278
C103	C	-0.755592	-0.344862	0.748971
C104	C	-0.696887	-0.403068	0.698261
C105	C	-0.696840	-0.403012	0.596852
C106	C	-0.755501	-0.344747	0.546159
H107	H	-0.857712	-0.243508	0.735822
H108	H	-0.755628	-0.344904	0.824041
H109	H	-0.653463	-0.446199	0.735787
H110	H	-0.653381	-0.446101	0.559308
H111	H	-0.755466	-0.344706	0.471089
C112	C	-0.132834	-0.343601	0.000094
C113	C	-0.074023	-0.359466	-0.075952
C114	C	-0.018738	-0.438260	-0.075951
C115	C	-0.022263	-0.501189	0.000095
C116	C	-0.081076	-0.485326	0.076147
C117	C	-0.136361	-0.406532	0.076146
H118	H	-0.071412	-0.312880	-0.132251
H119	H	0.024799	-0.450002	-0.132250
H120	H	0.018662	-0.559517	0.000095
H121	H	-0.083687	-0.531912	0.132446
H122	H	-0.179898	-0.394790	0.132445
H123	H	-0.329554	-0.063220	0.000123
H124	H	-0.556826	-0.014846	0.000116
