data_functionalizedCrystal
_audit_creation_method	'MofGen! by Chris Wilmer'
_symmetry_space_group_name_H-M	'P1'
_symmetry_Int_Tables_number	1
_symmetry_cell_setting	triclinic
loop_
_symmetry_equiv_pos_as_xyz
  x,y,z
_cell_length_a	13.897449
_cell_length_b	25.639239
_cell_length_c	13.897441
_cell_angle_alpha	90.033334
_cell_angle_beta	90.018596
_cell_angle_gamma	90.039966
loop_
_atom_site_label
_atom_site_type_symbol
_atom_site_fract_x
_atom_site_fract_y
_atom_site_fract_z
Zn1	Zn	1.474542	-0.208121	0.545356
Zn2	Zn	1.974542	0.291879	1.045356
Zn3	Zn	1.474382	-0.295562	0.384047
Zn4	Zn	1.974382	0.204438	0.884047
Zn5	Zn	1.313237	-0.208145	0.384075
Zn6	Zn	1.813237	0.291855	0.884075
Zn7	Zn	1.313153	-0.295529	0.545300
Zn8	Zn	1.813153	0.204471	1.045300
O9	O	1.393829	-0.251839	0.464694
O10	O	1.893829	0.248161	0.964694
O11	O	1.609502	-0.219725	0.523970
O12	O	2.109502	0.280275	1.023970
O13	O	1.452974	-0.283990	0.249069
O14	O	1.952974	0.216010	0.749069
O15	O	1.334736	-0.134976	0.405504
O16	O	1.834736	0.365024	0.905504
O17	O	1.609385	-0.283967	0.405457
O18	O	2.109385	0.216033	0.905457
O19	O	1.453246	-0.134959	0.523997
O20	O	1.953246	0.365041	1.023997
O21	O	1.334581	-0.219764	0.249089
O22	O	1.834581	0.280236	0.749089
O23	O	1.178244	-0.219733	0.405449
O24	O	1.678244	0.280267	0.905449
O25	O	1.334594	-0.283911	0.680289
O26	O	1.834594	0.216089	1.180289
O27	O	1.178183	-0.283934	0.523901
O28	O	1.678183	0.216066	1.023901
O29	O	1.453165	-0.219693	0.680331
O30	O	1.953165	0.280307	1.180331
O31	O	1.452894	-0.368723	0.405403
O32	O	1.952894	0.131277	0.905403
O33	O	1.334439	-0.368699	0.523874
O34	O	1.834439	0.131301	1.023874
C35	C	1.143214	-0.251832	0.464673
C36	C	1.643214	0.248168	0.964673
C37	C	1.036000	-0.251842	0.464686
C38	C	1.536000	0.248158	0.964686
C39	C	0.839705	-0.251844	0.464711
C40	C	1.339705	0.248156	0.964711
C41	C	0.948938	-0.251841	0.464695
C42	C	1.448938	0.248159	0.964695
C43	C	1.393666	-0.387682	0.464650
C44	C	1.893666	0.112318	0.964650
C45	C	1.393685	-0.445796	0.464664
C46	C	1.893685	0.054204	0.964664
C47	C	1.455669	-0.806159	0.403111
C48	C	1.955669	-0.306159	0.903111
C49	C	1.455706	-0.860763	0.403124
C50	C	1.955706	-0.360763	0.903124
O51	O	1.508238	-0.889000	0.350742
O52	O	2.008238	-0.389000	0.850742
N53	N	1.393998	-0.888078	0.464758
N54	N	1.893998	-0.388078	0.964758
C55	C	1.332256	-0.860786	0.526391
C56	C	1.832256	-0.360786	1.026391
O57	O	1.279772	-0.889034	0.578817
O58	O	1.779772	-0.389034	1.078817
C59	C	1.332224	-0.806183	0.526382
C60	C	1.832224	-0.306183	1.026382
C61	C	1.393929	-0.778871	0.464737
C62	C	1.893929	-0.278871	0.964737
C63	C	1.517369	-0.778847	0.341472
C64	C	2.017369	-0.278847	0.841472
C65	C	1.517331	-0.724246	0.341458
C66	C	2.017331	-0.224246	0.841458
C67	C	1.455591	-0.696958	0.403084
C68	C	1.955591	-0.196958	0.903084
C69	C	1.393890	-0.724270	0.464723
C70	C	1.893890	-0.224270	0.964723
C71	C	1.270487	-0.778892	0.588018
C72	C	1.770487	-0.278892	1.088018
C73	C	1.270461	-0.724285	0.588004
C74	C	1.770461	-0.224285	1.088004
C75	C	1.332166	-0.696973	0.526359
C76	C	1.832166	-0.196973	1.026359
C77	C	1.332111	-0.642382	0.526334
C78	C	1.832111	-0.142382	1.026334
N79	N	1.393819	-0.615066	0.464700
N80	N	1.893819	-0.115066	0.964700
C81	C	1.455559	-0.642355	0.403075
C82	C	1.955559	-0.142355	0.903075
C83	C	1.332328	-0.975457	0.526405
C84	C	1.832328	-0.475457	1.026405
C85	C	1.332354	-1.030059	0.526410
C86	C	1.832354	-0.530059	1.026410
C87	C	1.455806	-1.030033	0.403145
C88	C	1.955806	-0.530033	0.903145
C89	C	1.455775	-0.975429	0.403136
C90	C	1.955775	-0.475429	0.903136
C91	C	1.394036	-0.948142	0.464771
C92	C	1.894036	-0.448142	0.964771
C93	C	1.455472	-0.527690	0.403050
C94	C	1.955472	-0.027690	0.903050
C95	C	1.455425	-0.473084	0.403038
C96	C	1.955425	0.026916	0.903038
C97	C	1.331977	-0.473116	0.526307
C98	C	1.831977	0.026884	1.026307
C99	C	1.332020	-0.527716	0.526315
C100	C	1.832020	-0.027716	1.026315
C101	C	1.393776	-0.555002	0.464683
C102	C	1.893776	-0.055002	0.964683
O103	O	1.279609	-0.614110	0.578693
O104	O	1.779609	-0.114110	1.078693
O105	O	1.508043	-0.614100	0.350666
O106	O	2.008043	-0.114100	0.850666
C107	C	1.645421	-0.251847	0.464717
C108	C	2.145421	0.248153	0.964717
C109	C	1.752635	-0.251850	0.464727
C110	C	2.252635	0.248150	0.964727
C111	C	1.393888	-0.251796	0.716288
C112	C	1.893888	0.248204	1.216288
C113	C	1.393913	-0.251777	0.823502
C114	C	1.893913	0.248223	1.323502
C115	C	1.394018	-0.115466	0.464760
C116	C	1.894018	0.384534	0.964760
C117	C	1.394098	-0.057352	0.464788
C118	C	1.894098	0.442648	0.964788
C119	C	1.393825	-0.251845	0.214080
C120	C	1.893825	0.248155	0.714080
C121	C	1.393987	-0.251717	0.106867
C122	C	1.893987	0.248283	0.606867
C123	C	1.393933	-0.251762	0.910571
C124	C	1.893933	0.248238	1.410571
C125	C	1.393960	-0.251739	1.019804
C126	C	1.893960	0.248261	1.519804
H127	H	1.505672	-0.450848	0.352836
H128	H	2.005672	0.049152	0.852836
H129	H	1.281778	-0.549955	0.576514
H130	H	1.781778	-0.049955	1.076514
N131	N	1.265382	-0.443678	0.592765
N132	N	1.765382	0.056322	1.092765
H133	H	1.274729	-0.404944	0.583399
H134	H	1.774729	0.095056	1.083399
H135	H	1.280363	-0.453185	0.661672
H136	H	1.780363	0.046815	1.161672
H137	H	1.506021	-0.953195	0.352940
H138	H	2.006021	-0.453195	0.852940
H139	H	1.505761	-0.549899	0.352865
H140	H	2.005761	-0.049899	0.852865
H141	H	1.567579	-0.702012	0.291265
H142	H	2.067579	-0.202012	0.791265
N143	N	1.583967	-0.808274	0.275001
N144	N	2.083967	-0.308274	0.775001
H145	H	1.623043	-0.782678	0.235958
H146	H	2.123043	-0.282678	0.735958
H147	H	1.544743	-0.830965	0.230325
H148	H	2.044743	-0.330965	0.730325
H149	H	1.506082	-1.052261	0.352969
H150	H	2.006082	-0.552261	0.852969
N151	N	1.265784	-1.059510	0.592887
N152	N	1.765784	-0.559510	1.092887
H153	H	1.280718	-1.049970	0.661817
H154	H	1.780718	-0.549970	1.161817
H155	H	1.275195	-1.098234	0.583471
H156	H	1.775195	-0.598234	1.083471
N157	N	1.265727	-0.946027	0.592879
N158	N	1.765727	-0.446027	1.092879
H159	H	1.226643	-0.971621	0.631919
H160	H	1.726643	-0.471621	1.131919
H161	H	1.221095	-0.923413	0.553571
H162	H	1.721095	-0.423413	1.053571
N163	N	1.203927	-0.808336	0.654510
N164	N	1.703927	-0.308336	1.154510
H165	H	1.218872	-0.798793	0.723436
H166	H	1.718872	-0.298793	1.223436
H167	H	1.213330	-0.847060	0.645100
H168	H	1.713330	-0.347060	1.145100
N169	N	1.203873	-0.694854	0.654486
N170	N	1.703873	-0.194854	1.154486
H171	H	1.164792	-0.720445	0.693535
H172	H	1.664792	-0.220445	1.193535
H173	H	1.159237	-0.672240	0.615181
H174	H	1.659237	-0.172240	1.115181
