data_functionalizedCrystal
_audit_creation_method	'MofGen! by Chris Wilmer'
_symmetry_space_group_name_H-M	'P1'
_symmetry_Int_Tables_number	1
_symmetry_cell_setting	triclinic
loop_
_symmetry_equiv_pos_as_xyz
  x,y,z
_cell_length_a	9.065218
_cell_length_b	15.944545
_cell_length_c	7.540329
_cell_angle_alpha	89.998822
_cell_angle_beta	90.001372
_cell_angle_gamma	84.256029
loop_
_atom_site_label
_atom_site_type_symbol
_atom_site_fract_x
_atom_site_fract_y
_atom_site_fract_z
O1	O	0.190225	1.115965	0.147360
O2	O	0.213693	0.871593	0.147388
O3	O	-0.012802	0.998830	0.147370
O4	O	0.416720	0.988728	0.147378
O5	O	-0.012803	0.998826	-0.147595
O6	O	0.213691	0.871588	-0.147577
O7	O	0.190223	1.115961	-0.147605
Cu8	Cu	0.201957	0.993774	-0.174523
Cu9	Cu	0.201959	0.993779	0.174307
O10	O	0.416718	0.988723	-0.147587
C11	C	0.212720	0.840289	-0.000091
C12	C	0.209804	0.747021	-0.000080
C13	C	-0.067766	0.997857	-0.000109
C14	C	-0.231541	0.994954	-0.000101
C15	C	0.060699	0.475258	-0.000102
C16	C	0.132584	0.526382	-0.145538
C17	C	0.199405	0.411298	-0.000110
C18	C	0.132623	0.526368	0.145275
C19	C	0.204507	0.576250	-0.000092
C20	C	0.271253	0.461193	-0.145667
C21	C	0.271272	0.461175	0.145276
C22	C	0.343259	0.512267	-0.000195
C23	C	0.196462	0.316274	-0.000122
C24	C	0.207460	0.671272	-0.000093
C25	C	0.471683	0.989696	-0.000103
C26	C	0.635458	0.992599	-0.000100
C27	C	0.191197	1.147264	-0.000122
C28	C	0.194113	1.240533	-0.000121
N29	N	0.201955	0.993776	-0.419872
N30	N	0.201950	0.993783	0.419655
H31	H	-0.058756	0.458700	-0.000245
C32	C	0.053446	0.564868	-0.311643
N33	N	-0.006171	0.593854	-0.436749
C34	C	0.350335	0.422664	0.311393
N35	N	0.409873	0.393655	0.436527
C36	C	0.504758	0.534427	-0.000309
N37	N	0.626397	0.551122	-0.000406
H38	H	0.074021	0.554843	0.268222
H39	H	0.329788	0.432826	-0.268753
