data_functionalizedCrystal
_audit_creation_method	'MofGen! by Chris Wilmer'
_symmetry_space_group_name_H-M	'P1'
_symmetry_Int_Tables_number	1
_symmetry_cell_setting	triclinic
loop_
_symmetry_equiv_pos_as_xyz
  x,y,z
_cell_length_a	19.851628
_cell_length_b	14.446369
_cell_length_c	14.446369
_cell_angle_alpha	60.000250
_cell_angle_beta	90.005090
_cell_angle_gamma	59.999397
loop_
_atom_site_label
_atom_site_type_symbol
_atom_site_fract_x
_atom_site_fract_y
_atom_site_fract_z
Zr1	Zr	0.648984	1.013130	-0.121411
O2	O	0.541418	1.206259	-0.269240
O3	O	0.681958	0.820008	-0.076088
O4	O	0.681959	1.013117	-0.269207
O5	O	0.541417	1.013159	0.076208
O6	O	0.792821	1.013099	-0.269189
O7	O	0.541417	1.013150	-0.076120
O8	O	0.792818	0.667663	0.076266
O9	O	0.541419	1.358594	-0.269247
O10	O	0.778756	0.899426	-0.056752
O11	O	0.696021	0.899446	0.056916
O12	O	0.696023	1.126806	-0.170457
O13	O	0.613288	1.126826	-0.056790
Zr14	Zr	0.825795	1.013115	0.121565
Zr15	Zr	0.825796	1.013102	-0.121382
Zr16	Zr	0.648984	1.013144	0.121535
Zr17	Zr	0.648985	1.256088	-0.121423
Zr18	Zr	0.825794	0.770157	0.121576
O19	O	0.792822	1.206237	0.076241
O20	O	0.792822	1.206218	-0.269198
O21	O	0.541418	1.206278	0.076199
O22	O	0.933361	0.819987	0.269393
O23	O	0.933361	0.819968	-0.076046
O24	O	0.681957	0.820027	0.269351
O25	O	0.933362	1.013087	-0.076055
O26	O	0.792820	1.013129	0.269361
O27	O	0.681958	1.013146	0.269342
O28	O	0.933362	1.013095	0.076274
O29	O	0.681961	1.358572	-0.269223
O30	O	0.792818	0.667674	0.269376
O31	O	0.933360	0.667651	0.269400
O32	O	0.933360	0.667640	0.076290
O33	O	0.541419	1.358605	-0.076136
O34	O	0.681961	1.358582	-0.076113
O35	O	0.778756	0.899439	0.170611
O36	O	0.861491	0.899419	0.056943
O37	O	0.778758	1.126799	-0.056762
O38	O	0.696023	1.126819	0.056905
C39	C	0.737388	0.709219	0.000091
C40	C	0.737387	0.606077	0.000095
C41	C	0.516225	1.013158	0.000040
C42	C	0.441164	1.013171	0.000027
C43	C	0.685456	0.459080	0.072114
C44	C	0.685174	0.566700	0.071823
C45	C	0.699322	0.655073	-0.123446
C46	C	0.698931	0.547840	-0.123072
C47	C	0.827420	0.372608	0.050555
C48	C	0.827288	0.478759	0.053076
C49	C	0.214709	1.137119	-0.061932
C50	C	0.192347	1.075142	-0.106847
C51	C	0.303757	1.013137	0.000060
C52	C	0.192378	1.075121	0.044954
C53	C	0.171025	1.013113	0.000091
C54	C	0.282384	0.951159	-0.044918
C55	C	0.282412	0.951156	0.106942
C56	C	0.260104	0.889089	0.062054
C57	C	0.380219	1.013154	0.000039
C58	C	0.094568	1.013086	0.000109
C59	C	0.958554	1.013087	0.000114
C60	C	1.033615	1.013075	0.000126
C61	C	0.737390	1.013106	-0.303813
C62	C	0.737390	1.013100	-0.406950
C63	C	0.737392	1.317026	0.000063
C64	C	0.737392	1.420168	0.000058
C65	C	0.789830	0.869707	-0.481917
C66	C	0.789603	0.869610	-0.374589
C67	C	0.647493	1.084343	-0.481528
C68	C	0.647780	1.083432	-0.588387
C69	C	0.774121	1.086365	-0.589939
C70	C	0.775940	1.083662	-0.481267
C71	C	0.737389	1.013139	0.303966
C72	C	0.737389	1.013145	0.407103
C73	C	0.958552	0.709184	0.000128
C74	C	1.033613	0.606030	0.000145
C75	C	0.737387	0.709236	0.303980
C76	C	0.737387	0.606100	0.407122
C77	C	0.958552	0.709200	0.304017
C78	C	1.033612	0.606052	0.407171
C79	C	0.516227	1.317045	-0.303864
C80	C	0.441167	1.420194	-0.407018
C81	C	0.516227	1.317062	0.000026
C82	C	0.441166	1.420216	0.000009
C83	C	0.737392	1.317009	-0.303827
C84	C	0.737393	1.420146	-0.406969
C85	C	1.025675	0.557591	-0.059205
C86	C	1.096196	0.460680	-0.059211
C87	C	1.174653	0.412203	0.000139
C88	C	1.182589	0.460651	0.059491
C89	C	1.112069	0.557567	0.059490
C90	C	1.112056	0.557602	0.396281
C91	C	1.182590	0.460697	0.493196
C92	C	1.174679	0.412236	0.601001
C93	C	1.096227	0.460696	0.611890
C94	C	1.025695	0.557606	0.514975
C95	C	0.362723	1.468655	-0.396127
C96	C	0.292189	1.565591	-0.493043
C97	C	0.300101	1.614056	-0.600848
C98	C	0.378552	1.565591	-0.611736
C99	C	0.449085	1.468663	-0.514822
C100	C	0.449104	1.468665	0.059348
C101	C	0.378583	1.565602	0.059328
C102	C	0.300126	1.614083	-0.000026
C103	C	0.292190	1.565630	-0.059373
C104	C	0.362710	1.468701	-0.059359
C105	C	0.684953	0.459794	0.482102
C106	C	0.685175	0.566714	0.374769
C107	C	0.827285	0.479232	0.481696
C108	C	0.827003	0.371857	0.588560
C109	C	0.700663	0.546851	0.590117
C110	C	0.698839	0.655321	0.481440
H111	H	0.710707	0.529991	0.162794
H112	H	0.618976	0.656073	0.320486
H113	H	0.617878	1.034875	-0.429928
C114	C	0.612586	0.600328	0.595658
H115	H	0.597391	0.545906	0.599828
H116	H	0.610778	0.601245	0.660921
H117	H	0.575246	0.686824	0.529621
H118	H	0.736093	1.192042	-0.668149
H119	H	0.868054	0.501474	0.508933
C120	C	0.222513	1.720668	-0.707447
H121	H	0.238454	1.742604	-0.773217
H122	H	0.190608	1.688903	-0.707445
H123	H	0.190615	1.796284	-0.707448
C124	C	0.189801	1.278726	-0.132849
H125	H	0.158456	1.322571	-0.208779
H126	H	0.157584	1.323210	-0.101717
H127	H	0.238007	1.277750	-0.131821
C128	C	0.535368	1.415350	-0.526816
H129	H	0.529970	1.458092	-0.604903
H130	H	0.564694	1.431213	-0.491479
H131	H	0.564666	1.323851	-0.491484
C132	C	0.205904	1.618874	-0.481045
H133	H	0.211300	1.576105	-0.402959
H134	H	0.176591	1.710368	-0.516371
H135	H	0.176593	1.602992	-0.516389
H136	H	0.842173	1.031707	-0.429836
C137	C	0.334847	0.880447	0.228998
H138	H	0.303423	0.924640	0.260786
H139	H	0.350709	0.792823	0.273369
H140	H	0.382755	0.880290	0.228134
C141	C	0.609371	0.777584	0.411962
H142	H	0.595561	0.798560	0.337968
H143	H	0.573067	0.760543	0.448173
H144	H	0.604296	0.849092	0.406859
H145	H	0.153538	1.127538	-0.197224
H146	H	0.321079	0.898793	-0.082977
C147	C	0.535398	1.415352	0.124644
H148	H	0.530013	1.458109	0.159968
H149	H	0.564705	1.323857	0.180813
H150	H	0.564707	1.431231	0.073422
C151	C	1.120811	0.610824	0.124794
H152	H	1.177638	0.568055	0.160147
H153	H	1.095098	0.702321	0.073587
H154	H	1.095102	0.594921	0.180959
H155	H	1.232117	0.333325	0.679906
C156	C	0.353969	1.415401	-0.124620
H157	H	0.297141	1.458153	-0.159956
H158	H	0.379682	1.431262	-0.180777
H159	H	0.379676	1.323903	-0.073378
C160	C	0.719755	0.339030	0.195311
H161	H	0.766054	0.264097	0.203910
H162	H	0.736108	0.354157	0.245258
H163	H	0.678263	0.324753	0.212765
H164	H	1.089798	0.421225	0.699677
C165	C	0.592128	1.225591	-0.694562
H166	H	0.591930	1.225998	-0.760528
H167	H	0.537519	1.265193	-0.692268
H168	H	0.612611	1.273278	-0.696399
H169	H	0.856199	0.813403	-0.479565
H170	H	0.606724	1.189847	-0.508770
C171	C	0.939409	0.610885	0.526963
H172	H	0.898529	0.675549	0.453811
H173	H	0.933237	0.541301	0.567240
H174	H	0.933227	0.648699	0.567226
H175	H	0.385061	1.605036	0.107659
C176	C	0.205885	1.618958	-0.124647
H177	H	0.165029	1.683612	-0.116139
H178	H	0.199683	1.656768	-0.202724
H179	H	0.199694	1.549386	-0.095324
H180	H	0.278709	0.784171	0.114479
C181	C	1.268894	0.407307	0.124781
H182	H	1.309750	0.342640	0.116286
H183	H	1.275099	0.476857	0.095492
H184	H	1.275084	0.369481	0.202862
H185	H	0.633707	0.747389	-0.164146
C186	C	1.268876	0.407396	0.481199
H187	H	1.263479	0.450125	0.403112
H188	H	1.298191	0.423282	0.516521
H189	H	1.298183	0.315892	0.516546
H190	H	0.242711	1.693009	-0.000029
H191	H	0.356266	1.429200	-0.308356
H192	H	0.619441	0.494851	0.037398
C193	C	0.755732	0.794036	-0.480515
H194	H	0.709674	0.849480	-0.547267
H195	H	0.797426	0.719884	-0.477583
H196	H	0.739042	0.766083	-0.415833
C197	C	0.139982	1.145929	0.096249
H198	H	0.123302	1.234007	0.052105
H199	H	0.092571	1.144729	0.096545
H200	H	0.171760	1.102745	0.171742
C201	C	0.867290	0.427120	0.412000
H202	H	0.829348	0.482478	0.337471
H203	H	0.915510	0.425822	0.408409
H204	H	0.881678	0.340908	0.447117
H205	H	0.618767	0.655510	0.036814
H206	H	0.839320	1.040456	-0.594043
C207	C	0.755148	0.793691	-0.301950
H208	H	0.754890	0.793375	-0.236031
H209	H	0.700448	0.834686	-0.344705
H210	H	0.788854	0.706171	-0.280288
H211	H	0.632683	0.588547	-0.163496
C212	C	0.879028	0.794089	-0.301240
H213	H	0.915823	0.763187	-0.336918
H214	H	0.885538	0.850586	-0.292822
H215	H	0.890899	0.721874	-0.228728
C216	C	0.387244	1.618901	-0.730325
H217	H	0.333999	1.683554	-0.786475
H218	H	0.416548	1.656706	-0.738844
H219	H	0.416536	1.549321	-0.738824
C220	C	0.879945	0.337491	-0.019994
H221	H	0.847213	0.351710	-0.079924
H222	H	0.899496	0.391012	-0.050703
H223	H	0.925522	0.248068	0.027123
C224	C	0.719055	0.338668	0.480699
H225	H	0.765116	0.264071	0.547449
H226	H	0.677364	0.324735	0.477772
H227	H	0.735741	0.352468	0.416014
H228	H	0.741716	1.188344	-0.506793
H229	H	0.618584	0.497044	0.479755
C230	C	0.746722	0.518157	-0.199548
H231	H	0.766283	0.571635	-0.230714
H232	H	0.792171	0.428597	-0.155972
H233	H	0.711180	0.535961	-0.259159
C234	C	1.087452	0.407391	-0.124487
H235	H	1.030624	0.450130	-0.159812
H236	H	1.113156	0.423272	-0.180653
H237	H	1.113169	0.315889	-0.073251
C238	C	0.870366	0.246016	0.171587
H239	H	0.833787	0.220984	0.192454
H240	H	0.918524	0.178255	0.174082
H241	H	0.885262	0.260729	0.222900
C242	C	0.719562	0.516122	0.302087
H243	H	0.733462	0.430060	0.338128
H244	H	0.679002	0.572256	0.229485
H245	H	0.767444	0.514820	0.293820
H246	H	0.868201	0.341898	0.667148
H247	H	0.735333	0.683849	-0.179455
C248	C	0.866719	0.249253	0.588203
H249	H	0.882871	0.265410	0.522875
H250	H	0.913810	0.177479	0.654389
H251	H	0.827967	0.229249	0.587097
C252	C	0.608047	1.015073	-0.588040
H253	H	0.591888	0.988111	-0.522718
H254	H	0.560959	1.074213	-0.654233
H255	H	0.646789	0.940705	-0.586933
C256	C	1.252218	0.305587	0.000143
H257	H	1.236246	0.283678	-0.043697
H258	H	1.284131	0.337328	-0.031623
H259	H	1.284119	0.229960	0.075759
H260	H	1.118513	0.597044	0.308509
H261	H	0.961798	0.597060	-0.107549
H262	H	0.733066	0.687442	0.506967
H263	H	0.855725	0.439158	0.144090
H264	H	0.869244	0.500251	0.006054
H265	H	0.738679	0.522058	0.668339
