data_functionalizedCrystal
_audit_creation_method	'MofGen! by Chris Wilmer'
_symmetry_space_group_name_H-M	'P1'
_symmetry_Int_Tables_number	1
_symmetry_cell_setting	triclinic
loop_
_symmetry_equiv_pos_as_xyz
  x,y,z
_cell_length_a	23.532407
_cell_length_b	23.532407
_cell_length_c	22.610064
_cell_angle_alpha	90.000603
_cell_angle_beta	89.997161
_cell_angle_gamma	97.151322
loop_
_atom_site_label
_atom_site_type_symbol
_atom_site_fract_x
_atom_site_fract_y
_atom_site_fract_z
O1	O	0.755263	-0.069127	-0.049117
O2	O	1.088597	0.264206	0.284217
O3	O	1.421930	0.597540	0.617550
O4	O	0.589400	-0.079130	-0.049135
O5	O	0.922733	0.254203	0.284198
O6	O	1.256067	0.587536	0.617532
O7	O	0.677333	0.008803	-0.049114
O8	O	1.010667	0.342136	0.284219
O9	O	1.344000	0.675470	0.617552
O10	O	0.667330	-0.157060	-0.049137
O11	O	1.000664	0.176273	0.284196
O12	O	1.333997	0.509606	0.617529
O13	O	0.677318	0.008790	0.049255
O14	O	1.010651	0.342124	0.382588
O15	O	1.343985	0.675457	0.715921
O16	O	0.589385	-0.079143	0.049234
O17	O	0.922718	0.254190	0.382568
O18	O	1.256051	0.587524	0.715901
O19	O	0.755248	-0.069140	0.049252
O20	O	1.088581	0.264193	0.382586
O21	O	1.421915	0.597527	0.715919
Zn22	Zn	0.672314	-0.074144	0.064862
Zn23	Zn	1.005647	0.259190	0.398195
Zn24	Zn	1.338980	0.592523	0.731528
Zn25	Zn	0.672334	-0.074127	-0.064744
Zn26	Zn	1.005668	0.259207	0.268589
Zn27	Zn	1.339001	0.592540	0.601923
O28	O	0.667315	-0.157073	0.049232
O29	O	1.000648	0.176260	0.382565
O30	O	1.333981	0.509593	0.715899
C31	C	0.568176	-0.078882	0.000048
C32	C	0.901510	0.254451	0.333381
C33	C	1.234843	0.587785	0.666714
C34	C	0.504959	-0.078116	0.000041
C35	C	0.838293	0.255217	0.333374
C36	C	1.171626	0.588551	0.666708
C37	C	0.105856	-0.125350	0.000061
C38	C	0.439190	0.207984	0.333395
C39	C	0.772523	0.541317	0.666728
C40	C	0.046456	-0.124638	0.000065
C41	C	0.379789	0.208695	0.333398
C42	C	0.713123	0.542029	0.666732
O43	O	0.009711	-0.168424	0.000081
O44	O	0.343045	0.164909	0.333414
O45	O	0.676378	0.498243	0.666747
N46	N	0.023830	-0.072362	0.000071
N47	N	0.357163	0.260972	0.333405
N48	N	0.690496	0.594305	0.666738
C49	C	0.060607	-0.020794	0.000080
C50	C	0.393941	0.312540	0.333413
C51	C	0.727274	0.645873	0.666746
O52	O	0.035908	0.023737	0.000086
O53	O	0.369241	0.357070	0.333419
O54	O	0.702574	0.690404	0.666753
C55	C	0.120006	-0.021506	0.000080
C56	C	0.453340	0.311828	0.333414
C57	C	0.786673	0.645161	0.666747
C58	C	0.142629	-0.073785	0.000068
C59	C	0.475962	0.259548	0.333401
C60	C	0.809296	0.592881	0.666735
C61	C	0.128479	-0.177625	0.000050
C62	C	0.461813	0.155708	0.333383
C63	C	0.795146	0.489042	0.666716
C64	C	0.187876	-0.178336	0.000045
C65	C	0.521209	0.154997	0.333378
C66	C	0.854542	0.488330	0.666712
C67	C	0.224649	-0.126772	0.000052
C68	C	0.557982	0.206561	0.333385
C69	C	0.891315	0.539895	0.666718
C70	C	0.202025	-0.074497	0.000063
C71	C	0.535359	0.258837	0.333397
C72	C	0.868692	0.592170	0.666730
C73	C	0.156783	0.030062	0.000093
C74	C	0.490116	0.363395	0.333426
C75	C	0.823450	0.696729	0.666760
C76	C	0.216185	0.029345	0.000094
C77	C	0.549519	0.362679	0.333427
C78	C	0.882852	0.696012	0.666761
C79	C	0.238808	-0.022934	0.000082
C80	C	0.572141	0.310399	0.333415
C81	C	0.905475	0.643732	0.666748
C82	C	0.298194	-0.023643	0.000065
C83	C	0.631528	0.309690	0.333398
C84	C	0.964861	0.643023	0.666732
N85	N	0.320820	-0.075920	0.000059
N86	N	0.654154	0.257414	0.333392
N87	N	0.987487	0.590747	0.666726
C88	C	0.284048	-0.127484	0.000052
C89	C	0.617381	0.205849	0.333386
C90	C	0.950714	0.539183	0.666719
C91	C	-0.064135	-0.019302	0.000080
C92	C	0.269198	0.314031	0.333413
C93	C	0.602532	0.647365	0.666746
C94	C	-0.123533	-0.018589	0.000075
C95	C	0.209800	0.314744	0.333408
C96	C	0.543134	0.648077	0.666742
C97	C	-0.137680	-0.122434	0.000061
C98	C	0.195653	0.210899	0.333395
C99	C	0.528986	0.544232	0.666728
C100	C	-0.078281	-0.123146	0.000062
C101	C	0.255052	0.210187	0.333395
C102	C	0.588385	0.543520	0.666729
C103	C	-0.041509	-0.071578	0.000074
C104	C	0.291824	0.261755	0.333407
C105	C	0.625158	0.595088	0.666740
C106	C	0.408784	-0.128974	0.000042
C107	C	0.742118	0.204360	0.333375
C108	C	1.075451	0.537693	0.666708
C109	C	0.468186	-0.129680	0.000034
C110	C	0.801520	0.203653	0.333368
C111	C	1.134853	0.536986	0.666701
C112	C	0.482329	-0.025836	0.000051
C113	C	0.815662	0.307497	0.333384
C114	C	1.148995	0.640831	0.666718
C115	C	0.422932	-0.025129	0.000055
C116	C	0.756265	0.308204	0.333389
C117	C	1.089598	0.641538	0.666722
C118	C	0.386160	-0.076702	0.000052
C119	C	0.719494	0.256631	0.333386
C120	C	1.052827	0.589964	0.666719
O121	O	0.334974	0.020119	0.000052
O122	O	0.668307	0.353453	0.333385
O123	O	1.001640	0.686786	0.666719
O124	O	0.308755	-0.172007	0.000054
O125	O	0.642089	0.161326	0.333387
O126	O	0.975422	0.494660	0.666721
C127	C	0.677071	0.030013	0.000072
C128	C	1.010404	0.363346	0.333405
C129	C	1.343738	0.696679	0.666738
C130	C	0.676305	0.093230	0.000076
C131	C	1.009638	0.426563	0.333409
C132	C	1.342972	0.759896	0.666743
C133	C	0.776472	-0.069388	0.000069
C134	C	1.109805	0.263945	0.333402
C135	C	1.443138	0.597278	0.666735
C136	C	0.839689	-0.070154	0.000071
C137	C	1.173022	0.263179	0.333405
C138	C	1.506355	0.596513	0.666738
C139	C	0.667577	-0.178283	0.000045
C140	C	1.000910	0.155051	0.333378
C141	C	1.334244	0.488384	0.666711
C142	C	0.668343	-0.241500	0.000036
C143	C	1.001676	0.091833	0.333370
C144	C	1.335010	0.425167	0.666703
N145	N	0.672304	-0.074155	0.153314
N146	N	1.005637	0.259179	0.486647
N147	N	1.338971	0.592512	0.819981
C148	C	0.723539	0.492333	0.000049
C149	C	1.056872	0.825666	0.333382
C150	C	1.390205	1.158999	0.666716
C151	C	0.722827	0.551733	0.000044
C152	C	1.056160	0.885066	0.333378
C153	C	1.389494	1.218400	0.666711
O154	O	0.766613	0.588478	0.000027
O155	O	1.099946	0.921811	0.333361
O156	O	1.433280	1.255144	0.666694
N157	N	0.670551	0.574359	0.000039
N158	N	1.003884	0.907693	0.333372
N159	N	1.337217	1.241026	0.666706
C160	C	0.618983	0.537582	0.000032
C161	C	0.952316	0.870915	0.333366
C162	C	1.285649	1.204248	0.666699
O163	O	0.574452	0.562281	0.000027
O164	O	0.907785	0.895615	0.333360
O165	O	1.241119	1.228948	0.666693
C166	C	0.619695	0.478182	0.000033
C167	C	0.953028	0.811516	0.333366
C168	C	1.286361	1.144849	0.666699
C169	C	0.671974	0.455560	0.000044
C170	C	1.005308	0.788893	0.333377
C171	C	1.338641	1.122227	0.666711
C172	C	0.775814	0.469710	0.000060
C173	C	1.109147	0.803043	0.333393
C174	C	1.442481	1.136376	0.666726
C175	C	0.776525	0.410313	0.000065
C176	C	1.109859	0.743647	0.333399
C177	C	1.443192	1.076980	0.666732
C178	C	0.724961	0.373540	0.000060
C179	C	1.058294	0.706874	0.333394
C180	C	1.391628	1.040207	0.666727
C181	C	0.672685	0.396164	0.000050
C182	C	1.006019	0.729497	0.333383
C183	C	1.339352	1.062830	0.666716
C184	C	0.568127	0.441406	0.000022
C185	C	0.901460	0.774739	0.333355
C186	C	1.234794	1.108073	0.666688
C187	C	0.568844	0.382004	0.000021
C188	C	0.902177	0.715337	0.333355
C189	C	1.235510	1.048670	0.666688
C190	C	0.621123	0.359381	0.000033
C191	C	0.954457	0.692714	0.333366
C192	C	1.287790	1.026048	0.666699
C193	C	0.621832	0.299995	0.000050
C194	C	0.955166	0.633328	0.333384
C195	C	1.288499	0.966661	0.666717
N196	N	0.674109	0.277368	0.000056
N197	N	1.007442	0.610702	0.333389
N198	N	1.340775	0.944035	0.666722
C199	C	0.725673	0.314141	0.000061
C200	C	1.059006	0.647475	0.333394
C201	C	1.392340	0.980808	0.666727
C202	C	0.617491	0.662324	0.000031
C203	C	0.950824	0.995657	0.333364
C204	C	1.284158	1.328991	0.666697
C205	C	0.616778	0.721722	0.000034
C206	C	0.950112	1.055055	0.333368
C207	C	1.283445	1.388389	0.666701
C208	C	0.720623	0.735869	0.000045
C209	C	1.053957	1.069203	0.333379
C210	C	1.387290	1.402536	0.666712
C211	C	0.721335	0.676470	0.000046
C212	C	1.054669	1.009804	0.333379
C213	C	1.388002	1.343137	0.666712
C214	C	0.669767	0.639698	0.000036
C215	C	1.003101	0.973031	0.333369
C216	C	1.336434	1.306365	0.666702
C217	C	0.727163	0.189405	0.000073
C218	C	1.060496	0.522738	0.333406
C219	C	1.393829	0.856071	0.666740
C220	C	0.727869	0.130003	0.000081
C221	C	1.061203	0.463336	0.333414
C222	C	1.394536	0.796669	0.666748
C223	C	0.624025	0.115860	0.000067
C224	C	0.957358	0.449194	0.333400
C225	C	1.290692	0.782527	0.666734
C226	C	0.623318	0.175257	0.000062
C227	C	0.956651	0.508591	0.333395
C228	C	1.289985	0.841924	0.666729
C229	C	0.674891	0.212029	0.000063
C230	C	1.008225	0.545362	0.333396
C231	C	1.341558	0.878695	0.666730
O232	O	0.578070	0.263215	0.000065
O233	O	0.911403	0.596549	0.333398
O234	O	1.244736	0.929882	0.666732
O235	O	0.770196	0.289433	0.000058
O236	O	1.103529	0.622767	0.333392
O237	O	1.436863	0.956100	0.666725
N238	N	0.672349	-0.074111	-0.153196
N239	N	1.005682	0.259222	0.180137
N240	N	1.339015	0.592556	0.513470
C241	C	0.711273	-0.035196	0.561965
C242	C	1.044606	0.298138	0.895298
C243	C	1.377940	0.631471	1.228631
C244	C	0.711276	-0.035192	0.623884
C245	C	1.044609	0.298142	0.957218
C246	C	1.377942	0.631475	1.290551
O247	O	0.744384	-0.002076	0.655911
O248	O	1.077718	0.331258	0.989244
O249	O	1.411051	0.664591	1.322578
N250	N	0.672334	-0.074115	0.654851
N251	N	1.005667	0.259219	0.988185
N252	N	1.339001	0.592552	1.321518
C253	C	0.633383	-0.113041	0.623895
C254	C	0.966716	0.220292	0.957228
C255	C	1.300049	0.553626	1.290562
O256	O	0.600259	-0.146147	0.655920
O257	O	0.933593	0.187186	0.989254
O258	O	1.266926	0.520519	1.322587
C259	C	0.633377	-0.113042	0.561976
C260	C	0.966711	0.220291	0.895309
C261	C	1.300044	0.553625	1.228643
C262	C	0.672326	-0.074120	0.531013
C263	C	1.005659	0.259213	0.864346
C264	C	1.338992	0.592547	1.197679
C265	C	0.750218	0.003724	0.531001
C266	C	1.083551	0.337057	0.864334
C267	C	1.416884	0.670390	1.197668
C268	C	0.750215	0.003719	0.469085
C269	C	1.083549	0.337052	0.802419
C270	C	1.416882	0.670385	1.135752
C271	C	0.711268	-0.035206	0.438133
C272	C	1.044601	0.298128	0.771467
C273	C	1.377935	0.631461	1.104800
C274	C	0.672323	-0.074125	0.469097
C275	C	1.005657	0.259208	0.802430
C276	C	1.338990	0.592542	1.135764
C277	C	0.594424	-0.151965	0.531021
C278	C	0.927757	0.181369	0.864354
C279	C	1.261091	0.514702	1.197688
C280	C	0.594422	-0.151962	0.469098
C281	C	0.927755	0.181371	0.802431
C282	C	1.261089	0.514705	1.135765
C283	C	0.633370	-0.113040	0.438134
C284	C	0.966704	0.220293	0.771468
C285	C	1.300037	0.553626	1.104801
C286	C	0.633374	-0.113054	0.376229
C287	C	0.966707	0.220279	0.709563
C288	C	1.300041	0.553613	1.042896
N289	N	0.672316	-0.074131	0.345262
N290	N	1.005649	0.259202	0.678596
N291	N	1.338983	0.592536	1.011929
C292	C	0.711263	-0.035207	0.376214
C293	C	1.044596	0.298127	0.709548
C294	C	1.377930	0.631460	1.042881
C295	C	0.633396	-0.113035	0.753928
C296	C	0.966729	0.220298	1.087262
C297	C	1.300063	0.553631	1.420595
C298	C	0.633403	-0.113037	0.815846
C299	C	0.966737	0.220296	1.149179
C300	C	1.300070	0.553629	1.482513
C301	C	0.711296	-0.035187	0.815831
C302	C	1.044629	0.298146	1.149165
C303	C	1.377962	0.631479	1.482498
C304	C	0.711291	-0.035188	0.753913
C305	C	1.044624	0.298145	1.087246
C306	C	1.377957	0.631479	1.420579
C307	C	0.672338	-0.074112	0.722962
C308	C	1.005671	0.259221	1.056295
C309	C	1.339004	0.592555	1.389628
C310	C	0.711255	-0.035220	0.246187
C311	C	1.044589	0.298113	0.579520
C312	C	1.377922	0.631446	0.912854
C313	C	0.711251	-0.035230	0.184266
C314	C	1.044584	0.298103	0.517599
C315	C	1.377918	0.631436	0.850933
C316	C	0.633357	-0.113078	0.184286
C317	C	0.966690	0.220255	0.517619
C318	C	1.300023	0.553588	0.850953
C319	C	0.633363	-0.113071	0.246202
C320	C	0.966696	0.220263	0.579535
C321	C	1.300029	0.553596	0.912869
C322	C	0.672314	-0.074137	0.277151
C323	C	1.005648	0.259196	0.610484
C324	C	1.338981	0.592530	0.943818
O325	O	0.600281	-0.146152	0.344163
O326	O	0.933614	0.187182	0.677497
O327	O	1.266948	0.520515	1.010830
O328	O	0.744376	-0.002101	0.344182
O329	O	1.077709	0.331233	0.677515
O330	O	1.411042	0.664566	1.010848
H331	H	0.404512	0.017441	0.000056
H332	H	0.737845	0.350775	0.333390
H333	H	1.071178	0.684108	0.666723
H334	H	0.743008	-0.003492	0.841044
H335	H	1.076341	0.329841	1.174377
H336	H	1.409675	0.663175	1.507710
H337	H	0.601694	-0.144737	0.841052
H338	H	0.935027	0.188596	1.174386
H339	H	1.268361	0.521930	1.507719
H340	H	0.781929	0.035414	0.443878
H341	H	1.115262	0.368747	0.777212
H342	H	1.448595	0.702080	1.110545
C343	C	0.551575	-0.194782	0.435055
C344	C	0.884909	0.138551	0.768389
C345	C	1.218242	0.471884	1.101722
H346	H	0.528386	-0.217963	0.462368
H347	H	0.861719	0.115371	0.795701
H348	H	1.195053	0.448704	1.129035
H349	H	0.527985	-0.174419	0.410900
H350	H	0.861318	0.158915	0.744234
H351	H	1.194651	0.492248	1.077567
H352	H	0.571927	-0.218392	0.410903
H353	H	0.905261	0.114941	0.744236
H354	H	1.238594	0.448274	1.077569
H355	H	0.819097	0.391900	0.000072
H356	H	1.152430	0.725233	0.333405
H357	H	1.485763	1.058567	0.666739
C358	C	0.590553	-0.155862	0.719888
C359	C	0.923886	0.177471	1.053221
C360	C	1.257219	0.510805	1.386554
H361	H	0.567367	-0.179044	0.747202
H362	H	0.900701	0.154290	1.080536
H363	H	1.234034	0.487623	1.413869
H364	H	0.566957	-0.135502	0.695734
H365	H	0.900291	0.197832	1.029067
H366	H	1.233624	0.531165	1.362401
H367	H	0.610905	-0.179470	0.695734
H368	H	0.944239	0.153863	1.029067
H369	H	1.277572	0.487197	1.362400
H370	H	0.781933	0.035423	0.556197
H371	H	1.115266	0.368756	0.889530
H372	H	1.448600	0.702090	1.222863
C373	C	0.832540	0.510151	0.000070
C374	C	1.165873	0.843485	0.333403
C375	C	1.499207	1.176818	0.666736
H376	H	0.863770	0.488162	0.000081
H377	H	1.197103	0.821495	0.333414
H378	H	1.530437	1.154829	0.666747
H379	H	0.834436	0.533621	-0.034231
H380	H	1.167770	0.866955	0.299102
H381	H	1.501103	1.200288	0.632436
H382	H	0.834415	0.533613	0.034380
H383	H	1.167749	0.866946	0.367714
H384	H	1.501082	1.200280	0.701047
H385	H	0.486602	-0.172255	0.000024
H386	H	0.819935	0.161079	0.333357
H387	H	1.153269	0.494412	0.666691
H388	H	0.526850	0.352066	0.000013
H389	H	0.860183	0.685399	0.333346
H390	H	1.193516	1.018732	0.666679
C391	C	0.777345	0.776325	0.000046
C392	C	1.110678	1.109658	0.333380
C393	C	1.444012	1.442991	0.666713
H394	H	0.808585	0.754348	0.000055
H395	H	1.141918	1.087681	0.333388
H396	H	1.475251	1.421014	0.666722
H397	H	0.779227	0.799789	-0.034258
H398	H	1.112561	1.133123	0.299075
H399	H	1.445894	1.466456	0.632409
H400	H	0.779218	0.799791	0.034353
H401	H	1.112551	1.133124	0.367687
H402	H	1.445885	1.466458	0.701020
H403	H	0.742973	-0.003516	0.271379
H404	H	1.076306	0.329817	0.604712
H405	H	1.409639	0.663150	0.938046
C406	C	0.212753	-0.235844	0.000043
C407	C	0.546086	0.097489	0.333376
C408	C	0.879420	0.430822	0.666710
H409	H	0.182339	-0.266448	0.000047
H410	H	0.515672	0.066886	0.333380
H411	H	0.849005	0.400219	0.666713
H412	H	0.235634	-0.238286	-0.034258
H413	H	0.568967	0.095048	0.299075
H414	H	0.902300	0.428381	0.632408
H415	H	0.235625	-0.238283	0.034353
H416	H	0.568958	0.095050	0.367686
H417	H	0.902292	0.428383	0.701020
H418	H	0.575496	0.632386	0.000028
H419	H	0.908829	0.965720	0.333361
H420	H	1.242162	1.299053	0.666694
C421	C	0.559271	0.746601	0.000027
C422	C	0.892604	1.079934	0.333360
C423	C	1.225938	1.413267	0.666693
H424	H	0.528666	0.716188	0.000020
H425	H	0.861999	1.049521	0.333354
H426	H	1.195333	1.382855	0.666687
H427	H	0.556825	0.769481	0.034327
H428	H	0.890158	1.102814	0.367660
H429	H	1.223491	1.436148	0.700993
H430	H	0.556839	0.769473	-0.034285
H431	H	0.890173	1.102807	0.299049
H432	H	1.223506	1.436140	0.632382
C433	C	-0.178138	-0.179155	0.000059
C434	C	0.155195	0.154179	0.333392
C435	C	0.488528	0.487512	0.666726
H436	H	-0.216753	-0.171239	0.000067
H437	H	0.116581	0.162094	0.333400
H438	H	0.449914	0.495428	0.666734
H439	H	-0.171314	-0.200604	-0.034246
H440	H	0.162019	0.132729	0.299087
H441	H	0.495353	0.466062	0.632421
H442	H	-0.171314	-0.200607	0.034365
H443	H	0.162020	0.132726	0.367699
H444	H	0.495353	0.466059	0.701032
C445	C	-0.148412	0.038918	0.000083
C446	C	0.184922	0.372251	0.333416
C447	C	0.518255	0.705585	0.666749
H448	H	-0.117999	0.069523	0.000090
H449	H	0.215334	0.402856	0.333423
H450	H	0.548668	0.736189	0.666757
H451	H	-0.171290	0.041363	-0.034218
H452	H	0.162044	0.374696	0.299115
H453	H	0.495377	0.708029	0.632449
H454	H	-0.171287	0.041351	0.034393
H455	H	0.162046	0.374684	0.367727
H456	H	0.495380	0.708018	0.701060
H457	H	0.763906	0.658056	0.000054
H458	H	1.097239	0.991389	0.333388
H459	H	1.430573	1.324722	0.666721
H460	H	-0.034198	0.022693	0.000084
H461	H	0.299136	0.356027	0.333417
H462	H	0.632469	0.689360	0.666751
C463	C	0.754102	0.007577	0.150207
C464	C	1.087435	0.340910	0.483540
C465	C	1.420769	0.674244	0.816873
H466	H	0.748531	0.001996	0.108896
H467	H	1.081864	0.335329	0.442230
H468	H	1.415198	0.668663	0.775563
H469	H	0.748144	0.045560	0.160349
H470	H	1.081477	0.378893	0.493682
H471	H	1.414811	0.712227	0.827015
H472	H	0.792072	0.001572	0.160358
H473	H	1.125405	0.334905	0.493692
H474	H	1.458739	0.668239	0.827025
C475	C	0.590500	-0.155862	0.280263
C476	C	0.923833	0.177471	0.613596
C477	C	1.257166	0.510805	0.946930
H478	H	0.567296	-0.179035	0.252959
H479	H	0.900629	0.154298	0.586292
H480	H	1.233962	0.487631	0.919625
H481	H	0.610822	-0.179474	0.304436
H482	H	0.944156	0.153859	0.637769
H483	H	1.277489	0.487193	0.971102
H484	H	0.566918	-0.135462	0.304399
H485	H	0.900252	0.197871	0.637733
H486	H	1.233585	0.531204	0.971066
H487	H	0.525555	0.459814	0.000009
H488	H	0.858889	0.793148	0.333342
H489	H	1.192222	1.126481	0.666675
C490	C	0.088038	-0.234351	0.000037
C491	C	0.421371	0.098982	0.333371
C492	C	0.754704	0.432316	0.666704
H493	H	0.110027	-0.265581	0.000026
H494	H	0.443360	0.067752	0.333359
H495	H	0.776694	0.401086	0.666693
H496	H	0.064565	-0.236247	0.034338
H497	H	0.397899	0.097087	0.367671
H498	H	0.731232	0.430420	0.701004
H499	H	0.064578	-0.236227	-0.034274
H500	H	0.397912	0.097106	0.299060
H501	H	0.731245	0.430439	0.632393
C502	C	0.567309	0.075403	0.000058
C503	C	0.900642	0.408737	0.333391
C504	C	1.233975	0.742070	0.666725
H505	H	0.575224	0.036789	0.000056
H506	H	0.908558	0.370122	0.333389
H507	H	1.241891	0.703455	0.666722
H508	H	0.545846	0.082227	0.034355
H509	H	0.879180	0.415560	0.367689
H510	H	1.212513	0.748893	0.701022
H511	H	0.545869	0.082229	-0.034256
H512	H	0.879202	0.415562	0.299077
H513	H	1.212535	0.748895	0.632411
C514	C	0.785378	0.105118	0.000094
C515	C	1.118711	0.438452	0.333427
C516	C	1.452044	0.771785	0.666761
H517	H	0.778420	0.064475	0.000103
H518	H	1.111753	0.397809	0.333436
H519	H	1.445086	0.731142	0.666769
H520	H	0.806602	0.117758	-0.034207
H521	H	1.139935	0.451091	0.299127
H522	H	1.473268	0.784425	0.632460
H523	H	0.806586	0.117765	0.034405
H524	H	1.139919	0.451098	0.367738
H525	H	1.473252	0.784431	0.701071
C526	C	0.522783	0.030882	0.000055
C527	C	0.856117	0.364215	0.333389
C528	C	1.189450	0.697548	0.666722
H529	H	0.500806	0.062121	0.000057
H530	H	0.834139	0.395455	0.333391
H531	H	1.167473	0.728788	0.666724
H532	H	0.546249	0.032755	0.034357
H533	H	0.879583	0.366088	0.367690
H534	H	1.212916	0.699422	0.701024
H535	H	0.546248	0.032764	-0.034254
H536	H	0.879581	0.366097	0.299079
H537	H	1.212914	0.699430	0.632412
C538	C	0.754129	0.007630	0.719858
C539	C	1.087462	0.340963	1.053192
C540	C	1.420796	0.674296	1.386525
H541	H	0.777321	0.030812	0.747166
H542	H	1.110654	0.364145	1.080499
H543	H	1.443988	0.697478	1.413832
H544	H	0.777717	-0.012734	0.695698
H545	H	1.111051	0.320600	1.029031
H546	H	1.444384	0.653933	1.362364
H547	H	0.733773	0.031238	0.695710
H548	H	1.067107	0.364571	1.029043
H549	H	1.400440	0.697905	1.362377
H550	H	0.580748	0.193677	0.000069
H551	H	0.914081	0.527011	0.333403
H552	H	1.247414	0.860344	0.666736
H553	H	0.138375	0.072634	0.000103
H554	H	0.471708	0.405967	0.333437
H555	H	0.805041	0.739300	0.666770
C556	C	0.551578	-0.194776	0.565070
C557	C	0.884912	0.138558	0.898403
C558	C	1.218245	0.471891	1.231737
H559	H	0.557154	-0.189209	0.606382
H560	H	0.890487	0.144125	0.939715
H561	H	1.223821	0.477458	1.273048
H562	H	0.513609	-0.188777	0.554920
H563	H	0.846942	0.144556	0.888254
H564	H	1.180276	0.477889	1.221587
H565	H	0.557545	-0.232757	0.554920
H566	H	0.890879	0.100576	0.888253
H567	H	1.224212	0.433909	1.221587
C568	C	0.368344	-0.185703	0.000031
C569	C	0.701678	0.147630	0.333364
C570	C	1.035011	0.480964	0.666697
H571	H	0.390333	-0.216934	0.000017
H572	H	0.723666	0.116399	0.333350
H573	H	1.056999	0.449732	0.666684
H574	H	0.344875	-0.187598	0.034333
H575	H	0.678208	0.145735	0.367666
H576	H	1.011541	0.479068	0.701000
H577	H	0.344883	-0.187578	-0.034278
H578	H	0.678216	0.145755	0.299055
H579	H	1.011549	0.479089	0.632388
C580	C	-0.053402	-0.180653	0.000054
C581	C	0.279932	0.152680	0.333387
C582	C	0.613265	0.486014	0.666720
H583	H	-0.083814	-0.211258	0.000052
H584	H	0.249519	0.122075	0.333386
H585	H	0.582852	0.455409	0.666719
H586	H	-0.030520	-0.183088	-0.034248
H587	H	0.302813	0.150245	0.299085
H588	H	0.636146	0.483578	0.632418
H589	H	-0.030530	-0.183096	0.034363
H590	H	0.302803	0.150237	0.367696
H591	H	0.636137	0.483571	0.701030
C592	C	0.590517	-0.155892	0.150234
C593	C	0.923850	0.177441	0.483567
C594	C	1.257184	0.510774	0.816900
H595	H	0.567323	-0.179077	0.177539
H596	H	0.900656	0.154257	0.510873
H597	H	1.233989	0.487590	0.844206
H598	H	0.566931	-0.135522	0.126080
H599	H	0.900264	0.197811	0.459414
H600	H	1.233598	0.531145	0.792747
H601	H	0.610870	-0.179499	0.126078
H602	H	0.944203	0.153834	0.459412
H603	H	1.277536	0.487167	0.792745
C604	C	0.256634	0.086070	0.000105
C605	C	0.589968	0.419403	0.333439
C606	C	0.923301	0.752737	0.666772
H607	H	0.295252	0.078163	0.000106
H608	H	0.628585	0.411496	0.333439
H609	H	0.961918	0.744830	0.666773
H610	H	0.249806	0.107527	-0.034193
H611	H	0.583139	0.440860	0.299141
H612	H	0.916473	0.774194	0.632474
H613	H	0.249804	0.107511	0.034419
H614	H	0.583137	0.440845	0.367752
H615	H	0.916471	0.774178	0.701085
C616	C	0.783892	0.229845	0.000079
C617	C	1.117225	0.563178	0.333412
C618	C	1.450559	0.896511	0.666746
H619	H	0.815123	0.207856	0.000092
H620	H	1.148457	0.541190	0.333425
H621	H	1.481790	0.874523	0.666758
H622	H	0.785787	0.253311	-0.034224
H623	H	1.119120	0.586644	0.299109
H624	H	1.452453	0.919977	0.632442
H625	H	0.785768	0.253310	0.034387
H626	H	1.119101	0.586643	0.367720
H627	H	1.452435	0.919976	0.701054
