data_functionalizedCrystal
_audit_creation_method	'MofGen! by Chris Wilmer'
_symmetry_space_group_name_H-M	'P1'
_symmetry_Int_Tables_number	1
_symmetry_cell_setting	triclinic
loop_
_symmetry_equiv_pos_as_xyz
  x,y,z
_cell_length_a	12.784905
_cell_length_b	12.811415
_cell_length_c	16.176319
_cell_angle_alpha	84.562354
_cell_angle_beta	89.991820
_cell_angle_gamma	78.600455
loop_
_atom_site_label
_atom_site_type_symbol
_atom_site_fract_x
_atom_site_fract_y
_atom_site_fract_z
O1	O	1.410348	0.006576	-0.069244
O2	O	1.101092	0.051508	-0.072613
O3	O	1.263499	-0.124461	-0.059417
O4	O	1.247941	0.182545	-0.082440
O5	O	1.263477	-0.124470	0.078077
O6	O	1.101070	0.051499	0.064881
O7	O	1.410326	0.006567	0.068250
Cu8	Cu	1.255696	0.029033	0.079120
Cu9	Cu	1.255722	0.029042	-0.083483
O10	O	1.247919	0.182536	0.055054
C11	C	1.061495	0.054426	-0.004085
C12	C	0.943539	0.063121	-0.004737
C13	C	0.746370	-0.114027	0.008533
C14	C	0.635542	-0.105862	0.007921
C15	C	0.611051	0.087613	-0.006579
C16	C	0.721880	0.079449	-0.005967
C17	C	0.789536	-0.021375	0.001591
C18	C	0.900367	-0.029538	0.002209
C19	C	0.875874	0.163936	-0.012297
C20	C	0.765046	0.172101	-0.012910
C21	C	1.262616	-0.163490	0.012255
C22	C	1.260004	-0.279771	0.020970
C23	C	1.255101	-0.498251	-0.112567
C24	C	1.252647	-0.607507	-0.104382
C25	C	1.252633	-0.607538	0.045522
C26	C	1.255088	-0.498282	0.037338
C27	C	1.256323	-0.443643	-0.041709
C28	C	1.258785	-0.334387	-0.049893
C29	C	1.258764	-0.334418	0.100011
C30	C	1.256310	-0.443674	0.108196
C31	C	1.449923	0.003649	-0.000280
C32	C	1.567879	-0.005046	0.000366
C33	C	1.248802	0.221565	-0.016620
C34	C	1.251414	0.337846	-0.025340
N35	N	1.255685	0.029024	0.193485
N36	N	1.255742	0.029041	-0.197848
C37	C	1.327620	-0.048867	0.242591
C38	C	1.327626	-0.048869	0.329138
C39	C	1.255700	0.029027	0.366578
C40	C	1.183756	0.106923	0.317466
C41	C	1.183747	0.106919	0.230921
C42	C	1.183793	0.106939	0.666493
C43	C	1.183810	0.106939	0.753045
C44	C	1.327672	-0.048849	0.764710
C45	C	1.327662	-0.048853	0.678165
C46	C	1.255716	0.029039	0.629061
C47	C	1.255709	0.029039	0.535217
C48	C	1.255710	0.029033	0.460420
H49	H	1.259794	-0.289902	-0.114257
H50	H	1.255300	-0.488175	0.172554
C51	C	1.471971	-0.084961	0.583342
C52	C	1.406538	-0.134556	0.636937
H53	H	1.520612	-0.137899	0.557873
H54	H	1.429118	-0.038484	0.541773
H55	H	1.510574	-0.044881	0.614039
H56	H	1.367929	-0.174630	0.606238
H57	H	1.449397	-0.181052	0.678512
C58	C	1.160666	-0.620989	-0.231129
C59	C	1.251295	-0.667536	-0.182269
H60	H	1.159832	-0.658047	-0.279216
H61	H	1.098394	-0.625252	-0.200006
H62	H	1.162319	-0.548103	-0.247313
H63	H	1.249638	-0.740421	-0.166080
H64	H	1.313583	-0.663284	-0.213398
C65	C	1.262520	-0.166953	0.154032
C66	C	1.260104	-0.274390	0.177905
H67	H	1.263343	-0.129896	0.202120
H68	H	1.324804	-0.162701	0.122922
H69	H	1.201038	-0.135397	0.120874
H70	H	1.321590	-0.305948	0.211058
H71	H	1.197813	-0.278648	0.209029
C72	C	1.389274	-0.236149	0.805399
C73	C	1.406747	-0.134483	0.818689
H74	H	1.438095	-0.289012	0.838719
H75	H	1.318329	-0.241106	0.819970
H76	H	1.399565	-0.247281	0.748495
H77	H	1.396447	-0.123348	0.875592
H78	H	1.477709	-0.129523	0.804123
H79	H	0.709945	0.254188	-0.019066
C80	C	1.248910	-0.775048	0.124621
C81	C	1.251309	-0.667617	0.132406
H82	H	1.248110	-0.812141	0.178261
H83	H	1.186619	-0.779294	0.094168
H84	H	1.310386	-0.806573	0.096165
H85	H	1.189829	-0.636090	0.160857
H86	H	1.313607	-0.663366	0.162871
H87	H	0.955452	-0.111634	0.008364
C88	C	1.469859	-0.202836	0.331974
C89	C	1.406717	-0.134476	0.383113
H90	H	1.518694	-0.255681	0.365297
H91	H	1.425475	-0.236581	0.300766
H92	H	1.508243	-0.162605	0.295185
H93	H	1.368326	-0.174705	0.419899
H94	H	1.451106	-0.100729	0.414335
H95	H	0.555947	0.169698	-0.012743
C96	C	0.476526	-0.179254	0.013416
C97	C	0.588092	-0.207707	0.015552
H98	H	0.447235	-0.242133	0.018121
H99	H	0.453330	-0.138186	0.058283
H100	H	0.453350	-0.138160	-0.037613
H101	H	0.611268	-0.248794	0.066584
H102	H	0.611296	-0.248792	-0.029319
H103	H	1.386195	-0.112295	0.212113
H104	H	0.801458	-0.196121	0.014692
H105	H	0.911031	0.239380	-0.017946
H106	H	1.256116	-0.453765	-0.176930
H107	H	1.125235	0.170373	0.783526
C108	C	1.041599	0.260939	0.663667
C109	C	1.104719	0.192565	0.612525
H110	H	0.992785	0.313806	0.630345
H111	H	1.003200	0.220731	0.700448
H112	H	1.086008	0.294663	0.694883
H113	H	1.060311	0.158834	0.581314
H114	H	1.143121	0.232778	0.575730
C115	C	1.119898	0.176112	0.444952
C116	C	1.104695	0.192550	0.358618
H117	H	1.071093	0.228983	0.470353
H118	H	1.108052	0.107145	0.464314
H119	H	1.190859	0.181078	0.458738
H120	H	1.033737	0.187577	0.344831
H121	H	1.116534	0.261535	0.339249
H122	H	1.125168	0.170345	0.190940
