data_functionalizedCrystal
_audit_creation_method	'MofGen! by Chris Wilmer'
_symmetry_space_group_name_H-M	'P1'
_symmetry_Int_Tables_number	1
_symmetry_cell_setting	triclinic
loop_
_symmetry_equiv_pos_as_xyz
  x,y,z
_cell_length_a	10.540535
_cell_length_b	10.540539
_cell_length_c	13.448316
_cell_angle_alpha	89.995557
_cell_angle_beta	89.995644
_cell_angle_gamma	84.524567
loop_
_atom_site_label
_atom_site_type_symbol
_atom_site_fract_x
_atom_site_fract_y
_atom_site_fract_z
O1	O	1.685894	0.178876	-0.082632
O2	O	1.316481	0.195738	-0.082646
O3	O	1.509616	0.002600	-0.082638
O4	O	1.492760	0.372014	-0.082641
O5	O	1.509591	0.002588	0.082746
O6	O	1.316456	0.195726	0.082738
O7	O	1.685870	0.178864	0.082751
Cu8	Cu	1.501161	0.187294	0.097846
Cu9	Cu	1.501190	0.187308	-0.097740
O10	O	1.492735	0.372002	0.082743
C11	C	1.269165	0.194469	0.000044
C12	C	1.128217	0.190689	0.000039
C13	C	1.508339	-0.044709	0.000053
C14	C	1.504557	-0.185657	0.000047
C15	C	1.091546	0.049675	0.000044
C16	C	0.944946	0.045698	0.000429
C17	C	0.918867	0.255052	0.094309
C18	C	1.065632	0.258053	0.094378
C19	C	1.065544	0.260119	-0.093701
C20	C	0.919198	0.253597	-0.094930
C21	C	1.359640	-0.369081	-0.000329
C22	C	1.363474	-0.222463	0.000043
C23	C	1.572439	-0.247322	0.094492
C24	C	1.567624	-0.393867	0.094571
C25	C	1.570521	-0.394371	-0.093501
C26	C	1.571821	-0.247389	-0.094750
C27	C	1.733185	0.180133	0.000059
C28	C	1.874134	0.183913	0.000058
C29	C	1.494011	0.419311	0.000051
C30	C	1.497793	0.560259	0.000050
N31	N	1.501150	0.187283	0.235410
N32	N	1.501211	0.187309	-0.235304
C33	C	1.586697	0.101797	0.287454
C34	C	1.586705	0.101796	0.391557
C35	C	1.501171	0.187288	0.443614
C36	C	1.415614	0.272778	0.391563
C37	C	1.415601	0.272772	0.287462
C38	C	1.415650	0.272787	0.608543
C39	C	1.415664	0.272795	0.712652
C40	C	1.586753	0.101811	0.712639
C41	C	1.586740	0.101805	0.608537
C42	C	1.501185	0.187297	0.556493
H43	H	0.915618	-0.009939	-0.067120
H44	H	1.656414	0.032201	0.755019
N45	N	0.883336	0.188653	-0.182406
N46	N	0.924018	0.074715	-0.196212
H47	H	0.898681	0.028845	-0.257990
H48	H	1.134994	-0.003574	0.067535
N49	N	0.880100	0.193838	0.182656
N50	N	0.808103	0.254378	0.243601
H51	H	0.780725	0.211142	0.305996
N52	N	1.674014	0.014448	0.234250
N53	N	1.632954	-0.064709	0.176179
H54	H	1.694606	-0.126407	0.138593
N55	N	1.694900	-0.454059	0.099989
N56	N	1.727483	-0.525971	0.171299
H57	H	1.817370	-0.568479	0.175133
N58	N	0.857799	0.380204	-0.102355
N59	N	0.779476	0.421321	-0.037471
H60	H	0.736155	0.510763	-0.042684
N61	N	0.909249	-0.023774	0.085689
N62	N	0.992659	-0.069460	0.145098
H63	H	0.967451	-0.118527	0.205318
H64	H	1.656394	0.032198	0.566152
N65	N	1.118910	0.204991	-0.183344
N66	N	1.203790	0.113847	-0.179230
H67	H	1.241514	0.074928	-0.242535
N68	N	1.093373	0.390273	-0.094833
N69	N	1.159058	0.431866	-0.026975
H70	H	1.178715	0.523785	-0.027764
N71	N	1.674052	0.014465	0.444744
N72	N	1.753203	0.055463	0.502853
H73	H	1.814874	-0.006229	0.540427
N74	N	1.513281	-0.193907	0.182670
N75	N	1.576977	-0.137040	0.243782
H76	H	1.535191	-0.099317	0.306057
H77	H	1.088663	0.361427	0.098405
H78	H	1.309665	-0.180711	0.067854
N79	N	1.296460	-0.169020	-0.084889
N80	N	1.246523	-0.240000	-0.144853
H81	H	1.199185	-0.202262	-0.204837
N82	N	1.116003	0.197775	0.183107
N83	N	1.042728	0.153785	0.244548
H84	H	1.078296	0.111211	0.307215
N85	N	1.509661	-0.195996	-0.182416
N86	N	1.548859	-0.232852	-0.266262
H87	H	1.504971	-0.196536	-0.328177
H88	H	1.346012	0.342410	0.755032
H89	H	1.303919	-0.397675	-0.068057
H90	H	1.304125	-0.399293	0.067015
N91	N	1.504662	-0.429238	0.183135
N92	N	1.464573	-0.345730	0.244454
H93	H	1.420102	-0.370703	0.307004
N94	N	1.702413	-0.219282	0.098892
N95	N	1.746568	-0.153378	0.032312
H96	H	1.838363	-0.133573	0.035417
H97	H	1.133525	-0.004471	-0.067535
H98	H	0.871510	0.356818	0.097547
H99	H	1.674682	-0.223169	-0.100449
H100	H	1.524870	-0.425918	-0.165084
H101	H	1.672426	-0.441599	-0.094132
N102	N	1.328245	0.360117	0.555395
N103	N	1.251884	0.436447	0.601884
H104	H	1.190158	0.498127	0.564349
H105	H	1.345964	0.342383	0.433954
N106	N	1.328203	0.360097	0.234312
N107	N	1.251838	0.436422	0.280801
H108	H	1.190105	0.498096	0.243265
