data_functionalizedCrystal
_audit_creation_method	'MofGen! by Chris Wilmer'
_symmetry_space_group_name_H-M	'P1'
_symmetry_Int_Tables_number	1
_symmetry_cell_setting	triclinic
loop_
_symmetry_equiv_pos_as_xyz
  x,y,z
_cell_length_a	18.215407
_cell_length_b	19.805405
_cell_length_c	18.215399
_cell_angle_alpha	90.031029
_cell_angle_beta	90.019350
_cell_angle_gamma	90.026858
loop_
_atom_site_label
_atom_site_type_symbol
_atom_site_fract_x
_atom_site_fract_y
_atom_site_fract_z
Zn1	Zn	1.125061	-0.269459	0.416102
Zn2	Zn	1.124967	-0.382651	0.293030
Zn3	Zn	1.001994	-0.269482	0.293050
Zn4	Zn	1.001956	-0.382613	0.416055
O5	O	1.063494	-0.326051	0.354559
O6	O	1.228032	-0.284481	0.399788
O7	O	1.108631	-0.367665	0.190049
O8	O	1.018375	-0.174763	0.309401
O9	O	1.227964	-0.367642	0.309368
O10	O	1.108791	-0.174746	0.399807
O11	O	1.018284	-0.284520	0.190063
O12	O	0.899005	-0.284483	0.309355
O13	O	1.018309	-0.367577	0.519046
O14	O	0.898977	-0.367599	0.399727
O15	O	1.108754	-0.284444	0.519080
O16	O	1.108594	-0.477363	0.309322
O17	O	1.018218	-0.477334	0.399708
C18	C	0.872288	-0.326040	0.354538
C19	C	0.790489	-0.326051	0.354547
C20	C	0.602300	-0.369398	0.401544
C21	C	0.525441	-0.369400	0.401553
C22	C	0.525441	-0.282717	0.307591
C23	C	0.602298	-0.282712	0.307586
C24	C	0.640726	-0.326056	0.354561
C25	C	0.487010	-0.326063	0.354575
C26	C	0.403676	-0.326065	0.354585
C27	C	0.724065	-0.326054	0.354553
C28	C	1.063412	-0.501907	0.354524
C29	C	1.063443	-0.577139	0.354533
C30	C	1.110548	-0.612476	0.307518
C31	C	1.110579	-0.683164	0.307535
C32	C	1.063502	-0.718515	0.354562
C33	C	1.016395	-0.683173	0.401582
C34	C	1.016368	-0.612486	0.401569
C35	C	1.016504	-0.968247	0.401637
C36	C	1.016533	-1.038939	0.401645
C37	C	1.110715	-1.038924	0.307602
C38	C	1.110688	-0.968237	0.307589
C39	C	1.063584	-0.932902	0.354611
C40	C	1.063552	-0.856254	0.354594
C41	C	1.063530	-0.795162	0.354577
C42	C	1.255447	-0.326063	0.354581
C43	C	1.337246	-0.326069	0.354590
C44	C	1.063538	-0.326003	0.546512
C45	C	1.063556	-0.325983	0.628311
C46	C	1.063598	-0.149508	0.354611
C47	C	1.063642	-0.074276	0.354633
C48	C	1.063494	-0.326050	0.163353
C49	C	1.063618	-0.325880	0.081555
C50	C	1.110678	-0.282637	0.893388
C51	C	1.110669	-0.282655	0.816529
C52	C	1.016494	-0.369231	0.816483
C53	C	1.016507	-0.369215	0.893340
C54	C	1.063598	-0.325915	0.931791
C55	C	1.063576	-0.325948	0.778075
C56	C	1.063566	-0.325968	0.694741
C57	C	1.063609	-0.325895	1.015130
H58	H	0.494158	-0.404692	0.439812
C59	C	0.964714	-0.416874	0.774189
H60	H	0.936688	-0.442657	0.808070
H61	H	0.932650	-0.391008	0.744199
H62	H	0.992871	-0.446367	0.744213
C63	C	0.483168	-0.235050	0.255914
H64	H	0.431891	-0.241265	0.262639
H65	H	0.495786	-0.189583	0.266767
H66	H	0.495743	-0.244906	0.206446
C67	C	1.162453	-0.235046	0.774289
H68	H	1.190494	-0.209254	0.808199
H69	H	1.194503	-0.260941	0.744304
H70	H	1.134305	-0.205560	0.744314
C71	C	1.162335	-0.573596	0.255788
H72	H	1.190397	-0.604768	0.227796
H73	H	1.134195	-0.546062	0.223690
H74	H	1.194376	-0.545980	0.283970
H75	H	0.633585	-0.247414	0.269327
C76	C	0.964722	-0.416825	0.935590
H77	H	0.971483	-0.410620	0.986870
H78	H	0.915276	-0.406929	0.922995
H79	H	0.975477	-0.462306	0.922978
C80	C	0.644568	-0.417068	0.453222
H81	H	0.610672	-0.442876	0.481209
H82	H	0.674527	-0.446526	0.425015
H83	H	0.674572	-0.391205	0.485337
C84	C	0.964680	-0.929387	0.453346
H85	H	0.936639	-0.960566	0.481346
H86	H	0.992792	-0.901766	0.485438
H87	H	0.932619	-0.901859	0.425149
C88	C	1.162390	-0.722031	0.255815
H89	H	1.190416	-0.690854	0.227798
H90	H	1.194453	-0.749564	0.283997
H91	H	1.134261	-0.749648	0.223728
H92	H	1.149020	-0.939457	0.269292
C93	C	1.162533	-1.077795	0.255883
H94	H	1.155815	-1.124957	0.262629
H95	H	1.151785	-1.066250	0.206425
H96	H	1.211972	-1.066164	0.266699
H97	H	0.978198	-1.067719	0.439946
C98	C	1.162481	-0.235017	0.935685
H99	H	1.155743	-0.241200	0.986959
H100	H	1.211919	-0.244927	0.923093
H101	H	1.151730	-0.189539	0.923103
C102	C	0.964612	-0.722054	0.453316
H103	H	0.936560	-0.690883	0.481319
H104	H	0.932573	-0.749673	0.425142
H105	H	0.992762	-0.749586	0.485414
C106	C	0.964555	-0.573616	0.453286
H107	H	0.936517	-0.604793	0.481293
H108	H	0.992681	-0.546001	0.485371
H109	H	0.932491	-0.546083	0.425099
