data_functionalizedCrystal
_audit_creation_method	'MofGen! by Chris Wilmer'
_symmetry_space_group_name_H-M	'P1'
_symmetry_Int_Tables_number	1
_symmetry_cell_setting	triclinic
loop_
_symmetry_equiv_pos_as_xyz
  x,y,z
_cell_length_a	14.044191
_cell_length_b	10.654550
_cell_length_c	9.130313
_cell_angle_alpha	89.995693
_cell_angle_beta	89.998197
_cell_angle_gamma	91.161660
loop_
_atom_site_label
_atom_site_type_symbol
_atom_site_fract_x
_atom_site_fract_y
_atom_site_fract_z
O1	O	1.259695	-0.303030	0.121721
O2	O	0.983654	-0.292087	0.121740
O3	O	1.128021	-0.115457	0.121725
O4	O	1.115328	-0.479660	0.121736
O5	O	1.128019	-0.115447	-0.121874
O6	O	0.983652	-0.292077	-0.121859
O7	O	1.259693	-0.303020	-0.121878
Cu8	Cu	1.121672	-0.297547	-0.144111
Cu9	Cu	1.121675	-0.297559	0.143973
O10	O	1.115326	-0.479649	-0.121862
C11	C	1.127088	-0.068560	-0.000073
C12	C	1.124300	0.071163	-0.000068
C13	C	0.948307	-0.287295	-0.000057
C14	C	0.842987	-0.273016	-0.000050
C15	C	0.593195	-0.348181	-0.000062
C16	C	0.650158	-0.246931	-0.000063
C17	C	0.757458	-0.261448	-0.000056
C18	C	0.485885	-0.333666	-0.000069
C19	C	1.295040	-0.307812	-0.000077
C20	C	1.400360	-0.322091	-0.000075
C21	C	1.116259	-0.526546	-0.000062
C22	C	1.119047	-0.666270	-0.000057
N23	N	1.121677	-0.297559	0.346596
C24	C	1.209301	0.142104	-0.000078
C25	C	1.206675	0.273389	-0.000067
C26	C	1.034039	0.262779	-0.000043
C27	C	1.036666	0.131497	-0.000043
C28	C	1.296934	0.081770	-0.000103
C29	C	1.381943	0.152712	-0.000115
C30	C	1.379317	0.283997	-0.000104
C31	C	1.291683	0.344340	-0.000082
N32	N	1.121677	-0.297539	-0.346733
C33	C	1.185723	-0.219526	0.423241
C34	C	1.185726	-0.219519	0.576578
C35	C	1.057628	-0.375581	0.576611
C36	C	1.057631	-0.375593	0.423277
C37	C	1.249769	-0.141491	0.346560
C38	C	1.313820	-0.063451	0.423205
C39	C	1.313823	-0.063444	0.576542
C40	C	1.249775	-0.141477	0.653234
H41	H	0.618341	-0.149345	0.000037
H42	H	1.299082	-0.025128	-0.000116
Cl43	Cl	1.492105	0.076854	-0.000123
Cl44	Cl	0.642315	-0.498838	-0.000039
Cl45	Cl	1.249791	-0.141473	0.846002
Cl46	Cl	1.486182	0.373177	-0.000104
Cl47	Cl	1.288385	0.509385	-0.000134
H48	H	1.005482	-0.439111	0.639063
Cl49	Cl	1.394348	0.034651	0.672895
Cl50	Cl	0.923879	0.338641	-0.000019
H51	H	0.967451	0.073735	-0.000036
Cl52	Cl	1.249765	-0.141492	0.153794
H53	H	1.365970	0.000074	0.360755
H54	H	1.005479	-0.439136	0.360871
