data_functionalizedCrystal
_audit_creation_method	'MofGen! by Chris Wilmer'
_symmetry_space_group_name_H-M	'P1'
_symmetry_Int_Tables_number	1
_symmetry_cell_setting	triclinic
loop_
_symmetry_equiv_pos_as_xyz
  x,y,z
_cell_length_a	16.625545
_cell_length_b	25.639242
_cell_length_c	16.625539
_cell_angle_alpha	90.030785
_cell_angle_beta	89.971893
_cell_angle_gamma	89.979416
loop_
_atom_site_label
_atom_site_type_symbol
_atom_site_fract_x
_atom_site_fract_y
_atom_site_fract_z
Zn1	Zn	-0.321107	-0.799310	-0.456130
Zn2	Zn	-0.455950	-0.799242	-0.321298
Zn3	Zn	-0.321124	-0.711875	-0.321287
Zn4	Zn	-0.455890	-0.711851	-0.456064
O5	O	-0.388518	-0.755570	-0.388695
O6	O	-0.339013	-0.872466	-0.438277
O7	O	-0.438097	-0.787635	-0.208464
O8	O	-0.208289	-0.723512	-0.339197
O9	O	-0.438081	-0.872417	-0.339216
O10	O	-0.208277	-0.787750	-0.438266
O11	O	-0.339041	-0.723446	-0.208456
O12	O	-0.338982	-0.638707	-0.339133
O13	O	-0.437978	-0.723471	-0.568905
O14	O	-0.437994	-0.638689	-0.438153
O15	O	-0.338954	-0.787727	-0.568954
O16	O	-0.568775	-0.787612	-0.339152
O17	O	-0.568730	-0.723406	-0.438164
C18	C	-0.388484	-0.619727	-0.388635
C19	C	-0.388489	-0.561613	-0.388628
C20	C	-0.598009	-0.755513	-0.388669
C21	C	-0.687630	-0.755536	-0.388685
C22	C	-0.440152	-0.201250	-0.440184
C23	C	-0.440156	-0.146646	-0.440195
O24	O	-0.484046	-0.118409	-0.483994
N25	N	-0.388531	-0.119331	-0.388723
C26	C	-0.336893	-0.146623	-0.337242
O27	O	-0.292982	-0.118376	-0.293463
C28	C	-0.336885	-0.201226	-0.337237
C29	C	-0.388519	-0.228538	-0.388706
C30	C	-0.491781	-0.228562	-0.491650
C31	C	-0.491778	-0.283162	-0.491638
C32	C	-0.440145	-0.310451	-0.440160
C33	C	-0.388516	-0.283139	-0.388694
C34	C	-0.285244	-0.228518	-0.285761
C35	C	-0.285240	-0.283125	-0.285760
C36	C	-0.336874	-0.310437	-0.337229
C37	C	-0.336880	-0.365028	-0.337204
N38	N	-0.388505	-0.392343	-0.388676
C39	C	-0.440138	-0.365054	-0.440154
C40	C	-0.336912	-0.031952	-0.337260
C41	C	-0.336923	0.022650	-0.337261
C42	C	-0.440185	0.022624	-0.440215
C43	C	-0.440178	-0.031980	-0.440209
C44	C	-0.388537	-0.059267	-0.388732
C45	C	-0.440127	-0.479719	-0.440125
C46	C	-0.440122	-0.534325	-0.440106
C47	C	-0.336857	-0.534294	-0.337156
C48	C	-0.336865	-0.479693	-0.337171
C49	C	-0.388503	-0.452407	-0.388663
O50	O	-0.293010	-0.393299	-0.293430
O51	O	-0.484034	-0.393308	-0.483934
C52	C	-0.760412	-0.755557	-0.388701
C53	C	-0.851720	-0.755587	-0.388719
C54	C	-0.924497	-0.755614	-0.388729
C55	C	-1.015811	-0.755644	-0.388746
C56	C	-0.178209	-0.755641	-0.388738
C57	C	-0.088588	-0.755671	-0.388756
C58	C	-0.388458	-0.755604	-0.599004
C59	C	-0.388432	-0.755618	-0.688625
C60	C	-0.388549	0.108057	-0.388746
C61	C	-0.388553	0.049943	-0.388743
C62	C	-0.388342	-0.755642	-1.016801
C63	C	-0.388369	-0.755634	-0.925492
C64	C	-0.388387	-0.755631	-0.852716
C65	C	-0.388414	-0.755622	-0.761401
C66	C	-0.388519	-0.755566	-0.179204
C67	C	-0.388318	-0.755653	-0.089583
H68	H	-0.482171	-0.556560	-0.482020
H69	H	-0.482174	-0.457510	-0.482056
O70	O	-0.229539	-0.312553	-0.230234
H71	H	-0.238200	-0.355111	-0.238873
O72	O	-0.281189	-0.450243	-0.281631
H73	H	-0.317236	-0.425348	-0.240546
O74	O	-0.281164	-0.563730	-0.281638
H75	H	-0.289834	-0.606287	-0.290290
O76	O	-0.495858	-0.061431	-0.495739
H77	H	-0.459812	-0.086327	-0.536821
O78	O	-0.281220	-0.061385	-0.281727
H79	H	-0.317256	-0.086241	-0.240644
H80	H	-0.243200	-0.206289	-0.243847
H81	H	-0.533827	-0.206349	-0.533574
O82	O	-0.495917	0.052028	-0.495743
H83	H	-0.459927	0.076884	-0.536867
O84	O	-0.547457	-0.312618	-0.547164
H85	H	-0.583348	-0.284462	-0.582964
O86	O	-0.281237	0.052107	-0.281744
H87	H	-0.245332	0.023952	-0.245954
