data_functionalizedCrystal
_audit_creation_method	'MofGen! by Chris Wilmer'
_symmetry_space_group_name_H-M	'P1'
_symmetry_Int_Tables_number	1
_symmetry_cell_setting	triclinic
loop_
_symmetry_equiv_pos_as_xyz
  x,y,z
_cell_length_a	18.101398
_cell_length_b	19.120786
_cell_length_c	18.101389
_cell_angle_alpha	92.460644
_cell_angle_beta	90.009745
_cell_angle_gamma	92.461076
loop_
_atom_site_label
_atom_site_type_symbol
_atom_site_fract_x
_atom_site_fract_y
_atom_site_fract_z
Zn1	Zn	1.119565	-0.279784	0.405955
Zn2	Zn	1.452899	0.053549	0.739288
Zn3	Zn	1.786232	0.386882	1.072621
Zn4	Zn	1.114191	-0.397225	0.276826
Zn5	Zn	1.447524	-0.063892	0.610159
Zn6	Zn	1.780858	0.269441	0.943493
Zn7	Zn	0.995725	-0.279778	0.282148
Zn8	Zn	1.329058	0.053556	0.615481
Zn9	Zn	1.662391	0.386889	0.948814
Zn10	Zn	0.990406	-0.397196	0.400648
Zn11	Zn	1.323739	-0.063862	0.733981
Zn12	Zn	1.657073	0.269471	1.067314
O13	O	1.054972	-0.338496	0.341394
O14	O	1.388305	-0.005162	0.674727
O15	O	1.721638	0.328171	1.008061
O16	O	1.222485	-0.295378	0.388820
O17	O	1.555818	0.037955	0.722153
O18	O	1.889151	0.371288	1.055486
O19	O	1.098453	-0.381655	0.173899
O20	O	1.431786	-0.048322	0.507232
O21	O	1.765119	0.285012	0.840565
O22	O	1.016627	-0.181489	0.303019
O23	O	1.349961	0.151844	0.636353
O24	O	1.683294	0.485177	0.969686
O25	O	1.218536	-0.381662	0.293949
O26	O	1.551869	-0.048328	0.627283
O27	O	1.885203	0.285005	0.960616
O28	O	1.107613	-0.181494	0.393980
O29	O	1.440946	0.151839	0.727313
O30	O	1.774279	0.485173	1.060646
O31	O	1.011416	-0.295367	0.177808
O32	O	1.344749	0.037967	0.511142
O33	O	1.678083	0.371300	0.844475
O34	O	0.891387	-0.295338	0.297873
O35	O	1.224720	0.037995	0.631206
O36	O	1.558054	0.371328	0.964540
O37	O	1.007563	-0.381611	0.504985
O38	O	1.340896	-0.048278	0.838318
O39	O	1.674229	0.285055	1.171652
O40	O	0.887479	-0.381605	0.384934
O41	O	1.220813	-0.048271	0.718268
O42	O	1.554146	0.285062	1.051601
O43	O	1.102455	-0.295350	0.508884
O44	O	1.435789	0.037984	0.842217
O45	O	1.769122	0.371317	1.175551
O46	O	1.093296	-0.495511	0.288803
O47	O	1.426629	-0.162177	0.622136
O48	O	1.759962	0.171156	0.955470
O49	O	1.002351	-0.495489	0.379774
O50	O	1.335685	-0.162156	0.713107
O51	O	1.669018	0.171178	1.046441
C52	C	0.862562	-0.338468	0.341406
C53	C	1.195896	-0.005135	0.674739
C54	C	1.529229	0.328199	1.008072
C55	C	0.780248	-0.338473	0.341427
C56	C	1.113581	-0.005140	0.674761
C57	C	1.446915	0.328193	1.008094
C58	C	0.481155	-0.338515	0.341395
C59	C	0.814489	-0.005181	0.674728
C60	C	1.147822	0.328152	1.008061
C61	C	0.510035	-0.393053	0.395877
C62	C	0.843368	-0.059720	0.729210
C63	C	1.176702	0.273613	1.062544
C64	C	0.595661	-0.392883	0.396119
C65	C	0.928994	-0.059549	0.729452
C66	C	1.262328	0.273784	1.062785
C67	C	0.629539	-0.338495	0.341411
C68	C	0.962872	-0.005161	0.674744
C69	C	1.296205	0.328172	1.008078
C70	C	0.601804	-0.264518	0.366069
C71	C	0.935137	0.068815	0.699402
C72	C	1.268471	0.402149	1.032736
C73	C	0.516144	-0.264845	0.366459
C74	C	0.849478	0.068488	0.699792
C75	C	1.182811	0.401821	1.033126
C76	C	0.511860	-0.357300	0.262146
C77	C	0.845193	-0.023967	0.595479
C78	C	1.178526	0.309367	0.928813
C79	C	0.597437	-0.358923	0.262492
C80	C	0.930770	-0.025590	0.595825
C81	C	1.264103	0.307743	0.929159
C82	C	0.713399	-0.338479	0.341419
C83	C	1.046732	-0.005146	0.674752
C84	C	1.380066	0.328188	1.008086
C85	C	0.397295	-0.338525	0.341389
C86	C	0.730629	-0.005192	0.674722
C87	C	1.063962	0.328141	1.008055
C88	C	1.046683	-0.520985	0.333151
C89	C	1.380017	-0.187652	0.666485
C90	C	1.713350	0.145682	0.999818
C91	C	1.043205	-0.599055	0.329650
C92	C	1.376538	-0.265721	0.662983
C93	C	1.709872	0.067612	0.996317
C94	C	1.088907	-0.635674	0.375402
C95	C	1.422240	-0.302341	0.708735
C96	C	1.755574	0.030992	1.042068
C97	C	1.085636	-0.709029	0.372113
C98	C	1.418969	-0.375696	0.705446
C99	C	1.752303	-0.042362	1.038780
C100	C	1.036666	-0.745763	0.323068
C101	C	1.370000	-0.412430	0.656402
C102	C	1.703333	-0.079096	0.989735
C103	C	0.990959	-0.709138	0.277315
C104	C	1.324293	-0.375805	0.610648
C105	C	1.657626	-0.042472	0.943981
C106	C	0.994227	-0.635785	0.280608
C107	C	1.327561	-0.302452	0.613941
C108	C	1.660894	0.030882	0.947274
C109	C	1.024428	-0.967246	0.310758
C110	C	1.357761	-0.633913	0.644091
C111	C	1.691095	-0.300579	0.977424
C112	C	1.021165	-1.040605	0.307467
C113	C	1.354499	-0.707271	0.640800
C114	C	1.687832	-0.373938	0.974133
C115	C	1.115841	-1.040490	0.402266
C116	C	1.449175	-0.707157	0.735600
C117	C	1.782508	-0.373823	1.068933
C118	C	1.119108	-0.967135	0.405552
C119	C	1.452441	-0.633802	0.738885
C120	C	1.785775	-0.300469	1.072218
C121	C	1.073398	-0.930517	0.359801
C122	C	1.406732	-0.597184	0.693134
C123	C	1.740065	-0.263850	1.026468
C124	C	1.033323	-0.820743	0.319704
C125	C	1.366657	-0.487410	0.653037
C126	C	1.699990	-0.154077	0.986370
C127	C	1.076738	-0.855538	0.363170
C128	C	1.410071	-0.522205	0.696503
C129	C	1.743405	-0.188871	1.029836
C130	C	1.248132	-0.338524	0.341383
C131	C	1.581466	-0.005191	0.674716
C132	C	1.914799	0.328143	1.008050
C133	C	1.330446	-0.338536	0.341378
C134	C	1.663779	-0.005203	0.674711
C135	C	1.997113	0.328131	1.008045
C136	C	1.055015	-0.338478	0.534557
C137	C	1.388349	-0.005145	0.867890
C138	C	1.721682	0.328189	1.201224
C139	C	1.055034	-0.338470	0.616871
C140	C	1.388367	-0.005137	0.950205
C141	C	1.721701	0.328196	1.283538
C142	C	1.063313	-0.155294	0.349685
C143	C	1.396646	0.178040	0.683018
C144	C	1.729979	0.511373	1.016352
C145	C	1.066867	-0.077224	0.353218
C146	C	1.400200	0.256109	0.686552
C147	C	1.733534	0.589443	1.019885
C148	C	1.054973	-0.338463	0.148985
C149	C	1.388307	-0.005129	0.482318
C150	C	1.721640	0.328204	0.815652
C151	C	1.055107	-0.338272	0.066680
C152	C	1.388440	-0.004939	0.400013
C153	C	1.721774	0.328394	0.733347
C154	C	1.055083	-0.338339	0.915968
C155	C	1.388416	-0.005005	1.249302
C156	C	1.721750	0.328328	1.582635
C157	C	0.995190	-0.392440	0.882198
C158	C	1.328523	-0.059106	1.215531
C159	C	1.661856	0.274227	1.548864
C160	C	0.995334	-0.392691	0.796568
C161	C	1.328667	-0.059357	1.129901
C162	C	1.662000	0.273976	1.463235
C163	C	1.055058	-0.338404	0.767583
C164	C	1.388391	-0.005071	1.100916
C165	C	1.721725	0.328263	1.434249
C166	C	1.132181	-0.358502	0.797764
C167	C	1.465515	-0.025168	1.131097
C168	C	1.798848	0.308165	1.464431
C169	C	1.131845	-0.358857	0.883393
C170	C	1.465179	-0.025523	1.216726
C171	C	1.798512	0.307810	1.550060
C172	C	1.038537	-0.264020	0.887743
C173	C	1.371870	0.069313	1.221077
C174	C	1.705203	0.402647	1.554410
C175	C	1.036781	-0.264449	0.802074
C176	C	1.370115	0.068884	1.135407
C177	C	1.703448	0.402217	1.468740
C178	C	1.055049	-0.338440	0.683722
C179	C	1.388382	-0.005106	1.017055
C180	C	1.721715	0.328227	1.350388
C181	C	1.055097	-0.338305	0.999829
C182	C	1.388431	-0.004971	1.333163
C183	C	1.721764	0.328362	1.666496
H184	H	0.486950	-0.448091	0.380181
H185	H	0.820283	-0.114758	0.713515
H186	H	1.153616	0.218576	1.046848
H187	H	1.177804	-0.321163	0.905819
H188	H	1.511138	0.012171	1.239152
H189	H	1.844471	0.345504	1.572486
H190	H	0.983451	-0.245711	0.910168
H191	H	1.316785	0.087623	1.243501
H192	H	1.650118	0.420956	1.576835
H193	H	0.624041	-0.222781	0.327771
H194	H	0.957375	0.110552	0.661104
H195	H	1.290708	0.443885	0.994438
H196	H	0.951084	-0.739053	0.237384
H197	H	1.284418	-0.405720	0.570718
H198	H	1.617751	-0.072386	0.904051
H199	H	1.116607	-0.825627	0.403105
H200	H	1.449940	-0.492294	0.736438
H201	H	1.783273	-0.158960	1.069771
H202	H	1.146262	-0.413185	0.900926
H203	H	1.479595	-0.079851	1.234260
H204	H	1.812928	0.253482	1.567593
H205	H	1.177860	-0.320335	0.779125
H206	H	1.511194	0.012998	1.112458
H207	H	1.844527	0.346331	1.445792
H208	H	0.993454	-0.850660	0.279769
H209	H	1.326787	-0.517327	0.613103
H210	H	1.660121	-0.183994	0.946436
H211	H	1.005987	-0.447778	0.773602
H212	H	1.339321	-0.114444	1.106936
H213	H	1.672654	0.218889	1.440269
H214	H	1.146915	-0.412252	0.773897
H215	H	1.480248	-0.078919	1.107231
H216	H	1.813582	0.254414	1.440564
H217	H	1.122857	-0.738841	0.409363
H218	H	1.456190	-0.405508	0.742696
H219	H	1.789524	-0.072175	1.076030
H220	H	1.077487	-0.222001	0.782591
H221	H	1.410821	0.111332	1.115924
H222	H	1.744154	0.444666	1.449257
H223	H	0.980042	-0.249294	0.782439
H224	H	1.313375	0.084040	1.115772
H225	H	1.646708	0.417373	1.449105
H226	H	1.082201	-0.223712	0.909823
H227	H	1.415534	0.109621	1.243157
H228	H	1.748868	0.442955	1.576490
H229	H	0.614194	-0.447741	0.380282
H230	H	0.947528	-0.114408	0.713615
H231	H	1.280861	0.218926	1.046948
H232	H	0.957011	-0.605970	0.243353
H233	H	1.290344	-0.272637	0.576686
H234	H	1.623678	0.060697	0.910019
H235	H	0.616721	-0.380454	0.454769
H236	H	0.950054	-0.047121	0.788103
H237	H	1.283388	0.286213	1.121436
H238	H	1.153054	-1.070313	0.439515
H239	H	1.486388	-0.736979	0.772848
H240	H	1.819721	-0.403646	1.106181
H241	H	0.987211	-0.937437	0.273504
H242	H	1.320544	-0.604104	0.606837
H243	H	1.653878	-0.270770	0.940171
H244	H	0.489075	-0.380783	0.454185
H245	H	0.822408	-0.047450	0.787518
H246	H	1.155742	0.285884	1.120851
H247	H	0.496898	-0.248910	0.424492
H248	H	0.830231	0.084423	0.757826
H249	H	1.163565	0.417756	1.091159
H250	H	0.497311	-0.222754	0.328785
H251	H	0.830645	0.110579	0.662118
H252	H	1.163978	0.443912	0.995452
H253	H	0.938039	-0.380113	0.776116
H254	H	1.271372	-0.046780	1.109450
H255	H	1.604706	0.286553	1.442783
H256	H	1.005728	-0.447191	0.901255
H257	H	1.339061	-0.113857	1.234588
H258	H	1.672395	0.219476	1.567922
H259	H	0.623997	-0.248295	0.423492
H260	H	0.957330	0.085038	0.756825
H261	H	1.290663	0.418372	1.090159
H262	H	0.937715	-0.379991	0.903359
H263	H	1.271048	-0.046658	1.236692
H264	H	1.604382	0.286675	1.570025
H265	H	0.487867	-0.410321	0.240377
H266	H	0.821200	-0.076987	0.573710
H267	H	1.154533	0.256346	0.907044
H268	H	0.615298	-0.413359	0.243956
H269	H	0.948631	-0.080026	0.577289
H270	H	1.281965	0.253307	0.910623
H271	H	0.981285	-1.070511	0.267528
H272	H	1.314618	-0.737178	0.600861
H273	H	1.647951	-0.403845	0.934195
H274	H	1.158983	-0.937228	0.445488
H275	H	1.492316	-0.603895	0.778821
H276	H	1.825649	-0.270561	1.112154
H277	H	0.620490	-0.322083	0.219449
H278	H	0.953823	0.011250	0.552783
H279	H	1.287157	0.344583	0.886116
H280	H	1.128787	-0.605770	0.415336
H281	H	1.462120	-0.272437	0.748669
H282	H	1.795453	0.060896	1.082002
H283	H	0.493384	-0.317574	0.221511
H284	H	0.826717	0.015759	0.554844
H285	H	1.160051	0.349093	0.888177
