data_functionalizedCrystal
_audit_creation_method	'MofGen! by Chris Wilmer'
_symmetry_space_group_name_H-M	'P1'
_symmetry_Int_Tables_number	1
_symmetry_cell_setting	triclinic
loop_
_symmetry_equiv_pos_as_xyz
  x,y,z
_cell_length_a	12.827893
_cell_length_b	12.827892
_cell_length_c	12.827885
_cell_angle_alpha	90.031912
_cell_angle_beta	90.021189
_cell_angle_gamma	90.023137
loop_
_atom_site_label
_atom_site_type_symbol
_atom_site_fract_x
_atom_site_fract_y
_atom_site_fract_z
Zn1	Zn	-1.597599	0.416038	-0.590887
Zn2	Zn	-1.597463	0.590815	-0.416140
Zn3	Zn	-1.422840	0.416083	-0.416154
Zn4	Zn	-1.422796	0.590731	-0.590835
O5	O	-1.510175	0.503417	-0.503504
O6	O	-1.743817	0.439239	-0.567722
O7	O	-1.574261	0.567690	-0.269906
O8	O	-1.446098	0.269841	-0.439361
O9	O	-1.743717	0.567647	-0.439337
O10	O	-1.574492	0.269808	-0.567736
O11	O	-1.445966	0.439315	-0.269916
O12	O	-1.276598	0.439234	-0.439310
O13	O	-1.446022	0.567504	-0.737078
O14	O	-1.276566	0.567548	-0.567647
O15	O	-1.574449	0.439157	-0.737116
O16	O	-1.574218	0.737040	-0.439286
O17	O	-1.445891	0.736979	-0.567633
C18	C	-1.238665	0.503387	-0.503475
C19	C	-1.122512	0.503400	-0.503487
C20	C	-1.070738	0.566991	-0.566893
C21	C	-0.950688	0.567005	-0.566907
C22	C	-1.510063	0.774927	-0.503475
C23	C	-1.510111	0.891080	-0.503498
C24	C	-0.782745	0.503438	-0.503525
C25	C	-0.898898	0.503426	-0.503513
C26	C	-1.573608	0.942765	-0.567078
C27	C	-1.573659	1.062815	-0.567103
C28	C	-1.510246	0.503316	-0.776074
C29	C	-1.510276	0.503274	-0.892228
C30	C	-1.510272	1.230847	-0.503547
C31	C	-1.510205	1.114693	-0.503544
C32	C	-1.573833	0.439751	-0.944031
C33	C	-1.573866	0.439705	-1.064082
C34	C	-1.510164	0.503441	-0.231994
C35	C	-1.510336	0.503190	-0.115842
H36	H	-1.627929	0.898140	-0.621497
H37	H	-1.115290	0.621419	-0.621170
H38	H	-1.628024	1.107263	-0.621531
O39	O	-1.445233	1.061635	-0.438750
C40	C	-1.377755	0.998489	-0.498228
H41	H	-1.371240	1.031389	-0.580504
H42	H	-1.297354	0.997237	-0.460360
H43	H	-1.410105	0.915780	-0.501914
H44	H	-1.628282	0.385325	-1.108632
H45	H	-1.628218	0.385397	-0.899505
O46	O	-1.069331	0.438614	-0.438614
C47	C	-1.006132	0.498103	-0.371100
H48	H	-1.039062	0.580368	-0.364484
H49	H	-1.004768	0.460226	-0.290739
H50	H	-0.923463	0.501819	-0.403480
H51	H	-1.455881	0.557617	-0.936753
O52	O	-0.897419	0.631860	-0.631638
C53	C	-0.789415	0.617450	-0.617229
H54	H	-0.774618	0.536752	-0.583131
H55	H	-0.747895	0.624597	-0.695459
H56	H	-0.758395	0.679346	-0.561447
O57	O	-0.951883	0.438326	-0.438795
C58	C	-0.925351	0.334177	-0.461809
H59	H	-0.846099	0.331993	-0.501926
H60	H	-0.921702	0.287228	-0.386467
H61	H	-0.986797	0.299091	-0.515641
O62	O	-1.445350	0.944196	-0.438435
C63	C	-1.468227	0.917686	-0.334271
H64	H	-1.508295	0.838380	-0.332050
H65	H	-1.392828	0.914162	-0.287339
H66	H	-1.522054	0.979076	-0.299194
O67	O	-1.445563	0.568128	-1.062592
C68	C	-1.505071	0.635612	-0.999472
H69	H	-1.584295	0.598754	-0.983247
H70	H	-1.462551	0.649571	-0.922666
H71	H	-1.516484	0.713078	-1.041460
