data_functionalizedCrystal
_audit_creation_method	'MofGen! by Chris Wilmer'
_symmetry_space_group_name_H-M	'P1'
_symmetry_Int_Tables_number	1
_symmetry_cell_setting	triclinic
loop_
_symmetry_equiv_pos_as_xyz
  x,y,z
_cell_length_a	12.837942
_cell_length_b	12.837943
_cell_length_c	8.140239
_cell_angle_alpha	89.999131
_cell_angle_beta	90.005109
_cell_angle_gamma	94.828940
loop_
_atom_site_label
_atom_site_type_symbol
_atom_site_fract_x
_atom_site_fract_y
_atom_site_fract_z
O1	O	0.272141	1.402330	0.136583
O2	O	0.258698	1.099196	0.136592
O3	O	0.113853	1.244041	0.136578
O4	O	0.416986	1.257484	0.136597
O5	O	0.113845	1.244039	-0.136649
O6	O	0.258690	1.099194	-0.136635
O7	O	0.272133	1.402328	-0.136644
Zn8	Zn	0.265410	1.250761	-0.180020
Zn9	Zn	0.265421	1.250763	0.179968
O10	O	0.416978	1.257483	-0.136630
C11	C	0.254153	1.060126	-0.000020
C12	C	0.240608	0.943711	-0.000016
C13	C	0.403437	0.718837	-0.000029
C14	C	0.390716	0.609454	-0.000027
C15	C	0.202445	0.615562	-0.000022
C16	C	0.215166	0.724944	-0.000024
C17	C	0.315666	0.776578	-0.000025
C18	C	0.328386	0.885962	-0.000016
C19	C	0.140116	0.892067	-0.000022
C20	C	0.127395	0.782685	-0.000020
C21	C	0.074780	1.239499	-0.000035
C22	C	-0.041635	1.225954	-0.000032
C23	C	-0.266510	1.388784	-0.000003
C24	C	-0.375892	1.376062	0.000000
C25	C	-0.369785	1.187791	-0.000011
C26	C	-0.260402	1.200513	-0.000014
C27	C	-0.208769	1.301012	-0.000012
C28	C	-0.099384	1.313732	-0.000027
C29	C	-0.093279	1.125462	-0.000026
C30	C	-0.202661	1.112741	-0.000023
C31	C	0.456052	1.262025	-0.000014
C32	C	0.572467	1.275569	-0.000006
C33	C	0.276679	1.441398	-0.000028
C34	C	0.290223	1.557813	-0.000021
N35	N	0.265421	1.250765	0.425651
N36	N	0.265403	1.250766	-0.425703
H37	H	0.045571	0.740630	-0.000038
H38	H	0.410218	0.928000	-0.000019
H39	H	0.120623	0.573502	-0.000157
H40	H	-0.411844	1.105969	0.000006
H41	H	0.485268	0.760878	-0.000028
H42	H	0.462189	0.562446	-0.000035
C43	C	-0.209703	1.499326	-0.000016
C44	C	-0.227270	1.575232	-0.141902
C45	C	-0.170464	1.685776	-0.141919
C46	C	-0.096091	1.720414	-0.000050
C47	C	-0.078521	1.644507	0.141848
C48	C	-0.135327	1.533963	0.141864
H49	H	-0.282328	1.549593	-0.246932
H50	H	-0.183471	1.741968	-0.246962
H51	H	-0.054040	1.802246	-0.000062
H52	H	-0.023463	1.670146	0.246877
H53	H	-0.122320	1.477771	0.246907
C54	C	-0.259467	1.002198	-0.000020
C55	C	-0.333840	0.967567	-0.141893
C56	C	-0.390645	0.857023	-0.141890
C57	C	-0.373077	0.781109	-0.000015
C58	C	-0.298701	0.815738	0.141869
C59	C	-0.241896	0.926283	0.141866
H60	H	-0.346848	1.023765	-0.246927
H61	H	-0.445704	0.831388	-0.246922
H62	H	-0.415128	0.699277	-0.000013
H63	H	-0.285693	0.759541	0.246903
H64	H	-0.186838	0.951917	0.246899
H65	H	0.068646	0.939092	-0.000008
H66	H	-0.057346	1.395564	-0.000032
H67	H	-0.422901	1.447536	0.000013
H68	H	-0.046254	1.053992	-0.000047
