data_functionalizedCrystal
_audit_creation_method	'MofGen! by Chris Wilmer'
_symmetry_space_group_name_H-M	'P1'
_symmetry_Int_Tables_number	1
_symmetry_cell_setting	triclinic
loop_
_symmetry_equiv_pos_as_xyz
  x,y,z
_cell_length_a	12.759401
_cell_length_b	16.120484
_cell_length_c	12.759393
_cell_angle_alpha	92.862829
_cell_angle_beta	89.980163
_cell_angle_gamma	92.926992
loop_
_atom_site_label
_atom_site_type_symbol
_atom_site_fract_x
_atom_site_fract_y
_atom_site_fract_z
Zn1	Zn	1.584973	-0.331823	-0.615182
Zn2	Zn	2.084973	0.168177	-0.115182
Zn3	Zn	1.575925	-0.471261	-0.448395
Zn4	Zn	2.075925	0.028739	0.051605
Zn5	Zn	1.409272	-0.331870	-0.439520
Zn6	Zn	1.909272	0.168130	0.060480
Zn7	Zn	1.400325	-0.471200	-0.624028
Zn8	Zn	1.900325	0.028800	-0.124028
O9	O	1.492624	-0.401538	-0.531781
O10	O	1.992624	0.098462	-0.031781
O11	O	1.730794	-0.350325	-0.593069
O12	O	2.230794	0.149675	-0.093069
O13	O	1.553776	-0.452815	-0.300199
O14	O	2.053776	0.047185	0.199801
O15	O	1.440111	-0.215198	-0.455406
O16	O	1.940111	0.284802	0.044594
O17	O	1.724146	-0.452770	-0.470531
O18	O	2.224146	0.047230	0.029469
O19	O	1.569198	-0.215164	-0.584464
O20	O	2.069198	0.284836	-0.084464
O21	O	1.431337	-0.350405	-0.293679
O22	O	1.931337	0.149595	0.206321
O23	O	1.261065	-0.350346	-0.463984
O24	O	1.761065	0.149654	0.036016
O25	O	1.424861	-0.452666	-0.769873
O26	O	1.924861	0.047334	-0.269873
O27	O	1.254491	-0.452711	-0.599541
O28	O	1.754491	0.047289	-0.099541
O29	O	1.560522	-0.350266	-0.763374
O30	O	2.060522	0.149734	-0.263374
O31	O	1.545100	-0.587918	-0.479109
O32	O	2.045100	-0.087918	0.020891
O33	O	1.416087	-0.587873	-0.608146
O34	O	1.916087	-0.087873	-0.108146
C35	C	1.219657	-0.401528	-0.531760
C36	C	1.719657	0.098472	-0.031760
C37	C	1.102879	-0.401544	-0.531777
C38	C	1.602879	0.098456	-0.031777
C39	C	1.044617	-0.454926	-0.602261
C40	C	1.544617	0.045074	-0.102261
C41	C	0.934893	-0.454929	-0.602282
C42	C	1.434893	0.045071	-0.102282
C43	C	0.941703	-0.348165	-0.461326
C44	C	1.441703	0.151835	0.038674
C45	C	1.051426	-0.348158	-0.461310
C46	C	1.551426	0.151842	0.038690
C47	C	1.478669	-0.618145	-0.545573
C48	C	1.978669	-0.118145	-0.045573
C49	C	1.472795	-0.710811	-0.551509
C50	C	1.972795	-0.210811	-0.051509
C51	C	1.462078	-0.880472	-0.562367
C52	C	1.962078	-0.380472	-0.062367
C53	C	1.523358	-0.921764	-0.501213
C54	C	2.023358	-0.421764	-0.001213
C55	C	1.517395	-1.016169	-0.507254
C56	C	2.017395	-0.516169	-0.007254
C57	C	1.468040	-0.786058	-0.556327
C58	C	1.968040	-0.286058	-0.056327
C59	C	1.766656	-0.401549	-0.531804
C60	C	2.266656	0.098451	-0.031804
C61	C	1.883433	-0.401554	-0.531813
C62	C	2.383433	0.098446	-0.031813
C63	C	1.492703	-0.401454	-0.805809
C64	C	1.992703	0.098546	-0.305809
C65	C	1.492736	-0.401418	-0.922584
C66	C	1.992736	0.098582	-0.422584
C67	C	1.506662	-0.184085	-0.517958
C68	C	2.006662	0.315915	-0.017958
C69	C	1.512644	-0.091419	-0.512068
C70	C	2.012644	0.408581	-0.012068
C71	C	1.429007	-0.348083	-0.974050
C72	C	1.929007	0.151917	-0.474050
C73	C	1.429033	-0.348058	-1.083772
C74	C	1.929033	0.151942	-0.583772
C75	C	1.556526	-0.454703	-1.090553
C76	C	2.056526	0.045297	-0.590553
C77	C	1.556494	-0.454733	-0.980833
C78	C	2.056494	0.045267	-0.480833
C79	C	1.492610	-0.401562	-0.258815
C80	C	1.992610	0.098438	0.241185
C81	C	1.492795	-0.401363	-0.142027
C82	C	1.992795	0.098637	0.357973
H83	H	0.887460	-0.498398	-0.659679
H84	H	1.387460	0.001602	-0.159679
H85	H	1.580300	-0.886214	-0.444319
H86	H	2.080300	-0.386214	0.055681
H87	H	1.377137	-0.304628	-1.125671
H88	H	1.877137	0.195372	-0.625671
O89	O	1.386633	-0.927551	-0.637709
O90	O	1.886633	-0.427551	-0.137709
H91	H	1.393720	-0.995386	-0.630671
H92	H	1.893720	-0.495386	-0.130671
H93	H	1.608437	-0.498110	-1.137993
H94	H	2.108437	0.001890	-0.637993
H95	H	1.098865	-0.304683	-0.403913
H96	H	1.598865	0.195317	0.096087
O97	O	0.886207	-0.290614	-0.385291
O98	O	1.386207	0.209386	0.114709
H99	H	0.800120	-0.299599	-0.397125
H100	H	1.300120	0.200401	0.102875
O101	O	1.360240	-0.290586	-0.911219
O102	O	1.860240	0.209414	-0.411219
H103	H	1.315925	-0.253499	-0.965445
H104	H	1.815925	0.246501	-0.465445
O105	O	1.625246	-0.512251	-0.925310
O106	O	2.125246	-0.012251	-0.425310
H107	H	1.669602	-0.549307	-0.984245
H108	H	2.169602	-0.049307	-0.484245
H109	H	1.086507	-0.498394	-0.659642
H110	H	1.586507	0.001606	-0.159642
