data_functionalizedCrystal
_audit_creation_method	'MofGen! by Chris Wilmer'
_symmetry_space_group_name_H-M	'P1'
_symmetry_Int_Tables_number	1
_symmetry_cell_setting	triclinic
loop_
_symmetry_equiv_pos_as_xyz
  x,y,z
_cell_length_a	16.959454
_cell_length_b	18.215407
_cell_length_c	18.215398
_cell_angle_alpha	90.018192
_cell_angle_beta	89.978830
_cell_angle_gamma	89.988189
loop_
_atom_site_label
_atom_site_type_symbol
_atom_site_fract_x
_atom_site_fract_y
_atom_site_fract_z
Zn1	Zn	-0.314884	-1.125094	-0.416113
Zn2	Zn	0.185116	-0.625094	0.083887
Zn3	Zn	-0.447063	-1.125013	-0.293055
Zn4	Zn	0.052937	-0.625013	0.206945
Zn5	Zn	-0.314884	-1.002027	-0.293063
Zn6	Zn	0.185116	-0.502027	0.206937
Zn7	Zn	-0.447005	-1.002003	-0.416083
Zn8	Zn	0.052995	-0.502003	0.083917
O9	O	-0.380959	-1.063534	-0.354578
O10	O	0.119041	-0.563534	0.145422
O11	O	-0.332442	-1.228067	-0.399798
O12	O	0.167558	-0.728067	0.100202
O13	O	-0.429554	-1.108676	-0.190072
O14	O	0.070446	-0.608676	0.309928
O15	O	-0.204273	-1.018396	-0.309401
O16	O	0.295727	-0.518396	0.190599
O17	O	-0.429554	-1.228008	-0.309389
O18	O	0.070446	-0.728008	0.190611
O19	O	-0.204273	-1.108813	-0.399805
O20	O	0.295727	-0.608813	0.100195
O21	O	-0.332442	-1.018318	-0.190077
O22	O	0.167558	-0.518318	0.309923
O23	O	-0.332385	-0.899040	-0.309372
O24	O	0.167615	-0.399040	0.190628
O25	O	-0.429454	-1.018354	-0.519071
O26	O	0.070546	-0.518354	-0.019071
O27	O	-0.429454	-0.899022	-0.399755
O28	O	0.070546	-0.399022	0.100245
O29	O	-0.332385	-1.108789	-0.519093
O30	O	0.167615	-0.608789	-0.019093
O31	O	-0.557666	-1.108652	-0.309360
O32	O	-0.057666	-0.608652	0.190640
O33	O	-0.557624	-1.018276	-0.399748
O34	O	-0.057624	-0.518276	0.100252
C35	C	-0.380914	-0.872328	-0.354562
C36	C	0.119086	-0.372328	0.145438
C37	C	-0.380914	-0.790529	-0.354572
C38	C	0.119086	-0.290529	0.145428
C39	C	-0.330462	-0.525497	-0.401723
C40	C	0.169538	-0.025497	0.098277
C41	C	-0.330453	-0.602355	-0.401721
C42	C	0.169547	-0.102355	0.098279
C43	C	-0.431429	-0.602313	-0.307437
C44	C	0.068571	-0.102313	0.192563
C45	C	-0.431441	-0.525456	-0.307443
C46	C	0.068559	-0.025456	0.192557
C47	C	-0.380953	-0.487050	-0.354584
C48	C	0.119047	0.012950	0.145416
C49	C	-0.380932	-0.640766	-0.354578
C50	C	0.119068	-0.140766	0.145422
C51	C	-0.380923	-0.724099	-0.354576
C52	C	0.119077	-0.224099	0.145424
C53	C	-0.380963	-0.403711	-0.354587
C54	C	0.119037	0.096289	0.145413
C55	C	-0.586325	-1.063473	-0.354566
C56	C	-0.086325	-0.563473	0.145434
C57	C	-0.674182	-1.063514	-0.354585
C58	C	-0.174182	-0.563514	0.145415
C59	C	-1.045665	-1.016544	-0.401638
C60	C	-0.545665	-0.516544	0.098362
C61	C	-1.045650	-1.110729	-0.307593
C62	C	-0.545650	-0.610729	0.192407
C63	C	-0.963104	-1.110704	-0.307587
C64	C	-0.463104	-0.610704	0.192413
C65	C	-0.921835	-1.063597	-0.354606
C66	C	-0.421835	-0.563597	0.145394
C67	C	-0.963111	-1.016515	-0.401631
C68	C	-0.463111	-0.516515	0.098369
C69	C	-0.921821	-1.157779	-0.260556
C70	C	-0.421821	-0.657779	0.239444
C71	C	-0.839270	-1.157755	-0.260547
C72	C	-0.339270	-0.657755	0.239453
C73	C	-0.797999	-1.110651	-0.307571
C74	C	-0.297999	-0.610651	0.192429
C75	C	-0.839281	-1.063568	-0.354599
C76	C	-0.339281	-0.563568	0.145401
C77	C	-0.798012	-1.016461	-0.401618
C78	C	-0.298012	-0.516461	0.098382
C79	C	-0.839292	-0.969381	-0.448650
C80	C	-0.339292	-0.469381	0.051350
C81	C	-0.921841	-0.969411	-0.448655
C82	C	-0.421841	-0.469411	0.051345
C83	C	-0.715451	-1.110621	-0.307566
C84	C	-0.215451	-0.610621	0.192434
C85	C	-0.715458	-1.016432	-0.401611
C86	C	-0.215458	-0.516432	0.098389
C87	C	-0.174791	-1.063616	-0.354607
C88	C	0.325209	-0.563616	0.145393
C89	C	-0.086934	-1.063651	-0.354619
C90	C	0.413066	-0.563651	0.145381
C91	C	-0.380913	-1.063578	-0.546531
C92	C	0.119087	-0.563578	-0.046531
C93	C	-0.380894	-1.063596	-0.628330
C94	C	0.119106	-0.563596	-0.128330
C95	C	-0.380991	-0.255487	-0.354593
C96	C	0.119009	0.244513	0.145407
C97	C	-0.380972	-0.337286	-0.354590
C98	C	0.119028	0.162714	0.145410
C99	C	-0.431363	-1.110679	-0.893390
C100	C	0.068637	-0.610679	-0.393390
C101	C	-0.431390	-1.110668	-0.816531
C102	C	0.068610	-0.610668	-0.316531
C103	C	-0.330273	-1.016569	-0.816520
C104	C	0.169727	-0.516569	-0.316520
C105	C	-0.330250	-1.016577	-0.893377
C106	C	0.169750	-0.516577	-0.393377
C107	C	-0.380794	-1.063636	-0.931810
C108	C	0.119206	-0.563636	-0.431810
C109	C	-0.380844	-1.063617	-0.778094
C110	C	0.119156	-0.563617	-0.278094
C111	C	-0.380873	-1.063605	-0.694760
C112	C	0.119127	-0.563605	-0.194760
C113	C	-0.380766	-1.063648	-1.015149
C114	C	0.119234	-0.563648	-0.515149
C115	C	-0.380947	-1.063533	-0.163372
C116	C	0.119053	-0.563533	0.336628
C117	C	-0.380744	-1.063657	-0.081574
C118	C	0.119256	-0.563657	0.418426
H119	H	-0.289339	-0.633656	-0.440107
H120	H	0.210661	-0.133656	0.059893
H121	H	-0.681862	-0.978074	-0.439903
H122	H	-0.181862	-0.478074	0.060097
C123	C	-0.469768	-0.625919	-0.182762
C124	C	0.030232	-0.125919	0.317238
C125	C	-0.486922	-0.644528	-0.255616
C126	C	0.013078	-0.144528	0.244384
H127	H	-0.504031	-0.651976	-0.150770
H128	H	-0.004031	-0.151976	0.349230
H129	H	-0.416650	-0.638519	-0.172075
H130	H	0.083350	-0.138519	0.327925
H131	H	-0.477001	-0.574641	-0.176031
H132	H	0.022999	-0.074641	0.323969
H133	H	-0.479683	-0.695805	-0.262348
H134	H	0.020317	-0.195805	0.237652
H135	H	-0.540052	-0.631933	-0.266307
H136	H	-0.040052	-0.131933	0.233693
C137	C	-0.469886	-1.235286	-0.917069
C138	C	0.030114	-0.735286	-0.417069
C139	C	-0.486926	-1.162401	-0.935634
C140	C	0.013074	-0.662401	-0.435634
H141	H	-0.504195	-1.267215	-0.943144
H142	H	-0.004195	-0.767215	-0.443144
H143	H	-0.416784	-1.246072	-0.929677
H144	H	0.083216	-0.746072	-0.429677
H145	H	-0.477137	-1.242001	-0.865795
H146	H	0.022863	-0.742001	-0.365795
H147	H	-0.479669	-1.155684	-0.986907
H148	H	0.020331	-0.655684	-0.486907
H149	H	-0.540042	-1.151611	-0.923031
H150	H	-0.040042	-0.651611	-0.423031
C151	C	-1.071045	-1.235366	-0.271843
C152	C	-0.571045	-0.735366	0.228157
C153	C	-1.091027	-1.162492	-0.255909
C154	C	-0.591027	-0.662492	0.244091
H155	H	-1.099064	-1.267318	-0.239930
H156	H	-0.599064	-0.767318	0.260070
H157	H	-1.084543	-1.246110	-0.321294
H158	H	-0.584543	-0.746110	0.178706
H159	H	-1.015976	-1.242095	-0.265098
H160	H	-0.515976	-0.742095	0.234902
H161	H	-1.146095	-1.155762	-0.262659
H162	H	-0.646095	-0.655762	0.237341
H163	H	-1.077534	-1.151745	-0.206446
H164	H	-0.577534	-0.651745	0.293554
H165	H	-1.079279	-0.978215	-0.439933
H166	H	-0.579279	-0.478215	0.060067
C167	C	-0.947308	-0.844782	-0.484396
C168	C	-0.447308	-0.344782	0.015604
C169	C	-0.967213	-0.917660	-0.500347
C170	C	-0.467213	-0.417660	-0.000347
H171	H	-0.975318	-0.812834	-0.516312
H172	H	-0.475318	-0.312834	-0.016312
H173	H	-0.960870	-0.834051	-0.434947
H174	H	-0.460870	-0.334051	0.065053
H175	H	-0.892238	-0.838034	-0.491125
H176	H	-0.392238	-0.338034	0.008875
H177	H	-1.022283	-0.924409	-0.493613
H178	H	-0.522283	-0.424409	0.006387
H179	H	-0.953657	-0.928395	-0.549809
H180	H	-0.453657	-0.428395	-0.049809
C181	C	-0.565243	-0.501772	-0.271387
C182	C	-0.065243	-0.001772	0.228613
C183	C	-0.486946	-0.483191	-0.255623
C184	C	0.013054	0.016809	0.244377
H185	H	-0.599508	-0.475683	-0.239395
H186	H	-0.099508	0.024317	0.260605
H187	H	-0.576873	-0.489193	-0.320811
H188	H	-0.076873	0.010807	0.179189
H189	H	-0.572450	-0.553043	-0.264633
H190	H	-0.072450	-0.053043	0.235367
H191	H	-0.479738	-0.431920	-0.262382
H192	H	0.020262	0.068080	0.237618
H193	H	-0.475312	-0.495765	-0.206187
H194	H	0.024688	0.004235	0.293813
C195	C	-0.537747	-1.120850	-0.730101
C196	C	-0.037747	-0.620850	-0.230101
C197	C	-0.486977	-1.162380	-0.774300
C198	C	0.013023	-0.662380	-0.274300
H199	H	-0.572069	-1.152777	-0.704035
H200	H	-0.072069	-0.652777	-0.204035
H201	H	-0.507650	-1.092833	-0.696213
H202	H	-0.007650	-0.592833	-0.196213
H203	H	-0.567964	-1.088782	-0.760085
H204	H	-0.067964	-0.588782	-0.260085
H205	H	-0.456756	-1.194444	-0.744316
H206	H	0.043244	-0.694444	-0.244316
H207	H	-0.517077	-1.190409	-0.808192
H208	H	-0.017077	-0.690409	-0.308192
C209	C	-0.723731	-1.203712	-0.214599
C210	C	-0.223731	-0.703712	0.285401
C211	C	-0.670076	-1.162363	-0.255871
C212	C	-0.170076	-0.662363	0.244129
H213	H	-0.695717	-1.235659	-0.182687
H214	H	-0.195717	-0.735659	0.317313
H215	H	-0.755960	-1.171672	-0.186428
H216	H	-0.255960	-0.671672	0.313572
H217	H	-0.755898	-1.231857	-0.246696
H218	H	-0.255898	-0.731857	0.253304
H219	H	-0.637913	-1.134214	-0.223775
H220	H	-0.137913	-0.634214	0.276225
H221	H	-0.637834	-1.194407	-0.284045
H222	H	-0.137834	-0.694407	0.215955
H223	H	-0.805682	-0.931023	-0.486930
H224	H	-0.305682	-0.431023	0.013070
C225	C	-0.947267	-1.282406	-0.224777
C226	C	-0.447267	-0.782406	0.275223
C227	C	-0.967225	-1.209520	-0.208871
C228	C	-0.467225	-0.709520	0.291129
H229	H	-0.975311	-1.314339	-0.192863
H230	H	-0.475311	-0.814339	0.307137
H231	H	-0.960751	-1.293160	-0.274230
H232	H	-0.460751	-0.793160	0.225770
H233	H	-0.892204	-1.289153	-0.218013
H234	H	-0.392204	-0.789153	0.281987
H235	H	-1.022288	-1.202773	-0.215641
H236	H	-0.522288	-0.702773	0.284359
H237	H	-0.953746	-1.198763	-0.159407
H238	H	-0.453746	-0.698763	0.340593
C239	C	-0.224160	-0.439078	-0.412121
C240	C	0.275840	0.060922	0.087879
C241	C	-0.274972	-0.483281	-0.453546
C242	C	0.225028	0.016719	0.046454
H243	H	-0.189900	-0.413022	-0.444118
H244	H	0.310100	0.086978	0.055882
H245	H	-0.254230	-0.405181	-0.384055
H246	H	0.245770	0.094819	0.115945
H247	H	-0.193878	-0.469059	-0.380104
H248	H	0.306122	0.030941	0.119896
H249	H	-0.305258	-0.453300	-0.485559
H250	H	0.194742	0.046700	0.014441
H251	H	-0.244899	-0.517182	-0.481624
H252	H	0.255101	-0.017182	0.018376
H253	H	-0.805664	-1.196090	-0.222252
H254	H	-0.305664	-0.696090	0.277748
C255	C	-0.319234	-0.917590	-0.979781
C256	C	0.180766	-0.417590	-0.479781
C257	C	-0.274664	-0.964858	-0.935611
C258	C	0.225336	-0.464858	-0.435611
H259	H	-0.284921	-0.885657	-1.005850
H260	H	0.215079	-0.385657	-0.505850
H261	H	-0.349324	-0.945614	-1.013668
H262	H	0.150676	-0.445614	-0.513668
H263	H	-0.353676	-0.889433	-0.949778
H264	H	0.146324	-0.389433	-0.449778
H265	H	-0.240226	-0.993019	-0.965615
H266	H	0.259774	-0.493019	-0.465615
H267	H	-0.244560	-0.936830	-0.901720
H268	H	0.255440	-0.436830	-0.401720
C269	C	-0.285402	-0.974781	-0.698697
C270	C	0.214598	-0.474781	-0.198697
C271	C	-0.274709	-0.964851	-0.774271
C272	C	0.225291	-0.464851	-0.274271
H273	H	-0.251093	-0.942856	-0.672618
H274	H	0.248907	-0.442856	-0.172618
H275	H	-0.338506	-0.963988	-0.686097
H276	H	0.161494	-0.463988	-0.186097
H277	H	-0.273847	-1.024234	-0.686123
H278	H	0.226153	-0.524234	-0.186123
H279	H	-0.286270	-0.915400	-0.786847
H280	H	0.213730	-0.415400	-0.286847
H281	H	-0.221594	-0.975639	-0.786877
H282	H	0.278406	-0.475639	-0.286877
