data_functionalizedCrystal
_audit_creation_method	'MofGen! by Chris Wilmer'
_symmetry_space_group_name_H-M	'P1'
_symmetry_Int_Tables_number	1
_symmetry_cell_setting	triclinic
loop_
_symmetry_equiv_pos_as_xyz
  x,y,z
_cell_length_a	29.917948
_cell_length_b	29.917021
_cell_length_c	29.913391
_cell_angle_alpha	60.005297
_cell_angle_beta	60.010472
_cell_angle_gamma	59.993667
loop_
_atom_site_label
_atom_site_type_symbol
_atom_site_fract_x
_atom_site_fract_y
_atom_site_fract_z
O1	O	0.061938	-0.653075	0.546110
O2	O	0.023328	-0.508466	0.440017
O3	O	0.114898	-0.599963	0.439941
O4	O	-0.029633	-0.561578	0.546186
O5	O	0.145278	-0.569587	0.470242
O6	O	0.053708	-0.478090	0.470318
O7	O	0.092318	-0.622699	0.576411
Zn8	Zn	0.077836	-0.545572	0.528175
Zn9	Zn	0.037809	-0.585593	0.488253
O10	O	0.000747	-0.531202	0.576487
N11	N	0.105154	-0.518262	0.555424
N12	N	0.010496	-0.612908	0.461004
C13	C	0.164136	-0.309209	0.614352
C14	C	0.164251	-0.459335	0.764424
C15	C	0.164150	-0.459313	0.614341
C16	C	0.314282	-0.459305	0.614278
C17	C	0.180666	-0.358742	0.630849
C18	C	0.180732	-0.442815	0.714891
C19	C	0.264747	-0.442797	0.630809
C20	C	0.180676	-0.442802	0.630843
C21	C	0.143097	-0.246161	0.593354
C22	C	0.143120	-0.480326	0.593337
C23	C	0.201706	-0.421790	0.651848
C24	C	0.405963	-0.443499	0.565998
C25	C	0.463273	-0.462598	0.546874
C26	C	0.463297	-0.555329	0.582235
C27	C	0.405988	-0.536228	0.601360
C28	C	0.156905	-0.217495	0.537012
C29	C	0.137776	-0.160180	0.517926
C30	C	0.091035	-0.160201	0.611524
C31	C	0.110164	-0.217516	0.630611
C32	C	0.086772	-0.466488	0.607209
C33	C	0.067659	-0.485590	0.588108
C34	C	0.161236	-0.532368	0.541277
C35	C	0.180352	-0.513266	0.560371
C36	C	0.086942	-0.466529	0.856152
C37	C	0.067877	-0.485647	0.913465
C38	C	0.161489	-0.532436	0.913415
C39	C	0.180552	-0.513318	0.856101
C40	C	0.143277	-0.480363	0.827471
C41	C	0.377323	-0.480313	0.593239
C42	C	-0.111377	-0.650681	0.422736
C43	C	-0.027364	-0.650787	0.422929
C44	C	-0.048335	-0.671770	0.401835
C45	C	-0.064214	-0.763416	0.450041
C46	C	-0.045160	-0.820731	0.469172
C47	C	0.047573	-0.820841	0.433980
C48	C	0.028517	-0.763527	0.414847
C49	C	-0.140115	-0.664483	0.479060
C50	C	-0.197425	-0.645309	0.498058
C51	C	-0.197256	-0.598535	0.404405
C52	C	-0.139946	-0.617709	0.385407
C53	C	-0.041168	-0.594444	0.409067
C54	C	-0.022104	-0.575374	0.428250
C55	C	0.024568	-0.668986	0.475143
C56	C	0.005504	-0.688059	0.455967
C57	C	-0.041000	-0.594453	0.310105
C58	C	-0.021803	-0.575386	0.252792
C59	C	0.024951	-0.669004	0.252854
C60	C	0.005755	-0.688070	0.310168
C61	C	-0.027222	-0.650793	0.338792
C62	C	-0.027377	-0.734817	0.422881
N63	N	0.491125	-0.518235	0.555255
O64	O	0.678406	-0.527360	0.420422
O65	O	0.678588	-0.633782	0.564887
O66	O	0.678516	-0.633539	0.473265
O67	O	0.678478	-0.527602	0.512044
O68	O	0.587469	-0.603251	0.503685
O69	O	0.587541	-0.603493	0.595307
O70	O	0.587359	-0.497071	0.450842
Zn71	Zn	0.572994	-0.545473	0.527905
Zn72	Zn	0.692953	-0.585380	0.487825
O73	O	0.587431	-0.497313	0.542465
N74	N	0.774821	-0.612618	0.460470
N75	N	0.105125	-0.132348	0.555445
O76	O	-0.029633	0.055031	0.546198
O77	O	0.114837	0.055047	0.439777
O78	O	0.023189	0.055024	0.440050
O79	O	0.062016	0.055054	0.545925
O80	O	0.053572	-0.036031	0.470398
O81	O	0.145220	-0.036008	0.470125
O82	O	0.000750	-0.036024	0.576546
Zn83	Zn	0.077809	-0.050473	0.528154
Zn84	Zn	0.037778	0.069496	0.488169
O85	O	0.092399	-0.036001	0.576273
N86	N	0.010456	0.151371	0.460879
N87	N	0.105414	-0.518315	0.941279
O88	O	0.096182	-0.653057	1.128644
O89	O	-0.010215	-0.508539	1.128670
O90	O	-0.009968	-0.600172	1.128636
O91	O	0.095935	-0.561424	1.128678
O92	O	0.020367	-0.569808	1.037586
O93	O	0.020121	-0.478175	1.037620
O94	O	0.126517	-0.622693	1.037594
Zn95	Zn	0.078135	-0.545613	1.023151
Zn96	Zn	0.038167	-0.585619	1.143113
O97	O	0.126270	-0.531061	1.037628
N98	N	0.010887	-0.612923	1.224985
C99	C	0.034899	-0.475056	0.440551
C100	C	0.148298	-0.588365	0.440456
C101	C	0.080746	-0.656109	0.575876
C102	C	-0.032653	-0.542801	0.575971
C103	C	0.633086	-0.633292	0.598298
C104	C	0.632998	-0.632993	0.484834
C105	C	0.632857	-0.497559	0.417433
C106	C	0.632949	-0.497860	0.530895
C107	C	0.148191	0.009634	0.440259
C108	C	0.034733	0.009493	0.440634
C109	C	-0.032641	0.009502	0.576027
C110	C	0.080854	0.009529	0.575690
C111	C	-0.009699	-0.475150	1.083148
C112	C	-0.009388	-0.588620	1.083088
C113	C	0.126001	-0.656082	1.083116
C114	C	0.125697	-0.542605	1.083155
H115	H	0.022003	-0.474373	0.936811
C116	C	0.204122	0.009986	0.395008
H117	H	0.227110	0.010070	0.408196
H118	H	0.220631	-0.021696	0.384913
H119	H	0.199127	0.041813	0.364000
C120	C	-0.088689	0.009496	0.621163
H121	H	-0.111703	0.009491	0.607949
H122	H	-0.083876	-0.022254	0.652273
H123	H	-0.105068	0.041256	0.631104
H124	H	0.632798	-0.464146	0.375944
C125	C	-0.088730	-0.531756	0.621044
H126	H	-0.088821	-0.563454	0.652857
H127	H	-0.095391	-0.501911	0.629610
H128	H	-0.116575	-0.523101	0.608473
C129	C	-0.125694	-0.731839	0.458868
H130	H	-0.144902	-0.757083	0.477779
H131	H	-0.139168	-0.709467	0.479867
H132	H	-0.130943	-0.709489	0.424397
H133	H	0.026652	-0.433515	0.407232
H134	H	0.632941	-0.464583	0.539193
C135	C	0.091881	-0.712224	0.620893
H136	H	0.060219	-0.712370	0.652735
H137	H	0.100552	-0.740051	0.608295
H138	H	0.121739	-0.718864	0.629431
C139	C	0.023508	0.009479	0.395700
H140	H	-0.012741	0.009467	0.409091
H141	H	0.027574	0.041229	0.364561
H142	H	0.048765	-0.022280	0.385735
C143	C	0.092082	0.009537	0.620626
H144	H	0.128334	0.009539	0.607238
H145	H	0.066827	0.041288	0.630599
H146	H	0.088020	-0.022222	0.651761
C147	C	-0.054826	-0.419082	1.083159
H148	H	-0.041607	-0.396083	1.083175
H149	H	-0.064779	-0.402696	1.051406
H150	H	-0.085933	-0.423878	1.114912
H151	H	0.189808	-0.596548	0.407092
H152	H	-0.042644	-0.596897	1.083039
C153	C	0.171129	-0.712150	1.083104
H154	H	0.157907	-0.735152	1.083095
H155	H	0.202236	-0.707356	1.051356
H156	H	0.181077	-0.728537	1.114863
H157	H	0.158967	-0.534314	1.083161
H158	H	0.056584	-0.439691	0.832846
H159	H	0.633014	-0.666272	0.476534
C160	C	0.202491	-0.568647	0.944906
H161	H	0.238774	-0.574141	0.919617
H162	H	0.196979	-0.551129	0.967254
H163	H	0.197022	-0.603013	0.967272
C164	C	0.094976	-0.249048	0.692586
H165	H	0.111079	-0.287285	0.698620
H166	H	0.108164	-0.239656	0.708678
H167	H	0.056307	-0.239661	0.708694
C168	C	0.242523	-0.528540	0.824553
H169	H	0.248540	-0.512441	0.786319
H170	H	0.258631	-0.515361	0.833936
H171	H	0.258628	-0.567214	0.833935
C172	C	0.045816	-0.430253	0.643466
H173	H	0.009521	-0.424743	0.648984
H174	H	0.051346	-0.447759	0.677810
H175	H	0.051310	-0.395897	0.625966
C176	C	0.005677	-0.470375	0.603367
H177	H	-0.013761	-0.448029	0.625743
H178	H	-0.003749	-0.450923	0.570973
H179	H	-0.003698	-0.502792	0.622809
C180	C	0.633157	-0.678429	0.654345
H181	H	0.633170	-0.665204	0.677347
H182	H	0.601425	-0.688403	0.670742
H183	H	0.664930	-0.709527	0.649524
H184	H	0.191560	-0.559196	0.514439
H185	H	0.382624	-0.397967	0.559385
C186	C	0.242334	-0.528483	0.545112
H187	H	0.261769	-0.550839	0.522746
H188	H	0.251713	-0.496072	0.525670
H189	H	0.251757	-0.547938	0.577510
C190	C	0.374485	-0.576725	0.631328
H191	H	0.336247	-0.557345	0.641562
H192	H	0.383865	-0.594843	0.607748
H193	H	0.383903	-0.602968	0.663173
C194	C	0.494830	-0.616833	0.591162
H195	H	0.533064	-0.622935	0.575865
H196	H	0.485463	-0.636821	0.629272
H197	H	0.485426	-0.628686	0.573843
C198	C	0.494783	-0.422105	0.516904
H199	H	0.533020	-0.441492	0.506680
H200	H	0.485368	-0.395861	0.485062
H201	H	0.485407	-0.403988	0.540487
C202	C	0.193127	-0.249001	0.496029
H203	H	0.198603	-0.223718	0.459739
H204	H	0.227490	-0.271356	0.501514
H205	H	0.175625	-0.271361	0.501544
H206	H	0.149018	-0.136838	0.472047
C207	C	0.054814	-0.128691	0.652506
H208	H	0.049332	-0.153973	0.688796
H209	H	0.072308	-0.106327	0.646991
H210	H	0.020448	-0.106339	0.647021
H211	H	-0.067855	-0.564093	0.333408
C212	C	-0.036970	-0.513409	0.221241
H213	H	-0.020814	-0.507389	0.183008
H214	H	-0.075632	-0.497275	0.230565
H215	H	-0.023810	-0.497329	0.230679
C216	C	0.061216	-0.710011	0.221374
H217	H	0.066672	-0.746295	0.246669
H218	H	0.043765	-0.704486	0.198957
H219	H	0.095591	-0.704555	0.199078
H220	H	0.016979	-0.733950	0.333522
H221	H	-0.067926	-0.564092	0.382165
H222	H	0.051334	-0.699339	0.502037
C223	C	-0.037696	-0.513399	0.413416
H224	H	-0.060121	-0.493932	0.391114
H225	H	-0.057217	-0.504348	0.446026
H226	H	-0.005486	-0.503682	0.394068
H227	H	0.058518	-0.740243	0.392731
C228	C	0.020692	-0.750035	0.471201
H229	H	0.004629	-0.756054	0.455047
H230	H	0.059360	-0.766170	0.458086
H231	H	0.007449	-0.766114	0.509870
C232	C	0.109055	-0.852428	0.425151
H233	H	0.115126	-0.890659	0.440439
H234	H	0.129090	-0.843065	0.387054
H235	H	0.120876	-0.843053	0.442524
C236	C	-0.085681	-0.852191	0.499052
H237	H	-0.121699	-0.826883	0.501101
H238	H	-0.076072	-0.874554	0.479516
H239	H	-0.084276	-0.874540	0.534981
H240	H	-0.116855	-0.691337	0.509456
H241	H	-0.220518	-0.571693	0.374008
C242	C	-0.229038	-0.660491	0.560017
H243	H	-0.203816	-0.682877	0.579527
H244	H	-0.251395	-0.628070	0.569392
H245	H	-0.251401	-0.679903	0.569357
H246	H	-0.116547	-0.606465	0.339541
