data_functionalizedCrystal
_audit_creation_method	'MofGen! by Chris Wilmer'
_symmetry_space_group_name_H-M	'P1'
_symmetry_Int_Tables_number	1
_symmetry_cell_setting	triclinic
loop_
_symmetry_equiv_pos_as_xyz
  x,y,z
_cell_length_a	16.109304
_cell_length_b	19.288864
_cell_length_c	14.586319
_cell_angle_alpha	89.982652
_cell_angle_beta	90.000981
_cell_angle_gamma	96.700557
loop_
_atom_site_label
_atom_site_type_symbol
_atom_site_fract_x
_atom_site_fract_y
_atom_site_fract_z
O1	O	0.103714	-0.921596	0.076529
O2	O	0.117705	-0.719369	0.076465
O3	O	-0.010341	-0.826037	0.076499
O4	O	0.231759	-0.814928	0.076495
O5	O	-0.010343	-0.826029	-0.075981
O6	O	0.117703	-0.719361	-0.076015
O7	O	0.103712	-0.921588	-0.075952
Cu8	Cu	0.110707	-0.820474	-0.089906
Cu9	Cu	0.110709	-0.820483	0.090420
O10	O	0.231757	-0.814921	-0.075986
C11	C	0.117253	-0.693488	0.000217
C12	C	0.115902	-0.616381	0.000193
C13	C	-0.041315	-0.825583	0.000261
C14	C	-0.133606	-0.824233	0.000267
C15	C	0.104163	-0.947470	0.000298
C16	C	0.105514	-1.024577	0.000328
C17	C	-0.345931	-0.821117	0.083380
C18	C	-0.432647	-0.819842	0.083378
C19	C	-0.432646	-0.819838	-0.082865
C20	C	-0.345931	-0.821108	-0.082862
C21	C	-0.302577	-0.821751	0.000262
C22	C	-0.476007	-0.819206	0.000259
C23	C	-0.570028	-0.817824	0.000257
C24	C	-0.208549	-0.823132	0.000265
C25	C	0.262731	-0.815375	0.000255
C26	C	0.355022	-0.816725	0.000255
N27	N	0.110705	-0.820473	-0.216738
C28	C	0.191033	-0.571864	0.000206
C29	C	0.189764	-0.499414	0.000216
C30	C	0.113359	-0.471484	0.000232
C31	C	0.038218	-0.516010	0.000213
C32	C	0.039489	-0.588458	0.000194
C33	C	0.053296	-0.363080	0.053684
C34	C	0.052028	-0.290633	0.053709
C35	C	0.109433	-0.248029	0.000287
C36	C	0.168121	-0.277879	-0.053148
C37	C	0.169393	-0.350328	-0.053167
C38	C	0.111971	-0.392926	0.000252
C39	C	0.183193	-0.124953	0.000310
C40	C	0.181920	-0.052502	0.000314
C41	C	0.030372	-0.069099	0.000321
C42	C	0.031647	-0.141549	0.000307
C43	C	0.108059	-0.169471	0.000306
C44	C	0.054025	-0.867721	-0.451730
C45	C	0.054023	-0.867723	-0.547711
C46	C	0.167387	-0.773236	-0.547750
C47	C	0.167384	-0.773232	-0.451771
C48	C	0.110705	-0.820478	-0.403763
C49	C	0.110705	-0.820485	-0.595724
C50	C	0.110703	-0.820487	-0.699791
C51	C	0.110705	-0.820475	-0.299689
N52	N	0.110705	-0.820490	0.217252
H53	H	-0.310634	-0.821639	0.151065
Cl54	Cl	-0.017233	-0.927114	-0.391381
H55	H	0.217176	-0.374630	-0.096679
H56	H	-0.310630	-0.821620	-0.150550
Cl57	Cl	-0.018878	-0.416633	0.120850
Cl58	Cl	-0.017235	-0.927116	-0.608009
H59	H	0.213536	-0.734770	-0.586848
H60	H	0.214865	-0.243192	-0.096650
Cl61	Cl	0.238640	-0.713832	-0.391464
Cl62	Cl	0.287095	-0.606963	0.000200
Cl63	Cl	-0.487146	-0.819044	0.187874
H64	H	-0.467956	-0.819316	-0.150542
H65	H	0.250946	-0.463162	0.000224
Cl66	Cl	0.279252	-0.160059	0.000299
H67	H	0.004244	-0.266334	0.097223
Cl68	Cl	-0.065682	-0.033993	0.000330
Cl69	Cl	0.276380	0.003463	0.000326
H70	H	-0.029534	-0.177795	0.000302
Cl71	Cl	-0.054969	-0.644425	0.000179
Cl72	Cl	-0.057835	-0.480898	0.000228
