data_functionalizedCrystal
_audit_creation_method	'MofGen! by Chris Wilmer'
_symmetry_space_group_name_H-M	'P1'
_symmetry_Int_Tables_number	1
_symmetry_cell_setting	triclinic
loop_
_symmetry_equiv_pos_as_xyz
  x,y,z
_cell_length_a	19.288864
_cell_length_b	16.109301
_cell_length_c	17.766277
_cell_angle_alpha	89.992214
_cell_angle_beta	89.976791
_cell_angle_gamma	83.298863
loop_
_atom_site_label
_atom_site_type_symbol
_atom_site_fract_x
_atom_site_fract_y
_atom_site_fract_z
O1	O	0.921601	0.103716	-0.062838
O2	O	0.719373	0.117707	-0.062787
O3	O	0.826042	-0.010338	-0.062806
O4	O	0.814932	0.231761	-0.062819
O5	O	0.826024	-0.010345	0.062382
O6	O	0.719355	0.117701	0.062402
O7	O	0.921582	0.103710	0.062351
Cu8	Cu	0.820467	0.110704	0.073807
Cu9	Cu	0.820489	0.110712	-0.074243
O10	O	0.814913	0.231755	0.062370
C11	C	0.693487	0.117254	-0.000186
C12	C	0.616380	0.115902	-0.000166
C13	C	0.825583	-0.041315	-0.000211
C14	C	0.824234	-0.133606	-0.000210
C15	C	0.571863	0.191034	-0.000182
C16	C	0.499413	0.189764	-0.000190
C17	C	0.471483	0.113359	-0.000198
C18	C	0.516009	0.038218	-0.000178
C19	C	0.588458	0.039489	-0.000162
C20	C	0.363084	0.053298	-0.044079
C21	C	0.290636	0.052029	-0.044100
C22	C	0.248028	0.109433	-0.000243
C23	C	0.277874	0.168120	0.043624
C24	C	0.350323	0.169391	0.043640
C25	C	0.392925	0.111971	-0.000214
C26	C	0.124952	0.183193	-0.000267
C27	C	0.052501	0.181920	-0.000270
C28	C	0.069099	0.030372	-0.000266
C29	C	0.141548	0.031647	-0.000254
C30	C	0.169470	0.108060	-0.000259
C31	C	0.884391	-0.356084	-0.000237
C32	C	0.883118	-0.442800	-0.000243
C33	C	0.756559	-0.422493	-0.000208
C34	C	0.757833	-0.335778	-0.000208
C35	C	0.821751	-0.302577	-0.000218
C36	C	0.819204	-0.476007	-0.000225
C37	C	0.817823	-0.570028	-0.000231
C38	C	0.823133	-0.208549	-0.000213
C39	C	0.947469	0.104163	-0.000252
C40	C	1.024576	0.105514	-0.000277
C41	C	0.815372	0.262732	-0.000227
C42	C	0.816722	0.355022	-0.000233
N43	N	0.820456	0.110699	0.177937
N44	N	0.820505	0.110711	-0.178373
C45	C	0.867704	0.054028	0.217315
C46	C	0.867708	0.054024	0.296117
C47	C	0.820471	0.110705	0.335538
C48	C	0.773214	0.167380	0.296150
C49	C	0.773206	0.167377	0.217350
C50	C	0.811353	0.186459	0.460373
C51	C	0.811365	0.186463	0.539172
C52	C	0.820489	0.110715	0.578584
C53	C	0.829616	0.034960	0.539188
C54	C	0.829609	0.034956	0.460387
C55	C	0.820473	0.110715	0.420983
C56	C	0.867745	0.054035	0.703408
C57	C	0.867744	0.054030	0.782212
C58	C	0.773252	0.167394	0.782243
C59	C	0.773250	0.167392	0.703441
C60	C	0.820500	0.110713	0.664028
H61	H	0.594592	0.253255	-0.000187
C62	C	0.908590	-0.090023	0.806464
C63	C	0.919686	-0.008267	0.825497
H64	H	0.940662	-0.128481	0.833184
H65	H	0.862248	-0.098914	0.819409
H66	H	0.915348	-0.098121	0.753890
H67	H	0.912923	-0.000167	0.878070
H68	H	0.966039	0.000627	0.812557
H69	H	0.936438	-0.329054	-0.000247
H70	H	0.046359	-0.031839	-0.000318
C71	C	0.631589	-0.393709	-0.000182
C72	C	0.686302	-0.458990	-0.000193
H73	H	0.588215	-0.416242	-0.000177
H74	H	0.634711	-0.360319	0.043471
H75	H	0.634731	-0.360303	-0.043841
H76	H	0.683163	-0.492394	0.043469
H77	H	0.683178	-0.492395	-0.043851
C78	C	1.008342	-0.454157	-0.000266
C79	C	0.951975	-0.501616	-0.000259
H80	H	1.050852	-0.490469	-0.000272
H81	H	1.006214	-0.419907	-0.043918
H82	H	1.006193	-0.419917	0.043395
H83	H	0.954121	-0.535850	-0.043922
H84	H	0.954104	-0.535879	0.043397
H85	H	0.374621	0.217173	0.079360
C86	C	0.685851	-0.226474	-0.064546
C87	C	0.688973	-0.276957	-0.000189
H88	H	0.643340	-0.190165	-0.064538
H89	H	0.724095	-0.194294	-0.064550
H90	H	0.687991	-0.260730	-0.108196
H91	H	0.686838	-0.242702	0.043461
H92	H	0.650719	-0.309140	-0.000178
H93	H	0.906176	0.007875	0.185228
H94	H	0.906185	0.007874	0.328185
H95	H	0.734751	0.213530	0.328250
H96	H	0.177795	-0.029534	-0.000246
C97	C	0.847639	-0.114800	0.468308
C98	C	0.839630	-0.048309	0.417082
H99	H	0.853819	-0.166204	0.441571
H100	H	0.887326	-0.110312	0.499016
H101	H	0.807197	-0.112984	0.499069
H102	H	0.880075	-0.050122	0.386325
H103	H	0.799939	-0.052799	0.386361
H104	H	0.837046	-0.026722	0.571275
C105	C	0.962318	0.035775	0.614813
C106	C	0.919724	-0.008240	0.660111
H107	H	0.994424	-0.002665	0.588098
H108	H	0.934184	0.069492	0.580059
H109	H	0.987241	0.070337	0.645566
H110	H	0.894797	-0.042799	0.629357
H111	H	0.947862	-0.041972	0.694869
H112	H	0.734788	0.213542	0.814338
C113	C	0.679859	0.279450	0.711389
C114	C	0.721320	0.229696	0.660151
H115	H	0.647800	0.317918	0.684662
H116	H	0.654887	0.244920	0.742141
H117	H	0.708772	0.309267	0.742106
H118	H	0.692406	0.199875	0.629438
H119	H	0.746293	0.264231	0.629387
H120	H	0.803938	0.248147	0.571243
H121	H	0.803911	0.248146	0.428290
H122	H	0.147687	0.245413	-0.000259
C123	C	0.679808	0.279432	0.225297
C124	C	0.721272	0.229680	0.174060
H125	H	0.647750	0.317900	0.198569
H126	H	0.654836	0.244901	0.256046
H127	H	0.708720	0.309249	0.256016
H128	H	0.692361	0.199859	0.143344
H129	H	0.746246	0.264217	0.143298
C130	C	0.239851	0.312638	0.069010
C131	C	0.231115	0.231305	0.091825
H132	H	0.210998	0.351668	0.098759
H133	H	0.287288	0.321704	0.075255
H134	H	0.227179	0.319703	0.017545
H135	H	0.243792	0.224238	0.143289
H136	H	0.183667	0.222236	0.085586
H137	H	0.397771	0.006551	-0.079797
C138	C	0.490276	0.339691	-0.000221
C139	C	0.450468	0.272354	-0.000218
H140	H	0.460059	0.390677	-0.000244
H141	H	0.518848	0.337045	0.043442
H142	H	0.518909	0.337024	-0.043870
H143	H	0.421838	0.275017	0.043435
H144	H	0.421884	0.275001	-0.043885
H145	H	0.016255	0.243104	-0.000279
H146	H	0.266341	0.004247	-0.079822
H147	H	0.624704	-0.021694	-0.000150
C148	C	0.507890	-0.091341	-0.064535
C149	C	0.485314	-0.045770	-0.000189
H150	H	0.488943	-0.143195	-0.064535
H151	H	0.492630	-0.060415	-0.108187
H152	H	0.557410	-0.101329	-0.064513
H153	H	0.435794	-0.035776	-0.000213
H154	H	0.500570	-0.076703	0.043475
