data_functionalizedCrystal
_audit_creation_method	'MofGen! by Chris Wilmer'
_symmetry_space_group_name_H-M	'P1'
_symmetry_Int_Tables_number	1
_symmetry_cell_setting	triclinic
loop_
_symmetry_equiv_pos_as_xyz
  x,y,z
_cell_length_a	19.077105
_cell_length_b	15.297510
_cell_length_c	19.077174
_cell_angle_alpha	77.696628
_cell_angle_beta	85.483752
_cell_angle_gamma	82.180037
loop_
_atom_site_label
_atom_site_type_symbol
_atom_site_fract_x
_atom_site_fract_y
_atom_site_fract_z
Zn1	Zn	1.036782	0.438342	-0.498720
Zn2	Zn	1.013196	0.582892	-0.399588
Zn3	Zn	0.915805	0.425731	-0.374481
Zn4	Zn	0.900097	0.582833	-0.512699
O5	O	0.966470	0.507450	-0.446372
O6	O	1.131615	0.462820	-0.490228
O7	O	0.996979	0.556791	-0.296927
O8	O	0.948297	0.301162	-0.374605
O9	O	1.114286	0.569020	-0.417396
O10	O	1.037179	0.310428	-0.465882
O11	O	0.925427	0.441326	-0.278481
O12	O	0.815760	0.441269	-0.388159
O13	O	0.921526	0.568919	-0.610176
O14	O	0.804220	0.556690	-0.489706
O15	O	1.021948	0.462763	-0.599906
O16	O	0.981748	0.709126	-0.430950
O17	O	0.898656	0.709082	-0.514052
C18	C	0.784589	0.497605	-0.437726
C19	C	0.706778	0.493417	-0.434046
C20	C	0.664218	0.551626	-0.485128
C21	C	0.591107	0.547678	-0.481672
C22	C	0.560557	0.485525	-0.427132
C23	C	0.603122	0.427310	-0.376048
C24	C	0.676232	0.431254	-0.379507
C25	C	0.342546	0.467273	-0.411127
C26	C	0.269430	0.463335	-0.407671
C27	C	0.257420	0.583703	-0.513297
C28	C	0.330531	0.587645	-0.516748
C29	C	0.373091	0.529427	-0.465666
N30	N	0.485826	0.481491	-0.423597
N31	N	0.447822	0.533458	-0.469204
C32	C	0.935958	0.741839	-0.476759
C33	C	0.922969	0.842117	-0.489785
C34	C	1.059564	1.124762	-0.353567
C35	C	1.071767	1.030546	-0.341325
C36	C	1.034569	0.983434	-0.378439
C37	C	0.985165	1.030547	-0.427797
C38	C	0.972957	1.124772	-0.440037
C39	C	0.947962	0.983444	-0.464908
C40	C	0.898558	1.030557	-0.514266
C41	C	0.886353	1.124773	-0.526504
C42	C	0.923551	1.171885	-0.489390
C43	C	0.960170	0.889219	-0.452669
C44	C	0.873563	0.889229	-0.539138
C45	C	0.861360	0.983445	-0.551381
C46	C	1.149061	0.517333	-0.455053
C47	C	1.226871	0.521545	-0.458752
C48	C	0.972616	0.517241	-0.631516
C49	C	0.975235	0.521413	-0.710414
C50	C	0.997115	1.272147	-0.415891
C51	C	1.010158	1.171875	-0.402921
C52	C	0.939214	0.463258	-0.737876
C53	C	0.941671	0.467186	-0.812009
C54	C	0.980154	0.529265	-0.858679
C55	C	1.016176	0.587426	-0.831213
C56	C	1.013715	0.583502	-0.757081
C57	C	0.991507	0.547452	-1.081420
C58	C	0.993968	0.551369	-1.155556
C59	C	0.919461	0.431130	-1.136348
C60	C	0.917006	0.427207	-1.062215
C61	C	0.953025	0.485372	-1.034755
N62	N	0.982668	0.533280	-0.934455
N63	N	0.950507	0.481361	-0.958981
C64	C	0.960397	0.497634	-0.261942
C65	C	0.957947	0.493214	-0.183018
H66	H	1.000394	0.850868	-0.412481
O67	O	1.099676	1.175592	-0.313552
H68	H	1.088200	1.153973	-0.254919
O69	O	0.363485	0.654688	-0.575567
H70	H	0.403257	0.618097	-0.608080
H71	H	0.907881	0.412702	-0.699881
O72	O	0.236461	0.396307	-0.348845
H73	H	0.260094	0.326925	-0.352596
H74	H	0.890135	0.383776	-1.158714
H75	H	0.846116	1.163129	-0.566686
H76	H	0.821135	1.021818	-0.591568
H77	H	0.843271	0.850871	-0.569358
H78	H	0.912335	0.419833	-0.834365
H79	H	0.913619	1.248603	-0.499357
H80	H	0.885667	0.376658	-1.024221
H81	H	1.020828	0.594823	-1.059073
H82	H	1.025308	0.601923	-1.193554
H83	H	1.047506	0.637977	-0.869218
H84	H	1.043053	0.630852	-0.734723
O85	O	0.545131	0.610459	-0.536705
H86	H	0.504810	0.652739	-0.509159
O87	O	0.697169	0.618659	-0.543956
H88	H	0.655289	0.658464	-0.578901
O89	O	0.211520	0.646485	-0.568397
H90	H	0.155550	0.633298	-0.556837
H91	H	1.044507	0.906719	-0.368467
O92	O	0.388442	0.404511	-0.356016
H93	H	0.354911	0.360647	-0.317501
O94	O	0.570174	0.360293	-0.317204
H95	H	0.512183	0.367342	-0.323370
O96	O	0.722140	0.368482	-0.324405
H97	H	0.688614	0.324608	-0.285892
H98	H	1.111990	0.992190	-0.301137
