data_functionalizedCrystal
_audit_creation_method	'MofGen! by Chris Wilmer'
_symmetry_space_group_name_H-M	'P1'
_symmetry_Int_Tables_number	1
_symmetry_cell_setting	triclinic
loop_
_symmetry_equiv_pos_as_xyz
  x,y,z
_cell_length_a	14.971486
_cell_length_b	15.995350
_cell_length_c	14.048226
_cell_angle_alpha	89.995798
_cell_angle_beta	89.998499
_cell_angle_gamma	83.553252
loop_
_atom_site_label
_atom_site_type_symbol
_atom_site_fract_x
_atom_site_fract_y
_atom_site_fract_z
O1	O	1.186822	0.109116	-0.079046
O2	O	1.686822	0.609116	0.420954
O3	O	0.926407	0.122183	-0.079072
O4	O	1.426407	0.622183	0.420928
O5	O	1.063733	-0.006231	-0.079057
O6	O	1.563733	0.493769	0.420943
O7	O	1.049496	0.237530	-0.079061
O8	O	1.549496	0.737530	0.420939
O9	O	1.063717	-0.006238	0.079264
O10	O	1.563717	0.493762	0.579264
O11	O	0.926391	0.122176	0.079250
O12	O	1.426391	0.622176	0.579250
O13	O	1.186806	0.109109	0.079275
O14	O	1.686806	0.609109	0.579275
Zn15	Zn	1.056596	0.115641	0.104399
Zn16	Zn	1.556596	0.615641	0.604399
Zn17	Zn	1.056617	0.115651	-0.104196
Zn18	Zn	1.556617	0.615651	0.395804
O19	O	1.049480	0.237523	0.079261
O20	O	1.549480	0.737523	0.579261
C21	C	0.893075	0.121595	0.000086
C22	C	1.393075	0.621595	0.500086
C23	C	0.793780	0.119844	0.000076
C24	C	1.293780	0.619844	0.500076
C25	C	0.736468	0.195284	0.000076
C26	C	1.236468	0.695284	0.500076
C27	C	0.643171	0.193633	0.000090
C28	C	1.143171	0.693633	0.500090
C29	C	0.607187	0.116542	0.000098
C30	C	1.107187	0.616542	0.500098
C31	C	0.664505	0.041097	0.000100
C32	C	1.164505	0.541097	0.500100
C33	C	0.757801	0.042748	0.000093
C34	C	1.257801	0.542748	0.500093
C35	C	0.470047	0.037660	0.000113
C36	C	0.970047	0.537660	0.500113
C37	C	0.376745	0.036008	0.000119
C38	C	0.876745	0.536008	0.500119
C39	C	0.355417	0.188545	0.000111
C40	C	0.855417	0.688545	0.500111
C41	C	0.448712	0.190197	0.000104
C42	C	0.948712	0.690197	0.500104
C43	C	0.506025	0.114751	0.000104
C44	C	1.006025	0.614751	0.500104
C45	C	1.063137	-0.037430	0.000101
C46	C	1.563137	0.462570	0.500101
C47	C	1.061372	-0.130382	0.000096
C48	C	1.561372	0.369618	0.500096
C49	C	1.055035	-0.468136	0.000098
C50	C	1.555035	0.031864	0.500098
C51	C	0.957234	-0.420800	-0.000266
C52	C	1.457234	0.079200	0.499734
C53	C	0.958999	-0.324108	0.000091
C54	C	1.458999	0.175892	0.500091
C55	C	1.058178	-0.300572	0.000097
C56	C	1.558178	0.199428	0.500097
C57	C	1.106408	-0.341606	0.090509
C58	C	1.606408	0.158394	0.590509
C59	C	1.103951	-0.438244	0.090584
C60	C	1.603951	0.061756	0.590584
C61	C	1.105990	-0.438591	-0.089456
C62	C	1.605990	0.061409	0.410544
C63	C	1.105967	-0.341646	-0.090651
C64	C	1.605967	0.158354	0.409349
C65	C	1.059960	-0.205873	0.000099
C66	C	1.559960	0.294127	0.500099
C67	C	1.053256	-0.562835	0.000103
C68	C	1.553256	-0.062835	0.500103
C69	C	1.220138	0.109697	0.000116
C70	C	1.720138	0.609697	0.500116
C71	C	1.319433	0.111448	0.000119
C72	C	1.819433	0.611448	0.500119
C73	C	1.050077	0.268722	0.000100
C74	C	1.550077	0.768722	0.500100
C75	C	1.051841	0.361674	0.000099
C76	C	1.551841	0.861674	0.500099
N77	N	1.056587	0.115634	0.246760
N78	N	1.556587	0.615634	0.746760
N79	N	1.056633	0.115652	-0.246557
N80	N	1.556633	0.615652	0.253443
C81	C	1.117414	0.058795	0.296584
C82	C	1.617414	0.558795	0.796584
C83	C	1.117421	0.058795	0.396242
C84	C	1.617421	0.558795	0.896242
C85	C	1.056603	0.115637	0.446073
C86	C	1.556603	0.615637	0.946073
C87	C	0.995769	0.172478	0.396242
C88	C	1.495769	0.672478	0.896242
C89	C	0.995760	0.172474	0.296586
C90	C	1.495760	0.672474	0.796586
C91	C	0.995795	0.172484	0.603956
C92	C	1.495795	0.672484	1.103956
C93	C	0.995806	0.172490	0.703619
C94	C	1.495806	0.672490	1.203619
C95	C	1.117456	0.058805	0.703612
C96	C	1.617456	0.558805	1.203612
C97	C	1.117446	0.058801	0.603956
C98	C	1.617446	0.558801	1.103956
C99	C	1.056614	0.115643	0.554132
C100	C	1.556614	0.615643	1.054132
H101	H	0.921086	-0.295721	-0.064720
H102	H	1.421086	0.204279	0.435280
H103	H	1.072896	-0.313261	0.157786
H104	H	1.572896	0.186739	0.657786
N105	N	0.933678	0.230536	0.754537
N106	N	1.433678	0.730536	1.254537
N107	N	0.933700	0.230527	0.843515
N108	N	1.433700	0.730527	1.343515
H109	H	0.889821	0.271522	0.879478
H110	H	1.389821	0.771522	1.379478
N111	N	0.485489	0.268933	0.000088
N112	N	0.985489	0.768933	0.500088
N113	N	0.535171	0.286867	-0.066652
N114	N	1.035171	0.786867	0.433348
H115	H	0.561147	0.342475	-0.066662
H116	H	1.061147	0.842475	0.433338
H117	H	0.308748	0.249976	0.000115
H118	H	0.808748	0.749976	0.500115
H119	H	0.946256	0.218769	0.563393
H120	H	1.446256	0.718769	1.063393
H121	H	0.804464	-0.018683	0.000092
H122	H	1.304464	0.481317	0.500092
H123	H	0.946246	0.218758	0.436821
H124	H	1.446246	0.718758	0.936821
N125	N	0.933629	0.230547	0.245703
N126	N	1.433629	0.730547	0.745703
N127	N	0.934850	0.307943	0.256823
N128	N	1.434850	0.807943	0.756823
H129	H	0.890967	0.348958	0.220889
H130	H	1.390967	0.848958	0.720889
N131	N	0.340000	-0.042744	0.000128
N132	N	0.840000	0.457256	0.500128
N133	N	0.391179	-0.110099	0.000138
N134	N	0.891179	0.389901	0.500138
H135	H	0.365229	-0.165720	0.000146
H136	H	0.865229	0.334280	0.500146
N137	N	1.179592	0.000726	0.754486
N138	N	1.679592	0.500726	1.254486
N139	N	1.233890	-0.050020	0.709983
N140	N	1.733890	0.449980	1.209983
H141	H	1.277775	-0.091036	0.745915
H142	H	1.777775	0.408964	1.245915
N143	N	0.528579	-0.039413	0.000126
N144	N	1.028579	0.460587	0.500126
N145	N	0.496441	-0.108240	0.000134
N146	N	0.996441	0.391760	0.500134
H147	H	0.537779	-0.162672	0.000142
H148	H	1.037779	0.337328	0.500142
H149	H	0.596511	0.255064	0.000090
H150	H	1.096511	0.755064	0.500090
H151	H	1.166973	0.012520	0.563384
H152	H	1.666973	0.512520	1.063384
H153	H	0.635200	-0.021672	0.000119
H154	H	1.135200	0.478328	0.500119
N155	N	0.773206	0.274039	0.000060
N156	N	1.273206	0.774039	0.500060
N157	N	0.722020	0.341390	0.000063
N158	N	1.222020	0.841390	0.500063
H159	H	0.747963	0.397014	0.000054
H160	H	1.247963	0.897014	0.500054
H161	H	0.918150	-0.439368	-0.065103
H162	H	1.418150	0.060632	0.434897
H163	H	0.920818	-0.296284	0.065005
H164	H	1.420818	0.203716	0.565005
N165	N	0.908410	-0.445439	0.080609
N166	N	1.408410	0.054561	0.580609
N167	N	0.945330	-0.497709	0.138514
N168	N	1.445330	0.002291	0.638514
H169	H	0.910851	-0.515113	0.195633
H170	H	1.410851	-0.015113	0.695633
N171	N	1.059796	-0.461241	0.175356
N172	N	1.559796	0.038759	0.675356
N173	N	0.980386	-0.431598	0.191393
N174	N	1.480386	0.068402	0.691393
H175	H	0.949198	-0.447835	0.251264
H176	H	1.449198	0.052165	0.751264
N177	N	1.194029	-0.478602	0.095748
N178	N	1.694029	0.021398	0.595748
N179	N	1.258506	-0.435370	0.099292
N180	N	1.758506	0.064630	0.599292
H181	H	1.322123	-0.463868	0.102946
H182	H	1.822123	0.036132	0.602946
N183	N	1.197815	-0.323794	0.094723
N184	N	1.697815	0.176206	0.594723
N185	N	1.228506	-0.280554	0.030987
N186	N	1.728506	0.219446	0.530987
H187	H	1.293063	-0.267974	0.033960
H188	H	1.793063	0.232026	0.533960
H189	H	1.178098	-0.470280	-0.090060
H190	H	1.678098	0.029720	0.409940
N191	N	1.065904	-0.464405	-0.175427
N192	N	1.565904	0.035595	0.324573
N193	N	1.062186	-0.540815	-0.191382
N194	N	1.562186	-0.040815	0.308618
H195	H	1.033870	-0.559047	-0.252096
H196	H	1.533870	-0.059047	0.247904
N197	N	1.061781	-0.307438	-0.174554
N198	N	1.561781	0.192562	0.325446
N199	N	0.995342	-0.253008	-0.167617
N200	N	1.495342	0.246992	0.332383
H201	H	0.964132	-0.228844	-0.226872
H202	H	1.464132	0.271156	0.273128
H203	H	1.178293	-0.326211	-0.096106
H204	H	1.678293	0.173789	0.403894
N205	N	1.179498	0.000681	0.245702
N206	N	1.679498	0.500681	0.745702
N207	N	1.233766	-0.050098	0.290205
N208	N	1.733766	0.449902	0.790205
H209	H	1.277593	-0.091164	0.254273
H210	H	1.777593	0.408836	0.754273
H211	H	1.166950	0.012513	0.436809
H212	H	1.666950	0.512513	0.936809
