data_functionalizedCrystal
_audit_creation_method	'MofGen! by Chris Wilmer'
_symmetry_space_group_name_H-M	'P1'
_symmetry_Int_Tables_number	1
_symmetry_cell_setting	triclinic
loop_
_symmetry_equiv_pos_as_xyz
  x,y,z
_cell_length_a	19.288859
_cell_length_b	19.288865
_cell_length_c	17.766277
_cell_angle_alpha	89.989546
_cell_angle_beta	90.010268
_cell_angle_gamma	96.865014
loop_
_atom_site_label
_atom_site_type_symbol
_atom_site_fract_x
_atom_site_fract_y
_atom_site_fract_z
O1	O	0.921356	-0.086627	0.062618
O2	O	0.719095	-0.098320	0.062617
O3	O	0.826070	0.008657	0.062602
O4	O	0.814381	-0.193604	0.062632
O5	O	0.826051	0.008660	-0.062586
O6	O	0.719076	-0.098317	-0.062571
O7	O	0.921337	-0.086624	-0.062571
Cu8	Cu	0.820204	-0.092470	-0.074002
Cu9	Cu	0.820227	-0.092474	0.074048
O10	O	0.814362	-0.193601	-0.062556
C11	C	0.693209	-0.097943	0.000022
C12	C	0.616105	-0.096816	0.000022
C13	C	0.052064	-0.151959	0.000031
C14	C	0.124511	-0.153025	0.000035
C15	C	0.169217	-0.090255	0.000024
C16	C	0.141472	-0.026416	0.000029
C17	C	0.069027	-0.025353	0.000032
C18	C	0.290481	-0.043441	-0.043845
C19	C	0.362925	-0.044507	-0.043853
C20	C	0.392663	-0.093533	0.000017
C21	C	0.349948	-0.141504	0.043885
C22	C	0.277502	-0.140440	0.043888
C23	C	0.247773	-0.091401	0.000021
C24	C	0.498955	-0.158523	0.000022
C25	C	0.571403	-0.159586	0.000031
C26	C	0.588364	-0.032976	0.000017
C27	C	0.515917	-0.031915	0.000016
C28	C	0.471216	-0.094691	0.000015
C29	C	0.825684	0.034535	0.000006
C30	C	0.824555	0.111638	-0.000001
C31	C	0.947223	-0.087001	0.000025
C32	C	1.024327	-0.088128	0.000031
N33	N	0.820194	-0.092467	-0.178132
C34	C	0.814747	-0.219479	0.000042
C35	C	0.815876	-0.296583	0.000053
C36	C	0.887323	0.156336	-0.000004
C37	C	0.886262	0.228783	0.000008
C38	C	0.822430	0.256529	0.000008
C39	C	0.759654	0.211822	0.000016
C40	C	0.760716	0.139376	0.000011
C41	C	0.772244	0.364816	-0.043843
C42	C	0.771184	0.437261	-0.043843
C43	C	0.819150	0.479975	0.000025
C44	C	0.868189	0.450237	0.043883
C45	C	0.869251	0.377791	0.043879
C46	C	0.821271	0.335083	0.000013
C47	C	0.880773	0.603228	0.000035
C48	C	0.879709	0.675676	0.000052
C49	C	0.753099	0.658713	0.000052
C50	C	0.754164	0.586267	0.000043
C51	C	0.818003	0.558529	0.000031
C52	C	0.862181	-0.134490	-0.217506
C53	C	0.862192	-0.134488	-0.296308
C54	C	0.820203	-0.092472	-0.335733
C55	C	0.778212	-0.050440	-0.296349
C56	C	0.778208	-0.050438	-0.217549
C57	C	0.757590	-0.090716	-0.460593
C58	C	0.757593	-0.090723	-0.539392
C59	C	0.820217	-0.092474	-0.578779
C60	C	0.882839	-0.094232	-0.539358
C61	C	0.882835	-0.094230	-0.460558
C62	C	0.820203	-0.092469	-0.421179
C63	C	0.862220	-0.134497	-0.703599
C64	C	0.862232	-0.134490	-0.782402
C65	C	0.778246	-0.050445	-0.782442
C66	C	0.778240	-0.050448	-0.703640
C67	C	0.820226	-0.092478	-0.664224
N68	N	0.820243	-0.092471	0.178178
H69	H	0.593984	-0.211567	0.000037
Br70	Br	0.672606	-0.088347	-0.592884
Br71	Br	0.971454	0.289456	0.000006
Br72	Br	0.721270	0.006590	-0.835939
H73	H	0.744047	-0.016232	-0.671582
Br74	Br	0.649029	0.052213	0.000019
Br75	Br	0.672602	-0.088274	-0.407147
H76	H	0.744025	-0.016229	-0.328454
Br77	Br	0.438286	-0.243716	0.000021
Br78	Br	0.967816	-0.096616	-0.407059
H79	H	0.703051	0.549873	0.000042
H80	H	0.015673	-0.203077	0.000034
Br81	Br	0.721217	0.006594	-0.164109
H82	H	0.731251	0.461467	-0.079551
Br83	Br	0.707140	0.306855	-0.103384
H84	H	0.907247	0.485013	0.079606
Br85	Br	0.967835	-0.096610	-0.592801
Br86	Br	0.919182	-0.191521	-0.349756
Br87	Br	0.935796	0.337433	0.103402
H88	H	0.896408	-0.168719	-0.671504
H89	H	0.896429	-0.168708	-0.814459
Br90	Br	0.031381	0.061282	0.000037
H91	H	0.147099	-0.205005	0.000028
Br92	Br	0.478270	0.054718	0.000023
H93	H	0.932754	0.580643	0.000029
H94	H	0.930825	0.712069	0.000053
H95	H	0.701125	0.681303	0.000056
Br96	Br	0.219534	-0.205537	0.103424
Br97	Br	0.673023	0.249475	0.000026
H98	H	0.374158	-0.181427	0.079606
Br99	Br	0.919145	-0.191547	-0.164015
H100	H	0.709601	0.102982	0.000014
Br101	Br	0.973961	0.118695	0.000000
Br102	Br	0.420887	0.020587	-0.103396
H103	H	0.266275	-0.003515	-0.079570
H104	H	0.177877	0.024691	0.000022
