data_functionalizedCrystal
_audit_creation_method	'MofGen! by Chris Wilmer'
_symmetry_space_group_name_H-M	'P1'
_symmetry_Int_Tables_number	1
_symmetry_cell_setting	triclinic
loop_
_symmetry_equiv_pos_as_xyz
  x,y,z
_cell_length_a	15.711784
_cell_length_b	14.750779
_cell_length_c	16.992695
_cell_angle_alpha	103.520651
_cell_angle_beta	105.128512
_cell_angle_gamma	73.498376
loop_
_atom_site_label
_atom_site_type_symbol
_atom_site_fract_x
_atom_site_fract_y
_atom_site_fract_z
O1	O	1.159289	0.079876	0.450616
O2	O	1.659289	0.579876	0.950616
O3	O	0.903419	0.079867	0.389703
O4	O	1.403419	0.579867	0.889703
O5	O	1.030330	0.079864	0.305722
O6	O	1.530330	0.579864	0.805722
O7	O	1.032378	0.079879	0.534598
O8	O	1.532378	0.579879	1.034598
O9	O	1.066206	-0.079787	0.281985
O10	O	1.566206	0.420213	0.781985
O11	O	0.939296	-0.079784	0.365966
O12	O	1.439296	0.420216	0.865966
O13	O	1.195165	-0.079775	0.426880
O14	O	1.695165	0.420225	0.926880
Zn15	Zn	1.072927	-0.105128	0.392654
Zn16	Zn	1.572927	0.394872	0.892654
Zn17	Zn	1.025658	0.105220	0.423928
Zn18	Zn	1.525658	0.605220	0.923928
O19	O	1.068254	-0.079772	0.510861
O20	O	1.568254	0.420228	1.010861
C21	C	0.888466	0.000040	0.367884
C22	C	1.388466	0.500040	0.867884
C23	C	0.790460	0.000037	0.338225
C24	C	1.290460	0.500037	0.838225
N25	N	1.105193	-0.248684	0.371312
N26	N	1.605193	0.251316	0.871312
C27	C	0.657801	0.000029	0.226568
C28	C	1.157801	0.500029	0.726568
C29	C	0.749892	0.000031	0.254446
C30	C	1.249892	0.500031	0.754446
C31	C	0.738944	0.000045	0.394160
C32	C	1.238944	0.500045	0.894160
C33	C	0.646849	0.000046	0.366295
C34	C	1.146849	0.500046	0.866295
C35	C	0.606285	0.000037	0.282498
C36	C	1.106285	0.500037	0.782498
C37	C	0.595333	0.000055	0.422225
C38	C	1.095333	0.500055	0.922225
C39	C	0.503247	0.000052	0.394361
C40	C	1.003247	0.500052	0.894361
C41	C	0.462677	0.000040	0.310567
C42	C	0.962677	0.500040	0.810567
C43	C	0.514199	0.000034	0.254634
C44	C	1.014199	0.500034	0.754634
C45	C	0.635900	0.000057	0.506020
C46	C	1.135900	0.500057	1.006020
C47	C	0.584383	0.000066	0.561950
C48	C	1.084383	0.500066	1.061950
C49	C	0.492294	0.000070	0.534087
C50	C	0.992294	0.500070	1.034087
C51	C	0.451724	0.000058	0.450293
C52	C	0.951724	0.500058	0.950293
C53	C	0.440772	0.000076	0.590020
C54	C	0.940772	0.500076	1.090020
C55	C	0.348686	0.000073	0.562156
C56	C	0.848686	0.500073	1.062156
C57	C	0.359639	0.000055	0.422429
C58	C	0.859639	0.500055	0.922429
C59	C	0.903282	-0.600497	0.504837
C60	C	1.403282	-0.100497	1.004837
C61	C	0.925898	-0.700997	0.489889
C62	C	1.425898	-0.200997	0.989889
C63	C	1.038305	-0.700963	0.415571
C64	C	1.538305	-0.200963	0.915571
C65	C	1.015695	-0.600461	0.430509
C66	C	1.515695	-0.100461	0.930509
C67	C	0.948183	-0.550236	0.475144
C68	C	1.448183	-0.050236	0.975144
C69	C	1.060596	-0.550200	0.400816
C70	C	1.560596	-0.050200	0.900816
C71	C	1.037991	-0.449707	0.415757
C72	C	1.537991	0.050293	0.915757
C73	C	0.970483	-0.399475	0.460392
C74	C	1.470483	0.100525	0.960392
C75	C	0.925577	-0.449743	0.490085
C76	C	1.425577	0.050257	0.990085
C77	C	1.128112	-0.600426	0.356187
C78	C	1.628112	-0.100426	0.856187
C79	C	1.173014	-0.550165	0.326493
C80	C	1.673014	-0.050165	0.826493
C81	C	1.150404	-0.449670	0.341429
C82	C	1.650404	0.050330	0.841429
C83	C	1.082897	-0.399438	0.386064
C84	C	1.582897	0.100562	0.886064
C85	C	1.195310	-0.399402	0.311736
C86	C	1.695310	0.100598	0.811736
C87	C	1.172704	-0.298909	0.326677
C88	C	1.672704	0.201091	0.826677
C89	C	1.060291	-0.298945	0.401005
C90	C	1.560291	0.201055	0.901005
C91	C	1.210118	0.000054	0.448699
C92	C	1.710118	0.500054	0.948699
C93	C	1.308123	0.000063	0.478359
C94	C	1.808123	0.500063	0.978359
C95	C	1.045629	0.000038	0.263884
C96	C	1.545629	0.500038	0.763884
C97	C	1.037755	0.000038	0.174581
C98	C	1.537755	0.500038	0.674581
N99	N	0.993398	0.248776	0.445266
N100	N	1.493398	0.748776	0.945266
C101	C	1.113730	0.000040	0.146133
C102	C	1.613730	0.500040	0.646133
C103	C	1.106324	0.000049	0.062224
C104	C	1.606324	0.500049	0.562224
C105	C	1.022944	0.000049	0.006763
C106	C	1.522944	0.500049	0.506763
C107	C	0.946963	0.000050	0.035216
C108	C	1.446963	0.500050	0.535216
C109	C	0.954368	0.000048	0.119125
C110	C	1.454368	0.500048	0.619125
C111	C	0.992252	0.000061	-0.245635
C112	C	1.492252	0.500061	0.254365
C113	C	0.984853	0.000060	-0.329549
C114	C	1.484853	0.500060	0.170451
C115	C	1.144214	0.000061	-0.302536
C116	C	1.644214	0.500061	0.197464
C117	C	1.151613	0.000053	-0.218628
C118	C	1.651613	0.500053	0.281372
C119	C	1.075631	0.000059	-0.190181
C120	C	1.575631	0.500059	0.309819
N121	N	1.015373	0.000055	-0.079006
N122	N	1.515373	0.500055	0.420994
N123	N	1.083202	0.000060	-0.104412
N124	N	1.583202	0.500060	0.395588
C125	C	1.052955	0.000056	0.552699
C126	C	1.552955	0.500056	1.052699
C127	C	1.060828	0.000062	0.642003
C128	C	1.560828	0.500062	1.142003
H129	H	0.326607	0.000057	0.354195
H130	H	0.826607	0.500057	0.854195
H131	H	0.848300	-0.559602	0.541176
H132	H	1.348300	-0.059602	1.041176
Cl133	Cl	0.463198	0.000020	0.149287
Cl134	Cl	0.963198	0.500020	0.649287
H135	H	0.710883	0.000056	0.528704
H136	H	1.210883	0.500056	1.028704
H137	H	0.624770	0.000031	0.158334
H138	H	1.124770	0.500031	0.658334
H139	H	0.617424	0.000070	0.630177
H140	H	1.117424	0.500070	1.130177
Cl141	Cl	0.491780	0.000077	0.695359
Cl142	Cl	0.991780	0.500077	1.195359
Cl143	Cl	0.896730	0.000072	-0.209884
Cl144	Cl	1.396730	0.500072	0.290116
H145	H	1.219510	0.000052	-0.173476
H146	H	1.719510	0.500052	0.326524
Cl147	Cl	0.975407	-0.235802	0.457108
Cl148	Cl	1.475407	0.264198	0.957108
H149	H	1.146518	-0.682254	0.344027
H150	H	1.646518	-0.182254	0.844027
H151	H	0.306741	0.000076	0.607699
H152	H	0.806741	0.500076	1.107699
H153	H	1.227985	-0.591070	0.290154
H154	H	1.727985	-0.091070	0.790154
Cl155	Cl	0.858852	0.000050	0.154888
Cl156	Cl	1.358852	0.500050	0.654888
Cl157	Cl	0.942068	-0.273139	0.479180
Cl158	Cl	1.442068	0.226861	0.979180
H159	H	0.879072	0.000057	-0.009946
H160	H	1.379072	0.500057	0.490054
H161	H	1.250285	-0.440308	0.275401
H162	H	1.750285	0.059692	0.775401
Cl163	Cl	0.840693	-0.386600	0.546188
Cl164	Cl	1.340693	0.113400	1.046188
H165	H	0.387696	0.000028	0.287880
H166	H	0.887696	0.500028	0.787880
H167	H	0.889329	-0.741915	0.514074
H168	H	1.389329	-0.241915	1.014074
H169	H	0.791833	0.000028	0.208895
H170	H	1.291833	0.500028	0.708895
H171	H	1.093277	-0.741867	0.379231
H172	H	1.593277	-0.241867	0.879231
H173	H	1.209269	-0.257986	0.302498
H174	H	1.709269	0.242014	0.802498
H175	H	1.181628	0.000034	0.191284
H176	H	1.681628	0.500034	0.691284
H177	H	0.771984	0.000049	0.462387
H178	H	1.271984	0.500049	0.962387
Cl179	Cl	1.201840	0.000048	0.026465
Cl180	Cl	1.701840	0.500048	0.526465
H181	H	0.916955	0.000045	-0.374708
H182	H	1.416955	0.500045	0.125292
Cl183	Cl	1.239727	0.000055	-0.338302
Cl184	Cl	1.739727	0.500055	0.161698
