data_functionalizedCrystal
_audit_creation_method	'MofGen! by Chris Wilmer'
_symmetry_space_group_name_H-M	'P1'
_symmetry_Int_Tables_number	1
_symmetry_cell_setting	triclinic
loop_
_symmetry_equiv_pos_as_xyz
  x,y,z
_cell_length_a	18.215407
_cell_length_b	18.215405
_cell_length_c	12.759393
_cell_angle_alpha	89.963505
_cell_angle_beta	89.980045
_cell_angle_gamma	90.022344
loop_
_atom_site_label
_atom_site_type_symbol
_atom_site_fract_x
_atom_site_fract_y
_atom_site_fract_z
Zn1	Zn	1.125094	-0.292999	-0.593949
Zn2	Zn	1.458427	0.040335	-0.260615
Zn3	Zn	1.791761	0.373668	0.072718
Zn4	Zn	1.124996	-0.416083	-0.418250
Zn5	Zn	1.458329	-0.082749	-0.084917
Zn6	Zn	1.791663	0.250584	0.248416
Zn7	Zn	1.002020	-0.293029	-0.418287
Zn8	Zn	1.335353	0.040304	-0.084954
Zn9	Zn	1.668687	0.373638	0.248380
Zn10	Zn	1.001993	-0.416022	-0.593891
Zn11	Zn	1.335326	-0.082689	-0.260557
Zn12	Zn	1.668659	0.250644	0.072776
O13	O	1.063526	-0.354533	-0.506094
O14	O	1.396859	-0.021200	-0.172761
O15	O	1.730192	0.312134	0.160573
O16	O	1.228065	-0.309338	-0.570651
O17	O	1.561399	0.023995	-0.237318
O18	O	1.894732	0.357328	0.096016
O19	O	1.108653	-0.399797	-0.271234
O20	O	1.441987	-0.066464	0.062099
O21	O	1.775320	0.266869	0.395433
O22	O	1.018399	-0.190041	-0.441628
O23	O	1.351732	0.143293	-0.108295
O24	O	1.685065	0.476626	0.225038
O25	O	1.227993	-0.399768	-0.441566
O26	O	1.561327	-0.066434	-0.108233
O27	O	1.894660	0.266899	0.225100
O28	O	1.108821	-0.190018	-0.570686
O29	O	1.442154	0.143315	-0.237353
O30	O	1.775487	0.476648	0.095980
O31	O	1.018304	-0.309390	-0.271261
O32	O	1.351637	0.023943	0.062072
O33	O	1.684970	0.357276	0.395406
O34	O	0.899032	-0.309332	-0.441572
O35	O	1.232366	0.024001	-0.108239
O36	O	1.565699	0.357335	0.225095
O37	O	1.018352	-0.399665	-0.740919
O38	O	1.351685	-0.066332	-0.407586
O39	O	1.685018	0.267001	-0.074253
O40	O	0.899012	-0.399695	-0.570587
O41	O	1.232345	-0.066361	-0.237254
O42	O	1.565679	0.266972	0.096079
O43	O	1.108794	-0.309280	-0.740962
O44	O	1.442127	0.024053	-0.407629
O45	O	1.775461	0.357387	-0.074295
O46	O	1.108627	-0.519059	-0.441510
O47	O	1.441960	-0.185726	-0.108177
O48	O	1.775293	0.147608	0.225157
O49	O	1.018257	-0.519015	-0.570552
O50	O	1.351590	-0.185681	-0.237219
O51	O	1.684923	0.147652	0.096115
C52	C	0.872319	-0.354511	-0.506078
C53	C	1.205653	-0.021177	-0.172745
C54	C	1.538986	0.312156	0.160589
C55	C	0.790521	-0.354519	-0.506096
C56	C	1.123854	-0.021185	-0.172763
C57	C	1.457187	0.312148	0.160571
C58	C	0.525472	-0.401662	-0.573180
C59	C	0.858805	-0.068329	-0.239847
C60	C	1.192138	0.265004	0.093486
C61	C	0.602330	-0.401656	-0.573175
C62	C	0.935664	-0.068323	-0.239842
C63	C	1.268997	0.265011	0.093492
C64	C	0.602321	-0.307421	-0.439027
C65	C	0.935654	0.025913	-0.105693
C66	C	1.268988	0.359246	0.227640
C67	C	0.525464	-0.307431	-0.439027
C68	C	0.858797	0.025902	-0.105694
C69	C	1.192130	0.359236	0.227640
C70	C	0.487041	-0.354551	-0.506110
C71	C	0.820374	-0.021218	-0.172777
C72	C	1.153708	0.312116	0.160557
C73	C	0.640757	-0.354534	-0.506104
C74	C	0.974090	-0.021201	-0.172771
C75	C	1.307424	0.312133	0.160562
C76	C	0.724091	-0.354527	-0.506098
C77	C	1.057424	-0.021194	-0.172765
C78	C	1.390757	0.312140	0.160568
C79	C	0.403702	-0.354559	-0.506115
C80	C	0.737035	-0.021226	-0.172781
C81	C	1.070369	0.312107	0.160552
C82	C	1.063448	-0.545739	-0.506044
C83	C	1.396781	-0.212406	-0.172710
C84	C	1.730115	0.120927	0.160623
C85	C	1.063482	-0.627538	-0.506057
C86	C	1.396815	-0.294205	-0.172724
C87	C	1.730149	0.039128	0.160610
C88	C	1.110648	-0.815731	-0.438989
C89	C	1.443982	-0.482397	-0.105655
C90	C	1.777315	-0.149064	0.227678
C91	C	1.110681	-0.892590	-0.439014
C92	C	1.444014	-0.559256	-0.105681
C93	C	1.777348	-0.225923	0.227653
C94	C	1.016497	-0.892583	-0.573275
C95	C	1.349831	-0.559250	-0.239942
C96	C	1.683164	-0.225917	0.093391
C97	C	1.016469	-0.815726	-0.573254
C98	C	1.349802	-0.482393	-0.239921
C99	C	1.683135	-0.149059	0.093412
C100	C	1.063543	-0.777302	-0.506105
C101	C	1.396876	-0.443968	-0.172772
C102	C	1.730210	-0.110635	0.160562
C103	C	1.063605	-0.931018	-0.506151
C104	C	1.396938	-0.597685	-0.172818
C105	C	1.730271	-0.264351	0.160515
C106	C	1.063640	-1.014351	-0.506179
C107	C	1.396973	-0.681018	-0.172846
C108	C	1.730307	-0.347685	0.160487
C109	C	1.063509	-0.693963	-0.506078
C110	C	1.396842	-0.360630	-0.172745
C111	C	1.730176	-0.027296	0.160589
C112	C	1.255479	-0.354556	-0.506111
C113	C	1.588812	-0.021223	-0.172778
C114	C	1.922145	0.312110	0.160556
C115	C	1.337277	-0.354566	-0.506118
C116	C	1.670611	-0.021233	-0.172785
C117	C	2.003944	0.312100	0.160549
C118	C	1.063581	-0.354463	-0.780128
C119	C	1.396914	-0.021129	-0.446794
C120	C	1.730247	0.312204	-0.113461
C121	C	1.063604	-0.354432	-0.896904
C122	C	1.396938	-0.021099	-0.563571
C123	C	1.730271	0.312234	-0.230238
C124	C	1.063624	-0.162580	-0.506168
C125	C	1.396957	0.170753	-0.172835
C126	C	1.730290	0.504086	0.160499
C127	C	1.063666	-0.080781	-0.506199
C128	C	1.396999	0.252552	-0.172866
C129	C	1.730332	0.585885	0.160467
C130	C	1.110701	-0.307361	-0.951790
C131	C	1.444034	0.025972	-0.618457
C132	C	1.777368	0.359305	-0.285124
C133	C	1.110713	-0.307330	-1.061514
C134	C	1.444047	0.026004	-0.728181
C135	C	1.777380	0.359337	-0.394848
C136	C	1.016530	-0.401446	-1.061457
C137	C	1.349864	-0.068113	-0.728124
C138	C	1.683197	0.265220	-0.394790
C139	C	1.016515	-0.401474	-0.951735
C140	C	1.349848	-0.068140	-0.618402
C141	C	1.683181	0.265193	-0.285068
C142	C	1.063513	-0.354550	-0.233127
C143	C	1.396847	-0.021217	0.100207
C144	C	1.730180	0.312116	0.433540
C145	C	1.063632	-0.354373	-0.116351
C146	C	1.396966	-0.021040	0.216983
C147	C	1.730299	0.312293	0.550316
H148	H	0.633614	-0.269056	-0.384412
H149	H	0.966947	0.064277	-0.051078
H150	H	1.300281	0.397610	0.282255
H151	H	0.633617	-0.440020	-0.627789
H152	H	0.966951	-0.106686	-0.294456
H153	H	1.300284	0.226647	0.038877
H154	H	0.978110	-0.784435	-0.627914
H155	H	1.311443	-0.451102	-0.294580
H156	H	1.644776	-0.117768	0.038753
H157	H	1.149040	-0.923875	-0.384362
H158	H	1.482373	-0.590542	-0.051029
H159	H	1.815707	-0.257208	0.282304
H160	H	1.149042	-0.269055	-0.907150
H161	H	1.482376	0.064278	-0.573817
H162	H	1.815709	0.397611	-0.240484
H163	H	0.978193	-0.439747	-1.106114
H164	H	1.311527	-0.106414	-0.772780
H165	H	1.644860	0.226919	-0.439447
H166	H	0.494172	-0.269066	-0.384405
H167	H	0.827506	0.064267	-0.051072
H168	H	1.160839	0.397601	0.282261
C169	C	1.162525	-0.255549	-1.121884
C170	C	1.495859	0.077784	-0.788551
C171	C	1.829192	0.411117	-0.455217
N172	N	1.201553	-0.216546	-1.167353
N173	N	1.534886	0.116787	-0.834020
N174	N	1.868219	0.450120	-0.500687
C175	C	0.964700	-0.453256	-0.891357
C176	C	1.298033	-0.119923	-0.558024
C177	C	1.631366	0.213411	-0.224690
N178	N	0.925672	-0.492255	-0.845880
N179	N	1.259006	-0.158922	-0.512547
N180	N	1.592339	0.174412	-0.179214
C181	C	1.162435	-0.773467	-0.365128
C182	C	1.495769	-0.440133	-0.031795
C183	C	1.829102	-0.106800	0.301538
N184	N	1.201445	-0.741636	-0.309497
N185	N	1.534778	-0.408302	0.023836
N186	N	1.868112	-0.074969	0.357170
C187	C	0.964710	-0.934857	-0.647124
C188	C	1.298043	-0.601524	-0.313790
C189	C	1.631377	-0.268191	0.019543
N190	N	0.925700	-0.966697	-0.702744
N191	N	1.259033	-0.633364	-0.369410
N192	N	1.592366	-0.300031	-0.036077
H193	H	0.494190	-0.440031	-0.627803
H194	H	0.827524	-0.106697	-0.294470
H195	H	1.160857	0.226636	0.038864
