data_functionalizedCrystal
_audit_creation_method	'MofGen! by Chris Wilmer'
_symmetry_space_group_name_H-M	'P1'
_symmetry_Int_Tables_number	1
_symmetry_cell_setting	triclinic
loop_
_symmetry_equiv_pos_as_xyz
  x,y,z
_cell_length_a	6.817900
_cell_length_b	10.943632
_cell_length_c	10.865348
_cell_angle_alpha	87.794228
_cell_angle_beta	72.410449
_cell_angle_gamma	108.838880
loop_
_atom_site_label
_atom_site_type_symbol
_atom_site_fract_x
_atom_site_fract_y
_atom_site_fract_z
V1	V	-4.100697	-0.178560	0.402516
O2	O	-4.058686	0.008652	0.394886
O3	O	-4.078749	-0.354124	0.399733
O4	O	-4.072205	-0.175782	0.578081
O5	O	-4.065276	-0.170924	0.215302
V6	V	-4.578318	-0.156171	0.380128
O7	O	-4.374903	-0.227672	0.451627
O8	O	-4.754309	-0.107059	0.331016
O9	O	-4.377058	0.019392	0.382911
O10	O	-4.737725	-0.343384	0.387758
O11	O	-4.731135	-0.163807	0.567341
O12	O	-4.383603	-0.158949	0.204562
C13	C	-3.929541	-0.396923	0.393375
C14	C	-3.993016	-0.540449	0.392269
C15	C	-3.838133	-0.617603	0.384916
C16	C	-3.920800	-0.690267	0.280692
C17	C	-4.023477	-0.723523	0.494537
C18	C	-4.074806	-0.611209	0.287971
C19	C	-4.177497	-0.644471	0.501911
C20	C	-4.260275	-0.717098	0.397666
C21	C	-4.197958	-0.165306	0.161762
C22	C	-4.119032	-0.166410	0.018236
C23	C	-4.251283	-0.160314	-0.072645
C24	C	-4.187074	-0.271269	-0.138440
C25	C	-4.042594	-0.057428	-0.171706
C26	C	-4.055923	-0.277439	-0.045655
C27	C	-3.911407	-0.063500	-0.078929
C28	C	-3.847108	-0.174486	-0.144676
C29	C	-3.921192	-0.169429	0.620875
C30	C	-3.979355	-0.168320	0.764400
C31	C	-4.189609	0.062185	0.389265
C32	C	-4.105374	0.205709	0.390379
H33	H	-3.812933	-0.711041	0.187150
C34	C	-4.103225	-0.545358	0.169914
H35	H	-4.062333	-0.453931	0.171292
H36	H	-4.252440	-0.580226	0.174144
H37	H	-4.012383	-0.561272	0.091464
C38	C	-4.483205	-0.152367	-0.029608
H39	H	-4.581527	-0.226287	-0.049629
H40	H	-4.479510	-0.074984	-0.074464
H41	H	-4.531672	-0.150951	0.061827
H42	H	-4.062348	-0.370501	0.008901
C43	C	-3.994966	-0.789576	0.612446
H44	H	-4.132746	-0.851018	0.665632
H45	H	-3.941091	-0.725250	0.662019
H46	H	-3.893477	-0.833230	0.582417
H47	H	-4.302813	-0.359126	-0.165013
C48	C	-3.755176	0.055192	-0.042983
H49	H	-3.751356	0.133281	-0.086601
H50	H	-3.611668	0.050976	-0.068897
H51	H	-3.806161	0.054562	0.048733
H52	H	-4.439334	-0.760322	0.403019
C53	C	-4.323090	-0.616346	0.628274
H54	H	-4.304065	-0.655065	0.701570
H55	H	-4.472754	-0.651960	0.633569
H56	H	-4.282226	-0.524647	0.627654
H57	H	-3.675532	-0.180520	-0.176283
C58	C	-4.033991	0.068160	-0.245601
H59	H	-4.177042	0.073018	-0.221071
H60	H	-3.982228	0.066948	-0.336959
H61	H	-3.937427	0.141995	-0.224334
H62	H	-3.659022	-0.574120	0.379404
