data_functionalizedCrystal
_audit_creation_method	'MofGen! by Chris Wilmer'
_symmetry_space_group_name_H-M	'P1'
_symmetry_Int_Tables_number	1
_symmetry_cell_setting	triclinic
loop_
_symmetry_equiv_pos_as_xyz
  x,y,z
_cell_length_a	30.700809
_cell_length_b	30.711276
_cell_length_c	30.700862
_cell_angle_alpha	59.998386
_cell_angle_beta	89.999414
_cell_angle_gamma	60.000191
loop_
_atom_site_label
_atom_site_type_symbol
_atom_site_fract_x
_atom_site_fract_y
_atom_site_fract_z
O1	O	-0.371254	-0.311651	0.012944
O2	O	-0.307913	-0.222487	-0.012907
O3	O	-0.307911	-0.311650	0.076286
O4	O	-0.371257	-0.222488	-0.076249
O5	O	-0.235466	-0.384070	0.076286
O6	O	-0.235468	-0.294907	-0.012907
O7	O	-0.298809	-0.384071	0.012944
Cu8	Cu	-0.260524	-0.346102	0.000018
Cu9	Cu	-0.346199	-0.260456	0.000019
O10	O	-0.298812	-0.294908	-0.076249
C11	C	-0.234796	-0.137097	-0.018777
C12	C	-0.261674	-0.083360	-0.015076
C13	C	-0.182374	-0.163176	-0.019143
C14	C	-0.234798	-0.215942	-0.018783
C15	C	-0.261678	-0.246507	-0.015089
C16	C	-0.182376	-0.241901	-0.019150
C17	C	-0.155920	-0.215947	-0.018777
C18	C	-0.098463	-0.246515	-0.015075
C19	C	-0.261132	-0.163172	-0.019150
C20	C	-0.574961	-0.535511	0.039265
C21	C	-0.548506	-0.588283	0.039634
C22	C	-0.496086	-0.535509	0.039262
C23	C	-0.469751	-0.588281	0.039632
C24	C	-0.496085	-0.614360	0.039265
C25	C	-0.548507	-0.509552	0.039632
C26	C	-0.765169	-0.393516	0.024987
C27	C	-0.819034	-0.364488	0.020950
C28	C	-0.846055	-0.389406	0.018925
C29	C	-0.904462	-0.357927	0.014538
C30	C	-0.819206	-0.443357	0.020941
C31	C	-0.765344	-0.472385	0.024984
C32	C	-0.738325	-0.447463	0.027007
C33	C	-0.447920	-0.790230	0.024988
C34	C	-0.423094	-0.840041	0.020951
C35	C	-0.371150	-0.865027	0.018921
C36	C	-0.344230	-0.919028	0.014536
C37	C	-0.344030	-0.840201	0.020935
C38	C	-0.368852	-0.790399	0.024981
C39	C	-0.420803	-0.765414	0.027004
C40	C	-0.447922	-0.393510	0.024977
C41	C	-0.423099	-0.364475	0.020931
C42	C	-0.371152	-0.389391	0.018903
C43	C	-0.344235	-0.357911	0.014513
C44	C	-0.344034	-0.443338	0.020916
C45	C	-0.368860	-0.472368	0.024960
C46	C	-0.420804	-0.447452	0.026995
C47	C	-0.679920	-0.478941	0.031387
C48	C	-0.633366	-0.504032	0.034880
C49	C	-0.469171	-0.504029	0.034875
C50	C	-0.447717	-0.478936	0.031380
C51	C	-0.469170	-0.668361	0.034880
C52	C	-0.447716	-0.711408	0.031386
C53	C	-0.496432	-0.071057	-0.503890
C54	C	-0.548853	-0.018285	-0.530226
C55	C	-0.496432	-0.071056	-0.425015
C56	C	-0.548854	-0.018284	-0.451470
C57	C	-0.575308	0.007793	-0.503892
C58	C	-0.470097	-0.097014	-0.451469
C59	C	-0.368666	-0.213054	-0.552051
C60	C	-0.343664	-0.242084	-0.576877
C61	C	-0.370616	-0.217167	-0.628824
C62	C	-0.343513	-0.248647	-0.655741
C63	C	-0.422570	-0.163216	-0.655945
C64	C	-0.447565	-0.134187	-0.631122
C65	C	-0.420611	-0.159108	-0.579173
C66	C	-0.765518	0.183662	-0.631659
C67	C	-0.819384	0.233473	-0.656662
C68	C	-0.846408	0.258459	-0.629712
C69	C	-0.904813	0.312461	-0.656813
C70	C	-0.819559	0.233635	-0.577758
C71	C	-0.765694	0.183833	-0.552761
C72	C	-0.738677	0.158847	-0.579717
C73	C	-0.368668	-0.213052	-0.234803
C74	C	-0.343669	-0.242086	-0.180935
C75	C	-0.370621	-0.217169	-0.153914
C76	C	-0.343519	-0.248648	-0.095506
C77	C	-0.422573	-0.163222	-0.180762
C78	C	-0.447570	-0.134193	-0.234627
C79	C	-0.420610	-0.159111	-0.261646
C80	C	-0.447720	-0.127629	-0.552258
C81	C	-0.469327	-0.102536	-0.530805
C82	C	-0.469328	-0.102535	-0.366609
C83	C	-0.447721	-0.127627	-0.320054
C84	C	-0.633714	0.061794	-0.530997
C85	C	-0.680269	0.104841	-0.552605
O86	O	0.076277	-0.384081	0.012960
O87	O	-0.076257	-0.294916	-0.012894
O88	O	0.012931	-0.384083	0.076300
O89	O	-0.012910	-0.294914	-0.076234
O90	O	0.012933	-0.311666	0.076306
O91	O	-0.076254	-0.222499	-0.012888
O92	O	0.076280	-0.311664	0.012966
Cu93	Cu	0.000013	-0.260469	0.000040
Cu94	Cu	0.000010	-0.346111	0.000033
O95	O	-0.012908	-0.222497	-0.076228
O96	O	-0.298805	0.063292	0.012964
O97	O	-0.235462	-0.063346	-0.012888
O98	O	-0.235465	-0.063353	0.076305
O99	O	-0.298803	0.063300	-0.076229
O100	O	-0.307912	-0.063350	0.076299
O101	O	-0.307909	-0.063342	-0.012895
O102	O	-0.371252	0.063295	0.012958
Cu103	Cu	-0.346196	-0.000023	0.000031
Cu104	Cu	-0.260519	-0.000027	0.000039
O105	O	-0.371250	0.063303	-0.076236
O106	O	-1.076607	0.456783	-0.692421
O107	O	-0.924074	0.330140	-0.629074
O108	O	-1.013262	0.330138	-0.629073
O109	O	-0.987418	0.456785	-0.692422
O110	O	-1.013261	0.330136	-0.701518
O111	O	-0.924072	0.330138	-0.701518
O112	O	-1.076605	0.456781	-0.764865
Cu113	Cu	-1.000338	0.393460	-0.739807
Cu114	Cu	-1.000340	0.393461	-0.654133
O115	O	-0.987417	0.456783	-0.764866
O116	O	-0.307911	-0.311650	-0.764507
O117	O	-0.371254	-0.222491	-0.701165
O118	O	-0.371252	-0.311652	-0.701162
O119	O	-0.307912	-0.222489	-0.764510
O120	O	-0.298806	-0.384074	-0.628716
O121	O	-0.298807	-0.294912	-0.628719
O122	O	-0.235464	-0.384072	-0.692061
Cu123	Cu	-0.260521	-0.346105	-0.653775
Cu124	Cu	-0.346197	-0.260458	-0.739451
O125	O	-0.235466	-0.294910	-0.692064
C126	C	-0.155920	-0.469469	0.234827
C127	C	-0.098464	-0.523208	0.261706
C128	C	-0.182375	-0.443392	0.261162
C129	C	-0.234797	-0.390619	0.155950
C130	C	-0.261676	-0.360052	0.098494
C131	C	-0.261132	-0.364662	0.182405
C132	C	-0.234797	-0.390620	0.234826
C133	C	-0.261675	-0.360052	0.261704
C134	C	-0.182375	-0.443391	0.182406
C135	C	0.018810	-0.390643	0.234846
C136	C	0.015111	-0.360079	0.261727
C137	C	0.019176	-0.443414	0.261179
C138	C	0.018812	-0.390637	0.155967
C139	C	0.015115	-0.360067	0.098511
C140	C	0.019178	-0.443408	0.182420
C141	C	0.018807	-0.469488	0.234841
C142	C	0.015106	-0.523226	0.261717
C143	C	0.019180	-0.364683	0.182425
C144	C	-0.234799	-0.215977	0.234834
C145	C	-0.261678	-0.246545	0.261708
C146	C	-0.182376	-0.241940	0.261172
C147	C	-0.234798	-0.137119	0.155964
C148	C	-0.261676	-0.083372	0.098509
C149	C	-0.182375	-0.163202	0.182421
C150	C	-0.155921	-0.215981	0.234841
C151	C	-0.098464	-0.246554	0.261721
C152	C	-0.261134	-0.163198	0.182415
C153	C	-0.039199	0.007461	-0.503869
C154	C	-0.039568	-0.018614	-0.530207
C155	C	-0.039203	-0.071390	-0.424995
C156	C	-0.039572	-0.097344	-0.451452
C157	C	-0.039201	-0.071385	-0.503874
C158	C	-0.039570	-0.018618	-0.451448
C159	C	-0.024912	0.183325	-0.552025
C160	C	-0.020873	0.233135	-0.576849
C161	C	-0.018844	0.258123	-0.628796
C162	C	-0.014454	0.312124	-0.655711
C163	C	-0.020859	0.233301	-0.655918
C164	C	-0.024906	0.183500	-0.631097
C165	C	-0.026932	0.158512	-0.579148
C166	C	-0.024920	-0.133799	-0.631644
C167	C	-0.020882	-0.162650	-0.656647
C168	C	-0.018855	-0.216605	-0.629699
C169	C	-0.014470	-0.247897	-0.656801
C170	C	-0.020872	-0.241704	-0.577746
C171	C	-0.024919	-0.212847	-0.552747
C172	C	-0.026939	-0.158893	-0.579702
C173	C	-0.024929	-0.133823	-0.234783
C174	C	-0.020887	-0.162684	-0.180915
C175	C	-0.018862	-0.216639	-0.153896
C176	C	-0.014477	-0.247936	-0.095488
C177	C	-0.020875	-0.241733	-0.180745
C178	C	-0.024915	-0.212872	-0.234610
C179	C	-0.026947	-0.158912	-0.261627
C180	C	-0.031316	0.104507	-0.552235
C181	C	-0.034811	0.061462	-0.530782
C182	C	-0.034820	-0.102682	-0.366590
C183	C	-0.031328	-0.127624	-0.320035
C184	C	-0.034816	-0.102672	-0.530980
C185	C	-0.031322	-0.127610	-0.552588
O186	O	-0.012940	-0.294936	0.371303
O187	O	0.012923	-0.384099	0.307961
O188	O	-0.076273	-0.294935	0.307950
O189	O	0.076257	-0.384100	0.371315
O190	O	-0.076265	-0.222515	0.235508
O191	O	0.012932	-0.311679	0.235520
O192	O	-0.012931	-0.222517	0.298862
Cu193	Cu	0.000001	-0.260485	0.260576
Cu194	Cu	-0.000009	-0.346130	0.346247
O195	O	0.076266	-0.311681	0.298873
C196	C	-0.574962	0.464558	-0.503864
C197	C	-0.548506	0.490518	-0.530195
C198	C	-0.496085	0.385697	-0.424987
C199	C	-0.469749	0.411776	-0.451438
C200	C	-0.496084	0.464555	-0.503857
C201	C	-0.548507	0.411779	-0.451444
C202	C	-0.765173	0.526994	-0.552039
C203	C	-0.819039	0.555852	-0.576867
C204	C	-0.846061	0.609814	-0.628812
C205	C	-0.904469	0.641114	-0.655732
C206	C	-0.819211	0.634913	-0.655928
C207	C	-0.765348	0.606050	-0.631102
C208	C	-0.738329	0.552088	-0.579155
C209	C	-0.447916	0.606561	-0.631604
C210	C	-0.423088	0.635592	-0.656601
C211	C	-0.371143	0.610674	-0.629648
C212	C	-0.344222	0.642150	-0.656742
C213	C	-0.344023	0.556716	-0.577696
C214	C	-0.368845	0.527681	-0.552704
C215	C	-0.420798	0.552613	-0.579664
C216	C	-0.447920	0.209802	-0.234786
C217	C	-0.423096	0.159988	-0.180919
C218	C	-0.371148	0.134996	-0.153895
C219	C	-0.344230	0.080987	-0.095489
C220	C	-0.344029	0.159823	-0.180737
C221	C	-0.368856	0.209637	-0.234602
C222	C	-0.420801	0.234620	-0.261624
C223	C	-0.679923	0.520797	-0.552238
C224	C	-0.633367	0.495853	-0.530781
C225	C	-0.469169	0.331687	-0.366583
C226	C	-0.447714	0.288634	-0.320030
C227	C	-0.469167	0.496035	-0.530956
C228	C	-0.447712	0.521128	-0.552558
H229	H	-0.304205	-0.141343	-0.019747
H230	H	0.019779	-0.465234	0.161179
H231	H	-0.161134	-0.465220	0.304234
H232	H	0.019760	-0.465234	0.304248
O233	O	-0.156982	-0.137213	-0.019792
C234	C	-0.111007	-0.180216	0.025910
H235	H	-0.097741	-0.228843	0.041659
H236	H	-0.077675	-0.174827	0.015071
H237	H	-0.120429	-0.171751	0.057955
H238	H	-0.026568	-0.089866	-0.653596
O239	O	-0.498416	0.234123	-0.260987
C240	C	-0.533241	0.255665	-0.235727
H241	H	-0.515057	0.265457	-0.212375
H242	H	-0.573152	0.299766	-0.267115
H243	H	-0.539677	0.219193	-0.207265
H244	H	-0.346776	-0.516292	0.026600
H245	H	-0.426680	-0.610102	0.040221
H246	H	-0.304205	-0.141373	0.161175
O247	O	-0.497993	-0.081723	-0.657476
C248	C	-0.497969	-0.033600	-0.662313
H249	H	-0.456276	-0.044469	-0.659138
H250	H	-0.527493	0.011334	-0.702648
H251	H	-0.510119	-0.028750	-0.629065
O252	O	-0.573922	-0.614240	0.040336
C253	C	-0.625955	-0.579900	0.040597
H254	H	-0.639001	-0.531000	0.023362
H255	H	-0.654544	-0.578447	0.015345
H256	H	-0.626396	-0.602484	0.083294
O257	O	-0.342521	-0.766239	0.026838
C258	C	-0.329241	-0.744796	-0.019983
H259	H	-0.357323	-0.734904	-0.053121
H260	H	-0.333290	-0.700772	-0.032718
H261	H	-0.286374	-0.781372	-0.011971
O262	O	-0.845718	0.257849	-0.551510
C263	C	-0.810477	0.225252	-0.500294
H264	H	-0.767616	0.202037	-0.500199
H265	H	-0.819296	0.258580	-0.489370
H266	H	-0.816021	0.188781	-0.469899
H267	H	0.019773	-0.322218	0.161189
H268	H	-0.346770	0.229846	-0.256454
H269	H	-0.161136	-0.141377	0.161182
O270	O	-0.157115	-0.292556	0.312577
C271	C	-0.185653	-0.278796	0.345006
H272	H	-0.228946	-0.238350	0.319445
H273	H	-0.184103	-0.320703	0.377075
H274	H	-0.166988	-0.266207	0.364721
O275	O	-0.040320	-0.147976	-0.426054
C276	C	-0.040553	-0.165413	-0.374010
H277	H	-0.056911	-0.123970	-0.372371
H278	H	-0.066816	-0.182795	-0.362918
H279	H	0.001877	-0.203575	-0.344657
O280	O	-0.312537	-0.314047	0.157137
C281	C	-0.344974	-0.327805	0.185663
H282	H	-0.319422	-0.368252	0.228958
H283	H	-0.377046	-0.285897	0.184110
H284	H	-0.364685	-0.340389	0.166988
O285	O	-0.739566	0.159767	-0.502333
C286	C	-0.696263	0.164626	-0.502358
H287	H	-0.703961	0.203132	-0.544053
H288	H	-0.691649	0.175433	-0.472835
H289	H	-0.658163	0.119243	-0.490207
H290	H	-0.301369	-0.286012	-0.159078
H291	H	-0.040160	0.003216	-0.573279
H292	H	-0.490215	0.626864	-0.653559
O293	O	-0.040306	0.007510	-0.426193
C294	C	-0.040529	0.059763	-0.460792
H295	H	-0.056896	0.077765	-0.503891
H296	H	-0.066779	0.097102	-0.454490
H297	H	0.001906	0.046678	-0.451974
O298	O	-0.156964	-0.469400	0.157073
C299	C	-0.111016	-0.469616	0.154400
H300	H	-0.097779	-0.467138	0.187309
H301	H	-0.077654	-0.513750	0.159834
H302	H	-0.120458	-0.428137	0.113895
O303	O	-0.018962	-0.138211	-0.154922
C304	C	-0.021608	-0.084407	-0.190317
H305	H	-0.041237	-0.064830	-0.233128
H306	H	-0.046142	-0.048859	-0.181622
H307	H	0.020414	-0.096024	-0.184822
O308	O	-0.026993	-0.081351	-0.261075
C309	C	-0.075157	-0.033316	-0.304389
H310	H	-0.105972	-0.044184	-0.296593
H311	H	-0.090589	0.011695	-0.309153
H312	H	-0.067858	-0.028614	-0.342443
H313	H	-0.026563	0.162985	-0.509727
O314	O	-0.293168	-0.294430	-0.550594
C315	C	-0.259508	-0.284606	-0.579444
H316	H	-0.277653	-0.233228	-0.606166
H317	H	-0.218675	-0.310089	-0.550419
H318	H	-0.254979	-0.302556	-0.605077
O319	O	-0.498407	-0.765967	0.026885
C320	C	-0.533238	-0.744398	-0.019935
H321	H	-0.509588	-0.769355	-0.038151
H322	H	-0.564762	-0.753606	-0.009757
H323	H	-0.553528	-0.692794	-0.049757
O324	O	-0.738851	-0.369376	0.026940
C325	C	-0.685549	-0.406572	0.030951
H326	H	-0.682707	-0.433829	0.014741
H327	H	-0.671829	-0.376177	0.006798
H328	H	-0.659011	-0.439786	0.074554
O329	O	-0.018893	0.257150	-0.550418
C330	C	-0.021561	0.224425	-0.499251
H331	H	-0.007691	0.176636	-0.486988
H332	H	0.005299	0.219872	-0.469331
H333	H	-0.064447	0.250303	-0.500058
O334	O	-0.342473	-0.237169	-0.261101
C335	C	-0.337742	-0.193748	-0.304413
H336	H	-0.340817	-0.159874	-0.296610
H337	H	-0.297483	-0.218562	-0.309184
H338	H	-0.371099	-0.167698	-0.342467
O339	O	-0.018790	0.257522	-0.706340
C340	C	0.029377	0.252665	-0.706217
H341	H	0.060186	0.214069	-0.664526
H342	H	0.044815	0.241995	-0.735806
H343	H	0.022080	0.298004	-0.718220
H344	H	-0.026547	0.163294	-0.653183
H345	H	-0.019237	-0.142213	-0.698946
H346	H	-0.019230	-0.285631	-0.555806
O347	O	-0.026849	-0.237322	-0.502273
C348	C	-0.024209	-0.291121	-0.483850
H349	H	-0.004577	-0.310698	-0.507077
H350	H	0.000319	-0.326673	-0.439592
H351	H	-0.066233	-0.279498	-0.489984
O352	O	-0.026886	-0.237316	-0.260615
C353	C	-0.024216	-0.291135	-0.225215
H354	H	-0.038098	-0.289526	-0.191285
H355	H	-0.051066	-0.294198	-0.247528
H356	H	0.018672	-0.333199	-0.208207
O357	O	-0.019009	-0.294081	-0.154508
C358	C	-0.062501	-0.284158	-0.135484
H359	H	-0.095749	-0.232775	-0.160251
H360	H	-0.077843	-0.309703	-0.138884
H361	H	-0.049081	-0.301971	-0.091936
O362	O	-0.418358	0.385646	-0.426028
C363	C	-0.400690	0.333389	-0.373984
H364	H	-0.425777	0.315386	-0.372353
H365	H	-0.357033	0.296054	-0.362878
H366	H	-0.404971	0.346471	-0.344636
O367	O	-0.573849	-0.458829	0.040244
C368	C	-0.576477	-0.410230	-0.005453
H369	H	-0.573047	-0.418484	-0.037988
H370	H	-0.616174	-0.364869	-0.020393
H371	H	-0.542338	-0.408039	0.005069
H372	H	-0.569746	0.532985	-0.573266
O373	O	-0.449509	-0.312091	0.019001
C374	C	-0.500683	-0.296317	0.021648
H375	H	-0.500632	-0.339164	0.041284
H376	H	-0.511714	-0.276596	0.046177
H377	H	-0.531085	-0.260438	-0.020375
H378	H	-0.569753	0.389964	-0.430206
O379	O	-0.449451	0.135920	-0.154797
C380	C	-0.454289	0.140770	-0.111490
H381	H	-0.451114	0.179273	-0.119180
H382	H	-0.494625	0.151576	-0.106881
H383	H	-0.421044	0.095383	-0.073390
H384	H	-0.743487	-0.516312	0.026628
H385	H	-0.301736	-0.463624	0.019263
H386	H	-0.489870	-0.090268	-0.256484
H387	H	-0.743179	0.483055	-0.509743
O388	O	-0.845040	-0.312070	0.018968
C389	C	-0.809640	-0.296307	0.021632
H390	H	-0.775705	-0.317971	0.007762
H391	H	-0.831950	-0.244098	-0.005230
H392	H	-0.792639	-0.314106	0.064518
H393	H	-0.301729	0.139473	-0.158731
O394	O	-0.845046	0.531411	-0.550442
C395	C	-0.809645	0.477588	-0.499276
H396	H	-0.775709	0.479190	-0.487008
H397	H	-0.831954	0.474528	-0.469357
H398	H	-0.792648	0.435526	-0.500087
O399	O	-0.342395	-0.237327	-0.501598
C400	C	-0.291187	-0.291173	-0.482981
H401	H	-0.278776	-0.289713	-0.518425
H402	H	-0.261376	-0.294117	-0.457604
H403	H	-0.291999	-0.333229	-0.457860
H404	H	-0.841216	0.678847	-0.698222
O405	O	-0.739355	0.630525	-0.657507
C406	C	-0.774748	0.684333	-0.708682
H407	H	-0.817559	0.703909	-0.708635
H408	H	-0.766051	0.719880	-0.719706
H409	H	-0.769255	0.672721	-0.739087
O410	O	-0.448762	-0.139098	-0.706368
C411	C	-0.453498	-0.182513	-0.706248
H412	H	-0.450417	-0.216395	-0.664558
H413	H	-0.493761	-0.157695	-0.735838
H414	H	-0.420147	-0.208557	-0.718250
H415	H	-0.445174	0.679524	-0.698898
H416	H	-0.444519	-0.142934	-0.158758
O417	O	-0.293597	0.532588	-0.551500
C418	C	-0.293712	0.575996	-0.546755
H419	H	-0.335400	0.609874	-0.549831
H420	H	-0.264120	0.551169	-0.506490
H421	H	-0.281710	0.602044	-0.580105
O422	O	-0.342437	0.475292	-0.502233
C423	C	-0.291259	0.459509	-0.483804
H424	H	-0.291305	0.502353	-0.507025
H425	H	-0.280228	0.439782	-0.439545
H426	H	-0.260861	0.423632	-0.489938
H427	H	-0.490220	-0.373215	0.026628
H428	H	-0.841210	-0.463642	0.019294
O429	O	-0.449380	-0.864243	0.019083
C430	C	-0.420534	-0.926733	0.062569
H431	H	-0.393812	-0.935311	0.095821
H432	H	-0.449563	-0.938532	0.077909
H433	H	-0.394904	-0.956885	0.049141
O434	O	-0.156980	-0.292622	-0.019766
C435	C	-0.110995	-0.341225	0.025930
H436	H	-0.115819	-0.332976	0.058468
H437	H	-0.105317	-0.386584	0.040865
H438	H	-0.074663	-0.343417	0.015409
O439	O	-0.293546	-0.864577	0.019035
C440	C	-0.259974	-0.927068	0.062537
H441	H	-0.284963	-0.945685	0.077217
H442	H	-0.229575	-0.954552	0.049384
H443	H	-0.238236	-0.931498	0.096186
H444	H	-0.570092	0.003538	-0.430229
O445	O	-0.574195	0.007861	-0.581644
C446	C	-0.588974	0.068812	-0.614040
H447	H	-0.562325	0.073848	-0.593858
H448	H	-0.584191	0.079946	-0.654389
H449	H	-0.632356	0.101931	-0.620071
O450	O	-0.418684	-0.147612	-0.426174
C451	C	-0.386252	-0.133869	-0.454720
H452	H	-0.406419	-0.082019	-0.479971
H453	H	-0.345920	-0.158284	-0.425485
H454	H	-0.380193	-0.150189	-0.481788
O455	O	-0.739346	0.159488	-0.657929
C456	C	-0.774593	0.192068	-0.709138
H457	H	-0.808578	0.239907	-0.721550
H458	H	-0.752162	0.196501	-0.738949
H459	H	-0.791542	0.166143	-0.708323
O460	O	-0.845540	0.257581	-0.707095
C461	C	-0.888823	0.252688	-0.707056
H462	H	-0.901011	0.248992	-0.670930
H463	H	-0.923937	0.295249	-0.745118
H464	H	-0.876522	0.209866	-0.705090
