data_functionalizedCrystal
_audit_creation_method	'MofGen! by Chris Wilmer'
_symmetry_space_group_name_H-M	'P1'
_symmetry_Int_Tables_number	1
_symmetry_cell_setting	triclinic
loop_
_symmetry_equiv_pos_as_xyz
  x,y,z
_cell_length_a	14.519709
_cell_length_b	10.654550
_cell_length_c	9.730223
_cell_angle_alpha	90.000043
_cell_angle_beta	90.012822
_cell_angle_gamma	84.082538
loop_
_atom_site_label
_atom_site_type_symbol
_atom_site_fract_x
_atom_site_fract_y
_atom_site_fract_z
O1	O	-0.129532	-1.666594	-0.114216
O2	O	0.370468	-1.166594	0.385784
O3	O	-0.141873	-1.300996	-0.114244
O4	O	0.358127	-0.800996	0.385756
O5	O	-0.001514	-1.493488	-0.114191
O6	O	0.498486	-0.993488	0.385809
O7	O	-0.269891	-1.474102	-0.114269
O8	O	0.230109	-0.974102	0.385731
O9	O	-0.001511	-1.493476	0.114389
O10	O	0.498489	-0.993476	0.614389
O11	O	-0.141869	-1.300984	0.114336
O12	O	0.358131	-0.800984	0.614336
O13	O	-0.129528	-1.666581	0.114364
O14	O	0.370472	-1.166581	0.614364
Zn15	Zn	-0.135698	-1.483781	0.150642
Zn16	Zn	0.364302	-0.983781	0.650642
Zn17	Zn	-0.135703	-1.483797	-0.150522
Zn18	Zn	0.364297	-0.983797	0.349478
O19	O	-0.269887	-1.474089	0.114311
O20	O	0.230113	-0.974089	0.614311
C21	C	0.032852	-1.492579	0.000106
C22	C	0.532852	-0.992579	0.500106
C23	C	0.135247	-1.489871	0.000127
C24	C	0.635247	-0.989871	0.500127
C25	C	-0.140965	-1.254201	0.000043
C26	C	0.359035	-0.754201	0.500043
C27	C	-0.138254	-1.114784	0.000034
C28	C	0.361746	-0.614784	0.500034
C29	C	-0.130436	-1.713377	0.000074
C30	C	0.369564	-1.213377	0.500074
C31	C	-0.133147	-1.852794	0.000074
C32	C	0.366853	-1.352794	0.500074
C33	C	0.510195	-1.479904	0.000163
C34	C	1.010195	-0.979904	0.500163
C35	C	0.405872	-1.482672	0.000154
C36	C	0.905872	-0.982672	0.500154
C37	C	0.322724	-1.484887	0.000146
C38	C	0.822724	-0.984887	0.500146
C39	C	0.218395	-1.487656	0.000134
C40	C	0.718395	-0.987656	0.500134
C41	C	0.695747	-1.474999	0.000060
C42	C	1.195747	-0.974999	0.500060
C43	C	0.593351	-1.477706	0.000176
C44	C	1.093351	-0.977706	0.500176
N45	N	-0.135694	-1.483779	0.356179
N46	N	0.364306	-0.983779	0.856179
C47	C	-0.220895	-1.034504	0.000014
C48	C	0.279105	-0.534504	0.500014
C49	C	-0.218342	-0.903507	0.000039
C50	C	0.281658	-0.403507	0.500039
C51	C	-0.050500	-0.933084	0.000098
C52	C	0.449500	-0.433084	0.500098
C53	C	-0.053054	-1.064078	0.000083
C54	C	0.446946	-0.564078	0.500083
N55	N	-0.135700	-1.483809	-0.356058
N56	N	0.364300	-0.983809	0.143942
C57	C	-0.073570	-1.569043	0.428128
C58	C	0.426430	-1.069043	0.928128
C59	C	-0.073570	-1.569056	0.572011
C60	C	0.426430	-1.069056	1.072011
C61	C	-0.197827	-1.398535	0.571982
C62	C	0.302173	-0.898535	1.071982
C63	C	-0.197822	-1.398518	0.428102
C64	C	0.302178	-0.898518	0.928102
H65	H	-0.290270	-1.075783	-0.000015
H66	H	0.209730	-0.575783	0.499985
Br67	Br	0.059110	-1.173040	0.000128
Br68	Br	0.559110	-0.673040	0.500128
Br69	Br	0.010749	-1.684770	0.669654
Br70	Br	0.510749	-1.184770	1.169654
Br71	Br	0.010748	-1.684751	0.330523
Br72	Br	0.510748	-1.184751	0.830523
Br73	Br	-0.282142	-1.282831	0.669597
Br74	Br	0.217858	-0.782831	1.169597
Br75	Br	-0.282132	-1.282785	0.330445
Br76	Br	0.217868	-0.782785	0.830445
H77	H	-0.285637	-0.838147	0.000025
H78	H	0.214363	-0.338147	0.500025
H79	H	0.018867	-0.891783	0.000146
H80	H	0.518867	-0.391783	0.500146
