data_functionalizedCrystal
_audit_creation_method	'MofGen! by Chris Wilmer'
_symmetry_space_group_name_H-M	'P1'
_symmetry_Int_Tables_number	1
_symmetry_cell_setting	triclinic
loop_
_symmetry_equiv_pos_as_xyz
  x,y,z
_cell_length_a	14.908795
_cell_length_b	16.625545
_cell_length_c	14.908694
_cell_angle_alpha	93.268702
_cell_angle_beta	83.203537
_cell_angle_gamma	93.315945
loop_
_atom_site_label
_atom_site_type_symbol
_atom_site_fract_x
_atom_site_fract_y
_atom_site_fract_z
Zn1	Zn	1.413361	-0.278722	-0.591772
Zn2	Zn	1.404516	-0.406218	-0.440403
Zn3	Zn	1.253258	-0.278742	-0.431677
Zn4	Zn	1.261941	-0.420860	-0.582974
O5	O	1.333269	-0.346135	-0.511707
O6	O	1.538860	-0.289498	-0.579027
O7	O	1.377115	-0.383189	-0.312579
O8	O	1.274563	-0.165905	-0.452944
O9	O	1.532361	-0.383169	-0.467817
O10	O	1.392191	-0.165890	-0.570565
O11	O	1.265986	-0.289533	-0.306167
O12	O	1.127738	-0.303731	-0.444413
O13	O	1.289363	-0.408124	-0.710808
O14	O	1.134117	-0.408144	-0.555570
O15	O	1.400611	-0.303696	-0.717272
O16	O	1.385535	-0.520994	-0.459286
O17	O	1.280786	-0.531752	-0.564032
C18	C	1.098083	-0.357529	-0.498090
C19	C	0.997471	-0.362424	-0.492287
C20	C	1.333169	-0.555630	-0.511672
C21	C	1.333211	-0.645250	-0.511693
C22	C	0.852275	-0.418002	-0.426117
C23	C	0.946809	-0.413406	-0.431569
C24	C	0.953591	-0.316032	-0.547554
C25	C	0.859057	-0.320628	-0.542102
C26	C	0.808402	-0.371616	-0.481382
C27	C	0.713866	-0.376215	-0.475934
C28	C	0.720650	-0.278838	-0.591914
C29	C	0.815184	-0.274242	-0.597367
C30	C	1.333247	-0.718031	-0.511713
C31	C	1.333301	-0.809338	-0.511736
C32	C	1.333348	-0.882113	-0.511750
C33	C	1.333401	-0.973425	-0.511772
C34	C	1.569373	-0.334698	-0.525376
C35	C	1.669987	-0.329824	-0.531202
C36	C	1.346942	-0.357541	-0.747802
C37	C	1.352769	-0.362401	-0.848411
C38	C	1.333395	-0.135823	-0.511762
C39	C	1.333449	-0.046200	-0.511786
C40	C	1.247979	-0.274014	-1.030792
C41	C	1.253450	-0.278578	-1.125323
C42	C	1.369179	-0.376098	-1.132007
C43	C	1.363707	-0.371534	-1.037476
C44	C	1.303106	-0.320489	-0.986871
C45	C	1.297640	-0.315921	-0.892338
C46	C	1.413363	-0.413444	-0.899024
C47	C	1.418835	-0.418009	-0.993555
C48	C	1.319701	-0.334713	-0.276533
C49	C	1.314049	-0.329617	-0.175934
H50	H	0.672624	-0.417734	-0.426496
H51	H	0.811031	-0.459524	-0.376683
H52	H	0.856440	-0.232727	-0.646800
H53	H	0.982526	-0.451178	-0.386566
H54	H	0.994850	-0.274516	-0.596984
N55	N	0.675827	-0.231434	-0.648347
N56	N	0.686068	-0.156227	-0.643089
H57	H	0.654409	-0.122749	-0.682942
H58	H	1.248299	-0.274354	-0.851137
H59	H	1.468171	-0.459570	-1.034770
H60	H	1.198643	-0.232444	-0.989589
H61	H	1.208560	-0.240733	-1.161079
H62	H	1.418505	-0.417667	-1.173225
N63	N	1.469691	-0.460899	-0.854146
N64	N	1.464812	-0.456806	-0.769745
H65	H	1.504599	-0.490312	-0.738049
