data_functionalizedCrystal
_audit_creation_method	'MofGen! by Chris Wilmer'
_symmetry_space_group_name_H-M	'P1'
_symmetry_Int_Tables_number	1
_symmetry_cell_setting	triclinic
loop_
_symmetry_equiv_pos_as_xyz
  x,y,z
_cell_length_a	19.288864
_cell_length_b	10.489741
_cell_length_c	18.366186
_cell_angle_alpha	89.994090
_cell_angle_beta	89.977106
_cell_angle_gamma	83.837710
loop_
_atom_site_label
_atom_site_type_symbol
_atom_site_fract_x
_atom_site_fract_y
_atom_site_fract_z
O1	O	0.922420	0.159110	-0.060783
O2	O	0.720303	0.180573	-0.060733
O3	O	0.825960	-0.015860	-0.060755
O4	O	0.816762	0.355543	-0.060761
O5	O	0.825942	-0.015870	0.060344
O6	O	0.720285	0.180564	0.060366
O7	O	0.922402	0.159100	0.060316
Zn8	Zn	0.821340	0.169830	0.079568
Zn9	Zn	0.821364	0.169843	-0.079985
O10	O	0.816744	0.355534	0.060338
C11	C	0.694413	0.179878	-0.000177
C12	C	0.617295	0.177805	-0.000158
C13	C	0.573372	0.293063	-0.000171
C14	C	0.500912	0.291115	-0.000179
C15	C	0.472378	0.173903	-0.000189
C16	C	0.516311	0.058629	-0.000171
C17	C	0.588770	0.060580	-0.000156
C18	C	0.363505	0.081764	-0.042638
C19	C	0.291047	0.079818	-0.042658
C20	C	0.248892	0.167880	-0.000233
C21	C	0.279202	0.257911	0.042203
C22	C	0.351661	0.259862	0.042218
C23	C	0.393810	0.171774	-0.000205
C24	C	0.126399	0.281035	-0.000254
C25	C	0.053938	0.279082	-0.000257
C26	C	0.069339	0.046593	-0.000256
C27	C	0.141798	0.048549	-0.000245
C28	C	0.170324	0.165773	-0.000248
C29	C	0.825257	-0.063381	-0.000205
C30	C	0.823178	-0.204964	-0.000206
C31	C	0.755951	-0.271583	-0.000195
C32	C	0.787700	-0.364429	0.059505
C33	C	0.787734	-0.364394	-0.059889
C34	C	0.854954	-0.295944	0.059543
C35	C	0.854979	-0.295900	-0.059905
C36	C	0.886776	-0.388719	-0.000190
C37	C	0.948292	0.159796	-0.000241
C38	C	1.025409	0.161869	-0.000265
C39	C	0.817448	0.403055	-0.000213
C40	C	0.819526	0.544637	-0.000217
N41	N	0.821329	0.169821	0.188460
N42	N	0.821381	0.169842	-0.188876
C43	C	0.868130	0.082883	0.226550
C44	C	0.868134	0.082877	0.302778
C45	C	0.821344	0.169831	0.340912
C46	C	0.774535	0.256776	0.302812
C47	C	0.774527	0.256771	0.226586
C48	C	0.812826	0.286045	0.461672
C49	C	0.812838	0.286052	0.537897
C50	C	0.821364	0.169847	0.576020
C51	C	0.829893	0.053631	0.537908
C52	C	0.829885	0.053626	0.461682
C53	C	0.821347	0.169846	0.423567
C54	C	0.868172	0.082896	0.696766
C55	C	0.868172	0.082888	0.772995
C56	C	0.774576	0.256799	0.773027
C57	C	0.774573	0.256795	0.696800
C58	C	0.821375	0.169845	0.658673
H59	H	0.266374	0.006515	-0.077214
H60	H	0.883407	-0.265494	-0.110393
O61	O	0.753871	-0.400765	0.119787
C62	C	0.799471	-0.485956	0.161397
H63	H	0.855719	-0.470765	0.148042
H64	H	0.790271	-0.588918	0.148006
C65	C	0.716646	-0.479112	0.259381
C66	C	0.785730	-0.460445	0.242983
H67	H	0.708168	-0.463381	0.309707
H68	H	0.685922	-0.421720	0.231347
H69	H	0.708987	-0.564913	0.248216
H70	H	0.793385	-0.374641	0.254139
H71	H	0.816454	-0.517822	0.271021
H72	H	0.736437	0.327574	0.333865
H73	H	0.493075	-0.036806	-0.000189
O74	O	0.238362	0.343587	0.083438
C75	C	0.280653	0.423439	0.120909
H76	H	0.332329	0.424680	0.090913
H77	H	0.290873	0.385264	0.178463
C78	C	0.179768	0.559033	0.161455
C79	C	0.243235	0.560566	0.124610
H80	H	0.156686	0.643618	0.163741
H81	H	0.151275	0.505233	0.136213
H82	H	0.188294	0.527214	0.209413
H83	H	0.234707	0.592368	0.076650
H84	H	0.271725	0.614374	0.149844
O85	O	0.913662	-0.001632	0.339677
C86	C	0.954952	-0.078406	0.289680
H87	H	0.955996	-0.026122	0.235338
H88	H	0.931927	-0.173051	0.281592
C89	C	1.028463	-0.169262	0.386143
C90	C	1.029751	-0.105041	0.319400
H91	H	1.074602	-0.185698	0.404476
H92	H	1.000644	-0.117542	0.419827
H93	H	1.009273	-0.248125	0.379394
H94	H	1.048932	-0.026173	0.326151
H95	H	1.057575	-0.156748	0.285717
H96	H	0.736415	0.327568	0.195572
H97	H	0.836835	-0.040993	0.568946
O98	O	0.041516	-0.067157	-0.000299
C99	C	-0.031858	-0.044167	-0.000295
H100	H	-0.048359	0.055469	-0.023222
H101	H	-0.052087	-0.050240	0.057799
C102	C	-0.042123	-0.267817	-0.019634
C103	C	-0.062390	-0.145447	-0.047800
H104	H	-0.060958	-0.330293	-0.048934
H105	H	0.007310	-0.283308	-0.019634
H106	H	-0.058982	-0.272859	0.028777
H107	H	-0.045524	-0.140401	-0.096206
H108	H	-0.111821	-0.129957	-0.047809
H109	H	0.624533	-0.033280	-0.000145
H110	H	0.836827	-0.041001	0.430655
H111	H	0.596592	0.388516	-0.000175
O112	O	0.729189	0.341217	0.810174
C113	C	0.739215	0.322554	0.885623
H114	H	0.794198	0.274630	0.896010
H115	H	0.699589	0.258763	0.907278
C116	C	0.661894	0.511941	0.911996
C117	C	0.729427	0.453089	0.924755
H118	H	0.655853	0.592459	0.936136
H119	H	0.655136	0.524512	0.861165
H120	H	0.628880	0.458768	0.930042
H121	H	0.762439	0.506254	0.906701
H122	H	0.736190	0.440530	0.975584
O123	O	0.689967	-0.211055	-0.000078
C124	C	0.641764	-0.303024	0.000607
H125	H	0.667796	-0.396999	0.023828
H126	H	0.623439	-0.319464	-0.057312
C127	C	0.546727	-0.138912	0.019709
C128	C	0.578698	-0.254330	0.048235
H129	H	0.507823	-0.108875	0.049085
H130	H	0.579202	-0.076949	0.019245
H131	H	0.531462	-0.152628	-0.028557
H132	H	0.593970	-0.240610	0.096495
H133	H	0.546225	-0.316290	0.048708
H134	H	0.883367	-0.265759	0.110072
O135	O	0.913469	-0.001585	0.189373
C136	C	0.956659	0.066195	0.145077
H137	H	0.958638	0.166705	0.168034
H138	H	0.934757	0.073181	0.087400
C139	C	1.028319	-0.128422	0.115398
C140	C	1.030755	-0.004977	0.143597
H141	H	1.074024	-0.172325	0.114481
H142	H	0.999220	-0.174088	0.145239
H143	H	1.010064	-0.122583	0.067336
H144	H	1.049001	-0.010818	0.191661
H145	H	1.059859	0.040687	0.113764
H146	H	0.942099	-0.439394	-0.000170
H147	H	0.805898	0.380681	0.568921
H148	H	0.736466	0.327594	0.665784
O149	O	0.804574	0.399051	0.424756
C150	C	0.797043	0.501621	0.474737
H151	H	0.821296	0.468668	0.529066
H152	H	0.739292	0.534538	0.482866
C153	C	0.804279	0.654186	0.378234
C154	C	0.834072	0.613715	0.444960
H155	H	0.827117	0.723333	0.359866
H156	H	0.809350	0.585083	0.344560
H157	H	0.756154	0.681608	0.385017
H158	H	0.882193	0.586279	0.438174
H159	H	0.829010	0.682816	0.478632
O160	O	0.184370	-0.063532	-0.000273
C161	C	0.143651	-0.167408	-0.000264
H162	H	0.089756	-0.134721	-0.023201
H163	H	0.138280	-0.203362	0.057833
C164	C	0.245427	-0.316611	-0.019576
C165	C	0.179233	-0.276466	-0.047754
H166	H	0.267376	-0.383887	-0.048867
H167	H	0.272861	-0.246629	-0.019579
H168	H	0.240942	-0.346565	0.028837
H169	H	0.183719	-0.246499	-0.096162
H170	H	0.151801	-0.346446	-0.047760
O171	O	0.753808	-0.400368	-0.120158
C172	C	0.731389	-0.291040	-0.162055
H173	H	0.764960	-0.211039	-0.148811
H174	H	0.674556	-0.257842	-0.148848
C175	C	0.697088	-0.422787	-0.259815
C176	C	0.738326	-0.324533	-0.243554
H177	H	0.701364	-0.443447	-0.310088
H178	H	0.712190	-0.496444	-0.231588
H179	H	0.649731	-0.395109	-0.248804
H180	H	0.785682	-0.352217	-0.254556
H181	H	0.723232	-0.250881	-0.271785
O182	O	0.404346	-0.003833	-0.083925
C183	C	0.362060	-0.083718	-0.121376
H184	H	0.306962	-0.033058	-0.126503
H185	H	0.360510	-0.177074	-0.089925
C186	C	0.460061	-0.175527	-0.191545
C187	C	0.392391	-0.113301	-0.197848
H188	H	0.478772	-0.193781	-0.238716
H189	H	0.488552	-0.121711	-0.166312
H190	H	0.458760	-0.253317	-0.165333
H191	H	0.393694	-0.035506	-0.224052
H192	H	0.363901	-0.167105	-0.223087
H193	H	0.906279	0.012092	0.665722
O194	O	0.913609	-0.001742	0.809917
C195	C	0.901687	-0.127956	0.791318
H196	H	0.874911	-0.127680	0.735987
H197	H	0.866927	-0.167248	0.834240
C198	C	1.004677	-0.213461	0.855723
C199	C	0.971795	-0.213123	0.787762
H200	H	1.047922	-0.265999	0.853532
H201	H	1.012707	-0.128429	0.868256
H202	H	0.975703	-0.246201	0.891485
H203	H	1.000765	-0.180369	0.752004
H204	H	0.963771	-0.298152	0.775222
H205	H	0.465143	0.384976	-0.000188
H206	H	0.376337	0.333164	0.076773
H207	H	0.018175	0.372944	-0.000264
H208	H	0.149625	0.376486	-0.000245
