data_functionalizedCrystal
_audit_creation_method	'MofGen! by Chris Wilmer'
_symmetry_space_group_name_H-M	'P1'
_symmetry_Int_Tables_number	1
_symmetry_cell_setting	triclinic
loop_
_symmetry_equiv_pos_as_xyz
  x,y,z
_cell_length_a	16.109302
_cell_length_b	10.654545
_cell_length_c	14.586319
_cell_angle_alpha	89.998553
_cell_angle_beta	89.994552
_cell_angle_gamma	83.973604
loop_
_atom_site_label
_atom_site_type_symbol
_atom_site_fract_x
_atom_site_fract_y
_atom_site_fract_z
O1	O	1.104091	0.161423	-0.076277
O2	O	0.862148	0.181511	-0.076269
O3	O	0.988682	-0.011348	-0.076272
O4	O	0.977557	0.354282	-0.076273
O5	O	0.988673	-0.011350	0.076208
O6	O	0.862139	0.181508	0.076212
O7	O	1.104082	0.161420	0.076204
Cu8	Cu	0.983110	0.171464	0.090131
Cu9	Cu	0.983120	0.171467	-0.090196
O10	O	0.977548	0.354279	0.076207
C11	C	0.831164	0.180695	-0.000028
C12	C	0.738854	0.178255	-0.000025
C13	C	0.526475	0.172612	0.083083
C14	C	0.439741	0.170306	0.083080
C15	C	0.439761	0.170316	-0.083163
C16	C	0.526494	0.172613	-0.083159
C17	C	0.569848	0.173767	-0.000033
C18	C	0.396382	0.169164	-0.000040
C19	C	0.302341	0.166664	-0.000044
C20	C	0.663895	0.176265	-0.000028
C21	C	0.987860	-0.058136	-0.000034
C22	C	0.985416	-0.197546	-0.000039
C23	C	0.985435	-0.197552	-0.166278
C24	C	0.984300	-0.263049	-0.249397
C25	C	0.982003	-0.394036	-0.249398
C26	C	0.980840	-0.459529	-0.166271
C27	C	0.981975	-0.394032	-0.083152
C28	C	0.984274	-0.263042	-0.083160
C29	C	0.981950	-0.394026	0.083085
C30	C	0.984252	-0.263039	0.083088
C31	C	0.980786	-0.459519	0.166212
C32	C	0.981927	-0.394023	0.249334
C33	C	0.984225	-0.263027	0.249331
C34	C	0.985388	-0.197542	0.166207
C35	C	1.135066	0.162236	-0.000039
C36	C	1.227376	0.164676	-0.000048
C37	C	0.978370	0.401067	-0.000033
C38	C	0.980814	0.540477	-0.000034
N39	N	0.983108	0.171461	0.216962
N40	N	0.983128	0.171460	-0.217027
C41	C	1.039156	0.086092	0.451967
C42	C	1.039159	0.086089	0.547949
C43	C	0.927074	0.256834	0.547961
C44	C	0.927069	0.256830	0.451982
C45	C	0.983114	0.171460	0.403987
C46	C	0.983122	0.171461	0.595948
C47	C	0.983125	0.171458	0.700015
C48	C	0.983111	0.171461	0.299913
H49	H	0.561810	0.173550	-0.150846
C50	C	0.985474	-0.190990	0.340764
H51	H	0.984457	-0.248760	0.390265
H52	H	0.937974	-0.130291	0.344216
H53	H	1.034775	-0.149495	0.344225
C54	C	0.987915	-0.053460	0.166206
H55	H	0.988430	-0.023829	0.227612
H56	H	0.940044	-0.014234	0.135499
H57	H	1.036845	-0.033430	0.135513
C58	C	1.100796	-0.007821	0.399176
H59	H	1.134167	-0.058672	0.441502
H60	H	1.135664	0.037361	0.361725
H61	H	1.070579	-0.060115	0.361745
C62	C	0.988625	-0.053606	-0.166281
H63	H	0.989351	-0.024022	-0.227689
H64	H	1.037721	-0.034346	-0.135576
H65	H	0.940951	-0.013680	-0.135591
C66	C	0.574167	0.173870	0.174515
H67	H	0.632033	0.175416	0.162616
H68	H	0.565868	0.100302	0.208664
H69	H	0.554027	0.246690	0.208667
C70	C	0.392004	0.169364	0.174505
H71	H	0.334132	0.167916	0.162601
H72	H	0.400364	0.243029	0.208507
H73	H	0.412049	0.096638	0.208808
C74	C	0.980648	-0.466064	0.340760
H75	H	0.979118	-0.553456	0.328855
H76	H	0.932625	-0.434998	0.374913
H77	H	1.029426	-0.454203	0.374912
H78	H	0.404452	0.169377	-0.150841
H79	H	1.084792	0.016573	0.587011
H80	H	0.881444	0.326341	0.587048
H81	H	0.881428	0.326347	0.412913
H82	H	0.981071	-0.447362	-0.317081
C83	C	0.985583	-0.191006	-0.340830
H84	H	0.987122	-0.103615	-0.328930
H85	H	0.936817	-0.202877	-0.374990
H86	H	1.033617	-0.222074	-0.374974
H87	H	0.978960	-0.566184	-0.166280
H88	H	0.978911	-0.566175	0.166206
