data_functionalizedCrystal
_audit_creation_method	'MofGen! by Chris Wilmer'
_symmetry_space_group_name_H-M	'P1'
_symmetry_Int_Tables_number	1
_symmetry_cell_setting	triclinic
loop_
_symmetry_equiv_pos_as_xyz
  x,y,z
_cell_length_a	13.101039
_cell_length_b	16.109301
_cell_length_c	16.109301
_cell_angle_alpha	96.538519
_cell_angle_beta	93.359902
_cell_angle_gamma	93.353949
loop_
_atom_site_label
_atom_site_type_symbol
_atom_site_fract_x
_atom_site_fract_y
_atom_site_fract_z
O1	O	-0.085153	-1.107703	0.102280
O2	O	0.164847	-0.857703	0.352280
O3	O	0.414847	-0.607703	0.602280
O4	O	0.664847	-0.357703	0.852280
O5	O	-0.085169	-0.865642	0.115579
O6	O	0.164831	-0.615642	0.365579
O7	O	0.414831	-0.365642	0.615579
O8	O	0.664831	-0.115642	0.865579
O9	O	-0.085150	-0.993322	-0.012101
O10	O	0.164850	-0.743322	0.237899
O11	O	0.414850	-0.493322	0.487899
O12	O	0.664850	-0.243322	0.737899
O13	O	-0.085172	-0.980024	0.229960
O14	O	0.164828	-0.730024	0.479960
O15	O	0.414828	-0.480024	0.729960
O16	O	0.664828	-0.230024	0.979960
O17	O	0.085278	-0.984161	-0.002925
O18	O	0.335278	-0.734161	0.247075
O19	O	0.585278	-0.484161	0.497075
O20	O	0.835278	-0.234161	0.747075
O21	O	0.085259	-0.856482	0.124755
O22	O	0.335259	-0.606482	0.374755
O23	O	0.585259	-0.356482	0.624755
O24	O	0.835259	-0.106482	0.874755
O25	O	0.085276	-1.098543	0.111456
O26	O	0.335276	-0.848543	0.361456
O27	O	0.585276	-0.598543	0.611456
O28	O	0.835276	-0.348543	0.861456
Zn29	Zn	0.112327	-0.976058	0.119563
Zn30	Zn	0.362327	-0.726058	0.369563
Zn31	Zn	0.612327	-0.476058	0.619563
Zn32	Zn	0.862327	-0.226058	0.869563
Zn33	Zn	-0.112220	-0.988127	0.107473
Zn34	Zn	0.137780	-0.738127	0.357473
Zn35	Zn	0.387780	-0.488127	0.607473
Zn36	Zn	0.637780	-0.238127	0.857473
O37	O	0.085257	-0.970863	0.239136
O38	O	0.335257	-0.720863	0.489136
O39	O	0.585257	-0.470863	0.739136
O40	O	0.835257	-0.220863	0.989136
C41	C	0.000043	-0.830087	0.119628
C42	C	0.250043	-0.580087	0.369628
C43	C	0.500043	-0.330087	0.619628
C44	C	0.750043	-0.080087	0.869628
C45	C	0.000037	-0.737792	0.118013
C46	C	0.250037	-0.487792	0.368013
C47	C	0.500037	-0.237792	0.618013
C48	C	0.750037	0.012208	0.868013
N49	N	0.265574	-0.967826	0.127813
N50	N	0.515574	-0.717826	0.377813
N51	N	0.765574	-0.467826	0.627813
N52	N	1.015574	-0.217826	0.877813
N53	N	-0.265467	-0.996365	0.099216
N54	N	-0.015467	-0.746365	0.349216
N55	N	0.234533	-0.496365	0.599216
N56	N	0.484533	-0.246365	0.849216
C57	C	0.474615	-0.956627	0.139046
C58	C	0.724615	-0.706627	0.389046
C59	C	0.974615	-0.456627	0.639046
C60	C	1.224615	-0.206627	0.889046
C61	C	0.525498	-1.007562	0.087986
C62	C	0.775498	-0.757562	0.337986
C63	C	1.025498	-0.507562	0.587986
C64	C	1.275498	-0.257562	0.837986
C65	C	0.641816	-1.001330	0.094236
C66	C	0.891816	-0.751330	0.344236
C67	C	1.141816	-0.501330	0.594236
C68	C	1.391816	-0.251330	0.844236
C69	C	0.358287	-0.962858	0.132797
C70	C	0.608287	-0.712858	0.382797
C71	C	0.858287	-0.462858	0.632797
C72	C	1.108287	-0.212858	0.882797
C73	C	0.000065	-0.988203	-0.038488
C74	C	0.250065	-0.738203	0.211512
C75	C	0.500065	-0.488203	0.461512
C76	C	0.750065	-0.238203	0.711512
C77	C	0.000066	-0.986588	-0.130783
C78	C	0.250066	-0.736588	0.119217
C79	C	0.500066	-0.486588	0.369217
C80	C	0.750066	-0.236588	0.619217
C81	C	0.000061	-1.134098	0.107407
C82	C	0.250061	-0.884098	0.357407
C83	C	0.500061	-0.634098	0.607407
C84	C	0.750061	-0.384098	0.857407
C85	C	0.000061	-1.226393	0.109022
C86	C	0.250061	-0.976393	0.359022
C87	C	0.500061	-0.726393	0.609022
C88	C	0.750061	-0.476393	0.859022
C89	C	0.000042	-0.515520	0.190021
C90	C	0.250042	-0.265520	0.440021
C91	C	0.500042	-0.015520	0.690021
C92	C	0.750042	0.234480	0.940021
C93	C	0.000049	-0.428799	0.188497
C94	C	0.250049	-0.178799	0.438497
C95	C	0.500049	0.071201	0.688497
C96	C	0.750049	0.321201	0.938497
C97	C	0.000058	-0.448673	0.037009
C98	C	0.250058	-0.198673	0.287009
C99	C	0.500058	0.051327	0.537009
C100	C	0.750058	0.301327	0.787009
C101	C	0.000059	-0.535391	0.038534
C102	C	0.250059	-0.285391	0.288534
C103	C	0.500059	-0.035391	0.538534
C104	C	0.750059	0.214609	0.788534
C105	C	0.000046	-0.568812	0.115042
C106	C	0.250046	-0.318812	0.365042
C107	C	0.500046	-0.068812	0.615042
C108	C	0.750046	0.181188	0.865042
C109	C	0.000052	-0.395373	0.111993
C110	C	0.250052	-0.145373	0.361993
C111	C	0.500052	0.104627	0.611993
C112	C	0.750052	0.354627	0.861993
C113	C	0.000059	-0.301347	0.110340
C114	C	0.250059	-0.051347	0.360340
C115	C	0.500059	0.198653	0.610340
C116	C	0.750059	0.448653	0.860340
C117	C	0.000040	-0.662845	0.116695
C118	C	0.250040	-0.412845	0.366695
C119	C	0.500040	-0.162845	0.616695
C120	C	0.750040	0.087155	0.866695
C121	C	0.000055	-1.058596	-0.353056
C122	C	0.250055	-0.808596	-0.103056
C123	C	0.500055	-0.558596	0.146944
C124	C	0.750055	-0.308596	0.396944
C125	C	0.000046	-1.057072	-0.439777
C126	C	0.250046	-0.807072	-0.189777
C127	C	0.500046	-0.557072	0.060223
C128	C	0.750046	-0.307072	0.310223
C129	C	0.000040	-0.905584	-0.419903
C130	C	0.250040	-0.655584	-0.169903
C131	C	0.500040	-0.405584	0.080097
C132	C	0.750040	-0.155584	0.330097
C133	C	0.000041	-0.907109	-0.333184
C134	C	0.250041	-0.657109	-0.083184
C135	C	0.500041	-0.407109	0.166816
C136	C	0.750041	-0.157109	0.416816
C137	C	0.000054	-0.983617	-0.299763
C138	C	0.250054	-0.733617	-0.049763
C139	C	0.500054	-0.483617	0.200237
C140	C	0.750054	-0.233617	0.450237
C141	C	0.000044	-0.980569	-0.473202
C142	C	0.250044	-0.730569	-0.223202
C143	C	0.500044	-0.480569	0.026798
C144	C	0.750044	-0.230569	0.276798
C145	C	0.000035	-0.978916	-0.567229
C146	C	0.250035	-0.728916	-0.317229
C147	C	0.500035	-0.478916	-0.067229
C148	C	0.750035	-0.228916	0.182771
C149	C	0.000061	-0.985270	-0.205730
C150	C	0.250061	-0.735270	0.044270
C151	C	0.500061	-0.485270	0.294270
C152	C	0.750061	-0.235270	0.544270
C153	C	0.000040	-0.975982	0.265523
C154	C	0.250040	-0.725982	0.515523
C155	C	0.500040	-0.475982	0.765523
C156	C	0.750040	-0.225982	1.015523
C157	C	0.000032	-0.977598	0.357818
C158	C	0.250032	-0.727598	0.607818
C159	C	0.500032	-0.477598	0.857818
C160	C	0.750032	-0.227598	1.107818
H161	H	0.481703	-1.055848	0.039579
H162	H	0.731703	-0.805848	0.289579
H163	H	0.981703	-0.555848	0.539579
H164	H	1.231703	-0.305848	0.789579
H165	H	0.000075	-0.421450	-0.025281
H166	H	0.250075	-0.171450	0.224719
H167	H	0.500075	0.078550	0.474719
H168	H	0.750075	0.328550	0.724719
Cl169	Cl	0.000046	-0.361805	0.282761
Cl170	Cl	0.250046	-0.111805	0.532761
Cl171	Cl	0.500046	0.138195	0.782761
Cl172	Cl	0.750046	0.388195	1.032761
H173	H	0.000037	-0.846048	-0.289790
H174	H	0.250037	-0.596048	-0.039790
H175	H	0.500037	-0.346048	0.210210
H176	H	0.750037	-0.096048	0.460210
H177	H	0.518405	-0.908345	0.187451
H178	H	0.768405	-0.658345	0.437451
H179	H	1.018405	-0.408345	0.687451
H180	H	1.268405	-0.158345	0.937451
H181	H	0.000039	-0.542727	0.252319
H182	H	0.250039	-0.292727	0.502319
H183	H	0.500039	-0.042727	0.752319
H184	H	0.750039	0.207273	1.002319
Cl185	Cl	0.000045	-1.151336	-0.506771
Cl186	Cl	0.250045	-0.901336	-0.256771
Cl187	Cl	0.500045	-0.651336	-0.006771
Cl188	Cl	0.750045	-0.401336	0.243229
H189	H	0.000065	-0.578785	-0.022527
H190	H	0.250065	-0.328785	0.227473
H191	H	0.500065	-0.078785	0.477473
H192	H	0.750065	0.171215	0.727473
H193	H	0.000063	-1.120894	-0.325848
H194	H	0.250063	-0.870894	-0.075848
H195	H	0.500063	-0.620894	0.174152
H196	H	0.750063	-0.370894	0.424152
Cl197	Cl	0.000024	-0.809408	-0.461924
Cl198	Cl	0.250024	-0.559408	-0.211924
Cl199	Cl	0.500024	-0.309408	0.038076
Cl200	Cl	0.750024	-0.059408	0.288076
