data_functionalizedCrystal
_audit_creation_method	'MofGen! by Chris Wilmer'
_symmetry_space_group_name_H-M	'P1'
_symmetry_Int_Tables_number	1
_symmetry_cell_setting	triclinic
loop_
_symmetry_equiv_pos_as_xyz
  x,y,z
_cell_length_a	10.968094
_cell_length_b	14.044220
_cell_length_c	9.482900
_cell_angle_alpha	100.188801
_cell_angle_beta	92.548310
_cell_angle_gamma	88.854227
loop_
_atom_site_label
_atom_site_type_symbol
_atom_site_fract_x
_atom_site_fract_y
_atom_site_fract_z
O1	O	1.628156	0.167962	0.286952
O2	O	1.279172	0.170055	0.199528
O3	O	1.448424	0.030830	0.241942
O4	O	1.458904	0.307186	0.244539
O5	O	1.414057	0.059229	0.475122
O6	O	1.244805	0.198453	0.432709
O7	O	1.593790	0.196360	0.520133
Cu8	Cu	1.416160	0.200000	0.497712
Cu9	Cu	1.456802	0.166415	0.221949
O10	O	1.424538	0.335585	0.477719
C11	C	1.217056	0.181957	0.304863
C12	C	1.083171	0.175102	0.271324
C13	C	0.867295	0.179661	0.342493
C14	C	1.005670	0.186754	0.377171
C15	C	1.426655	0.009544	0.357384
C16	C	1.412975	-0.096191	0.353959
C17	C	1.387970	-0.289786	0.347674
C18	C	1.484988	-0.343807	0.371973
C19	C	1.471075	-0.451530	0.368476
C20	C	1.401881	-0.182053	0.351171
C21	C	1.655906	0.184457	0.414795
C22	C	1.789792	0.191312	0.448325
C23	C	1.446308	0.356870	0.362274
C24	C	1.459988	0.462604	0.365690
N25	N	1.387583	0.223621	0.691671
N26	N	1.485387	0.142786	0.027992
C27	C	1.448364	0.173377	0.779102
C28	C	1.424597	0.193038	0.940563
H29	H	1.041754	0.201977	0.493458
N30	N	1.037899	0.155987	0.125447
N31	N	0.925558	0.150244	0.097479
H32	H	0.893582	0.136742	-0.005545
H33	H	0.825882	0.206534	0.564604
N34	N	1.337218	0.265252	0.996590
N35	N	1.247124	0.242334	1.058998
H36	H	1.185411	0.293332	1.098569
H37	H	1.517992	0.115801	0.734422
N38	N	1.602288	-0.300327	0.401367
N39	N	1.613573	-0.211610	0.404209
H40	H	1.696412	-0.180897	0.424972
H41	H	1.294468	-0.324437	0.324248
H42	H	1.555019	0.085207	0.983317
N43	N	1.300222	0.295835	0.747730
N44	N	1.281034	0.311701	0.878810
H45	H	1.219332	0.362702	0.918400
H46	H	0.831205	0.164429	0.226213
