data_functionalizedCrystal
_audit_creation_method	'MofGen! by Chris Wilmer'
_symmetry_space_group_name_H-M	'P1'
_symmetry_Int_Tables_number	1
_symmetry_cell_setting	triclinic
loop_
_symmetry_equiv_pos_as_xyz
  x,y,z
_cell_length_a	6.817900
_cell_length_b	12.000057
_cell_length_c	13.167916
_cell_angle_alpha	94.845376
_cell_angle_beta	105.755908
_cell_angle_gamma	119.141479
loop_
_atom_site_label
_atom_site_type_symbol
_atom_site_fract_x
_atom_site_fract_y
_atom_site_fract_z
V1	V	-4.177375	-0.216937	-0.337767
O2	O	-4.072001	-0.030589	-0.329467
O3	O	-4.214441	-0.390705	-0.337256
O4	O	-4.155163	-0.231597	-0.484258
O5	O	-4.131689	-0.190799	-0.181447
V6	V	-4.646536	-0.192522	-0.318851
O7	O	-4.470140	-0.270495	-0.379260
O8	O	-4.803969	-0.138964	-0.277358
O9	O	-4.386264	-0.018754	-0.319362
O10	O	-4.869307	-0.378870	-0.327151
O11	O	-4.809619	-0.218660	-0.475171
O12	O	-4.445541	-0.177862	-0.172360
C13	C	-4.079385	-0.432503	-0.332392
C14	C	-4.191152	-0.574676	-0.332950
C15	C	-4.179392	-0.778203	-0.328598
C16	C	-4.063874	-0.631261	-0.328024
C17	C	-4.003769	-0.229543	-0.519906
C18	C	-4.067457	-0.242679	-0.639675
C19	C	-4.258189	-0.380205	-0.825079
C20	C	-4.198370	-0.367878	-0.712548
C21	C	-3.996353	-0.129798	-0.679340
C22	C	-4.056173	-0.142124	-0.791871
C23	C	-4.187096	-0.267332	-0.864738
C24	C	-4.246929	-0.279658	-0.977271
C25	C	-4.044898	-0.041579	-0.944061
C26	C	-3.985079	-0.029252	-0.831530
C27	C	-4.184664	0.023038	-0.324224
C28	C	-4.052138	0.165209	-0.323672
C29	C	-4.260279	-0.179919	-0.136706
C30	C	-4.175826	-0.166777	-0.016936
H31	H	-4.364804	-0.482154	-0.884409
C32	C	-3.854506	0.006199	-0.600345
C33	C	-3.983902	0.068403	-0.622941
C34	C	-3.853290	0.193690	-0.550200
H35	H	-3.829004	-0.002456	-0.527610
H36	H	-3.703635	0.057658	-0.608425
H37	H	-4.134729	0.016957	-0.614851
H38	H	-4.009406	0.077093	-0.695662
H39	H	-3.702419	0.245149	-0.558280
H40	H	-3.827794	0.185022	-0.477469
H41	H	-3.941054	0.235916	-0.565527
H42	H	-3.878471	0.072689	-0.772188
C43	C	-4.450457	-0.655343	-0.339171
C44	C	-4.513508	-0.785058	-0.338529
C45	C	-4.752359	-0.859406	-0.344264
H46	H	-4.466770	-0.617421	-0.278096
H47	H	-4.553411	-0.655726	-0.404591
H48	H	-4.410585	-0.784669	-0.273116
H49	H	-4.497252	-0.823018	-0.399600
H50	H	-4.855312	-0.859789	-0.409684
H51	H	-4.768649	-0.821473	-0.283187
H52	H	-4.795177	-0.947429	-0.343839
C53	C	-4.275699	-0.490582	-0.669700
C54	C	-4.403119	-0.602863	-0.757602
C55	C	-4.474334	-0.715924	-0.718171
H56	H	-4.137462	-0.486329	-0.622984
H57	H	-4.375858	-0.495374	-0.630053
H58	H	-4.302964	-0.598072	-0.797230
H59	H	-4.541386	-0.607159	-0.804325
H60	H	-4.574493	-0.720716	-0.678525
H61	H	-4.336083	-0.711658	-0.671456
H62	H	-4.560814	-0.792120	-0.777806
H63	H	-3.987021	0.050330	-0.976362
H64	H	-4.373858	-0.838540	-0.333236
C65	C	-4.389486	-0.415575	-1.056450
C66	C	-4.605599	-0.436270	-1.127250
C67	C	-4.736992	-0.561470	-1.200192
H68	H	-4.298131	-0.420970	-1.097595
H69	H	-4.423413	-0.481077	-1.016753
H70	H	-4.571667	-0.370785	-1.166944
H71	H	-4.697017	-0.430902	-1.086136
H72	H	-4.770919	-0.626972	-1.160494
H73	H	-4.645617	-0.566853	-1.241329
H74	H	-4.883648	-0.575532	-1.248231
H75	H	-3.869393	-0.570926	-0.323376
H76	H	-3.857666	-0.774452	-0.319025
