data_functionalizedCrystal
_audit_creation_method	'MofGen! by Chris Wilmer'
_symmetry_space_group_name_H-M	'P1'
_symmetry_Int_Tables_number	1
_symmetry_cell_setting	triclinic
loop_
_symmetry_equiv_pos_as_xyz
  x,y,z
_cell_length_a	18.050591
_cell_length_b	18.050589
_cell_length_c	18.215399
_cell_angle_alpha	90.023603
_cell_angle_beta	90.025700
_cell_angle_gamma	90.024227
loop_
_atom_site_label
_atom_site_type_symbol
_atom_site_fract_x
_atom_site_fract_y
_atom_site_fract_z
Zn1	Zn	1.135328	-0.295746	0.416253
Zn2	Zn	1.468661	0.037587	0.749587
Zn3	Zn	1.801994	0.370921	1.082920
Zn4	Zn	1.135228	-0.419941	0.293196
Zn5	Zn	1.468561	-0.086608	0.626530
Zn6	Zn	1.801895	0.246726	0.959863
Zn7	Zn	1.011136	-0.295761	0.293188
Zn8	Zn	1.344470	0.037573	0.626521
Zn9	Zn	1.677803	0.370906	0.959855
Zn10	Zn	1.011095	-0.419890	0.416209
Zn11	Zn	1.344428	-0.086557	0.749542
Zn12	Zn	1.677761	0.246776	1.082875
O13	O	1.073197	-0.357835	0.354712
O14	O	1.406530	-0.024501	0.688045
O15	O	1.739863	0.308832	1.021378
O16	O	1.239239	-0.312236	0.399952
O17	O	1.572572	0.021097	0.733285
O18	O	1.905906	0.354431	1.066618
O19	O	1.118743	-0.403496	0.190211
O20	O	1.452076	-0.070162	0.523544
O21	O	1.785409	0.263171	0.856878
O22	O	1.027670	-0.191834	0.309528
O23	O	1.361003	0.141499	0.642861
O24	O	1.694336	0.474832	0.976195
O25	O	1.239166	-0.403482	0.309542
O26	O	1.572499	-0.070148	0.642876
O27	O	1.905832	0.263185	0.976209
O28	O	1.118912	-0.191824	0.399944
O29	O	1.452246	0.141510	0.733277
O30	O	1.785579	0.474843	1.066610
O31	O	1.027573	-0.312261	0.190205
O32	O	1.360906	0.021072	0.523538
O33	O	1.694240	0.354406	0.856871
O34	O	0.907206	-0.312212	0.309485
O35	O	1.240540	0.021122	0.642818
O36	O	1.573873	0.354455	0.976151
O37	O	1.027599	-0.403395	0.519199
O38	O	1.360932	-0.070061	0.852532
O39	O	1.694265	0.263272	1.185866
O40	O	0.907176	-0.403409	0.399868
O41	O	1.240509	-0.070076	0.733201
O42	O	1.573842	0.263258	1.066534
O43	O	1.118872	-0.312187	0.519232
O44	O	1.452205	0.021147	0.852565
O45	O	1.785539	0.354480	1.185898
O46	O	1.118702	-0.523859	0.309499
O47	O	1.452036	-0.190526	0.642832
O48	O	1.785369	0.142808	0.976166
O49	O	1.027502	-0.523822	0.399876
O50	O	1.360835	-0.190488	0.733209
O51	O	1.694169	0.142845	1.066542
C52	C	0.880245	-0.357807	0.354671
C53	C	1.213578	-0.024474	0.688004
C54	C	1.546911	0.308860	1.021338
C55	C	0.797699	-0.357813	0.354671
C56	C	1.131032	-0.024480	0.688004
C57	C	1.464365	0.308854	1.021338
C58	C	0.598243	-0.308162	0.305634
C59	C	0.931577	0.025171	0.638967
C60	C	1.264910	0.358504	0.972301
C61	C	0.548822	-0.375900	0.287528
C62	C	0.882155	-0.042567	0.620862
C63	C	1.215489	0.290767	0.954195
C64	C	0.646568	-0.357836	0.354704
C65	C	0.979902	-0.024502	0.688037
C66	C	1.313235	0.308831	1.021371
C67	C	0.548908	-0.290121	0.372808
C68	C	0.882241	0.043212	0.706141
C69	C	1.215575	0.376545	1.039475
C70	C	0.500583	-0.357851	0.354735
C71	C	0.833917	-0.024518	0.688068
C72	C	1.167250	0.308815	1.021402
C73	C	0.598234	-0.425609	0.336563
C74	C	0.931568	-0.092275	0.669897
C75	C	1.264901	0.241058	1.003230
C76	C	0.598325	-0.339784	0.421874
C77	C	0.931658	-0.006451	0.755208
C78	C	1.264991	0.326882	1.088541
C79	C	0.548926	-0.407569	0.403794
C80	C	0.882259	-0.074236	0.737127
C81	C	1.215592	0.259098	1.070461
C82	C	0.730667	-0.357825	0.354685
C83	C	1.064000	-0.024492	0.688018
C84	C	1.397333	0.308841	1.021351
C85	C	0.416487	-0.357869	0.354755
C86	C	0.749820	-0.024536	0.688088
C87	C	1.083153	0.308798	1.021421
C88	C	1.073107	-0.550787	0.354699
C89	C	1.406440	-0.217453	0.688033
C90	C	1.739774	0.115880	1.021366
C91	C	1.073137	-0.633333	0.354719
C92	C	1.406470	-0.299999	0.688052
C93	C	1.739803	0.033334	1.021385
C94	C	1.023591	-0.832790	0.403848
C95	C	1.356924	-0.499456	0.737182
C96	C	1.690257	-0.166123	1.070515
C97	C	1.005487	-0.882229	0.336692
C98	C	1.338821	-0.548895	0.670026
C99	C	1.672154	-0.215562	1.003359
C100	C	1.073210	-0.784463	0.354728
C101	C	1.406543	-0.451129	0.688062
C102	C	1.739876	-0.117796	1.021395
C103	C	1.091350	-0.882105	0.421892
C104	C	1.424683	-0.548772	0.755225
C105	C	1.758016	-0.215439	1.088559
C106	C	1.073279	-0.930448	0.354743
C107	C	1.406612	-0.597115	0.688077
C108	C	1.739945	-0.263781	1.021410
C109	C	1.055070	-0.832815	0.287537
C110	C	1.388404	-0.499481	0.620870
C111	C	1.721737	-0.166148	0.954203
C112	C	1.140964	-0.832687	0.372782
C113	C	1.474298	-0.499354	0.706115
C114	C	1.807631	-0.166020	1.039448
C115	C	1.122886	-0.882104	0.305579
C116	C	1.456220	-0.548770	0.638913
C117	C	1.789553	-0.215437	0.972246
C118	C	1.073168	-0.700365	0.354721
C119	C	1.406501	-0.367031	0.688054
C120	C	1.739835	-0.033698	1.021387
C121	C	1.073320	-1.014544	0.354744
C122	C	1.406654	-0.681211	0.688077
C123	C	1.739987	-0.347878	1.021410
C124	C	1.266902	-0.357863	0.354753
C125	C	1.600236	-0.024530	0.688086
C126	C	1.933569	0.308804	1.021419
C127	C	1.349448	-0.357875	0.354770
C128	C	1.682781	-0.024542	0.688104
C129	C	2.016115	0.308792	1.021437
C130	C	1.073242	-0.357783	0.546665
C131	C	1.406575	-0.024450	0.879998
C132	C	1.739909	0.308883	1.213331
C133	C	1.073261	-0.357762	0.628463
C134	C	1.406595	-0.024428	0.961797
C135	C	1.739928	0.308905	1.295130
C136	C	1.073307	-0.164129	0.354740
C137	C	1.406640	0.169204	0.688073
C138	C	1.739974	0.502538	1.021407
C139	C	1.073354	-0.081583	0.354752
C140	C	1.406687	0.251750	0.688085
C141	C	1.740021	0.585084	1.021419
C142	C	1.073194	-0.357832	0.163505
C143	C	1.406528	-0.024499	0.496839
C144	C	1.739861	0.308835	0.830172
C145	C	1.073319	-0.357645	0.081707
C146	C	1.406652	-0.024311	0.415040
C147	C	1.739986	0.309022	0.748373
C148	C	1.120804	-0.310225	0.816676
C149	C	1.454138	0.023108	1.150009
C150	C	1.787471	0.356442	1.483342
C151	C	1.120813	-0.310203	0.893535
C152	C	1.454146	0.023130	1.226868
C153	C	1.787480	0.356463	1.560201
C154	C	1.025771	-0.405183	0.893489
C155	C	1.359104	-0.071850	1.226822
C156	C	1.692437	0.261483	1.560156
C157	C	1.025759	-0.405201	0.816632
C158	C	1.359092	-0.071867	1.149965
C159	C	1.692425	0.261466	1.483298
C160	C	1.073280	-0.357723	0.778227
C161	C	1.406613	-0.024389	1.111560
C162	C	1.739946	0.308944	1.444894
C163	C	1.073301	-0.357684	0.931943
C164	C	1.406634	-0.024350	1.265277
C165	C	1.739967	0.308983	1.598610
C166	C	1.073310	-0.357660	1.015277
C167	C	1.406643	-0.024327	1.348610
C168	C	1.739976	0.309006	1.681944
C169	C	1.073270	-0.357745	0.694888
C170	C	1.406603	-0.024411	1.028221
C171	C	1.739936	0.308922	1.361555
H172	H	0.620085	-0.324484	0.478648
H173	H	0.953418	0.008849	0.811982
H174	H	1.286752	0.342182	1.145315
N175	N	0.977223	-0.453679	0.932709
N176	N	1.310556	-0.120346	1.266042
N177	N	1.643890	0.212988	1.599375
N178	N	0.934785	-0.496075	0.898368
N179	N	1.268118	-0.162742	1.231701
N180	N	1.601451	0.170591	1.565034
H181	H	0.900492	-0.530324	0.926064
H182	H	1.233826	-0.196990	1.259398
H183	H	1.567159	0.136343	1.592731
N184	N	0.625295	-0.497472	0.317268
N185	N	0.958629	-0.164139	0.650601
N186	N	1.291962	0.169195	0.983934
N187	N	0.608888	-0.525234	0.256519
N188	N	0.942221	-0.191901	0.589852
N189	N	1.275554	0.141433	0.923186
H190	H	0.628000	-0.575986	0.242888
H191	H	0.961334	-0.242653	0.576221
H192	H	1.294667	0.090681	0.909554
H193	H	0.619897	-0.266201	0.264092
H194	H	0.953231	0.067133	0.597425
H195	H	1.286564	0.400466	0.930759
N196	N	0.521922	-0.460318	0.455879
N197	N	0.855255	-0.126985	0.789212
N198	N	1.188589	0.206348	1.122546
N199	N	0.538746	-0.454232	0.522182
N200	N	0.872079	-0.120899	0.855515
N201	N	1.205412	0.212435	1.188849
H202	H	0.519672	-0.491487	0.558966
H203	H	0.853006	-0.158153	0.892299
H204	H	1.186339	0.175180	1.225632
H205	H	1.164877	-0.903620	0.263999
H206	H	1.498210	-0.570287	0.597332
H207	H	1.831544	-0.236954	0.930665
N208	N	1.110572	-0.909283	0.493130
N209	N	1.443906	-0.575949	0.826463
N210	N	1.777239	-0.242616	1.159796
N211	N	1.114211	-0.977489	0.504395
N212	N	1.447545	-0.644155	0.837729
N213	N	1.780878	-0.310822	1.171062
H214	H	1.127782	-0.996683	0.554708
H215	H	1.461115	-0.663349	0.888041
H216	H	1.794449	-0.330016	1.221374
H217	H	0.527079	-0.391180	0.230737
H218	H	0.860413	-0.057846	0.564070
H219	H	1.193746	0.275487	0.897404
N220	N	0.521725	-0.218273	0.391993
N221	N	0.855059	0.115060	0.725326
N222	N	1.188392	0.448393	1.058659
N223	N	0.537536	-0.163524	0.353026
N224	N	0.870869	0.169809	0.686359
N225	N	1.204203	0.503143	1.019693
H226	H	0.518340	-0.112779	0.366569
H227	H	0.851673	0.220554	0.699902
H228	H	1.185007	0.553887	1.033236
N229	N	0.977199	-0.453710	0.777353
N230	N	1.310532	-0.120377	1.110687
N231	N	1.643865	0.212956	1.444020
N232	N	0.908675	-0.448770	0.785918
N233	N	1.242009	-0.115436	1.119252
N234	N	1.575342	0.217897	1.452585
H235	H	0.874378	-0.483025	0.758178
H236	H	1.207711	-0.149692	1.091511
H237	H	1.541044	0.183641	1.424845
H238	H	0.981568	-0.811136	0.445329
H239	H	1.314901	-0.477803	0.778662
H240	H	1.648235	-0.144469	1.111995
N241	N	1.169348	-0.261724	0.777457
N242	N	1.502681	0.071609	1.110790
N243	N	1.836014	0.404942	1.444124
N244	N	1.211776	-0.219319	0.811799
N245	N	1.545109	0.114015	1.145133
N246	N	1.878442	0.447348	1.478466
H247	H	1.246060	-0.185062	0.784104
H248	H	1.579394	0.148272	1.117437
H249	H	1.912727	0.481605	1.450770
H250	H	0.948222	-0.904006	0.321436
H251	H	1.281555	-0.570673	0.654770
H252	H	1.614888	-0.237340	0.988103
N253	N	1.035753	-0.805766	0.216277
N254	N	1.369086	-0.472433	0.549610
N255	N	1.702420	-0.139099	0.882943
N256	N	0.979778	-0.765827	0.208272
N257	N	1.313111	-0.432493	0.541606
N258	N	1.646445	-0.099160	0.874939
H259	H	0.966128	-0.746723	0.157947
H260	H	1.299461	-0.413390	0.491280
H261	H	1.632794	-0.080057	0.824614
N262	N	1.212788	-0.805375	0.391966
N263	N	1.546121	-0.472042	0.725299
N264	N	1.879455	-0.138708	1.058633
N265	N	1.240414	-0.821115	0.452930
N266	N	1.573747	-0.487782	0.786263
N267	N	1.907080	-0.154449	1.119597
H268	H	1.291140	-0.801826	0.466487
H269	H	1.624473	-0.468492	0.799820
H270	H	1.957807	-0.135159	1.133153
N271	N	1.169359	-0.261677	0.932797
N272	N	1.502693	0.071656	1.266131
N273	N	1.836026	0.404990	1.599464
N274	N	1.211779	-0.219290	0.898495
N275	N	1.545112	0.114044	1.231829
N276	N	1.878446	0.447377	1.565162
H277	H	1.246066	-0.185014	0.926224
H278	H	1.579400	0.148319	1.259557
H279	H	1.912733	0.481653	1.592890
