data_functionalizedCrystal
_audit_creation_method	'MofGen! by Chris Wilmer'
_symmetry_space_group_name_H-M	'P1'
_symmetry_Int_Tables_number	1
_symmetry_cell_setting	triclinic
loop_
_symmetry_equiv_pos_as_xyz
  x,y,z
_cell_length_a	19.077105
_cell_length_b	17.637651
_cell_length_c	19.076919
_cell_angle_alpha	80.566536
_cell_angle_beta	90.076224
_cell_angle_gamma	98.499620
loop_
_atom_site_label
_atom_site_type_symbol
_atom_site_fract_x
_atom_site_fract_y
_atom_site_fract_z
Zn1	Zn	0.993412	-0.376382	-0.369993
Zn2	Zn	1.326745	-0.043049	-0.036660
Zn3	Zn	1.660079	0.290284	0.296674
Zn4	Zn	0.976496	-0.501474	-0.229080
Zn5	Zn	1.309829	-0.168141	0.104253
Zn6	Zn	1.643163	0.165193	0.437587
Zn7	Zn	0.882426	-0.365960	-0.249736
Zn8	Zn	1.215759	-0.032627	0.083597
Zn9	Zn	1.549092	0.300707	0.416930
Zn10	Zn	0.854398	-0.501005	-0.341921
Zn11	Zn	1.187732	-0.167671	-0.008587
Zn12	Zn	1.521065	0.165662	0.324746
O13	O	0.926683	-0.436205	-0.297682
O14	O	1.260016	-0.102872	0.035651
O15	O	1.593350	0.230461	0.368984
O16	O	1.088714	-0.397534	-0.354404
O17	O	1.422048	-0.064201	-0.021071
O18	O	1.755381	0.269133	0.312262
O19	O	0.968667	-0.479332	-0.134268
O20	O	1.302001	-0.145999	0.199065
O21	O	1.635334	0.187334	0.532398
O22	O	0.915957	-0.258475	-0.286082
O23	O	1.249290	0.074859	0.047252
O24	O	1.582624	0.408192	0.380585
O25	O	1.076286	-0.489438	-0.250876
O26	O	1.409620	-0.156105	0.082457
O27	O	1.742953	0.177228	0.415790
O28	O	0.997498	-0.266132	-0.374434
O29	O	1.330832	0.067202	-0.041100
O30	O	1.664165	0.400535	0.292233
O31	O	0.899554	-0.379771	-0.149444
O32	O	1.232888	-0.046438	0.183889
O33	O	1.566221	0.286896	0.517222
O34	O	0.781161	-0.379316	-0.258861
O35	O	1.114495	-0.045983	0.074472
O36	O	1.447828	0.287351	0.407806
O37	O	0.868189	-0.488639	-0.443196
O38	O	1.201522	-0.155305	-0.109863
O39	O	1.534856	0.178028	0.223470
O40	O	0.760570	-0.478533	-0.326588
O41	O	1.093903	-0.145199	0.006745
O42	O	1.427237	0.188134	0.340078
O43	O	0.970321	-0.397079	-0.463821
O44	O	1.303655	-0.063746	-0.130488
O45	O	1.636988	0.269588	0.202846
O46	O	0.941491	-0.610280	-0.223656
O47	O	1.274824	-0.276946	0.109678
O48	O	1.608157	0.056387	0.443011
O49	O	0.851786	-0.609935	-0.306559
O50	O	1.185119	-0.276602	0.026774
O51	O	1.518453	0.056732	0.360108
C52	C	0.745573	-0.427743	-0.291920
C53	C	1.078906	-0.094410	0.041413
C54	C	1.412240	0.238924	0.374746
C55	C	0.668089	-0.424142	-0.289468
C56	C	1.001423	-0.090809	0.043865
C57	C	1.334756	0.242524	0.377198
C58	C	0.620975	-0.474180	-0.323494
C59	C	0.954309	-0.140846	0.009839
C60	C	1.287642	0.192487	0.343173
C61	C	0.548173	-0.470786	-0.321195
C62	C	0.881506	-0.137453	0.012138
C63	C	1.214839	0.195880	0.345471
C64	C	0.522485	-0.417359	-0.284866
C65	C	0.855818	-0.084026	0.048467
C66	C	1.189152	0.249308	0.381800
C67	C	0.569605	-0.367316	-0.250840
C68	C	0.902939	-0.033983	0.082494
C69	C	1.236272	0.299350	0.415827
C70	C	0.642407	-0.370706	-0.253143
C71	C	0.975740	-0.037373	0.080190
C72	C	1.309074	0.295960	0.413524
C73	C	0.305902	-0.401669	-0.274209
C74	C	0.639235	-0.068336	0.059124
C75	C	0.972568	0.264998	0.392457
C76	C	0.233094	-0.398284	-0.271907
C77	C	0.566427	-0.064951	0.061427
C78	C	0.899760	0.268382	0.394760
C79	C	0.211666	-0.501754	-0.342264
C80	C	0.545000	-0.168420	-0.008931
C81	C	0.878333	0.164913	0.324403
C82	C	0.284470	-0.505142	-0.344561
C83	C	0.617803	-0.171809	-0.011227
C84	C	0.951137	0.161524	0.322106
C85	C	0.331584	-0.455097	-0.310537
C86	C	0.664917	-0.121764	0.022796
C87	C	0.998251	0.211570	0.356130
N88	N	0.448069	-0.413891	-0.282514
N89	N	0.781403	-0.080557	0.050820
N90	N	1.114736	0.252776	0.384153
N91	N	0.405999	-0.458562	-0.312894
N92	N	0.739332	-0.125229	0.020439
N93	N	1.072666	0.208105	0.353773
C94	C	0.891780	-0.638337	-0.259835
C95	C	1.225113	-0.305004	0.073498
C96	C	1.558446	0.028329	0.406831
C97	C	0.876910	-0.724814	-0.243670
C98	C	1.210244	-0.391481	0.089664
C99	C	1.543577	-0.058147	0.422997
C100	C	1.040085	-1.028866	-0.420726
C101	C	1.373418	-0.695532	-0.087393
C102	C	1.706752	-0.362199	0.245940
C103	C	1.026091	-1.110122	-0.405523
C104	C	1.359425	-0.776789	-0.072190
C105	C	1.692758	-0.443456	0.261143
C106	C	0.941246	-1.102255	-0.313438
C107	C	1.274579	-0.768922	0.019895
C108	C	1.607913	-0.435589	0.353229
C109	C	0.955235	-1.020996	-0.328631
C110	C	1.288568	-0.687663	0.004702
C111	C	1.621902	-0.354330	0.338036
C112	C	1.004654	-0.984308	-0.382276
C113	C	1.337988	-0.650975	-0.048943
C114	C	1.671321	-0.317641	0.284390
C115	C	0.919805	-0.976439	-0.290181
C116	C	1.253138	-0.643106	0.043152
C117	C	1.586471	-0.309772	0.376485
C118	C	0.933790	-0.895187	-0.305376
C119	C	1.267123	-0.561854	0.027958
C120	C	1.600457	-0.228520	0.361291
C121	C	0.983205	-0.858493	-0.359020
C122	C	1.316539	-0.525159	-0.025687
C123	C	1.649872	-0.191826	0.307647
C124	C	1.018640	-0.903056	-0.397471
C125	C	1.351973	-0.569723	-0.064138
C126	C	1.685306	-0.236390	0.269196
C127	C	0.870382	-1.013129	-0.236540
C128	C	1.203715	-0.679795	0.096794
C129	C	1.537048	-0.346462	0.430127
C130	C	0.834951	-0.968571	-0.198090
C131	C	1.168285	-0.635238	0.135244
C132	C	1.501618	-0.301904	0.468577
C133	C	0.848940	-0.887318	-0.213281
C134	C	1.182273	-0.553984	0.120053
C135	C	1.515607	-0.220651	0.453386
C136	C	0.898356	-0.850623	-0.266925
C137	C	1.231689	-0.517290	0.066408
C138	C	1.565022	-0.183957	0.399742
C139	C	0.813506	-0.842754	-0.174830
C140	C	1.146839	-0.509421	0.158504
C141	C	1.480172	-0.176087	0.491837
C142	C	0.827491	-0.761502	-0.190024
C143	C	1.160824	-0.428169	0.143309
C144	C	1.494158	-0.094836	0.476642
C145	C	0.912341	-0.769372	-0.282119
C146	C	1.245674	-0.436038	0.051214
C147	C	1.579007	-0.102705	0.384547
C148	C	1.108500	-0.444701	-0.303467
C149	C	1.441833	-0.111368	0.029866
C150	C	1.775167	0.221966	0.363199
C151	C	1.185980	-0.448321	-0.305933
C152	C	1.519313	-0.114988	0.027401
C153	C	1.852646	0.218345	0.360734
C154	C	0.918016	-0.443969	-0.479510
C155	C	1.251349	-0.110636	-0.146177
C156	C	1.584682	0.222698	0.187157
C157	C	0.914322	-0.447278	-0.556994
C158	C	1.247656	-0.113944	-0.223661
C159	C	1.580989	0.219389	0.109673
C160	C	0.961741	-0.233286	-0.335693
C161	C	1.295074	0.100048	-0.002360
C162	C	1.628408	0.433381	0.330973
C163	C	0.976681	-0.146813	-0.351891
C164	C	1.310014	0.186520	-0.018558
C165	C	1.643347	0.519853	0.314776
C166	C	0.965759	-0.401164	-0.604135
C167	C	1.299093	-0.067831	-0.270802
C168	C	1.632426	0.265503	0.062532
C169	C	0.962281	-0.404269	-0.676940
C170	C	1.295614	-0.070936	-0.343606
C171	C	1.628948	0.262397	-0.010273
C172	C	0.907368	-0.453493	-0.702601
C173	C	1.240701	-0.120159	-0.369268
C174	C	1.574034	0.213174	-0.035935
C175	C	0.855926	-0.499608	-0.655455
C176	C	1.189259	-0.166275	-0.322122
C177	C	1.522592	0.167058	0.011212
C178	C	0.859402	-0.496498	-0.582652
C179	C	1.192735	-0.163165	-0.249319
C180	C	1.526068	0.170168	0.084015
C181	C	0.891267	-0.467902	-0.919187
C182	C	1.224600	-0.134568	-0.585853
C183	C	1.557933	0.198765	-0.252520
C184	C	0.887796	-0.471010	-0.991995
C185	C	1.221129	-0.137676	-0.658662
C186	C	1.554462	0.195657	-0.325328
C187	C	0.994151	-0.375669	-1.013475
C188	C	1.327484	-0.042336	-0.680142
C189	C	1.660817	0.290997	-0.346808
C190	C	0.997624	-0.372567	-0.940669
C191	C	1.330958	-0.039234	-0.607336
C192	C	1.664291	0.294100	-0.274003
C193	C	0.946180	-0.418679	-0.893530
C194	C	1.279514	-0.085346	-0.560196
C195	C	1.612847	0.247987	-0.226863
N196	N	0.903812	-0.456670	-0.777019
N197	N	1.237145	-0.123337	-0.443686
N198	N	1.570479	0.209997	-0.110352
N199	N	0.949733	-0.415498	-0.819114
N200	N	1.283067	-0.082164	-0.485781
N201	N	1.616400	0.251169	-0.152447
C202	C	0.935366	-0.428417	-0.116574
C203	C	1.268700	-0.095084	0.216759
C204	C	1.602033	0.238249	0.550093
C205	C	0.939233	-0.424896	-0.039136
C206	C	1.272566	-0.091563	0.294198
C207	C	1.605899	0.241771	0.627531
H208	H	0.509814	-0.511533	-0.348902
H209	H	0.843148	-0.178199	-0.015569
H210	H	1.176481	0.155134	0.317764
H211	H	1.058888	-0.873184	-0.441150
H212	H	1.392221	-0.539850	-0.107816
H213	H	1.725554	-0.206517	0.225517
Br214	Br	0.534746	-0.294800	-0.201543
Br215	Br	0.868079	0.038534	0.131790
Br216	Br	1.201412	0.371867	0.465124
H217	H	1.042342	-0.332486	-0.919781
H218	H	1.375675	0.000847	-0.586448
H219	H	1.709009	0.334180	-0.253115
Br220	Br	0.781396	-0.566408	-0.690281
Br221	Br	1.114729	-0.233074	-0.356948
Br222	Br	1.448063	0.100259	-0.023615
Br223	Br	0.319326	-0.577658	-0.393862
Br224	Br	0.652659	-0.244324	-0.060528
Br225	Br	0.985992	0.089009	0.272805
H226	H	0.212184	-0.354768	-0.242329
H227	H	0.545517	-0.021435	0.091004
H228	H	0.878850	0.311898	0.424338
H229	H	0.173299	-0.542497	-0.369965
H230	H	0.506632	-0.209163	-0.036632
H231	H	0.839965	0.124170	0.296701
Br232	Br	0.655828	-0.546698	-0.372794
Br233	Br	0.989162	-0.213364	-0.039461
Br234	Br	1.322495	0.119969	0.293872
H235	H	0.344253	-0.360924	-0.246499
H236	H	0.677586	-0.027591	0.086835
H237	H	1.010920	0.305742	0.420168
Br238	Br	0.706350	-0.302792	-0.206968
Br239	Br	1.039683	0.030541	0.126366
Br240	Br	1.373016	0.363875	0.459699
H241	H	0.794712	-0.998454	-0.154413
H242	H	1.128046	-0.665121	0.178920
H243	H	1.461379	-0.331787	0.512253
H244	H	0.952589	-0.739499	-0.325798
H245	H	1.285922	-0.406166	0.007535
H246	H	1.619255	-0.072832	0.340869
Br247	Br	0.851522	-1.123401	-0.215807
Br248	Br	1.184855	-0.790067	0.117526
Br249	Br	1.518188	-0.456734	0.450860
H250	H	1.004168	-0.366720	-0.715319
H251	H	1.337501	-0.033387	-0.381986
H252	H	1.670834	0.299946	-0.048653
H253	H	0.994592	-0.792332	-0.371390
H254	H	1.327925	-0.458999	-0.038057
H255	H	1.661258	-0.125665	0.295277
Br256	Br	1.063963	-0.313090	-1.077453
Br257	Br	1.397296	0.020243	-0.744120
Br258	Br	1.730629	0.353577	-0.410786
H259	H	1.080333	-0.998993	-0.464405
H260	H	1.413666	-0.665660	-0.131072
H261	H	1.746999	-0.332326	0.202262
Br262	Br	0.746425	-0.892555	-0.102041
Br263	Br	1.079759	-0.559222	0.231292
Br264	Br	1.413092	-0.225888	0.564626
Br265	Br	1.074185	-1.170592	-0.457708
Br266	Br	1.407518	-0.837259	-0.124375
Br267	Br	1.740851	-0.503926	0.208958
Br268	Br	0.779408	-0.701026	-0.137842
Br269	Br	1.112741	-0.367693	0.195492
Br270	Br	1.446074	-0.034359	0.528825
H271	H	0.901007	-1.132138	-0.269762
H272	H	1.234340	-0.798805	0.063572
H273	H	1.567674	-0.465472	0.396905
Br274	Br	1.040292	-0.334363	-0.569315
Br275	Br	1.373626	-0.001030	-0.235982
Br276	Br	1.706959	0.332303	0.097351
H277	H	0.843076	-0.511095	-1.012885
H278	H	1.176410	-0.177762	-0.679552
H279	H	1.509743	0.155571	-0.346218
Br280	Br	0.821448	-0.530482	-0.855220
Br281	Br	1.154781	-0.197148	-0.521887
Br282	Br	1.488115	0.136185	-0.188554
Br283	Br	0.789588	-0.559079	-0.518674
Br284	Br	1.122921	-0.225745	-0.185341
Br285	Br	1.456255	0.107588	0.147992
