data_functionalizedCrystal
_audit_creation_method	'MofGen! by Chris Wilmer'
_symmetry_space_group_name_H-M	'P1'
_symmetry_Int_Tables_number	1
_symmetry_cell_setting	triclinic
loop_
_symmetry_equiv_pos_as_xyz
  x,y,z
_cell_length_a	14.044220
_cell_length_b	12.837932
_cell_length_c	11.892095
_cell_angle_alpha	94.305320
_cell_angle_beta	85.750402
_cell_angle_gamma	94.009290
loop_
_atom_site_label
_atom_site_type_symbol
_atom_site_fract_x
_atom_site_fract_y
_atom_site_fract_z
O1	O	1.285972	0.245913	-0.093867
O2	O	1.785972	0.745913	0.406133
O3	O	1.009183	0.236816	-0.093896
O4	O	1.509183	0.736816	0.406104
O5	O	1.141439	0.089894	-0.093883
O6	O	1.641439	0.589894	0.406117
O7	O	1.153716	0.392835	-0.093880
O8	O	1.653716	0.892835	0.406120
O9	O	1.130410	0.102123	0.094123
O10	O	1.630410	0.602123	0.594123
O11	O	0.998154	0.249046	0.094110
O12	O	1.498154	0.749046	0.594110
O13	O	1.274943	0.258142	0.094139
O14	O	1.774943	0.758142	0.594139
Zn15	Zn	1.134797	0.255536	0.123975
Zn16	Zn	1.634797	0.755536	0.623975
Zn17	Zn	1.149328	0.239423	-0.123732
Zn18	Zn	1.649328	0.739423	0.376268
O19	O	1.142686	0.405065	0.094126
O20	O	1.642686	0.905065	0.594126
C21	C	1.131778	0.057004	0.000117
C22	C	1.631778	0.557004	0.500117
C23	C	1.119410	-0.059217	0.000108
C24	C	1.619410	0.440783	0.500108
C25	C	0.967994	0.238950	0.000103
C26	C	1.467994	0.738950	0.500103
C27	C	0.861697	0.227075	0.000092
C28	C	1.361697	0.727075	0.500092
C29	C	1.016036	-0.218619	0.000099
C30	C	1.516036	0.281381	0.500099
C31	C	1.027651	-0.109419	0.000098
C32	C	1.527651	0.390581	0.500098
C33	C	1.199560	-0.118223	0.000115
C34	C	1.699560	0.381777	0.500115
C35	C	1.187945	-0.227423	0.000116
C36	C	1.687945	0.272577	0.500116
C37	C	1.096180	-0.277617	0.000109
C38	C	1.596180	0.222383	0.500109
C39	C	1.084566	-0.386819	0.000118
C40	C	1.584566	0.113181	0.500118
C41	C	1.256475	-0.395621	0.000127
C42	C	1.756475	0.104379	0.500127
C43	C	1.268090	-0.286421	0.000127
C44	C	1.768090	0.213579	0.500127
C45	C	0.667073	0.205368	0.000114
C46	C	1.167073	0.705368	0.500114
C47	C	0.617047	0.289585	0.000119
C48	C	1.117047	0.789585	0.500119
C49	C	0.508752	0.277507	0.000132
C50	C	1.008752	0.777507	0.500132
C51	C	0.775378	0.217444	0.000101
C52	C	1.275378	0.717444	0.500101
C53	C	1.316131	0.256008	0.000138
C54	C	1.816131	0.756008	0.500138
C55	C	1.422429	0.267883	0.000142
C56	C	1.922429	0.767883	0.500142
C57	C	1.152348	0.437954	0.000124
C58	C	1.652348	0.937954	0.500124
C59	C	1.164716	0.554175	0.000125
C60	C	1.664716	1.054175	0.500125
N61	N	1.124887	0.266532	0.293028
N62	N	1.624887	0.766532	0.793028
N63	N	1.159245	0.228419	-0.292785
N64	N	1.659245	0.728419	0.207215
C65	C	1.228201	0.151839	0.529686
C66	C	1.728201	0.651839	1.029686
C67	C	1.221281	0.159534	0.648027
C68	C	1.721281	0.659534	1.148027
C69	C	1.104123	0.289611	0.648054
C70	C	1.604123	0.789611	1.148054
C71	C	1.111043	0.281916	0.529713
C72	C	1.611043	0.781916	1.029713
C73	C	1.173085	0.213029	0.470533
C74	C	1.673085	0.713029	0.970533
C75	C	1.180009	0.205340	0.352189
C76	C	1.680009	0.705340	0.852189
C77	C	1.062847	0.335411	0.352218
C78	C	1.562847	0.835411	0.852218
C79	C	1.055927	0.343106	0.470559
C80	C	1.555927	0.843106	0.970559
H81	H	1.009845	-0.427684	0.000123
H82	H	1.509845	0.072316	0.500123
F83	F	0.942350	-0.046633	0.000083
F84	F	1.442350	0.453367	0.500083
H85	H	1.017970	0.385239	0.304042
H86	H	1.517970	0.885239	0.804042
F87	F	1.297216	-0.064786	0.000105
F88	F	1.797216	0.435214	0.500105
F89	F	1.246041	0.132028	0.289208
F90	F	1.746041	0.632028	0.789208
H91	H	0.941316	-0.259487	0.000114
H92	H	1.441316	0.240513	0.500114
H93	H	1.342802	-0.245538	0.000137
H94	H	1.842802	0.254462	0.500137
F95	F	0.989898	0.416414	0.533552
F96	F	1.489898	0.916414	1.033552
F97	F	0.667371	0.395684	0.000116
F98	F	1.167371	0.895684	0.500116
F99	F	1.279941	0.094405	0.710979
F100	F	1.779941	0.594405	1.210979
F101	F	1.038088	0.362911	0.711050
F102	F	1.538088	0.862911	1.211050
H103	H	1.321734	-0.443669	0.000138
H104	H	1.821734	0.056331	0.500138
H105	H	0.628572	0.124202	0.000119
H106	H	1.128572	0.624202	0.500119
H107	H	1.278725	0.095756	0.481501
H108	H	1.778725	0.595756	0.981501
