data_functionalizedCrystal
_audit_creation_method	'MofGen! by Chris Wilmer'
_symmetry_space_group_name_H-M	'P1'
_symmetry_Int_Tables_number	1
_symmetry_cell_setting	triclinic
loop_
_symmetry_equiv_pos_as_xyz
  x,y,z
_cell_length_a	10.654562
_cell_length_b	10.654551
_cell_length_c	9.130313
_cell_angle_alpha	89.998448
_cell_angle_beta	90.003070
_cell_angle_gamma	84.487733
loop_
_atom_site_label
_atom_site_type_symbol
_atom_site_fract_x
_atom_site_fract_y
_atom_site_fract_z
O1	O	1.667825	0.176469	0.121886
O2	O	1.302349	0.193258	0.121867
O3	O	1.493490	0.002125	0.121877
O4	O	1.476685	0.367602	0.121875
O5	O	1.493487	0.002130	-0.121721
O6	O	1.302347	0.193264	-0.121732
O7	O	1.667823	0.176474	-0.121713
Cu8	Cu	1.485085	0.184869	-0.143965
Cu9	Cu	1.485087	0.184863	0.144119
O10	O	1.476683	0.367608	-0.121724
C11	C	1.255550	0.192025	0.000065
C12	C	1.116108	0.188327	0.000058
C13	C	1.050576	0.186604	-0.132716
C14	C	0.919553	0.183140	-0.132692
C15	C	0.919606	0.183125	0.132893
C16	C	1.050627	0.186580	0.132867
C17	C	1.116056	0.188351	-0.265525
C18	C	1.050524	0.186630	-0.398310
C19	C	0.919502	0.183165	-0.398286
C20	C	0.854012	0.181421	-0.265476
C21	C	1.492254	-0.044670	0.000081
C22	C	1.488562	-0.184114	0.000091
C23	C	1.486831	-0.249629	0.132874
C24	C	1.483351	-0.380649	0.132867
C25	C	1.483338	-0.380629	-0.132718
C26	C	1.486809	-0.249610	-0.132709
C27	C	1.488584	-0.184133	0.265674
C28	C	1.486854	-0.249648	0.398468
C29	C	1.483374	-0.380668	0.398461
C30	C	1.481623	-0.446174	0.265660
C31	C	1.714622	0.177708	0.000092
C32	C	1.854064	0.181406	0.000108
C33	C	1.477918	0.414403	0.000076
C34	C	1.481610	0.553846	0.000075
N35	N	1.485092	0.184873	-0.346588
C36	C	1.569751	0.100268	-0.423235
C37	C	1.569747	0.100253	-0.576572
C38	C	1.400422	0.269459	-0.576601
C39	C	1.400420	0.269467	-0.423267
C40	C	1.654422	0.015674	-0.346556
C41	C	1.739089	-0.068937	-0.423203
C42	C	1.739086	-0.068952	-0.576540
C43	C	1.654415	0.015644	-0.653230
N44	N	1.485090	0.184850	0.346741
H45	H	1.103984	0.187989	0.240983
Br46	Br	1.489222	-0.160751	0.578688
Br47	Br	1.481008	-0.469577	0.578676
H48	H	0.866273	0.181708	0.241020
H49	H	1.222741	0.191176	-0.265560
H50	H	1.491421	-0.077450	0.265695
H51	H	1.478771	-0.552857	0.265665
Br52	Br	0.676199	0.176676	-0.265447
Br53	Br	1.285522	0.384262	-0.680677
H54	H	1.481913	-0.433974	-0.240838
H55	H	1.488192	-0.196263	-0.240833
Br56	Br	1.654438	0.015700	-0.138457
Br57	Br	1.654402	0.015604	-0.861332
H58	H	1.808018	-0.137819	-0.360755
Br59	Br	1.285515	0.384284	-0.319241
Br60	Br	1.139401	0.188977	-0.578542
H61	H	1.808016	-0.137853	-0.638945
H62	H	0.866150	0.181754	-0.506406
