data_functionalizedCrystal
_audit_creation_method	'MofGen! by Chris Wilmer'
_symmetry_space_group_name_H-M	'P1'
_symmetry_Int_Tables_number	1
_symmetry_cell_setting	triclinic
loop_
_symmetry_equiv_pos_as_xyz
  x,y,z
_cell_length_a	13.339070
_cell_length_b	13.339070
_cell_length_c	9.798715
_cell_angle_alpha	89.999403
_cell_angle_beta	89.995656
_cell_angle_gamma	115.629294
loop_
_atom_site_label
_atom_site_type_symbol
_atom_site_fract_x
_atom_site_fract_y
_atom_site_fract_z
O1	O	1.496805	0.550524	-0.113527
O2	O	1.181996	0.478264	-0.113520
O3	O	1.303271	0.356989	-0.113519
O4	O	1.375531	0.671798	-0.113528
O5	O	1.303258	0.356985	0.113463
O6	O	1.181983	0.478260	0.113462
O7	O	1.496793	0.550520	0.113455
Zn8	Zn	1.339386	0.514389	0.149497
Zn9	Zn	1.339403	0.514394	-0.149562
O10	O	1.375518	0.671795	0.113454
C11	C	1.140874	0.466056	-0.000029
C12	C	1.018360	0.429672	-0.000026
C13	C	0.732973	0.712571	-0.000056
C14	C	0.848081	0.746759	-0.000063
C15	C	0.890657	0.667490	-0.000053
C16	C	0.818112	0.554028	-0.000038
C17	C	0.702992	0.519837	-0.000042
C18	C	0.860676	0.474756	-0.000039
C19	C	0.788132	0.361294	-0.000024
C20	C	0.673023	0.327109	-0.000027
C21	C	0.630448	0.406377	-0.000037
C22	C	0.975796	0.508947	-0.000035
C23	C	0.945816	0.316213	-0.000021
C24	C	0.830707	0.282025	-0.000014
C25	C	1.291058	0.315872	-0.000029
C26	C	1.254675	0.193358	-0.000034
C27	C	1.537574	-0.092030	-0.000039
C28	C	1.571761	0.023079	-0.000027
C29	C	1.492492	0.065654	-0.000029
C30	C	1.379030	-0.006890	-0.000043
C31	C	1.344839	-0.122010	-0.000044
C32	C	1.299758	0.035674	-0.000034
C33	C	1.186296	-0.036871	-0.000048
C34	C	1.152111	-0.151979	-0.000050
C35	C	1.231380	-0.194555	-0.000048
C36	C	1.333949	0.150794	-0.000033
C37	C	1.141215	0.120813	-0.000038
C38	C	1.107028	0.005705	-0.000050
C39	C	1.537914	0.562728	-0.000039
C40	C	1.660428	0.599111	-0.000051
C41	C	1.387730	0.712912	-0.000039
C42	C	1.424114	0.835426	-0.000043
N43	N	1.339383	0.514387	0.353597
N44	N	1.339412	0.514390	-0.353662
C45	C	1.390218	0.463159	0.421374
C46	C	1.390235	0.463160	0.578537
H47	H	0.907140	0.839139	-0.000086
F48	F	1.446841	0.405581	0.345146
F49	F	1.447131	0.405838	0.654717
H50	H	1.520335	0.159382	-0.000019
H51	H	1.203550	-0.288284	-0.000063
H52	H	1.602102	-0.126707	-0.000026
H53	H	0.984385	0.695333	-0.000062
F54	F	0.507935	0.369997	-0.000026
F55	F	1.282528	0.571728	0.570167
H56	H	1.295867	0.558242	0.411920
F57	F	0.986275	-0.071515	-0.000067
H58	H	1.034852	0.601328	-0.000042
F59	F	0.687653	0.796921	-0.000085
H60	H	0.613959	0.234721	-0.000030
H61	H	0.771625	0.189642	-0.000013
H62	H	0.980479	0.251665	-0.000019
H63	H	1.426331	0.209849	-0.000021
F64	F	1.692510	0.100278	-0.000035
H65	H	1.059723	-0.211043	-0.000051
F66	F	1.056845	0.166119	-0.000032
