data_functionalizedCrystal
_audit_creation_method	'MofGen! by Chris Wilmer'
_symmetry_space_group_name_H-M	'P1'
_symmetry_Int_Tables_number	1
_symmetry_cell_setting	triclinic
loop_
_symmetry_equiv_pos_as_xyz
  x,y,z
_cell_length_a	10.540539
_cell_length_b	10.540539
_cell_length_c	9.565339
_cell_angle_alpha	89.996876
_cell_angle_beta	90.001782
_cell_angle_gamma	84.525492
loop_
_atom_site_label
_atom_site_type_symbol
_atom_site_fract_x
_atom_site_fract_y
_atom_site_fract_z
O1	O	-1.685887	-0.178890	-0.116187
O2	O	-1.316474	-0.195746	-0.116203
O3	O	-1.509609	-0.002611	-0.116193
O4	O	-1.492753	-0.372024	-0.116197
O5	O	-1.509592	-0.002626	0.116327
O6	O	-1.316458	-0.195761	0.116317
O7	O	-1.685871	-0.178905	0.116333
Zn8	Zn	-1.501161	-0.187335	0.153243
Zn9	Zn	-1.501183	-0.187316	-0.153113
O10	O	-1.492736	-0.372039	0.116323
C11	C	-1.269163	-0.194489	0.000054
C12	C	-1.128215	-0.190707	0.000048
C13	C	-1.733182	-0.180161	0.000072
C14	C	-1.874130	-0.183943	0.000070
C15	C	-1.508336	0.044684	0.000064
C16	C	-1.504554	0.185632	0.000057
C17	C	-0.944788	-0.045790	0.000592
C18	C	-1.091406	-0.049624	0.000054
C19	C	-1.066552	-0.258594	-0.132728
C20	C	-0.920007	-0.253779	-0.132825
C21	C	-0.919500	-0.256666	0.131594
C22	C	-1.066482	-0.257966	0.133335
N23	N	-1.501156	-0.187348	0.362322
C24	C	-1.494008	-0.419335	0.000062
C25	C	-1.497790	-0.560283	0.000061
C26	C	-1.359637	0.369059	-0.000472
C27	C	-1.363471	0.222441	0.000052
C28	C	-1.572440	0.247281	0.132840
C29	C	-1.567625	0.393826	0.132952
C30	C	-1.570514	0.394361	-0.131467
C31	C	-1.571813	0.247379	-0.133222
N32	N	-1.501199	-0.187293	-0.362192
C33	C	-1.412581	-0.277362	0.546690
C34	C	-1.385868	-0.162775	0.453464
C35	C	-1.527812	-0.301925	0.453479
C36	C	-1.474428	-0.072648	0.546633
C37	C	-1.616423	-0.211873	0.546657
C38	C	-1.589758	-0.097203	0.453473
H39	H	-1.134013	0.003793	0.095234
C40	C	-1.291315	0.164883	-0.128530
H41	H	-1.293573	0.074995	-0.128386
H42	H	-1.205288	0.184599	-0.125256
H43	H	-1.330588	0.199538	-0.211286
H44	H	-1.664684	-0.020975	0.412802
H45	H	-0.916196	0.009940	0.095814
C46	C	-1.748038	-0.239988	0.602016
H47	H	-1.766836	-0.321493	0.570180
H48	H	-1.811157	-0.176860	0.568714
H49	H	-1.747307	-0.238990	0.701323
C50	C	-1.558255	-0.432851	0.398205
H51	H	-1.495226	-0.496722	0.430142
H52	H	-1.558793	-0.431705	0.298904
H53	H	-1.639520	-0.450909	0.431500
C54	C	-1.443830	0.058308	0.601669
H55	H	-1.443986	0.057514	0.700986
H56	H	-1.506383	0.122297	0.569008
H57	H	-1.362218	0.075890	0.568985
H58	H	-0.914587	0.009716	-0.094097
C59	C	-0.855199	-0.390840	-0.141005
H60	H	-0.918467	-0.449213	-0.144264
H61	H	-0.803021	-0.407896	-0.060943
H62	H	-0.804145	-0.399969	-0.222890
C63	C	-1.284343	0.407714	-0.129092
H64	H	-1.336480	0.467297	-0.183620
H65	H	-1.259487	0.334302	-0.183775
H66	H	-1.210615	0.445425	-0.099226
H67	H	-0.891804	-0.203592	-0.232075
C68	C	-1.096754	-0.398554	-0.139420
H69	H	-1.147365	-0.416872	-0.061114
H70	H	-1.019495	-0.452894	-0.138185
H71	H	-1.142062	-0.412235	-0.223088
C72	C	-1.099188	-0.396925	0.144169
H73	H	-1.060679	-0.435169	0.225591
H74	H	-1.068049	-0.442926	0.063877
H75	H	-1.189021	-0.398410	0.149740
H76	H	-1.107437	-0.208372	0.231562
H77	H	-1.309666	0.180679	0.095390
H78	H	-1.133158	0.004182	-0.095289
C79	C	-1.124078	-0.194869	-0.266220
H80	H	-1.185657	-0.126902	-0.241323
H81	H	-1.163648	-0.255848	-0.319946
H82	H	-1.058410	-0.162514	-0.319736
C83	C	-0.855704	-0.394326	0.132819
H84	H	-0.883498	-0.437791	0.212524
H85	H	-0.765769	-0.393031	0.136238
H86	H	-0.878508	-0.437089	0.050445
C87	C	-0.876878	-0.194999	0.267556
H88	H	-0.831012	-0.124315	0.245375
H89	H	-0.823650	-0.255773	0.319394
H90	H	-0.949686	-0.166836	0.321763
H91	H	-1.674674	0.223158	-0.141236
C92	C	-1.284645	0.409840	0.127442
H93	H	-1.337166	0.469736	0.181172
H94	H	-1.211235	0.447717	0.096912
H95	H	-1.259292	0.337217	0.183175
H96	H	-1.522141	0.206527	-0.231452
H97	H	-1.517441	0.422019	0.232206
C98	C	-1.508722	0.189742	0.266330
H99	H	-1.550481	0.227657	0.346127
H100	H	-1.421526	0.205648	0.267518
H101	H	-1.514867	0.100416	0.267705
H102	H	-1.669090	0.441794	0.138980
C103	C	-1.712401	0.217079	0.139532
H104	H	-1.730718	0.166476	0.061221
H105	H	-1.766740	0.294338	0.138305
H106	H	-1.726081	0.171761	0.223195
H107	H	-1.524859	0.425920	-0.232108
H108	H	-1.672418	0.441587	-0.132355
C109	C	-1.311305	-0.380106	0.601994
H110	H	-1.229468	-0.362446	0.570083
H111	H	-1.329422	-0.461355	0.568730
H112	H	-1.312531	-0.379881	0.701302
C113	C	-1.254214	-0.134710	0.398150
H114	H	-1.191357	-0.198762	0.430059
H115	H	-1.234682	-0.053915	0.431415
H116	H	-1.255378	-0.134168	0.298842
