data_functionalizedCrystal
_audit_creation_method	'MofGen! by Chris Wilmer'
_symmetry_space_group_name_H-M	'P1'
_symmetry_Int_Tables_number	1
_symmetry_cell_setting	triclinic
loop_
_symmetry_equiv_pos_as_xyz
  x,y,z
_cell_length_a	23.203873
_cell_length_b	23.204288
_cell_length_c	23.204116
_cell_angle_alpha	59.999358
_cell_angle_beta	90.000740
_cell_angle_gamma	60.000205
loop_
_atom_site_label
_atom_site_type_symbol
_atom_site_fract_x
_atom_site_fract_y
_atom_site_fract_z
O1	O	-0.491171	-0.412508	0.017125
O2	O	-0.407373	-0.294492	-0.017078
O3	O	-0.407364	-0.412503	0.100931
O4	O	-0.491180	-0.294497	-0.100884
O5	O	-0.311510	-0.508350	0.100930
O6	O	-0.311519	-0.390339	-0.017079
O7	O	-0.395317	-0.508355	0.017125
Cu8	Cu	-0.344666	-0.458099	0.000023
Cu9	Cu	-0.458024	-0.344749	0.000024
O10	O	-0.395326	-0.390344	-0.100884
C11	C	-0.310629	-0.285833	-0.024856
C12	C	-0.346197	-0.326283	-0.019966
C13	C	-0.345468	-0.215990	-0.025342
C14	C	-0.206264	-0.285844	-0.024850
C15	C	-0.130243	-0.326306	-0.019954
C16	C	-0.241261	-0.216001	-0.025336
C17	C	-0.310620	-0.181482	-0.024851
C18	C	-0.346178	-0.110359	-0.019955
C19	C	-0.241271	-0.320193	-0.025341
C20	C	-0.658505	-0.590076	0.035846
C21	C	-0.734524	-0.549623	0.030953
C22	C	-0.623500	-0.659920	0.036334
C23	C	-0.554148	-0.590068	0.035843
C24	C	-0.518589	-0.549608	0.030946
C25	C	-0.519302	-0.659913	0.036331
C26	C	-0.554143	-0.694431	0.035845
C27	C	-0.518577	-0.765555	0.030952
C28	C	-0.623506	-0.555716	0.036332
C29	C	-0.489845	-0.823015	0.026997
C30	C	-0.795940	-0.516941	0.026999
C31	C	-0.489861	-0.516919	0.026989
C32	C	-0.453798	-0.895103	0.022037
C33	C	-0.872989	-0.475940	0.022039
C34	C	-0.453820	-0.475910	0.022026
C35	C	-0.554170	-0.212801	-0.445783
C36	C	-0.518605	-0.253257	-0.481344
C37	C	-0.623530	-0.142958	-0.480627
C38	C	-0.554171	-0.212800	-0.341424
C39	C	-0.518607	-0.253255	-0.265405
C40	C	-0.623531	-0.142957	-0.376427
C41	C	-0.658533	-0.108445	-0.445785
C42	C	-0.734555	-0.037323	-0.481348
C43	C	-0.519326	-0.247155	-0.376425
C44	C	-0.795973	0.020136	-0.510079
C45	C	-0.489873	-0.285943	-0.510073
C46	C	-0.489876	-0.285940	-0.203988
C47	C	-0.873024	0.092221	-0.546124
C48	C	-0.453827	-0.326947	-0.546116
C49	C	-0.453831	-0.326943	-0.126939
O50	O	0.100951	-0.508385	0.017137
O51	O	-0.100865	-0.390365	-0.017066
O52	O	0.017142	-0.508381	0.100943
O53	O	-0.017055	-0.390369	-0.100872
O54	O	0.017151	-0.412538	0.100948
O55	O	-0.100856	-0.294522	-0.017061
O56	O	0.100960	-0.412542	0.017142
Cu57	Cu	0.000053	-0.344781	0.000041
Cu58	Cu	0.000042	-0.458126	0.000035
O59	O	-0.017046	-0.294526	-0.100867
O60	O	-0.395292	0.083738	0.017139
O61	O	-0.311494	-0.083871	-0.017063
O62	O	-0.311490	-0.083879	0.100946
O63	O	-0.395296	0.083745	-0.100869
O64	O	-0.407347	-0.083869	0.100941
O65	O	-0.407351	-0.083862	-0.017068
O66	O	-0.491149	0.083748	0.017134
Cu67	Cu	-0.458002	-0.000056	0.000033
Cu68	Cu	-0.344641	-0.000068	0.000039
O69	O	-0.491153	0.083755	-0.100874
O70	O	-1.100899	0.280983	-0.592589
O71	O	-0.899081	0.113376	-0.508777
O72	O	-1.017083	0.113367	-0.508776
O73	O	-0.982897	0.280992	-0.592591
O74	O	-1.017080	0.113365	-0.604626
O75	O	-0.899079	0.113373	-0.604627
O76	O	-1.100897	0.280981	-0.688439
Cu77	Cu	-0.999987	0.197177	-0.655285
Cu78	Cu	-0.999990	0.197180	-0.541931
O79	O	-0.982895	0.280990	-0.688440
O80	O	-0.407364	-0.412503	-0.688426
O81	O	-0.491177	-0.294500	-0.604619
O82	O	-0.491169	-0.412510	-0.604615
O83	O	-0.407371	-0.294494	-0.688429
O84	O	-0.395315	-0.508358	-0.508764
O85	O	-0.395322	-0.390349	-0.508767
O86	O	-0.311510	-0.508351	-0.592574
Cu87	Cu	-0.344663	-0.458102	-0.541919
Cu88	Cu	-0.458023	-0.344750	-0.655274
O89	O	-0.311517	-0.390342	-0.592577
C90	C	-0.206263	-0.621374	0.310693
C91	C	-0.130241	-0.692496	0.346256
C92	C	-0.241266	-0.586861	0.345536
C93	C	-0.310626	-0.517018	0.206333
C94	C	-0.346190	-0.476562	0.130313
C95	C	-0.345470	-0.482663	0.241334
C96	C	-0.310626	-0.517018	0.310692
C97	C	-0.346190	-0.476563	0.346254
C98	C	-0.241266	-0.586861	0.241335
C99	C	0.024933	-0.517057	0.310709
C100	C	0.020044	-0.476605	0.346273
C101	C	0.025416	-0.586899	0.345550
C102	C	0.024929	-0.517053	0.206347
C103	C	0.020035	-0.476595	0.130328
C104	C	0.025411	-0.586894	0.241347
C105	C	0.024923	-0.621409	0.310705
C106	C	0.020024	-0.692529	0.346265
C107	C	0.025421	-0.482701	0.241351
C108	C	-0.310607	-0.285870	0.310695
C109	C	-0.346173	-0.326324	0.346253
C110	C	-0.241246	-0.320235	0.345540
C111	C	-0.310606	-0.181504	0.206342
C112	C	-0.346171	-0.110371	0.130325
C113	C	-0.241245	-0.216028	0.241346
C114	C	-0.206242	-0.285880	0.310701
C115	C	-0.130219	-0.326346	0.346265
C116	C	-0.345452	-0.216017	0.241340
C117	C	-0.035755	-0.108466	-0.445768
C118	C	-0.030856	-0.037345	-0.481329
C119	C	-0.036247	-0.142976	-0.480612
C120	C	-0.035761	-0.212822	-0.341409
C121	C	-0.030867	-0.253278	-0.265390
C122	C	-0.036253	-0.247174	-0.376413
C123	C	-0.035765	-0.212818	-0.445770
C124	C	-0.030876	-0.253271	-0.481334
C125	C	-0.036243	-0.142980	-0.376410
C126	C	-0.026924	-0.285954	-0.510065
C127	C	-0.026896	0.020112	-0.510058
C128	C	-0.026912	-0.285964	-0.203974
C129	C	-0.021968	-0.326955	-0.546111
C130	C	-0.021929	0.092196	-0.546100
C131	C	-0.021951	-0.326970	-0.126924
O132	O	-0.017052	-0.390385	0.491248
O133	O	0.017154	-0.508395	0.407445
O134	O	-0.100856	-0.390384	0.407434
O135	O	0.100958	-0.508395	0.491259
O136	O	-0.100850	-0.294537	0.311585
O137	O	0.017160	-0.412547	0.311596
O138	O	-0.017046	-0.294538	0.395399
Cu139	Cu	0.000057	-0.344790	0.344745
Cu140	Cu	0.000051	-0.458142	0.458098
O141	O	0.100964	-0.412548	0.395410
C142	C	-0.658509	0.409981	-0.445764
C143	C	-0.734531	0.450445	-0.481329
C144	C	-0.623506	0.444336	-0.480603
C145	C	-0.554145	0.305606	-0.341405
C146	C	-0.518581	0.234473	-0.265388
C147	C	-0.519300	0.340120	-0.376403
C148	C	-0.554145	0.409973	-0.445758
C149	C	-0.518581	0.450429	-0.481315
C150	C	-0.623506	0.340128	-0.376409
C151	C	-0.489849	0.483114	-0.510041
C152	C	-0.795950	0.483137	-0.510060
C153	C	-0.489849	0.177005	-0.203973
C154	C	-0.453803	0.524118	-0.546079
C155	C	-0.873002	0.524149	-0.546106
C156	C	-0.453803	0.104908	-0.126926
H157	H	-0.213155	-0.187119	-0.026123
C158	C	-0.660905	0.519190	-0.556630
C159	C	-0.623381	0.501042	-0.599196
C160	C	-0.657820	0.569973	-0.669233
H161	H	-0.663318	0.562641	-0.559411
H162	H	-0.707308	0.534802	-0.572488
H163	H	-0.576990	0.485441	-0.583343
H164	H	-0.620965	0.457603	-0.596436
H165	H	-0.704223	0.585585	-0.685091
H166	H	-0.660232	0.613418	-0.672007
H167	H	-0.632369	0.557666	-0.698123
C168	C	-0.443281	-0.698595	0.037490
C169	C	-0.400746	-0.778695	0.098197
C170	C	-0.330716	-0.814361	0.099285
H171	H	-0.427347	-0.668120	0.037739
H172	H	-0.440561	-0.698940	-0.003201
H173	H	-0.403462	-0.778345	0.138878
H174	H	-0.416657	-0.809190	0.097961
H175	H	-0.327996	-0.814706	0.058595
H176	H	-0.314789	-0.783881	0.099533
H177	H	-0.301848	-0.868715	0.140471
H178	H	-0.402458	-0.187099	-0.026134
H179	H	-0.651614	-0.499511	0.037111
H180	H	-0.036968	-0.114131	-0.348291
H181	H	-0.462312	0.311227	-0.348296
H182	H	-0.213161	-0.615750	0.402524
C183	C	-0.660873	-0.104540	-0.556622
C184	C	-0.615349	-0.149737	-0.579783
C185	C	-0.649718	-0.114357	-0.649789
H186	H	-0.674055	-0.050196	-0.585635
H187	H	-0.701882	-0.104242	-0.559384
H188	H	-0.574353	-0.150027	-0.577027
H189	H	-0.602164	-0.204081	-0.550790
H190	H	-0.690728	-0.114058	-0.652551
H191	H	-0.662899	-0.060013	-0.678795
H192	H	-0.618838	-0.145021	-0.665511
C193	C	-0.037468	-0.321997	-0.338977
C194	C	-0.098192	-0.303807	-0.319613
C195	C	-0.099348	-0.372702	-0.285145
H196	H	0.003196	-0.365474	-0.297937
H197	H	-0.037739	-0.337586	-0.369781
H198	H	-0.097915	-0.288229	-0.288811
H199	H	-0.138866	-0.260341	-0.360640
H200	H	-0.099619	-0.388291	-0.315948
H201	H	-0.058681	-0.416174	-0.244108
H202	H	-0.140551	-0.360367	-0.272007
C203	C	-0.203715	-0.395227	-0.026246
C204	C	-0.143328	-0.459071	0.033832
C205	C	-0.108719	-0.528204	0.033026
H206	H	-0.190443	-0.383156	-0.067355
H207	H	-0.234474	-0.410896	-0.026423
H208	H	-0.112575	-0.443404	0.034002
H209	H	-0.156581	-0.471167	0.074950
H210	H	-0.139478	-0.543873	0.032849
H211	H	-0.095451	-0.516125	-0.008085
H212	H	-0.067746	-0.571532	0.073791
H213	H	-0.462336	-0.303354	-0.348326
C214	C	-0.203893	-0.395104	0.421560
C215	C	-0.241453	-0.376952	0.464104
C216	C	-0.207069	-0.445900	0.534133
H217	H	-0.157489	-0.410770	0.437484
H218	H	-0.201504	-0.438521	0.424281
H219	H	-0.243833	-0.333548	0.461387
H220	H	-0.287855	-0.361295	0.448203
H221	H	-0.204681	-0.489317	0.536854
H222	H	-0.160667	-0.461560	0.550050
H223	H	-0.232552	-0.433595	0.563007
H224	H	-0.651602	-0.688806	0.037120
C225	C	-0.660873	-0.104535	-0.338854
C226	C	-0.615349	-0.149728	-0.270496
C227	C	-0.649721	-0.114351	-0.235870
H228	H	-0.701875	-0.104235	-0.336379
H229	H	-0.674057	-0.050180	-0.364209
H230	H	-0.602175	-0.204069	-0.245148
H231	H	-0.574347	-0.150031	-0.272951
H232	H	-0.662905	-0.059996	-0.261225
H233	H	-0.690721	-0.114053	-0.233400
H234	H	-0.618836	-0.145005	-0.189488
H235	H	-0.402441	-0.187129	0.213239
C236	C	-0.661085	0.301711	-0.339071
C237	C	-0.729447	0.346917	-0.384594
C238	C	-0.764080	0.311549	-0.350224
H239	H	-0.663554	0.301405	-0.298066
H240	H	-0.635739	0.247359	-0.325892
H241	H	-0.754787	0.401255	-0.397763
H242	H	-0.726998	0.347227	-0.425599
H243	H	-0.738734	0.257196	-0.337045
H244	H	-0.766544	0.311244	-0.309221
H245	H	-0.810465	0.342211	-0.381108
C246	C	0.026329	-0.407668	0.203793
C247	C	-0.033748	-0.343826	0.143404
C248	C	-0.032940	-0.274694	0.108792
H249	H	0.067438	-0.419742	0.190521
H250	H	0.026506	-0.391997	0.234549
H251	H	-0.033919	-0.359495	0.112653
H252	H	-0.074867	-0.331728	0.156656
H253	H	-0.032763	-0.259023	0.139548
H254	H	0.008172	-0.286775	0.095525
H255	H	-0.073704	-0.231367	0.067818
C256	C	-0.421414	-0.407634	0.203749
C257	C	-0.425165	-0.343803	0.143364
C258	C	-0.495106	-0.274671	0.108724
H259	H	-0.437299	-0.391929	0.234470
H260	H	-0.450428	-0.419740	0.190480
H261	H	-0.396161	-0.331697	0.156635
H262	H	-0.409294	-0.359481	0.112627
H263	H	-0.524120	-0.286778	0.095454
H264	H	-0.510986	-0.258974	0.139450
H265	H	-0.497662	-0.231356	0.067745
C266	C	-0.203689	-0.177645	0.203867
C267	C	-0.143306	-0.234262	0.200405
C268	C	-0.108699	-0.198931	0.165878
H269	H	-0.190411	-0.161884	0.229212
H270	H	-0.234450	-0.131037	0.157440
H271	H	-0.112550	-0.280855	0.246823
H272	H	-0.156565	-0.250027	0.175055
H273	H	-0.139461	-0.152322	0.119451
H274	H	-0.095425	-0.183171	0.191226
H275	H	-0.067730	-0.237337	0.163518
H276	H	-0.213153	-0.615734	0.213230
C277	C	0.026595	-0.625474	0.203899
C278	C	0.087309	-0.648651	0.184520
C279	C	0.088427	-0.684205	0.150035
H280	H	-0.014077	-0.587228	0.162864
H281	H	0.026853	-0.672130	0.234696
H282	H	0.087044	-0.602001	0.153724
H283	H	0.127991	-0.686905	0.225542
H284	H	0.088685	-0.730861	0.180832
H285	H	0.047752	-0.645954	0.109003
H286	H	0.129623	-0.699941	0.136888
H287	H	-0.037033	-0.114087	-0.537600
C288	C	0.026308	-0.625287	0.421486
C289	C	-0.033779	-0.568671	0.425244
C290	C	-0.032989	-0.604008	0.495179
H291	H	0.067411	-0.641056	0.450538
H292	H	0.026487	-0.671890	0.437320
H293	H	-0.033951	-0.522082	0.409419
H294	H	-0.074891	-0.552897	0.396208
H295	H	-0.032811	-0.650611	0.511013
H296	H	0.008116	-0.619776	0.524225
H297	H	-0.073760	-0.565602	0.497737
