data_functionalizedCrystal
_audit_creation_method	'MofGen! by Chris Wilmer'
_symmetry_space_group_name_H-M	'P1'
_symmetry_Int_Tables_number	1
_symmetry_cell_setting	triclinic
loop_
_symmetry_equiv_pos_as_xyz
  x,y,z
_cell_length_a	14.750135
_cell_length_b	12.837943
_cell_length_c	15.624967
_cell_angle_alpha	89.271526
_cell_angle_beta	85.136796
_cell_angle_gamma	75.989510
loop_
_atom_site_label
_atom_site_type_symbol
_atom_site_fract_x
_atom_site_fract_y
_atom_site_fract_z
O1	O	0.149893	-1.418001	-0.201282
O2	O	0.649893	-0.918001	0.298718
O3	O	0.146155	-1.115126	-0.190529
O4	O	0.646155	-0.615126	0.309471
O5	O	0.105812	-1.262735	-0.074682
O6	O	0.605812	-0.762735	0.425318
O7	O	0.190235	-1.270392	-0.317129
O8	O	0.690235	-0.770392	0.182871
O9	O	-0.042445	-1.220985	-0.107442
O10	O	0.457555	-0.720985	0.392558
O11	O	-0.002103	-1.073376	-0.223289
O12	O	0.497897	-0.573376	0.276711
O13	O	0.001635	-1.376251	-0.234042
O14	O	0.501635	-0.876251	0.265958
Zn15	Zn	-0.023773	-1.218185	-0.233867
Zn16	Zn	0.476227	-0.718185	0.266133
Zn17	Zn	0.171563	-1.273192	-0.190704
Zn18	Zn	0.671563	-0.773192	0.309296
O19	O	0.041978	-1.228642	-0.349889
O20	O	0.541978	-0.728642	0.150111
C21	C	0.070762	-1.055269	-0.203276
C22	C	0.570762	-0.555269	0.296724
C23	C	0.066992	-0.939113	-0.192443
C24	C	0.566992	-0.439113	0.307557
N25	N	-0.157084	-1.180651	-0.263324
N26	N	0.342916	-0.680651	0.236676
C27	C	0.020805	-1.238065	-0.059814
C28	C	0.520805	-0.738065	0.440186
C29	C	-0.011611	-1.226745	0.033297
C30	C	0.488389	-0.726745	0.533297
C31	C	-0.572985	-1.415547	-0.079053
C32	C	-0.072985	-0.915547	0.420947
C33	C	-0.666314	-1.389247	-0.099671
C34	C	-0.166314	-0.889247	0.400329
C35	C	-0.630614	-1.258493	-0.202219
C36	C	-0.130614	-0.758493	0.297781
C37	C	-0.537279	-1.284786	-0.181613
C38	C	-0.037279	-0.784786	0.318387
C39	C	-0.508473	-1.363313	-0.120029
C40	C	-0.008473	-0.863313	0.379971
C41	C	-0.472767	-1.232551	-0.222589
C42	C	0.027233	-0.732551	0.277411
C43	C	-0.379441	-1.258838	-0.201981
C44	C	0.120559	-0.758838	0.298019
C45	C	-0.350628	-1.337360	-0.140397
C46	C	0.149372	-0.837360	0.359603
C47	C	-0.415147	-1.389600	-0.099421
C48	C	0.084853	-0.889600	0.400579
C49	C	-0.501577	-1.154019	-0.284168
C50	C	-0.001577	-0.654019	0.215832
C51	C	-0.437065	-1.101785	-0.325144
C52	C	0.062935	-0.601785	0.174856
C53	C	-0.343736	-1.128077	-0.304540
C54	C	0.156264	-0.628077	0.195460
C55	C	-0.314922	-1.206599	-0.242957
C56	C	0.185078	-0.706599	0.257043
C57	C	-0.279217	-1.075837	-0.345517
C58	C	0.220783	-0.575837	0.154483
C59	C	-0.185891	-1.102124	-0.324909
C60	C	0.314109	-0.602124	0.175091
C61	C	-0.221596	-1.232886	-0.222349
C62	C	0.278404	-0.732886	0.277651
N63	N	0.304872	-1.310734	-0.161240
N64	N	0.804872	-0.810734	0.338760
C65	C	0.077030	-1.436109	-0.221294
C66	C	0.577030	-0.936109	0.278706
C67	C	0.080806	-1.552266	-0.232126
C68	C	0.580806	-1.052266	0.267874
C69	C	0.112328	-0.711127	-0.322677
C70	C	0.612328	-0.211127	0.177323
C71	C	0.108786	-0.601988	-0.312502
C72	C	0.608786	-0.101988	0.187498
C73	C	0.056362	-0.611692	-0.161920
C74	C	0.556362	-0.111692	0.338080
C75	C	0.059903	-0.720831	-0.172095
C76	C	0.559903	-0.220831	0.327905
C77	C	0.087888	-0.770545	-0.252476
C78	C	0.587888	-0.270545	0.247524
C79	C	0.091436	-0.879688	-0.262649
C80	C	0.591436	-0.379688	0.237351
C81	C	0.039005	-0.889388	-0.112069
C82	C	0.539005	-0.389388	0.387931
C83	C	0.035464	-0.780249	-0.101894
C84	C	0.535464	-0.280249	0.398106
C85	C	0.126987	-1.253312	-0.364756
C86	C	0.626987	-0.753312	0.135244
C87	C	0.159409	-1.264635	-0.457866
C88	C	0.659409	-0.764635	0.042134
C89	C	-0.138111	-1.188033	0.146681
C90	C	0.361889	-0.688033	0.646681
C91	C	-0.107642	-1.198673	0.059192
C92	C	0.392358	-0.698673	0.559192
C93	C	0.053988	-1.244194	0.094889
C94	C	0.553988	-0.744194	0.594889
C95	C	0.023533	-1.233563	0.182383
C96	C	0.523533	-0.733563	0.682383
C97	C	-0.072518	-1.205481	0.208271
C98	C	0.427482	-0.705481	0.708271
C99	C	0.089126	-1.251011	0.243973
C100	C	0.589126	-0.751011	0.743973
C101	C	0.058672	-1.240376	0.331460
C102	C	0.558672	-0.740376	0.831460
C103	C	-0.037374	-1.212292	0.357356
C104	C	0.462626	-0.712292	0.857356
C105	C	-0.102972	-1.194846	0.295758
C106	C	0.397028	-0.694846	0.795758
C107	C	0.185176	-1.279085	0.218083
C108	C	0.685176	-0.779085	0.718083
C109	C	0.250769	-1.296533	0.279673
C110	C	0.750769	-0.796533	0.779673
C111	C	0.220316	-1.285905	0.367162
C112	C	0.720316	-0.785905	0.867162
C113	C	0.124270	-1.257822	0.393058
C114	C	0.624270	-0.757822	0.893058
C115	C	0.285913	-1.303351	0.428760
C116	C	0.785913	-0.803351	0.928760
C117	C	0.255460	-1.292716	0.516246
C118	C	0.755460	-0.792716	1.016246
C119	C	0.093816	-1.247186	0.480544
C120	C	0.593816	-0.747186	0.980544
H121	H	-0.198140	-1.296838	-0.172207
H122	H	0.301860	-0.796838	0.327793
H123	H	0.114221	-0.920163	-0.328099
H124	H	0.614221	-0.420163	0.171901
H125	H	0.135115	-0.751605	-0.388126
H126	H	0.635115	-0.251605	0.111874
H127	H	-0.460532	-1.037844	-0.375284
H128	H	0.039468	-0.537844	0.124716
H129	H	-0.161063	-1.184435	0.009044
H130	H	0.338937	-0.684435	0.509044
H131	H	-0.062168	-1.203625	0.428593
H132	H	0.437832	-0.703625	0.928593
H133	H	0.033504	-0.571175	-0.096494
H134	H	0.533504	-0.071175	0.403506
H135	H	-0.577571	-1.132616	-0.300942
H136	H	-0.077571	-0.632616	0.199058
H137	H	-0.549528	-1.479500	-0.028912
H138	H	-0.049528	-0.979500	0.471088
H139	H	-0.391691	-1.453553	-0.049279
H140	H	0.108309	-0.953553	0.450721
H141	H	-0.302686	-1.011892	-0.395653
H142	H	0.197314	-0.511892	0.104347
H143	H	-0.133364	-1.059588	-0.358275
H144	H	0.366636	-0.559588	0.141725
H145	H	0.019111	-0.937780	-0.054905
H146	H	0.519111	-0.437780	0.445095
H147	H	0.128685	-0.553613	-0.369668
H148	H	0.628685	-0.053613	0.130332
H149	H	-0.718838	-1.431789	-0.066297
H150	H	-0.218838	-0.931789	0.433703
H151	H	0.015602	-1.224326	0.501623
H152	H	0.515602	-0.724326	1.001623
H153	H	-0.274636	-1.358758	-0.123616
H154	H	0.225364	-0.858758	0.376384
H155	H	0.308873	-1.306916	0.566395
H156	H	0.808873	-0.806916	1.066395
H157	H	0.012669	-0.739754	-0.036452
H158	H	0.512669	-0.239754	0.463548
H159	H	-0.216325	-1.165173	0.167760
H160	H	0.283675	-0.665173	0.667760
H161	H	-0.181186	-1.171985	0.316837
H162	H	0.318814	-0.671985	0.816837
H163	H	0.209969	-1.287728	0.146844
H164	H	0.709969	-0.787728	0.646844
H165	H	0.132193	-1.267055	0.073797
H166	H	0.632193	-0.767055	0.573797
H167	H	0.328974	-1.319394	0.258582
H168	H	0.828974	-0.819394	0.758582
H169	H	-0.654081	-1.194552	-0.252360
H170	H	-0.154081	-0.694552	0.247640
H171	H	0.364118	-1.326206	0.407667
H172	H	0.864118	-0.826206	0.907667
