data_functionalizedCrystal
_audit_creation_method	'MofGen! by Chris Wilmer'
_symmetry_space_group_name_H-M	'P1'
_symmetry_Int_Tables_number	1
_symmetry_cell_setting	triclinic
loop_
_symmetry_equiv_pos_as_xyz
  x,y,z
_cell_length_a	14.519709
_cell_length_b	23.532407
_cell_length_c	13.596369
_cell_angle_alpha	89.989360
_cell_angle_beta	90.000291
_cell_angle_gamma	83.264412
loop_
_atom_site_label
_atom_site_type_symbol
_atom_site_fract_x
_atom_site_fract_y
_atom_site_fract_z
O1	O	1.222985	0.074654	-0.081674
O2	O	1.556318	0.407987	0.251659
O3	O	1.889652	0.741321	0.584993
O4	O	0.954404	0.083445	-0.081705
O5	O	1.287738	0.416779	0.251628
O6	O	1.621071	0.750112	0.584962
O7	O	1.096794	-0.003846	-0.081671
O8	O	1.430127	0.329488	0.251663
O9	O	1.763460	0.662821	0.584996
O10	O	1.080596	0.161945	-0.081708
O11	O	1.413929	0.495278	0.251625
O12	O	1.747262	0.828611	0.584958
O13	O	1.096780	-0.003850	0.081912
O14	O	1.430113	0.329483	0.415246
O15	O	1.763446	0.662816	0.748579
O16	O	0.954390	0.083441	0.081878
O17	O	1.287724	0.416774	0.415211
O18	O	1.621057	0.750107	0.748544
O19	O	1.222971	0.074649	0.081909
O20	O	1.556304	0.407983	0.415242
O21	O	1.889638	0.741316	0.748576
Zn22	Zn	1.088678	0.079044	0.107866
Zn23	Zn	1.422012	0.412378	0.441199
Zn24	Zn	1.755345	0.745711	0.774532
Zn25	Zn	1.088697	0.079050	-0.107662
Zn26	Zn	1.422030	0.412384	0.225672
Zn27	Zn	1.755364	0.745717	0.559005
O28	O	1.080582	0.161940	0.081874
O29	O	1.413915	0.495273	0.415208
O30	O	1.747248	0.828607	0.748541
C31	C	0.920042	0.083033	0.000083
C32	C	1.253376	0.416367	0.333416
C33	C	1.586709	0.749700	0.666749
C34	C	0.817676	0.081805	0.000071
C35	C	1.151009	0.415139	0.333405
C36	C	1.484342	0.748472	0.666738
C37	C	0.442833	0.077286	0.000117
C38	C	0.776167	0.410619	0.333451
C39	C	1.109500	0.743952	0.666784
C40	C	0.547126	0.078541	0.000104
C41	C	0.880460	0.411874	0.333437
C42	C	1.213793	0.745207	0.666771
C43	C	0.630251	0.079545	0.000093
C44	C	0.963584	0.412879	0.333427
C45	C	1.296918	0.746212	0.666760
C46	C	0.734551	0.080801	0.000082
C47	C	1.067884	0.414134	0.333415
C48	C	1.401217	0.747467	0.666749
C49	C	1.096374	-0.025066	0.000123
C50	C	1.429708	0.308268	0.333457
C51	C	1.763041	0.641601	0.666790
C52	C	1.095134	-0.088288	0.000131
C53	C	1.428467	0.245045	0.333464
C54	C	1.761801	0.578378	0.666797
C55	C	1.171619	-0.487046	0.000086
C56	C	1.504952	-0.153713	0.333419
C57	C	1.838285	0.179620	0.666752
C58	C	1.170467	-0.546452	0.000078
C59	C	1.503800	-0.213119	0.333412
C60	C	1.837133	0.120215	0.666745
O61	O	1.241369	-0.582876	0.000050
O62	O	1.574702	-0.249543	0.333383
O63	O	1.908035	0.083790	0.666717
N64	N	1.085816	-0.569460	0.000069
N65	N	1.419149	-0.236127	0.333402
N66	N	1.752483	0.097207	0.666736
C67	C	1.002312	-0.533059	0.000057
C68	C	1.335646	-0.199726	0.333391
C69	C	1.668979	0.133608	0.666724
O70	O	0.930205	-0.558084	0.000048
O71	O	1.263538	-0.224751	0.333381
O72	O	1.596871	0.108583	0.666715
C73	C	1.003465	-0.473655	0.000058
C74	C	1.336799	-0.140321	0.333391
C75	C	1.670132	0.193012	0.666725
C76	C	1.088121	-0.450650	0.000077
C77	C	1.421455	-0.117317	0.333411
C78	C	1.754788	0.216016	0.666744
C79	C	1.256268	-0.464041	0.000104
C80	C	1.589601	-0.130708	0.333437
C81	C	1.922935	0.202625	0.666771
C82	C	1.257420	-0.404640	0.000113
C83	C	1.590753	-0.071307	0.333447
C84	C	1.924086	0.262027	0.666780
C85	C	1.173922	-0.368244	0.000105
C86	C	1.507255	-0.034910	0.333438
C87	C	1.840589	0.298423	0.666771
C88	C	1.089273	-0.391249	0.000087
C89	C	1.422606	-0.057916	0.333420
C90	C	1.755940	0.275418	0.666753
C91	C	0.919962	-0.437255	0.000039
C92	C	1.253296	-0.103922	0.333373
C93	C	1.586629	0.229412	0.666706
C94	C	0.921123	-0.377847	0.000039
C95	C	1.254456	-0.044514	0.333373
C96	C	1.587789	0.288819	0.666706
C97	C	1.005779	-0.354843	0.000058
C98	C	1.339112	-0.021509	0.333392
C99	C	1.672445	0.311824	0.666725
C100	C	1.006927	-0.295451	0.000087
C101	C	1.340260	0.037882	0.333421
C102	C	1.673594	0.371215	0.666754
N103	N	1.091578	-0.272443	0.000097
N104	N	1.424911	0.060890	0.333430
N105	N	1.758244	0.394223	0.666763
C106	C	1.175075	-0.308839	0.000105
C107	C	1.508408	0.024494	0.333439
C108	C	1.841742	0.357827	0.666772
C109	C	0.999897	-0.657813	0.000055
C110	C	1.333231	-0.324479	0.333388
C111	C	1.666564	0.008854	0.666721
C112	C	0.998743	-0.717216	0.000061
C113	C	1.332077	-0.383882	0.333394
C114	C	1.665410	-0.050549	0.666728
C115	C	1.166898	-0.730604	0.000080
C116	C	1.500231	-0.397271	0.333413
C117	C	1.833565	-0.063938	0.666747
C118	C	1.168051	-0.671200	0.000080
C119	C	1.501384	-0.337867	0.333414
C120	C	1.834718	-0.004533	0.666747
C121	C	1.084548	-0.634804	0.000064
C122	C	1.417881	-0.301471	0.333397
C123	C	1.751214	0.031862	0.666730
C124	C	1.177487	-0.184092	0.000126
C125	C	1.510821	0.149242	0.333459
C126	C	1.844154	0.482575	0.666793
C127	C	1.178632	-0.124685	0.000139
C128	C	1.511965	0.208649	0.333473
C129	C	1.845298	0.541982	0.666806
C130	C	1.010477	-0.111301	0.000115
C131	C	1.343811	0.222032	0.333449
C132	C	1.677144	0.555366	0.666782
C133	C	1.009332	-0.170703	0.000107
C134	C	1.342666	0.162630	0.333440
C135	C	1.675999	0.495964	0.666774
C136	C	1.092845	-0.207098	0.000109
C137	C	1.426178	0.126236	0.333442
C138	C	1.759512	0.459569	0.666776
O139	O	0.936062	-0.258992	0.000111
O140	O	1.269396	0.074341	0.333445
O141	O	1.602729	0.407675	0.666778
O142	O	1.247171	-0.283806	0.000102
O143	O	1.580504	0.049527	0.333435
O144	O	1.913838	0.382860	0.666768
C145	C	1.257333	0.075061	0.000119
C146	C	1.590666	0.408395	0.333453
C147	C	1.924000	0.741728	0.666786
C148	C	1.359700	0.076289	0.000124
C149	C	1.693033	0.409622	0.333457
C150	C	2.026366	0.742956	0.666791
C151	C	1.081001	0.183160	0.000078
C152	C	1.414334	0.516494	0.333412
C153	C	1.747668	0.849827	0.666745
C154	C	1.082241	0.246383	0.000064
C155	C	1.415575	0.579716	0.333398
C156	C	1.748908	0.913050	0.666731
N157	N	1.088673	0.079040	0.254958
N158	N	1.422006	0.412373	0.588291
N159	N	1.755339	0.745706	0.921624
N160	N	1.088710	0.079050	-0.254754
N161	N	1.422043	0.412384	0.078580
N162	N	1.755377	0.745717	0.411913
C163	C	1.088696	0.079051	0.656248
C164	C	1.422029	0.412384	0.989582
C165	C	1.755362	0.745718	1.322915
C166	C	1.088686	0.079050	0.544597
C167	C	1.422020	0.412383	0.877930
C168	C	1.755353	0.745716	1.211264
C169	C	1.088685	0.079046	0.455607
C170	C	1.422018	0.412379	0.788940
C171	C	1.755351	0.745712	1.122273
C172	C	1.088674	0.079044	0.343948
C173	C	1.422008	0.412377	0.677281
C174	C	1.755341	0.745710	1.010615
H175	H	1.247572	-0.105958	0.000158
H176	H	1.580905	0.227375	0.333491
H177	H	1.914238	0.560709	0.666824
O178	O	1.258670	-0.219382	0.000001
O179	O	1.592004	0.113951	0.333335
O180	O	1.925337	0.447285	0.666668
C181	C	1.310099	-0.208933	-0.084720
C182	C	1.643432	0.124400	0.248613
C183	C	1.976765	0.457734	0.581947
H184	H	1.287021	-0.163896	-0.112966
H185	H	1.620355	0.169438	0.220367
H186	H	1.953688	0.502771	0.553700
H187	H	1.387049	-0.213020	-0.065650
H188	H	1.720382	0.120313	0.267684
H189	H	2.053716	0.453647	0.601017
H190	H	1.297814	-0.241433	-0.144050
H191	H	1.631148	0.091900	0.189283
H192	H	1.964481	0.425234	0.522616
O193	O	0.916427	-0.739464	0.000010
O194	O	1.249761	-0.406131	0.333343
O195	O	1.583094	-0.072798	0.666676
C196	C	0.842984	-0.694595	0.000031
C197	C	1.176318	-0.361261	0.333364
C198	C	1.509651	-0.027928	0.666698
H199	H	0.868465	-0.654210	-0.030929
H200	H	1.201798	-0.320877	0.302404
H201	H	1.535131	0.012457	0.635738
H202	H	0.783850	-0.707063	-0.047471
H203	H	1.117183	-0.373730	0.285862
H204	H	1.450517	-0.040397	0.619195
H205	H	0.817250	-0.686228	0.078508
H206	H	1.150584	-0.352895	0.411841
H207	H	1.483917	-0.019561	0.745175
H208	H	0.853122	-0.348216	0.000024
H209	H	1.186456	-0.014883	0.333358
H210	H	1.519789	0.318450	0.666691
O211	O	1.250308	-0.648882	-0.000085
O212	O	1.583641	-0.315549	0.333248
O213	O	1.916975	0.017784	0.666582
C214	C	1.301187	-0.667481	-0.084787
C215	C	1.634520	-0.334147	0.248546
C216	C	1.967853	-0.000814	0.581880
H217	H	1.251677	-0.679885	-0.144006
H218	H	1.585010	-0.346552	0.189328
H219	H	1.918344	-0.013219	0.522661
H220	H	1.340090	-0.631452	-0.113225
H221	H	1.673423	-0.298119	0.220109
H222	H	2.006757	0.035214	0.553442
H223	H	1.352934	-0.706142	-0.065624
H224	H	1.686267	-0.372808	0.267709
H225	H	2.019601	-0.039475	0.601042
O226	O	1.339630	-0.382269	0.000292
O227	O	1.672964	-0.048935	0.333626
O228	O	2.006297	0.284398	0.666959
C229	C	1.345329	-0.348305	0.084999
C230	C	1.678662	-0.014972	0.418333
C231	C	2.011995	0.318361	0.751666
H232	H	1.297269	-0.362409	0.144216
H233	H	1.630602	-0.029075	0.477549
H234	H	1.963935	0.304258	0.810882
H235	H	1.419703	-0.353562	0.113437
H236	H	1.753037	-0.020229	0.446770
H237	H	2.086370	0.313104	0.780103
H238	H	1.323624	-0.301482	0.065843
H239	H	1.656957	0.031851	0.399177
H240	H	1.990291	0.365185	0.732510
H241	H	0.851027	-0.455975	0.000018
H242	H	1.184360	-0.122641	0.333351
H243	H	1.517693	0.210692	0.666685
O244	O	0.927159	-0.193122	-0.000034
O245	O	1.260493	0.140211	0.333299
O246	O	1.593826	0.473544	0.666633
C247	C	0.921461	-0.227055	-0.084778
C248	C	1.254794	0.106278	0.248555
C249	C	1.588127	0.439612	0.581888
H250	H	0.994289	-0.241762	-0.113016
H251	H	1.327622	0.091572	0.220317
H252	H	1.660955	0.424905	0.553650
H253	H	0.885066	-0.265999	-0.065742
H254	H	1.218400	0.067334	0.267591
H255	H	1.551733	0.400668	0.600925
H256	H	0.880420	-0.200845	-0.144102
H257	H	1.213753	0.132488	0.189231
H258	H	1.547086	0.465821	0.522565
H259	H	0.942496	-0.081657	0.000112
H260	H	1.275829	0.251676	0.333445
H261	H	1.609163	0.585010	0.666778
H262	H	1.234886	-0.760249	0.000083
H263	H	1.568220	-0.426916	0.333416
H264	H	1.901553	-0.093583	0.666750
H265	H	1.324266	-0.493670	0.000107
H266	H	1.657599	-0.160336	0.333441
H267	H	1.990932	0.172997	0.666774
H268	H	0.931894	-0.628182	0.000049
H269	H	1.265228	-0.294848	0.333383
H270	H	1.598561	0.038485	0.666716
