data_functionalizedCrystal
_audit_creation_method	'MofGen! by Chris Wilmer'
_symmetry_space_group_name_H-M	'P1'
_symmetry_Int_Tables_number	1
_symmetry_cell_setting	triclinic
loop_
_symmetry_equiv_pos_as_xyz
  x,y,z
_cell_length_a	10.967874
_cell_length_b	10.967829
_cell_length_c	9.482900
_cell_angle_alpha	87.494390
_cell_angle_beta	68.707142
_cell_angle_gamma	82.165976
loop_
_atom_site_label
_atom_site_type_symbol
_atom_site_fract_x
_atom_site_fract_y
_atom_site_fract_z
O1	O	1.749692	0.082124	-0.579802
O2	O	1.372697	0.112780	-0.493039
O3	O	1.562648	-0.077174	-0.493031
O4	O	1.559741	0.272078	-0.579811
O5	O	1.524072	-0.038440	-0.251280
O6	O	1.334121	0.151514	-0.251288
O7	O	1.711117	0.120858	-0.338051
Cu8	Cu	1.519096	0.139722	-0.272596
Cu9	Cu	1.564717	0.093915	-0.558495
O10	O	1.521165	0.310812	-0.338059
C11	C	1.305002	0.132843	-0.360211
C12	C	1.160765	0.134902	-0.324594
C13	C	1.540234	-0.102392	-0.360204
C14	C	1.530904	-0.235241	-0.324589
C15	C	1.116443	0.115755	-0.433949
C16	C	0.967367	0.117883	-0.397139
C17	C	1.546728	-0.314529	-0.433947
C18	C	1.537085	-0.451836	-0.397140
C19	C	1.778812	0.100795	-0.470882
C20	C	1.923051	0.098734	-0.506509
C21	C	1.543580	0.336029	-0.470889
C22	C	1.552912	0.468877	-0.506514
N23	N	1.487019	0.171940	-0.071512
N24	N	1.596804	0.061688	-0.759578
C25	C	1.555246	0.103412	0.000766
C26	C	1.528567	0.130226	0.168148
H27	H	1.188862	0.097793	-0.554824
C28	C	1.702402	-0.044396	0.156643
H29	H	1.741739	-0.083917	0.223701
H30	H	1.768190	-0.012577	0.072794
H31	H	1.662409	-0.102158	0.121772
H32	H	1.088344	0.152877	-0.203721
H33	H	1.510209	-0.269011	-0.203713
C34	C	0.869533	0.142333	-0.233878
H35	H	0.782166	0.140624	-0.230570
H36	H	0.876778	0.220813	-0.201300
H37	H	0.889284	0.080676	-0.169057
C38	C	1.574676	-0.268920	-0.597241
H39	H	1.577500	-0.182618	-0.600559
H40	H	1.506700	-0.286547	-0.629990
H41	H	1.657092	-0.309449	-0.661917
C42	C	1.509136	-0.497439	-0.233838
H43	H	1.506329	-0.583743	-0.230524
H44	H	1.426733	-0.456908	-0.169158
H45	H	1.577127	-0.479818	-0.201099
H46	H	1.573584	-0.497357	-0.627393
C47	C	1.020865	0.074465	-0.669813
H48	H	1.108230	0.076213	-0.673134
H49	H	1.001012	0.136188	-0.734491
H50	H	1.013711	-0.003994	-0.702552
C51	C	1.381428	0.278017	0.012282
H52	H	1.377356	0.282129	0.113787
H53	H	1.298011	0.263899	0.011863
H54	H	1.403793	0.353478	-0.037104
H55	H	1.633405	0.024887	-0.061267
C56	C	1.422971	0.236309	0.251936
H57	H	1.418899	0.240420	0.353441
H58	H	1.339554	0.222191	0.251518
H59	H	1.445336	0.311769	0.202551
