data_functionalizedCrystal
_audit_creation_method	'MofGen! by Chris Wilmer'
_symmetry_space_group_name_H-M	'P1'
_symmetry_Int_Tables_number	1
_symmetry_cell_setting	triclinic
loop_
_symmetry_equiv_pos_as_xyz
  x,y,z
_cell_length_a	8.497374
_cell_length_b	19.805407
_cell_length_c	19.805405
_cell_angle_alpha	89.973590
_cell_angle_beta	89.985911
_cell_angle_gamma	90.004504
loop_
_atom_site_label
_atom_site_type_symbol
_atom_site_fract_x
_atom_site_fract_y
_atom_site_fract_z
Zn1	Zn	0.892011	1.034635	0.269581
Zn2	Zn	0.628188	1.034580	0.382739
Zn3	Zn	0.628226	0.921479	0.269569
Zn4	Zn	0.891907	0.921413	0.382733
O5	O	0.760083	0.978027	0.326155
O6	O	0.857043	1.129344	0.284598
O7	O	0.407431	1.019581	0.367724
O8	O	0.663277	0.936541	0.174854
O9	O	0.663213	1.129303	0.367735
O10	O	0.857079	1.019676	0.174862
O11	O	0.407458	0.936487	0.284579
O12	O	0.663176	0.826754	0.284573
O13	O	1.112683	0.936428	0.367725
O14	O	0.856901	0.826705	0.367714
O15	O	1.112760	1.019611	0.284593
O16	O	0.663111	1.019517	0.477455
O17	O	0.856864	0.936374	0.477450
C18	C	0.760032	0.802171	0.326142
C19	C	0.760048	0.726939	0.326153
C20	C	0.860757	0.691587	0.369510
C21	C	0.860779	0.620899	0.369511
C22	C	0.760083	0.585563	0.326158
C23	C	0.659369	0.620920	0.282797
C24	C	0.659356	0.691607	0.282793
C25	C	0.659421	0.335847	0.282812
C26	C	0.659439	0.265155	0.282821
C27	C	0.860844	0.265138	0.369530
C28	C	0.860831	0.335825	0.369526
C29	C	0.760124	0.371176	0.326162
C30	C	0.760103	0.447824	0.326161
C31	C	0.760095	0.508916	0.326163
C32	C	0.760007	0.977951	0.502011
C33	C	0.760027	0.977980	0.577243
C34	C	1.171563	0.978022	0.326156
C35	C	1.350207	0.978023	0.326164
C36	C	0.760135	1.154569	0.326169
C37	C	0.760157	1.229801	0.326175
C38	C	0.760194	0.978122	0.149613
C39	C	0.760241	0.978162	0.074381
C40	C	0.659245	1.021314	0.612567
C41	C	0.659280	1.021343	0.683256
C42	C	0.760090	0.978034	0.718619
C43	C	0.860882	0.934697	0.683290
C44	C	0.860854	0.934672	0.612603
C45	C	0.860999	0.934797	0.968363
C46	C	0.861016	0.934824	1.039055
C47	C	0.659425	1.021468	1.039016
C48	C	0.659397	1.021443	0.968329
C49	C	0.760195	0.978109	0.933006
C50	C	0.760158	0.978080	0.856358
C51	C	0.760120	0.978059	0.795266
H52	H	0.577440	0.236386	0.247514
C53	C	0.970469	0.887736	0.574211
C54	C	1.071673	0.926014	0.533595
C55	C	1.172694	0.882802	0.498226
H56	H	0.910233	0.858244	0.546613
H57	H	1.030606	0.861956	0.605371
H58	H	1.011543	0.951782	0.502438
H59	H	1.131944	0.955504	0.561176
H60	H	1.232831	0.857022	0.529387
H61	H	1.112445	0.853312	0.470632
H62	H	1.241382	0.908767	0.470669
C63	C	0.970160	0.582639	0.416668
C64	C	1.058297	0.628713	0.454652
C65	C	1.159057	0.593494	0.498111
H66	H	1.039165	0.555074	0.390909
H67	H	0.909708	0.555065	0.446152
H68	H	1.118745	0.656275	0.425172
H69	H	0.989334	0.656280	0.480425
H70	H	1.098605	0.565920	0.527595
H71	H	1.228052	0.565930	0.472347
H72	H	1.218860	0.624750	0.523893
H73	H	0.577407	0.364621	0.247508
C74	C	0.970748	0.887887	1.077416
C75	C	1.126862	0.902581	1.060199
C76	C	1.227984	0.859366	1.095530
H77	H	0.947781	0.842388	1.065902
H78	H	0.956428	0.894114	1.124579
H79	H	1.141175	0.896348	1.013046
H80	H	1.149878	0.948072	1.071714
H81	H	1.213664	0.865593	1.142694
H82	H	1.205003	0.813870	1.084014
H83	H	1.333918	0.869334	1.083858
C84	C	0.970271	0.226878	0.416677
C85	C	1.058420	0.272954	0.454654
C86	C	1.159221	0.237736	0.498097
H87	H	1.039266	0.199319	0.390907
H88	H	0.909847	0.199298	0.446166
H89	H	1.118839	0.300522	0.425168
H90	H	0.989466	0.300515	0.480437
H91	H	1.098797	0.210157	0.527586
H92	H	1.228206	0.210178	0.472322
H93	H	1.219032	0.268993	0.523874
C94	C	0.970258	0.374274	0.416483
C95	C	1.071497	0.414889	0.378222
C96	C	1.172316	0.450323	0.421454
H97	H	1.030395	0.343172	0.442320
H98	H	0.909829	0.401874	0.445922
H99	H	1.131920	0.387292	0.348794
H100	H	1.011403	0.446003	0.352387
H101	H	1.111887	0.477922	0.450893
H102	H	1.232442	0.419216	0.447288
H103	H	1.241008	0.477889	0.395500
H104	H	0.577387	0.592144	0.247496
H105	H	0.577303	1.056707	0.939538
C106	C	0.550181	0.730114	0.235747
C107	C	0.571752	0.799581	0.245008
C108	C	0.471226	0.835073	0.201671
H109	H	0.444079	0.718601	0.245537
H110	H	0.573484	0.718587	0.190272
H111	H	0.548439	0.811103	0.290472
H112	H	0.677833	0.811114	0.235212
H113	H	0.494528	0.823547	0.156195
H114	H	0.365130	0.823555	0.211464
H115	H	0.485859	0.882210	0.207944
C116	C	0.549727	1.068410	0.574298
C117	C	0.461505	1.106379	0.620367
C118	C	0.360616	1.149779	0.585141
H119	H	0.480782	1.042610	0.546755
H120	H	0.610091	1.097906	0.546702
H121	H	0.401146	1.076887	0.647951
H122	H	0.530409	1.132194	0.647912
H123	H	0.420980	1.179275	0.557545
H124	H	0.291681	1.123973	0.557598
H125	H	0.300756	1.175550	0.616393
H126	H	0.577357	1.056755	1.067784
C127	C	0.970364	0.887820	0.929897
C128	C	0.948808	0.897077	0.860422
C129	C	1.049547	0.853818	0.824963
H130	H	0.947279	0.842328	0.941441
H131	H	1.076419	0.897698	0.941419
H132	H	0.842777	0.887195	0.848905
H133	H	0.971905	0.942560	0.848858
H134	H	1.155602	0.863696	0.836485
H135	H	1.026453	0.808329	0.836513
H136	H	1.034946	0.860098	0.777821
C137	C	0.550257	1.068583	0.721582
C138	C	0.639878	1.111958	0.762025
C139	C	0.539562	1.155542	0.797307
H140	H	0.481319	1.042913	0.749290
H141	H	0.490367	1.094406	0.690370
H142	H	0.699742	1.086138	0.793234
H143	H	0.708812	1.137643	0.734335
H144	H	0.479672	1.181365	0.766094
H145	H	0.470629	1.129867	0.825010
H146	H	0.600356	1.184981	0.824746
C147	C	0.970511	0.887650	0.721560
C148	C	1.058798	0.849707	0.675492
C149	C	1.159820	0.806365	0.710720
H150	H	0.910289	0.858129	0.749172
H151	H	1.039399	0.913512	0.749087
H152	H	0.989920	0.823847	0.647977
H153	H	1.119053	0.879210	0.647879
H154	H	1.228707	0.832227	0.738247
H155	H	1.099585	0.776849	0.738331
H156	H	1.219745	0.780620	0.679469
H157	H	0.942751	0.720352	0.404815
