data_functionalizedCrystal
_audit_creation_method	'MofGen! by Chris Wilmer'
_symmetry_space_group_name_H-M	'P1'
_symmetry_Int_Tables_number	1
_symmetry_cell_setting	triclinic
loop_
_symmetry_equiv_pos_as_xyz
  x,y,z
_cell_length_a	15.538191
_cell_length_b	10.540510
_cell_length_c	14.750712
_cell_angle_alpha	77.232434
_cell_angle_beta	97.571892
_cell_angle_gamma	65.892702
loop_
_atom_site_label
_atom_site_type_symbol
_atom_site_fract_x
_atom_site_fract_y
_atom_site_fract_z
O1	O	1.226971	-0.374160	-0.079848
O2	O	0.953685	-0.228040	-0.079843
O3	O	1.096578	-0.488765	-0.079846
O4	O	1.084079	-0.113435	-0.079846
O5	O	1.136970	-0.562460	0.079804
O6	O	0.994077	-0.301735	0.079806
O7	O	1.267363	-0.447855	0.079801
Zn8	Zn	1.137134	-0.386496	0.105152
Zn9	Zn	1.083915	-0.289400	-0.105194
O10	O	1.124471	-0.187130	0.079804
C11	C	0.938887	-0.249600	-0.000018
C12	C	0.834617	-0.204062	-0.000016
C13	C	1.115842	-0.572475	-0.000023
C14	C	1.113054	-0.712104	-0.000028
C15	C	0.543815	-0.656469	-0.000030
C16	C	0.445834	-0.613646	-0.000031
C17	C	0.424992	-0.372781	-0.000031
C18	C	0.522975	-0.415585	-0.000026
C19	C	0.582379	-0.557431	-0.000027
C20	C	0.561538	-0.316547	-0.000022
C21	C	0.659511	-0.359347	-0.000022
C22	C	0.718921	-0.501184	-0.000025
C23	C	0.680352	-0.600230	-0.000026
C24	C	0.502131	-0.174699	-0.000028
C25	C	0.540695	-0.075661	-0.000024
C26	C	0.638671	-0.118463	-0.000017
C27	C	0.698080	-0.260301	-0.000020
C28	C	0.677240	-0.019417	-0.000016
C29	C	0.775213	-0.062216	-0.000015
C30	C	0.796053	-0.303100	-0.000020
C31	C	1.212413	-0.976681	0.000335
C32	C	1.215293	-0.831323	-0.000029
C33	C	1.037652	-0.690025	-0.091193
C34	C	1.035385	-0.835690	-0.091265
C35	C	1.079190	-0.918296	0.090287
C36	C	1.084343	-0.774802	0.091487
C37	C	1.282161	-0.426294	-0.000026
C38	C	1.386429	-0.471829	-0.000034
C39	C	1.105206	-0.103419	-0.000021
C40	C	1.107993	0.036213	-0.000022
N41	N	1.173461	-0.452765	0.248707
C42	C	0.946125	-0.038094	0.600529
C43	C	0.971587	-0.084527	0.701027
C44	C	1.098146	-0.315347	0.700988
C45	C	1.072690	-0.268937	0.600487
C46	C	0.996680	-0.130309	0.550265
C47	C	1.123246	-0.361152	0.550224
C48	C	1.097795	-0.314742	0.449732
C49	C	1.021790	-0.176118	0.399503
C50	C	0.971230	-0.083899	0.449774
C51	C	1.199260	-0.499775	0.600448
C52	C	1.249815	-0.591990	0.550185
C53	C	1.224361	-0.545585	0.449691
C54	C	1.148356	-0.406960	0.399462
C55	C	1.274921	-0.637803	0.399421
C56	C	1.249471	-0.591393	0.298929
C57	C	1.122905	-0.360550	0.298970
N58	N	1.047585	-0.223124	0.751251
H59	H	0.844425	-0.418608	-0.000015
H60	H	1.001073	-0.138330	0.317676
H61	H	0.930413	-0.009421	0.741947
H62	H	0.592187	-0.771976	-0.000025
H63	H	1.336816	-0.750670	0.440324
H64	H	0.422355	-0.139855	-0.000031
H65	H	1.160037	-0.428218	0.741890
H66	H	1.290640	-0.666484	0.258004
H67	H	0.414440	-0.694306	-0.000036
H68	H	1.219982	-0.537554	0.682275
H69	H	0.376611	-0.257288	-0.000035
H70	H	1.235567	-1.008910	-0.064675
H71	H	1.239918	-0.792181	-0.065494
H72	H	1.268786	-1.067656	0.065715
H73	H	1.053910	-0.861365	-0.159413
H74	H	1.311706	-0.704861	0.591087
H75	H	1.129164	-1.007744	0.159390
H76	H	1.011093	-0.692971	0.096993
H77	H	0.957871	-0.820608	-0.095394
H78	H	0.961527	-0.605470	-0.094582
H79	H	0.798693	-0.536023	-0.000038
H80	H	1.272777	-0.851514	0.065320
H81	H	0.728724	-0.715738	-0.000021
H82	H	0.909328	0.028980	0.408881
H83	H	0.628857	0.096078	-0.000025
H84	H	0.492314	0.039832	-0.000028
H85	H	1.056832	-0.645043	-0.159039
H86	H	1.002583	-0.904421	0.090903
H87	H	1.139488	-0.795335	0.158930
H88	H	0.806614	0.018427	-0.000003
H89	H	1.061003	-0.247671	0.258077
H90	H	0.884223	0.074785	0.559636
