data_functionalizedCrystal
_audit_creation_method	'MofGen! by Chris Wilmer'
_symmetry_space_group_name_H-M	'P1'
_symmetry_Int_Tables_number	1
_symmetry_cell_setting	triclinic
loop_
_symmetry_equiv_pos_as_xyz
  x,y,z
_cell_length_a	15.625950
_cell_length_b	17.038274
_cell_length_c	14.750779
_cell_angle_alpha	103.580829
_cell_angle_beta	120.090508
_cell_angle_gamma	92.489643
loop_
_atom_site_label
_atom_site_type_symbol
_atom_site_fract_x
_atom_site_fract_y
_atom_site_fract_z
O1	O	1.288218	-0.023954	0.368442
O2	O	1.788218	0.476046	0.868442
O3	O	1.004076	-0.057088	0.269559
O4	O	1.504076	0.442912	0.769559
O5	O	1.144465	0.073178	0.318441
O6	O	1.644465	0.573178	0.818441
O7	O	1.147830	-0.154220	0.319559
O8	O	1.647830	0.345780	0.819559
O9	O	1.184151	0.109999	0.491910
O10	O	1.684151	0.609999	0.991910
O11	O	1.043763	-0.020267	0.443028
O12	O	1.543763	0.479733	0.943028
O13	O	1.327905	0.012867	0.541911
O14	O	1.827905	0.512867	1.041911
Zn15	Zn	1.192135	0.002146	0.520011
Zn16	Zn	1.692135	0.502146	1.020011
Zn17	Zn	1.139846	-0.046367	0.291458
Zn18	Zn	1.639846	0.453633	0.791458
O19	O	1.187516	-0.117399	0.493028
O20	O	1.687516	0.382601	0.993028
C21	C	0.987384	-0.040823	0.343579
C22	C	1.487384	0.459177	0.843579
C23	C	0.878518	-0.047207	0.305694
C24	C	1.378518	0.452793	0.805694
C25	C	0.628519	0.032083	0.653759
C26	C	1.128519	0.532083	1.153759
C27	C	0.526211	0.026058	0.618112
C28	C	1.026211	0.526058	1.118112
C29	C	0.482997	-0.014079	0.429021
C30	C	0.982997	0.485921	0.929021
C31	C	0.585303	-0.008062	0.464652
C32	C	1.085303	0.491938	0.964652
C33	C	0.658057	0.015020	0.577022
C34	C	1.158057	0.515020	1.077022
C35	C	0.614841	-0.025125	0.387915
C36	C	1.114841	0.474875	0.887915
C37	C	0.717139	-0.019104	0.423544
C38	C	1.217139	0.480896	0.923544
C39	C	0.789898	0.003980	0.535910
C40	C	1.289898	0.503980	1.035910
C41	C	0.760355	0.021041	0.612651
C42	C	1.260355	0.521041	1.112651
C43	C	0.542086	-0.048201	0.275546
C44	C	1.042086	0.451799	0.775546
C45	C	0.571624	-0.065264	0.198809
C46	C	1.071624	0.434736	0.698809
C47	C	0.673923	-0.059249	0.234437
C48	C	1.173923	0.440751	0.734437
C49	C	0.746683	-0.036165	0.346802
C50	C	1.246683	0.463835	0.846802
C51	C	0.703467	-0.076310	0.157695
C52	C	1.203467	0.423690	0.657695
C53	C	0.805764	-0.070289	0.193324
C54	C	1.305764	0.429711	0.693324
C55	C	0.848980	-0.030144	0.382431
C56	C	1.348980	0.469856	0.882431
C57	C	1.161237	0.120495	0.404112
C58	C	1.661237	0.620495	0.904112
C59	C	1.152076	0.206625	0.400938
C60	C	1.652076	0.706625	0.900938
C61	C	1.236223	0.262851	0.430230
C62	C	1.736223	0.762851	0.930230
C63	C	1.227607	0.343777	0.427236
C64	C	1.727607	0.843777	0.927236
C65	C	1.134844	0.368477	0.394957
C66	C	1.634844	0.868477	0.894957
C67	C	1.050690	0.312244	0.365659
C68	C	1.550690	0.812244	0.865659
C69	C	1.059305	0.231319	0.368646
C70	C	1.559305	0.731319	0.868646
C71	C	1.104404	0.612031	0.384391
C72	C	1.604404	1.112031	0.884391
C73	C	1.095795	0.692964	0.381410
C74	C	1.595795	1.192964	0.881410
C75	C	1.272712	0.724491	0.442985
C76	C	1.772712	1.224491	0.942985
C77	C	1.281321	0.643563	0.445976
C78	C	1.781321	1.143563	0.945976
C79	C	1.197166	0.587336	0.416672
C80	C	1.697166	1.087336	0.916672
C81	C	1.126035	0.451197	0.391899
C82	C	1.626035	0.951197	0.891899
C83	C	1.205974	0.504617	0.419723
C84	C	1.705974	1.004617	0.919723
C85	C	1.344597	-0.003399	0.467888
C86	C	1.844597	0.496601	0.967888
C87	C	1.453461	0.002984	0.505766
C88	C	1.953461	0.502984	1.005766
C89	C	1.170753	0.835293	0.407400
C90	C	1.670753	1.335293	0.907400
C91	C	1.179942	0.749190	0.410702
C92	C	1.679942	1.249190	0.910702
N93	N	1.227827	0.035256	0.675995
N94	N	1.727827	0.535256	1.175995
N95	N	1.104161	-0.079470	0.135477
N96	N	1.604161	0.420530	0.635477
C97	C	1.004473	-0.171907	0.950042
C98	C	1.504473	0.328093	1.450042
C99	C	1.029492	-0.148710	1.059253
C100	C	1.529492	0.351290	1.559253
C101	C	1.153837	-0.033397	1.102511
C102	C	1.653837	0.466603	1.602511
C103	C	1.128825	-0.056582	0.993301
C104	C	1.628825	0.443418	1.493301
C105	C	1.054143	-0.125838	0.917075
C106	C	1.554143	0.374162	1.417075
C107	C	1.178495	-0.010512	0.960334
C108	C	1.678495	0.489488	1.460334
C109	C	1.153489	-0.033698	0.851134
C110	C	1.653489	0.466302	1.351134
C111	C	1.078812	-0.102953	0.774902
C112	C	1.578812	0.397047	1.274902
C113	C	1.029137	-0.149023	0.807875
C114	C	1.529137	0.350977	1.307875
C115	C	1.253181	0.058740	1.036564
C116	C	1.753181	0.558740	1.536564
C117	C	1.302851	0.104809	1.003597
C118	C	1.802851	0.604809	1.503597
C119	C	1.277840	0.081627	0.894394
C120	C	1.777840	0.581627	1.394394
C121	C	1.203164	0.012372	0.818162
C122	C	1.703164	0.512372	1.318162
C123	C	1.327515	0.127698	0.861421
C124	C	1.827515	0.627698	1.361421
C125	C	1.302509	0.104512	0.752221
C126	C	1.802509	0.604512	1.252221
C127	C	1.178157	-0.010813	0.708962
C128	C	1.678157	0.489187	1.208962
H129	H	0.687760	0.050867	0.745262
H130	H	1.187760	0.550867	1.245262
H131	H	0.423748	-0.032869	0.337529
H132	H	0.923748	0.467131	0.837529
H133	H	1.050508	0.471318	0.365619
H134	H	1.550508	0.971318	0.865619
O135	O	0.923899	-0.246587	0.867795
O136	O	1.423899	0.253413	1.367795
H137	H	0.956881	-0.291943	0.833452
H138	H	1.456881	0.208057	1.333452
O139	O	1.280151	0.083744	1.154344
O140	O	1.780151	0.583744	1.654344
H141	H	1.360948	0.082704	1.208938
H142	H	1.860948	0.582704	1.708938
O143	O	1.318374	0.404415	0.458840
O144	O	1.818374	0.904415	0.958840
H145	H	1.302520	0.427021	0.388248
H146	H	1.802520	0.927021	0.888248
O147	O	0.950637	0.338881	0.330853
O148	O	1.450637	0.838881	0.830853
H149	H	0.958784	0.404604	0.333712
H150	H	1.458784	0.904604	0.833712
O151	O	1.336272	0.236208	0.465036
O152	O	1.836272	0.736208	0.965036
H153	H	1.393333	0.288901	0.484888
H154	H	1.893333	0.788901	0.984888
O155	O	1.356046	0.154225	0.716648
O156	O	1.856046	0.654225	1.216648
H157	H	1.326104	0.126470	0.627906
H158	H	1.826104	0.626470	1.127906
H159	H	0.873195	0.008882	0.564917
H160	H	1.373195	0.508882	1.064917
O161	O	0.975907	-0.198405	1.094801
O162	O	1.475907	0.301595	1.594801
H163	H	1.031692	-0.222639	1.159977
H164	H	1.531692	0.277361	1.659977
O165	O	0.838838	0.045934	0.733851
O166	O	1.338838	0.545934	1.233851
H167	H	0.801116	0.056790	0.781232
H168	H	1.301116	0.556790	1.281232
O169	O	0.431740	-0.054689	0.237071
O170	O	0.931740	0.445311	0.737071
H171	H	0.409771	-0.101191	0.266951
H172	H	0.909771	0.398809	0.766951
H173	H	0.990783	0.185539	0.344793
H174	H	1.490783	0.685539	0.844793
O175	O	1.013643	0.551391	0.352793
O176	O	1.513643	1.051391	0.852793
H177	H	1.029516	0.528772	0.423381
H178	H	1.529516	1.028772	0.923381
H179	H	0.502167	0.039936	0.680609
H180	H	1.002167	0.539936	1.180609
O181	O	1.306025	0.477983	0.454534
O182	O	1.806025	0.977983	0.954534
H183	H	1.330354	0.456882	0.528073
H184	H	1.830354	0.956882	1.028073
H185	H	0.512375	-0.084054	0.107317
H186	H	1.012375	0.415946	0.607317
O187	O	0.624995	-0.101203	0.036500
O188	O	1.124995	0.398797	0.536500
H189	H	0.548899	-0.102525	0.024617
H190	H	1.048899	0.397475	0.524617
O191	O	1.051835	-0.127957	0.657120
O192	O	1.551835	0.372043	1.157120
H193	H	1.065774	-0.190992	0.635455
H194	H	1.565774	0.309008	1.135455
H195	H	0.829813	-0.084187	0.130837
H196	H	1.329813	0.415813	0.630837
O197	O	1.381366	0.616915	0.480766
O198	O	1.881366	1.116915	0.980766
H199	H	1.438430	0.669606	0.500617
H200	H	1.938430	1.169606	1.000617
O201	O	1.097598	-0.085502	0.626716
O202	O	1.597598	0.414498	1.126716
H203	H	1.119936	-0.140746	0.653744
H204	H	1.619936	0.359254	1.153744
H205	H	0.968316	-0.205414	0.745804
H206	H	1.468316	0.294586	1.245804
O207	O	1.363477	0.785131	0.474583
O208	O	1.863477	1.285131	0.974583
H209	H	1.341905	0.845553	0.467078
H210	H	1.841905	1.345553	0.967078
O211	O	0.995737	0.719608	0.346581
O212	O	1.495737	1.219608	0.846581
H213	H	0.938662	0.666912	0.326694
H214	H	1.438662	1.166912	0.826694
O215	O	1.234381	0.041301	1.184726
O216	O	1.734381	0.541301	1.684726
H217	H	1.243422	0.049688	1.266198
H218	H	1.743422	0.549688	1.766198
O219	O	1.383396	0.179507	1.085811
O220	O	1.883396	0.679507	1.585811
H221	H	1.392437	0.187894	1.167283
H222	H	1.892437	0.687894	1.667283
O223	O	1.408071	0.202388	0.943640
O224	O	1.908071	0.702388	1.443640
H225	H	1.375078	0.247747	0.977962
H226	H	1.875078	0.747747	1.477962
O227	O	0.927464	-0.005257	0.503631
O228	O	1.427464	0.494743	1.003631
H229	H	0.922486	0.056784	0.543642
H230	H	1.422486	0.556784	1.043642
