data_functionalizedCrystal
_audit_creation_method	'MofGen! by Chris Wilmer'
_symmetry_space_group_name_H-M	'P1'
_symmetry_Int_Tables_number	1
_symmetry_cell_setting	triclinic
loop_
_symmetry_equiv_pos_as_xyz
  x,y,z
_cell_length_a	12.759401
_cell_length_b	19.805405
_cell_length_c	19.805399
_cell_angle_alpha	89.971945
_cell_angle_beta	90.017921
_cell_angle_gamma	89.966564
loop_
_atom_site_label
_atom_site_type_symbol
_atom_site_fract_x
_atom_site_fract_y
_atom_site_fract_z
Zn1	Zn	1.606089	0.269474	0.382688
Zn2	Zn	2.106089	0.769474	0.882688
Zn3	Zn	1.605936	0.382663	0.269498
Zn4	Zn	2.105936	0.882663	0.769498
Zn5	Zn	1.430400	0.269493	0.269515
Zn6	Zn	1.930400	0.769493	0.769515
Zn7	Zn	1.430323	0.382627	0.382648
Zn8	Zn	1.930323	0.882627	0.882648
O9	O	1.518187	0.326064	0.326087
O10	O	2.018187	0.826064	0.826087
O11	O	1.753090	0.284496	0.367682
O12	O	2.253090	0.784496	0.867682
O13	O	1.582619	0.367673	0.174784
O14	O	2.082619	0.867673	0.674784
O15	O	1.453802	0.174774	0.284551
O16	O	1.953802	0.674774	0.784551
O17	O	1.752977	0.367655	0.284522
O18	O	2.252977	0.867655	0.784522
O19	O	1.582880	0.174760	0.367699
O20	O	2.082880	0.674760	0.867699
O21	O	1.453654	0.284528	0.174797
O22	O	1.953654	0.784528	0.674797
O23	O	1.283369	0.284494	0.284513
O24	O	1.783369	0.784494	0.784513
O25	O	1.453670	0.367594	0.477370
O26	O	1.953670	0.867594	0.977370
O27	O	1.283312	0.367613	0.367632
O28	O	1.783312	0.867613	0.867632
O29	O	1.582805	0.284461	0.477399
O30	O	2.082805	0.784461	0.977399
O31	O	1.582544	0.477374	0.284484
O32	O	2.082544	0.977374	0.784484
O33	O	1.453522	0.477348	0.367615
O34	O	1.953522	0.977348	0.867615
C35	C	1.245220	0.326052	0.326071
C36	C	1.745220	0.826052	0.826071
C37	C	1.128443	0.326063	0.326079
C38	C	1.628443	0.826063	0.826079
C39	C	1.073519	0.369295	0.282723
C40	C	1.573519	0.869295	0.782723
C41	C	0.963794	0.369307	0.282740
C42	C	1.463794	0.869307	0.782740
C43	C	0.963929	0.282849	0.369474
C44	C	1.463929	0.782849	0.869474
C45	C	1.073651	0.282841	0.369459
C46	C	1.573651	0.782841	0.869459
C47	C	0.813766	0.449110	0.258432
C48	C	1.313766	0.949110	0.758432
C49	C	0.758838	0.492335	0.215065
C50	C	1.258838	0.992335	0.715065
C51	C	0.794387	0.502637	0.148997
C52	C	1.294387	1.002637	0.648997
C53	C	0.884863	0.469703	0.126284
C54	C	1.384863	0.969703	0.626284
C55	C	0.939786	0.426472	0.169648
C56	C	1.439786	0.926472	0.669648
C57	C	0.904238	0.416183	0.235725
C58	C	1.404238	0.916183	0.735725
C59	C	1.223682	0.203037	0.393760
C60	C	1.723682	0.703037	0.893760
C61	C	1.278606	0.159802	0.437121
C62	C	1.778606	0.659802	0.937121
C63	C	1.243059	0.149494	0.503189
C64	C	1.743059	0.649494	1.003189
C65	C	1.152579	0.182416	0.525900
C66	C	1.652579	0.682416	1.025900
C67	C	1.097655	0.225651	0.482539
C68	C	1.597655	0.725651	0.982539
C69	C	1.133210	0.235960	0.416472
C70	C	1.633210	0.735960	0.916472
C71	C	1.518036	0.501920	0.326059
C72	C	2.018036	1.001920	0.826059
C73	C	1.518068	0.577152	0.326069
C74	C	2.018068	1.077152	0.826069
C75	C	1.585233	0.612431	0.369397
C76	C	2.085233	1.112431	0.869397
C77	C	1.585259	0.683119	0.369407
C78	C	2.085259	1.183119	0.869407
C79	C	1.518124	0.718528	0.326086
C80	C	2.018124	1.218528	0.826086
C81	C	1.450952	0.683244	0.282757
C82	C	1.950952	1.183244	0.782757
C83	C	1.450922	0.612557	0.282750
C84	C	1.950922	1.112557	0.782750
C85	C	1.451071	0.968318	0.282784
C86	C	1.951071	1.468318	0.782784
C87	C	1.451108	1.039010	0.282793
C88	C	1.951108	1.539010	0.782793
C89	C	1.585408	1.038880	0.369442
C90	C	2.085408	1.538880	0.869442
C91	C	1.585378	0.968193	0.369435
C92	C	2.085378	1.468193	0.869435
C93	C	1.518202	0.932915	0.326108
C94	C	2.018202	1.432915	0.826108
C95	C	1.518174	0.856267	0.326098
C96	C	2.018174	1.356267	0.826098
C97	C	1.518157	0.795175	0.326093
C98	C	2.018157	1.295175	0.826093
C99	C	1.792220	0.326077	0.326105
C100	C	2.292220	0.826077	0.826105
C101	C	1.908997	0.326082	0.326112
C102	C	2.408997	0.826082	0.826112
C103	C	1.518323	1.149522	0.326125
C104	C	2.018323	1.649522	0.826125
C105	C	1.518268	1.074290	0.326125
C106	C	2.018268	1.574290	0.826125
C107	C	1.518246	0.326022	0.502630
C108	C	2.018246	0.826022	1.002630
C109	C	1.518271	0.326003	0.577862
C110	C	2.018271	0.826003	1.077862
C111	C	1.518189	0.326058	0.150231
C112	C	2.018189	0.826058	0.650231
C113	C	1.518367	0.325885	0.075000
C114	C	2.018367	0.825885	0.575000
C115	C	1.585513	0.282714	0.613222
C116	C	2.085513	0.782714	1.113222
C117	C	1.585524	0.282694	0.683911
C118	C	2.085524	0.782694	1.183911
C119	C	1.518297	0.325968	0.719238
C120	C	2.018297	0.825968	1.219238
C121	C	1.451048	0.369260	0.683873
C122	C	1.951048	0.869260	1.183873
C123	C	1.451032	0.369275	0.613186
C124	C	1.951032	0.869275	1.113186
C125	C	1.451107	0.369196	0.968946
C126	C	1.951107	0.869196	1.468946
C127	C	1.451130	0.369179	1.039638
C128	C	1.951130	0.869179	1.539638
C129	C	1.585598	0.282616	1.039672
C130	C	2.085598	0.782616	1.539672
C131	C	1.585583	0.282631	0.968984
C132	C	2.085583	0.782631	1.468984
C133	C	1.518330	0.325920	0.933625
C134	C	2.018330	0.825920	1.433625
C135	C	1.518318	0.325940	0.856977
C136	C	2.018318	0.825940	1.356977
C137	C	1.518314	0.325952	0.795885
C138	C	2.018314	0.825952	1.295885
H139	H	0.749659	0.537835	0.113688
H140	H	1.249659	1.037835	0.613688
H141	H	1.640048	0.939365	0.404708
H142	H	2.140048	1.439365	0.904708
Cl143	Cl	0.769079	0.436173	0.341496
Cl144	Cl	1.269079	0.936173	0.841496
H145	H	1.013447	0.399656	0.151155
H146	H	1.513447	0.899656	0.651155
H147	H	1.396376	0.939600	0.247505
H148	H	1.896376	1.439600	0.747505
H149	H	1.639906	0.583606	0.404670
H150	H	2.139906	1.083606	0.904670
H151	H	1.396285	0.712080	0.247487
H152	H	1.896285	1.212080	0.747487
Cl153	Cl	1.366481	0.568207	0.228279
Cl154	Cl	1.866481	1.068207	0.728279
Cl155	Cl	1.670107	0.228301	0.728361
Cl156	Cl	2.170107	0.728301	1.228361
H157	H	1.396307	0.404491	0.712642
H158	H	1.896307	0.904491	1.212642
Cl159	Cl	1.670037	0.228313	0.568818
Cl160	Cl	2.170037	0.728313	1.068818
Cl161	Cl	1.107880	0.169453	0.608958
Cl162	Cl	1.607880	0.669453	1.108958
H163	H	1.640102	1.067611	0.404723
H164	H	2.140102	1.567611	0.904723
H165	H	1.639959	0.711840	0.404684
H166	H	2.139959	1.211840	0.904684
Cl167	Cl	1.670103	0.228230	0.924577
Cl168	Cl	2.170103	0.728230	1.424577
H169	H	1.640355	0.247365	1.068469
H170	H	2.140355	0.747365	1.568469
Cl171	Cl	1.366609	0.423584	1.084049
Cl172	Cl	1.866609	0.923584	1.584049
Cl173	Cl	1.366702	1.083523	0.228329
Cl174	Cl	1.866702	1.583523	0.728329
H175	H	1.396361	0.404455	0.940165
H176	H	1.896361	0.904455	1.440165
H177	H	1.396267	0.404519	0.584396
H178	H	1.896267	0.904519	1.084396
H179	H	1.118127	0.404491	0.247402
H180	H	1.618127	0.904491	0.747402
H181	H	0.913794	0.478088	0.072483
H182	H	1.413794	0.978088	0.572483
H183	H	0.685171	0.519150	0.233564
H184	H	1.185171	1.019150	0.733564
Cl185	Cl	1.268383	0.216000	0.310701
Cl186	Cl	1.768383	0.716000	0.810701
Cl187	Cl	0.983907	0.267039	0.511091
Cl188	Cl	1.483907	0.767039	1.011091
Cl189	Cl	1.312097	0.095129	0.557696
Cl190	Cl	1.812097	0.595129	1.057696
Cl191	Cl	0.895040	0.228514	0.424004
Cl192	Cl	1.395040	0.728514	0.924004
H193	H	1.352274	0.132991	0.418622
H194	H	1.852274	0.632991	0.918622
