data_functionalizedCrystal
_audit_creation_method	'MofGen! by Chris Wilmer'
_symmetry_space_group_name_H-M	'P1'
_symmetry_Int_Tables_number	1
_symmetry_cell_setting	triclinic
loop_
_symmetry_equiv_pos_as_xyz
  x,y,z
_cell_length_a	14.853566
_cell_length_b	15.538191
_cell_length_c	13.330367
_cell_angle_alpha	89.993596
_cell_angle_beta	90.004068
_cell_angle_gamma	65.453254
loop_
_atom_site_label
_atom_site_type_symbol
_atom_site_fract_x
_atom_site_fract_y
_atom_site_fract_z
O1	O	1.156001	0.122915	0.083349
O2	O	0.888731	0.137561	0.083365
O3	O	1.074392	-0.006823	0.083359
O4	O	0.970339	0.267300	0.083356
O5	O	1.074363	-0.006800	-0.083488
O6	O	0.888702	0.137584	-0.083482
O7	O	1.155972	0.122939	-0.083498
Cu8	Cu	1.022334	0.130264	-0.098724
Cu9	Cu	1.022368	0.130236	0.098592
O10	O	0.970311	0.267323	-0.083492
C11	C	0.855345	0.136909	-0.000056
C12	C	0.755915	0.134921	-0.000050
C13	C	0.335507	0.126500	0.090881
C14	C	0.335497	0.126526	-0.091022
C15	C	0.428918	0.128393	-0.091019
C16	C	0.475637	0.129315	-0.000065
C17	C	0.428935	0.128370	0.090887
C18	C	0.475622	0.129348	-0.181969
C19	C	0.569048	0.131216	-0.181970
C20	C	0.615772	0.132131	-0.091014
C21	C	0.569065	0.131185	-0.000059
C22	C	0.615785	0.132107	0.090895
C23	C	0.569082	0.131154	0.181852
C24	C	0.475659	0.129285	0.181842
C25	C	0.709195	0.133999	-0.091005
C26	C	0.709213	0.133977	0.090901
C27	C	1.085264	-0.041893	-0.000062
C28	C	1.117692	-0.146424	-0.000054
C29	C	0.795531	-0.434635	-0.000057
C30	C	0.826025	-0.532861	-0.000061
C31	C	0.997543	-0.555080	-0.000070
C32	C	0.967064	-0.456854	-0.000061
C33	C	0.866057	-0.396639	-0.000056
C34	C	1.037590	-0.418858	-0.000060
C35	C	1.007113	-0.320640	-0.000057
C36	C	0.906110	-0.260419	-0.000054
C37	C	0.835580	-0.298421	-0.000052
C38	C	1.138597	-0.479075	-0.000073
C39	C	1.209123	-0.441079	-0.000072
C40	C	1.178646	-0.342860	-0.000061
C41	C	1.077643	-0.282638	-0.000059
C42	C	1.249176	-0.304858	-0.000063
C43	C	1.218699	-0.206640	-0.000060
C44	C	1.047166	-0.184421	-0.000055
C45	C	1.189357	0.123590	-0.000074
C46	C	1.288788	0.125578	-0.000074
C47	C	0.959438	0.302393	-0.000069
C48	C	0.927011	0.406924	-0.000070
N49	N	1.022317	0.130282	-0.237506
C50	C	1.058338	0.187433	-0.710122
C51	C	0.986438	0.073002	-0.710103
C52	C	0.986420	0.073016	-0.605085
C53	C	1.022363	0.130239	-0.552580
C54	C	1.058324	0.187447	-0.605094
C55	C	0.950468	0.015802	-0.552563
C56	C	0.950450	0.015814	-0.447538
C57	C	0.986387	0.073042	-0.395032
C58	C	1.022349	0.130253	-0.447552
C59	C	1.058292	0.187476	-0.395048
C60	C	1.094248	0.244693	-0.447566
C61	C	1.094262	0.244676	-0.552588
C62	C	0.986374	0.073059	-0.290010
C63	C	1.058278	0.187490	-0.290020
N64	N	1.022395	0.130210	0.237373
H65	H	0.607066	0.131989	-0.256032
H66	H	0.964916	-0.135389	-0.000043
H67	H	0.747212	0.134784	-0.165060
H68	H	0.437627	0.128509	0.255894
H69	H	0.713281	-0.385604	-0.000044
O70	O	0.876619	-0.165025	-0.000183
C71	C	0.879865	-0.030146	-0.086648
C72	C	0.913351	-0.138188	-0.086615
H73	H	0.909532	-0.008413	-0.156530
H74	H	0.909643	-0.008369	-0.016870
H75	H	0.795560	0.006341	-0.086595
H76	H	0.997649	-0.174750	-0.086703
H77	H	0.883500	-0.159895	-0.156386
O78	O	1.093117	0.243150	-0.761086
C79	C	1.076479	0.401687	-0.793200
C80	C	1.036977	0.338702	-0.735440
H81	H	1.031121	0.478952	-0.772471
H82	H	1.070281	0.391938	-0.877294
H83	H	1.157338	0.380787	-0.772543
H84	H	0.956109	0.359563	-0.756013
H85	H	1.043251	0.348459	-0.651360
O86	O	0.915552	-0.039696	-0.603713
C87	C	0.883676	-0.090415	-0.765496
C88	C	0.923230	-0.027499	-0.707692
H89	H	0.889889	-0.080590	-0.849573
H90	H	0.802825	-0.069605	-0.744883
H91	H	0.929099	-0.167687	-0.744815
H92	H	0.877881	0.049791	-0.728342
H93	H	1.004092	-0.048389	-0.728310
H94	H	1.276129	-0.175703	-0.000060
O95	O	0.951377	0.017460	-0.239150
C96	C	0.880129	-0.096096	-0.250220
C97	C	0.919718	-0.033157	-0.307942
H98	H	0.854542	-0.137051	-0.305813
H99	H	0.815159	-0.049918	-0.201104
H100	H	0.941454	-0.147965	-0.200997
H101	H	0.858462	0.018722	-0.357219
H102	H	0.984713	-0.079394	-0.356995
H103	H	0.297449	0.125782	-0.165073
H104	H	0.753330	-0.249390	-0.000040
H105	H	0.437574	0.128603	-0.256019
H106	H	0.768586	-0.563792	-0.000076
H107	H	1.079784	-0.604121	-0.000079
H108	H	0.297480	0.125721	0.164935
H109	H	1.163408	-0.559050	-0.000067
O110	O	1.307197	-0.499710	-0.000032
C111	C	1.430172	-0.660866	-0.000101
C112	C	1.319070	-0.594579	-0.000127
H113	H	1.439807	-0.737581	-0.000199
H114	H	1.466517	-0.647119	0.069743
H115	H	1.466446	-0.646962	-0.069908
H116	H	1.282711	-0.608443	0.069633
H117	H	1.282799	-0.608339	-0.070017
H118	H	1.331416	-0.353899	-0.000078
O119	O	0.915340	-0.039648	-0.396579
C120	C	0.775744	-0.076730	-0.364541
C121	C	0.815380	-0.013844	-0.422293
H122	H	0.694927	-0.055904	-0.385325
H123	H	0.781813	-0.066887	-0.280446
H124	H	0.821180	-0.154011	-0.385151
H125	H	0.769973	0.063460	-0.401767
H126	H	0.809329	-0.023769	-0.506374
O127	O	0.754435	0.134913	0.179347
C128	C	0.744612	0.134631	0.359772
C129	C	0.693279	0.133589	0.259682
H130	H	0.695199	0.133541	0.424748
H131	H	0.758515	0.201368	0.364392
H132	H	0.818169	0.069682	0.364268
H133	H	0.619694	0.198494	0.255119
H134	H	0.679451	0.066810	0.255104
O135	O	1.093269	0.243104	-0.239176
C136	C	1.164524	0.356653	-0.250279
C137	C	1.124948	0.293701	-0.307983
H138	H	1.190128	0.397592	-0.305885
H139	H	1.229482	0.310487	-0.201119
H140	H	1.103188	0.408538	-0.201103
H141	H	1.186215	0.241807	-0.357215
H142	H	1.059966	0.339925	-0.357080
H143	H	1.123518	0.291280	-0.404804
H144	H	1.123537	0.291257	-0.595358
O145	O	0.614425	0.131926	0.270268
C146	C	0.679983	0.050946	0.425716
C147	C	0.628608	0.049960	0.325636
H148	H	0.691485	-0.015326	0.470500
H149	H	0.631821	0.116369	0.470635
H150	H	0.754747	0.052499	0.410066
H151	H	0.553848	0.048374	0.341195
H152	H	0.676842	-0.015456	0.280747
H153	H	0.957182	0.026407	-0.752859
