data_functionalizedCrystal
_audit_creation_method	'MofGen! by Chris Wilmer'
_symmetry_space_group_name_H-M	'P1'
_symmetry_Int_Tables_number	1
_symmetry_cell_setting	triclinic
loop_
_symmetry_equiv_pos_as_xyz
  x,y,z
_cell_length_a	10.540539
_cell_length_b	14.519731
_cell_length_c	12.996460
_cell_angle_alpha	89.994327
_cell_angle_beta	89.996006
_cell_angle_gamma	84.107172
loop_
_atom_site_label
_atom_site_type_symbol
_atom_site_fract_x
_atom_site_fract_y
_atom_site_fract_z
O1	O	0.166529	1.224754	-0.085564
O2	O	0.499862	1.558087	0.247769
O3	O	0.833195	1.891421	0.581103
O4	O	0.186096	0.956385	-0.085565
O5	O	0.519429	1.289718	0.247768
O6	O	0.852763	1.623052	0.581102
O7	O	-0.008456	1.096692	-0.085563
O8	O	0.324877	1.430026	0.247770
O9	O	0.658211	1.763359	0.581103
O10	O	0.361081	1.084447	-0.085566
O11	O	0.694414	1.417780	0.247767
O12	O	1.027747	1.751113	0.581101
O13	O	-0.008467	1.096677	0.085571
O14	O	0.324867	1.430011	0.418904
O15	O	0.658200	1.763344	0.752237
O16	O	0.186085	0.956370	0.085569
O17	O	0.519419	1.289704	0.418902
O18	O	0.852752	1.623037	0.752235
O19	O	0.166518	1.224739	0.085570
O20	O	0.499851	1.558072	0.418903
O21	O	0.833185	1.891406	0.752236
Cu22	Cu	0.176301	1.090553	0.101195
Cu23	Cu	0.509634	1.423887	0.434528
Cu24	Cu	0.842967	1.757220	0.767862
Cu25	Cu	0.176313	1.090571	-0.101190
Cu26	Cu	0.509647	1.423904	0.232143
Cu27	Cu	0.842980	1.757238	0.565476
O28	O	0.361070	1.084432	0.085568
O29	O	0.694403	1.417765	0.418901
O30	O	1.027737	1.751099	0.752235
C31	C	0.185174	0.922013	0.000002
C32	C	0.518507	1.255347	0.333335
C33	C	0.851840	1.588680	0.666668
C34	C	0.182426	0.819618	0.000001
C35	C	0.515760	1.152952	0.333334
C36	C	0.849093	1.486285	0.666668
C37	C	0.180194	0.736462	-0.000003
C38	C	0.513527	1.069795	0.333330
C39	C	0.846861	1.403129	0.666664
C40	C	0.177405	0.632138	-0.000003
C41	C	0.510738	0.965472	0.333330
C42	C	0.844071	1.298805	0.666663
C43	C	0.175191	0.548987	-0.000003
C44	C	0.508524	0.882321	0.333330
C45	C	0.841857	1.215654	0.666663
C46	C	0.172402	0.444657	-0.000006
C47	C	0.505735	0.777990	0.333328
C48	C	0.839068	1.111324	0.666661
C49	C	-0.055755	1.095766	0.000002
C50	C	0.277578	1.429100	0.333335
C51	C	0.610912	1.762433	0.666668
C52	C	-0.196675	1.093019	-0.000004
C53	C	0.136658	1.426352	0.333330
C54	C	0.469991	1.759686	0.666663
C55	C	-0.379038	0.987741	-0.000388
C56	C	-0.045705	1.321074	0.332945
C57	C	0.287628	1.654407	0.666278
C58	C	-0.232449	0.990526	-0.000003
C59	C	0.100885	1.323859	0.333330
C60	C	0.434218	1.657192	0.666664
C61	C	-0.258837	1.142335	0.097722
C62	C	0.074496	1.475668	0.431056
C63	C	0.407829	1.809002	0.764389
C64	C	-0.405347	1.138837	0.097805
C65	C	-0.072013	1.472170	0.431138
C66	C	0.261320	1.805504	0.764471
C67	C	-0.405874	1.140938	-0.096807
C68	C	-0.072540	1.474272	0.236527
C69	C	0.260793	1.807605	0.569860
C70	C	-0.258901	1.141882	-0.098099
C71	C	0.074432	1.475216	0.235235
C72	C	0.407765	1.808549	0.568568
C73	C	0.408369	1.085358	0.000001
C74	C	0.741702	1.418691	0.333334
C75	C	1.075036	1.752024	0.666667
C76	C	0.549289	1.088105	-0.000001
C77	C	0.882623	1.421439	0.333333
C78	C	1.215956	1.754772	0.666666
C79	C	0.167440	1.259111	0.000001
C80	C	0.500774	1.592444	0.333334
C81	C	0.834107	1.925778	0.666667
C82	C	0.170188	1.361506	-0.000005
C83	C	0.503521	1.694839	0.333328
C84	C	0.836854	2.028173	0.666661
N85	N	0.176291	1.090548	0.243542
N86	N	0.509624	1.423881	0.576876
N87	N	0.842958	1.757214	0.910209
N88	N	0.176313	1.090584	-0.243538
N89	N	0.509646	1.423917	0.089796
N90	N	0.842980	1.757250	0.423129
C91	C	0.176315	1.090570	0.663356
C92	C	0.509648	1.423903	0.996690
C93	C	0.842981	1.757236	1.330023
C94	C	0.176312	1.090561	0.546551
C95	C	0.509646	1.423894	0.879885
C96	C	0.842979	1.757227	1.213218
C97	C	0.176304	1.090559	0.453453
C98	C	0.509637	1.423892	0.786786
C99	C	0.842970	1.757226	1.120120
C100	C	0.176299	1.090549	0.336640
C101	C	0.509633	1.423883	0.669974
C102	C	0.842966	1.757216	1.003307
H103	H	-0.189449	0.951721	-0.070057
H104	H	0.143885	1.285054	0.263276
H105	H	0.477218	1.618387	0.596610
Br106	Br	-0.457878	1.085652	-0.220263
Br107	Br	-0.124545	1.418985	0.113070
Br108	Br	0.208789	1.752319	0.446403
H109	H	-0.237244	1.217603	0.101356
H110	H	0.096089	1.550936	0.434689
H111	H	0.429423	1.884270	0.768023
Br112	Br	-0.451749	1.078066	0.219560
Br113	Br	-0.118415	1.411400	0.552893
Br114	Br	0.214918	1.744733	0.886226
H115	H	-0.217674	1.105798	-0.170394
H116	H	0.115660	1.439132	0.162940
H117	H	0.448993	1.772465	0.496273
H118	H	-0.235434	1.216608	-0.104000
H119	H	0.097899	1.549942	0.229334
H120	H	0.431232	1.883275	0.562667
H121	H	-0.407225	0.947259	-0.070469
H122	H	-0.073892	1.280593	0.262864
H123	H	0.259442	1.613926	0.596197
H124	H	-0.454060	1.212548	0.102238
H125	H	-0.120727	1.545882	0.435572
H126	H	0.212606	1.879215	0.768905
H127	H	-0.215896	1.108065	0.170446
H128	H	0.117437	1.441399	0.503780
H129	H	0.450770	1.774732	0.837113
H130	H	-0.408843	0.947412	0.069300
H131	H	-0.075510	1.280745	0.402633
H132	H	0.257824	1.614079	0.735966
Br133	Br	-0.162188	0.925368	0.116948
Br134	Br	0.171145	1.258702	0.450282
Br135	Br	0.504478	1.592035	0.783615
Br136	Br	-0.485832	1.264326	-0.097904
Br137	Br	-0.152498	1.597660	0.235429
Br138	Br	0.180835	1.930993	0.568762
