data_functionalizedCrystal
_audit_creation_method	'MofGen! by Chris Wilmer'
_symmetry_space_group_name_H-M	'P1'
_symmetry_Int_Tables_number	1
_symmetry_cell_setting	triclinic
loop_
_symmetry_equiv_pos_as_xyz
  x,y,z
_cell_length_a	25.639242
_cell_length_b	25.639239
_cell_length_c	25.639233
_cell_angle_alpha	90.018747
_cell_angle_beta	90.022166
_cell_angle_gamma	90.034213
loop_
_atom_site_label
_atom_site_type_symbol
_atom_site_fract_x
_atom_site_fract_y
_atom_site_fract_z
Zn1	Zn	0.799225	-0.208277	0.295742
Zn2	Zn	0.799149	-0.295696	0.208307
Zn3	Zn	0.711801	-0.208269	0.208306
Zn4	Zn	0.711746	-0.295676	0.295696
O5	O	0.755480	-0.251979	0.252013
O6	O	0.872380	-0.219884	0.284163
O7	O	0.787553	-0.284103	0.135141
O8	O	0.723453	-0.135105	0.219924
O9	O	0.872324	-0.284111	0.219924
O10	O	0.787683	-0.135111	0.284163
O11	O	0.723379	-0.219871	0.135141
O12	O	0.638629	-0.219853	0.219880
O13	O	0.723360	-0.284078	0.368868
O14	O	0.638589	-0.284070	0.284085
O15	O	0.787630	-0.219866	0.368901
O16	O	0.787499	-0.368858	0.219880
O17	O	0.723286	-0.368844	0.284085
C18	C	0.755392	-0.387822	0.251989
C19	C	0.755403	-0.445936	0.251996
C20	C	0.619638	-0.251959	0.251977
C21	C	0.561524	-0.251963	0.251975
C22	C	0.789004	-0.806294	0.218638
C23	C	0.789024	-0.860898	0.218645
O24	O	0.817502	-0.889131	0.190257
N25	N	0.755572	-0.888218	0.252048
C26	C	0.722102	-0.860932	0.285449
O27	O	0.693651	-0.889184	0.313861
C28	C	0.722085	-0.806328	0.285444
C29	C	0.755535	-0.779011	0.252036
C30	C	0.822452	-0.778976	0.185233
C31	C	0.822431	-0.724376	0.185226
C32	C	0.788962	-0.697093	0.218623
C33	C	0.755514	-0.724410	0.252028
C34	C	0.688617	-0.779042	0.318847
C35	C	0.688603	-0.724435	0.318840
C36	C	0.722053	-0.697118	0.285432
C37	C	0.722024	-0.642527	0.285418
N38	N	0.755475	-0.615206	0.252016
C39	C	0.788944	-0.642490	0.218618
C40	C	0.722141	-0.975602	0.285457
C41	C	0.722155	-1.030204	0.285459
C42	C	0.789078	-1.030167	0.218656
C43	C	0.789061	-0.975564	0.218652
C44	C	0.755593	-0.948282	0.252055
C45	C	0.788897	-0.527824	0.218605
C46	C	0.788872	-0.473219	0.218599
C47	C	0.721951	-0.473261	0.285403
C48	C	0.721974	-0.527862	0.285408
C49	C	0.755452	-0.555142	0.252007
O50	O	0.693562	-0.614260	0.313793
O51	O	0.817396	-0.614231	0.190216
C52	C	0.201149	-0.285473	0.285413
C53	C	0.146544	-0.285477	0.285421
O54	O	0.118297	-0.313943	0.313821
N55	N	0.119241	-0.251994	0.252047
C56	C	0.146545	-0.218502	0.218666
O57	O	0.118308	-0.190022	0.190280
C58	C	0.201149	-0.218496	0.218661
C59	C	0.228449	-0.251985	0.252034
C60	C	0.228449	-0.318959	0.318783
C61	C	0.283049	-0.318956	0.318774
C62	C	0.310350	-0.285468	0.285395
C63	C	0.283049	-0.251983	0.252024
C64	C	0.228452	-0.185002	0.185283
C65	C	0.283059	-0.185000	0.185281
C66	C	0.310359	-0.218488	0.218654
C67	C	0.364950	-0.218492	0.218636
N68	N	0.392253	-0.251974	0.252010
C69	C	0.364953	-0.285463	0.285389
C70	C	0.031875	-0.218515	0.218680
C71	C	-0.022728	-0.218523	0.218683
C72	C	-0.022725	-0.285497	0.285438
C73	C	0.031878	-0.285492	0.285433
C74	C	0.059178	-0.251998	0.252054
C75	C	0.479618	-0.285455	0.285368
C76	C	0.534223	-0.285451	0.285354
C77	C	0.534216	-0.218475	0.218601
C78	C	0.479615	-0.218481	0.218612
C79	C	0.452318	-0.251972	0.252000
O80	O	0.393232	-0.190038	0.190252
O81	O	0.393197	-0.313933	0.313776
C82	C	0.891853	-0.252000	0.252049
C83	C	0.949967	-0.252009	0.252064
C84	C	0.755497	-0.251970	0.388386
C85	C	0.755504	-0.251966	0.446500
C86	C	0.755583	-0.115606	0.252048
C87	C	0.755627	-0.057492	0.252064
C88	C	0.755494	-0.251951	0.116170
C89	C	0.755588	-0.251807	0.058057
C90	C	0.789012	-0.218432	0.806886
C91	C	0.789019	-0.218417	0.861491
O92	O	0.817466	-0.189967	0.889747
N93	N	0.755562	-0.251844	0.888783
C94	C	0.722093	-0.285283	0.861468
O95	O	0.693636	-0.313713	0.889695
C96	C	0.722084	-0.285294	0.806864
C97	C	0.755547	-0.251870	0.779575
C98	C	0.822472	-0.185009	0.779597
C99	C	0.822466	-0.185025	0.724997
C100	C	0.789000	-0.218462	0.697685
C101	C	0.755541	-0.251885	0.724974
C102	C	0.688613	-0.318731	0.779550
C103	C	0.688607	-0.318739	0.724943
C104	C	0.722069	-0.285314	0.697654
C105	C	0.722070	-0.285338	0.643063
N106	N	0.755526	-0.251912	0.615771
C107	C	0.788992	-0.218474	0.643082
C108	C	0.722113	-0.285256	0.976138
C109	C	0.722124	-0.285247	1.030741
C110	C	0.789049	-0.218381	1.030760
C111	C	0.789041	-0.218392	0.976157
C112	C	0.755570	-0.251829	0.948846
C113	C	0.788977	-0.218509	0.528417
C114	C	0.788970	-0.218529	0.473811
C115	C	0.722043	-0.285393	0.473797
C116	C	0.722052	-0.285375	0.528397
C117	C	0.755521	-0.251929	0.555706
O118	O	0.693635	-0.313773	0.614771
O119	O	0.817439	-0.190044	0.614847
H120	H	0.816111	-0.450979	0.191392
C121	C	0.061579	-0.182239	0.182401
C122	C	0.092904	-0.211790	0.148840
C123	C	0.120276	-0.178391	0.115418
H124	H	0.037555	-0.162290	0.162477
H125	H	0.082932	-0.159491	0.202422
H126	H	0.071552	-0.234530	0.128821
H127	H	0.116937	-0.231739	0.168749
H128	H	0.141629	-0.155643	0.135438
H129	H	0.096248	-0.158444	0.095497
H130	H	0.141537	-0.198436	0.092646
C131	C	0.563769	-0.321830	0.321648
C132	C	0.528169	-0.351146	0.350892
C133	C	0.555364	-0.384657	0.384335
H134	H	0.585048	-0.344628	0.301663
H135	H	0.585081	-0.301874	0.344490
H136	H	0.506865	-0.371100	0.328052
H137	H	0.506888	-0.328362	0.370887
H138	H	0.576677	-0.364701	0.407178
H139	H	0.576643	-0.407451	0.364346
H140	H	0.531214	-0.404548	0.404185
C141	C	0.652239	-0.808721	0.355037
C142	C	0.618742	-0.840107	0.325413
C143	C	0.585219	-0.867448	0.358737
H144	H	0.672174	-0.830033	0.377852
H145	H	0.632279	-0.784662	0.374918
H146	H	0.638701	-0.864162	0.305541
H147	H	0.598796	-0.818808	0.302600
H148	H	0.565259	-0.843390	0.378617
H149	H	0.605159	-0.888757	0.381550
H150	H	0.562485	-0.888743	0.338641
C151	C	-0.052270	-0.182110	0.182425
C152	C	-0.016667	-0.152776	0.153202
C153	C	-0.043860	-0.119219	0.119803
H154	H	-0.073596	-0.202018	0.159563
H155	H	-0.073535	-0.159330	0.202457
H156	H	0.004589	-0.175554	0.133172
H157	H	0.004660	-0.132858	0.176050
H158	H	-0.065126	-0.096439	0.139835
H159	H	-0.065185	-0.139131	0.096945
H160	H	-0.019708	-0.099309	0.099975
H161	H	0.457387	-0.191213	0.191436
C162	C	0.312724	-0.148570	0.149125
C163	C	0.344096	-0.115091	0.178783
C164	C	0.371423	-0.081522	0.145493
H165	H	0.334043	-0.168473	0.126291
H166	H	0.288656	-0.128599	0.129262
H167	H	0.368160	-0.135060	0.198636
H168	H	0.322789	-0.095177	0.201615
H169	H	0.347356	-0.061551	0.125630
H170	H	0.392740	-0.101429	0.122661
H171	H	0.392709	-0.058799	0.165611
H172	H	0.816298	-0.191153	1.053007
H173	H	0.849709	-0.801185	0.158037
H174	H	0.661350	-0.702225	0.346042
H175	H	0.206233	-0.157734	0.158106
H176	H	0.694699	-0.451039	0.312594
H177	H	0.457399	-0.312726	0.312556
H178	H	0.556454	-0.191211	0.191422
C179	C	0.825321	-0.182178	0.444278
C180	C	0.854618	-0.152882	0.479888
C181	C	0.888103	-0.119386	0.452703
H182	H	0.848132	-0.202128	0.422981
H183	H	0.805347	-0.159371	0.422985
H184	H	0.874590	-0.175686	0.501172
H185	H	0.831820	-0.132921	0.501187
H186	H	0.868129	-0.096579	0.431410
H187	H	0.910910	-0.139340	0.431407
H188	H	0.907981	-0.099501	0.476860
H189	H	0.694883	-0.953392	0.312656
H190	H	0.694881	-0.312471	1.052955
C191	C	0.825230	-0.182133	0.558088
C192	C	0.795661	-0.148594	0.589420
C193	C	0.829040	-0.115076	0.616754
H194	H	0.848010	-0.202069	0.579436
H195	H	0.845145	-0.162203	0.534025
H196	H	0.775754	-0.168522	0.613480
H197	H	0.772881	-0.128646	0.568085
H198	H	0.848955	-0.095146	0.592692
H199	H	0.851819	-0.135016	0.638099
H200	H	0.808982	-0.092313	0.638013
C201	C	0.198909	-0.355381	0.355045
C202	C	0.234515	-0.384709	0.384254
C203	C	0.207326	-0.418276	0.417658
H204	H	0.177625	-0.335481	0.377915
H205	H	0.177600	-0.378164	0.335017
H206	H	0.255814	-0.361928	0.404281
H207	H	0.255799	-0.404619	0.361398
H208	H	0.186018	-0.441060	0.397630
H209	H	0.186044	-0.398373	0.440524
H210	H	0.231480	-0.438183	0.437477
C211	C	0.858812	-0.148672	0.695467
C212	C	0.888106	-0.119378	0.731082
C213	C	0.921589	-0.085876	0.703902
H214	H	0.881626	-0.168616	0.674167
H215	H	0.838837	-0.125863	0.674177
H216	H	0.908080	-0.142184	0.752363
H217	H	0.865307	-0.099423	0.752383
H218	H	0.901614	-0.063067	0.682612
H219	H	0.944399	-0.105825	0.682603
H220	H	0.941465	-0.065993	0.728062
C221	C	0.312750	-0.355225	0.355046
C222	C	0.344136	-0.325667	0.388601
C223	C	0.371504	-0.359060	0.422022
H224	H	0.288723	-0.375177	0.374975
H225	H	0.334061	-0.377972	0.335024
H226	H	0.322827	-0.302930	0.408621
H227	H	0.368173	-0.305717	0.368686
H228	H	0.392815	-0.381807	0.401999
H229	H	0.347473	-0.379010	0.441947
H230	H	0.392806	-0.339011	0.444789
C231	C	0.061583	-0.321762	0.321700
C232	C	0.092969	-0.292206	0.355257
C233	C	0.120342	-0.325602	0.388671
H234	H	0.037559	-0.341719	0.341628
H235	H	0.082894	-0.344505	0.301674
H236	H	0.071660	-0.269473	0.375282
H237	H	0.117003	-0.272251	0.335343
H238	H	0.141654	-0.348344	0.368645
H239	H	0.096314	-0.345556	0.408595
H240	H	0.141644	-0.305553	0.411440
C241	C	0.858723	-0.148636	0.809269
C242	C	0.829156	-0.115097	0.840604
C243	C	0.862537	-0.081577	0.867934
H244	H	0.881506	-0.168571	0.830615
H245	H	0.878635	-0.128705	0.785204
H246	H	0.809253	-0.135026	0.864666
H247	H	0.806374	-0.095150	0.819271
H248	H	0.882449	-0.061647	0.843869
H249	H	0.885319	-0.101517	0.889277
H250	H	0.842480	-0.058814	0.889194
C251	C	0.685759	-0.321628	0.946583
C252	C	0.656476	-0.350906	0.982177
C253	C	0.622988	-0.384422	0.954974
H254	H	0.662940	-0.301693	0.925276
H255	H	0.705730	-0.344445	0.925299
H256	H	0.636507	-0.328092	1.003453
H257	H	0.679282	-0.370851	1.003486
H258	H	0.642958	-0.407240	0.933689
H259	H	0.600172	-0.364484	0.933667
H260	H	0.603118	-0.404295	0.979119
C261	C	0.825358	-1.059790	0.182330
C262	C	0.814021	-1.046583	0.130572
C263	C	0.847424	-1.073878	0.097105
H264	H	0.860499	-1.050836	0.189957
H265	H	0.820559	-1.096222	0.187106
H266	H	0.818825	-1.010159	0.125798
H267	H	0.778887	-1.055539	0.122929
H268	H	0.842625	-1.110310	0.101880
H269	H	0.882563	-1.064921	0.104736
H270	H	0.839734	-1.064925	0.061982
C271	C	-0.052466	-0.321796	0.321664
C272	C	-0.106127	-0.314618	0.314534
C273	C	-0.133542	-0.348040	0.347898
H274	H	-0.043607	-0.356937	0.313985
H275	H	-0.043527	-0.314188	0.356818
H276	H	-0.115063	-0.322230	0.279388
H277	H	-0.115002	-0.279484	0.322217
H278	H	-0.124603	-0.340433	0.383052
H279	H	-0.124679	-0.383179	0.340216
H280	H	-0.169954	-0.343171	0.343068
C281	C	0.685813	-1.059766	0.321784
C282	C	0.656510	-1.024178	0.351037
C283	C	0.623032	-1.051388	0.384513
H284	H	0.663006	-1.081100	0.301823
H285	H	0.705793	-1.081024	0.344620
H286	H	0.636532	-1.002928	0.328204
H287	H	0.679303	-1.002843	0.371009
H288	H	0.643012	-1.072647	0.407349
H289	H	0.600229	-1.072722	0.364548
H290	H	0.603149	-1.027247	0.404369
C291	C	0.858696	-0.694627	0.148977
C292	C	0.851515	-0.640966	0.156103
C293	C	0.884911	-0.613550	0.122715
H294	H	0.893843	-0.703481	0.156637
H295	H	0.851067	-0.703571	0.113829
H296	H	0.859147	-0.632026	0.191243
H297	H	0.816375	-0.632097	0.148439
H298	H	0.877282	-0.622494	0.087567
H299	H	0.920056	-0.622408	0.130378
H300	H	0.880040	-0.577138	0.127542
C301	C	0.685636	-0.557430	0.321735
C302	C	0.656329	-0.521846	0.350989
C303	C	0.622859	-0.549060	0.384468
H304	H	0.662831	-0.578768	0.301775
H305	H	0.705621	-0.578685	0.344569
H306	H	0.636346	-0.500600	0.328157
H307	H	0.679121	-0.500507	0.370959
H308	H	0.642844	-0.570316	0.407303
H309	H	0.600057	-0.570398	0.364505
H310	H	0.602974	-0.524921	0.404325
H311	H	0.816159	-0.550030	0.191408
H312	H	0.816300	-0.953325	0.191448
H313	H	0.816288	-0.191174	0.953941
C314	C	0.652220	-0.355038	0.809074
C315	C	0.622903	-0.384306	0.773459
C316	C	0.589364	-0.417754	0.800636
H317	H	0.672140	-0.377869	0.830382
H318	H	0.629428	-0.335039	0.830357
H319	H	0.645692	-0.404304	0.752184
H320	H	0.602973	-0.361489	0.752150
H321	H	0.566572	-0.397754	0.821919
H322	H	0.609288	-0.440581	0.821943
H323	H	0.569465	-0.437613	0.776475
C324	C	0.652355	-0.355076	0.695222
C325	C	0.681931	-0.388591	0.663872
C326	C	0.648556	-0.422067	0.636480
H327	H	0.632416	-0.375030	0.719235
H328	H	0.629595	-0.335092	0.673885
H329	H	0.704681	-0.408573	0.685207
H330	H	0.701868	-0.368651	0.639849
H331	H	0.625797	-0.402083	0.615143
H332	H	0.628619	-0.442018	0.660497
H333	H	0.668618	-0.444808	0.615202
H334	H	0.694809	-0.312597	0.550617
H335	H	0.694798	-0.312619	0.451550
