data_functionalizedCrystal
_audit_creation_method	'MofGen! by Chris Wilmer'
_symmetry_space_group_name_H-M	'P1'
_symmetry_Int_Tables_number	1
_symmetry_cell_setting	triclinic
loop_
_symmetry_equiv_pos_as_xyz
  x,y,z
_cell_length_a	19.077105
_cell_length_b	13.032721
_cell_length_c	19.076919
_cell_angle_alpha	80.861841
_cell_angle_beta	89.923776
_cell_angle_gamma	95.201395
loop_
_atom_site_label
_atom_site_type_symbol
_atom_site_fract_x
_atom_site_fract_y
_atom_site_fract_z
Zn1	Zn	1.013397	-0.505360	0.481832
Zn2	Zn	1.003124	-0.673317	0.378090
Zn3	Zn	0.901858	-0.491366	0.358479
Zn4	Zn	0.881001	-0.672687	0.490791
O5	O	0.949845	-0.585683	0.427298
O6	O	1.109823	-0.533760	0.472529
O7	O	0.994119	-0.643588	0.276699
O8	O	0.929682	-0.347048	0.362886
O9	O	1.102275	-0.657157	0.396309
O10	O	1.011630	-0.357329	0.453513
O11	O	0.919720	-0.509909	0.262291
O12	O	0.801303	-0.509299	0.371572
O13	O	0.894135	-0.656084	0.588392
O14	O	0.785980	-0.642515	0.468781
O15	O	0.991406	-0.533149	0.581810
O16	O	0.973896	-0.819408	0.404996
O17	O	0.884173	-0.818945	0.487797
C18	C	0.768286	-0.574321	0.419021
C19	C	0.690611	-0.569486	0.415499
C20	C	0.646154	-0.636670	0.464393
C21	C	0.573171	-0.632114	0.461086
C22	C	0.544646	-0.560378	0.408881
C23	C	0.589109	-0.493187	0.359985
C24	C	0.662091	-0.497739	0.363296
C25	C	0.327230	-0.539312	0.393562
C26	C	0.254242	-0.534767	0.390254
C27	C	0.238309	-0.673693	0.491357
C28	C	0.311292	-0.678243	0.494660
C29	C	0.355749	-0.611048	0.445766
N30	N	0.470046	-0.555721	0.405499
N31	N	0.430348	-0.615700	0.449153
C32	C	0.925675	-0.857080	0.449513
C33	C	0.915397	-0.973191	0.459043
C34	C	0.955245	-1.025155	0.422357
C35	C	0.944623	-1.145161	0.432206
C36	C	1.132113	-0.597090	0.435607
C37	C	1.209785	-0.601951	0.439148
C38	C	0.941590	-0.596107	0.611432
C39	C	0.938072	-0.600549	0.689899
C40	C	0.974128	-0.313227	0.405012
C41	C	0.984476	-0.197123	0.395516
C42	C	0.958115	-0.575226	0.243875
C43	C	0.961794	-0.570498	0.165391
C44	C	0.987061	-0.538633	0.723338
C45	C	0.983747	-0.542803	0.797065
C46	C	0.931448	-0.608894	0.837354
C47	C	0.882454	-0.670812	0.803910
C48	C	0.885765	-0.666637	0.730183
C49	C	0.916112	-0.628240	1.058220
C50	C	0.912806	-0.632414	1.131952
C51	C	1.014098	-0.504402	1.125102
C52	C	1.017407	-0.500237	1.051375
C53	C	0.968412	-0.562151	1.017937
N54	N	0.928061	-0.613160	0.912715
N55	N	0.971796	-0.557879	0.942576
H56	H	0.536976	-0.686823	0.500901
O57	O	1.005417	-0.972308	0.376269
C58	C	1.128801	-0.944130	0.344736
C59	C	1.072055	-1.004027	0.396996
H60	H	1.182689	-0.969768	0.361466
H61	H	1.128507	-0.856762	0.345021
H62	H	1.117204	-0.961569	0.288994
H63	H	1.083612	-0.986674	0.452762
H64	H	1.072362	-1.091377	0.396649
O65	O	0.226467	-0.465002	0.339639
C66	C	0.157101	-0.318214	0.315052
C67	C	0.188495	-0.397181	0.372437
H68	H	0.126406	-0.263347	0.341547
H69	H	0.120275	-0.361769	0.280441
H70	H	0.201431	-0.271019	0.280676
H71	H	0.144212	-0.444398	0.406862
H72	H	0.225339	-0.353564	0.406997
H73	H	1.023640	-0.492387	0.824288
H74	H	0.845867	-0.717044	0.702958
H75	H	1.053987	-0.453994	1.152335
O76	O	0.338885	-0.747957	0.545437
C77	C	0.315374	-0.885318	0.645339
C78	C	0.284034	-0.806395	0.587884
H79	H	0.271041	-0.932602	0.679662
H80	H	0.352131	-0.841725	0.679988
H81	H	0.346157	-0.940108	0.618863
H82	H	0.253217	-0.751585	0.614299
H83	H	0.247315	-0.850056	0.553239
H84	H	0.870215	-0.686236	1.164753
O85	O	0.865328	-1.026255	0.505161
C86	C	0.809141	-1.194251	0.557082
C87	C	0.865859	-1.134289	0.504816
H88	H	0.809561	-1.281608	0.556831
H89	H	0.755210	-1.168796	0.540339
H90	H	0.820697	-1.176735	0.612813
H91	H	0.854370	-1.151776	0.449069
H92	H	0.919772	-1.159752	0.521619
H93	H	0.202105	-0.728397	0.531164
H94	H	0.876225	-0.678671	1.031006
H95	H	0.839869	-0.724621	0.836718
O96	O	0.370369	-0.474145	0.345972
C97	C	0.402555	-0.417698	0.222779
C98	C	0.353663	-0.491580	0.276601
H99	H	0.389056	-0.431753	0.166680
H100	H	0.459630	-0.433257	0.234046
H101	H	0.395141	-0.333323	0.227768
H102	H	0.361014	-0.575981	0.271643
H103	H	0.296606	-0.475930	0.265318
O104	O	0.673745	-0.706385	0.515171
C105	C	0.650228	-0.843734	0.615078
C106	C	0.618892	-0.764817	0.557617
H107	H	0.605893	-0.891012	0.649402
H108	H	0.686983	-0.800136	0.649727
H109	H	0.681012	-0.898529	0.588609
H110	H	0.588073	-0.710001	0.584026
H111	H	0.582175	-0.808483	0.522974
O112	O	0.561478	-0.423552	0.309184
C113	C	0.549004	-0.364418	0.183969
C114	C	0.580351	-0.443325	0.241430
H115	H	0.564238	-0.380390	0.129177
H116	H	0.570309	-0.281799	0.190160
H117	H	0.489209	-0.372694	0.190037
H118	H	0.640145	-0.435145	0.235398
H119	H	0.558991	-0.525912	0.235222
H120	H	1.026460	-1.152773	0.356816
O121	O	0.705381	-0.432523	0.315872
C122	C	0.824874	-0.378006	0.276140
C123	C	0.775931	-0.451912	0.329900
H124	H	0.881923	-0.393671	0.287453
H125	H	0.817518	-0.293598	0.281090
H126	H	0.811405	-0.392084	0.220040
H127	H	0.789370	-0.437928	0.386024
H128	H	0.783296	-0.536294	0.324888
O129	O	0.894552	-1.198222	0.478328
C130	C	0.838364	-1.366218	0.530248
C131	C	0.895082	-1.306255	0.477982
H132	H	0.838784	-1.453574	0.529997
H133	H	0.784433	-1.340763	0.513506
H134	H	0.849920	-1.348701	0.585979
H135	H	0.883593	-1.323743	0.422235
H136	H	0.948995	-1.331718	0.494785
O137	O	1.037892	-0.474341	0.684307
C138	C	1.138032	-0.347853	0.685308
C139	C	1.080493	-0.420605	0.729590
H140	H	1.172500	-0.304404	0.721902
H141	H	1.112407	-0.289204	0.644874
H142	H	1.171818	-0.396155	0.656362
H143	H	1.046689	-0.372388	0.758581
H144	H	1.106164	-0.479257	0.769982
H145	H	1.059997	-0.446421	1.018577
