data_functionalizedCrystal
_audit_creation_method	'MofGen! by Chris Wilmer'
_symmetry_space_group_name_H-M	'P1'
_symmetry_Int_Tables_number	1
_symmetry_cell_setting	triclinic
loop_
_symmetry_equiv_pos_as_xyz
  x,y,z
_cell_length_a	16.109301
_cell_length_b	14.853567
_cell_length_c	15.186229
_cell_angle_alpha	90.000050
_cell_angle_beta	89.999362
_cell_angle_gamma	83.548205
loop_
_atom_site_label
_atom_site_type_symbol
_atom_site_fract_x
_atom_site_fract_y
_atom_site_fract_z
O1	O	1.103293	0.115881	-0.073165
O2	O	1.353293	0.365881	0.176835
O3	O	1.603293	0.615881	0.426835
O4	O	1.853293	0.865881	0.676835
O5	O	0.861252	0.130302	-0.073178
O6	O	1.111252	0.380302	0.176822
O7	O	1.361252	0.630302	0.426822
O8	O	1.611252	0.880302	0.676822
O9	O	0.988738	-0.008149	-0.073174
O10	O	1.238738	0.241851	0.176826
O11	O	1.488738	0.491851	0.426826
O12	O	1.738738	0.741851	0.676826
O13	O	0.975807	0.254332	-0.073170
O14	O	1.225807	0.504332	0.176830
O15	O	1.475807	0.754332	0.426830
O16	O	1.725807	1.004332	0.676830
O17	O	0.988729	-0.008151	0.073283
O18	O	1.238729	0.241849	0.323283
O19	O	1.488729	0.491849	0.573283
O20	O	1.738729	0.741849	0.823283
O21	O	0.861243	0.130300	0.073279
O22	O	1.111243	0.380300	0.323279
O23	O	1.361243	0.630300	0.573279
O24	O	1.611243	0.880300	0.823279
O25	O	1.103285	0.115879	0.073292
O26	O	1.353285	0.365879	0.323292
O27	O	1.603285	0.615879	0.573292
O28	O	1.853285	0.865879	0.823292
Zn29	Zn	0.982263	0.123089	0.096539
Zn30	Zn	1.232263	0.373089	0.346539
Zn31	Zn	1.482263	0.623089	0.596539
Zn32	Zn	1.732263	0.873089	0.846539
Zn33	Zn	0.982274	0.123092	-0.096425
Zn34	Zn	1.232274	0.373092	0.153575
Zn35	Zn	1.482274	0.623092	0.403575
Zn36	Zn	1.732274	0.873092	0.653575
O37	O	0.975799	0.254330	0.073288
O38	O	1.225799	0.504330	0.323288
O39	O	1.475799	0.754330	0.573288
O40	O	1.725799	1.004330	0.823288
C41	C	0.830272	0.129717	0.000048
C42	C	1.080272	0.379717	0.250048
C43	C	1.330272	0.629717	0.500048
C44	C	1.580272	0.879717	0.750048
C45	C	0.737974	0.127965	0.000043
C46	C	0.987974	0.377965	0.250043
C47	C	1.237974	0.627965	0.500043
C48	C	1.487974	0.877965	0.750043
C49	C	0.988148	-0.041738	0.000052
C50	C	1.238148	0.208262	0.250052
C51	C	1.488148	0.458262	0.500052
C52	C	1.738148	0.708262	0.750052
C53	C	0.986392	-0.141819	0.000044
C54	C	1.236392	0.108181	0.250044
C55	C	1.486392	0.358181	0.500044
C56	C	1.736392	0.608181	0.750044
C57	C	0.515811	0.206047	0.000055
C58	C	0.765811	0.456047	0.250055
C59	C	1.015811	0.706047	0.500055
C60	C	1.265811	0.956047	0.750055
C61	C	0.429089	0.204395	0.000060
C62	C	0.679089	0.454395	0.250060
C63	C	0.929089	0.704395	0.500060
C64	C	1.179089	0.954395	0.750060
C65	C	0.448732	0.040127	0.000054
C66	C	0.698732	0.290127	0.250054
C67	C	0.948732	0.540127	0.500054
C68	C	1.198732	0.790127	0.750054
C69	C	0.535453	0.041781	0.000054
C70	C	0.785453	0.291781	0.250054
C71	C	1.035453	0.541781	0.500054
C72	C	1.285453	0.791781	0.750054
C73	C	0.568990	0.124743	0.000050
C74	C	0.818990	0.374743	0.250050
C75	C	1.068990	0.624743	0.500050
C76	C	1.318990	0.874743	0.750050
C77	C	0.395546	0.121437	0.000055
C78	C	0.645546	0.371437	0.250055
C79	C	0.895546	0.621437	0.500055
C80	C	1.145546	0.871437	0.750055
C81	C	0.301518	0.119645	0.000061
C82	C	0.551518	0.369645	0.250061
C83	C	0.801518	0.619645	0.500061
C84	C	1.051518	0.869645	0.750061
C85	C	0.663025	0.126536	0.000046
C86	C	0.913025	0.376536	0.250046
C87	C	1.163025	0.626536	0.500046
C88	C	1.413025	0.876536	0.750046
C89	C	0.903241	-0.554215	0.000056
C90	C	1.153241	-0.304215	0.250056
C91	C	1.403241	-0.054215	0.500056
C92	C	1.653241	0.195785	0.750056
C93	C	1.054697	-0.575746	0.000064
C94	C	1.304697	-0.325746	0.250064
C95	C	1.554697	-0.075746	0.500064
C96	C	1.804697	0.174254	0.750064
C97	C	1.056348	-0.481715	0.000059
C98	C	1.306348	-0.231715	0.250059
C99	C	1.556348	0.018285	0.500059
C100	C	1.806348	0.268285	0.750059
C101	C	0.981444	-0.423930	0.000054
C102	C	1.231444	-0.173930	0.250054
C103	C	1.481444	0.076070	0.500054
C104	C	1.731444	0.326070	0.750054
C105	C	0.904889	-0.460175	0.000054
C106	C	1.154889	-0.210175	0.250054
C107	C	1.404889	0.039825	0.500054
C108	C	1.654889	0.289825	0.750054
C109	C	1.132901	-0.445463	0.000068
C110	C	1.382901	-0.195463	0.250068
C111	C	1.632901	0.054537	0.500068
C112	C	1.882901	0.304537	0.750068
C113	C	1.134555	-0.351426	0.000064
C114	C	1.384555	-0.101426	0.250064
C115	C	1.634555	0.148574	0.500064
C116	C	1.884555	0.398574	0.750064
C117	C	1.059650	-0.293639	0.000053
C118	C	1.309650	-0.043639	0.250053
C119	C	1.559650	0.206361	0.500053
C120	C	1.809650	0.456361	0.750053
C121	C	0.983093	-0.329890	0.000052
C122	C	1.233093	-0.079890	0.250052
C123	C	1.483093	0.170110	0.500052
C124	C	1.733093	0.420110	0.750052
C125	C	0.908189	-0.272104	0.000046
C126	C	1.158189	-0.022104	0.250046
C127	C	1.408189	0.227896	0.500046
C128	C	1.658189	0.477896	0.750046
C129	C	0.831630	-0.308353	0.000039
C130	C	1.081630	-0.058353	0.250039
C131	C	1.331630	0.191647	0.500039
C132	C	1.581630	0.441647	0.750039
C133	C	0.829984	-0.402388	0.000042
C134	C	1.079984	-0.152388	0.250042
C135	C	1.329984	0.097612	0.500042
C136	C	1.579984	0.347612	0.750042
C137	C	1.061296	-0.199604	0.000049
C138	C	1.311296	0.050396	0.250049
C139	C	1.561296	0.300396	0.500049
C140	C	1.811296	0.550396	0.750049
C141	C	0.909837	-0.178064	0.000044
C142	C	1.159837	0.071936	0.250044
C143	C	1.409837	0.321936	0.500044
C144	C	1.659837	0.571936	0.750044
C145	C	1.134265	0.116464	0.000063
C146	C	1.384265	0.366464	0.250063
C147	C	1.634265	0.616464	0.500063
C148	C	1.884265	0.866464	0.750063
C149	C	1.226563	0.118215	0.000063
C150	C	1.476563	0.368215	0.250063
C151	C	1.726563	0.618215	0.500063
C152	C	1.976563	0.868215	0.750063
C153	C	0.976389	0.287918	0.000060
C154	C	1.226389	0.537918	0.250060
C155	C	1.476389	0.787918	0.500060
C156	C	1.726389	1.037918	0.750060
C157	C	0.978145	0.387999	0.000062
C158	C	1.228145	0.637999	0.250062
C159	C	1.478145	0.887999	0.500062
C160	C	1.728145	1.137999	0.750062
N161	N	0.982261	0.123087	0.228231
N162	N	1.232261	0.373087	0.478231
N163	N	1.482261	0.623087	0.728231
N164	N	1.732261	0.873087	0.978231
N165	N	0.982282	0.123087	-0.228118
N166	N	1.232282	0.373087	0.021882
N167	N	1.482282	0.623087	0.271882
N168	N	1.732282	0.873087	0.521882
C169	C	1.038731	0.061801	0.453956
C170	C	1.288731	0.311801	0.703956
C171	C	1.538731	0.561801	0.953956
C172	C	1.788731	0.811801	1.203956
C173	C	1.038734	0.061799	0.546146
C174	C	1.288734	0.311799	0.796146
C175	C	1.538734	0.561799	1.046146
C176	C	1.788734	0.811799	1.296146
C177	C	0.925806	0.184375	0.546151
C178	C	1.175806	0.434375	0.796151
C179	C	1.425806	0.684375	1.046151
C180	C	1.675806	0.934375	1.296151
C181	C	0.925800	0.184372	0.453963
C182	C	1.175800	0.434372	0.703963
C183	C	1.425800	0.684372	0.953963
C184	C	1.675800	0.934372	1.203963
C185	C	0.982267	0.123086	0.407868
C186	C	1.232267	0.373086	0.657868
C187	C	1.482267	0.623086	0.907868
C188	C	1.732267	0.873086	1.157868
C189	C	0.982276	0.123087	0.592246
C190	C	1.232276	0.373087	0.842246
C191	C	1.482276	0.623087	1.092246
C192	C	1.732276	0.873087	1.342246
C193	C	0.982278	0.123085	0.692202
C194	C	1.232278	0.373085	0.942202
C195	C	1.482278	0.623085	1.192202
C196	C	1.732278	0.873085	1.442202
C197	C	0.982264	0.123087	0.307905
C198	C	1.232264	0.373087	0.557905
C199	C	1.482264	0.623087	0.807905
C200	C	1.732264	0.873087	1.057905
H201	H	0.543114	0.273601	0.000058
H202	H	0.793114	0.523601	0.250058
H203	H	1.043114	0.773601	0.500058
H204	H	1.293114	1.023601	0.750058
H205	H	0.385793	0.270600	0.000066
H206	H	0.635793	0.520600	0.250066
H207	H	0.885793	0.770600	0.500066
H208	H	1.135793	1.020600	0.750066
F209	F	0.413032	-0.048163	0.000054
F210	F	0.663032	0.201837	0.250054
F211	F	0.913032	0.451837	0.500054
F212	F	1.163032	0.701837	0.750054
F213	F	1.216035	-0.312856	0.000061
F214	F	1.466035	-0.062856	0.250061
F215	F	1.716035	0.187144	0.500061
F216	F	1.966035	0.437144	0.750061
F217	F	0.865697	0.249600	0.404909
F218	F	1.115697	0.499600	0.654909
F219	F	1.365697	0.749600	0.904909
F220	F	1.615697	0.999600	1.154909
F221	F	1.142769	-0.161029	0.000071
F222	F	1.392769	0.088971	0.250071
F223	F	1.642769	0.338971	0.500071
F224	F	1.892769	0.588971	0.750071
H225	H	0.767654	-0.431911	0.000037
H226	H	1.017654	-0.181911	0.250037
H227	H	1.267654	0.068089	0.500037
H228	H	1.517654	0.318089	0.750037
H229	H	0.879833	0.234274	0.583691
H230	H	1.129833	0.484274	0.833691
H231	H	1.379833	0.734274	1.083691
H232	H	1.629833	0.984274	1.333691
H233	H	1.084711	0.011894	0.583668
H234	H	1.334711	0.261894	0.833668
H235	H	1.584711	0.511894	1.083668
H236	H	1.834711	0.761894	1.333668
H237	H	1.084709	0.011897	0.416427
H238	H	1.334709	0.261897	0.666427
H239	H	1.584709	0.511897	0.916427
H240	H	1.834709	0.761897	1.166427
H241	H	0.578754	-0.024431	0.000053
H242	H	0.828754	0.225569	0.250053
H243	H	1.078754	0.475569	0.500053
H244	H	1.328754	0.725569	0.750053
H245	H	0.848840	-0.131020	0.000036
H246	H	1.098840	0.118980	0.250036
H247	H	1.348840	0.368980	0.500036
H248	H	1.598840	0.618980	0.750036
H249	H	0.840908	-0.583733	0.000047
H250	H	1.090908	-0.333733	0.250047
H251	H	1.340908	-0.083733	0.500047
H252	H	1.590908	0.166267	0.750047
F253	F	1.134410	-0.637247	0.000083
F254	F	1.384410	-0.387247	0.250083
F255	F	1.634410	-0.137247	0.500083
F256	F	1.884410	0.112753	0.750083
F257	F	1.212613	-0.506966	0.000090
F258	F	1.462613	-0.256966	0.250090
F259	F	1.712613	-0.006966	0.500090
F260	F	1.962613	0.243034	0.750090
F261	F	0.751915	-0.246843	0.000040
F262	F	1.001915	0.003157	0.250040
F263	F	1.251915	0.253157	0.500040
F264	F	1.501915	0.503157	0.750040
