data_functionalizedCrystal
_audit_creation_method	'MofGen! by Chris Wilmer'
_symmetry_space_group_name_H-M	'P1'
_symmetry_Int_Tables_number	1
_symmetry_cell_setting	triclinic
loop_
_symmetry_equiv_pos_as_xyz
  x,y,z
_cell_length_a	12.837943
_cell_length_b	10.489741
_cell_length_c	11.295483
_cell_angle_alpha	94.137284
_cell_angle_beta	85.461227
_cell_angle_gamma	89.684057
loop_
_atom_site_label
_atom_site_type_symbol
_atom_site_fract_x
_atom_site_fract_y
_atom_site_fract_z
O1	O	1.384854	0.324137	-0.099003
O2	O	1.082927	0.307742	-0.099010
O3	O	1.240760	0.131100	-0.098999
O4	O	1.227021	0.500780	-0.099013
O5	O	1.226897	0.146588	0.099051
O6	O	1.069064	0.323231	0.099040
O7	O	1.370991	0.339626	0.099047
Cu8	Cu	1.218762	0.332842	0.117127
Cu9	Cu	1.235156	0.314526	-0.117090
O10	O	1.213158	0.516268	0.099036
C11	C	1.037334	0.309948	0.000014
C12	C	0.922133	0.293430	0.000012
C13	C	1.232791	0.091198	0.000025
C14	C	1.229686	-0.050774	0.000023
C15	C	0.682657	0.492006	0.000021
C16	C	0.574415	0.476492	0.000020
C17	C	0.597406	0.246889	0.000016
C18	C	0.705648	0.262403	0.000017
C19	C	0.748269	0.384966	0.000018
C20	C	0.856513	0.400478	0.000011
C21	C	0.879501	0.170877	0.000016
C22	C	0.771260	0.155363	0.000014
C23	C	1.129262	-0.129987	0.000012
C24	C	1.169867	-0.209242	0.097662
C25	C	1.183558	-0.224485	-0.097600
C26	C	1.270327	-0.128153	0.097754
C27	C	1.284011	-0.143394	-0.097596
C28	C	1.324687	-0.222613	0.000078
C29	C	1.416585	0.337420	0.000020
C30	C	1.531786	0.353937	0.000015
C31	C	1.221127	0.556170	0.000010
C32	C	1.224233	0.698141	0.000004
N33	N	1.207238	0.345726	0.281863
N34	N	1.246688	0.301633	-0.281825
C35	C	1.329641	0.208822	0.531161
C36	C	1.320940	0.218568	0.655824
C37	C	1.181131	0.374956	0.655854
C38	C	1.189832	0.365210	0.531191
C39	C	1.264090	0.282142	0.468849
C40	C	1.272796	0.272403	0.344183
C41	C	1.132982	0.428784	0.344216
C42	C	1.124281	0.438530	0.468879
H43	H	0.717359	0.591801	0.000020
O44	O	1.314181	-0.077948	0.196232
C45	C	1.453815	0.047485	0.273124
C46	C	1.404251	-0.009275	0.161500
H47	H	1.526656	0.102998	0.245083
H48	H	1.395285	0.114511	0.327911
H49	H	1.476231	-0.033124	0.329026
H50	H	1.381835	0.071249	0.105506
H51	H	1.462811	-0.076334	0.106803
H52	H	1.120664	0.442579	0.706630
O53	O	0.943093	0.066749	-0.000036
C54	C	0.954464	-0.162618	0.000032
C55	C	0.882330	-0.044810	0.000068
H56	H	0.905365	-0.252840	0.000141
H57	H	1.011494	-0.167665	-0.082873
H58	H	0.999941	-0.154546	0.082894
H59	H	0.836785	-0.052800	-0.082738
H60	H	0.825367	-0.039803	0.083028
H61	H	0.891213	0.500275	0.000014
O62	O	1.341692	-0.108619	-0.196048
C63	C	1.509430	-0.118230	-0.308482
C64	C	1.444231	-0.157731	-0.196940
H65	H	1.592352	-0.157897	-0.309227
H66	H	1.472413	-0.157950	-0.391714
H67	H	1.511807	-0.009508	-0.307038
H68	H	1.441830	-0.266441	-0.198268
H69	H	1.481272	-0.117918	-0.113757
H70	H	0.562677	0.147112	0.000113
O71	O	1.112194	-0.244295	0.196022
C72	C	0.962354	-0.358947	0.272559
C73	C	1.027596	-0.319374	0.161074
H74	H	0.893929	-0.419632	0.244344
H75	H	1.013405	-0.416687	0.327743
H76	H	0.931389	-0.269726	0.328135
H77	H	1.058572	-0.408524	0.105407
H78	H	0.976500	-0.261586	0.105979
O79	O	1.139605	-0.274576	-0.196056
C80	C	0.986865	-0.284197	-0.307254
C81	C	1.036531	-0.227361	-0.195726
H82	H	0.903515	-0.246068	-0.307012
H83	H	1.034623	-0.255867	-0.390510
H84	H	0.985672	-0.392820	-0.306765
H85	H	1.037732	-0.118734	-0.196100
H86	H	0.988757	-0.255792	-0.112520
O87	O	1.401800	0.128036	0.470779
C88	C	1.539608	-0.025979	0.483900
C89	C	1.457915	0.065438	0.552428
H90	H	1.585014	-0.076594	0.549883
H91	H	1.498466	-0.099875	0.425580
H92	H	1.595874	0.030934	0.425490
H93	H	1.401626	0.008632	0.610902
H94	H	1.499127	0.139335	0.610673
H95	H	1.407326	-0.262921	0.000134
O96	O	1.052010	0.519067	0.529393
C97	C	0.869504	0.574864	0.567525
C98	C	0.951239	0.483544	0.498943
H99	H	0.788014	0.546194	0.542913
H100	H	0.874453	0.569222	0.667343
H101	H	0.885552	0.676851	0.543030
H102	H	0.935244	0.381517	0.523339
H103	H	0.946271	0.489297	0.399142
O104	O	0.729685	0.036399	-0.000041
C105	C	0.573118	-0.089255	0.000028
C106	C	0.620061	0.045543	0.000067
H107	H	0.484479	-0.081905	0.000140
H108	H	0.605793	-0.149319	-0.082879
H109	H	0.594335	-0.136336	0.082888
H110	H	0.598862	0.092735	-0.082737
H111	H	0.587386	0.105515	0.083029
H112	H	1.046686	-0.089431	0.000108
H113	H	0.520997	0.563656	0.000025
H114	H	1.333263	0.204769	0.293425
H115	H	1.374316	0.158862	0.706555
H116	H	1.079610	0.488490	0.293468
