data_functionalizedCrystal
_audit_creation_method	'MofGen! by Chris Wilmer'
_symmetry_space_group_name_H-M	'P1'
_symmetry_Int_Tables_number	1
_symmetry_cell_setting	triclinic
loop_
_symmetry_equiv_pos_as_xyz
  x,y,z
_cell_length_a	27.732025
_cell_length_b	17.038272
_cell_length_c	16.098524
_cell_angle_alpha	87.129416
_cell_angle_beta	93.070433
_cell_angle_gamma	93.127488
loop_
_atom_site_label
_atom_site_type_symbol
_atom_site_fract_x
_atom_site_fract_y
_atom_site_fract_z
O1	O	0.106965	-1.039219	0.069106
O2	O	0.440298	-0.705886	0.402439
O3	O	0.773631	-0.372552	0.735772
O4	O	0.105300	-0.811609	0.069131
O5	O	0.438633	-0.478276	0.402464
O6	O	0.771966	-0.144943	0.735798
O7	O	0.036059	-0.932494	0.069143
O8	O	0.369392	-0.599160	0.402476
O9	O	0.702726	-0.265827	0.735810
O10	O	0.176205	-0.918335	0.069094
O11	O	0.509538	-0.585001	0.402427
O12	O	0.842872	-0.251668	0.735760
O13	O	0.031943	-0.926292	-0.069368
O14	O	0.365277	-0.592958	0.263965
O15	O	0.698610	-0.259625	0.597298
O16	O	0.101184	-0.805407	-0.069380
O17	O	0.434517	-0.472074	0.263953
O18	O	0.767850	-0.138741	0.597286
O19	O	0.102849	-1.033017	-0.069406
O20	O	0.436182	-0.699684	0.263928
O21	O	0.769516	-0.366351	0.597261
Zn22	Zn	0.101363	-0.918228	-0.091385
Zn23	Zn	0.434696	-0.584894	0.241949
Zn24	Zn	0.768030	-0.251561	0.575282
Zn25	Zn	0.106786	-0.926399	0.091110
Zn26	Zn	0.440119	-0.593066	0.424443
Zn27	Zn	0.773452	-0.259732	0.757777
O28	O	0.172089	-0.912133	-0.069417
O29	O	0.505423	-0.578800	0.263916
O30	O	0.838756	-0.245466	0.597249
C31	C	0.101727	-0.779398	-0.000121
C32	C	0.435060	-0.446065	0.333212
C33	C	0.768393	-0.112731	0.666546
C34	C	0.097206	-0.692659	-0.000110
C35	C	0.430540	-0.359326	0.333224
C36	C	0.763873	-0.025992	0.666557
C37	C	0.015981	-0.929099	-0.000104
C38	C	0.349314	-0.595765	0.333229
C39	C	0.682648	-0.262432	0.666562
C40	C	-0.037714	-0.928213	-0.000080
C41	C	0.295619	-0.594880	0.333254
C42	C	0.628952	-0.261546	0.666587
C43	C	0.106422	-1.065228	-0.000152
C44	C	0.439755	-0.731895	0.333182
C45	C	0.773089	-0.398562	0.666515
C46	C	0.110942	-1.151968	-0.000158
C47	C	0.444275	-0.818635	0.333176
C48	C	0.777609	-0.485301	0.666509
C49	C	-0.418926	-0.925292	0.075375
C50	C	-0.085593	-0.591959	0.408708
C51	C	0.247741	-0.258625	0.742042
C52	C	-0.217114	-0.928611	0.075402
C53	C	0.116219	-0.595278	0.408735
C54	C	0.449553	-0.261945	0.742068
O55	O	-0.189117	-0.931947	0.139615
O56	O	0.144216	-0.598614	0.472949
O57	O	0.477549	-0.265280	0.806282
N58	N	-0.194117	-0.925646	-0.000099
N59	N	0.139216	-0.592312	0.333235
N60	N	0.472549	-0.258979	0.666568
C61	C	-0.221577	-0.921855	-0.075611
C62	C	0.111756	-0.588522	0.257722
C63	C	0.445090	-0.255188	0.591056
O64	O	-0.197386	-0.919417	-0.139828
O65	O	0.135947	-0.586083	0.193505
O66	O	0.469280	-0.252750	0.526839
C67	C	-0.423388	-0.918541	-0.075637
C68	C	-0.090055	-0.585208	0.257697
C69	C	0.243278	-0.251875	0.591030
C70	C	-0.446382	-0.921499	-0.000131
C71	C	-0.113049	-0.588166	0.333202
C72	C	0.220285	-0.254833	0.666535
C73	C	-0.441920	-0.928251	0.150874
C74	C	-0.108587	-0.594917	0.484207
C75	C	0.224747	-0.261584	0.817541
C76	C	-0.492370	-0.927417	0.150867
C77	C	-0.159036	-0.594083	0.484200
C78	C	0.174297	-0.260750	0.817533
C79	C	-0.519826	-0.923624	0.075360
C80	C	-0.186492	-0.590290	0.408694
C81	C	0.146841	-0.256957	0.742027
C82	C	-0.496832	-0.920665	-0.000139
C83	C	-0.163498	-0.587332	0.333195
C84	C	0.169835	-0.253999	0.666528
C85	C	-0.450847	-0.914756	-0.151148
C86	C	-0.117514	-0.581423	0.182185
C87	C	0.215820	-0.248090	0.515519
C88	C	-0.501303	-0.913930	-0.151148
C89	C	-0.167970	-0.580597	0.182186
C90	C	0.165364	-0.247263	0.515519
C91	C	-0.524297	-0.916888	-0.075642
C92	C	-0.190963	-0.583555	0.257691
C93	C	0.142370	-0.250221	0.591024
C94	C	-0.574737	-0.916038	-0.075653
C95	C	-0.241404	-0.582705	0.257681
C96	C	0.091929	-0.249372	0.591014
N97	N	-0.597734	-0.919004	-0.000152
N98	N	-0.264401	-0.585671	0.333181
N99	N	0.068932	-0.252337	0.666514
C100	C	-0.570278	-0.922797	0.075354
C101	C	-0.236945	-0.589463	0.408687
C102	C	0.096388	-0.256130	0.742021
C103	C	-0.115623	-0.923593	-0.075592
C104	C	0.217710	-0.590260	0.257741
C105	C	0.551044	-0.256927	0.591074
C106	C	-0.065170	-0.924420	-0.075586
C107	C	0.268163	-0.591087	0.257747
C108	C	0.601496	-0.257754	0.591081
C109	C	-0.060711	-0.931178	0.075427
C110	C	0.272622	-0.597845	0.408760
C111	C	0.605956	-0.264512	0.742093
C112	C	-0.111164	-0.930346	0.075420
C113	C	0.222169	-0.597012	0.408753
C114	C	0.555502	-0.263679	0.742086
C115	C	-0.138620	-0.926559	-0.000092
C116	C	0.194714	-0.593226	0.333241
C117	C	0.528047	-0.259892	0.666575
C118	C	-0.676227	-0.921044	0.075333
C119	C	-0.342893	-0.587711	0.408666
C120	C	-0.009560	-0.254378	0.742000
C121	C	-0.726681	-0.920206	0.075319
C122	C	-0.393348	-0.586873	0.408652
C123	C	-0.060014	-0.253540	0.741986
C124	C	-0.731136	-0.913453	-0.075693
C125	C	-0.397803	-0.580119	0.257640
C126	C	-0.064470	-0.246786	0.590973
C127	C	-0.680686	-0.914286	-0.075680
C128	C	-0.347353	-0.580953	0.257653
C129	C	-0.014019	-0.247620	0.590987
C130	C	-0.653232	-0.918085	-0.000160
C131	C	-0.319899	-0.584752	0.333173
C132	C	0.013434	-0.251418	0.666507
O133	O	-0.602764	-0.912713	-0.139833
O134	O	-0.269431	-0.579379	0.193500
O135	O	0.063902	-0.246046	0.526834
O136	O	-0.594479	-0.925252	0.139562
O137	O	-0.261145	-0.591919	0.472895
O138	O	0.072188	-0.258585	0.806228
C139	C	-0.368476	-0.926126	0.075382
C140	C	-0.035143	-0.592793	0.408716
C141	C	0.298190	-0.259459	0.742049
C142	C	-0.345482	-0.923167	-0.000117
C143	C	-0.012149	-0.589834	0.333217
C144	C	0.321184	-0.256501	0.666550
C145	C	-0.372938	-0.919375	-0.075623
C146	C	-0.039605	-0.586041	0.257710
C147	C	0.293729	-0.252708	0.591044
C148	C	-0.295030	-0.923994	-0.000110
C149	C	0.038304	-0.590661	0.333223
C150	C	0.371637	-0.257328	0.666556
C151	C	-0.267574	-0.927787	0.075396
C152	C	0.065760	-0.594454	0.408729
C153	C	0.399093	-0.261121	0.742063
C154	C	-0.290571	-0.930753	0.150896
C155	C	0.042763	-0.597420	0.484230
C156	C	0.376096	-0.264086	0.817563
C157	C	-0.341020	-0.929919	0.150889
C158	C	-0.007687	-0.596586	0.484222
C159	C	0.325646	-0.263252	0.817556
C160	C	-0.349941	-0.916409	-0.151123
C161	C	-0.016608	-0.583076	0.182210
C162	C	0.316725	-0.249742	0.515543
C163	C	-0.299491	-0.917242	-0.151110
C164	C	0.033842	-0.583909	0.182223
C165	C	0.367175	-0.250576	0.515557
C166	C	-0.272035	-0.921035	-0.075603
C167	C	0.061298	-0.587702	0.257730
C168	C	0.394631	-0.254369	0.591063
C169	C	0.192168	-0.915528	-0.000168
C170	C	0.525501	-0.582195	0.333165
C171	C	0.858834	-0.248861	0.666498
C172	C	0.245863	-0.916414	-0.000188
C173	C	0.579196	-0.583080	0.333146
C174	C	0.912530	-0.249747	0.666479
N175	N	0.097662	-0.912657	-0.215932
N176	N	0.430995	-0.579323	0.117401
N177	N	0.764329	-0.245990	0.450734
C178	C	0.138709	-0.642055	-0.000125
C179	C	0.472042	-0.308721	0.333208
C180	C	0.805376	0.024612	0.666542
C181	C	0.134458	-0.560554	-0.000135
C182	C	0.467792	-0.227221	0.333198
C183	C	0.801125	0.106113	0.666532
C184	C	0.088705	-0.529659	-0.000124
C185	C	0.422038	-0.196326	0.333210
C186	C	0.755372	0.137008	0.666543
C187	C	0.047199	-0.580269	-0.000111
C188	C	0.380533	-0.246936	0.333222
C189	C	0.713866	0.086397	0.666556
C190	C	0.051450	-0.661768	-0.000107
C191	C	0.384784	-0.328435	0.333226
C192	C	0.718117	0.004898	0.666560
C193	C	0.073687	-0.284077	-0.000141
C194	C	0.407021	0.049256	0.333193
C195	C	0.740354	0.382589	0.666526
C196	C	0.069440	-0.202572	-0.000142
C197	C	0.402773	0.130761	0.333191
C198	C	0.736106	0.464095	0.666524
C199	C	0.156699	-0.182862	-0.000168
C200	C	0.490032	0.150471	0.333166
C201	C	0.823366	0.483805	0.666499
C202	C	0.160946	-0.264364	-0.000159
C203	C	0.494280	0.068970	0.333175
C204	C	0.827613	0.402303	0.666508
C205	C	0.119440	-0.314967	-0.000150
C206	C	0.452774	0.018367	0.333183
C207	C	0.786107	0.351700	0.666516
C208	C	0.084359	-0.446352	-0.000131
C209	C	0.417693	-0.113019	0.333202
C210	C	0.751026	0.220314	0.666535
C211	C	0.123786	-0.398272	-0.000149
C212	C	0.457120	-0.064938	0.333185
C213	C	0.790453	0.268395	0.666518
C214	C	0.127636	-0.957742	-0.259530
C215	C	0.460969	-0.624408	0.073804
C216	C	0.794303	-0.291075	0.407137
C217	C	0.125044	-0.953855	-0.346717
C218	C	0.458378	-0.620522	-0.013384
C219	C	0.791711	-0.287189	0.319949
C220	C	0.092481	-0.904879	-0.390306
C221	C	0.425814	-0.571545	-0.056973
C222	C	0.759147	-0.238212	0.276360
C223	C	0.062504	-0.859792	-0.346703
C224	C	0.395837	-0.526459	-0.013370
C225	C	0.729170	-0.193125	0.319964
C226	C	0.065093	-0.863683	-0.259517
C227	C	0.398427	-0.530350	0.073817
C228	C	0.731760	-0.197017	0.407150
C229	C	0.083095	-0.890781	-0.653553
C230	C	0.416429	-0.557447	-0.320219
C231	C	0.749762	-0.224114	0.013114
C232	C	0.080509	-0.886891	-0.740745
C233	C	0.413842	-0.553558	-0.407412
C234	C	0.747176	-0.220224	-0.074078
C235	C	0.143049	-0.980956	-0.740753
C236	C	0.476383	-0.647622	-0.407420
C237	C	0.809716	-0.314289	-0.074087
C238	C	0.145638	-0.984839	-0.653565
C239	C	0.478971	-0.651506	-0.320232
C240	C	0.812305	-0.318172	0.013101
C241	C	0.115659	-0.939755	-0.609970
C242	C	0.448992	-0.606422	-0.276636
C243	C	0.782326	-0.273089	0.056697
C244	C	0.089832	-0.900903	-0.479427
C245	C	0.423165	-0.567570	-0.146093
C246	C	0.756499	-0.234236	0.187240
C247	C	0.118306	-0.943736	-0.520851
C248	C	0.451639	-0.610403	-0.187518
C249	C	0.784972	-0.277069	0.145816
N250	N	0.110483	-0.931976	0.215658
N251	N	0.443816	-0.598643	0.548991
N252	N	0.777150	-0.265309	0.882324
H253	H	-0.745400	-0.922612	0.136807
H254	H	-0.412066	-0.589279	0.470140
H255	H	-0.078733	-0.255946	0.803474
H256	H	0.032180	-0.177421	-0.000132
H257	H	0.365513	0.155912	0.333201
H258	H	0.698847	0.489245	0.666534
Cl259	Cl	-0.535815	-0.909172	-0.246083
Cl260	Cl	-0.202482	-0.575839	0.087250
Cl261	Cl	0.130851	-0.242506	0.420584
H262	H	0.040685	-0.826970	-0.224021
H263	H	0.374019	-0.493636	0.109312
H264	H	0.707352	-0.160303	0.442646
H265	H	0.017654	-0.702970	-0.000094
H266	H	0.350988	-0.369637	0.333239
H267	H	0.684321	-0.036304	0.666572
Cl268	Cl	0.168575	-1.019314	-0.204740
Cl269	Cl	0.501909	-0.685981	0.128593
Cl270	Cl	0.835242	-0.352648	0.461926
H271	H	-0.511087	-0.929831	0.212351
H272	H	-0.177753	-0.596497	0.545684
H273	H	0.155580	-0.263164	0.879018
H274	H	0.172153	-1.024723	-0.618081
H275	H	0.505487	-0.691390	-0.284748
H276	H	0.838820	-0.358057	0.048586
H277	H	0.175966	-0.667202	-0.000133
H278	H	0.509300	-0.333869	0.333200
H279	H	0.842633	-0.000536	0.666533
Cl280	Cl	-0.256045	-0.935522	0.245818
Cl281	Cl	0.077288	-0.602188	0.579151
Cl282	Cl	0.410622	-0.268855	0.912484
Cl283	Cl	0.021508	-0.347682	-0.000130
Cl284	Cl	0.354841	-0.014349	0.333204
Cl285	Cl	0.688174	0.318985	0.666537
Cl286	Cl	0.186636	-0.496940	-0.000149
Cl287	Cl	0.519969	-0.163607	0.333184
Cl288	Cl	0.853303	0.169726	0.666518
Cl289	Cl	0.208874	-0.119243	-0.000182
Cl290	Cl	0.542208	0.214091	0.333152
Cl291	Cl	0.875541	0.547424	0.666485
H292	H	-0.753500	-0.910362	-0.137169
H293	H	-0.420166	-0.577028	0.196164
H294	H	-0.086833	-0.243695	0.529498
Cl295	Cl	-0.407413	-0.933019	0.245810
Cl296	Cl	-0.074079	-0.599686	0.579143
Cl297	Cl	0.259254	-0.266352	0.912477
Cl298	Cl	0.039568	-0.825317	-0.795542
Cl299	Cl	0.372902	-0.491983	-0.462208
Cl300	Cl	0.706235	-0.158650	-0.128875
Cl301	Cl	-0.369919	-0.933640	0.245815
Cl302	Cl	-0.036586	-0.600307	0.579149
Cl303	Cl	0.296748	-0.266974	0.912482
Cl304	Cl	-0.641721	-0.925818	0.170274
Cl305	Cl	-0.308388	-0.592484	0.503607
Cl306	Cl	0.024945	-0.259151	0.836940
Cl307	Cl	0.162729	-1.010535	-0.401522
Cl308	Cl	0.496062	-0.677202	-0.068189
Cl309	Cl	0.829395	-0.343868	0.265145
Cl310	Cl	0.021566	-0.798222	-0.401501
Cl311	Cl	0.354899	-0.464889	-0.068168
Cl312	Cl	0.688232	-0.131556	0.265166
H313	H	-0.280774	-0.914826	-0.212600
H314	H	0.052559	-0.581493	0.120733
H315	H	0.385892	-0.248159	0.454067
H316	H	-0.129882	-0.932753	0.136903
H317	H	0.203451	-0.599419	0.470236
H318	H	0.536784	-0.266086	0.803569
Cl319	Cl	-0.384450	-0.911638	-0.246056
Cl320	Cl	-0.051116	-0.578304	0.087277
Cl321	Cl	0.282217	-0.244971	0.420611
Cl322	Cl	-0.026185	-0.935935	0.170349
Cl323	Cl	0.307148	-0.602601	0.503682
Cl324	Cl	0.640481	-0.269268	0.837015
Cl325	Cl	-0.036270	-0.920683	-0.170511
Cl326	Cl	0.297064	-0.587349	0.162822
Cl327	Cl	0.630397	-0.254016	0.496156
Cl328	Cl	0.180733	-1.037630	-0.795564
Cl329	Cl	0.514067	-0.704297	-0.462231
Cl330	Cl	0.847400	-0.370964	-0.128898
Cl331	Cl	0.045425	-0.834072	-0.598758
Cl332	Cl	0.378758	-0.500739	-0.265425
Cl333	Cl	0.712092	-0.167405	0.067909
H334	H	-0.432135	-0.912356	-0.212633
H335	H	-0.098802	-0.579022	0.120701
H336	H	0.234532	-0.245689	0.454034
Cl337	Cl	0.159240	-1.005307	-0.466052
Cl338	Cl	0.492573	-0.671974	-0.132719
Cl339	Cl	0.825906	-0.338640	0.200614
Cl340	Cl	-0.150131	-0.918827	-0.170532
Cl341	Cl	0.183202	-0.585494	0.162802
Cl342	Cl	0.516535	-0.252161	0.496135
Cl343	Cl	0.048900	-0.839328	-0.534231
Cl344	Cl	0.382233	-0.505995	-0.200898
Cl345	Cl	0.715567	-0.172661	0.132435
Cl346	Cl	0.218467	-0.303197	-0.000167
Cl347	Cl	0.551801	0.030137	0.333166
Cl348	Cl	0.885134	0.363470	0.666500
H349	H	0.009945	-0.555108	-0.000114
H350	H	0.343279	-0.221775	0.333219
H351	H	0.676612	0.111559	0.666553
Cl352	Cl	0.181303	-0.437112	-0.000165
Cl353	Cl	0.514636	-0.103779	0.333168
Cl354	Cl	0.847969	0.229554	0.666501
Cl355	Cl	-0.651779	-0.910567	-0.170602
Cl356	Cl	-0.318446	-0.577233	0.162732
Cl357	Cl	0.014888	-0.243900	0.496065
H358	H	0.047106	-0.421188	-0.000146
H359	H	0.380439	-0.087854	0.333187
H360	H	0.713772	0.245479	0.666521
