data_functionalizedCrystal
_audit_creation_method	'MofGen! by Chris Wilmer'
_symmetry_space_group_name_H-M	'P1'
_symmetry_Int_Tables_number	1
_symmetry_cell_setting	triclinic
loop_
_symmetry_equiv_pos_as_xyz
  x,y,z
_cell_length_a	6.817900
_cell_length_b	12.200863
_cell_length_c	10.992410
_cell_angle_alpha	92.441369
_cell_angle_beta	108.764651
_cell_angle_gamma	107.143441
loop_
_atom_site_label
_atom_site_type_symbol
_atom_site_fract_x
_atom_site_fract_y
_atom_site_fract_z
V1	V	-4.105850	-0.158712	-0.400724
O2	O	-4.072780	0.007627	-0.392961
O3	O	-4.075174	-0.314700	-0.398112
O4	O	-4.083571	-0.156271	-0.575434
O5	O	-4.064325	-0.151899	-0.214412
V6	V	-4.583796	-0.138816	-0.378424
O7	O	-4.379341	-0.202356	-0.449641
O8	O	-4.760503	-0.095173	-0.329506
O9	O	-4.391265	0.017171	-0.381035
O10	O	-4.734263	-0.305156	-0.386186
O11	O	-4.742718	-0.145630	-0.564736
O12	O	-4.382868	-0.141258	-0.203713
C13	C	-3.923642	-0.352727	-0.391824
C14	C	-3.980022	-0.480248	-0.390853
C15	C	-3.934351	-0.150633	-0.618014
C16	C	-3.997537	-0.149669	-0.760842
C17	C	-4.083210	-0.713725	-0.389087
C18	C	-4.025781	-0.583802	-0.390070
C19	C	-3.865124	-0.140887	-0.955958
C20	C	-3.799496	-0.142364	-0.807476
C21	C	-4.189568	-0.262775	-0.838039
C22	C	-4.253934	-0.261775	-0.986604
C23	C	-4.143289	-0.042761	-0.948392
C24	C	-4.072609	-0.042225	-0.799379
C25	C	-4.206140	0.055192	-0.387320
C26	C	-4.128999	0.182712	-0.388299
C27	C	-4.195430	-0.146899	-0.161126
C28	C	-4.111482	-0.147857	-0.018298
H29	H	-3.655344	-0.061037	-0.754068
H30	H	-4.044920	0.043129	-0.968680
H31	H	-3.836191	-0.216399	-1.004012
C32	C	-3.885073	0.070810	-0.728566
H33	H	-3.761536	0.052611	-0.675726
H34	H	-3.846373	0.116004	-0.790696
H35	H	-3.931607	0.113539	-0.675559
C36	C	-4.122072	-0.370547	-0.803546
H37	H	-4.239374	-0.438563	-0.850750
H38	H	-3.996845	-0.367064	-0.825617
H39	H	-4.088387	-0.372510	-0.712985
H40	H	-4.214792	-0.040897	-0.766866
C41	C	-3.716798	-0.245796	-0.774023
H42	H	-3.676345	-0.247049	-0.683056
H43	H	-3.829854	-0.316005	-0.819115
H44	H	-3.593143	-0.238135	-0.799246
H45	H	-4.322056	-0.046872	-0.989236
H46	H	-4.435415	-0.271610	-1.029244
H47	H	-4.339444	-0.272205	-0.809243
C48	C	-4.227213	-0.369268	-1.049206
H49	H	-4.177188	-0.413132	-0.983780
H50	H	-4.364322	-0.415762	-1.110909
H51	H	-4.123593	-0.345220	-1.091528
H52	H	-3.752254	-0.059000	-0.974720
