data_functionalizedCrystal
_audit_creation_method	'MofGen! by Chris Wilmer'
_symmetry_space_group_name_H-M	'P1'
_symmetry_Int_Tables_number	1
_symmetry_cell_setting	triclinic
loop_
_symmetry_equiv_pos_as_xyz
  x,y,z
_cell_length_a	17.699083
_cell_length_b	17.699083
_cell_length_c	16.176319
_cell_angle_alpha	89.994467
_cell_angle_beta	90.002042
_cell_angle_gamma	83.283015
loop_
_atom_site_label
_atom_site_type_symbol
_atom_site_fract_x
_atom_site_fract_y
_atom_site_fract_z
O1	O	1.004076	0.095699	0.068716
O2	O	1.337410	0.429032	0.402049
O3	O	1.670743	0.762366	0.735382
O4	O	0.783698	0.108151	0.068725
O5	O	1.117031	0.441485	0.402058
O6	O	1.450365	0.774818	0.735391
O7	O	0.900113	-0.008264	0.068713
O8	O	1.233447	0.325069	0.402046
O9	O	1.566780	0.658403	0.735379
O10	O	0.887661	0.212114	0.068728
O11	O	1.220994	0.545448	0.402061
O12	O	1.554328	0.878781	0.735394
O13	O	0.900102	-0.008243	-0.068781
O14	O	1.233436	0.325090	0.264553
O15	O	1.566769	0.658424	0.597886
O16	O	0.783687	0.108172	-0.068768
O17	O	1.117020	0.441506	0.264565
O18	O	1.450353	0.774839	0.597898
O19	O	1.004065	0.095720	-0.068777
O20	O	1.337399	0.429053	0.264556
O21	O	1.670732	0.762387	0.597889
Cu22	Cu	0.893875	0.101948	-0.081327
Cu23	Cu	1.227208	0.435281	0.252006
Cu24	Cu	1.560542	0.768615	0.585339
Cu25	Cu	0.893888	0.101923	0.081274
Cu26	Cu	1.227222	0.435257	0.414608
Cu27	Cu	1.560555	0.768590	0.747941
O28	O	0.887650	0.212135	-0.068765
O29	O	1.220983	0.545469	0.264568
O30	O	1.554316	0.878802	0.597901
C31	C	0.899662	-0.036451	-0.000034
C32	C	1.232995	0.296883	0.333299
C33	C	1.566328	0.630216	0.666633
C34	C	0.898323	-0.120469	-0.000034
C35	C	1.231656	0.212865	0.333299
C36	C	1.564990	0.546198	0.666632
C37	C	0.755495	0.107716	-0.000021
C38	C	1.088829	0.441049	0.333313
C39	C	1.422162	0.774382	0.666646
C40	C	0.671477	0.106377	-0.000018
C41	C	1.004811	0.439710	0.333316
C42	C	1.338144	0.773044	0.666649
C43	C	0.966656	-0.169090	-0.000038
C44	C	1.299990	0.164244	0.333295
C45	C	1.633323	0.497577	0.666628
C46	C	0.965394	-0.248033	-0.000031
C47	C	1.298727	0.085300	0.333302
C48	C	1.632061	0.418634	0.666636
C49	C	0.895798	-0.278354	-0.000025
C50	C	1.229131	0.054980	0.333308
C51	C	1.562464	0.388313	0.666641
C52	C	0.827459	-0.229727	-0.000019
C53	C	1.160792	0.103607	0.333314
C54	C	1.494126	0.436940	0.666648
C55	C	0.828722	-0.150785	-0.000020
C56	C	1.162055	0.182549	0.333313
C57	C	1.495389	0.515882	0.666646
C58	C	0.822364	-0.548090	-0.000012
C59	C	1.155697	-0.214756	0.333321
C60	C	1.489030	0.118577	0.666655
C61	C	0.821106	-0.627038	-0.000013
C62	C	1.154439	-0.293704	0.333320
C63	C	1.487773	0.039629	0.666654
C64	C	0.959036	-0.645338	-0.000023
C65	C	1.292369	-0.312004	0.333311
C66	C	1.625703	0.021329	0.666644
C67	C	0.960299	-0.566396	-0.000024
C68	C	1.293632	-0.233063	0.333309
C69	C	1.626966	0.100271	0.666643
C70	C	0.891961	-0.517776	-0.000013
C71	C	1.225294	-0.184442	0.333320
C72	C	1.558627	0.148891	0.666654
C73	C	0.893330	-0.432177	-0.000020
C74	C	1.226664	-0.098843	0.333314
C75	C	1.559997	0.234490	0.666647
C76	C	0.894427	-0.363951	-0.000025
C77	C	1.227761	-0.030618	0.333308
C78	C	1.561094	0.302715	0.666642
C79	C	1.032268	0.096156	-0.000030
C80	C	1.365601	0.429489	0.333303
C81	C	1.698934	0.762822	0.666637
C82	C	1.116286	0.097494	-0.000028
C83	C	1.449619	0.430828	0.333305
C84	C	1.782953	0.764161	0.666639
C85	C	1.164907	0.029161	-0.000030
C86	C	1.498240	0.362494	0.333304
C87	C	1.831573	0.695827	0.666637
C88	C	1.243850	0.030423	-0.000032
C89	C	1.577183	0.363756	0.333301
C90	C	1.910517	0.697090	0.666634
C91	C	1.274171	0.100020	-0.000027
C92	C	1.607504	0.433353	0.333306
C93	C	1.940838	0.766686	0.666639
C94	C	1.225544	0.168358	-0.000028
C95	C	1.558877	0.501692	0.333305
C96	C	1.892210	0.835025	0.666639
C97	C	1.146602	0.167095	-0.000031
C98	C	1.479935	0.500428	0.333302
C99	C	1.813269	0.833762	0.666635
C100	C	1.543907	0.173453	-0.000016
C101	C	1.877240	0.506787	0.333318
C102	C	2.210573	0.840120	0.666651
C103	C	1.622855	0.174711	-0.000010
C104	C	1.956188	0.508045	0.333323
C105	C	2.289521	0.841378	0.666657
C106	C	1.641155	0.036781	-0.000017
C107	C	1.974488	0.370115	0.333317
C108	C	2.307822	0.703448	0.666650
C109	C	1.562213	0.035518	-0.000020
C110	C	1.895547	0.368852	0.333313
C111	C	2.228880	0.702185	0.666647
C112	C	1.513593	0.103857	-0.000025
C113	C	1.846926	0.437190	0.333308
C114	C	2.180260	0.770523	0.666642
C115	C	1.427994	0.102487	-0.000024
C116	C	1.761327	0.435820	0.333309
C117	C	2.094660	0.769154	0.666643
C118	C	1.359769	0.101390	-0.000023
C119	C	1.693102	0.434723	0.333311
C120	C	2.026435	0.768057	0.666644
C121	C	0.888102	0.240322	-0.000017
C122	C	1.221435	0.573655	0.333316
C123	C	1.554768	0.906989	0.666650
C124	C	0.889440	0.324340	-0.000011
C125	C	1.222773	0.657673	0.333322
C126	C	1.556107	0.991007	0.666655
N127	N	0.893871	0.101965	-0.195692
N128	N	1.227205	0.435298	0.137641
N129	N	1.560538	0.768632	0.470974
C130	C	0.848080	0.056059	-0.761084
C131	C	1.181414	0.389392	-0.427750
C132	C	1.514747	0.722726	-0.094417
C133	C	0.848079	0.056065	-0.674537
C134	C	1.181412	0.389398	-0.341203
C135	C	1.514745	0.722732	-0.007870
C136	C	0.893891	0.101917	-0.631268
C137	C	1.227225	0.435250	-0.297934
C138	C	1.560558	0.768583	0.035399
C139	C	0.939714	0.147759	-0.674550
C140	C	1.273048	0.481093	-0.341217
C141	C	1.606381	0.814426	-0.007884
C142	C	0.939719	0.147749	-0.761096
C143	C	1.273053	0.481082	-0.427763
C144	C	1.606386	0.814416	-0.094429
C145	C	0.939696	0.147802	-0.325522
C146	C	1.273029	0.481135	0.007811
C147	C	1.606362	0.814469	0.341144
C148	C	0.939685	0.147811	-0.238971
C149	C	1.273019	0.481144	0.094363
C150	C	1.606352	0.814477	0.427696
C151	C	0.848055	0.056118	-0.238963
C152	C	1.181388	0.389452	0.094371
C153	C	1.514722	0.722785	0.427704
C154	C	0.848060	0.056108	-0.325508
C155	C	1.181393	0.389441	0.007825
C156	C	1.514727	0.722774	0.341158
C157	C	0.893886	0.101947	-0.368783
C158	C	1.227219	0.435281	-0.035450
C159	C	1.560552	0.768614	0.297883
C160	C	0.893888	0.101939	-0.462628
C161	C	1.227221	0.435273	-0.129294
C162	C	1.560555	0.768606	0.204039
C163	C	0.893886	0.101929	-0.537425
C164	C	1.227219	0.435263	-0.204092
C165	C	1.560552	0.768596	0.129241
N166	N	0.893898	0.101900	0.195640
N167	N	1.227231	0.435233	0.528973
N168	N	1.560565	0.768567	0.862306
H169	H	1.023330	-0.144409	-0.000048
H170	H	1.356663	0.188924	0.333286
H171	H	1.689997	0.522258	0.666619
C172	C	0.797672	0.005640	-0.626936
C173	C	1.131006	0.338973	-0.293603
C174	C	1.464339	0.672306	0.039731
N175	N	0.759703	-0.032343	-0.591084
N176	N	1.093037	0.300991	-0.257751
N177	N	1.426370	0.634324	0.075583
H178	H	1.647538	0.231388	-0.000010
H179	H	1.980872	0.564722	0.333324
H180	H	2.314205	0.898055	0.666657
C181	C	0.750902	-0.263082	-0.000020
C182	C	1.084235	0.070251	0.333313
C183	C	1.417569	0.403585	0.666647
N184	N	0.693238	-0.288205	-0.000027
N185	N	1.026571	0.045129	0.333306
N186	N	1.359904	0.378462	0.666640
H187	H	1.680751	-0.018863	-0.000016
H188	H	2.014085	0.314470	0.333317
H189	H	2.347418	0.647804	0.666651
C190	C	0.797681	0.005618	-0.808671
C191	C	1.131015	0.338952	-0.475338
C192	C	1.464348	0.672285	-0.142005
N193	N	0.759722	-0.032378	-0.844512
N194	N	1.093055	0.300956	-0.511179
N195	N	1.426388	0.634289	-0.177845
H196	H	0.810744	0.018791	-0.203718
H197	H	1.144077	0.352125	0.129616
H198	H	1.477410	0.685458	0.462949
H199	H	1.014680	-0.684934	-0.000027
H200	H	1.348013	-0.351601	0.333306
H201	H	1.681347	-0.018268	0.666640
H202	H	1.107015	0.222739	-0.000033
H203	H	1.440348	0.556073	0.333301
H204	H	1.773682	0.889406	0.666634
C205	C	0.990091	0.198248	-0.191377
C206	C	1.323424	0.531581	0.141957
C207	C	1.656757	0.864915	0.475290
N208	N	1.028055	0.236234	-0.155529
N209	N	1.361388	0.569568	0.177804
N210	N	1.694722	0.902901	0.511138
H211	H	0.977029	0.185077	-0.796331
H212	H	1.310363	0.518410	-0.462997
H213	H	1.643696	0.851744	-0.129664
H214	H	0.810752	0.018774	-0.360734
H215	H	1.144085	0.352107	-0.027400
H216	H	1.477419	0.685440	0.305933
H217	H	1.504329	0.229099	-0.000016
H218	H	1.837662	0.562432	0.333318
H219	H	2.170996	0.895766	0.666651
C220	C	0.990070	0.198262	-0.373114
C221	C	1.323403	0.531595	-0.039780
C222	C	1.656737	0.864929	0.293553
N223	N	1.028002	0.236283	-0.408963
N224	N	1.361336	0.569617	-0.075629
N225	N	1.694669	0.902950	0.257704
C226	C	1.131562	-0.047402	-0.000037
C227	C	1.464895	0.285931	0.333296
C228	C	1.798229	0.619265	0.666630
N229	N	1.106449	-0.105072	-0.000047
N230	N	1.439783	0.228262	0.333287
N231	N	1.773116	0.561595	0.666620
H232	H	0.773078	-0.111198	-0.000017
H233	H	1.106411	0.222136	0.333316
H234	H	1.439745	0.555469	0.666650
C235	C	1.528865	-0.041043	-0.000032
C236	C	1.862199	0.292291	0.333301
C237	C	2.195532	0.625624	0.666634
N238	N	1.503749	-0.098711	-0.000048
N239	N	1.837082	0.234623	0.333286
N240	N	2.170416	0.567956	0.666619
H241	H	1.021038	-0.287618	-0.000036
H242	H	1.354372	0.045716	0.333297
H243	H	1.687705	0.379049	0.666631
C244	C	1.258899	0.244915	-0.000025
C245	C	1.592233	0.578249	0.333308
C246	C	1.925566	0.911582	0.666642
N247	N	1.284022	0.302580	-0.000020
N248	N	1.617355	0.635913	0.333313
N249	N	1.950689	0.969246	0.666647
H250	H	0.977019	0.185089	-0.639314
H251	H	1.310353	0.518422	-0.305981
H252	H	1.643686	0.851756	0.027353
H253	H	0.764429	-0.651721	-0.000010
H254	H	1.097762	-0.318388	0.333323
H255	H	1.431096	0.014946	0.666656
C256	C	1.036860	-0.533048	-0.000030
C257	C	1.370193	-0.199715	0.333303
C258	C	1.703527	0.133619	0.666637
N259	N	1.094528	-0.507932	-0.000031
N260	N	1.427861	-0.174599	0.333303
N261	N	1.761194	0.158735	0.666636
C262	C	0.747189	-0.494617	0.000004
C263	C	1.080523	-0.161284	0.333338
C264	C	1.413856	0.172049	0.666671
N265	N	0.690564	-0.454339	0.000019
N266	N	1.023898	-0.121005	0.333352
N267	N	1.357231	0.212328	0.666686
C268	C	1.297330	-0.044749	-0.000034
C269	C	1.630664	0.288584	0.333300
C270	C	1.963997	0.621917	0.666633
N271	N	1.337612	-0.101373	-0.000035
N272	N	1.670945	0.231961	0.333298
N273	N	2.004278	0.565294	0.666632
