data_functionalizedCrystal
_audit_creation_method	'MofGen! by Chris Wilmer'
_symmetry_space_group_name_H-M	'P1'
_symmetry_Int_Tables_number	1
_symmetry_cell_setting	triclinic
loop_
_symmetry_equiv_pos_as_xyz
  x,y,z
_cell_length_a	14.853567
_cell_length_b	10.540539
_cell_length_c	13.930277
_cell_angle_alpha	89.997612
_cell_angle_beta	89.995755
_cell_angle_gamma	84.080211
loop_
_atom_site_label
_atom_site_type_symbol
_atom_site_fract_x
_atom_site_fract_y
_atom_site_fract_z
O1	O	1.197288	0.165727	-0.079760
O2	O	0.934938	0.185470	-0.079776
O3	O	1.072098	-0.009174	-0.079766
O4	O	1.060128	0.360371	-0.079770
O5	O	1.072079	-0.009178	0.079895
O6	O	0.934919	0.185465	0.079886
O7	O	1.197269	0.165723	0.079902
Zn8	Zn	1.066091	0.175594	0.105244
Zn9	Zn	1.066116	0.175599	-0.105118
O10	O	1.060108	0.360367	0.079892
C11	C	0.901335	0.184573	0.000053
C12	C	0.801236	0.181892	0.000047
C13	C	0.387998	0.054938	0.000069
C14	C	0.368000	0.286179	0.000066
C15	C	0.462048	0.288700	0.000063
C16	C	0.519075	0.174338	0.000062
C17	C	0.482055	0.057455	0.000063
C18	C	0.499075	0.405580	0.000052
C19	C	0.593129	0.408105	0.000048
C20	C	0.650158	0.293742	0.000053
C21	C	0.613132	0.176855	0.000056
C22	C	0.670159	0.062493	0.000054
C23	C	0.633135	-0.054396	0.000064
C24	C	0.539084	-0.056908	0.000069
C25	C	0.744209	0.296254	0.000048
C26	C	0.764216	0.065010	0.000048
C27	C	1.071191	-0.056469	0.000063
C28	C	1.068505	-0.197388	0.000057
C29	C	0.965588	-0.379682	-0.000307
C30	C	0.968311	-0.233094	0.000052
C31	C	1.116712	-0.259578	0.091235
C32	C	1.113293	-0.406085	0.091312
C33	C	1.115353	-0.406621	-0.090254
C34	C	1.116276	-0.259649	-0.091459
C35	C	1.230872	0.166620	0.000071
C36	C	1.330971	0.169300	0.000071
C37	C	1.061016	0.407662	0.000061
C38	C	1.063702	0.548580	0.000060
N39	N	1.066080	0.175589	0.248810
N40	N	1.066134	0.175594	-0.248684
C41	C	1.005379	0.261753	0.701075
C42	C	1.126878	0.089435	0.701053
C43	C	1.126867	0.089431	0.600557
C44	C	1.066112	0.175591	0.550315
C45	C	1.005368	0.261755	0.600570
C46	C	1.187617	0.003277	0.550295
C47	C	1.187609	0.003271	0.449793
C48	C	1.126849	0.089426	0.399550
C49	C	1.066102	0.175592	0.449810
C50	C	1.005347	0.261752	0.399569
C51	C	0.944594	0.347913	0.449828
C52	C	0.944608	0.347909	0.550327
C53	C	1.126835	0.089429	0.299051
C54	C	1.005336	0.261753	0.299064
H55	H	0.321563	0.379287	0.000060
C56	C	0.784937	0.424811	0.000035
H57	H	0.849118	0.409933	0.000026
H58	H	0.765412	0.471913	0.055708
H59	H	0.765418	0.471895	-0.055655
H60	H	0.930378	-0.190072	-0.065308
H61	H	1.189326	-0.236231	-0.096960
H62	H	1.185351	-0.454846	0.095452
C63	C	0.347281	-0.073632	0.000077
H64	H	0.394717	-0.141377	0.000081
H65	H	0.311005	-0.079424	-0.055595
H66	H	0.311012	-0.079423	0.055767
C67	C	0.633848	0.536674	0.000050
H68	H	0.586413	0.604421	0.000060
H69	H	0.670128	0.542472	-0.055624
H70	H	0.670114	0.542455	0.055738
H71	H	0.452638	0.498687	0.000043
C72	C	1.254437	-0.091499	0.605555
H73	H	1.290619	-0.142806	0.561232
H74	H	1.221666	-0.144422	0.644763
H75	H	1.292262	-0.045736	0.644756
C76	C	0.938559	0.356527	0.756353
H77	H	0.947266	0.344196	0.823403
H78	H	0.878304	0.342589	0.739891
H79	H	0.948899	0.441275	0.739878
C80	C	0.912120	-0.417738	-0.088627
H81	H	0.949148	-0.477724	-0.126068
H82	H	0.894469	-0.344128	-0.126175
H83	H	0.859758	-0.454875	-0.068120
H84	H	1.176347	0.019292	0.741962
C85	C	0.695870	-0.180186	0.000062
H86	H	0.757184	-0.161937	0.000060
H87	H	0.684568	-0.228111	-0.055610
H88	H	0.684573	-0.228102	0.055752
C89	C	1.254424	-0.091511	0.394517
H90	H	1.290604	-0.142830	0.438834
H91	H	1.292240	-0.045760	0.355297
H92	H	1.221642	-0.144442	0.355328
H93	H	1.176303	0.019284	0.258135
H94	H	0.926162	-0.409458	0.064707
H95	H	0.930096	-0.190919	0.065517
H96	H	1.187723	-0.454643	-0.090862
H97	H	1.081003	-0.218401	-0.158910
H98	H	1.190292	-0.238034	0.094629
H99	H	1.083209	-0.216612	0.159082
C100	C	0.826943	-0.060788	0.000047
H101	H	0.888260	-0.042552	0.000047
H102	H	0.815636	-0.108710	-0.055625
H103	H	0.815639	-0.108701	0.055737
H104	H	0.508930	-0.152072	0.000099
C105	C	1.065131	-0.443658	0.183370
H106	H	1.047832	-0.369416	0.220367
H107	H	1.105032	-0.501152	0.219828
H108	H	1.012800	-0.483564	0.166705
H109	H	0.955858	0.331910	0.258163
H110	H	1.082933	-0.437815	-0.159360
H111	H	0.895131	0.418070	0.408910
C112	C	0.877797	0.442686	0.605612
H113	H	0.886514	0.430355	0.672661
H114	H	0.817537	0.428753	0.589161
H115	H	0.888137	0.527433	0.589134
