data_functionalizedCrystal
_audit_creation_method	'MofGen! by Chris Wilmer'
_symmetry_space_group_name_H-M	'P1'
_symmetry_Int_Tables_number	1
_symmetry_cell_setting	triclinic
loop_
_symmetry_equiv_pos_as_xyz
  x,y,z
_cell_length_a	13.032721
_cell_length_b	12.759401
_cell_length_c	13.033109
_cell_angle_alpha	97.200066
_cell_angle_beta	74.856674
_cell_angle_gamma	97.203268
loop_
_atom_site_label
_atom_site_type_symbol
_atom_site_fract_x
_atom_site_fract_y
_atom_site_fract_z
Zn1	Zn	-0.499116	1.625984	0.654158
Zn2	Zn	-0.654196	1.586266	0.499103
Zn3	Zn	-0.476604	1.430493	0.476581
Zn4	Zn	-0.676672	1.430457	0.676656
O5	O	-0.576647	1.518300	0.576625
O6	O	-0.519702	1.767736	0.633601
O7	O	-0.611811	1.548995	0.347492
O8	O	-0.330960	1.473063	0.481295
O9	O	-0.633639	1.738555	0.519682
O10	O	-0.347499	1.616689	0.611761
O11	O	-0.481335	1.434549	0.330945
O12	O	-0.503129	1.283468	0.503111
O13	O	-0.671946	1.473001	0.822295
O14	O	-0.650118	1.283441	0.650105
O15	O	-0.541497	1.616654	0.805766
O16	O	-0.805808	1.548960	0.541497
O17	O	-0.822321	1.434488	0.671945
C18	C	-0.576620	1.245334	0.576606
C19	C	-0.576638	1.128557	0.576626
C20	C	-0.517473	0.979150	0.636074
C21	C	-0.517451	1.088875	0.636065
C22	C	-0.635859	1.058507	0.517202
C23	C	-0.635886	0.948784	0.517219
C24	C	-0.852606	1.487441	0.611630
C25	C	-0.970667	1.474339	0.626640
C26	C	-1.015104	1.525199	0.568838
C27	C	-1.137126	1.511659	0.584351
C28	C	-0.299614	1.549311	0.541506
C29	C	-0.181558	1.562526	0.526541
C30	C	-0.611740	1.549254	0.853645
C31	C	-0.626694	1.562445	0.971694
C32	C	-0.576675	1.792332	0.576644
C33	C	-0.576687	1.909108	0.576653
C34	C	-0.541615	1.487535	0.300673
C35	C	-0.526361	1.474581	0.182586
C36	C	-0.568804	1.511701	1.016137
C37	C	-0.584259	1.525333	1.138147
H38	H	-0.962814	1.578770	0.507870
C39	C	-1.207755	1.439291	0.666724
H40	H	-1.280501	1.439679	0.666340
H41	H	-1.198629	1.464583	0.735804
H42	H	-1.187718	1.368954	0.648831
H43	H	-0.469268	0.946850	0.684469
H44	H	-0.684055	1.090825	0.468811
C45	C	-1.110936	1.634898	0.444168
H46	H	-1.154641	1.665056	0.409922
H47	H	-1.061844	1.594338	0.392400
H48	H	-1.072766	1.689967	0.479375
C49	C	-0.701028	0.871729	0.451858
H50	H	-0.692575	0.800701	0.460393
H51	H	-0.676340	0.883467	0.378533
H52	H	-0.774370	0.883473	0.476350
C53	C	-1.041300	1.401975	0.709009
H54	H	-1.114046	1.402363	0.708625
H55	H	-1.032174	1.427267	0.778089
H56	H	-1.021263	1.331638	0.691116
H57	H	-0.687698	1.615980	1.023973
C58	C	-0.452310	1.165916	0.701424
H59	H	-0.417054	1.126568	0.736814
H60	H	-0.498851	1.209348	0.752793
H61	H	-0.400818	1.209352	0.654979
C62	C	-0.486391	1.439378	0.945523
H63	H	-0.486810	1.439710	0.872781
H64	H	-0.504203	1.369059	0.965612
H65	H	-0.417305	1.464764	0.954601
H66	H	-0.645267	1.578872	1.190422
C67	C	-0.443944	1.402253	1.111978
H68	H	-0.444361	1.402583	1.039235
H69	H	-0.461757	1.331934	1.132069
H70	H	-0.374858	1.427638	1.121057
