data_functionalizedCrystal
_audit_creation_method	'MofGen! by Chris Wilmer'
_symmetry_space_group_name_H-M	'P1'
_symmetry_Int_Tables_number	1
_symmetry_cell_setting	triclinic
loop_
_symmetry_equiv_pos_as_xyz
  x,y,z
_cell_length_a	14.908571
_cell_length_b	17.640280
_cell_length_c	14.908662
_cell_angle_alpha	81.377939
_cell_angle_beta	83.592432
_cell_angle_gamma	74.921313
loop_
_atom_site_label
_atom_site_type_symbol
_atom_site_fract_x
_atom_site_fract_y
_atom_site_fract_z
Zn1	Zn	1.504201	-0.416139	-0.500831
Zn2	Zn	2.004201	0.083861	-0.000831
Zn3	Zn	1.522462	-0.540228	-0.322426
Zn4	Zn	2.022462	-0.040228	0.177574
Zn5	Zn	1.340572	-0.399970	-0.344289
Zn6	Zn	1.840572	0.100030	0.155711
Zn7	Zn	1.379881	-0.540168	-0.465038
Zn8	Zn	1.879881	-0.040168	0.034962
O9	O	1.436779	-0.474126	-0.408146
O10	O	1.936779	0.025874	0.091854
O11	O	1.634773	-0.439392	-0.482995
O12	O	2.134773	0.060608	0.017005
O13	O	1.489525	-0.514880	-0.200130
O14	O	1.989525	-0.014880	0.299870
O15	O	1.338185	-0.291509	-0.389184
O16	O	1.838185	0.208491	0.110816
O17	O	1.648190	-0.530559	-0.351922
O18	O	2.148190	-0.030559	0.148078
O19	O	1.458402	-0.303389	-0.504195
O20	O	1.958402	0.196611	-0.004195
O21	O	1.355892	-0.411833	-0.216192
O22	O	1.855892	0.088167	0.283808
O23	O	1.217637	-0.411775	-0.354477
O24	O	1.717637	0.088225	0.145523
O25	O	1.405181	-0.530458	-0.594983
O26	O	1.905181	-0.030458	-0.094983
O27	O	1.246517	-0.514779	-0.443190
O28	O	1.746517	-0.014779	0.056810
O29	O	1.496518	-0.439334	-0.621280
O30	O	1.996518	0.060666	-0.121280
O31	O	1.527642	-0.650825	-0.317215
O32	O	2.027642	-0.150825	0.182785
O33	O	1.422888	-0.650781	-0.421991
O34	O	1.922888	-0.150781	0.078009
C35	C	1.198849	-0.461517	-0.397322
C36	C	1.698849	0.038483	0.102678
C37	C	1.097067	-0.456143	-0.392709
C38	C	1.597067	0.043857	0.107291
C39	C	0.935953	-0.553450	-0.476230
C40	C	1.435953	-0.053450	0.023770
C41	C	0.840321	-0.548403	-0.471898
C42	C	1.340321	-0.048403	0.028102
C43	C	0.810168	-0.440999	-0.379719
C44	C	1.310168	0.059001	0.120281
C45	C	0.905801	-0.446046	-0.384051
C46	C	1.405801	0.053954	0.115949
C47	C	0.968690	-0.502274	-0.432307
C48	C	1.468690	-0.002274	0.067693
C49	C	1.064325	-0.507324	-0.436633
C50	C	1.564325	-0.007324	0.063367
C51	C	1.034170	-0.399916	-0.344460
C52	C	1.534170	0.100084	0.155540
C53	C	0.938538	-0.394870	-0.340128
C54	C	1.438538	0.105130	0.159872
C55	C	1.481538	-0.679484	-0.363367
C56	C	1.981538	-0.179484	0.136633
C57	C	1.500772	-0.767343	-0.344244
C58	C	2.000772	-0.267343	0.155756
C59	C	1.291060	-1.056293	-0.553764
C60	C	1.791060	-0.556293	-0.053764
C61	C	1.309133	-1.138849	-0.535766
C62	C	1.809133	-0.638849	-0.035766
C63	C	1.418293	-1.138839	-0.426782
C64	C	1.918293	-0.638839	0.073218
C65	C	1.400233	-1.056282	-0.444773
C66	C	1.900233	-0.556282	0.055227
C67	C	1.336614	-1.015016	-0.508264
C68	C	1.836614	-0.515016	-0.008264
C69	C	1.445788	-1.015004	-0.399274
C70	C	1.945788	-0.515004	0.100726
C71	C	1.427725	-0.932454	-0.417261
C72	C	1.927725	-0.432454	0.082739
C73	C	1.364107	-0.891182	-0.480747
C74	C	1.864107	-0.391182	0.019253
C75	C	1.318551	-0.932466	-0.526251
C76	C	1.818551	-0.432466	-0.026251
C77	C	1.509401	-1.056272	-0.335778
C78	C	2.009401	-0.556272	0.164222
C79	C	1.554956	-1.014994	-0.290279
C80	C	2.054956	-0.514994	0.209721
C81	C	1.536898	-0.932443	-0.308270
C82	C	2.036898	-0.432443	0.191730
C83	C	1.473280	-0.891171	-0.371756
C84	C	1.973280	-0.391171	0.128244
C85	C	1.582454	-0.891159	-0.262766
C86	C	2.082454	-0.391159	0.237234
C87	C	1.564391	-0.808609	-0.280753
C88	C	2.064391	-0.308609	0.219247
C89	C	1.455217	-0.808621	-0.389743
C90	C	1.955217	-0.308621	0.110257
C91	C	1.675638	-0.486785	-0.419012
C92	C	2.175638	0.013215	0.080988
C93	C	1.777426	-0.492180	-0.423643
C94	C	2.277426	0.007820	0.076357
C95	C	1.453198	-0.486693	-0.641501
C96	C	1.953198	0.013307	-0.141501
C97	C	1.460194	-0.492048	-0.740943
C98	C	1.960194	0.007952	-0.240943
C99	C	1.391872	-0.267969	-0.453121
C100	C	1.891872	0.232031	0.046879
C101	C	1.372735	-0.180117	-0.472286
C102	C	1.872735	0.319883	0.027714
C103	C	1.539619	-0.553241	-0.872743
C104	C	2.039619	-0.053241	-0.372743
C105	C	1.533053	-0.548214	-0.779308
C106	C	2.033053	-0.048214	-0.279308
C107	C	1.393895	-0.440908	-0.796020
C108	C	1.893895	0.059092	-0.296020
C109	C	1.400462	-0.445935	-0.889456
C110	C	1.900462	0.054065	-0.389456
C111	C	1.473327	-0.502103	-0.927813
C112	C	1.973327	-0.002103	-0.427813
C113	C	1.479896	-0.507126	-1.021252
C114	C	1.979896	-0.007126	-0.521252
C115	C	1.340736	-0.399824	-1.037961
C116	C	1.840736	0.100176	-0.537961
C117	C	1.334169	-0.394797	-0.944526
C118	C	1.834169	0.105203	-0.444526
C119	C	1.420465	-0.461554	-0.175714
C120	C	1.920465	0.038446	0.324286
C121	C	1.413597	-0.455985	-0.076329
C122	C	1.913597	0.044015	0.423671
H123	H	0.758947	-0.395216	-0.340438
H124	H	1.258947	0.104784	0.159562
C125	C	1.254028	-0.333015	-0.902328
C126	C	1.754028	0.166985	-0.402328
H127	H	1.259614	-0.337341	-0.838795
H128	H	1.759614	0.162659	-0.338795
H129	H	1.196092	-0.342139	-0.912316
H130	H	1.696092	0.157861	-0.412316
H131	H	1.256950	-0.281442	-0.929834
H132	H	1.756950	0.218558	-0.429834
C133	C	1.259025	-1.184253	-0.585827
C134	C	1.759025	-0.684253	-0.085827
H135	H	1.218557	-1.147851	-0.626219
H136	H	1.718557	-0.647851	-0.126219
H137	H	1.223798	-1.212536	-0.542736
H138	H	1.723798	-0.712536	-0.042736
H139	H	1.303815	-1.220376	-0.619424
H140	H	1.803815	-0.720376	-0.119424
C141	C	1.619771	-0.615013	-0.914942
C142	C	2.119771	-0.115013	-0.414942
H143	H	1.658314	-0.644750	-0.868761
H144	H	2.158314	-0.144750	-0.368761
H145	H	1.655640	-0.588847	-0.959803
H146	H	2.155640	-0.088847	-0.459803
H147	H	1.594807	-0.649563	-0.942284
H148	H	2.094807	-0.149563	-0.442284
C149	C	1.133501	-0.569169	-0.489715
C150	C	1.633501	-0.069169	0.010285
H151	H	1.100303	-0.598918	-0.515262
H152	H	1.600303	-0.098918	-0.015262
H153	H	1.175891	-0.603687	-0.449625
H154	H	1.675891	-0.103687	0.050375
H155	H	1.166976	-0.543048	-0.537026
H156	H	1.666976	-0.043048	-0.037026
C157	C	1.005134	-0.615299	-0.529303
C158	C	1.505134	-0.115299	-0.029303
H159	H	0.971939	-0.645054	-0.554845
H160	H	1.471939	-0.145054	-0.054845
H161	H	1.047522	-0.649811	-0.489207
H162	H	1.547522	-0.149811	0.010793
H163	H	1.038610	-0.589183	-0.576617
H164	H	1.538610	-0.089183	-0.076617
C165	C	1.605975	-0.604464	-0.718733
C166	C	2.105975	-0.104464	-0.218733
H167	H	1.650312	-0.638629	-0.754964
H168	H	2.150312	-0.138629	-0.254964
H169	H	1.575886	-0.635084	-0.673176
H170	H	2.075886	-0.135084	-0.173176
H171	H	1.636732	-0.574378	-0.690700
H172	H	2.136732	-0.074378	-0.190700
H173	H	0.887320	-0.349088	-0.300842
H174	H	1.387320	0.150912	0.199158
C175	C	1.070182	-0.343618	-0.296146
C176	C	1.570182	0.156382	0.203854
H177	H	1.136144	-0.354672	-0.305640
H178	H	1.636144	0.145328	0.194360
H179	H	1.052766	-0.351038	-0.232799
H180	H	1.552766	0.148962	0.267201
H181	H	1.043862	-0.290410	-0.320209
H182	H	1.543862	0.209590	0.179791
C183	C	1.385244	-0.763220	-0.459587
C184	C	1.885244	-0.263220	0.040413
H185	H	1.381018	-0.708145	-0.463784
H186	H	1.881018	-0.208145	0.036216
H187	H	1.325769	-0.772825	-0.440696
H188	H	1.825769	-0.272825	0.059304
H189	H	1.405792	-0.780672	-0.517378
H190	H	1.905792	-0.280672	-0.017378
H191	H	1.524108	-1.123490	-0.321138
H192	H	2.024108	-0.623490	0.178862
C193	C	0.804308	-0.604696	-0.520210
C194	C	1.304308	-0.104696	-0.020210
H195	H	0.738345	-0.593635	-0.510726
H196	H	1.238345	-0.093635	-0.010726
H197	H	0.830630	-0.657902	-0.496159
H198	H	1.330630	-0.157902	0.003841
H199	H	0.821720	-0.597266	-0.583562
H200	H	1.321720	-0.097266	-0.083562
H201	H	1.470089	-1.172449	-0.375085
H202	H	1.970089	-0.672449	0.124915
C203	C	1.248585	-0.887069	-0.596103
C204	C	1.748585	-0.387069	-0.096103
H205	H	1.224039	-0.923474	-0.620629
H206	H	1.724039	-0.423474	-0.120629
H207	H	1.279285	-0.858792	-0.643720
H208	H	1.779285	-0.358792	-0.143720
H209	H	1.199256	-0.850941	-0.567043
H210	H	1.699256	-0.350941	-0.067043
H211	H	1.539229	-0.552858	-1.052481
H212	H	2.039229	-0.052858	-0.552481
C213	C	1.221093	-1.010897	-0.623615
C214	C	1.721093	-0.510897	-0.123615
H215	H	1.196547	-1.047302	-0.648141
H216	H	1.696547	-0.547302	-0.148141
H217	H	1.251793	-0.982619	-0.671233
H218	H	1.751793	-0.482619	-0.171233
H219	H	1.171765	-0.974769	-0.594556
H220	H	1.671765	-0.474769	-0.094556
C221	C	1.267793	-0.343588	-1.098536
C222	C	1.767793	0.156412	-0.598536
H223	H	1.282129	-0.354633	-1.159675
H224	H	1.782129	0.145367	-0.659675
H225	H	1.268529	-0.290363	-1.095424
H226	H	1.768529	0.209637	-0.595424
H227	H	1.207715	-0.351093	-1.077883
H228	H	1.707715	0.148907	-0.577883
H229	H	1.349395	-0.823964	-0.495384
H230	H	1.849395	-0.323964	0.004616
H231	H	1.606751	-1.048604	-0.238582
H232	H	2.106751	-0.548604	0.261418
H233	H	1.634245	-0.924770	-0.211065
H234	H	2.134245	-0.424770	0.288935
H235	H	1.601485	-0.775001	-0.243702
H236	H	2.101485	-0.275001	0.256298
C237	C	1.313752	-0.379132	-0.753815
C238	C	1.813752	0.120868	-0.253815
H239	H	1.319341	-0.383463	-0.690282
H240	H	1.819341	0.116537	-0.190282
H241	H	1.255817	-0.388260	-0.763802
H242	H	1.755817	0.111740	-0.263802
H243	H	1.316667	-0.327556	-0.781315
H244	H	1.816667	0.172444	-0.281315
