data_functionalizedCrystal
_audit_creation_method	'MofGen! by Chris Wilmer'
_symmetry_space_group_name_H-M	'P1'
_symmetry_Int_Tables_number	1
_symmetry_cell_setting	triclinic
loop_
_symmetry_equiv_pos_as_xyz
  x,y,z
_cell_length_a	11.792241
_cell_length_b	17.699083
_cell_length_c	16.176319
_cell_angle_alpha	89.995661
_cell_angle_beta	90.001784
_cell_angle_gamma	96.261785
loop_
_atom_site_label
_atom_site_type_symbol
_atom_site_fract_x
_atom_site_fract_y
_atom_site_fract_z
O1	O	1.505668	-0.103735	0.068668
O2	O	1.175199	-0.114426	0.068688
O3	O	1.349770	0.001059	0.068670
O4	O	1.331097	-0.219220	0.068686
O5	O	1.349750	0.001060	-0.068823
O6	O	1.175178	-0.114425	-0.068806
O7	O	1.505648	-0.103734	-0.068825
Cu8	Cu	1.340411	-0.109080	-0.081370
Cu9	Cu	1.340435	-0.109080	0.081232
O10	O	1.331076	-0.219219	-0.068808
C11	C	1.132906	-0.113754	-0.000057
C12	C	1.006916	-0.111744	-0.000049
C13	C	1.349091	0.029260	-0.000077
C14	C	1.347083	0.113289	-0.000077
C15	C	1.331756	-0.247420	-0.000059
C16	C	1.333763	-0.331449	-0.000053
C17	C	0.776248	-0.108048	-0.000073
C18	C	0.904609	-0.110101	-0.000060
C19	C	1.547941	-0.104406	-0.000079
C20	C	1.673930	-0.106416	-0.000081
N21	N	1.340402	-0.109079	-0.195735
C22	C	1.449553	0.161364	-0.000084
C23	C	1.447660	0.240317	-0.000077
C24	C	1.343297	0.271194	-0.000068
C25	C	1.240819	0.223113	-0.000058
C26	C	1.242713	0.144161	-0.000060
C27	C	1.233178	0.541517	-0.000051
C28	C	1.231292	0.620475	-0.000052
C29	C	1.438126	0.637673	-0.000068
C30	C	1.440020	0.558721	-0.000070
C31	C	1.337543	0.510647	-0.000055
C32	C	1.339596	0.425037	-0.000062
C33	C	1.341242	0.356803	-0.000067
C34	C	1.409104	-0.155294	-0.238996
C35	C	1.409116	-0.155291	-0.325543
C36	C	1.340420	-0.109077	-0.368827
C37	C	1.271715	-0.062857	-0.325560
C38	C	1.271710	-0.062856	-0.239014
C39	C	1.271736	-0.062858	-0.674588
C40	C	1.271744	-0.062864	-0.761140
C41	C	1.409143	-0.155293	-0.761117
C42	C	1.409137	-0.155292	-0.674572
C43	C	1.340438	-0.109069	-0.631312
C44	C	1.340427	-0.109072	-0.537468
C45	C	1.340424	-0.109078	-0.462670
N46	N	1.340453	-0.109075	0.195597
H47	H	1.534538	0.136230	-0.000096
C48	C	1.116479	0.654437	-0.000036
N49	N	1.030006	0.680018	-0.000023
C50	C	1.484678	-0.206133	-0.191392
N51	N	1.541607	-0.244425	-0.155538
C52	C	1.129988	0.091279	-0.000054
N53	N	1.045080	0.051448	-0.000047
H54	H	1.465062	-0.192922	-0.360763
C55	C	1.484712	-0.206129	-0.626964
N56	N	1.541642	-0.244417	-0.591107
C57	C	1.120450	0.488645	-0.000031
N58	N	1.035538	0.448820	-0.000014
C59	C	1.484725	-0.206132	-0.808711
N60	N	1.541651	-0.244424	-0.844557
H61	H	1.215801	-0.025228	-0.796379
H62	H	1.215797	-0.025220	-0.639376
H63	H	1.525003	0.533586	-0.000081
C64	C	1.560385	0.293197	-0.000098
N65	N	1.645295	0.333025	-0.000118
C66	C	1.196146	-0.012022	-0.373176
N67	N	1.139220	0.026264	-0.409039
C68	C	1.196130	-0.012018	-0.191427
N69	N	1.139202	0.026276	-0.155586
H70	H	1.155844	0.248259	-0.000046
H71	H	1.521567	0.676825	-0.000075
