data_functionalizedCrystal
_audit_creation_method	'MofGen! by Chris Wilmer'
_symmetry_space_group_name_H-M	'P1'
_symmetry_Int_Tables_number	1
_symmetry_cell_setting	triclinic
loop_
_symmetry_equiv_pos_as_xyz
  x,y,z
_cell_length_a	27.732048
_cell_length_b	27.732048
_cell_length_c	26.809956
_cell_angle_alpha	90.000636
_cell_angle_beta	90.003258
_cell_angle_gamma	82.642655
loop_
_atom_site_label
_atom_site_type_symbol
_atom_site_fract_x
_atom_site_fract_y
_atom_site_fract_z
O1	O	0.640931	0.057510	0.041421
O2	O	0.500138	0.066256	0.041436
O3	O	0.574907	-0.008514	0.041419
O4	O	0.566162	0.132280	0.041439
O5	O	0.574893	-0.008502	-0.041541
O6	O	0.500123	0.066267	-0.041523
O7	O	0.640917	0.057522	-0.041539
Zn8	Zn	0.570518	0.061896	-0.054702
Zn9	Zn	0.570536	0.061881	0.054600
O10	O	0.566147	0.132291	-0.041521
C11	C	0.482124	0.066078	-0.000041
C12	C	0.428469	0.065525	-0.000036
C13	C	0.089654	0.106229	-0.000051
C14	C	-0.112006	0.104178	-0.000056
O15	O	-0.143262	0.141398	-0.000073
N16	N	-0.131130	0.059843	-0.000062
C17	C	-0.099835	0.016017	-0.000069
O18	O	-0.120728	-0.021740	-0.000079
C19	C	0.101824	0.018068	-0.000068
C20	C	0.120944	0.062407	-0.000057
C21	C	0.108775	0.150563	-0.000042
C22	C	0.159187	0.151076	-0.000038
C23	C	0.190477	0.107253	-0.000044
C24	C	0.171356	0.062919	-0.000054
C25	C	0.133117	-0.025757	-0.000079
C26	C	0.183535	-0.025240	-0.000080
C27	C	0.202655	0.019098	-0.000069
C28	C	0.253059	0.019609	-0.000056
N29	N	0.272183	0.063944	-0.000050
C30	C	0.240892	0.107766	-0.000044
C31	C	-0.205709	0.014943	-0.000069
C32	C	-0.256124	0.014430	-0.000068
C33	C	-0.268291	0.102591	-0.000056
C34	C	-0.217876	0.103104	-0.000053
C35	C	-0.186585	0.059278	-0.000063
C36	C	0.346761	0.108839	-0.000036
C37	C	0.397178	0.109347	-0.000030
C38	C	0.409341	0.021186	-0.000044
C39	C	0.358929	0.020678	-0.000048
C40	C	0.327639	0.064508	-0.000045
O41	O	0.284343	-0.017592	-0.000045
O42	O	0.261794	0.145518	-0.000045
C43	C	0.039242	0.105716	-0.000055
C44	C	0.020120	0.061382	-0.000065
C45	C	0.051411	0.017560	-0.000071
C46	C	-0.030294	0.060869	-0.000065
C47	C	-0.061585	0.104691	-0.000059
C48	C	-0.042461	0.149026	-0.000053
C49	C	0.007951	0.149539	-0.000049
C50	C	0.032287	-0.026775	-0.000077
C51	C	-0.018125	-0.027284	-0.000080
C52	C	-0.049416	0.016538	-0.000074
C53	C	0.574716	-0.026515	-0.000062
C54	C	0.574164	-0.080170	-0.000066
C55	C	0.614867	-0.418985	-0.000045
C56	C	0.612816	-0.620645	-0.000038
O57	O	0.650037	-0.651900	-0.000021
N58	N	0.568481	-0.639768	-0.000034
C59	C	0.524656	-0.608474	-0.000028
O60	O	0.486899	-0.629367	-0.000019
C61	C	0.526707	-0.406815	-0.000031
C62	C	0.571045	-0.387694	-0.000041
C63	C	0.659202	-0.399864	-0.000054
C64	C	0.659714	-0.349452	-0.000059
C65	C	0.615892	-0.318161	-0.000054
C66	C	0.571557	-0.337282	-0.000045
C67	C	0.482882	-0.375521	-0.000022
C68	C	0.483399	-0.325104	-0.000021
C69	C	0.527737	-0.305983	-0.000031
C70	C	0.528247	-0.255580	-0.000045
N71	N	0.572583	-0.236456	-0.000050
C72	C	0.616405	-0.267747	-0.000054
C73	C	0.523582	-0.714348	-0.000027
C74	C	0.523069	-0.764762	-0.000027
C75	C	0.611230	-0.776930	-0.000036
C76	C	0.611742	-0.726514	-0.000040
C77	C	0.567917	-0.695224	-0.000031
C78	C	0.617477	-0.161878	-0.000064
C79	C	0.617986	-0.111461	-0.000071
C80	C	0.529825	-0.099298	-0.000059
C81	C	0.529316	-0.149710	-0.000055
C82	C	0.573147	-0.180999	-0.000056
O83	O	0.491047	-0.224296	-0.000057
O84	O	0.654156	-0.246844	-0.000053
C85	C	0.614355	-0.469397	-0.000041
C86	C	0.570021	-0.488518	-0.000032
C87	C	0.526198	-0.457228	-0.000027
C88	C	0.569508	-0.538933	-0.000032
C89	C	0.613330	-0.570223	-0.000036
C90	C	0.657665	-0.551100	-0.000041
C91	C	0.658177	-0.500688	-0.000045
C92	C	0.481863	-0.476351	-0.000023
C93	C	0.481355	-0.526764	-0.000019
C94	C	0.525177	-0.558054	-0.000023
C95	C	0.658931	0.057699	-0.000060
C96	C	0.712586	0.058252	-0.000062
C97	C	0.566338	0.150292	-0.000039
C98	C	0.566891	0.203947	-0.000031
N99	N	0.570509	0.061906	-0.129298
C100	C	0.603640	0.028781	-0.473932
C101	C	0.603652	0.028774	-0.682810
O102	O	0.631801	0.000613	-0.709820
N103	N	0.570539	0.061870	-0.708925
C104	C	0.537419	0.094969	-0.682818
O105	O	0.509252	0.123116	-0.709824
C106	C	0.537406	0.094974	-0.473941
C107	C	0.570524	0.061878	-0.447829
C108	C	0.636755	-0.004312	-0.447819
C109	C	0.636754	-0.004308	-0.395603
C110	C	0.603637	0.028789	-0.369500
C111	C	0.570522	0.061882	-0.395612
C112	C	0.504284	0.128070	-0.447835
C113	C	0.504283	0.128067	-0.395613
C114	C	0.537401	0.094972	-0.369500
C115	C	0.537405	0.094983	-0.317293
N116	N	0.570517	0.061887	-0.291177
C117	C	0.603633	0.028790	-0.317281
C118	C	0.537429	0.094965	-0.792481
C119	C	0.537433	0.094964	-0.844700
C120	C	0.603665	0.028768	-0.844689
C121	C	0.603663	0.028772	-0.792469
C122	C	0.570542	0.061868	-0.766366
C123	C	0.603628	0.028801	-0.207623
C124	C	0.603625	0.028809	-0.155402
C125	C	0.537392	0.095003	-0.155418
C126	C	0.537396	0.094997	-0.207635
C127	C	0.570516	0.061892	-0.233735
O128	O	0.509266	0.123126	-0.290250
O129	O	0.631789	0.000640	-0.290266
C130	C	0.603642	0.028777	-0.526149
C131	C	0.570527	0.061870	-0.552261
C132	C	0.537410	0.094968	-0.526158
C133	C	0.570531	0.061870	-0.604480
C134	C	0.603647	0.028773	-0.630584
C135	C	0.636759	-0.004324	-0.604468
C136	C	0.636758	-0.004320	-0.552252
C137	C	0.504298	0.128064	-0.552273
C138	C	0.504303	0.128058	-0.604489
C139	C	0.537419	0.094961	-0.630593
N140	N	0.570549	0.061867	0.129196
H141	H	-0.293777	0.138273	-0.000051
H142	H	0.510457	0.121917	-0.771232
O143	O	0.213861	-0.067857	-0.000065
C144	C	0.186168	-0.107096	-0.000086
H145	H	0.148448	-0.094539	0.015618
H146	H	0.204988	-0.137782	0.023995
H147	H	0.182677	-0.120698	-0.039889
H148	H	0.694889	-0.425336	-0.000056
H149	H	0.343360	-0.015426	-0.000049
H150	H	0.477317	0.155019	-0.469089
H151	H	0.653168	-0.187348	-0.000063
H152	H	0.117558	-0.061861	-0.000088
H153	H	-0.271687	-0.021674	-0.000069
O154	O	0.439723	-0.021393	0.000038
C155	C	0.431105	-0.048351	0.042991
H156	H	0.413683	-0.022710	0.073027
H157	H	0.467023	-0.068006	0.057409
H158	H	0.405641	-0.076137	0.033270
H159	H	0.494146	-0.073812	-0.000057
O160	O	0.479956	-0.783252	-0.000001
C161	C	0.441391	-0.744818	-0.000008
H162	H	0.454686	-0.710667	0.015695
H163	H	0.410417	-0.755124	0.024082
H164	H	0.427885	-0.737584	-0.039806
O165	O	0.177819	0.194113	-0.000091
C166	C	0.206608	0.197065	-0.043058
H167	H	0.219444	0.158875	-0.057393
H168	H	0.239483	0.216079	-0.033385
H169	H	0.184176	0.218629	-0.073140
H170	H	0.477310	0.155018	-0.374362
H171	H	-0.202311	0.139207	-0.000047
O172	O	0.486205	-0.168206	-0.000025
C173	C	0.447637	-0.129775	-0.000037
H174	H	0.460930	-0.095619	0.015658
H175	H	0.416665	-0.140080	0.024058
H176	H	0.434128	-0.122549	-0.039835
H177	H	0.447710	-0.299629	-0.000014
H178	H	0.510433	0.121951	-0.228896
O179	O	0.026441	0.192652	-0.000065
C180	C	-0.011996	0.231215	-0.000048
H181	H	-0.046147	0.217922	-0.015756
H182	H	-0.001693	0.262197	-0.024129
H183	H	-0.019229	0.244708	0.039754
O184	O	0.505241	0.127104	-0.129979
C185	C	0.512351	0.120012	-0.078291
H186	H	0.530712	0.081457	-0.071162
H187	H	0.475706	0.125635	-0.058446
H188	H	0.536384	0.147209	-0.063468
O189	O	0.701290	-0.482198	-0.000029
C190	C	0.739853	-0.520634	-0.000044
H191	H	0.726561	-0.554784	0.015664
H192	H	0.770837	-0.510329	0.024038
H193	H	0.753346	-0.527870	-0.039845
H194	H	0.663726	-0.031271	-0.625730
O195	O	-0.175386	-0.027676	-0.000053
C196	C	-0.203082	-0.066912	-0.000069
H197	H	-0.240801	-0.054350	0.015638
H198	H	-0.184263	-0.097598	0.024013
H199	H	-0.206578	-0.080516	-0.039870
H200	H	0.477335	0.155012	-0.625747
O201	O	-0.036615	-0.070400	-0.000111
C202	C	0.001820	-0.108965	-0.000105
H203	H	0.035971	-0.095669	-0.015802
H204	H	-0.008486	-0.139938	-0.024200
H205	H	0.009052	-0.122473	0.039692
H206	H	-0.067947	0.184708	-0.000046
H207	H	0.477330	0.155015	-0.531024
O208	O	0.438238	-0.545254	0.000012
C209	C	0.399673	-0.506819	0.000003
H210	H	0.412970	-0.472666	0.015701
H211	H	0.368701	-0.517123	0.024098
H212	H	0.386164	-0.499589	-0.039794
H213	H	0.693347	-0.576585	-0.000047
H214	H	0.663725	-0.031269	-0.530995
O215	O	0.635822	-0.003290	-0.233026
C216	C	0.665459	0.022388	-0.263220
H217	H	0.645923	0.060344	-0.271055
H218	H	0.673267	0.002151	-0.299934
H219	H	0.701154	0.025433	-0.243087
O220	O	0.439304	-0.445940	0.000068
C221	C	0.436967	-0.416401	0.043024
H222	H	0.461833	-0.435040	0.073055
H223	H	0.397988	-0.410453	0.057448
H224	H	0.449189	-0.379826	0.033305
H225	H	0.057760	-0.062462	-0.000083
H226	H	0.412743	0.145454	-0.000021
O227	O	0.661101	-0.092968	-0.000056
C228	C	0.699668	-0.131401	-0.000070
H229	H	0.686380	-0.165552	0.015640
H230	H	0.730649	-0.121091	0.024011
H231	H	0.713160	-0.138637	-0.039870
O232	O	0.668794	-0.036599	-0.370256
C233	C	0.643019	-0.066238	-0.340165
H234	H	0.605112	-0.046614	-0.332273
H235	H	0.663249	-0.074222	-0.303472
H236	H	0.639855	-0.101845	-0.360416
H237	H	0.321291	0.144530	-0.000035
O238	O	0.635786	-0.003366	-0.870128
C239	C	0.628691	0.003743	-0.921816
H240	H	0.590128	0.022081	-0.928946
H241	H	0.634337	-0.032901	-0.941664
H242	H	0.655871	0.027795	-0.936633
H243	H	0.630595	0.001859	-0.134142
H244	H	0.083302	0.186251	-0.000038
H245	H	0.487892	-0.688875	-0.000020
O246	O	0.668975	-0.036482	-0.473094
C247	C	0.698188	-0.065695	-0.438839
H248	H	0.698573	-0.045874	-0.401617
H249	H	0.736850	-0.073333	-0.453913
H250	H	0.682766	-0.101498	-0.433286
O251	O	0.635783	-0.003458	-0.767142
C252	C	0.628278	-0.051245	-0.779939
H253	H	0.589575	-0.051197	-0.794288
H254	H	0.634023	-0.075565	-0.745614
H255	H	0.655165	-0.065617	-0.810263
O256	O	0.702827	-0.330962	-0.000042
C257	C	0.741390	-0.369399	-0.000057
H258	H	0.728098	-0.403549	0.015651
H259	H	0.772373	-0.359094	0.024026
H260	H	0.754883	-0.376634	-0.039858
O261	O	0.654824	-0.707965	0.000044
C262	C	0.681524	-0.724002	0.043000
H263	H	0.655595	-0.734299	0.073032
H264	H	0.701862	-0.693611	0.057422
H265	H	0.708707	-0.757061	0.033281
O266	O	0.653755	-0.807399	-0.000014
C267	C	0.643789	-0.855994	-0.000024
H268	H	0.605835	-0.857643	0.015679
H269	H	0.671742	-0.879042	0.024065
H270	H	0.645731	-0.870592	-0.039823
O271	O	0.439824	-0.394112	-0.000095
C272	C	0.436874	-0.422921	-0.043050
H273	H	0.462034	-0.411189	-0.073090
H274	H	0.397877	-0.418106	-0.057458
H275	H	0.448325	-0.462765	-0.033335
O276	O	0.505219	0.127135	-0.869986
C277	C	0.475999	0.156352	-0.835742
H278	H	0.475604	0.136535	-0.798520
H279	H	0.437341	0.163992	-0.850830
H280	H	0.491422	0.192155	-0.830186
