data_functionalizedCrystal
_audit_creation_method	'MofGen! by Chris Wilmer'
_symmetry_space_group_name_H-M	'P1'
_symmetry_Int_Tables_number	1
_symmetry_cell_setting	triclinic
loop_
_symmetry_equiv_pos_as_xyz
  x,y,z
_cell_length_a	23.532409
_cell_length_b	17.038272
_cell_length_c	16.098546
_cell_angle_alpha	92.921539
_cell_angle_beta	87.278796
_cell_angle_gamma	86.980558
loop_
_atom_site_label
_atom_site_type_symbol
_atom_site_fract_x
_atom_site_fract_y
_atom_site_fract_z
O1	O	0.121240	1.039956	0.069213
O2	O	0.119277	0.812340	0.069223
O3	O	0.037687	0.933011	0.069219
O4	O	0.202829	0.919285	0.069217
O5	O	0.042453	0.925989	-0.069294
O6	O	0.124042	0.805318	-0.069290
O7	O	0.126006	1.032934	-0.069299
Zn8	Zn	0.125781	0.918011	-0.091286
Zn9	Zn	0.119502	0.927263	0.091210
O10	O	0.207595	0.912263	-0.069295
C11	C	0.018836	0.929151	-0.000035
C12	C	-0.044437	0.928099	-0.000029
C13	C	0.119874	0.779714	-0.000032
C14	C	0.114547	0.692961	-0.000029
C15	C	0.125408	1.065560	-0.000042
C16	C	0.130735	1.152314	-0.000040
C17	C	-0.320515	0.927455	0.075478
C18	C	-0.261063	0.928431	0.075478
O19	O	-0.232520	0.932219	0.139688
N20	N	-0.228738	0.925087	-0.000027
C21	C	-0.255867	0.920774	-0.075536
O22	O	-0.222913	0.918019	-0.139758
C23	C	-0.315318	0.919803	-0.075535
C24	C	-0.347640	0.923139	-0.000026
C25	C	-0.352837	0.930792	0.150981
C26	C	-0.412284	0.929814	0.150981
C27	C	-0.439409	0.925499	0.075477
C28	C	-0.407088	0.922161	-0.000026
C29	C	-0.342447	0.915495	-0.151044
C30	C	-0.401902	0.914525	-0.151037
C31	C	-0.434224	0.917862	-0.075527
C32	C	-0.493660	0.916868	-0.075531
N33	N	-0.525986	0.920212	-0.000026
C34	C	-0.498860	0.924528	0.075478
C35	C	-0.131017	0.922814	-0.075532
C36	C	-0.071567	0.923780	-0.075534
C37	C	-0.076767	0.931439	0.075481
C38	C	-0.136218	0.930468	0.075482
C39	C	-0.163342	0.926159	-0.000027
C40	C	-0.623704	0.922473	0.075471
C41	C	-0.683156	0.921491	0.075464
C42	C	-0.677951	0.913836	-0.075550
C43	C	-0.618504	0.914814	-0.075543
C44	C	-0.591382	0.919135	-0.000026
O45	O	-0.522243	0.913085	-0.139708
O46	O	-0.531822	0.927292	0.139689
C47	C	0.226446	0.916124	-0.000039
C48	C	0.289719	0.917176	-0.000040
N49	N	0.130066	0.911703	-0.215835
C50	C	0.081830	1.202790	-0.000037
C51	C	0.086838	1.284303	-0.000040
C52	C	0.140752	1.315339	-0.000041
C53	C	0.189660	1.264857	-0.000046
C54	C	0.184652	1.183345	-0.000049
C55	C	0.158447	1.560966	-0.000037
C56	C	0.163452	1.642485	-0.000032
C57	C	0.060630	1.661926	-0.000027
C58	C	0.055625	1.580412	-0.000025
C59	C	0.104534	1.529936	-0.000035
C60	C	0.145872	1.398659	-0.000041
C61	C	0.099413	1.446618	-0.000041
C62	C	0.149832	0.882348	-0.740653
C63	C	0.146846	0.886778	-0.653465
C64	C	0.109243	0.942442	-0.609865
C65	C	0.074619	0.993674	-0.653459
C66	C	0.077602	0.989240	-0.740647
C67	C	0.098425	0.958501	-0.346616
C68	C	0.095446	0.962933	-0.259423
C69	C	0.167673	0.856035	-0.259434
C70	C	0.170655	0.851609	-0.346623
C71	C	0.136029	0.902838	-0.390210
C72	C	0.106191	0.946973	-0.520745
C73	C	0.139079	0.898303	-0.479329
N74	N	0.115212	0.933578	0.215759
H75	H	-0.709470	0.924205	0.136955
F76	F	0.220837	1.675513	-0.000033
F77	F	0.042036	1.413585	-0.000045
H78	H	0.169693	0.852979	-0.514830
H79	H	0.201275	0.806283	-0.382120
F80	F	-0.594847	0.927072	0.155845
F81	F	0.024447	1.169767	-0.000033
F82	F	-0.323977	0.935387	0.231350
F83	F	0.236703	1.129624	-0.000057
H84	H	0.075574	0.992297	-0.485239
H85	H	-0.162531	0.933183	0.136968
H86	H	-0.045254	0.921048	-0.137021
H87	H	0.011723	1.555149	-0.000025
F88	F	0.203250	1.431697	-0.000034
H89	H	0.175036	0.845062	-0.617976
H90	H	-0.316140	0.912786	-0.212532
H91	H	0.233558	1.290132	-0.000052
F92	F	-0.159879	0.918220	-0.155904
H93	H	-0.423983	0.911017	-0.212527
F94	F	0.204521	0.801515	-0.213041
F95	F	0.210501	1.507257	-0.000039
H96	H	0.043998	1.038994	-0.617956
H97	H	0.047015	1.325398	-0.000041
H98	H	0.180456	0.837024	-0.776146
H99	H	0.070232	1.000215	-0.382098
H100	H	-0.438596	0.932537	0.212468
H101	H	-0.054671	0.934950	0.136960
H102	H	-0.592184	0.912066	-0.137029
H103	H	0.049410	1.030956	-0.776135
F104	F	-0.706830	0.909238	-0.155902
H105	H	0.064823	1.008264	-0.223929
F106	F	0.008581	1.715651	-0.000021
