data_functionalizedCrystal
_audit_creation_method	'MofGen! by Chris Wilmer'
_symmetry_space_group_name_H-M	'P1'
_symmetry_Int_Tables_number	1
_symmetry_cell_setting	triclinic
loop_
_symmetry_equiv_pos_as_xyz
  x,y,z
_cell_length_a	15.297475
_cell_length_b	29.839131
_cell_length_c	15.298259
_cell_angle_alpha	80.280107
_cell_angle_beta	88.370891
_cell_angle_gamma	80.343089
loop_
_atom_site_label
_atom_site_type_symbol
_atom_site_fract_x
_atom_site_fract_y
_atom_site_fract_z
Zn1	Zn	1.253365	-0.224385	-0.726610
Zn2	Zn	1.278551	-0.314322	-0.580088
Zn3	Zn	1.132216	-0.228754	-0.554833
Zn4	Zn	1.106810	-0.289027	-0.701235
O5	O	1.192735	-0.264122	-0.640691
O6	O	1.379282	-0.245072	-0.728363
O7	O	1.280311	-0.315386	-0.454148
O8	O	1.148379	-0.165311	-0.577670
O9	O	1.397785	-0.311149	-0.620713
O10	O	1.237387	-0.162101	-0.703874
O11	O	1.172800	-0.252519	-0.435593
O12	O	1.006270	-0.227992	-0.553065
O13	O	1.105079	-0.268037	-0.827191
O14	O	0.987605	-0.272274	-0.660625
O15	O	1.212752	-0.220545	-0.845834
O16	O	1.255677	-0.373830	-0.596107
O17	O	1.129500	-0.355246	-0.685114
C18	C	0.965155	-0.247862	-0.601351
C19	C	0.867791	-0.240915	-0.584542
C20	C	1.192585	-0.380838	-0.640621
C21	C	1.192595	-0.430772	-0.640634
C22	C	0.554625	-0.313777	-0.760831
C23	C	0.646103	-0.320308	-0.776621
C24	C	0.701530	-0.300460	-0.728603
C25	C	0.665469	-0.274081	-0.664791
C26	C	0.573982	-0.267552	-0.648994
C27	C	0.720887	-0.254236	-0.616767
C28	C	0.684826	-0.227856	-0.552955
C29	C	0.593348	-0.221329	-0.537162
C30	C	0.537922	-0.241176	-0.585179
C31	C	0.812374	-0.260764	-0.632564
C32	C	0.831731	-0.214539	-0.520728
C33	C	0.740253	-0.208009	-0.504937
C34	C	1.258524	-0.750085	-0.594445
C35	C	1.258626	-0.937763	-0.594498
O36	O	1.314560	-0.970244	-0.555172
N37	N	1.192906	-0.951570	-0.640789
C38	C	1.127159	-0.918455	-0.687075
O39	O	1.071267	-0.934505	-0.726457
C40	C	1.127061	-0.730778	-0.687027
C41	C	1.192780	-0.716974	-0.640725
C42	C	1.324238	-0.736280	-0.548149
C43	C	1.324209	-0.689364	-0.548132
C44	C	1.258466	-0.656252	-0.594412
C45	C	1.192751	-0.670057	-0.640709
C46	C	1.061318	-0.697663	-0.733317
C47	C	1.061301	-0.650742	-0.733303
C48	C	1.127020	-0.636938	-0.687002
C49	C	1.126979	-0.590029	-0.686972
N50	N	1.192699	-0.576222	-0.640681
C51	C	1.258442	-0.609333	-0.594401
C52	C	1.127214	-1.016988	-0.687095
C53	C	1.127237	-1.063907	-0.687106
C54	C	1.258705	-1.083212	-0.594531
C55	C	1.258678	-1.036292	-0.594515
C56	C	1.192934	-1.003181	-0.640804
C57	C	1.258376	-0.510805	-0.594369
C58	C	1.258339	-0.463883	-0.594354
C59	C	1.126874	-0.444582	-0.686933
C60	C	1.126908	-0.491500	-0.686945
C61	C	1.192666	-0.524611	-0.640661
O62	O	1.071079	-0.557523	-0.726286
O63	O	1.314336	-0.593273	-0.555041
C64	C	1.258553	-0.797002	-0.594462
C65	C	1.192838	-0.810807	-0.640759
C66	C	1.127095	-0.777696	-0.687039
C67	C	1.192861	-0.857726	-0.640770
C68	C	1.258605	-0.890837	-0.594490
C69	C	1.324325	-0.877030	-0.548199
C70	C	1.324296	-0.830113	-0.548182
C71	C	1.061375	-0.791503	-0.733330
C72	C	1.061408	-0.838420	-0.733342
C73	C	1.127152	-0.871532	-0.687062
C74	C	1.421205	-0.280445	-0.680186
C75	C	1.518565	-0.287401	-0.697016
C76	C	1.153272	-0.240982	-0.869188
C77	C	1.136455	-0.231121	-0.966559
C78	C	1.192907	-0.146950	-0.640786
C79	C	1.192981	-0.097019	-0.640826
C80	C	1.312957	-0.334255	-1.279667
C81	C	1.328753	-0.343522	-1.188181
C82	C	1.280680	-0.315422	-1.132771
C83	C	1.216808	-0.278054	-1.168856
C84	C	1.201006	-0.268788	-1.260350
C85	C	1.168729	-0.249956	-1.113454
C86	C	1.104857	-0.212588	-1.149539
C87	C	1.089058	-0.203323	-1.241025
C88	C	1.137131	-0.231423	-1.296435
C89	C	1.184531	-0.259222	-1.021960
C90	C	1.072580	-0.193756	-1.002643
C91	C	1.056784	-0.184488	-1.094129
C92	C	1.232096	-0.287143	-0.413093
C93	C	1.249082	-0.296889	-0.315752
H94	H	0.841725	-0.282242	-0.684520
F95	F	1.328673	-1.118460	-0.545273
F96	F	1.120325	-0.221561	-1.393807
H97	H	1.007799	-0.708894	-0.771016
F98	F	0.991454	-0.853105	-0.782623
H99	H	0.463432	-0.235859	-0.572328
H100	H	1.311856	-0.452647	-0.556646
H101	H	0.776015	-0.305779	-0.741464
F102	F	1.056910	-0.409335	-0.736187
F103	F	0.988809	-0.144720	-1.132545
F104	F	1.021405	-0.163852	-0.943675
F105	F	0.684476	-0.348382	-0.844530
H106	H	0.509490	-0.329937	-0.799915
H107	H	1.073396	-0.502739	-0.724650
H108	H	0.563993	-0.199854	-0.485193
H109	H	1.073675	-0.990031	-0.724790
H110	H	1.380749	-0.373951	-1.158806
F111	F	0.701863	-0.179934	-0.437026
F112	F	0.890716	-0.193417	-0.469616
H113	H	1.311924	-0.537759	-0.556683
F114	F	1.394246	-0.815428	-0.498904
F115	F	1.394165	-0.674679	-0.498863
H116	H	1.377779	-0.763236	-0.510462
F117	F	0.991398	-0.756268	-0.782591
F118	F	1.328624	-1.021605	-0.545236
F119	F	1.057282	-1.078593	-0.736375
H120	H	1.007765	-0.623784	-0.771000
F121	F	1.394292	-0.912278	-0.498941
F122	F	1.252507	-0.298991	-0.983566
H123	H	1.293544	-0.322971	-1.058280
H124	H	1.352085	-0.357132	-1.324788
F125	F	1.021051	-0.163565	-1.279421
