data_functionalizedCrystal
_audit_creation_method	'MofGen! by Chris Wilmer'
_symmetry_space_group_name_H-M	'P1'
_symmetry_Int_Tables_number	1
_symmetry_cell_setting	triclinic
loop_
_symmetry_equiv_pos_as_xyz
  x,y,z
_cell_length_a	19.188930
_cell_length_b	19.188930
_cell_length_c	15.186229
_cell_angle_alpha	89.991143
_cell_angle_beta	89.982767
_cell_angle_gamma	83.144779
loop_
_atom_site_label
_atom_site_type_symbol
_atom_site_fract_x
_atom_site_fract_y
_atom_site_fract_z
O1	O	0.926144	0.087167	-0.073521
O2	O	0.722832	0.098901	-0.073462
O3	O	0.830355	-0.008622	-0.073476
O4	O	0.818621	0.194689	-0.073507
O5	O	0.830348	-0.008623	0.072981
O6	O	0.722825	0.098899	0.072995
O7	O	0.926137	0.087165	0.072936
Zn8	Zn	0.824480	0.093032	0.096219
Zn9	Zn	0.824489	0.093034	-0.096745
O10	O	0.818614	0.194688	0.072950
C11	C	0.696818	0.098520	-0.000226
C12	C	0.619313	0.097380	-0.000203
C13	C	0.574389	0.160470	-0.000226
C14	C	0.501566	0.159399	-0.000236
C15	C	0.473669	0.095233	-0.000239
C16	C	0.518603	0.032133	-0.000211
C17	C	0.591425	0.033207	-0.000193
N18	N	0.365691	0.046186	-0.050113
N19	N	0.296513	0.045171	-0.050132
C20	C	0.254260	0.091994	-0.000293
N21	N	0.283799	0.139883	0.049556
N22	N	0.352983	0.140900	0.049571
C23	C	0.394707	0.094062	-0.000259
C24	C	0.130372	0.153928	-0.000325
C25	C	0.057547	0.152853	-0.000329
C26	C	0.074586	0.025586	-0.000314
C27	C	0.147409	0.026662	-0.000301
C28	C	0.175298	0.090835	-0.000311
C29	C	0.829972	-0.034634	-0.000245
C30	C	0.828831	-0.112138	-0.000237
C31	C	0.891922	-0.157062	-0.000251
C32	C	0.890850	-0.229886	-0.000265
C33	C	0.826684	-0.257782	-0.000247
C34	C	0.763585	-0.212849	-0.000238
C35	C	0.764658	-0.140026	-0.000233
N36	N	0.777634	-0.365788	0.049609
N37	N	0.776619	-0.434966	0.049606
C38	C	0.823446	-0.477191	-0.000264
N39	N	0.871337	-0.447625	-0.050121
N40	N	0.872355	-0.378440	-0.050114
C41	C	0.825513	-0.336745	-0.000253
C42	C	0.885379	-0.601079	-0.000294
C43	C	0.884305	-0.673904	-0.000314
C44	C	0.757038	-0.656865	-0.000278
C45	C	0.758114	-0.584042	-0.000267
C46	C	0.822286	-0.556154	-0.000271
C47	C	0.952151	0.087546	-0.000303
C48	C	1.029656	0.088687	-0.000332
C49	C	0.818997	0.220700	-0.000283
C50	C	0.820138	0.298204	-0.000297
N51	N	0.824479	0.093030	0.227911
N52	N	0.824496	0.093030	-0.228438
C53	C	0.872106	0.045435	0.453628
C54	C	0.872108	0.045434	0.545818
C55	C	0.776864	0.140628	0.545839
C56	C	0.776859	0.140626	0.453651
C57	C	0.824484	0.093030	0.407548
C58	C	0.824491	0.093031	0.591925
C59	C	0.824493	0.093029	0.691882
C60	C	0.824481	0.093030	0.307585
H61	H	0.495885	-0.020111	-0.000226
Br62	Br	0.976479	-0.290866	-0.000288
H63	H	0.738076	0.179383	0.416130
Br64	Br	0.972468	-0.563226	-0.000291
H65	H	0.051874	-0.026659	-0.000371
Br66	Br	0.612235	0.247561	-0.000238
H67	H	0.628003	-0.018171	-0.000174
H68	H	0.738090	0.179380	0.583385
Br69	Br	-0.003424	0.238485	-0.000353
Br70	Br	0.168225	0.241017	-0.000333
Br71	Br	0.440585	0.245028	-0.000262
H72	H	0.935683	-0.710481	-0.000330
Br73	Br	0.936738	-0.019160	0.391062
Br74	Br	0.208382	-0.058966	-0.000271
Br75	Br	0.669953	-0.694717	-0.000262
H76	H	0.910885	0.006677	0.583333
H77	H	0.944176	-0.134360	-0.000258
H78	H	0.711340	-0.235567	-0.000225
Br79	Br	0.679028	-0.079054	-0.000216
H80	H	0.706738	-0.547464	-0.000251
