data_functionalizedCrystal
_audit_creation_method	'MofGen! by Chris Wilmer'
_symmetry_space_group_name_H-M	'P1'
_symmetry_Int_Tables_number	1
_symmetry_cell_setting	triclinic
loop_
_symmetry_equiv_pos_as_xyz
  x,y,z
_cell_length_a	19.288864
_cell_length_b	16.992695
_cell_length_c	17.766277
_cell_angle_alpha	89.993690
_cell_angle_beta	89.976791
_cell_angle_gamma	86.902234
loop_
_atom_site_label
_atom_site_type_symbol
_atom_site_fract_x
_atom_site_fract_y
_atom_site_fract_z
O1	O	0.927053	0.097795	-0.062838
O2	O	1.260386	0.431129	0.270495
O3	O	1.593719	0.764462	0.603829
O4	O	0.725561	0.110988	-0.062787
O5	O	1.058894	0.444321	0.270547
O6	O	1.392228	0.777654	0.603880
O7	O	0.825499	-0.009748	-0.062806
O8	O	1.158832	0.323585	0.270527
O9	O	1.492166	0.656918	0.603861
O10	O	0.827114	0.218531	-0.062819
O11	O	1.160448	0.551865	0.270515
O12	O	1.493781	0.885198	0.603848
O13	O	0.825480	-0.009754	0.062382
O14	O	1.158813	0.323579	0.395716
O15	O	1.492147	0.656912	0.729049
O16	O	0.725542	0.110982	0.062402
O17	O	1.058875	0.444315	0.395735
O18	O	1.392208	0.777648	0.729068
O19	O	0.927034	0.097789	0.062351
O20	O	1.260367	0.431123	0.395684
O21	O	1.593700	0.764456	0.729017
Cu22	Cu	0.826286	0.104385	0.073807
Cu23	Cu	1.159619	0.437718	0.407140
Cu24	Cu	1.492953	0.771052	0.740474
Cu25	Cu	0.826308	0.104392	-0.074243
Cu26	Cu	1.159642	0.437725	0.259090
Cu27	Cu	1.492975	0.771059	0.592424
O28	O	0.827095	0.218525	0.062370
O29	O	1.160429	0.551859	0.395703
O30	O	1.493762	0.885192	0.729037
C31	C	0.699650	0.110560	-0.000186
C32	C	1.032983	0.443893	0.333147
C33	C	1.366317	0.777227	0.666481
C34	C	0.622472	0.109286	-0.000166
C35	C	0.955806	0.442619	0.333167
C36	C	1.289139	0.775953	0.666501
C37	C	0.823411	-0.038957	-0.000211
C38	C	1.156745	0.294377	0.333122
C39	C	1.490078	0.627710	0.666455
C40	C	0.817211	-0.125979	-0.000210
C41	C	1.150544	0.207355	0.333123
C42	C	1.483877	0.540688	0.666457
C43	C	0.581905	0.180128	-0.000182
C44	C	0.915238	0.513462	0.333152
C45	C	1.248571	0.846795	0.666485
C46	C	0.509388	0.178931	-0.000190
C47	C	0.842721	0.512265	0.333143
C48	C	1.176055	0.845598	0.666477
C49	C	0.477442	0.106888	-0.000198
C50	C	0.810775	0.440221	0.333136
C51	C	1.144108	0.773554	0.666469
C52	C	0.518018	0.036036	-0.000178
C53	C	0.851352	0.369369	0.333156
C54	C	1.184685	0.702703	0.666489
C55	C	0.590534	0.037235	-0.000162
C56	C	0.923867	0.370568	0.333171
C57	C	1.257200	0.703902	0.666505
C58	C	0.365886	0.050256	-0.044079
C59	C	0.699219	0.383589	0.289254
C60	C	1.032552	0.716922	0.622588
C61	C	0.293371	0.049059	-0.044099
C62	C	0.626705	0.382393	0.289234
C63	C	0.960038	0.715726	0.622567
C64	C	0.253780	0.103186	-0.000243
C65	C	0.587114	0.436519	0.333090
C66	C	0.920447	0.769853	0.666424
C67	C	0.286711	0.158522	0.043624
C68	C	0.620045	0.491856	0.376957
C69	C	0.953378	0.825189	0.710291
C70	C	0.359227	0.159722	0.043640
C71	C	0.692560	0.493055	0.376973
C72	C	1.025893	0.826388	0.710307
C73	C	0.398811	0.105579	-0.000214
C74	C	0.732145	0.438913	0.333119
C75	C	1.065478	0.772246	0.666452
C76	C	0.134581	0.172735	-0.000267
C77	C	0.467915	0.506069	0.333067
C78	C	0.801248	0.839402	0.666400
C79	C	0.062063	0.171535	-0.000270
C80	C	0.395397	0.504869	0.333063
C81	C	0.728730	0.838202	0.666396
C82	C	0.070695	0.028638	-0.000266
C83	C	0.404029	0.361971	0.333068
C84	C	0.737362	0.695305	0.666401
C85	C	0.143212	0.029840	-0.000254
C86	C	0.476545	0.363173	0.333079
C87	C	0.809879	0.696507	0.666412
C88	C	0.175150	0.101891	-0.000259
C89	C	0.508484	0.435224	0.333075
C90	C	0.841817	0.768558	0.666408
C91	C	0.877039	-0.176431	-0.000224
C92	C	1.210372	0.156903	0.333109
C93	C	1.543705	0.490236	0.666442
C94	C	0.871208	-0.258197	-0.000230
C95	C	1.204542	0.075137	0.333103
C96	C	1.537875	0.408470	0.666437
C97	C	0.805549	-0.289509	-0.000216
C98	C	1.138883	0.043824	0.333117
C99	C	1.472216	0.377157	0.666451
C100	C	0.745717	-0.239051	-0.000204
C101	C	1.079050	0.094282	0.333129
C102	C	1.412383	0.427616	0.666463
C103	C	0.751548	-0.157287	-0.000204
C104	C	1.084881	0.176047	0.333130
C105	C	1.418214	0.509380	0.666463
C106	C	0.781382	-0.533022	-0.000220
C107	C	1.114715	-0.199688	0.333113
C108	C	1.448049	0.133645	0.666446
C109	C	0.775556	-0.614793	-0.000218
C110	C	1.108889	-0.281459	0.333115
C111	C	1.442222	0.051874	0.666448
C112	C	0.901048	-0.633933	-0.000246
C113	C	1.234381	-0.300599	0.333087
C114	C	1.567715	0.032734	0.666421
C115	C	0.906873	-0.552166	-0.000241
C116	C	1.240207	-0.218832	0.333092
C117	C	1.573540	0.114501	0.666426
C118	C	0.847041	-0.501715	-0.000233
C119	C	1.180374	-0.168381	0.333100
C120	C	1.513707	0.164952	0.666434
N121	N	0.799588	-0.373087	-0.000219
N122	N	1.132922	-0.039754	0.333114
N123	N	1.466255	0.293580	0.666447
N124	N	0.853002	-0.418138	-0.000235
N125	N	1.186336	-0.084805	0.333098
N126	N	1.519669	0.248528	0.666432
C127	C	0.952944	0.098217	-0.000252
C128	C	1.286278	0.431550	0.333081
C129	C	1.619611	0.764883	0.666415
C130	C	1.030122	0.099491	-0.000277
C131	C	1.363455	0.432824	0.333057
C132	C	1.696789	0.766158	0.666390
C133	C	0.829183	0.247733	-0.000226
C134	C	1.162516	0.581067	0.333107
C135	C	1.495850	0.914400	0.666440
C136	C	0.835384	0.334756	-0.000233
C137	C	1.168717	0.668089	0.333101
C138	C	1.502051	1.001422	0.666434
N139	N	0.826275	0.104379	0.177937
N140	N	1.159608	0.437713	0.511271
N141	N	1.492942	0.771046	0.844604
N142	N	0.826324	0.104391	-0.178373
N143	N	1.159658	0.437725	0.154960
N144	N	1.492991	0.771058	0.488293
C145	C	0.870544	0.050944	0.217316
C146	C	1.203878	0.384277	0.550649
C147	C	1.537211	0.717610	0.883982
C148	C	0.870548	0.050940	0.296117
C149	C	1.203882	0.384273	0.629451
C150	C	1.537215	0.717607	0.962784
C151	C	0.826290	0.104385	0.335538
C152	C	1.159623	0.437719	0.668871
C153	C	1.492957	0.771052	1.002204
C154	C	0.782012	0.157825	0.296150
C155	C	1.115345	0.491159	0.629483
C156	C	1.448679	0.824492	0.962817
C157	C	0.782005	0.157822	0.217350
C158	C	1.115338	0.491156	0.550683
C159	C	1.448671	0.824489	0.884016
C160	C	0.821154	0.175815	0.460373
C161	C	1.154488	0.509148	0.793707
C162	C	1.487821	0.842481	1.127040
C163	C	0.821167	0.175819	0.539172
C164	C	1.154500	0.509152	0.872506
C165	C	1.487833	0.842485	1.205839
C166	C	0.826309	0.104395	0.578584
C167	C	1.159642	0.437728	0.911917
C168	C	1.492976	0.771062	1.245251
C169	C	0.831454	0.032964	0.539188
C170	C	1.164787	0.366297	0.872521
C171	C	1.498121	0.699631	1.205854
C172	C	0.831446	0.032961	0.460387
C173	C	1.164780	0.366294	0.793721
C174	C	1.498113	0.699627	1.127054
C175	C	0.826293	0.104394	0.420983
C176	C	1.159626	0.437728	0.754317
C177	C	1.492960	0.771061	1.087650
C178	C	0.870585	0.050951	0.703408
C179	C	1.203918	0.384284	1.036742
C180	C	1.537252	0.717617	1.370075
C181	C	0.870584	0.050946	0.782212
C182	C	1.203917	0.384279	1.115545
C183	C	1.537251	0.717613	1.448878
C184	C	0.782051	0.157838	0.782243
C185	C	1.115385	0.491172	1.115576
C186	C	1.448718	0.824505	1.448909
C187	C	0.782049	0.157836	0.703441
C188	C	1.115382	0.491170	1.036774
C189	C	1.448715	0.824503	1.370108
C190	C	0.826319	0.104393	0.664029
C191	C	1.159653	0.437727	0.997362
C192	C	1.492986	0.771060	1.330695
H193	H	0.607904	0.238798	-0.000187
H194	H	0.941238	0.572131	0.333147
H195	H	1.274571	0.905464	0.666480
H196	H	0.029034	0.229226	-0.000279
H197	H	0.362367	0.562559	0.333055
H198	H	0.695700	0.895893	0.666388
Cl199	Cl	0.194214	-0.059224	-0.000239
Cl200	Cl	0.527547	0.274109	0.333094
Cl201	Cl	0.860881	0.607442	0.666427
H202	H	0.476351	0.236621	-0.000201
H203	H	0.809685	0.569955	0.333133
H204	H	1.143018	0.903288	0.666466
Cl205	Cl	0.251979	-0.020498	-0.099254
Cl206	Cl	0.585313	0.312835	0.234080
Cl207	Cl	0.918646	0.646169	0.567413
Cl208	Cl	0.400624	0.229280	0.098788
Cl209	Cl	0.733957	0.562613	0.432121
Cl210	Cl	1.067291	0.895947	0.765455
H211	H	0.160587	0.231403	-0.000259
H212	H	0.493920	0.564737	0.333074
H213	H	0.827254	0.898070	0.666408
H214	H	0.906599	0.007424	0.328185
H215	H	1.239932	0.340758	0.661518
H216	H	1.573265	0.674091	0.994852
H217	H	0.732662	-0.491954	-0.000213
H218	H	1.065995	-0.158620	0.333120
H219	H	1.399328	0.174713	0.666453
H220	H	0.906631	0.007428	0.814274
H221	H	1.239964	0.340761	1.147607
H222	H	1.573298	0.674095	1.480941
H223	H	0.254478	0.202597	0.079337
H224	H	0.587811	0.535931	0.412670
H225	H	0.921144	0.869264	0.746003
H226	H	0.044686	-0.030021	-0.000318
H227	H	0.378019	0.303312	0.333015
H228	H	0.711352	0.636645	0.666348
H229	H	0.692255	-0.264552	-0.000197
H230	H	1.025589	0.068781	0.333136
H231	H	1.358922	0.402115	0.666470
H232	H	0.746003	0.201352	0.671377
H233	H	1.079337	0.534685	1.004710
H234	H	1.412670	0.868019	1.338044
H235	H	0.816955	0.233980	0.428291
H236	H	1.150288	0.567313	0.761624
H237	H	1.483621	0.900647	1.094957
Cl238	Cl	0.415650	-0.017797	-0.099218
Cl239	Cl	0.748983	0.315537	0.234115
Cl240	Cl	1.082317	0.648870	0.567448
Cl241	Cl	0.976261	-0.697360	-0.000259
Cl242	Cl	1.309595	-0.364027	0.333075
Cl243	Cl	1.642928	-0.030694	0.666408
Cl244	Cl	0.926235	-0.016238	0.653860
Cl245	Cl	1.259568	0.317095	0.987193
Cl246	Cl	1.592902	0.650428	1.320527
H247	H	0.722085	-0.640283	-0.000195
H248	H	1.055419	-0.306950	0.333139
H249	H	1.388752	0.026383	0.666472
Cl250	Cl	0.726370	0.225011	0.345705
Cl251	Cl	1.059703	0.558345	0.679039
Cl252	Cl	1.393037	0.891678	1.012372
H253	H	0.492003	-0.022623	-0.000194
H254	H	0.825337	0.310711	0.333139
H255	H	1.158670	0.644044	0.666472
Cl256	Cl	0.676332	-0.093861	-0.000188
Cl257	Cl	1.009665	0.239473	0.333145
Cl258	Cl	1.342998	0.572806	0.666478
H259	H	0.930505	-0.150943	-0.000231
H260	H	1.263839	0.182390	0.333102
H261	H	1.597172	0.515724	0.666435
H262	H	0.906590	0.007425	0.185228
H263	H	1.239924	0.340759	0.518562
H264	H	1.573257	0.674092	0.851895
Cl265	Cl	0.837925	-0.056832	0.588725
Cl266	Cl	1.171258	0.276501	0.922058
Cl267	Cl	1.504591	0.609834	1.255391
Cl268	Cl	0.946425	-0.321619	-0.000246
Cl269	Cl	1.279758	0.011714	0.333087
Cl270	Cl	1.613092	0.345048	0.666421
Cl271	Cl	0.814704	0.265616	0.588691
Cl272	Cl	1.148037	0.598950	0.922025
Cl273	Cl	1.481371	0.932283	1.255358
H274	H	0.623564	-0.020455	-0.000150
H275	H	0.956897	0.312878	0.333184
H276	H	1.290231	0.646211	0.666517
H277	H	0.960340	-0.526677	-0.000253
H278	H	1.293673	-0.193344	0.333081
H279	H	1.627007	0.139989	0.666414
Cl280	Cl	0.837906	-0.056834	0.410863
Cl281	Cl	1.171239	0.276500	0.744196
Cl282	Cl	1.504572	0.609833	1.077529
Cl283	Cl	0.726407	0.225022	0.831794
Cl284	Cl	1.059740	0.558355	1.165128
Cl285	Cl	1.393074	0.891688	1.498461
H286	H	0.745954	0.201337	0.185287
H287	H	1.079288	0.534670	0.518620
H288	H	1.412621	0.868003	0.851954
