data_functionalizedCrystal
_audit_creation_method	'MofGen! by Chris Wilmer'
_symmetry_space_group_name_H-M	'P1'
_symmetry_Int_Tables_number	1
_symmetry_cell_setting	triclinic
loop_
_symmetry_equiv_pos_as_xyz
  x,y,z
_cell_length_a	15.995350
_cell_length_b	17.038272
_cell_length_c	15.072220
_cell_angle_alpha	89.999202
_cell_angle_beta	89.991149
_cell_angle_gamma	87.301966
loop_
_atom_site_label
_atom_site_type_symbol
_atom_site_fract_x
_atom_site_fract_y
_atom_site_fract_z
O1	O	1.118174	0.100774	-0.073708
O2	O	1.368174	0.350774	0.176292
O3	O	1.618174	0.600774	0.426292
O4	O	1.868174	0.850774	0.676292
O5	O	0.875285	0.113219	-0.073726
O6	O	1.125285	0.363219	0.176274
O7	O	1.375285	0.613219	0.426274
O8	O	1.625285	0.863219	0.676274
O9	O	0.995286	-0.006819	-0.073710
O10	O	1.245286	0.243181	0.176290
O11	O	1.495286	0.493181	0.426290
O12	O	1.745286	0.743181	0.676290
O13	O	0.998173	0.220812	-0.073724
O14	O	1.248173	0.470812	0.176276
O15	O	1.498173	0.720812	0.426276
O16	O	1.748173	0.970812	0.676276
O17	O	0.995255	-0.006813	0.073855
O18	O	1.245255	0.243187	0.323855
O19	O	1.495255	0.493187	0.573855
O20	O	1.745255	0.743187	0.823855
O21	O	0.875254	0.113226	0.073839
O22	O	1.125254	0.363226	0.323839
O23	O	1.375254	0.613226	0.573839
O24	O	1.625254	0.863226	0.823839
O25	O	1.118143	0.100781	0.073857
O26	O	1.368143	0.350781	0.323857
O27	O	1.618143	0.600781	0.573857
O28	O	1.868143	0.850781	0.823857
Zn29	Zn	0.996694	0.107004	0.097277
Zn30	Zn	1.246694	0.357004	0.347277
Zn31	Zn	1.496694	0.607004	0.597277
Zn32	Zn	1.746694	0.857004	0.847277
Zn33	Zn	0.996735	0.106995	-0.097146
Zn34	Zn	1.246735	0.356995	0.152854
Zn35	Zn	1.496735	0.606995	0.402854
Zn36	Zn	1.746735	0.856995	0.652854
O37	O	0.998142	0.220819	0.073841
O38	O	1.248142	0.470819	0.323841
O39	O	1.498142	0.720819	0.573841
O40	O	1.748142	0.970819	0.823841
C41	C	0.844038	0.112708	0.000054
C42	C	1.094038	0.362708	0.250054
C43	C	1.344038	0.612708	0.500054
C44	C	1.594038	0.862708	0.750054
C45	C	0.750978	0.111165	0.000047
C46	C	1.000978	0.361165	0.250047
C47	C	1.250978	0.611165	0.500047
C48	C	1.500978	0.861165	0.750047
C49	C	0.992645	-0.035945	0.000072
C50	C	1.242645	0.214055	0.250072
C51	C	1.492645	0.464055	0.500072
C52	C	1.742645	0.714055	0.750072
C53	C	0.984810	-0.122740	0.000071
C54	C	1.234810	0.127260	0.250071
C55	C	1.484810	0.377260	0.500071
C56	C	1.734810	0.627260	0.750071
C57	C	0.412836	0.105626	0.000066
C58	C	0.662836	0.355626	0.250066
C59	C	0.912836	0.605626	0.500066
C60	C	1.162836	0.855626	0.750066
C61	C	0.454180	0.020137	0.000400
C62	C	0.704180	0.270137	0.250400
C63	C	0.954180	0.520137	0.500400
C64	C	1.204180	0.770137	0.750400
C65	C	0.550981	0.021680	0.000062
C66	C	0.800981	0.271680	0.250062
C67	C	1.050981	0.521680	0.500062
C68	C	1.300981	0.771680	0.750062
C69	C	0.580592	0.108374	0.000057
C70	C	0.830592	0.358374	0.250057
C71	C	1.080592	0.608374	0.500057
C72	C	1.330592	0.858374	0.750057
C73	C	0.542527	0.150536	-0.084209
C74	C	0.792527	0.400536	0.165791
C75	C	1.042527	0.650536	0.415791
C76	C	1.292527	0.900536	0.665791
C77	C	0.445738	0.148388	-0.084273
C78	C	0.695738	0.398388	0.165727
C79	C	0.945738	0.648388	0.415727
C80	C	1.195738	0.898388	0.665727
C81	C	0.445489	0.150162	0.083536
C82	C	0.695489	0.400162	0.333536
C83	C	0.945489	0.650162	0.583536
C84	C	1.195489	0.900162	0.833536
C85	C	0.542433	0.150142	0.084644
C86	C	0.792433	0.400142	0.334644
C87	C	1.042433	0.650142	0.584644
C88	C	1.292433	0.900142	0.834644
C89	C	0.675401	0.109931	0.000049
C90	C	0.925401	0.359931	0.250049
C91	C	1.175401	0.609931	0.500049
C92	C	1.425401	0.859931	0.750049
C93	C	0.318027	0.104071	0.000068
C94	C	0.568027	0.354071	0.250068
C95	C	0.818027	0.604071	0.500068
C96	C	1.068027	0.854071	0.750068
C97	C	1.056739	-0.172836	0.000078
C98	C	1.306739	0.077164	0.250078
C99	C	1.556739	0.327164	0.500078
C100	C	1.806739	0.577164	0.750078
C101	C	1.049373	-0.254389	0.000069
C102	C	1.299373	-0.004389	0.250069
C103	C	1.549373	0.245611	0.500069
C104	C	1.799373	0.495611	0.750069
C105	C	0.970077	-0.285843	0.000060
C106	C	1.220077	-0.035843	0.250060
C107	C	1.470077	0.214157	0.500060
C108	C	1.720077	0.464157	0.750060
C109	C	0.898143	-0.235740	0.000051
C110	C	1.148143	0.014260	0.250051
C111	C	1.398143	0.264260	0.500051
C112	C	1.648143	0.514260	0.750051
C113	C	0.905510	-0.154189	0.000053
C114	C	1.155510	0.095811	0.250053
C115	C	1.405510	0.345811	0.500053
C116	C	1.655510	0.595811	0.750053
C117	C	0.944051	-0.531607	0.000046
C118	C	1.194051	-0.281607	0.250046
C119	C	1.444051	-0.031607	0.500046
C120	C	1.694051	0.218393	0.750046
C121	C	0.936689	-0.613164	0.000046
C122	C	1.186689	-0.363164	0.250046
C123	C	1.436689	-0.113164	0.500046
C124	C	1.686689	0.136836	0.750046
C125	C	1.087920	-0.631807	0.000062
C126	C	1.337920	-0.381807	0.250062
C127	C	1.587920	-0.131807	0.500062
C128	C	1.837920	0.118193	0.750062
C129	C	1.095280	-0.550254	0.000070
C130	C	1.345280	-0.300254	0.250070
C131	C	1.595280	-0.050254	0.500070
C132	C	1.845280	0.199746	0.750070
C133	C	1.023346	-0.500158	0.000056
C134	C	1.273346	-0.250158	0.250056
C135	C	1.523346	-0.000158	0.500056
C136	C	1.773346	0.249842	0.750056
C137	C	0.962546	-0.369202	0.000053
C138	C	1.212546	-0.119202	0.250053
C139	C	1.462546	0.130798	0.500053
C140	C	1.712546	0.380798	0.750053
C141	C	1.030878	-0.416801	0.000056
C142	C	1.280878	-0.166801	0.250056
C143	C	1.530878	0.083199	0.500056
C144	C	1.780878	0.333199	0.750056
C145	C	1.149390	0.101292	0.000075
C146	C	1.399390	0.351292	0.250075
C147	C	1.649390	0.601292	0.500075
C148	C	1.899390	0.851292	0.750075
C149	C	1.242450	0.102834	0.000076
C150	C	1.492450	0.352834	0.250076
C151	C	1.742450	0.602834	0.500076
C152	C	1.992450	0.852834	0.750076
C153	C	1.000784	0.249944	0.000057
C154	C	1.250784	0.499944	0.250057
C155	C	1.500784	0.749944	0.500057
C156	C	1.750784	0.999944	0.750057
C157	C	1.008618	0.336739	0.000052
C158	C	1.258618	0.586739	0.250052
C159	C	1.508618	0.836739	0.500052
C160	C	1.758618	1.086739	0.750052
N161	N	0.996671	0.107010	0.229966
N162	N	1.246671	0.357010	0.479966
N163	N	1.496671	0.607010	0.729966
N164	N	1.746671	0.857010	0.979966
N165	N	0.996763	0.106984	-0.229835
N166	N	1.246763	0.356984	0.020165
N167	N	1.496763	0.606984	0.270165
N168	N	1.746763	0.856984	0.520165
C169	C	0.996733	0.106992	0.589168
C170	C	1.246733	0.356992	0.839168
C171	C	1.496733	0.606992	1.089168
C172	C	1.746733	0.856992	1.339168
C173	C	0.932276	0.171007	0.551552
C174	C	1.182276	0.421007	0.801552
C175	C	1.432276	0.671007	1.051552
C176	C	1.682276	0.921007	1.301552
C177	C	0.932451	0.171241	0.448726
C178	C	1.182451	0.421241	0.698726
C179	C	1.432451	0.671241	0.948726
C180	C	1.682451	0.921241	1.198726
C181	C	0.996702	0.107001	0.410963
C182	C	1.246702	0.357001	0.660963
C183	C	1.496702	0.607001	0.910963
C184	C	1.746702	0.857001	1.160963
C185	C	1.085336	0.124819	0.448260
C186	C	1.335336	0.374819	0.698260
C187	C	1.585336	0.624819	0.948260
C188	C	1.835336	0.874819	1.198260
C189	C	1.084981	0.125274	0.551118
C190	C	1.334981	0.375274	0.801118
C191	C	1.584981	0.625274	1.051118
C192	C	1.834981	0.875274	1.301118
C193	C	0.973321	0.024970	0.551271
C194	C	1.223321	0.274970	0.801271
C195	C	1.473321	0.524970	1.051271
C196	C	1.723321	0.774970	1.301271
C197	C	0.971355	0.025517	0.448408
C198	C	1.221355	0.275517	0.698408
C199	C	1.471355	0.525517	0.948408
C200	C	1.721355	0.775517	1.198408
C201	C	0.996689	0.107004	0.310250
C202	C	1.246689	0.357004	0.560250
C203	C	1.496689	0.607004	0.810250
C204	C	1.746689	0.857004	1.060250
C205	C	0.996751	0.106991	0.689881
C206	C	1.246751	0.356991	0.939881
C207	C	1.496751	0.606991	1.189881
C208	C	1.746751	0.856991	1.439881
H209	H	0.577036	-0.011462	0.060467
H210	H	0.827036	0.238538	0.310467
H211	H	1.077036	0.488538	0.560467
H212	H	1.327036	0.738538	0.810467
H213	H	0.909778	0.007836	0.577258
H214	H	1.159778	0.257836	0.827258
H215	H	1.409778	0.507836	1.077258
H216	H	1.659778	0.757836	1.327258
H217	H	1.107945	-0.295174	0.000076
H218	H	1.357945	-0.045174	0.250076
H219	H	1.607945	0.204826	0.500076
H220	H	1.857945	0.454826	0.750076
H221	H	0.897983	-0.394821	0.000048
H222	H	1.147983	-0.144821	0.250048
H223	H	1.397983	0.105179	0.500048
H224	H	1.647983	0.355179	0.750048
H225	H	0.833579	-0.261356	0.000038
H226	H	1.083579	-0.011356	0.250038
H227	H	1.333579	0.238644	0.500038
H228	H	1.583579	0.488644	0.750038
H229	H	0.906125	0.011995	0.424032
H230	H	1.156125	0.261995	0.674032
H231	H	1.406125	0.511995	0.924032
H232	H	1.656125	0.761995	1.174032
H233	H	1.014806	-0.024351	0.422706
H234	H	1.264806	0.225649	0.672706
H235	H	1.514806	0.475649	0.922706
H236	H	1.764806	0.725649	1.172706
H237	H	1.020258	-0.022668	0.575596
H238	H	1.270258	0.227332	0.825596
H239	H	1.520258	0.477332	1.075596
H240	H	1.770258	0.727332	1.325596
H241	H	1.121310	-0.147233	0.000090
H242	H	1.371310	0.102767	0.250090
H243	H	1.621310	0.352767	0.500090
H244	H	1.871310	0.602767	0.750090
H245	H	1.146484	-0.672604	0.000071
H246	H	1.396484	-0.422604	0.250071
H247	H	1.646484	-0.172604	0.500071
H248	H	1.896484	0.077396	0.750071
H249	H	1.134752	0.080487	0.575999
H250	H	1.384752	0.330487	0.825999
H251	H	1.634752	0.580487	1.075999
H252	H	1.884752	0.830487	1.325999
H253	H	0.846938	-0.113400	0.000048
H254	H	1.096938	0.136600	0.250048
H255	H	1.346938	0.386600	0.500048
H256	H	1.596938	0.636600	0.750048
H257	H	0.885477	-0.490828	0.000035
H258	H	1.135477	-0.240828	0.250035
H259	H	1.385477	0.009172	0.500035
H260	H	1.635477	0.259172	0.750035
H261	H	1.095440	-0.391187	0.000044
H262	H	1.345440	-0.141187	0.250044
H263	H	1.595440	0.108813	0.500044
H264	H	1.845440	0.358813	0.750044
H265	H	0.433211	-0.014032	0.060831
H266	H	0.683211	0.235968	0.310831
H267	H	0.933211	0.485968	0.560831
H268	H	1.183211	0.735968	0.810831
H269	H	0.947652	0.231532	0.577388
H270	H	1.197652	0.481532	0.827388
H271	H	1.447652	0.731532	1.077388
H272	H	1.697652	0.981532	1.327388
H273	H	0.432177	-0.013880	-0.059693
H274	H	0.682177	0.236120	0.190307
H275	H	0.932177	0.486120	0.440307
H276	H	1.182177	0.736120	0.690307
H277	H	0.872114	-0.638770	0.000053
H278	H	1.122114	-0.388770	0.250053
H279	H	1.372114	-0.138770	0.500053
H280	H	1.622114	0.111230	0.750053
H281	H	0.866755	0.160625	0.423511
H282	H	1.116755	0.410625	0.673511
H283	H	1.366755	0.660625	0.923511
H284	H	1.616755	0.910625	1.173511
H285	H	0.866383	0.160566	0.576309
H286	H	1.116383	0.410566	0.826309
H287	H	1.366383	0.660566	1.076309
H288	H	1.616383	0.910566	1.326309
H289	H	1.104725	0.185092	0.575097
H290	H	1.354725	0.435092	0.825097
H291	H	1.604725	0.685092	1.075097
H292	H	1.854725	0.935092	1.325097
H293	H	0.948006	0.232108	0.424110
H294	H	1.198006	0.482108	0.674110
H295	H	1.448006	0.732108	0.924110
H296	H	1.698006	0.982108	1.174110
H297	H	1.134687	0.079434	0.423797
H298	H	1.384687	0.329434	0.673797
H299	H	1.634687	0.579434	0.923797
H300	H	1.884687	0.829434	1.173797
H301	H	1.105400	0.183956	0.422489
H302	H	1.355400	0.433956	0.672489
H303	H	1.605400	0.683956	0.922489
H304	H	1.855400	0.933956	1.172489
H305	H	0.425253	0.117636	-0.147261
H306	H	0.675253	0.367636	0.102739
H307	H	0.925253	0.617636	0.352739
H308	H	1.175253	0.867636	0.602739
H309	H	0.417961	0.211153	-0.088100
H310	H	0.667961	0.461153	0.161900
H311	H	0.917961	0.711153	0.411900
H312	H	1.167961	0.961153	0.661900
H313	H	0.561189	0.214228	-0.087345
H314	H	0.811189	0.464228	0.162655
H315	H	1.061189	0.714228	0.412655
H316	H	1.311189	0.964228	0.662655
H317	H	0.576474	-0.011692	-0.060445
H318	H	0.826474	0.238308	0.189555
H319	H	1.076474	0.488308	0.439555
H320	H	1.326474	0.738308	0.689555
H321	H	0.568828	0.121246	-0.146918
H322	H	0.818828	0.371246	0.103082
H323	H	1.068828	0.621246	0.353082
H324	H	1.318828	0.871246	0.603082
H325	H	0.567544	0.119364	0.146983
H326	H	0.817544	0.369364	0.396983
H327	H	1.067544	0.619364	0.646983
H328	H	1.317544	0.869364	0.896983
H329	H	0.562300	0.213362	0.089730
H330	H	0.812300	0.463362	0.339730
H331	H	1.062300	0.713362	0.589730
H332	H	1.312300	0.963362	0.839730
H333	H	0.422949	0.122217	0.147408
H334	H	0.672949	0.372217	0.397408
H335	H	0.922949	0.622217	0.647408
H336	H	1.172949	0.872217	0.897408
H337	H	0.418217	0.213193	0.084103
H338	H	0.668217	0.463193	0.334103
H339	H	0.918217	0.713193	0.584103
H340	H	1.168217	0.963193	0.834103
H341	H	1.159850	-0.524651	0.000077
H342	H	1.409850	-0.274651	0.250077
H343	H	1.659850	-0.024651	0.500077
H344	H	1.909850	0.225349	0.750077
