data_functionalizedCrystal
_audit_creation_method	'MofGen! by Chris Wilmer'
_symmetry_space_group_name_H-M	'P1'
_symmetry_Int_Tables_number	1
_symmetry_cell_setting	triclinic
loop_
_symmetry_equiv_pos_as_xyz
  x,y,z
_cell_length_a	12.759400
_cell_length_b	12.759401
_cell_length_c	12.759393
_cell_angle_alpha	89.977503
_cell_angle_beta	90.029805
_cell_angle_gamma	89.984534
loop_
_atom_site_label
_atom_site_type_symbol
_atom_site_fract_x
_atom_site_fract_y
_atom_site_fract_z
Zn1	Zn	-0.418192	-1.606267	0.594069
Zn2	Zn	0.081808	-1.106267	1.094069
Zn3	Zn	-0.593908	-1.606158	0.418391
Zn4	Zn	-0.093908	-1.106158	0.918391
Zn5	Zn	-0.418246	-1.430566	0.418399
Zn6	Zn	0.081754	-0.930566	0.918399
Zn7	Zn	-0.593832	-1.430558	0.594024
Zn8	Zn	-0.093832	-0.930558	1.094024
O9	O	-0.506045	-1.518387	0.506221
O10	O	-0.006045	-1.018387	1.006221
O11	O	-0.441511	-1.753273	0.570780
O12	O	0.058489	-1.253273	1.070780
O13	O	-0.570660	-1.582823	0.271371
O14	O	-0.070660	-1.082823	0.771371
O15	O	-0.271218	-1.453921	0.441725
O16	O	0.228782	-0.953921	0.941725
O17	O	-0.570608	-1.753193	0.441711
O18	O	-0.070608	-1.253193	0.941711
O19	O	-0.271178	-1.583008	0.570788
O20	O	0.228822	-1.083008	1.070788
O21	O	-0.441602	-1.453816	0.271377
O22	O	0.058398	-0.953816	0.771377
O23	O	-0.441529	-1.283543	0.441681
O24	O	0.058471	-0.783543	0.941681
O25	O	-0.570479	-1.453908	0.741051
O26	O	-0.070479	-0.953908	1.241051
O27	O	-0.570531	-1.283538	0.570711
O28	O	-0.070531	-0.783538	1.070711
O29	O	-0.441437	-1.583001	0.741084
O30	O	0.058563	-1.083001	1.241084
O31	O	-0.740919	-1.582815	0.441667
O32	O	-0.240919	-1.082815	0.941667
O33	O	-0.740863	-1.453803	0.570703
O34	O	-0.240863	-0.953803	1.070703
C35	C	-0.506029	-1.245420	0.506192
C36	C	-0.006029	-0.745420	1.006192
C37	C	-0.506047	-1.128643	0.506205
C38	C	-0.006047	-0.628643	1.006205
C39	C	-0.573320	-1.073805	0.573284
C40	C	-0.073320	-0.573805	1.073284
C41	C	-0.573323	-0.964081	0.573302
C42	C	-0.073323	-0.464081	1.073302
C43	C	-0.438776	-0.964042	0.439153
C44	C	0.061224	-0.464042	0.939153
C45	C	-0.438769	-1.073764	0.439141
C46	C	0.061231	-0.573764	0.939141
C47	C	-0.779012	-1.518325	0.506202
C48	C	-0.279012	-1.018325	1.006202
C49	C	-0.895789	-1.518394	0.506229
C50	C	-0.395789	-1.018394	1.006229
C51	C	-0.950540	-1.585581	0.573490
C52	C	-0.450540	-1.085581	1.073490
C53	C	-1.060264	-1.585640	0.573518
C54	C	-0.560264	-1.085640	1.073518
C55	C	-1.060476	-1.451323	0.439017
C56	C	-0.560476	-0.951323	0.939017
C57	C	-0.950754	-1.451260	0.438994
C58	C	-0.450754	-0.951260	0.938994
C59	C	-0.232011	-1.518478	0.506262
C60	C	0.267989	-1.018478	1.006262
C61	C	-0.115235	-1.518517	0.506280
C62	C	0.384765	-1.018517	1.006280
C63	C	-0.505944	-1.518466	0.780254
C64	C	-0.005944	-1.018466	1.280254
C65	C	-0.505901	-1.518499	0.897031
C66	C	-0.005901	-1.018499	1.397031
C67	C	-0.506059	-0.792420	0.506243
C68	C	-0.006059	-0.292420	1.006243
C69	C	-0.506057	-0.909197	0.506235
C70	C	-0.006057	-0.409197	1.006235
C71	C	-0.506069	-1.518369	0.233253
C72	C	-0.006069	-1.018369	0.733253
C73	C	-0.505816	-1.518539	0.116477
C74	C	-0.005816	-1.018539	0.616477
C75	C	-0.438698	-1.585723	0.951912
C76	C	0.061302	-1.085723	1.451912
C77	C	-0.438653	-1.585740	1.061636
C78	C	0.061347	-1.085740	1.561636
C79	C	-0.573022	-1.451308	1.061589
C80	C	-0.073022	-0.951308	1.561589
C81	C	-0.573061	-1.451286	0.951866
C82	C	-0.073061	-0.951286	1.451866
H83	H	-0.628102	-0.919438	0.627926
H84	H	-0.128102	-0.419438	1.127926
H85	H	-0.384009	-1.640449	0.907268
H86	H	0.115991	-1.140449	1.407268
F87	F	-0.367180	-0.905627	0.367781
F88	F	0.132820	-0.405627	0.867781
H89	H	-0.383981	-1.118414	0.384517
H90	H	0.116019	-0.618414	0.884517
H91	H	-0.628099	-1.118485	0.627895
H92	H	-0.128099	-0.618485	1.127895
F93	F	-0.892046	-1.657029	0.645050
F94	F	-0.392046	-1.157029	1.145050
H95	H	-1.104838	-1.640347	0.628291
H96	H	-0.604838	-1.140347	1.128291
H97	H	-1.105241	-1.396666	0.384274
H98	H	-0.605241	-0.896666	0.884274
H99	H	-0.906172	-1.396543	0.384222
H100	H	-0.406172	-0.896543	0.884222
F101	F	-0.367133	-1.657296	1.120040
F102	F	0.132867	-1.157296	1.620040
F103	F	-0.644499	-1.379783	1.119957
F104	F	-0.144499	-0.879783	1.619957
H105	H	-0.627785	-1.396537	0.907181
H106	H	-0.127785	-0.896537	1.407181
