data_functionalizedCrystal
_audit_creation_method	'MofGen! by Chris Wilmer'
_symmetry_space_group_name_H-M	'P1'
_symmetry_Int_Tables_number	1
_symmetry_cell_setting	triclinic
loop_
_symmetry_equiv_pos_as_xyz
  x,y,z
_cell_length_a	14.044191
_cell_length_b	15.944493
_cell_length_c	15.021413
_cell_angle_alpha	89.990110
_cell_angle_beta	90.005604
_cell_angle_gamma	88.333410
loop_
_atom_site_label
_atom_site_type_symbol
_atom_site_fract_x
_atom_site_fract_y
_atom_site_fract_z
O1	O	1.257679	0.202525	0.073967
O2	O	1.757679	0.702525	0.573967
O3	O	0.981711	0.195211	0.073979
O4	O	1.481711	0.695211	0.573979
O5	O	1.127260	0.077157	0.073980
O6	O	1.627260	0.577157	0.573980
O7	O	1.112130	0.320580	0.073966
O8	O	1.612130	0.820580	0.573966
O9	O	1.127236	0.077173	-0.074084
O10	O	1.627236	0.577173	0.425916
O11	O	0.981687	0.195228	-0.074085
O12	O	1.481687	0.695228	0.425915
O13	O	1.257656	0.202542	-0.074097
O14	O	1.757656	0.702542	0.425903
Zn15	Zn	1.119668	0.198888	-0.097600
Zn16	Zn	1.619668	0.698888	0.402400
Zn17	Zn	1.119699	0.198866	0.097481
Zn18	Zn	1.619699	0.698866	0.597481
O19	O	1.112107	0.320597	-0.074098
O20	O	1.612107	0.820597	0.425902
C21	C	0.946385	0.192020	-0.000051
C22	C	1.446385	0.692020	0.499949
C23	C	0.841161	0.182477	-0.000046
C24	C	1.341161	0.682477	0.499954
C25	C	0.590866	0.232715	-0.000058
C26	C	1.090866	0.732715	0.499942
C27	C	0.648506	0.165042	-0.000053
C28	C	1.148506	0.665042	0.499947
C29	C	0.755709	0.174745	-0.000049
C30	C	1.255709	0.674745	0.499951
C31	C	0.483653	0.223013	-0.000062
C32	C	0.983653	0.723013	0.499938
C33	C	1.126630	0.045824	-0.000048
C34	C	1.626630	0.545824	0.499952
C35	C	1.124776	-0.047563	-0.000037
C36	C	1.624776	0.452437	0.499963
C37	C	1.210449	-0.276906	-0.000058
C38	C	1.710449	0.223094	0.499942
C39	C	1.164260	-0.330943	0.072947
C40	C	1.664260	0.169057	0.572947
C41	C	1.121341	-0.218542	-0.000048
C42	C	1.621341	0.281458	0.499952
C43	C	1.164216	-0.330904	-0.073032
C44	C	1.664216	0.169096	0.426968
C45	C	1.118029	-0.383699	-0.000062
C46	C	1.618029	0.116301	0.499938
C47	C	1.075176	-0.271348	0.073018
C48	C	1.575176	0.228652	0.573018
C49	C	1.075145	-0.271305	-0.073028
C50	C	1.575145	0.228695	0.426972
C51	C	1.028891	-0.325314	-0.000005
C52	C	1.528891	0.174686	0.499995
C53	C	1.123251	-0.123399	-0.000039
C54	C	1.623251	0.376601	0.499961
C55	C	1.116112	-0.478840	-0.000065
C56	C	1.616112	0.021160	0.499935
C57	C	1.292981	0.205733	-0.000065
C58	C	1.792981	0.705733	0.499935
C59	C	1.398206	0.215277	-0.000064
C60	C	1.898206	0.715277	0.499936
C61	C	1.112737	0.351929	-0.000068
C62	C	1.612737	0.851929	0.499932
C63	C	1.114591	0.445317	-0.000074
C64	C	1.614591	0.945317	0.499926
N65	N	1.119654	0.198903	-0.230737
N66	N	1.619654	0.698903	0.269263
C67	C	1.052342	0.253462	-0.470421
C68	C	1.552342	0.753462	0.029579
C69	C	1.137989	0.276185	-0.529761
C70	C	1.637989	0.776185	-0.029761
C71	C	1.119678	0.198883	-0.412344
C72	C	1.619678	0.698883	0.087656
C73	C	1.034055	0.176181	-0.529746
C74	C	1.534055	0.676181	-0.029746
C75	C	1.119694	0.198866	-0.587768
C76	C	1.619694	0.698866	-0.087768
C77	C	1.205368	0.221647	-0.470377
C78	C	1.705368	0.721647	0.029623
C79	C	1.101378	0.121606	-0.470358
C80	C	1.601378	0.621606	0.029642
C81	C	1.187087	0.144301	-0.529671
C82	C	1.687087	0.644301	-0.029671
C83	C	1.119668	0.198895	-0.311287
C84	C	1.619668	0.698895	0.188713
C85	C	1.119714	0.198854	-0.688824
C86	C	1.619714	0.698854	-0.188824
N87	N	1.119720	0.198845	0.230619
N88	N	1.619720	0.698845	0.730619
H89	H	0.622028	0.297934	-0.000059
H90	H	1.122028	0.797934	0.499941
N91	N	1.211486	-0.363719	0.150372
N92	N	1.711486	0.136281	0.650372
N93	N	1.297396	-0.349349	0.163379
N94	N	1.797396	0.150651	0.663379
H95	H	1.330755	-0.372493	0.218059
H96	H	1.830755	0.127507	0.718059
N97	N	0.609416	0.083218	-0.000024
N98	N	1.109416	0.583218	0.499976
N99	N	0.627944	0.033528	0.062401
N100	N	1.127944	0.533528	0.562401
H101	H	0.600332	-0.024258	0.062427
H102	H	1.100332	0.475742	0.562427
H103	H	1.287205	-0.255529	0.000013
H104	H	1.787205	0.244471	0.500013
N105	N	1.296234	0.245815	-0.437794
N106	N	1.796234	0.745815	0.062206
N107	N	1.310881	0.249750	-0.355841
N108	N	1.810881	0.749750	0.144159
H109	H	1.375053	0.266820	-0.332826
H110	H	1.875053	0.766820	0.167174
N111	N	1.028011	-0.238731	0.150526
N112	N	1.528011	0.261269	0.650526
N113	N	1.021875	-0.161263	0.163056
N114	N	1.521875	0.338737	0.663056
H115	H	0.988568	-0.138225	0.217797
H116	H	1.488568	0.361775	0.717797
H117	H	0.952075	-0.346534	0.000038
H118	H	1.452075	0.153466	0.500038
H119	H	0.995455	0.299663	-0.444406
H120	H	1.495455	0.799663	0.055594
H121	H	1.037536	-0.245154	-0.134748
H122	H	1.537536	0.254846	0.365252
H123	H	1.201857	-0.357008	-0.134748
H124	H	1.701857	0.142992	0.365252
N125	N	1.157420	0.358162	-0.562484
N126	N	1.657420	0.858162	-0.062484
N127	N	1.102817	0.418843	-0.543506
N128	N	1.602817	0.918843	-0.043506
H129	H	1.116534	0.476742	-0.566612
H130	H	1.616534	0.976742	-0.066612
H131	H	1.244100	0.098140	-0.555523
H132	H	1.744100	0.598140	-0.055523
N133	N	1.081902	0.039654	-0.437607
N134	N	1.581902	0.539654	0.062393
N135	N	1.005003	0.006382	-0.456593
N136	N	1.505003	0.506382	0.043407
H137	H	0.991238	-0.051498	-0.433463
H138	H	1.491238	0.448502	0.066537
N139	N	0.943206	0.152115	-0.562467
N140	N	1.443206	0.652115	-0.062467
N141	N	0.870090	0.194993	-0.543486
N142	N	1.370090	0.694993	-0.043486
H143	H	0.805926	0.178005	-0.566594
H144	H	1.305926	0.678005	-0.066594
