data_functionalizedCrystal
_audit_creation_method	'MofGen! by Chris Wilmer'
_symmetry_space_group_name_H-M	'P1'
_symmetry_Int_Tables_number	1
_symmetry_cell_setting	triclinic
loop_
_symmetry_equiv_pos_as_xyz
  x,y,z
_cell_length_a	20.919309
_cell_length_b	20.919540
_cell_length_c	12.970454
_cell_angle_alpha	58.225111
_cell_angle_beta	57.445144
_cell_angle_gamma	86.866958
loop_
_atom_site_label
_atom_site_type_symbol
_atom_site_fract_x
_atom_site_fract_y
_atom_site_fract_z
Zr1	Zr	-0.122510	0.611863	1.144153
O2	O	-0.230435	0.638976	1.157710
O3	O	-0.084130	0.511151	1.139298
O4	O	-0.222803	0.505726	1.371800
O5	O	0.011603	0.753789	0.742602
O6	O	-0.222806	0.505723	1.541472
O7	O	-0.091762	0.644402	0.925208
O8	O	0.025255	0.515428	1.125569
O9	O	-0.236458	0.744084	1.158505
O10	O	-0.074161	0.579832	1.264696
O11	O	0.002981	0.661468	1.001794
O12	O	-0.160289	0.655080	1.275535
O13	O	-0.083146	0.736717	1.012633
Zr14	Zr	0.042340	0.786318	1.123524
Zr15	Zr	-0.122515	0.611858	1.414760
Zr16	Zr	0.042345	0.786323	0.852916
Zr17	Zr	-0.132116	0.779497	1.145420
Zr18	Zr	0.051946	0.618684	1.122256
O19	O	0.003960	0.887030	1.128378
O20	O	-0.230442	0.638970	1.542479
O21	O	0.003967	0.887036	0.743609
O22	O	0.150265	0.759204	1.109966
O23	O	-0.084137	0.511145	1.524067
O24	O	0.150272	0.759211	0.725197
O25	O	-0.091773	0.644392	1.525074
O26	O	0.142633	0.892455	0.895877
O27	O	0.142637	0.892458	0.726204
O28	O	0.011592	0.753779	1.342468
O29	O	-0.236463	0.744080	1.373602
O30	O	0.156293	0.654100	0.894075
O31	O	0.156289	0.654097	1.109172
O32	O	0.025251	0.515424	1.340666
O33	O	-0.105421	0.882756	0.927010
O34	O	-0.105425	0.882753	1.142107
O35	O	0.080119	0.743100	0.992141
O36	O	0.002977	0.661464	1.255043
O37	O	-0.083151	0.736713	1.265882
O38	O	-0.006009	0.818349	1.002980
C39	C	-0.028069	0.489405	1.132253
C40	C	-0.023990	0.418240	1.131715
C41	C	-0.258303	0.690558	1.161227
C42	C	-0.332364	0.687663	1.170523
C43	C	0.002158	0.015759	1.128628
C44	C	-0.001688	0.082641	1.129086
C45	C	-0.063869	0.113707	1.136867
C46	C	-0.122212	0.077882	1.144206
C47	C	-0.118369	0.010998	1.143758
C48	C	-0.078491	0.315531	1.138606
C49	C	-0.082328	0.382422	1.139049
C50	C	0.038196	0.387175	1.123931
C51	C	0.042037	0.320293	1.123475
C52	C	-0.016309	0.284471	1.130822
C53	C	-0.067800	0.182072	1.137331
C54	C	-0.012381	0.216104	1.130369
C55	C	-0.326893	0.728923	1.037661
C56	C	-0.396486	0.726223	1.046405
C57	C	-0.471548	0.682257	1.188011
C58	C	-0.477017	0.640996	1.320882
C59	C	-0.407426	0.643701	1.312137
C60	C	-0.683683	0.671962	1.221280
C61	C	-0.753276	0.669258	1.230015
C62	C	-0.672740	0.754486	0.955536
C63	C	-0.603151	0.757184	0.946804
C64	C	-0.608626	0.715926	1.079675
C65	C	-0.542683	0.679494	1.196951
C66	C	-0.537492	0.718694	1.070733
C67	C	0.178133	0.707622	1.106449
C68	C	0.252194	0.710518	1.097153
C69	C	-0.040079	0.699096	0.795349
C70	C	-0.040076	0.699098	0.680469
C71	C	-0.052101	0.908775	1.135423
C72	C	-0.056180	0.979941	1.135961
C73	C	-0.040091	0.699085	1.472327
C74	C	-0.040094	0.699083	1.587207
C75	C	-0.246293	0.480868	1.498131
C76	C	-0.316278	0.406805	1.621768
C77	C	-0.028075	0.489400	1.470742
C78	C	-0.023999	0.418233	1.585084
C79	C	0.178140	0.707628	0.767960
C80	C	0.252203	0.710526	0.643785
C81	C	-0.052095	0.908781	0.796934
C82	C	-0.056171	0.979948	0.682593
C83	C	0.166123	0.917313	0.769545
C84	C	0.236108	0.991376	0.645908
C85	C	-0.258309	0.690553	1.499716
C86	C	-0.332373	0.687655	1.623891
C87	C	-0.394109	0.411303	1.685500
C88	C	-0.459875	0.341719	1.801687
C89	C	-0.447808	0.267638	1.854133
C90	C	-0.369969	0.263142	1.790395
C91	C	-0.304205	0.332725	1.674218
C92	C	-0.062357	0.342193	1.643831
C93	C	-0.058543	0.275317	1.751284
C94	C	-0.016366	0.284482	1.799980
C95	C	0.021993	0.360529	1.741229
C96	C	0.018174	0.427404	1.633785
C97	C	0.327256	0.754505	0.580420
C98	C	0.396852	0.757244	0.463728
C99	C	0.391394	0.715998	0.410410
C100	C	0.316333	0.672017	0.473781
C101	C	0.246738	0.669283	0.590463
C102	C	-0.017821	1.055987	0.623858
C103	C	-0.021654	1.122863	0.516436
C104	C	-0.063833	1.113697	0.467744
C105	C	-0.102188	1.037650	0.526490
C106	C	-0.098359	0.970776	0.633918
C107	C	0.224016	1.065443	0.593493
C108	C	0.289767	1.135039	0.477308
C109	C	0.367611	1.130566	0.413547
C110	C	0.379702	1.056491	0.465967
C111	C	0.313951	0.986897	0.582143
C112	C	-0.326889	0.728906	1.677178
C113	C	-0.396472	0.726181	1.793868
C114	C	-0.471540	0.682210	1.857261
C115	C	-0.477022	0.640954	1.803970
C116	C	-0.407439	0.643675	1.687290
H117	H	0.052796	-0.009526	1.122281
H118	H	-0.360155	0.202816	1.833116
H119	H	0.443091	1.052862	0.414036
H120	H	-0.240833	0.329051	1.622330
F121	F	-0.012307	0.213301	1.914332
F122	F	0.066880	0.370272	1.793067
H123	H	0.049414	0.489316	1.585955
F124	F	0.060406	0.120761	1.121274
H125	H	0.185630	0.633466	0.642053
H126	H	-0.542036	0.792991	0.831493
F127	F	-0.139175	0.889852	0.696409
F128	F	-0.689520	0.628046	1.362695
H129	H	0.448069	0.718230	0.315399
H130	H	-0.538151	0.605153	1.855603
F131	F	0.333083	0.798406	0.637146
F132	F	-0.133973	0.215143	1.145603
H133	H	0.009584	1.184777	0.468617
H134	H	-0.392024	0.759823	0.938215
H135	H	0.457963	0.793057	0.412150
F136	F	-0.188392	0.110943	1.152495
H137	H	0.421142	1.187241	0.318950
F138	F	-0.147074	1.027908	0.474650
H139	H	-0.066944	1.168157	0.380269
H140	H	0.160637	1.069100	0.645393
F141	F	-0.413288	0.599773	1.630581
H142	H	-0.403950	0.471617	1.642810
H143	H	-0.089779	0.213403	1.799103
H144	H	0.311901	0.638437	0.430352
F145	F	0.326833	0.908072	0.637920
H146	H	0.279907	1.195346	0.434647
H147	H	0.038245	0.190806	1.124039
H148	H	-0.523249	0.345396	1.853563
H149	H	0.016532	1.063465	0.663482
F150	F	-0.622575	0.632702	1.347655
F151	F	-0.517808	0.193588	1.977780
F152	F	-0.107252	0.332421	1.592028
H153	H	-0.265772	0.764715	1.625575
F154	F	-0.390621	0.770097	1.850556
H155	H	0.092670	0.295003	1.117141
F156	F	0.100286	0.425303	1.116116
H157	H	-0.265778	0.764717	0.922350
F158	F	-0.180462	-0.027126	1.151572
H159	H	-0.528192	0.680001	1.952269
H160	H	-0.132952	0.407728	1.145336
H161	H	-0.125998	0.286375	1.144582
H162	H	-0.668292	0.788077	0.847360
H163	H	-0.538138	0.605202	1.436183
F164	F	-0.833167	0.622474	1.380738
H165	H	-0.476374	0.754493	0.955438
F166	F	-0.413251	0.599790	1.453547
