data_functionalizedCrystal
_audit_creation_method	'MofGen! by Chris Wilmer'
_symmetry_space_group_name_H-M	'P1'
_symmetry_Int_Tables_number	1
_symmetry_cell_setting	triclinic
loop_
_symmetry_equiv_pos_as_xyz
  x,y,z
_cell_length_a	21.295418
_cell_length_b	16.994747
_cell_length_c	21.295411
_cell_angle_alpha	89.994024
_cell_angle_beta	90.043738
_cell_angle_gamma	90.026880
loop_
_atom_site_label
_atom_site_type_symbol
_atom_site_fract_x
_atom_site_fract_y
_atom_site_fract_z
Zn1	Zn	0.962441	-0.313785	0.356354
Zn2	Zn	0.962379	-0.445672	0.251131
Zn3	Zn	0.857164	-0.313822	0.251064
Zn4	Zn	0.857169	-0.445687	0.356327
O5	O	0.909788	-0.379741	0.303719
O6	O	1.050522	-0.331258	0.342435
O7	O	0.948394	-0.428190	0.163032
O8	O	0.871153	-0.203436	0.265015
O9	O	1.050477	-0.428155	0.265128
O10	O	0.948499	-0.203409	0.342371
O11	O	0.871093	-0.331321	0.162984
O12	O	0.769075	-0.331336	0.264988
O13	O	0.871162	-0.428181	0.444420
O14	O	0.769079	-0.428217	0.342324
O15	O	0.948504	-0.331273	0.444440
O16	O	0.948399	-0.556055	0.265101
O17	O	0.871102	-0.556066	0.342389
C18	C	0.746237	-0.379783	0.303647
C19	C	0.676268	-0.379820	0.303631
C20	C	0.909752	-0.584681	0.303747
C21	C	0.909756	-0.674003	0.303746
Zn22	Zn	0.857182	-0.944908	0.251047
Zn23	Zn	0.962469	-0.944850	0.356327
Zn24	Zn	0.857191	-0.813080	0.356316
Zn25	Zn	0.962390	-0.812927	0.251110
O26	O	0.909808	-0.878941	0.303700
O27	O	0.871178	-1.055282	0.264990
O28	O	0.948540	-0.927410	0.444415
O29	O	0.769100	-0.830655	0.342321
O30	O	0.948532	-1.055239	0.342339
O31	O	0.769094	-0.927510	0.264980
O32	O	0.871192	-0.830599	0.444407
O33	O	0.871116	-0.702678	0.342383
O34	O	0.948398	-0.830395	0.163012
O35	O	0.948406	-0.702566	0.265088
O36	O	0.871102	-0.927361	0.162966
O37	O	1.050548	-0.927262	0.342400
O38	O	1.050490	-0.830338	0.265098
C39	C	0.643420	-0.430332	0.343839
C40	C	0.577678	-0.430313	0.343868
C41	C	0.544786	-0.379789	0.303676
C42	C	0.577642	-0.329267	0.263464
C43	C	0.643383	-0.329282	0.263442
N44	N	0.441508	-0.373615	0.248616
N45	N	0.379057	-0.373605	0.248639
C46	C	0.346711	-0.379739	0.303743
N47	N	0.379176	-0.385898	0.358823
N48	N	0.441634	-0.385912	0.358799
C49	C	0.473501	-0.379767	0.303696
C50	C	0.242578	-0.430233	0.343985
C51	C	0.176834	-0.430208	0.344015
C52	C	0.176800	-0.329166	0.263606
C53	C	0.242542	-0.329187	0.263582
C54	C	0.275427	-0.379725	0.303771
C55	C	1.073979	-0.379700	0.303792
C56	C	1.143947	-0.379683	0.303823
C57	C	0.909840	-0.379725	0.467909
C58	C	0.909863	-0.379718	0.537878
C59	C	0.909828	-0.174001	0.303687
C60	C	0.909847	-0.084679	0.303674
C61	C	0.909772	-0.379701	0.140167
C62	C	0.909872	-0.379486	0.070200
C63	C	0.950133	-0.329255	0.570756
C64	C	0.950132	-0.329221	0.636498
C65	C	0.909868	-0.379663	0.669360
C66	C	0.869589	-0.430129	0.636474
C67	C	0.869587	-0.430156	0.570733
N68	N	0.905030	-0.448668	0.772600
N69	N	0.905036	-0.448640	0.835052
C70	C	0.909872	-0.379583	0.867435
N71	N	0.914714	-0.310554	0.835007
N72	N	0.914711	-0.310583	0.772550
C73	C	0.909866	-0.379639	0.740645
C74	C	0.950143	-0.329080	0.971599
C75	C	0.950138	-0.329044	1.037342
C76	C	0.869598	-0.429959	1.037317
C77	C	0.869600	-0.429988	0.971574
C78	C	0.909876	-0.379549	0.938719
C79	C	1.073360	-0.878779	0.303759
C80	C	1.143328	-0.878733	0.303802
C81	C	0.909740	-0.878868	0.139510
C82	C	0.909711	-0.878836	0.069541
C83	C	0.745618	-0.879106	0.303642
C84	C	0.675650	-0.879176	0.303618
C85	C	0.909831	-0.879059	0.467251
C86	C	0.909684	-0.879241	0.537219
C87	C	1.176197	-0.929221	0.344037
C88	C	1.241940	-0.929193	0.344079
C89	C	1.274812	-0.878672	0.303887
C90	C	1.241938	-0.828182	0.263648
C91	C	1.176196	-0.828214	0.263604
C92	C	0.869449	-0.929307	0.036656
C93	C	0.869409	-0.929278	-0.029087
C94	C	0.909636	-0.878781	-0.061942
C95	C	0.949900	-0.828305	-0.029052
C96	C	0.949936	-0.828331	0.036689
C97	C	0.642792	-0.828777	0.343874
C98	C	0.577049	-0.828827	0.343851
C99	C	0.544166	-0.879282	0.303575
C100	C	0.577028	-0.929684	0.263314
C101	C	0.642770	-0.929629	0.263334
C102	C	0.869633	-0.828557	0.570046
C103	C	0.869483	-0.828727	0.635788
C104	C	0.909387	-0.879579	0.668702
C105	C	0.949440	-0.930269	0.635871
C106	C	0.949587	-0.930102	0.570130
H107	H	0.550928	-0.471446	0.376613
C108	C	0.717361	-0.223181	0.254784
C109	C	0.679493	-0.273758	0.219237
H110	H	0.739651	-0.188901	0.227491
H111	H	0.746354	-0.253277	0.278709
H112	H	0.691756	-0.193054	0.282251
H113	H	0.705099	-0.303889	0.191773
H114	H	0.650497	-0.243658	0.195301
H115	H	0.982205	-0.971373	0.543408
H116	H	0.981928	-0.971673	0.662680
C117	C	0.156576	-0.195544	0.233087
C118	C	0.140642	-0.273637	0.219427
H119	H	0.134245	-0.161265	0.205815
H120	H	0.200423	-0.188320	0.227309
H121	H	0.145856	-0.184083	0.275401
H122	H	0.151366	-0.285100	0.177114
H123	H	0.096785	-0.280865	0.225200
C124	C	1.155976	-0.789631	0.157032
C125	C	1.140080	-0.772704	0.219373
H126	H	1.133686	-0.755355	0.129723
H127	H	1.145185	-0.842610	0.147767
H128	H	1.199837	-0.782394	0.151325
H129	H	1.096219	-0.779947	0.225081
H130	H	1.150866	-0.719712	0.228641
C131	C	0.789876	-1.029096	0.030003
C132	C	0.825223	-0.984814	0.072762
H133	H	0.762568	-1.063359	0.052291
H134	H	0.817297	-1.059232	0.004366
H135	H	0.765784	-0.994727	0.004359
H136	H	0.849319	-1.019183	0.098402
H137	H	0.797799	-0.954676	0.098409
C138	C	0.316386	-0.318096	0.178894
C139	C	0.278654	-0.273669	0.219377
H140	H	0.338682	-0.283817	0.151607
H141	H	0.290694	-0.352405	0.154789
H142	H	0.345380	-0.348186	0.202835
H143	H	0.249657	-0.243583	0.195436
H144	H	0.304348	-0.239346	0.243484
C145	C	0.663063	-0.790369	0.450481
C146	C	0.678928	-0.773309	0.388149
H147	H	0.685366	-0.756118	0.477813
H148	H	0.673857	-0.843352	0.459687
H149	H	0.619204	-0.783193	0.456217
H150	H	0.722786	-0.780490	0.382412
H151	H	0.668138	-0.720312	0.378940
C152	C	0.958915	-0.223017	0.897624
C153	C	0.994409	-0.273638	0.935475
H154	H	0.986245	-0.188795	0.875321
H155	H	0.931503	-0.192837	0.923237
H156	H	0.934935	-0.253090	0.868637
H157	H	1.018386	-0.243565	0.964465
H158	H	1.021832	-0.303821	0.909860
C159	C	1.029759	-0.229313	1.030760
C160	C	0.994408	-0.273572	1.073485
H161	H	1.057092	-0.195072	1.053075
H162	H	1.002342	-0.199157	1.005088
H163	H	1.053825	-0.263699	1.005148
H164	H	0.970338	-0.239187	1.099094
H165	H	1.021829	-0.303731	1.099167
C166	C	0.236011	-0.530096	0.423476
C167	C	0.278730	-0.485771	0.388168
H168	H	0.258330	-0.564378	0.450756
H169	H	0.210324	-0.560214	0.396028
H170	H	0.210414	-0.495755	0.447597
H171	H	0.304325	-0.520112	0.364043
H172	H	0.304428	-0.455652	0.415620
H173	H	1.268712	-0.787049	0.230925
C174	C	0.980529	-0.694704	-0.049292
C175	C	0.994118	-0.772808	-0.065177
H176	H	1.007827	-0.660448	-0.071599
H177	H	0.986320	-0.687489	-0.005439
H178	H	0.938224	-0.683203	-0.060074
H179	H	1.036422	-0.784311	-0.054390
H180	H	0.988331	-0.780026	-0.109039
C181	C	0.476287	-0.784118	0.379594
C182	C	0.540935	-0.773428	0.388114
H183	H	0.453994	-0.749914	0.406918
H184	H	0.465526	-0.837124	0.388788
H185	H	0.465495	-0.772553	0.337298
H186	H	0.551727	-0.784999	0.430408
H187	H	0.551700	-0.720410	0.378924
H188	H	0.836807	-0.471022	1.064072
C189	C	1.034812	-0.318231	0.710492
C190	C	0.994405	-0.273755	0.672649
H191	H	1.062141	-0.283988	0.732811
H192	H	1.058877	-0.352597	0.684872
H193	H	1.010820	-0.348263	0.739466
H194	H	1.018397	-0.243727	0.643672
H195	H	0.970338	-0.239375	0.698271
C196	C	0.784685	-0.940321	-0.103027
C197	C	0.825152	-0.984772	-0.065228
H198	H	0.757361	-0.974583	-0.125333
H199	H	0.808629	-0.910250	-0.132005
H200	H	0.760612	-0.905992	-0.077373
H201	H	0.849228	-1.019097	-0.090883
H202	H	0.801205	-1.014857	-0.036247
C203	C	0.925668	-0.953785	-0.156108
C204	C	0.909609	-0.878767	-0.134207
H205	H	0.925657	-0.953778	-0.200721
H206	H	0.895944	-0.991070	-0.141250
H207	H	0.966299	-0.967378	-0.141214
H208	H	0.868975	-0.865177	-0.149098
H209	H	0.939334	-0.841471	-0.149071
C210	C	0.636131	-1.029340	0.183740
C211	C	0.678883	-0.985043	0.219088
H212	H	0.658424	-1.063555	0.156426
H213	H	0.610478	-0.994982	0.159659
H214	H	0.610503	-1.059533	0.211164
H215	H	0.704508	-0.954845	0.191664
H216	H	0.704547	-1.019405	0.243171
H217	H	0.670191	-0.471483	0.376565
H218	H	0.550245	-0.970762	0.230522
C219	C	0.790572	-0.728224	0.576583
C220	C	0.825758	-0.772663	0.533876
H221	H	0.763479	-0.693723	0.554255
H222	H	0.818107	-0.698336	0.602348
H223	H	0.766259	-0.762478	0.602103
H224	H	0.850075	-0.738409	0.508358
H225	H	0.798220	-0.802553	0.508100
H226	H	0.836811	-0.471084	0.944805
H227	H	0.982725	-0.787233	0.063459
H228	H	0.490635	-0.879316	0.303562
H229	H	0.909263	-0.879706	0.722233
C230	C	0.476849	-0.284396	0.227784
C231	C	0.541490	-0.273737	0.219279
H232	H	0.454532	-0.250115	0.200502
H233	H	0.466128	-0.272922	0.270089
H234	H	0.466048	-0.337379	0.218520
H235	H	0.552292	-0.220755	0.228548
H236	H	0.552215	-0.285206	0.176964
C237	C	0.103000	-0.441315	0.428710
C238	C	0.140726	-0.485736	0.388218
H239	H	0.080712	-0.475598	0.456002
H240	H	0.074005	-0.411226	0.404781
H241	H	0.128700	-0.407005	0.452816
H242	H	0.115026	-0.520042	0.364109
H243	H	0.169724	-0.515838	0.412149
C244	C	0.980815	-0.195683	0.550518
C245	C	0.994396	-0.273795	0.534651
H246	H	1.008138	-0.161441	0.528227
H247	H	0.986577	-0.188463	0.594373
H248	H	0.938520	-0.184167	0.539703
H249	H	1.036690	-0.285312	0.545470
H250	H	0.988640	-0.281018	0.490785
C251	C	0.833842	-0.474906	0.737241
C252	C	0.825333	-0.485581	0.672593
H253	H	0.806520	-0.509144	0.759537
H254	H	0.824639	-0.421913	0.747988
H255	H	0.876138	-0.486435	0.748040
H256	H	0.783038	-0.474046	0.661793
H257	H	0.834531	-0.538586	0.661841
H258	H	0.836868	-0.787446	0.662510
H259	H	0.836791	-0.471248	0.543964
H260	H	1.149441	-0.970361	0.376769
C261	C	1.235324	-1.029023	0.423592
C262	C	1.278065	-0.984687	0.388319
H263	H	1.257627	-1.063278	0.450907
H264	H	1.209680	-1.059169	0.396125
H265	H	1.209686	-0.994687	0.447675
H266	H	1.303701	-1.019023	0.364233
H267	H	1.303720	-0.954539	0.415790
H268	H	1.328342	-0.878653	0.303930
