data_functionalizedCrystal
_audit_creation_method	'MofGen! by Chris Wilmer'
_symmetry_space_group_name_H-M	'P1'
_symmetry_Int_Tables_number	1
_symmetry_cell_setting	triclinic
loop_
_symmetry_equiv_pos_as_xyz
  x,y,z
_cell_length_a	10.723024
_cell_length_b	11.792240
_cell_length_c	9.798715
_cell_angle_alpha	89.987502
_cell_angle_beta	90.003391
_cell_angle_gamma	95.669357
loop_
_atom_site_label
_atom_site_type_symbol
_atom_site_fract_x
_atom_site_fract_y
_atom_site_fract_z
O1	O	1.656766	-0.159192	0.113514
O2	O	1.990099	0.174141	0.446847
O3	O	2.323433	0.507474	0.780180
O4	O	1.293573	-0.174430	0.113521
O5	O	1.626907	0.158903	0.446855
O6	O	1.960240	0.492237	0.780188
O7	O	1.483983	-0.001660	0.113476
O8	O	1.817317	0.331673	0.446809
O9	O	2.150650	0.665007	0.780142
O10	O	1.466356	-0.331962	0.113559
O11	O	1.799689	0.001371	0.446892
O12	O	2.133023	0.334704	0.780226
O13	O	1.483969	-0.001659	-0.113506
O14	O	1.817302	0.331674	0.219827
O15	O	2.150636	0.665007	0.553160
O16	O	1.293559	-0.174430	-0.113461
O17	O	1.626892	0.158904	0.219872
O18	O	1.960226	0.492237	0.553206
O19	O	1.656752	-0.159192	-0.113469
O20	O	1.990085	0.174142	0.219865
O21	O	2.323419	0.507475	0.553198
Zn22	Zn	1.475153	-0.166811	-0.149503
Zn23	Zn	1.808487	0.166523	0.183830
Zn24	Zn	2.141820	0.499856	0.517164
Zn25	Zn	1.475172	-0.166811	0.149556
Zn26	Zn	1.808505	0.166522	0.482889
Zn27	Zn	2.141839	0.499855	0.816222
O28	O	1.466342	-0.331962	-0.113423
O29	O	1.799675	0.001371	0.219910
O30	O	2.133008	0.334705	0.553243
C31	C	1.247070	-0.173321	0.000030
C32	C	1.580403	0.160012	0.333364
C33	C	1.913736	0.493346	0.666697
C34	C	1.108524	-0.170003	0.000031
C35	C	1.441857	0.163330	0.333365
C36	C	1.775191	0.496663	0.666698
C37	C	1.033286	-0.266676	0.000057
C38	C	1.366619	0.066657	0.333390
C39	C	1.699952	0.399990	0.666723
C40	C	0.890091	-0.263250	0.000058
C41	C	1.223425	0.070084	0.333391
C42	C	1.556758	0.403417	0.666724
C43	C	1.482869	0.040634	-0.000023
C44	C	1.816202	0.373967	0.333310
C45	C	2.149536	0.707300	0.666644
C46	C	1.479555	0.166655	-0.000046
C47	C	1.812888	0.499988	0.333287
C48	C	2.146221	0.833321	0.666621
C49	C	1.473461	0.397380	-0.000068
C50	C	1.806794	0.730714	0.333266
C51	C	2.140127	1.064047	0.666599
C52	C	1.476847	0.268988	-0.000055
C53	C	1.810180	0.602321	0.333278
C54	C	2.143513	0.935654	0.666611
C55	C	1.703256	-0.160301	0.000025
C56	C	2.036589	0.173033	0.333358
C57	C	2.369922	0.506366	0.666692
C58	C	1.841801	-0.163619	0.000033
C59	C	2.175134	0.169715	0.333367
C60	C	2.508468	0.503048	0.666700
C61	C	1.467456	0.625745	0.000030
C62	C	1.800790	0.959078	0.333363
C63	C	2.134123	1.292411	0.666697
C64	C	1.470770	0.499724	-0.000083
C65	C	1.804104	0.833057	0.333251
C66	C	2.137437	1.166390	0.666584
N67	N	1.475150	-0.166810	-0.353603
N68	N	1.808483	0.166524	-0.020269
N69	N	2.141816	0.499857	0.313064
C70	C	1.555098	-0.093948	-0.421399
C71	C	1.888432	0.239385	-0.088065
C72	C	2.221765	0.572718	0.245268
C73	C	1.555118	-0.093944	-0.578562
C74	C	1.888452	0.239389	-0.245228
C75	C	2.221785	0.572722	0.088105
N76	N	1.475186	-0.166803	0.353655
N77	N	1.808519	0.166530	0.686989
N78	N	2.141852	0.499863	1.020322
H79	H	0.906445	-0.080854	0.000020
H80	H	1.239779	0.252479	0.333354
H81	H	1.573112	0.585812	0.666687
F82	F	1.385719	-0.248349	-0.570152
F83	F	1.719053	0.084984	-0.236819
F84	F	2.052386	0.418318	0.096514
F85	F	1.644324	-0.012213	-0.345192
F86	F	1.977657	0.321120	-0.011858
F87	F	2.310991	0.654453	0.321475
H88	H	1.623571	-0.031569	-0.636863
H89	H	1.956904	0.301764	-0.303530
H90	H	2.290237	0.635098	0.029804
F91	F	1.385694	-0.248337	-0.429810
F92	F	1.719028	0.084996	-0.096477
F93	F	2.052361	0.418329	0.236856
H94	H	0.825440	-0.346009	0.000085
H95	H	1.158773	-0.012676	0.333418
H96	H	1.492106	0.320658	0.666751
F97	F	1.054162	-0.058503	-0.000006
F98	F	1.387495	0.274831	0.333328
F99	F	1.720828	0.608164	0.666661
F100	F	1.087648	-0.378177	0.000080
F101	F	1.420981	-0.044843	0.333413
F102	F	1.754315	0.288490	0.666747
