data_functionalizedCrystal
_audit_creation_method	'MofGen! by Chris Wilmer'
_symmetry_space_group_name_H-M	'P1'
_symmetry_Int_Tables_number	1
_symmetry_cell_setting	triclinic
loop_
_symmetry_equiv_pos_as_xyz
  x,y,z
_cell_length_a	15.297475
_cell_length_b	11.169416
_cell_length_c	11.169409
_cell_angle_alpha	90.027704
_cell_angle_beta	80.310497
_cell_angle_gamma	99.683705
loop_
_atom_site_label
_atom_site_type_symbol
_atom_site_fract_x
_atom_site_fract_y
_atom_site_fract_z
Zn1	Zn	1.379384	0.795722	-0.995759
Zn2	Zn	1.379297	0.996442	-0.795072
Zn3	Zn	1.228502	0.761006	-0.760400
Zn4	Zn	1.228503	0.961576	-0.961043
O5	O	1.303921	0.878686	-0.878069
O6	O	1.505625	0.851467	-0.998177
O7	O	1.359256	0.965274	-0.622515
O8	O	1.248553	0.597670	-0.791639
O9	O	1.505561	0.998936	-0.850733
O10	O	1.359406	0.623175	-0.964556
O11	O	1.248468	0.792300	-0.597041
O12	O	1.102249	0.758492	-0.757976
O13	O	1.248555	0.939512	-1.133607
O14	O	1.102250	0.905850	-0.905388
O15	O	1.359407	0.817660	-1.159113
O16	O	1.359257	1.159758	-0.817071
O17	O	1.248470	1.134142	-0.939009
C18	C	1.069513	0.824622	-0.824153
C19	C	0.969233	0.801521	-0.801116
C20	C	0.686660	1.043796	-1.042719
C21	C	0.780879	1.065509	-1.064360
C22	C	0.827972	0.999514	-0.998552
C23	C	0.780837	0.911802	-0.911097
C24	C	0.686609	0.890094	-0.889448
C25	C	0.827921	0.845812	-0.845280
C26	C	0.780786	0.758101	-0.757826
C27	C	0.686568	0.736396	-0.736181
C28	C	0.639474	0.802391	-0.801989
C29	C	0.922149	0.867520	-0.866930
C30	C	0.922098	0.713818	-0.713658
C31	C	0.827879	0.692105	-0.692017
C32	C	1.303878	1.190501	-0.878067
C33	C	1.303943	1.323916	-0.878125
C34	C	1.539244	0.932963	-0.932195
C35	C	1.639525	0.956093	-0.955261
C36	C	1.303991	0.878569	-1.191127
C37	C	1.304020	0.878519	-1.324534
C38	C	1.303983	1.565658	-0.878117
C39	C	1.303992	1.432260	-0.878175
C40	C	1.303904	0.878729	-0.566240
C41	C	1.304049	0.878481	-0.432874
H42	H	0.904689	1.017197	-1.016177
H43	H	0.819249	1.136926	-1.135563
O44	O	0.635722	0.641806	-0.641848
H45	H	0.653810	0.551800	-0.666748
H46	H	0.789489	0.620690	-0.620811
H47	H	0.648308	1.097527	-1.096284
O48	O	0.537849	0.779031	-0.778579
H49	H	0.513026	0.839681	-0.839011
H50	H	0.960441	0.660081	-0.660069
H51	H	0.960517	0.938935	-0.938136
