data_functionalizedCrystal
_audit_creation_method	'MofGen! by Chris Wilmer'
_symmetry_space_group_name_H-M	'P1'
_symmetry_Int_Tables_number	1
_symmetry_cell_setting	triclinic
loop_
_symmetry_equiv_pos_as_xyz
  x,y,z
_cell_length_a	13.897449
_cell_length_b	17.077402
_cell_length_c	13.897441
_cell_angle_alpha	90.032043
_cell_angle_beta	89.981404
_cell_angle_gamma	89.975837
loop_
_atom_site_label
_atom_site_type_symbol
_atom_site_fract_x
_atom_site_fract_y
_atom_site_fract_z
Zn1	Zn	1.474647	0.312464	-0.545365
Zn2	Zn	1.974647	0.812464	-0.045365
Zn3	Zn	1.474533	0.443744	-0.384060
Zn4	Zn	1.974533	0.943744	0.115940
Zn5	Zn	1.313343	0.312499	-0.384083
Zn6	Zn	1.813343	0.812499	0.115917
Zn7	Zn	1.313304	0.443695	-0.545312
Zn8	Zn	1.813304	0.943695	-0.045312
O9	O	1.393957	0.378100	-0.464705
O10	O	1.893957	0.878100	0.035295
O11	O	1.609614	0.329884	-0.523980
O12	O	2.109614	0.829884	-0.023980
O13	O	1.453119	0.426369	-0.249081
O14	O	1.953119	0.926369	0.250919
O15	O	1.334804	0.202647	-0.405510
O16	O	1.834804	0.702647	0.094490
O17	O	1.609530	0.426335	-0.405469
O18	O	2.109530	0.926335	0.094531
O19	O	1.453314	0.202622	-0.524003
O20	O	1.953314	0.702622	-0.024003
O21	O	1.334693	0.329944	-0.249098
O22	O	1.834693	0.829944	0.250902
O23	O	1.178356	0.329896	-0.405459
O24	O	1.678356	0.829896	0.094541
O25	O	1.334738	0.426251	-0.680301
O26	O	1.834738	0.926251	-0.180301
O27	O	1.178327	0.426285	-0.523913
O28	O	1.678327	0.926285	-0.023913
O29	O	1.453277	0.329837	-0.680340
O30	O	1.953277	0.829837	-0.180340
O31	O	1.453081	0.553584	-0.405418
O32	O	1.953081	1.053584	0.094582
O33	O	1.334627	0.553548	-0.523890
O34	O	1.834627	1.053548	-0.023890
C35	C	1.393864	0.582048	-0.464667
C36	C	1.893864	1.082048	0.035333
C37	C	1.393912	0.669298	-0.464682
C38	C	1.893912	1.169298	0.035318
C39	C	1.143342	0.378090	-0.464683
C40	C	1.643342	0.878090	0.035317
C41	C	1.036128	0.378104	-0.464696
C42	C	1.536128	0.878104	0.035304
C43	C	1.394016	0.378034	-0.716298
C44	C	1.894016	0.878034	-0.216298
C45	C	1.394041	0.378006	-0.823512
C46	C	1.894041	0.878006	-0.323512
C47	C	0.839833	0.378107	-0.464722
C48	C	1.339833	0.878107	0.035278
C49	C	0.949066	0.378103	-0.464705
C50	C	1.449066	0.878103	0.035295
C51	C	1.645550	0.378111	-0.464728
C52	C	2.145550	0.878111	0.035272
C53	C	1.752764	0.378116	-0.464737
C54	C	2.252764	0.878116	0.035263
C55	C	1.394076	0.173356	-0.464765
C56	C	1.894076	0.673356	0.035235
C57	C	1.394127	0.086106	-0.464790
C58	C	1.894127	0.586106	0.035210
C59	C	1.455654	0.710281	-0.403060
C60	C	1.955654	1.210281	0.096940
C61	C	1.455701	0.792261	-0.403085
C62	C	1.955701	1.292261	0.096915
C63	C	1.394001	0.833257	-0.464727
C64	C	1.894001	1.333257	0.035273
C65	C	1.332256	0.792269	-0.526356
C66	C	1.832256	1.292269	-0.026356
C67	C	1.332214	0.710290	-0.526336
C68	C	1.832214	1.210290	-0.026336
C69	C	1.332345	0.963139	-0.526393
C70	C	1.832345	1.463139	-0.026393
C71	C	1.332385	1.045123	-0.526412
C72	C	1.832385	1.545123	-0.026412
C73	C	1.455832	1.045110	-0.403142
C74	C	1.955832	1.545110	0.096858
C75	C	1.455791	0.963131	-0.403122
C76	C	1.955791	1.463131	0.096878
C77	C	1.394044	0.922148	-0.464749
C78	C	1.894044	1.422148	0.035251
C79	C	1.394061	0.377984	-0.910582
C80	C	1.894061	0.877984	-0.410582
C81	C	1.394088	0.377949	-1.019815
C82	C	1.894088	0.877949	-0.519815
C83	C	1.393953	0.378109	-0.214091
C84	C	1.893953	0.878109	0.285909
C85	C	1.394115	0.377916	-0.106877
C86	C	1.894115	0.877916	0.393123
H87	H	1.505894	0.676907	-0.352860
H88	H	2.005894	1.176907	0.147140
O89	O	1.272563	1.084916	-0.586435
O90	O	1.772563	1.584916	-0.086435
C91	C	1.293576	1.064802	-0.682584
C92	C	1.793576	1.564802	-0.182584
H93	H	1.370619	1.042204	-0.687507
H94	H	1.870619	1.542204	-0.187507
H95	H	1.285283	1.118696	-0.730239
H96	H	1.785283	1.618696	-0.230239
H97	H	1.241820	1.017243	-0.707755
H98	H	1.741820	1.517243	-0.207755
O99	O	1.515678	0.923394	-0.343108
O100	O	2.015678	1.423394	0.156892
C101	C	1.494649	0.943482	-0.246954
C102	C	1.994649	1.443482	0.253046
H103	H	1.457603	1.003031	-0.244932
H104	H	1.957603	1.503031	0.255068
H105	H	1.564291	0.946263	-0.203766
H106	H	2.064291	1.446263	0.296234
H107	H	1.445051	0.897397	-0.214412
H108	H	1.945051	1.397397	0.285588
H109	H	1.282022	0.825654	-0.576551
H110	H	1.782022	1.325654	-0.076551
O111	O	1.272287	0.670561	-0.586330
O112	O	1.772287	1.170561	-0.086330
C113	C	1.293345	0.690506	-0.682490
C114	C	1.793345	1.190506	-0.182490
H115	H	1.330449	0.750004	-0.684533
H116	H	1.830449	1.250004	-0.184533
H117	H	1.223710	0.693327	-0.725686
H118	H	1.723710	1.193327	-0.225686
H119	H	1.342902	0.644317	-0.715008
H120	H	1.842902	1.144317	-0.215008
O121	O	1.272317	0.923243	-0.586125
O122	O	1.772317	1.423243	-0.086125
C123	C	1.210006	0.875915	-0.531140
C124	C	1.710006	1.375915	-0.031140
H125	H	1.244063	0.863652	-0.458070
H126	H	1.744063	1.363652	0.041930
H127	H	1.197024	0.818253	-0.570407
H128	H	1.697024	1.318253	-0.070407
H129	H	1.138548	0.907566	-0.520483
H130	H	1.638548	1.407566	-0.020483
H131	H	1.505977	0.825626	-0.352905
H132	H	2.005977	1.325626	0.147095
O133	O	1.515887	1.085038	-0.343471
O134	O	2.015887	1.585038	0.156529
C135	C	1.502738	1.166185	-0.356745
C136	C	2.002738	1.666185	0.143255
H137	H	1.470978	1.177330	-0.431110
H138	H	1.970978	1.677330	0.068890
H139	H	1.575055	1.197250	-0.350446
H140	H	2.075055	1.697250	0.149554
H141	H	1.451551	1.189594	-0.299415
H142	H	1.951551	1.689594	0.200585
