data_functionalizedCrystal
_audit_creation_method	'MofGen! by Chris Wilmer'
_symmetry_space_group_name_H-M	'P1'
_symmetry_Int_Tables_number	1
_symmetry_cell_setting	triclinic
loop_
_symmetry_equiv_pos_as_xyz
  x,y,z
_cell_length_a	10.654549
_cell_length_b	17.019294
_cell_length_c	9.730223
_cell_angle_alpha	86.116633
_cell_angle_beta	89.997731
_cell_angle_gamma	83.938312
loop_
_atom_site_label
_atom_site_type_symbol
_atom_site_fract_x
_atom_site_fract_y
_atom_site_fract_z
O1	O	1.666104	0.110793	-0.127368
O2	O	2.166104	0.610793	0.372632
O3	O	1.300460	0.121349	-0.128627
O4	O	1.800460	0.621349	0.371373
O5	O	1.493483	0.001294	-0.114407
O6	O	1.993483	0.501294	0.385593
O7	O	1.473082	0.230848	-0.141588
O8	O	1.973082	0.730848	0.358412
O9	O	1.493470	0.001291	0.114173
O10	O	1.993470	0.501291	0.614173
O11	O	1.300448	0.121346	0.099954
O12	O	1.800448	0.621346	0.599954
O13	O	1.666092	0.110790	0.101212
O14	O	2.166092	0.610790	0.601212
Zn15	Zn	1.483268	0.116067	0.136875
Zn16	Zn	1.983268	0.616067	0.636875
Zn17	Zn	1.483284	0.116072	-0.164289
Zn18	Zn	1.983284	0.616072	0.335711
O19	O	1.473070	0.230845	0.086993
O20	O	1.973070	0.730845	0.586993
C21	C	1.253668	0.120572	-0.014246
C22	C	1.753668	0.620572	0.485754
C23	C	1.114262	0.118254	-0.013975
C24	C	1.614262	0.618254	0.486025
C25	C	0.902674	0.186756	-0.022081
C26	C	1.402674	0.686756	0.477919
C27	C	1.033660	0.188940	-0.022348
C28	C	1.533660	0.688940	0.477652
C29	C	1.063870	0.045378	-0.005349
C30	C	1.563870	0.545378	0.494651
C31	C	0.932886	0.043194	-0.005092
C32	C	1.432886	0.543194	0.494908
C33	C	1.492703	-0.028101	0.003361
C34	C	1.992703	0.471899	0.503361
C35	C	1.490383	-0.115684	0.013722
C36	C	1.990383	0.384316	0.513722
C37	C	1.489302	-0.156825	-0.106008
C38	C	1.989302	0.343175	0.393992
C39	C	1.487114	-0.239118	-0.096268
C40	C	1.987114	0.260882	0.403732
C41	C	1.486015	-0.280269	0.033203
C42	C	1.986015	0.219731	0.533203
C43	C	1.487092	-0.239123	0.152943
C44	C	1.987092	0.260877	0.652943
C45	C	1.489271	-0.156831	0.143201
C46	C	1.989271	0.343169	0.643201
C47	C	1.479426	-0.528738	0.068849
C48	C	1.979426	-0.028738	0.568849
C49	C	1.477250	-0.611037	0.078582
C50	C	1.977250	-0.111037	0.578582
C51	C	1.477270	-0.611025	-0.170630
C52	C	1.977270	-0.111025	0.329370
C53	C	1.479457	-0.528732	-0.180360
C54	C	1.979457	-0.028732	0.319640
C55	C	1.480527	-0.487592	-0.060621
C56	C	1.980527	0.012408	0.439379
C57	C	1.483782	-0.364386	0.043162
C58	C	1.983782	0.135614	0.543162
C59	C	1.482751	-0.403476	-0.070581
C60	C	1.982751	0.096524	0.429419
C61	C	1.712884	0.111566	-0.013171
C62	C	2.212884	0.611566	0.486829
C63	C	1.852291	0.113885	-0.013451
C64	C	2.352291	0.613885	0.486549
C65	C	1.473850	0.260240	-0.030778
C66	C	1.973850	0.760240	0.469222
C67	C	1.476170	0.347823	-0.041149
C68	C	1.976170	0.847823	0.458851
N69	N	1.483266	0.116064	0.342412
N70	N	1.983266	0.616064	0.842412
N71	N	1.483296	0.116069	-0.369826
N72	N	1.983296	0.616069	0.130174
C73	C	1.568765	0.062926	0.420632
C74	C	2.068765	0.562926	0.920632
C75	C	1.568778	0.062926	0.564514
C76	C	2.068778	0.562926	1.064514
C77	C	1.397788	0.169209	0.551944
C78	C	1.897788	0.669209	1.051944
C79	C	1.397771	0.169204	0.408065
C80	C	1.897771	0.669204	0.908065
H81	H	0.837056	0.244317	-0.028888
H82	H	1.337056	0.744317	0.471112
Br83	Br	1.485580	-0.294969	0.328657
Br84	Br	1.985580	0.205031	0.828657
H85	H	1.638397	0.019656	0.628198
H86	H	2.138397	0.519656	1.128198
Br87	Br	1.102032	0.287840	-0.034071
Br88	Br	1.602032	0.787840	0.465929
H89	H	0.891865	-0.016149	0.001931
H90	H	1.391865	0.483851	0.501931
H91	H	1.638379	0.019655	0.367181
H92	H	2.138379	0.519655	0.867181
H93	H	1.129506	-0.012176	0.001460
H94	H	1.629506	0.487824	0.501460
Br95	Br	1.281765	0.241327	0.641049
Br96	Br	1.781765	0.741327	1.141049
Br97	Br	1.281719	0.241319	0.301898
Br98	Br	1.781719	0.741319	0.801898
H99	H	1.490203	-0.123325	-0.211438
H100	H	1.990203	0.376675	0.288562
H101	H	1.490133	-0.123334	0.240699
H102	H	1.990133	0.376666	0.740699
Br103	Br	1.485645	-0.294948	-0.258768
Br104	Br	1.985645	0.205052	0.241232
Br105	Br	1.480957	-0.472889	-0.356078
Br106	Br	1.980957	0.027111	0.143922
Br107	Br	1.475819	-0.666862	-0.333124
Br108	Br	1.975819	-0.166862	0.166876
H109	H	1.476349	-0.644540	0.184019
H110	H	1.976349	-0.144540	0.684019
H111	H	1.480323	-0.495254	0.166350
H112	H	1.980323	0.004746	0.666350
H113	H	1.483637	-0.369966	-0.175997
H114	H	1.983637	0.130034	0.324003
H115	H	1.482891	-0.397902	0.148579
H116	H	1.982891	0.102098	0.648579
