data_functionalizedCrystal
_audit_creation_method	'MofGen! by Chris Wilmer'
_symmetry_space_group_name_H-M	'P1'
_symmetry_Int_Tables_number	1
_symmetry_cell_setting	triclinic
loop_
_symmetry_equiv_pos_as_xyz
  x,y,z
_cell_length_a	13.448316
_cell_length_b	10.654550
_cell_length_c	10.654550
_cell_angle_alpha	95.515069
_cell_angle_beta	90.006429
_cell_angle_gamma	89.996503
loop_
_atom_site_label
_atom_site_type_symbol
_atom_site_fract_x
_atom_site_fract_y
_atom_site_fract_z
O1	O	0.082617	-1.667845	0.176402
O2	O	0.082636	-1.302367	0.193208
O3	O	0.082620	-1.493509	0.002066
O4	O	0.082633	-1.476703	0.367544
O5	O	-0.082764	-1.493484	0.002054
O6	O	-0.082748	-1.302342	0.193196
O7	O	-0.082766	-1.667821	0.176390
Cu8	Cu	-0.097858	-1.485079	0.184792
Cu9	Cu	0.097727	-1.485108	0.184806
O10	O	-0.082751	-1.476678	0.367532
C11	C	-0.000054	-1.255556	0.191968
C12	C	-0.000047	-1.116113	0.188276
C13	C	-0.000072	-1.492263	-0.044738
C14	C	-0.000070	-1.488571	-0.184181
N15	N	-0.235422	-1.485068	0.184781
C16	C	-0.287470	-1.569733	0.100179
C17	C	-0.391573	-1.569741	0.100178
C18	C	-0.443627	-1.485089	0.184786
C19	C	-0.391572	-1.400415	0.269393
C20	C	-0.287471	-1.400402	0.269387
C21	C	-0.608553	-1.400450	0.269401
C22	C	-0.712661	-1.400464	0.269410
C23	C	-0.712654	-1.569788	0.100192
C24	C	-0.608553	-1.569776	0.100186
C25	C	-0.556506	-1.485103	0.184795
N26	N	0.235292	-1.485129	0.184807
C27	C	-0.000075	-1.714631	0.177630
C28	C	-0.000075	-1.854074	0.181322
C29	C	-0.000046	-1.036628	0.300818
C30	C	-0.000063	-0.905607	0.297341
C31	C	-0.000079	-0.933570	0.068772
C32	C	-0.000069	-1.064588	0.072250
C33	C	-0.000075	-1.601112	-0.263667
C34	C	-0.000063	-1.597636	-0.394688
C35	C	-0.000044	-1.369066	-0.366725
C36	C	-0.000049	-1.372544	-0.235706
C37	C	-0.000057	-1.477925	0.414336
C38	C	-0.000052	-1.481616	0.553779
H39	H	-0.245094	-1.638671	0.031286
O40	O	-0.442246	-1.652040	0.018176
C41	C	-0.502427	-1.730115	0.086172
H42	H	-0.518011	-1.680938	0.183983
H43	H	-0.575638	-1.749537	0.033944
H44	H	-0.462298	-1.823002	0.095574
O45	O	-0.442247	-1.318130	0.351407
C46	C	-0.502466	-1.240062	0.283427
H47	H	-0.518066	-1.289234	0.185615
H48	H	-0.575667	-1.220661	0.335667
H49	H	-0.462363	-1.147164	0.274028
H50	H	-0.755038	-1.638731	0.031302
H51	H	-0.000064	-0.840894	0.388984
O52	O	-0.558140	-1.652052	0.017880
C53	C	-0.626398	-1.726809	-0.056776
H54	H	-0.700615	-1.675324	-0.058676
H55	H	-0.596326	-1.745096	-0.156898
H56	H	-0.637449	-1.820457	-0.015127
O57	O	-0.763189	-1.318050	0.351453
C58	C	-0.737758	-1.193557	0.329872
H59	H	-0.709141	-1.192091	0.229314
H60	H	-0.806232	-1.130670	0.343705
H61	H	-0.677339	-1.157240	0.399145
O62	O	-0.558036	-1.318329	0.351765
C63	C	-0.583474	-1.339808	0.476282
H64	H	-0.612080	-1.440364	0.477827
H65	H	-0.515005	-1.325905	0.539175
H66	H	-0.643902	-1.270525	0.512531
O67	O	-0.000243	-1.141862	-0.037046
C68	C	-0.085879	-1.218511	-0.041857
H69	H	-0.145746	-1.171091	0.021941
H70	H	-0.114635	-1.232372	-0.142896
H71	H	-0.066505	-1.314047	-0.008510
H72	H	-0.000090	-1.695588	-0.221720
H73	H	-0.245095	-1.331458	0.338277
H74	H	-0.000036	-1.078574	0.395294
O75	O	-0.000048	-0.883308	-0.043823
C76	C	-0.000079	-0.750622	-0.022763
H77	H	0.031236	-0.720711	0.074979
H78	H	0.047929	-0.709757	-0.097070
H79	H	-0.079425	-0.714106	-0.029171
H80	H	-0.000065	-1.689279	-0.459401
O81	O	-0.000078	-1.256472	-0.416987
C82	C	-0.000053	-1.277531	-0.549672
H83	H	-0.031368	-1.375268	-0.579587
H84	H	-0.048064	-1.203216	-0.590543
H85	H	0.079291	-1.271139	-0.586178
H86	H	-0.000042	-1.280893	-0.170985
