data_functionalizedCrystal
_audit_creation_method	'MofGen! by Chris Wilmer'
_symmetry_space_group_name_H-M	'P1'
_symmetry_Int_Tables_number	1
_symmetry_cell_setting	triclinic
loop_
_symmetry_equiv_pos_as_xyz
  x,y,z
_cell_length_a	14.044202
_cell_length_b	19.188924
_cell_length_c	17.666332
_cell_angle_alpha	89.990193
_cell_angle_beta	89.996322
_cell_angle_gamma	91.832667
loop_
_atom_site_label
_atom_site_type_symbol
_atom_site_fract_x
_atom_site_fract_y
_atom_site_fract_z
O1	O	-1.256996	0.168317	-0.062917
O2	O	-0.756996	0.668317	0.437083
O3	O	-0.981052	0.162238	-0.062926
O4	O	-0.481052	0.662238	0.437074
O5	O	-1.126990	0.064136	-0.062912
O6	O	-0.626990	0.564136	0.437088
O7	O	-1.111057	0.266419	-0.062931
O8	O	-0.611057	0.766419	0.437069
O9	O	-1.126994	0.064125	0.062984
O10	O	-0.626994	0.564125	0.562984
O11	O	-0.981055	0.162227	0.062970
O12	O	-0.481055	0.662227	0.562970
O13	O	-1.256999	0.168307	0.062980
O14	O	-0.756999	0.668307	0.562980
Cu15	Cu	-1.119027	0.165266	0.074471
Cu16	Cu	-0.619027	0.665266	0.574471
Cu17	Cu	-1.119023	0.165278	-0.074417
Cu18	Cu	-0.619023	0.665278	0.425583
O19	O	-1.111060	0.266409	0.062966
O20	O	-0.611060	0.766409	0.562966
C21	C	-0.945750	0.159574	0.000021
C22	C	-0.445750	0.659574	0.500021
C23	C	-0.840557	0.151642	0.000018
C24	C	-0.340557	0.651642	0.500018
C25	C	-0.590097	0.193389	0.000021
C26	C	-0.090097	0.693389	0.500021
C27	C	-0.647961	0.137153	0.000025
C28	C	-0.147961	0.637153	0.500025
C29	C	-0.755131	0.145217	0.000021
C30	C	-0.255131	0.645217	0.500021
C31	C	-0.482916	0.185326	0.000025
C32	C	0.017084	0.685326	0.500025
C33	C	-1.126477	0.038086	0.000037
C34	C	-0.626477	0.538086	0.500037
C35	C	-1.124931	-0.039518	0.000039
C36	C	-0.624931	0.460482	0.500039
C37	C	-1.124208	-0.075958	-0.068588
C38	C	-0.624208	0.424042	0.431412
C39	C	-1.122743	-0.148875	-0.068594
C40	C	-0.622743	0.351125	0.431406
C41	C	-1.122019	-0.185351	0.000031
C42	C	-0.622019	0.314649	0.500031
C43	C	-1.122737	-0.148902	0.068667
C44	C	-0.622737	0.351098	0.568667
C45	C	-1.124193	-0.075986	0.068670
C46	C	-0.624193	0.424014	0.568670
N47	N	-1.173661	-0.301685	0.051109
N48	N	-0.673661	0.198315	0.551109
N49	N	-1.172279	-0.370952	0.051100
N50	N	-0.672279	0.129048	0.551100
C51	C	-1.117630	-0.405043	0.000024
C52	C	-0.617630	0.094957	0.500024
N53	N	-1.064425	-0.367251	-0.051056
N54	N	-0.564425	0.132749	0.448944
N55	N	-1.065811	-0.297977	-0.051050
N56	N	-0.565811	0.202023	0.448950
C57	C	-1.120440	-0.264416	0.000035
C58	C	-0.620440	0.235584	0.500035
C59	C	-1.115316	-0.520548	-0.068614
C60	C	-0.615316	-0.020548	0.431386
C61	C	-1.113844	-0.593467	-0.068617
C62	C	-0.613844	-0.093467	0.431383
C63	C	-1.113848	-0.593493	0.068645
C64	C	-0.613848	-0.093493	0.568645
C65	C	-1.115310	-0.520575	0.068646
C66	C	-0.615310	-0.020575	0.568646
C67	C	-1.116049	-0.484108	0.000015
C68	C	-0.616049	0.015892	0.500015
C69	C	-0.292301	0.170969	0.000031
C70	C	0.207699	0.670969	0.500031
C71	C	-0.397494	0.178896	0.000028
C72	C	0.102506	0.678896	0.500028
C73	C	-1.111574	0.292458	0.000015
C74	C	-0.611574	0.792458	0.500015
C75	C	-1.113119	0.370063	0.000008
C76	C	-0.613119	0.870063	0.500008
N77	N	-1.119021	0.165282	-0.179136
N78	N	-0.619021	0.665282	0.320864
C79	C	-1.183758	0.121943	-0.218740
C80	C	-0.683758	0.621943	0.281260
C81	C	-1.183766	0.121942	-0.297987
C82	C	-0.683766	0.621942	0.202013
C83	C	-1.119022	0.165273	-0.337628
C84	C	-0.619022	0.665273	0.162372
C85	C	-1.054281	0.208621	-0.298015
C86	C	-0.554281	0.708621	0.201985
C87	C	-1.054280	0.208626	-0.218769
C88	C	-0.554280	0.708626	0.281231
N89	N	-1.035134	0.168784	-0.462057
N90	N	-0.535134	0.668784	0.037943
N91	N	-1.035138	0.168776	-0.537338
N92	N	-0.535138	0.668776	-0.037338
C93	C	-1.119020	0.165263	-0.576392
C94	C	-0.619020	0.665263	-0.076392
N95	N	-1.202902	0.161745	-0.537323
N96	N	-0.702902	0.661745	-0.037323
N97	N	-1.202898	0.161750	-0.462035
N98	N	-0.702898	0.661750	0.037965
C99	C	-1.119015	0.165273	-0.423558
C100	C	-0.619015	0.665273	0.076442
C101	C	-1.183771	0.121921	-0.701925
C102	C	-0.683771	0.621921	-0.201925
C103	C	-1.183781	0.121925	-0.781174
C104	C	-0.683781	0.621925	-0.281174
C105	C	-1.054287	0.208600	-0.781201
C106	C	-0.554287	0.708600	-0.281201
C107	C	-1.054285	0.208600	-0.701953
C108	C	-0.554285	0.708600	-0.201953
C109	C	-1.119027	0.165256	-0.662320
C110	C	-0.619027	0.665256	-0.162320
N111	N	-1.119037	0.165257	0.179190
N112	N	-0.619037	0.665257	0.679190
H113	H	-0.617012	0.082952	-0.000024
H114	H	-0.117012	0.582952	0.499976
C115	C	-1.035511	-0.435819	0.148280
C116	C	-0.535511	0.064181	0.648280
C117	C	-1.116117	-0.480518	0.144085
C118	C	-0.616117	0.019482	0.644085
H119	H	-1.036007	-0.411094	0.194858
H120	H	-0.536007	0.088906	0.694858
H121	H	-1.036159	-0.403664	0.107416
H122	H	-0.536159	0.096336	0.607416
H123	H	-0.979701	-0.462387	0.145422
H124	H	-0.479701	0.037613	0.645422
H125	H	-1.171928	-0.453949	0.146937
H126	H	-0.671928	0.046051	0.646937
H127	H	-1.115478	-0.512677	0.184960
H128	H	-0.615478	-0.012677	0.684960
H129	H	-0.621044	0.247585	0.000014
H130	H	-0.121044	0.747585	0.500014
C131	C	-1.240229	0.004666	-0.322420
C132	C	-0.740229	0.504666	0.177580
C133	C	-1.254923	0.074316	-0.341559
C134	C	-0.754923	0.574316	0.158441
H135	H	-1.284154	-0.024729	-0.349329
H136	H	-0.784154	0.475271	0.150671
H137	H	-1.249524	-0.001550	-0.269563
H138	H	-0.749524	0.498450	0.230437
H139	H	-1.177046	-0.006961	-0.335399
H140	H	-0.677046	0.493039	0.164601
H141	H	-1.318103	0.085945	-0.328574
H142	H	-0.818103	0.585945	0.171426
H143	H	-1.245636	0.080536	-0.394427
H144	H	-0.745636	0.580536	0.105573
C145	C	-1.124056	-0.083263	-0.204265
C146	C	-0.624056	0.416737	0.295735
C147	C	-1.125005	-0.035874	-0.144027
C148	C	-0.625005	0.464126	0.355973
H149	H	-1.124539	-0.058513	-0.250836
H150	H	-0.624539	0.441487	0.249164
H151	H	-1.178735	-0.113582	-0.201409
H152	H	-0.678735	0.386418	0.298591
H153	H	-1.068238	-0.109823	-0.201406
H154	H	-0.568238	0.390177	0.298594
H155	H	-1.180827	-0.009316	-0.146882
H156	H	-0.680827	0.490684	0.353118
H157	H	-1.070320	-0.005542	-0.146884
H158	H	-0.570320	0.494458	0.353116
C159	C	-1.039657	-0.228099	-0.148208
C160	C	-0.539657	0.271901	0.351792
C161	C	-1.121941	-0.188953	-0.144025
C162	C	-0.621941	0.311047	0.355975
H163	H	-1.039160	-0.252839	-0.194777
H164	H	-0.539160	0.247161	0.305223
H165	H	-1.039022	-0.260240	-0.107332
H166	H	-0.539022	0.239760	0.392668
H167	H	-0.984986	-0.197761	-0.145366
H168	H	-0.484986	0.302239	0.354634
H169	H	-1.176613	-0.219292	-0.146862
H170	H	-0.676613	0.280708	0.353138
H171	H	-1.122585	-0.156808	-0.184913
H172	H	-0.622585	0.343192	0.315087
H173	H	-1.122145	-0.178605	0.124541
H174	H	-0.622145	0.321395	0.624541
H175	H	-1.124778	-0.046317	0.124556
H176	H	-0.624778	0.453683	0.624556
C177	C	-1.311761	0.036238	-0.773183
C178	C	-0.811761	0.536238	-0.273183
C179	C	-1.254944	0.074281	-0.824710
C180	C	-0.754944	0.574281	-0.324710
H181	H	-1.355690	0.006822	-0.800063
H182	H	-0.855690	0.506822	-0.300063
H183	H	-1.345643	0.067479	-0.742281
H184	H	-0.845643	0.567479	-0.242281
H185	H	-1.272481	0.008605	-0.742270
H186	H	-0.772481	0.508605	-0.242270
H187	H	-1.294224	0.101919	-0.855620
H188	H	-0.794224	0.601919	-0.355620
H189	H	-1.221060	0.043037	-0.855626
H190	H	-0.721060	0.543037	-0.355626
C191	C	-1.115153	-0.527844	-0.204291
C192	C	-0.615153	-0.027844	0.295709
C193	C	-1.116112	-0.480457	-0.144051
C194	C	-0.616112	0.019543	0.355949
H195	H	-1.115638	-0.503093	-0.250862
H196	H	-0.615638	-0.003093	0.249138
H197	H	-1.169829	-0.558167	-0.201438
H198	H	-0.669829	-0.058167	0.298562
H199	H	-1.059332	-0.554401	-0.201431
H200	H	-0.559332	-0.054401	0.298569
H201	H	-1.171937	-0.453904	-0.146908
H202	H	-0.671937	0.046096	0.353092
H203	H	-1.061431	-0.450121	-0.146905
H204	H	-0.561431	0.049879	0.353095
C205	C	-1.030766	-0.672663	-0.148271
C206	C	-0.530766	-0.172663	0.351729
C207	C	-1.113049	-0.633520	-0.144060
C208	C	-0.613049	-0.133520	0.355940
H209	H	-1.030276	-0.697386	-0.194850
H210	H	-0.530276	-0.197386	0.305150
H211	H	-1.030123	-0.704821	-0.107409
H212	H	-0.530123	-0.204821	0.392591
H213	H	-0.976094	-0.642326	-0.145421
H214	H	-0.476094	-0.142326	0.354579
H215	H	-1.167722	-0.663858	-0.146904
H216	H	-0.667722	-0.163858	0.353096
H217	H	-1.113701	-0.601360	-0.184933
H218	H	-0.613701	-0.101360	0.315067
C219	C	-1.111581	-0.705274	0.129586
C220	C	-0.611581	-0.205274	0.629586
C221	C	-1.113026	-0.633577	0.144080
C222	C	-0.613026	-0.133577	0.644080
H223	H	-1.111068	-0.730021	0.176159
H224	H	-0.611068	-0.230021	0.676159
H225	H	-1.056105	-0.715322	0.101377
H226	H	-0.556105	-0.215322	0.601377
H227	H	-1.166602	-0.719103	0.101403
H228	H	-0.666602	-0.219103	0.601403
H229	H	-1.058001	-0.619747	0.172259
H230	H	-0.558001	-0.119747	0.672259
H231	H	-1.168507	-0.623524	0.172302
H232	H	-0.668507	-0.123524	0.672302
H233	H	-1.001566	0.243903	-0.330295
H234	H	-0.501566	0.743903	0.169705
C235	C	-1.204969	0.028238	-0.612784
C236	C	-0.704969	0.528238	-0.112784
C237	C	-1.254935	0.074284	-0.658351
C238	C	-0.754935	0.574284	-0.158351
H239	H	-1.248903	-0.001173	-0.585887
H240	H	-0.748903	0.498827	-0.085887
H241	H	-1.166415	0.054049	-0.577860
H242	H	-0.666415	0.554049	-0.077860
H243	H	-1.165713	0.000600	-0.643706
H244	H	-0.665713	0.500600	-0.143706
H245	H	-1.294186	0.101926	-0.627428
H246	H	-0.794186	0.601926	-0.127428
H247	H	-1.293505	0.048470	-0.693279
H248	H	-0.793505	0.548470	-0.193279
C249	C	-0.890002	0.239078	-0.805613
C250	C	-0.390002	0.739078	-0.305613
C251	C	-0.983120	0.256234	-0.824765
C252	C	-0.483120	0.756234	-0.324765
H253	H	-0.846070	0.268491	-0.832509
H254	H	-0.346070	0.768491	-0.332509
H255	H	-0.880036	0.191836	-0.818595
H256	H	-0.380036	0.691836	-0.318595
H257	H	-0.880746	0.245284	-0.752748
H258	H	-0.380746	0.745284	-0.252748
H259	H	-0.992379	0.250023	-0.877630
H260	H	-0.492379	0.750023	-0.377630
H261	H	-0.993090	0.303487	-0.811789
H262	H	-0.493090	0.803487	-0.311789
H263	H	-1.236476	0.086652	-0.186473
H264	H	-0.736476	0.586652	0.313527
C265	C	-0.925252	0.215479	-0.612842
C266	C	-0.425252	0.715479	-0.112842
C267	C	-0.983115	0.256233	-0.658414
C268	C	-0.483115	0.756233	-0.158414
H269	H	-0.881318	0.244890	-0.585961
H270	H	-0.381318	0.744890	-0.085961
H271	H	-0.891376	0.184241	-0.643752
H272	H	-0.391376	0.684241	-0.143752
H273	H	-0.963821	0.189675	-0.577897
H274	H	-0.463821	0.689675	-0.077897
H275	H	-0.944546	0.282033	-0.693363
H276	H	-0.444546	0.782033	-0.193363
H277	H	-1.016994	0.287483	-0.627502
H278	H	-0.516994	0.787483	-0.127502
H279	H	-1.001563	0.243919	-0.186523
H280	H	-0.501563	0.743919	0.313477
