data_functionalizedCrystal
_audit_creation_method	'MofGen! by Chris Wilmer'
_symmetry_space_group_name_H-M	'P1'
_symmetry_Int_Tables_number	1
_symmetry_cell_setting	triclinic
loop_
_symmetry_equiv_pos_as_xyz
  x,y,z
_cell_length_a	12.827893
_cell_length_b	16.625546
_cell_length_c	12.827885
_cell_angle_alpha	89.964876
_cell_angle_beta	89.980538
_cell_angle_gamma	90.022439
loop_
_atom_site_label
_atom_site_type_symbol
_atom_site_fract_x
_atom_site_fract_y
_atom_site_fract_z
Zn1	Zn	1.597620	-0.320963	-0.590810
Zn2	Zn	1.930954	0.012370	-0.257477
Zn3	Zn	2.264287	0.345703	0.075857
Zn4	Zn	1.597492	-0.455817	-0.416054
Zn5	Zn	1.930825	-0.122484	-0.082721
Zn6	Zn	2.264159	0.210849	0.250613
Zn7	Zn	1.422861	-0.321002	-0.416084
Zn8	Zn	1.756194	0.012331	-0.082750
Zn9	Zn	2.089528	0.345664	0.250583
Zn10	Zn	1.422825	-0.455757	-0.590754
Zn11	Zn	1.756159	-0.122424	-0.257421
Zn12	Zn	2.089492	0.210909	0.075913
O13	O	1.510200	-0.388385	-0.503425
O14	O	1.843533	-0.055052	-0.170092
O15	O	2.176866	0.278282	0.163241
O16	O	1.743839	-0.338861	-0.567639
O17	O	2.077173	-0.005527	-0.234306
O18	O	2.410506	0.327806	0.099027
O19	O	1.574288	-0.437976	-0.269822
O20	O	1.907622	-0.104642	0.063512
O21	O	2.240955	0.228691	0.396845
O22	O	1.446112	-0.208165	-0.439297
O23	O	1.779445	0.125168	-0.105964
O24	O	2.112778	0.458502	0.227369
O25	O	1.743745	-0.437937	-0.439247
O26	O	2.077078	-0.104604	-0.105913
O27	O	2.410412	0.228729	0.227420
O28	O	1.574507	-0.208136	-0.567668
O29	O	1.907840	0.125197	-0.234335
O30	O	2.241173	0.458531	0.098999
O31	O	1.445988	-0.338928	-0.269843
O32	O	1.779321	-0.005594	0.063490
O33	O	2.112654	0.327739	0.396823
O34	O	1.276620	-0.338869	-0.439243
O35	O	1.609954	-0.005536	-0.105910
O36	O	1.943287	0.327797	0.227424
O37	O	1.446051	-0.437835	-0.736997
O38	O	1.779384	-0.104502	-0.403664
O39	O	2.112717	0.228831	-0.070331
O40	O	1.276594	-0.437873	-0.567572
O41	O	1.609927	-0.104540	-0.234239
O42	O	1.943261	0.228793	0.099094
O43	O	1.574472	-0.338802	-0.737039
O44	O	1.907805	-0.005469	-0.403705
O45	O	2.241139	0.327864	-0.070372
O46	O	1.574254	-0.568642	-0.439192
O47	O	1.907587	-0.235309	-0.105859
O48	O	2.240920	0.098025	0.227474
O49	O	1.445927	-0.568598	-0.567544
O50	O	1.779260	-0.235265	-0.234210
O51	O	2.112593	0.098069	0.099123
C52	C	1.238690	-0.388370	-0.503405
C53	C	1.572023	-0.055036	-0.170072
C54	C	1.905356	0.278297	0.163261
C55	C	1.122537	-0.388382	-0.503422
C56	C	1.455870	-0.055049	-0.170088
C57	C	1.789203	0.278284	0.163245
C58	C	1.070766	-0.437449	-0.566825
C59	C	1.404100	-0.104116	-0.233492
C60	C	1.737433	0.229217	0.099841
C61	C	0.950716	-0.437464	-0.566844
C62	C	1.284049	-0.104130	-0.233510
C63	C	1.617383	0.229203	0.099823
C64	C	1.510101	-0.597876	-0.503382
C65	C	1.843434	-0.264543	-0.170048
C66	C	2.176767	0.068791	0.163285
C67	C	1.510154	-0.687497	-0.503398
C68	C	1.843487	-0.354164	-0.170064
C69	C	2.176821	-0.020830	0.163269
C70	C	1.510336	-1.015673	-0.503507
C71	C	1.843670	-0.682339	-0.170173
C72	C	2.177003	-0.349006	0.163160
C73	C	1.510282	-0.924364	-0.503479
C74	C	1.843616	-0.591031	-0.170146
C75	C	2.176949	-0.257698	0.163187
C76	C	1.510244	-0.851588	-0.503452
C77	C	1.843578	-0.518254	-0.170118
C78	C	2.176911	-0.184921	0.163215
C79	C	1.510192	-0.760274	-0.503425
C80	C	1.843525	-0.426940	-0.170092
C81	C	2.176859	-0.093607	0.163241
C82	C	1.782770	-0.388401	-0.503446
C83	C	2.116103	-0.055068	-0.170113
C84	C	2.449436	0.278265	0.163221
C85	C	1.898923	-0.388408	-0.503455
C86	C	2.232256	-0.055075	-0.170121
C87	C	2.565590	0.278258	0.163212
C88	C	1.510272	-0.388308	-0.775996
C89	C	1.843605	-0.054974	-0.442662
C90	C	2.176938	0.278359	-0.109329
C91	C	1.510302	-0.388275	-0.892149
C92	C	1.843636	-0.054941	-0.558816
C93	C	2.176969	0.278392	-0.225482
C94	C	1.510327	-0.178076	-0.503492
C95	C	1.843661	0.155257	-0.170159
C96	C	2.176994	0.488590	0.163175
C97	C	1.510382	-0.088455	-0.503521
C98	C	1.843715	0.244878	-0.170187
C99	C	2.177048	0.578212	0.163146
C100	C	1.446835	-0.339253	-0.943944
C101	C	1.780169	-0.005920	-0.610611
C102	C	2.113502	0.327414	-0.277278
C103	C	1.446866	-0.339218	-1.063995
C104	C	1.780199	-0.005884	-0.730661
C105	C	2.113532	0.327449	-0.397328
C106	C	1.510188	-0.388404	-0.231915
C107	C	1.843521	-0.055071	0.101418
C108	C	2.176855	0.278263	0.434751
C109	C	1.510360	-0.388210	-0.115763
C110	C	1.843693	-0.054877	0.217571
C111	C	2.177026	0.278457	0.550904
H112	H	1.115321	-0.479444	-0.621098
H113	H	1.448654	-0.146110	-0.287764
H114	H	1.781988	0.187223	0.045569
C115	C	0.783329	-0.483210	-0.625965
C116	C	1.116663	-0.149877	-0.292631
C117	C	1.449996	0.183456	0.040702
C118	C	0.890623	-0.494175	-0.640130
C119	C	1.223956	-0.160841	-0.306796
C120	C	1.557290	0.172492	0.026537
H121	H	0.746231	-0.518220	-0.671216
H122	H	1.079565	-0.184886	-0.337883
H123	H	1.412898	0.148447	-0.004549
H124	H	0.765462	-0.494940	-0.555719
H125	H	1.098795	-0.161607	-0.222386
H126	H	1.432129	0.171726	0.110948
H127	H	0.765528	-0.429036	-0.641371
H128	H	1.098862	-0.095703	-0.308037
H129	H	1.432195	0.237631	0.025296
H130	H	0.908426	-0.548348	-0.624716
H131	H	1.241759	-0.215015	-0.291383
H132	H	1.575092	0.118319	0.041950
H133	H	0.908498	-0.482450	-0.710391
H134	H	1.241831	-0.149117	-0.377058
H135	H	1.575164	0.184216	-0.043725
H136	H	1.392534	-0.297245	-1.108538
H137	H	1.725867	0.036088	-0.775204
H138	H	2.059200	0.369422	-0.441871
C139	C	1.524669	-0.496623	-0.992872
C140	C	1.858002	-0.163290	-0.659538
C141	C	2.191336	0.170043	-0.326205
C142	C	1.583718	-0.444875	-1.055649
C143	C	1.917051	-0.111542	-0.722315
C144	C	2.250384	0.221791	-0.388982
H145	H	1.569958	-0.531609	-0.955760
H146	H	1.903292	-0.198275	-0.622427
H147	H	2.236625	0.135058	-0.289093
H148	H	1.484843	-0.465890	-0.944836
H149	H	1.818176	-0.132556	-0.611503
H150	H	2.151509	0.200777	-0.278170
H151	H	1.479171	-0.527476	-1.035450
H152	H	1.812505	-0.194143	-0.702117
H153	H	2.145838	0.139190	-0.368783
H154	H	1.629210	-0.414018	-1.013069
H155	H	1.962544	-0.080685	-0.679736
H156	H	2.295877	0.252649	-0.346403
H157	H	1.623562	-0.475612	-1.103690
H158	H	1.956895	-0.142279	-0.770356
H159	H	2.290228	0.191054	-0.437023
C160	C	1.021724	-0.377150	-0.363007
C161	C	1.355057	-0.043817	-0.029674
C162	C	1.688391	0.289517	0.303659
C163	C	0.959012	-0.331695	-0.430169
C164	C	1.292346	0.001639	-0.096835
C165	C	1.625679	0.334972	0.236498
H166	H	1.058830	-0.342136	-0.317769
H167	H	1.392164	-0.008803	0.015564
H168	H	1.725497	0.324531	0.348897
H169	H	0.979111	-0.412209	-0.322923
H170	H	1.312444	-0.078876	0.010410
H171	H	1.645778	0.254457	0.343744
H172	H	1.069774	-0.407922	-0.402786
H173	H	1.403107	-0.074589	-0.069453
H174	H	1.736441	0.258744	0.263881
H175	H	0.910957	-0.300927	-0.390390
H176	H	1.244290	0.032407	-0.057057
H177	H	1.577623	0.365740	0.276276
H178	H	1.001629	-0.296621	-0.470257
H179	H	1.334962	0.036712	-0.136924
H180	H	1.668296	0.370046	0.196410
C181	C	1.387627	-0.293620	-0.776545
C182	C	1.720961	0.039713	-0.443212
C183	C	2.054294	0.373047	-0.109879
C184	C	1.373451	-0.282626	-0.883838
C185	C	1.706784	0.050708	-0.550504
C186	C	2.040117	0.384041	-0.217171
H187	H	1.342325	-0.258655	-0.739442
H188	H	1.675658	0.074678	-0.406109
H189	H	2.008991	0.408012	-0.072775
H190	H	1.372307	-0.347805	-0.758698
H191	H	1.705640	-0.014472	-0.425365
H192	H	2.038974	0.318862	-0.092032
H193	H	1.457863	-0.281842	-0.758730
H194	H	1.791197	0.051491	-0.425397
H195	H	2.124530	0.384825	-0.092063
H196	H	1.303216	-0.294409	-0.901654
H197	H	1.636549	0.038924	-0.568321
H198	H	1.969882	0.372257	-0.234988
H199	H	1.388763	-0.228428	-0.901692
H200	H	1.722097	0.104905	-0.568358
H201	H	2.055430	0.438239	-0.235025
H202	H	1.077982	-0.346382	-0.449157
H203	H	1.411316	-0.013049	-0.115824
H204	H	1.744649	0.320285	0.217509
H205	H	1.564660	-0.430219	-0.936682
H206	H	1.897993	-0.096885	-0.603348
H207	H	2.231327	0.236448	-0.270015
