data_functionalizedCrystal
_audit_creation_method	'MofGen! by Chris Wilmer'
_symmetry_space_group_name_H-M	'P1'
_symmetry_Int_Tables_number	1
_symmetry_cell_setting	triclinic
loop_
_symmetry_equiv_pos_as_xyz
  x,y,z
_cell_length_a	14.519709
_cell_length_b	15.455313
_cell_length_c	16.992695
_cell_angle_alpha	87.152573
_cell_angle_beta	92.825816
_cell_angle_gamma	87.319926
loop_
_atom_site_label
_atom_site_type_symbol
_atom_site_fract_x
_atom_site_fract_y
_atom_site_fract_z
O1	O	-1.235028	0.072007	0.099376
O2	O	-0.967421	0.072036	0.111480
O3	O	-1.100151	0.072015	-0.008715
O4	O	-1.102297	0.072028	0.219572
O5	O	-1.092559	-0.072246	-0.001870
O6	O	-0.959829	-0.072225	0.118325
O7	O	-1.227435	-0.072254	0.106221
Cu8	Cu	-1.092939	-0.085411	0.112898
Cu9	Cu	-1.101917	0.085194	0.104803
O10	O	-1.094705	-0.072233	0.226417
C11	C	-0.929225	-0.000091	0.114339
C12	C	-0.826723	-0.000080	0.112648
N13	N	-1.086630	-0.205406	0.118591
C14	C	-1.143041	-0.250809	0.067547
C15	C	-1.138279	-0.341616	0.071860
C16	C	-1.077111	-0.387019	0.127221
C17	C	-1.020694	-0.341609	0.178268
C18	C	-1.025452	-0.250804	0.173951
C19	C	-1.056573	-0.658597	0.145834
C20	C	-1.051822	-0.749409	0.150149
C21	C	-1.169407	-0.749409	0.043739
C22	C	-1.174163	-0.658602	0.039430
C23	C	-1.117742	-0.613201	0.090474
N24	N	-1.072244	-0.479838	0.131632
N25	N	-1.122605	-0.520383	0.086058
C26	C	-0.451378	-0.000117	0.106425
C27	C	-0.555811	-0.000106	0.108153
C28	C	-0.639047	-0.000097	0.109536
C29	C	-0.743486	-0.000089	0.111265
C30	C	-0.265632	-0.000123	0.103363
C31	C	-0.368134	-0.000122	0.105054
C32	C	-1.093595	-0.000115	-0.034509
C33	C	-1.085360	-0.000114	-0.121565
N34	N	-1.108233	0.205188	0.099104
C35	C	-1.164819	-0.000124	-0.171694
C36	C	-1.157076	-0.000115	-0.253492
C37	C	-1.069872	-0.000102	-0.285159
C38	C	-0.990407	-0.000090	-0.235024
C39	C	-0.998151	-0.000093	-0.153228
C40	C	-1.037776	-0.000087	-0.528803
C41	C	-1.030038	-0.000087	-0.610605
C42	C	-1.196707	-0.000109	-0.629067
C43	C	-1.204444	-0.000117	-0.547268
C44	C	-1.124979	-0.000101	-0.497141
N45	N	-1.061956	-0.000096	-0.368769
N46	N	-1.132897	-0.000101	-0.413532
C47	C	-1.101261	-0.000101	0.252211
C48	C	-1.109497	-0.000096	0.339267
H49	H	-1.184213	-0.378583	0.030295
H50	H	-1.235829	-0.000139	-0.145917
N51	N	-0.958197	-0.387986	0.234806
N52	N	-0.896462	-0.438666	0.212221
H53	H	-0.852322	-0.471420	0.252152
N54	N	-0.967832	-0.204436	0.226105
N55	N	-0.973902	-0.214565	0.299073
H56	H	-0.933205	-0.181819	0.335908
H57	H	-0.933447	-0.000085	-0.112413
N58	N	-1.238252	-0.000116	-0.304686
N59	N	-1.316106	-0.000128	-0.276401
H60	H	-1.373442	-0.000126	-0.312557
N61	N	-0.940958	-0.000096	-0.642957
N62	N	-0.882828	-0.060903	-0.624761
H63	H	-0.819919	-0.060916	-0.647612
N64	N	-1.293528	-0.000131	-0.514936
N65	N	-1.364468	-0.000138	-0.559704
H66	H	-1.427386	-0.000149	-0.536870
N67	N	-1.205477	-0.204449	0.010949
N68	N	-1.255798	-0.245003	-0.034654
H69	H	-1.299872	-0.212265	-0.074647
N70	N	-1.236817	-0.612241	-0.016992
N71	N	-1.287291	-0.652791	-0.062475
H72	H	-1.331607	-0.620050	-0.102272
N73	N	-1.277864	-0.000128	-0.680282
N74	N	-1.270943	-0.000127	-0.753312
H75	H	-1.328263	-0.000138	-0.789485
H76	H	-1.010635	-0.621638	0.187398
N77	N	-1.227028	-0.795800	-0.008392
N78	N	-1.222776	-0.876875	-0.004533
H79	H	-1.263472	-0.909640	-0.041354
N80	N	-0.901331	-0.000100	-0.267371
N81	N	-0.843204	-0.060910	-0.249171
H82	H	-0.780291	-0.060923	-0.272015
H83	H	-1.002009	-0.786371	0.195234
H84	H	-0.973070	-0.000073	-0.487998
