data_functionalizedCrystal
_audit_creation_method	'MofGen! by Chris Wilmer'
_symmetry_space_group_name_H-M	'P1'
_symmetry_Int_Tables_number	1
_symmetry_cell_setting	triclinic
loop_
_symmetry_equiv_pos_as_xyz
  x,y,z
_cell_length_a	11.792241
_cell_length_b	11.026607
_cell_length_c	10.065918
_cell_angle_alpha	82.291637
_cell_angle_beta	99.762002
_cell_angle_gamma	83.610284
loop_
_atom_site_label
_atom_site_type_symbol
_atom_site_fract_x
_atom_site_fract_y
_atom_site_fract_z
O1	O	0.494000	-1.629339	0.113506
O2	O	0.827333	-1.296006	0.446839
O3	O	1.160666	-0.962672	0.780172
O4	O	0.439808	-1.275676	0.113506
O5	O	0.773141	-0.942343	0.446840
O6	O	1.106475	-0.609010	0.780173
O7	O	0.303436	-1.461089	0.113496
O8	O	0.636769	-1.127755	0.446830
O9	O	0.970103	-0.794422	0.780163
O10	O	0.630372	-1.443927	0.113516
O11	O	0.963705	-1.110593	0.446849
O12	O	1.297038	-0.777260	0.780182
O13	O	0.267251	-1.428986	-0.113494
O14	O	0.600584	-1.095653	0.219840
O15	O	0.933918	-0.762320	0.553173
O16	O	0.403623	-1.243574	-0.113484
O17	O	0.736957	-0.910241	0.219849
O18	O	1.070290	-0.576907	0.553183
O19	O	0.457815	-1.597237	-0.113484
O20	O	0.791148	-1.263903	0.219849
O21	O	1.124482	-0.930570	0.553182
Zn22	Zn	0.424974	-1.415309	-0.149524
Zn23	Zn	0.758307	-1.081975	0.183810
Zn24	Zn	1.091641	-0.748642	0.517143
Zn25	Zn	0.472649	-1.457605	0.149545
Zn26	Zn	0.805982	-1.124271	0.482879
Zn27	Zn	1.139316	-0.790938	0.816212
O28	O	0.594187	-1.411824	-0.113475
O29	O	0.927520	-1.078491	0.219859
O30	O	1.260854	-0.745158	0.553192
C31	C	0.242839	-1.443960	0.000002
C32	C	0.576172	-1.110626	0.333335
C33	C	0.909505	-0.777293	0.666668
C34	C	0.116184	-1.440732	0.000003
C35	C	0.449518	-1.107399	0.333336
C36	C	0.782851	-0.774066	0.666670
C37	C	0.411718	-1.214349	0.000011
C38	C	0.745052	-0.881015	0.333344
C39	C	1.078385	-0.547682	0.666678
C40	C	0.381915	-1.079439	0.000011
C41	C	0.715249	-0.746105	0.333344
C42	C	1.048582	-0.412772	0.666678
C43	C	0.485905	-1.658565	0.000014
C44	C	0.819238	-1.325232	0.333347
C45	C	1.152572	-0.991898	0.666680
C46	C	0.515709	-1.793476	0.000023
C47	C	0.849043	-1.460143	0.333356
C48	C	1.182376	-1.126810	0.666689
C49	C	-0.115703	-1.434801	0.000026
C50	C	0.217631	-1.101468	0.333359
C51	C	0.550964	-0.768135	0.666693
C52	C	0.013335	-1.438097	0.000013
C53	C	0.346669	-1.104764	0.333347
C54	C	0.680002	-0.771430	0.666680
C55	C	0.654785	-1.428954	0.000023
C56	C	0.988118	-1.095621	0.333356
C57	C	1.321451	-0.762287	0.666690
C58	C	0.781440	-1.432182	0.000031
C59	C	1.114774	-1.098849	0.333364
C60	C	1.448107	-0.765516	0.666697
N61	N	0.392438	-1.386451	-0.353631
N62	N	0.725771	-1.053118	-0.020297
N63	N	1.059105	-0.719785	0.313036
C64	C	0.464207	-1.006175	0.000017
C65	C	0.797540	-0.672842	0.333350
C66	C	1.130873	-0.339508	0.666684
C67	C	0.433406	-0.866738	0.000017
C68	C	0.766739	-0.533405	0.333350
C69	C	1.100073	-0.200071	0.666684
C70	C	0.461327	-1.447556	-0.421407
C71	C	0.794661	-1.114223	-0.088073
C72	C	1.127994	-0.780890	0.245260
C73	C	0.436278	-1.425358	-0.578575
C74	C	0.769612	-1.092024	-0.245242
C75	C	1.102945	-0.758691	0.088092
N76	N	0.505178	-1.486471	0.353652
N77	N	0.838511	-1.153138	0.686986
N78	N	1.171844	-0.819805	1.020319
H79	H	0.557460	-1.046680	0.000015
H80	H	0.890794	-0.713346	0.333348
H81	H	1.224127	-0.380013	0.666681
C82	C	0.641703	-0.848183	0.000031
C83	C	0.975036	-0.514850	0.333364
C84	C	1.308369	-0.181516	0.666698
N85	N	0.736600	-0.889390	0.000040
N86	N	1.069933	-0.556056	0.333374
N87	N	1.403267	-0.222723	0.666707
H88	H	0.288666	-1.038938	0.000041
H89	H	0.622000	-0.705604	0.333374
H90	H	0.955333	-0.372271	0.666707
C91	C	0.609919	-1.579352	-0.567561
C92	C	0.943252	-1.246019	-0.234227
C93	C	1.276585	-0.912685	0.099106
N94	N	0.688811	-1.649306	-0.508217
N95	N	1.022144	-1.315973	-0.174884
N96	N	1.355477	-0.982639	0.158450
H97	H	0.340151	-0.826243	0.000046
H98	H	0.673484	-0.492910	0.333380
H99	H	1.006817	-0.159576	0.666713
H100	H	0.538847	-1.516310	-0.363076
H101	H	0.872180	-1.182976	-0.029743
H102	H	1.205513	-0.849643	0.303590
H103	H	0.358748	-1.356608	-0.636900
H104	H	0.692081	-1.023274	-0.303567
H105	H	1.025414	-0.689941	0.029766
H106	H	0.314913	-1.317706	-0.411961
H107	H	0.648246	-0.984373	-0.078628
H108	H	0.981579	-0.651039	0.254706
