data_functionalizedCrystal
_audit_creation_method	'MofGen! by Chris Wilmer'
_symmetry_space_group_name_H-M	'P1'
_symmetry_Int_Tables_number	1
_symmetry_cell_setting	triclinic
loop_
_symmetry_equiv_pos_as_xyz
  x,y,z
_cell_length_a	16.974810
_cell_length_b	16.956984
_cell_length_c	7.540329
_cell_angle_alpha	89.996050
_cell_angle_beta	86.345867
_cell_angle_gamma	100.269706
loop_
_atom_site_label
_atom_site_type_symbol
_atom_site_fract_x
_atom_site_fract_y
_atom_site_fract_z
O1	O	-1.042505	0.101600	0.002214
O2	O	-0.811452	0.114554	-0.030968
O3	O	-0.940860	-0.008018	-0.012371
O4	O	-0.913097	0.224171	-0.016383
O5	O	-0.940853	-0.008019	0.282593
O6	O	-0.811445	0.114553	0.263996
O7	O	-1.042498	0.101598	0.297178
Cu8	Cu	-0.926971	0.108075	0.307519
Cu9	Cu	-0.926979	0.108077	-0.041310
O10	O	-0.913090	0.224170	0.278581
C11	C	-0.782022	0.114062	0.112288
C12	C	-0.694341	0.112588	0.099697
C13	C	-0.653150	0.111893	0.254570
C14	C	-0.570767	0.110496	0.242745
C15	C	-0.529577	0.109799	0.076044
C16	C	-0.570774	0.110492	-0.078841
C17	C	-0.653156	0.111884	-0.067014
C18	C	-0.283191	0.105632	0.023429
C19	C	-0.200803	0.104242	0.011613
C20	C	-0.200802	0.104245	0.333201
C21	C	-0.283185	0.105641	0.345013
C22	C	-0.324376	0.106330	0.190129
N23	N	-0.445368	0.108373	0.063952
N24	N	-0.408585	0.107750	0.202222
C25	C	-0.942278	-0.037728	0.135314
C26	C	-0.946504	-0.126254	0.135920
C27	C	-0.875836	-0.158258	0.125763
C28	C	-0.879812	-0.241437	0.126339
C29	C	-0.954457	-0.292612	0.137059
C30	C	-1.025131	-0.260602	0.147221
C31	C	-1.021155	-0.177424	0.146658
C32	C	-0.974142	-0.542407	0.139874
C33	C	-0.978114	-0.625590	0.140431
C34	C	-0.832794	-0.606419	0.119552
C35	C	-0.828824	-0.523240	0.118979
C36	C	-0.899497	-0.491238	0.129151
N37	N	-0.958523	-0.377635	0.137642
N38	N	-0.895431	-0.406216	0.128580
C39	C	-0.071929	0.102086	0.153915
C40	C	-0.159612	0.103547	0.166487
C41	C	-0.911672	0.253880	0.130891
C42	C	-0.907445	0.342406	0.130274
N43	N	-0.926971	0.108074	0.552868
N44	N	-0.926986	0.108072	-0.286657
H45	H	-0.686693	0.112451	-0.193129
H46	H	-0.815051	-0.116597	0.117025
O47	O	-1.089824	-0.146370	0.156203
C48	C	-1.212836	-0.137328	0.021112
C49	C	-1.135089	-0.172534	0.010057
H50	H	-1.249462	-0.158481	-0.097010
H51	H	-1.197217	-0.069085	0.018764
H52	H	-1.249412	-0.158399	0.149862
H53	H	-1.098476	-0.151524	-0.118677
H54	H	-1.150763	-0.240772	0.012505
O55	O	-0.764068	-0.637375	0.109595
C56	C	-0.619512	-0.609580	0.088944
C57	C	-0.697284	-0.574419	0.100165
H58	H	-0.565497	-0.558698	0.081355
H59	H	-0.617685	-0.648008	-0.034793
H60	H	-0.617782	-0.648076	0.212105
H61	H	-0.699066	-0.535886	-0.022906
H62	H	-0.699080	-0.536037	0.223979
O63	O	-0.811087	-0.272393	0.116383
C64	C	-0.666530	-0.244601	0.095720
C65	C	-0.744302	-0.209438	0.106939
H66	H	-0.612515	-0.193719	0.088120
H67	H	-0.664706	-0.283033	-0.028011
H68	H	-0.664799	-0.283093	0.218888
H69	H	-0.746085	-0.170910	-0.016137
H70	H	-0.746095	-0.171052	0.230747
O71	O	-1.097577	-0.310424	0.157549
C72	C	-1.168109	-0.447058	0.167770
C73	C	-1.086010	-0.390729	0.156030
H74	H	-1.158785	-0.511997	0.166582
H75	H	-1.203175	-0.435483	0.049338
H76	H	-1.203151	-0.435388	0.296220
H77	H	-1.050903	-0.402366	0.027653
H78	H	-1.051005	-0.402316	0.274551
O79	O	-0.323262	0.106168	-0.126961
C80	C	-0.429783	0.038715	-0.298257
C81	C	-0.384454	0.037997	-0.127883
H82	H	-0.479277	-0.016386	-0.299041
H83	H	-0.386238	0.037932	-0.419499
H84	H	-0.457427	0.095173	-0.302304
H85	H	-0.356807	-0.018451	-0.123663
H86	H	-0.428034	0.038822	-0.006720
O87	O	-0.756329	-0.473503	0.108257
C88	C	-0.667524	-0.368435	-0.057263
C89	C	-0.749644	-0.424728	-0.045347
H90	H	-0.662099	-0.328975	-0.181422
H91	H	-0.617667	-0.405563	-0.064543
H92	H	-0.662034	-0.329054	0.065448
H93	H	-0.755212	-0.464120	-0.168025
H94	H	-0.799461	-0.387552	-0.037980
H95	H	-0.537236	0.109917	0.368860
H96	H	-0.316718	0.106205	0.480759
O97	O	-0.530699	0.109957	-0.240737
C98	C	-0.424182	0.177420	-0.442616
C99	C	-0.469509	0.178130	-0.259231
H100	H	-0.374689	0.232523	-0.457613
H101	H	-0.467729	0.178206	-0.551359
H102	H	-0.396536	0.120964	-0.454592
H103	H	-0.497158	0.234577	-0.247082
H104	H	-0.425928	0.177302	-0.150577
H105	H	-0.167267	0.103678	-0.124142
O106	O	-0.693267	0.112464	0.416409
C107	C	-0.799719	0.044953	0.618382
C108	C	-0.754370	0.044221	0.435027
H109	H	-0.849119	-0.010224	0.633509
H110	H	-0.827463	0.101348	0.630430
H111	H	-0.756102	0.044252	0.727008
H112	H	-0.797936	0.044892	0.326293
H113	H	-0.726613	-0.012170	0.423132
O114	O	-1.050675	-0.675224	0.150620
C115	C	-1.176079	-0.717094	0.015771
C116	C	-1.093946	-0.660825	0.004046
H117	H	-1.211081	-0.705484	-0.102737
H118	H	-1.211180	-0.705472	0.144179
H119	H	-1.166754	-0.782032	0.014498
H120	H	-1.103198	-0.595867	0.005246
H121	H	-1.058874	-0.672516	-0.124347
O122	O	-0.160782	0.103426	0.483599
C123	C	-0.081209	0.032819	0.658773
C124	C	-0.126515	0.033641	0.488392
H125	H	-0.053477	-0.023588	0.662685
H126	H	-0.124775	0.033502	0.780015
H127	H	-0.031782	0.087974	0.659694
H128	H	-0.175941	-0.021504	0.487297
H129	H	-0.082897	0.032999	0.367227
H130	H	-1.031690	-0.516361	0.148152
