data_functionalizedCrystal
_audit_creation_method	'MofGen! by Chris Wilmer'
_symmetry_space_group_name_H-M	'P1'
_symmetry_Int_Tables_number	1
_symmetry_cell_setting	triclinic
loop_
_symmetry_equiv_pos_as_xyz
  x,y,z
_cell_length_a	27.440280
_cell_length_b	20.875641
_cell_length_c	20.875641
_cell_angle_alpha	60.089808
_cell_angle_beta	90.005468
_cell_angle_gamma	62.438438
loop_
_atom_site_label
_atom_site_type_symbol
_atom_site_fract_x
_atom_site_fract_y
_atom_site_fract_z
Zr1	Zr	0.491807	0.694277	-0.105690
O2	O	0.420386	0.820527	-0.208966
O3	O	0.511029	0.563019	-0.070755
O4	O	0.518206	0.687041	-0.204226
O5	O	0.410587	0.703959	0.026064
O6	O	0.598408	0.687030	-0.204213
O7	O	0.413209	0.696505	-0.075495
O8	O	0.585569	0.465177	0.034542
O9	O	0.423426	0.925812	-0.212691
O10	O	0.582309	0.618854	-0.059803
O11	O	0.520499	0.624425	0.015979
O12	O	0.528949	0.770445	-0.141166
O13	O	0.467139	0.776016	-0.065383
Zr14	Zr	0.615538	0.706147	0.056306
Zr15	Zr	0.619720	0.694259	-0.105669
Zr16	Zr	0.487625	0.706165	0.056285
Zr17	Zr	0.496655	0.862194	-0.111632
Zr18	Zr	0.610690	0.538230	0.062247
O19	O	0.596316	0.837405	0.021371
O20	O	0.602262	0.820502	-0.208936
O21	O	0.414440	0.837431	0.021341
O22	O	0.686959	0.579896	0.159581
O23	O	0.692905	0.562993	-0.070725
O24	O	0.505083	0.579922	0.159552
O25	O	0.696758	0.696465	-0.075448
O26	O	0.589139	0.713382	0.154842
O27	O	0.508937	0.713394	0.154829
O28	O	0.694137	0.703919	0.026111
O29	O	0.525099	0.925798	-0.212675
O30	O	0.582246	0.474626	0.163290
O31	O	0.683920	0.474612	0.163307
O32	O	0.687243	0.465162	0.034559
O33	O	0.420102	0.935262	-0.083943
O34	O	0.521776	0.935247	-0.083926
O35	O	0.578396	0.629979	0.091781
O36	O	0.640207	0.624408	0.015999
O37	O	0.586846	0.775999	-0.065364
O38	O	0.525036	0.781570	0.010419
C39	C	0.547608	0.490173	-0.017260
C40	C	0.545550	0.418888	-0.014737
C41	C	0.393673	0.700235	-0.024718
C42	C	0.339370	0.700242	-0.024727
C43	C	0.576846	0.382490	-0.053110
C44	C	0.574914	0.315506	-0.050733
C45	C	0.541681	0.284925	-0.009987
C46	C	0.510385	0.321326	0.028391
C47	C	0.512321	0.388305	0.026017
C48	C	0.532434	0.084915	0.001357
C49	C	0.530499	0.017934	0.003726
C50	C	0.595029	0.012117	-0.075397
C51	C	0.596960	0.079101	-0.077770
C52	C	0.565665	0.115493	-0.039389
N53	N	0.539704	0.216459	-0.007558
N54	N	0.567646	0.183954	-0.041814
C55	C	0.030523	0.621069	0.017800
C56	C	-0.020495	0.621065	0.017807
O57	O	-0.023196	0.553770	0.053949
N58	N	-0.073866	0.700193	-0.024665
C59	C	-0.076216	0.779331	-0.067139
O60	O	-0.126297	0.846636	-0.103263
C61	C	-0.025198	0.779335	-0.067141
C62	C	0.028171	0.700201	-0.024673
C63	C	0.083891	0.541942	0.060265
C64	C	0.134906	0.541947	0.060256
C65	C	0.132554	0.621079	0.017783
C66	C	0.079186	0.700206	-0.024682
C67	C	-0.027550	0.858473	-0.109611
C68	C	0.023474	0.858470	-0.109609
C69	C	0.076844	0.779336	-0.067141
C70	C	0.127849	0.779343	-0.067163
N71	N	0.181220	0.700215	-0.024692
C72	C	0.183572	0.621083	0.017781
C73	C	-0.183356	0.779317	-0.067131
C74	C	-0.234373	0.779314	-0.067134
C75	C	-0.178648	0.621047	0.017813
C76	C	-0.127630	0.621051	0.017811
C77	C	-0.129985	0.700189	-0.024660
C78	C	0.290705	0.621099	0.017760
C79	C	0.341722	0.621110	0.017746
C80	C	0.285994	0.779377	-0.067198
C81	C	0.234981	0.779366	-0.067187
C82	C	0.237340	0.700220	-0.024702
O83	O	0.130594	0.846604	-0.103284
O84	O	0.233654	0.553790	0.053907
C85	C	0.713672	0.700189	-0.024666
C86	C	0.767975	0.700181	-0.024657
C87	C	0.558903	0.685342	-0.227297
C88	C	0.560678	0.680295	-0.296060
C89	C	0.559737	0.910250	-0.032124
C90	C	0.561795	0.981536	-0.034647
C91	C	0.533659	0.757051	-0.370835
C92	C	0.535335	0.752304	-0.435442
C93	C	0.564026	0.670800	-0.425272
C94	C	0.591048	0.594038	-0.350489
C95	C	0.589376	0.598786	-0.285884
C96	C	0.572017	0.648115	-0.613936
C97	C	0.573686	0.643373	-0.678549
C98	C	0.517973	0.801639	-0.763498
C99	C	0.516301	0.806380	-0.698888
C100	C	0.543325	0.729618	-0.624111
N101	N	0.565737	0.665946	-0.491309
N102	N	0.541617	0.734473	-0.558075
C103	C	0.548442	0.715082	0.177913
C104	C	0.546667	0.720129	0.246676
C105	C	0.707608	0.490151	-0.017234
C106	C	0.759852	0.418858	-0.014702
C107	C	0.542378	0.505043	0.185345
C108	C	0.538545	0.438805	0.256630
C109	C	0.702378	0.505021	0.185372
C110	C	0.752847	0.438775	0.256665
C111	C	0.404967	0.895403	-0.234756
C112	C	0.354498	0.961649	-0.306050
C113	C	0.399737	0.910273	-0.032151
C114	C	0.347493	0.981566	-0.034682
C115	C	0.564967	0.895380	-0.234730
C116	C	0.568800	0.961619	-0.306014
C117	C	0.754165	0.382478	-0.053088
C118	C	0.803250	0.315499	-0.050725
C119	C	0.858021	0.284897	-0.009971
C120	C	0.863708	0.321283	0.028415
C121	C	0.814623	0.388265	0.026048
C122	C	0.566966	0.410599	0.329681
C123	C	0.563362	0.348370	0.396667
C124	C	0.531340	0.314345	0.390600
C125	C	0.502915	0.342558	0.317541
C126	C	0.506516	0.404789	0.250557
C127	C	0.808818	0.404757	0.250588
C128	C	0.856244	0.342520	0.317570
C129	C	0.847699	0.314298	0.390628
C130	C	0.791722	0.348323	0.396703
C131	C	0.744297	0.410563	0.329723
C132	C	0.298528	0.995676	-0.299973
C133	C	0.251102	1.057933	-0.366955
C134	C	0.259647	1.086158	-0.440013
C135	C	0.315624	1.052129	-0.446089
C136	C	0.363049	0.989878	-0.379107
C137	C	0.353180	1.017952	0.003697
C138	C	0.304096	1.084949	0.001315
C139	C	0.249325	1.115553	-0.039441
C140	C	0.243639	1.079164	-0.077824
C141	C	0.292723	1.012173	-0.075447
C142	C	0.600828	0.995625	-0.299923
C143	C	0.604441	1.057854	-0.366896
C144	C	0.576023	1.086081	-0.439960
C145	C	0.543994	1.052069	-0.446050
C146	C	0.540385	0.989836	-0.379078
H147	H	0.603904	0.407388	-0.086294
F148	F	0.898179	0.248055	0.461909
H149	H	0.199038	1.104093	-0.111007
H150	H	0.597049	0.576999	-0.670260
F151	F	0.289420	0.965646	-0.222225
H152	H	0.709573	0.407393	-0.086284
F153	F	0.197091	1.186851	-0.041963
H154	H	0.594023	0.585610	-0.553058
F155	F	0.628334	-0.026621	-0.116239
H156	H	0.408621	0.962174	-0.384064
H157	H	0.623969	0.972652	-0.240436
F158	F	0.797186	0.276783	-0.091581
F159	F	0.621585	0.507295	-0.339667
F160	F	0.608213	0.276784	-0.091588
F161	F	0.020962	0.942702	-0.154811
H162	H	0.191524	0.843802	-0.101777
H163	H	0.897984	0.230354	-0.008049
F164	F	0.086406	0.457711	0.105477
F165	F	0.209168	1.152412	-0.511295
H166	H	0.483373	0.427746	0.191079
F167	F	0.922004	0.288702	0.071788
F168	F	0.506291	0.953658	-0.385573
H169	H	0.492940	0.872749	-0.707177
H170	H	0.397773	0.993040	0.036890
H171	H	0.815787	0.427725	0.191107
H172	H	0.308737	1.114566	0.032575
F173	F	0.475024	0.288768	0.071766
H174	H	0.611377	0.536283	-0.224998
H175	H	0.288083	0.982549	-0.106698
F176	F	0.479012	0.427041	0.066861
F177	F	0.638527	1.094045	-0.360398
F178	F	0.398523	0.536882	0.062946
H179	H	0.476843	0.314845	0.312613
H180	H	0.624020	0.103998	-0.110949
H181	H	0.528413	0.263673	0.445149
F182	F	0.579868	1.152318	-0.511233
H183	H	0.698725	0.438252	0.334682
F184	F	0.506577	0.833999	-0.515023
F185	F	0.782636	0.318278	0.474464
F186	F	0.495126	-0.014609	0.047093
F187	F	0.324710	1.082176	-0.523849
F188	F	0.513748	1.082125	-0.523817
H189	H	0.819262	0.417877	0.057311
H190	H	0.506954	0.114535	0.032613
H191	H	0.292635	0.556651	0.052356
H192	H	0.178358	0.477508	0.094835
H193	H	0.510292	0.823421	-0.379125
F194	F	0.489215	0.883329	-0.843082
H195	H	0.593042	0.438295	0.334635
F196	F	-0.070834	0.536827	0.063012
F197	F	0.915813	0.306317	0.311087
F198	F	-0.176153	0.536827	0.063018
F199	F	0.191533	1.094135	-0.360473
H200	H	-0.277825	0.843752	-0.101725
H201	H	0.586512	0.325407	0.456147
H202	H	-0.185281	0.843765	-0.101719
H203	H	0.284089	0.843804	-0.101781
F204	F	-0.084341	0.942700	-0.154806
