data_functionalizedCrystal
_audit_creation_method	'MofGen! by Chris Wilmer'
_symmetry_space_group_name_H-M	'P1'
_symmetry_Int_Tables_number	1
_symmetry_cell_setting	triclinic
loop_
_symmetry_equiv_pos_as_xyz
  x,y,z
_cell_length_a	11.792254
_cell_length_b	16.109302
_cell_length_c	14.586319
_cell_angle_alpha	89.994552
_cell_angle_beta	89.999358
_cell_angle_gamma	96.169811
loop_
_atom_site_label
_atom_site_type_symbol
_atom_site_fract_x
_atom_site_fract_y
_atom_site_fract_z
O1	O	-0.145888	1.103822	-0.076272
O2	O	0.354112	1.603822	0.423728
O3	O	-0.164043	0.861846	-0.076264
O4	O	0.335957	1.361846	0.423736
O5	O	0.010256	0.988701	-0.076273
O6	O	0.510256	1.488701	0.423727
O7	O	-0.320186	0.976967	-0.076264
O8	O	0.179814	1.476967	0.423736
O9	O	0.010258	0.988692	0.076208
O10	O	0.510258	1.488692	0.576208
O11	O	-0.164040	0.861837	0.076217
O12	O	0.335960	1.361837	0.576217
O13	O	-0.145886	1.103813	0.076208
O14	O	0.354114	1.603813	0.576208
Cu15	Cu	-0.154963	0.982824	0.090135
Cu16	Cu	0.345037	1.482824	0.590135
Cu17	Cu	-0.154966	0.982835	-0.090191
Cu18	Cu	0.345034	1.482835	0.409809
O19	O	-0.320184	0.976958	0.076217
O20	O	0.179816	1.476958	0.576217
C21	C	-0.163306	0.830863	-0.000023
C22	C	0.336694	1.330863	0.499977
C23	C	-0.161101	0.738557	-0.000020
C24	C	0.338899	1.238557	0.499980
C25	C	-0.156000	0.526188	0.083088
C26	C	0.344000	1.026188	0.583088
C27	C	-0.153916	0.439458	0.083085
C28	C	0.346084	0.939458	0.583085
C29	C	-0.153925	0.439478	-0.083158
C30	C	0.346075	0.939478	0.416842
C31	C	-0.156001	0.526207	-0.083154
C32	C	0.343999	1.026207	0.416846
C33	C	-0.157044	0.569559	-0.000028
C34	C	0.342956	1.069559	0.499972
C35	C	-0.152884	0.396100	-0.000036
C36	C	0.347116	0.896100	0.499964
C37	C	-0.150624	0.302064	-0.000040
C38	C	0.349376	0.802064	0.499960
C39	C	-0.159302	0.663602	-0.000024
C40	C	0.340698	1.163602	0.499976
C41	C	-0.362469	0.977702	-0.000022
C42	C	0.137531	1.477702	0.499978
C43	C	-0.488463	0.979914	-0.000020
C44	C	0.011537	1.479914	0.499980
C45	C	-0.590784	0.981712	-0.000025
C46	C	-0.090784	1.481712	0.499975
C47	C	-0.719151	0.983959	-0.000035
C48	C	-0.219151	1.483959	0.499965
C49	C	0.052541	0.987957	-0.000035
C50	C	0.552541	1.487957	0.499965
C51	C	0.178535	0.985745	-0.000044
C52	C	0.678535	1.485745	0.499956
C53	C	-0.146623	1.134796	-0.000035
C54	C	0.353377	1.634796	0.499965
C55	C	-0.148828	1.227102	-0.000044
C56	C	0.351172	1.727102	0.499956
N57	N	-0.154960	0.982823	0.216967
N58	N	0.345040	1.482823	0.716967
N59	N	-0.154960	0.982843	-0.217023
N60	N	0.345040	1.482843	0.282977
C61	C	-0.077806	1.039013	0.451970
C62	C	0.422194	1.539013	0.951970
C63	C	-0.077804	1.039015	0.547951
C64	C	0.422196	1.539015	1.047951
C65	C	-0.232117	0.926647	0.547968
C66	C	0.267883	1.426647	1.047968
C67	C	-0.232113	0.926641	0.451988
C68	C	0.267887	1.426641	0.951988
C69	C	-0.154959	0.982829	0.403992
C70	C	0.345041	1.482829	0.903992
C71	C	-0.154960	0.982837	0.595953
C72	C	0.345040	1.482837	1.095953
C73	C	-0.154958	0.982839	0.700020
C74	C	0.345042	1.482839	1.200020
C75	C	-0.154960	0.982826	0.299918
C76	C	0.345040	1.482826	0.799918
H77	H	-0.156850	0.561482	0.150774
H78	H	0.343150	1.061482	0.650774
Cl79	Cl	0.019195	1.109648	0.608263
Cl80	Cl	0.519195	1.609648	1.108263
Cl81	Cl	-0.329110	0.856017	0.608311
Cl82	Cl	0.170890	1.356017	1.108311
Cl83	Cl	-0.152585	0.384975	-0.187653
Cl84	Cl	0.347415	0.884975	0.312347
Cl85	Cl	-0.329107	0.856000	0.391667
Cl86	Cl	0.170893	1.356000	0.891667
H87	H	-0.014982	1.084763	0.412893
H88	H	0.485018	1.584763	0.912893
Cl89	Cl	-0.152606	0.384937	0.187579
Cl90	Cl	0.347394	0.884937	0.687579
Cl91	Cl	-0.157304	0.580736	-0.187652
Cl92	Cl	0.342696	1.080736	0.312348
