data_functionalizedCrystal
_audit_creation_method	'MofGen! by Chris Wilmer'
_symmetry_space_group_name_H-M	'P1'
_symmetry_Int_Tables_number	1
_symmetry_cell_setting	triclinic
loop_
_symmetry_equiv_pos_as_xyz
  x,y,z
_cell_length_a	6.394989
_cell_length_b	10.654550
_cell_length_c	9.730223
_cell_angle_alpha	90.000043
_cell_angle_beta	90.001437
_cell_angle_gamma	85.491321
loop_
_atom_site_label
_atom_site_type_symbol
_atom_site_fract_x
_atom_site_fract_y
_atom_site_fract_z
O1	O	-0.293441	-1.670947	-0.114177
O2	O	-0.321399	-1.305765	-0.114202
O3	O	-0.003431	-1.493539	-0.114190
O4	O	-0.611409	-1.483172	-0.114189
O5	O	-0.003422	-1.493527	0.114390
O6	O	-0.321390	-1.305752	0.114378
O7	O	-0.293433	-1.670934	0.114403
Zn8	Zn	-0.307410	-1.488341	0.150682
Zn9	Zn	-0.307421	-1.488358	-0.150482
O10	O	-0.611400	-1.483160	0.114391
C11	C	-0.319341	-1.258939	0.000085
C12	C	-0.313200	-1.119430	0.000075
C13	C	-0.295490	-1.717760	0.000113
C14	C	-0.301631	-1.857269	0.000113
N15	N	-0.307401	-1.488339	0.356219
C16	C	0.074425	-1.491483	0.000094
C17	C	0.310750	-1.485219	0.000093
N18	N	-0.307414	-1.488369	-0.356018
C19	C	-0.500414	-1.041927	0.000080
C20	C	-0.494631	-0.910845	0.000104
C21	C	-0.114403	-0.934782	0.000113
C22	C	-0.120188	-1.065861	0.000099
C23	C	-0.166665	-1.571516	0.428150
C24	C	-0.166665	-1.571528	0.572033
C25	C	-0.448157	-1.405184	0.572041
C26	C	-0.448144	-1.405166	0.428161
H27	H	-0.647080	-0.847747	0.000110
H28	H	0.032274	-1.128967	0.000099
H29	H	0.042741	-0.891149	0.000141
C30	C	-0.011835	-1.662993	0.349013
C31	C	-0.094939	-1.760337	0.250082
C32	C	0.059901	-1.851814	0.170951
C33	C	0.297845	-1.845948	0.190749
C34	C	0.380962	-1.748601	0.289684
C35	C	0.226122	-1.657123	0.368816
H36	H	-0.271091	-1.764683	0.235422
H37	H	-0.001629	-1.923877	0.097712
H38	H	0.412467	-1.913665	0.132171
H39	H	0.557114	-1.744255	0.304345
H40	H	0.287652	-1.585060	0.442055
H41	H	-0.562750	-1.337468	0.630630
C42	C	-0.011860	-1.663027	0.651159
C43	C	0.142914	-1.754530	0.572022
C44	C	0.297729	-1.846031	0.651148
C45	C	0.297769	-1.846030	0.809411
C46	C	0.142990	-1.754523	0.888556
C47	C	-0.011825	-1.663022	0.809430
H48	H	0.142889	-1.754534	0.454859
H49	H	0.412307	-1.913770	0.592559
H50	H	0.412372	-1.913764	0.867985
H51	H	0.143014	-1.754519	1.005720
H52	H	-0.126403	-1.595283	0.868020
C53	C	-0.602965	-1.313668	0.349024
C54	C	-0.757871	-1.222235	0.428148
C55	C	-0.912676	-1.130738	0.349009
C56	C	-0.912576	-1.130673	0.190747
C57	C	-0.757665	-1.222109	0.111614
C58	C	-0.602860	-1.313606	0.190752
H59	H	-0.757950	-1.222280	0.545311
H60	H	-1.027352	-1.063051	0.407590
H61	H	-1.027173	-1.062941	0.132164
H62	H	-0.757586	-1.222064	-0.005550
H63	H	-0.488184	-1.381293	0.132172
H64	H	-0.657577	-1.085539	0.000071
