data_functionalizedCrystal
_audit_creation_method	'MofGen! by Chris Wilmer'
_symmetry_space_group_name_H-M	'P1'
_symmetry_Int_Tables_number	1
_symmetry_cell_setting	triclinic
loop_
_symmetry_equiv_pos_as_xyz
  x,y,z
_cell_length_a	12.759401
_cell_length_b	29.839131
_cell_length_c	12.759393
_cell_angle_alpha	89.962110
_cell_angle_beta	89.981504
_cell_angle_gamma	90.041581
loop_
_atom_site_label
_atom_site_type_symbol
_atom_site_fract_x
_atom_site_fract_y
_atom_site_fract_z
Zn1	Zn	1.606060	-0.178825	-0.593935
Zn2	Zn	1.605873	-0.253963	-0.418236
Zn3	Zn	1.430362	-0.178848	-0.418275
Zn4	Zn	1.430269	-0.253929	-0.593877
O5	O	1.518141	-0.216391	-0.506081
O6	O	1.753056	-0.188797	-0.570636
O7	O	1.582551	-0.244024	-0.271220
O8	O	1.453787	-0.115978	-0.441617
O9	O	1.752919	-0.244001	-0.441551
O10	O	1.582871	-0.115961	-0.570674
O11	O	1.453605	-0.188837	-0.271248
O12	O	1.283329	-0.188803	-0.441561
O13	O	1.453628	-0.243942	-0.740906
O14	O	1.283260	-0.243965	-0.570575
O15	O	1.582781	-0.188763	-0.740949
O16	O	1.582461	-0.316826	-0.441495
O17	O	1.453446	-0.316801	-0.570538
C18	C	1.245174	-0.216383	-0.506066
C19	C	1.128397	-0.216390	-0.506085
C20	C	1.073527	-0.245159	-0.573152
C21	C	0.963803	-0.245165	-0.573163
C22	C	0.963829	-0.187632	-0.439032
C23	C	1.073551	-0.187624	-0.439027
C24	C	1.073511	-0.278376	-0.650588
C25	C	0.963787	-0.278382	-0.650600
C26	C	1.517951	-0.333114	-0.506029
C27	C	1.517966	-0.383048	-0.506041
C28	C	1.585441	-0.692692	-0.438986
C29	C	1.585571	-0.880365	-0.439027
O30	O	1.642790	-0.904631	-0.381974
N31	N	1.518359	-0.903833	-0.506160
C32	C	1.451114	-0.880380	-0.573292
O33	O	1.393957	-0.904648	-0.630402
C34	C	1.450991	-0.692708	-0.573256
C35	C	1.518200	-0.669243	-0.506111
C36	C	1.652646	-0.669227	-0.371848
C37	C	1.652609	-0.622311	-0.371834
C38	C	1.585367	-0.598861	-0.438959
C39	C	1.518163	-0.622327	-0.506098
C40	C	1.383752	-0.669256	-0.640393
C41	C	1.383729	-0.622335	-0.640380
C42	C	1.450938	-0.598869	-0.573235
C43	C	1.450884	-0.551962	-0.573209
N44	N	1.518096	-0.528494	-0.506076
C45	C	1.585338	-0.551944	-0.438951
C46	C	1.451183	-0.978911	-0.573305
C47	C	1.451212	-1.025829	-0.573313
C48	C	1.585670	-1.025811	-0.439049
C49	C	1.585635	-0.978892	-0.439036
C50	C	1.518395	-0.955443	-0.506172
C51	C	1.585254	-0.453418	-0.438927
C52	C	1.585208	-0.406498	-0.438916
C53	C	1.450754	-0.406521	-0.573184
C54	C	1.450796	-0.453436	-0.573191
C55	C	1.518054	-0.476884	-0.506059
O56	O	1.393703	-0.527668	-0.630240
O57	O	1.642503	-0.527668	-0.381867
C58	C	1.585479	-0.739608	-0.439000
C59	C	1.518274	-0.763073	-0.506138
C60	C	1.451033	-0.739624	-0.573263
C61	C	1.518304	-0.809991	-0.506146
C62	C	1.585545	-0.833441	-0.439021
C63	C	1.652757	-0.809973	-0.371888
C64	C	1.652720	-0.763058	-0.371875
C65	C	1.383820	-0.763092	-0.640396
C66	C	1.383862	-0.810007	-0.640404
C67	C	1.451104	-0.833457	-0.573279
C68	C	1.792174	-0.216400	-0.506096
C69	C	1.908951	-0.216404	-0.506102
C70	C	1.518215	-0.216346	-0.780114
C71	C	1.518246	-0.216327	-0.896891
C72	C	1.518360	-0.099213	-0.506156
C73	C	1.518454	-0.049279	-0.506188
C74	C	1.585505	-0.187593	-0.951777
C75	C	1.585530	-0.187576	-1.061501
C76	C	1.451034	-0.245032	-1.061444
C77	C	1.451004	-0.245046	-0.951722
C78	C	1.663159	-0.154422	-0.951811
C79	C	1.663184	-0.154406	-1.061535
C80	C	1.518128	-0.216404	-0.233113
C81	C	1.518301	-0.216297	-0.116337
H82	H	1.639938	-0.387394	-0.384235
H83	H	1.396232	-0.268443	-0.907038
C84	C	1.132936	-0.156368	-0.366108
C85	C	1.061416	-0.131187	-0.307368
C86	C	1.116083	-0.102390	-0.240175
H87	H	1.175781	-0.136773	-0.406273
H88	H	1.175679	-0.173513	-0.320192
H89	H	1.018692	-0.114043	-0.353278
H90	H	1.018570	-0.150769	-0.267182
H91	H	1.158826	-0.119535	-0.194259
H92	H	1.158926	-0.082799	-0.280348
H93	H	1.067566	-0.085304	-0.200305
H94	H	1.103329	-0.269097	-0.731998
H95	H	1.107489	-0.311410	-0.621295
H96	H	0.929803	-0.265962	-0.727955
C97	C	1.378153	-0.276198	-1.121166
C98	C	1.392589	-0.270044	-1.229005
C99	C	1.325480	-0.298751	-1.284050
H100	H	1.307527	-0.269652	-1.103311
H101	H	1.393479	-0.306395	-1.103221
H102	H	1.377256	-0.239853	-1.246942
H103	H	1.463201	-0.276593	-1.246891
H104	H	1.340806	-0.328949	-1.266105
H105	H	1.254859	-0.292203	-1.266187
H106	H	1.335273	-0.294582	-1.357224
C107	C	1.766076	-0.171058	-0.906209
C108	C	1.760525	-0.170193	-0.796635
C109	C	1.855304	-0.185522	-0.754591
H110	H	1.821635	-0.152238	-0.929101
H111	H	1.778566	-0.200869	-0.929114
H112	H	1.748047	-0.140387	-0.773740
H113	H	1.704985	-0.189014	-0.773715
H114	H	1.867794	-0.215334	-0.777496
H115	H	1.910857	-0.166701	-0.777490
H116	H	1.851548	-0.184942	-0.680242
H117	H	1.640025	-0.472503	-0.384264
C118	C	1.377689	-0.478938	-0.645910
C119	C	1.310384	-0.505918	-0.586378
C120	C	1.243021	-0.529408	-0.653338
H121	H	1.417745	-0.497242	-0.691752
H122	H	1.337574	-0.458264	-0.685861
H123	H	1.350494	-0.526590	-0.546445
H124	H	1.270304	-0.487626	-0.540538
H125	H	1.202907	-0.508734	-0.693290
H126	H	1.283086	-0.547709	-0.699178
H127	H	1.197341	-0.547714	-0.612956
C128	C	0.924202	-0.324786	-0.621269
C129	C	1.009682	-0.353164	-0.603317
C130	C	0.973257	-0.395911	-0.576284
H131	H	0.882874	-0.336436	-0.676859
H132	H	0.882847	-0.322883	-0.559502
H133	H	1.051019	-0.355069	-0.665077
H134	H	1.051018	-0.341529	-0.547723
H135	H	0.931903	-0.394008	-0.514516
H136	H	0.931930	-0.407556	-0.631877
H137	H	1.031249	-0.415170	-0.564090
H138	H	1.641428	-0.119630	-0.922064
C139	C	1.377869	-0.380974	-0.646023
C140	C	1.392254	-0.334864	-0.631655
C141	C	1.325146	-0.311316	-0.698753
H142	H	1.307245	-0.388642	-0.630665
H143	H	1.393229	-0.388606	-0.716651
H144	H	1.376886	-0.327235	-0.561043
H145	H	1.462863	-0.327183	-0.647021
H146	H	1.340506	-0.318948	-0.769381
H147	H	1.254527	-0.318987	-0.683389
H148	H	1.334904	-0.280028	-0.689020
H149	H	1.634107	-0.121348	-1.095591
C150	C	1.725709	-0.596919	-0.298906
C151	C	1.784619	-0.627506	-0.240155
C152	C	1.851987	-0.604134	-0.172974
H153	H	1.685663	-0.578645	-0.252988
H154	H	1.771510	-0.578596	-0.339112
H155	H	1.738824	-0.645821	-0.199951
H156	H	1.824686	-0.645780	-0.286045
H157	H	1.897788	-0.585811	-0.213180
H158	H	1.811933	-0.585861	-0.127063
H159	H	1.891973	-0.624883	-0.133110
H160	H	1.707408	-0.688315	-0.317186
H161	H	1.744545	-0.163724	-1.091311
H162	H	1.640422	-1.044911	-0.384393
C163	C	0.904227	-0.156480	-0.366088
C164	C	0.841197	-0.181888	-0.298625
C165	C	0.786291	-0.153207	-0.231401
H166	H	0.861380	-0.136918	-0.406238
H167	H	0.952593	-0.139355	-0.326082
H168	H	0.792836	-0.199006	-0.338627
H169	H	0.884018	-0.201449	-0.258452
H170	H	0.834657	-0.136082	-0.191395
H171	H	0.743450	-0.133647	-0.271559
H172	H	0.743527	-0.170443	-0.185613
C173	C	1.658724	-0.953498	-0.366100
C174	C	1.717628	-0.984082	-0.307337
C175	C	1.784982	-0.960709	-0.240146
H176	H	1.618668	-0.935225	-0.320191
H177	H	1.704530	-0.935174	-0.406300
H178	H	1.671828	-1.002399	-0.267141
H179	H	1.757705	-1.002357	-0.353219
H180	H	1.830788	-0.942385	-0.280345
H181	H	1.744918	-0.942436	-0.194244
H182	H	1.824962	-0.981457	-0.200274
H183	H	1.396474	-1.044931	-0.627979
C184	C	1.378048	-0.953537	-0.646231
C185	C	1.319178	-0.984137	-0.704994
C186	C	1.251781	-0.960781	-0.772168
H187	H	1.418071	-0.935200	-0.692142
H188	H	1.332223	-0.935278	-0.606020
H189	H	1.364998	-1.002388	-0.745202
H190	H	1.279134	-1.002475	-0.659111
H191	H	1.205956	-0.942522	-0.731957
H192	H	1.291813	-0.942445	-0.818072
H193	H	1.211823	-0.981539	-0.812039
H194	H	1.329018	-0.688354	-0.695065
H195	H	1.328975	-0.603245	-0.695053
C196	C	1.725813	-0.737666	-0.298939
C197	C	1.784719	-0.768252	-0.240184
C198	C	1.852077	-0.744881	-0.172993
H199	H	1.685760	-0.719393	-0.253024
H200	H	1.771616	-0.719340	-0.339138
H201	H	1.738921	-0.786569	-0.199988
H202	H	1.824793	-0.786525	-0.286072
H203	H	1.897881	-0.726555	-0.213192
H204	H	1.812016	-0.726609	-0.127085
H205	H	1.892060	-0.765630	-0.133127
C206	C	1.725925	-0.835455	-0.299201
C207	C	1.793258	-0.862324	-0.358790
C208	C	1.860696	-0.885799	-0.291885
H209	H	1.685923	-0.853833	-0.253362
H210	H	1.766014	-0.814772	-0.259244
H211	H	1.753172	-0.883004	-0.398730
H212	H	1.833282	-0.843957	-0.404627
H213	H	1.900786	-0.865115	-0.251927
H214	H	1.820686	-0.904174	-0.246049
H215	H	1.906396	-0.904028	-0.332306
H216	H	1.329123	-0.829109	-0.695080
H217	H	1.329065	-0.744003	-0.695059
