data_functionalizedCrystal
_audit_creation_method	'MofGen! by Chris Wilmer'
_symmetry_space_group_name_H-M	'P1'
_symmetry_Int_Tables_number	1
_symmetry_cell_setting	triclinic
loop_
_symmetry_equiv_pos_as_xyz
  x,y,z
_cell_length_a	10.654550
_cell_length_b	16.109304
_cell_length_c	9.130313
_cell_angle_alpha	90.000189
_cell_angle_beta	90.000488
_cell_angle_gamma	83.973784
loop_
_atom_site_label
_atom_site_type_symbol
_atom_site_fract_x
_atom_site_fract_y
_atom_site_fract_z
O1	O	1.666258	0.116772	0.121680
O2	O	1.300628	0.127897	0.121706
O3	O	1.493485	0.001364	0.121693
O4	O	1.473401	0.243306	0.121693
O5	O	1.493471	0.001364	-0.121906
O6	O	1.300614	0.127897	-0.121893
O7	O	1.666243	0.116772	-0.121919
Cu8	Cu	1.483427	0.122335	-0.144148
Cu9	Cu	1.483444	0.122335	0.143936
O10	O	1.473386	0.243306	-0.121906
C11	C	1.253834	0.127080	-0.000090
C12	C	1.114424	0.124636	-0.000080
C13	C	1.033929	0.199138	-0.000084
C14	C	0.902939	0.196836	-0.000109
C15	C	0.932953	0.045526	-0.000120
C16	C	1.063940	0.047828	-0.000105
C17	C	1.492664	-0.029616	-0.000103
C18	C	1.490223	-0.121926	-0.000093
C19	C	1.484591	-0.334297	0.132688
C20	C	1.482286	-0.421031	0.132687
C21	C	1.482277	-0.421028	-0.132898
C22	C	1.484573	-0.334295	-0.132895
C23	C	1.485736	-0.290932	-0.000098
C24	C	1.481135	-0.464399	-0.000102
C25	C	1.478636	-0.558439	-0.000104
C26	C	1.488234	-0.196885	-0.000095
C27	C	1.713037	0.117589	-0.000120
C28	C	1.852447	0.120033	-0.000120
C29	C	1.474208	0.274285	-0.000107
C30	C	1.476649	0.366595	-0.000107
N31	N	1.483424	0.122334	-0.346771
C32	C	1.559566	0.173229	-0.423423
C33	C	1.559586	0.173224	-0.576760
C34	C	1.407313	0.071428	-0.576779
C35	C	1.407300	0.071429	-0.423445
N36	N	1.483457	0.122329	0.346558
H37	H	0.891832	-0.017009	-0.000150
H38	H	1.621551	0.214680	-0.361000
O39	O	1.083180	0.273674	-0.000003
C40	C	1.216054	0.259735	-0.000022
H41	H	1.246839	0.195031	0.046096
H42	H	1.256243	0.308926	0.070711
H43	H	1.252525	0.263977	-0.116883
H44	H	1.621590	0.214667	-0.639164
H45	H	1.481332	-0.456344	-0.241017
O46	O	1.141963	-0.024625	-0.000034
C47	C	1.069320	-0.092911	-0.000084
H48	H	0.971544	-0.072379	0.046028
H49	H	1.117663	-0.145158	0.070638
H50	H	1.060012	-0.116415	-0.116954
O51	O	1.485635	-0.292032	-0.261761
C52	C	1.487938	-0.206183	-0.233278
H53	H	1.448521	-0.191130	-0.119152
H54	H	1.427873	-0.168290	-0.318077
H55	H	1.589277	-0.189711	-0.239573
H56	H	1.345334	0.029983	-0.639225
H57	H	1.345295	0.029980	-0.361033
O58	O	0.824621	0.269152	0.000091
C59	C	0.747965	0.272352	0.126260
H60	H	0.741362	0.206320	0.168307
H61	H	0.649508	0.302757	0.097878
H62	H	0.791036	0.310567	0.214618
O63	O	1.485651	-0.292297	0.261812
C64	C	1.484175	-0.349177	0.379011
H65	H	1.442804	-0.407789	0.340076
H66	H	1.423905	-0.319192	0.471884
H67	H	1.584620	-0.366545	0.419842
H68	H	1.481351	-0.456334	0.240814
