data_functionalizedCrystal
_audit_creation_method	'MofGen! by Chris Wilmer'
_symmetry_space_group_name_H-M	'P1'
_symmetry_Int_Tables_number	1
_symmetry_cell_setting	triclinic
loop_
_symmetry_equiv_pos_as_xyz
  x,y,z
_cell_length_a	12.759401
_cell_length_b	16.120444
_cell_length_c	12.759393
_cell_angle_alpha	87.136376
_cell_angle_beta	90.018496
_cell_angle_gamma	92.926596
loop_
_atom_site_label
_atom_site_type_symbol
_atom_site_fract_x
_atom_site_fract_y
_atom_site_fract_z
Zn1	Zn	1.584964	-0.331854	0.615151
Zn2	Zn	1.575912	-0.471293	0.448366
Zn3	Zn	1.409263	-0.331898	0.439493
Zn4	Zn	1.400313	-0.471228	0.624004
O5	O	1.492613	-0.401568	0.531754
O6	O	1.730784	-0.350360	0.593035
O7	O	1.553764	-0.452847	0.300171
O8	O	1.440104	-0.215227	0.455376
O9	O	1.724134	-0.452804	0.470499
O10	O	1.569191	-0.215194	0.584432
O11	O	1.431327	-0.350434	0.293652
O12	O	1.261056	-0.350372	0.463960
O13	O	1.424850	-0.452695	0.769848
O14	O	1.254480	-0.452737	0.599519
O15	O	1.560512	-0.350298	0.763344
O16	O	1.545085	-0.587950	0.479083
O17	O	1.416072	-0.587903	0.608123
C18	C	1.219647	-0.401553	0.531738
C19	C	1.102869	-0.401567	0.531758
C20	C	1.044605	-0.454954	0.602238
C21	C	0.934880	-0.454964	0.602250
C22	C	0.941694	-0.348198	0.461293
C23	C	1.051417	-0.348184	0.461287
C24	C	1.096058	-0.508336	0.672709
C25	C	1.037793	-0.561728	0.743194
C26	C	0.928069	-0.561739	0.743206
C27	C	0.876608	-0.508357	0.672733
C28	C	1.478654	-0.618176	0.545550
C29	C	1.472778	-0.710842	0.551487
C30	C	1.523352	-0.921787	0.501181
C31	C	1.462069	-0.880498	0.562338
C32	C	1.468029	-0.786093	0.556298
C33	C	1.517393	-1.016201	0.507218
C34	C	1.766645	-0.401584	0.531770
C35	C	1.883422	-0.401591	0.531776
C36	C	1.492692	-0.401484	0.805782
C37	C	1.492726	-0.401448	0.922556
C38	C	1.506656	-0.184115	0.517927
C39	C	1.512640	-0.091449	0.512035
C40	C	1.492599	-0.401592	0.258788
C41	C	1.492784	-0.401393	0.141999
C42	C	1.563375	-0.348125	0.974033
C43	C	1.563402	-0.348095	1.083755
C44	C	1.422127	-0.454719	1.090515
C45	C	1.422096	-0.454744	0.980794
C46	C	1.634005	-0.294829	0.915795
C47	C	1.704660	-0.241502	0.967272
C48	C	1.704687	-0.241472	1.076994
C49	C	1.634058	-0.294769	1.135240
H50	H	0.787263	-0.508363	0.672757
O51	O	1.353631	-0.506467	1.147252
C52	C	1.368794	-0.494997	1.255132
H53	H	1.451641	-0.467692	1.268385
H54	H	1.309351	-0.450592	1.283451
C55	C	1.251988	-0.612876	1.300538
C56	C	1.353745	-0.579345	1.316817
H57	H	1.242701	-0.664904	1.338590
H58	H	1.241769	-0.620602	1.227858
H59	H	1.202464	-0.575863	1.324137
H60	H	1.403266	-0.616352	1.293206
H61	H	1.363972	-0.571627	1.389496
O62	O	1.353451	-0.506638	0.930951
C63	C	1.291117	-0.553672	1.005878
H64	H	1.333974	-0.556527	1.084284
H65	H	1.213284	-0.523153	1.015588
C66	C	1.217638	-0.638912	0.872396
C67	C	1.270279	-0.642424	0.968693
H68	H	1.204779	-0.693657	0.849458
H69	H	1.259630	-0.607223	0.821915
H70	H	1.152783	-0.613476	0.880501
H71	H	1.335138	-0.667850	0.960584
H72	H	1.228297	-0.674120	1.019172
H73	H	1.185401	-0.508335	0.672705
H74	H	1.580289	-0.886239	0.444290
H75	H	1.634074	-0.294730	1.224582
O76	O	1.087613	-0.613604	0.811751
C77	C	1.012654	-0.660739	0.873947
H78	H	0.936638	-0.626602	0.875488
H79	H	0.996898	-0.724022	0.839373
C80	C	1.148106	-0.714784	0.984615
C81	C	1.054744	-0.672852	0.986514
H82	H	1.174070	-0.722259	1.054051
H83	H	1.198608	-0.683030	0.942710
H84	H	1.134963	-0.767515	0.955798
H85	H	1.067891	-0.620118	1.015318
H86	H	1.004245	-0.704597	1.028426
O87	O	0.871430	-0.613478	0.811778
C88	C	0.811018	-0.566088	0.876709
H89	H	0.848308	-0.500429	0.879155
H90	H	0.728035	-0.563195	0.844055
C91	C	0.760953	-0.687571	0.985437
C92	C	0.806758	-0.606928	0.988448
H93	H	0.758320	-0.712764	1.054362
H94	H	0.801650	-0.719499	0.941690
H95	H	0.691804	-0.685148	0.958220
H96	H	0.875910	-0.609352	1.015651
H97	H	0.766073	-0.575001	1.032202
H98	H	0.899786	-0.304738	0.403917
O99	O	1.773220	-0.189806	0.910540
C100	C	1.758031	-0.201248	0.802657
H101	H	1.719466	-0.265590	0.791753
H102	H	1.705265	-0.151803	0.768377
C103	C	1.912176	-0.114599	0.759241
C104	C	1.864819	-0.193628	0.745848
H105	H	1.978046	-0.109895	0.724197
H106	H	1.922408	-0.106887	0.831923
H107	H	1.868194	-0.073403	0.730675
H108	H	1.908794	-0.234821	0.774426
H109	H	1.854597	-0.201347	0.673170
O110	O	1.773415	-0.189644	1.126836
C111	C	1.835724	-0.142597	1.051900
H112	H	1.837132	-0.176767	0.975857
H113	H	1.801342	-0.079278	1.036206
C114	C	1.946600	-0.088614	1.187364
C115	C	1.948336	-0.130586	1.093969
H116	H	2.016063	-0.081201	1.213314
H117	H	1.904619	-0.120308	1.237850
H118	H	1.917943	-0.035853	1.174272
H119	H	1.976980	-0.183350	1.107064
H120	H	1.990325	-0.098900	1.043485
O121	O	1.107860	-0.296306	0.392714
C122	C	1.038921	-0.249186	0.330523
H123	H	0.958507	-0.283336	0.328998
H124	H	1.031342	-0.185902	0.365090
C125	C	1.181248	-0.195130	0.219829
C126	C	1.082484	-0.237076	0.217948
H127	H	1.208121	-0.187656	0.150388
H128	H	1.227695	-0.226873	0.261730
H129	H	1.174918	-0.142397	0.248639
H130	H	1.088817	-0.289811	0.189151
H131	H	1.036040	-0.205342	0.176039
H132	H	1.405127	-0.916050	0.619231
H133	H	1.633993	-0.294850	0.826454
