data_functionalizedCrystal
_audit_creation_method	'MofGen! by Chris Wilmer'
_symmetry_space_group_name_H-M	'P1'
_symmetry_Int_Tables_number	1
_symmetry_cell_setting	triclinic
loop_
_symmetry_equiv_pos_as_xyz
  x,y,z
_cell_length_a	23.532407
_cell_length_b	19.288864
_cell_length_c	18.366186
_cell_angle_alpha	90.022894
_cell_angle_beta	89.989089
_cell_angle_gamma	97.007539
loop_
_atom_site_label
_atom_site_type_symbol
_atom_site_fract_x
_atom_site_fract_y
_atom_site_fract_z
O1	O	0.071045	-0.921134	-0.060790
O2	O	0.571045	-0.421134	0.439210
O3	O	0.080629	-0.718843	-0.060742
O4	O	0.580629	-0.218843	0.439258
O5	O	-0.007082	-0.826089	-0.060754
O6	O	0.492918	-0.326089	0.439246
O7	O	0.158756	-0.813889	-0.060778
O8	O	0.658756	-0.313889	0.439222
O9	O	-0.007086	-0.826071	0.060345
O10	O	0.492914	-0.326071	0.560345
O11	O	0.080625	-0.718825	0.060358
O12	O	0.580625	-0.218825	0.560358
O13	O	0.071041	-0.921116	0.060309
O14	O	0.571041	-0.421116	0.560309
Zn15	Zn	0.075832	-0.819968	0.079560
Zn16	Zn	0.575832	-0.319968	0.579560
Zn17	Zn	0.075838	-0.819991	-0.079993
Zn18	Zn	0.575838	-0.319991	0.420007
O19	O	0.158752	-0.813870	0.060321
O20	O	0.658752	-0.313870	0.560321
C21	C	-0.028301	-0.825769	-0.000203
C22	C	0.471699	-0.325769	0.499797
C23	C	-0.091520	-0.824835	-0.000197
C24	C	0.408480	-0.324835	0.499803
C25	C	0.080319	-0.692959	-0.000186
C26	C	0.580319	-0.192959	0.499814
C27	C	0.079393	-0.615858	-0.000166
C28	C	0.579393	-0.115858	0.499834
C29	C	0.071351	-0.947000	-0.000249
C30	C	0.571351	-0.447000	0.499751
C31	C	0.072277	-1.024101	-0.000273
C32	C	0.572277	-0.524101	0.499727
C33	C	-0.490503	-0.882442	-0.000251
C34	C	0.009497	-0.382442	0.499749
C35	C	-0.549905	-0.881574	-0.000256
C36	C	-0.049905	-0.381574	0.499744
O37	O	-0.586539	-0.934976	-0.000296
O38	O	-0.086539	-0.434976	0.499704
N39	N	-0.572664	-0.817817	-0.000240
N40	N	-0.072664	-0.317817	0.499760
C41	C	-0.536017	-0.754923	-0.000226
C42	C	-0.036017	-0.254923	0.499774
O43	O	-0.560829	-0.700613	-0.000214
O44	O	-0.060829	-0.200613	0.499786
C45	C	-0.476616	-0.755792	-0.000226
C46	C	0.023384	-0.255792	0.499774
C47	C	-0.453861	-0.819553	-0.000235
C48	C	0.046139	-0.319553	0.499765
C49	C	-0.467748	-0.946198	-0.000260
C50	C	0.032252	-0.446198	0.499740
C51	C	-0.408350	-0.947065	-0.000253
C52	C	0.091650	-0.447065	0.499747
C53	C	-0.371707	-0.884177	-0.000237
C54	C	0.128293	-0.384177	0.499763
C55	C	-0.394463	-0.820420	-0.000228
C56	C	0.105537	-0.320420	0.499772
C57	C	-0.439970	-0.692899	-0.000217
C58	C	0.060030	-0.192899	0.499783
C59	C	-0.380565	-0.693773	-0.000218
C60	C	0.119435	-0.193773	0.499782
C61	C	-0.357810	-0.757534	-0.000226
C62	C	0.142190	-0.257534	0.499774
C63	C	-0.298422	-0.758399	-0.000205
C64	C	0.201578	-0.258399	0.499795
N65	N	-0.275664	-0.822156	-0.000221
N66	N	0.224336	-0.322156	0.499779
C67	C	-0.312307	-0.885045	-0.000237
C68	C	0.187693	-0.385045	0.499763
C69	C	-0.660763	-0.753104	-0.000228
C70	C	-0.160763	-0.253104	0.499772
C71	C	-0.720163	-0.752235	-0.000223
C72	C	-0.220163	-0.252235	0.499777
C73	C	-0.734047	-0.878886	-0.000254
C74	C	-0.234047	-0.378886	0.499746
C75	C	-0.674647	-0.879755	-0.000254
C76	C	-0.174647	-0.379755	0.499746
C77	C	-0.638005	-0.816861	-0.000244
C78	C	-0.138005	-0.316861	0.499756
C79	C	-0.187566	-0.886862	-0.000222
C80	C	0.312434	-0.386862	0.499778
C81	C	-0.128162	-0.887724	-0.000213
C82	C	0.371838	-0.387724	0.499787
C83	C	-0.114283	-0.761073	-0.000185
C84	C	0.385717	-0.261073	0.499815
C85	C	-0.173681	-0.760211	-0.000191
C86	C	0.326319	-0.260211	0.499809
C87	C	-0.210322	-0.823111	-0.000212
C88	C	0.289678	-0.323111	0.499788
O89	O	-0.261754	-0.705025	-0.000168
O90	O	0.238246	-0.205025	0.499832
O91	O	-0.287486	-0.939346	-0.000259
O92	O	0.212514	-0.439346	0.499741
C93	C	0.179971	-0.814190	-0.000232
C94	C	0.679971	-0.314190	0.499768
C95	C	0.243190	-0.815124	-0.000242
C96	C	0.743190	-0.315124	0.499758
N97	N	0.075828	-0.819956	0.188452
N98	N	0.575828	-0.319956	0.688452
C99	C	0.130858	-0.571003	-0.000185
C100	C	0.630858	-0.071003	0.499815
C101	C	0.129988	-0.498559	-0.000193
C102	C	0.629988	0.001441	0.499807
C103	C	0.077651	-0.470973	-0.000197
C104	C	0.577651	0.029027	0.499803
C105	C	0.026179	-0.515838	-0.000174
C106	C	0.526179	-0.015838	0.499826
C107	C	0.027050	-0.588280	-0.000159
C108	C	0.527050	-0.088280	0.499841
C109	C	0.036509	-0.362844	-0.042642
C110	C	0.536509	0.137156	0.457358
C111	C	0.035640	-0.290402	-0.042662
C112	C	0.535640	0.209598	0.457338
C113	C	0.074961	-0.247535	-0.000240
C114	C	0.574961	0.252465	0.499760
C115	C	0.115162	-0.277118	0.042191
C116	C	0.615162	0.222882	0.542191
C117	C	0.116033	-0.349561	0.042206
C118	C	0.616033	0.150439	0.542206
C119	C	0.076700	-0.392422	-0.000213
C120	C	0.576700	0.107578	0.499787
C121	C	0.125487	-0.124127	-0.000267
C122	C	0.625487	0.375873	0.499733
C123	C	0.124615	-0.051682	-0.000270
C124	C	0.624615	0.448318	0.499730
C125	C	0.020805	-0.068962	-0.000258
C126	C	0.520805	0.431038	0.499742
C127	C	0.021678	-0.141406	-0.000248
C128	C	0.521678	0.358594	0.499752
C129	C	0.074021	-0.168984	-0.000255
C130	C	0.574021	0.331016	0.499745
N131	N	0.075837	-0.820008	-0.188884
N132	N	0.575837	-0.320008	0.311116
C133	C	0.037009	-0.867460	0.226546
C134	C	0.537009	-0.367460	0.726546
C135	C	0.037006	-0.867464	0.302774
C136	C	0.537006	-0.367464	0.802774
C137	C	0.075833	-0.819972	0.340904
C138	C	0.575833	-0.319972	0.840904
C139	C	0.114655	-0.772459	0.302800
C140	C	0.614655	-0.272459	0.802800
C141	C	0.114653	-0.772452	0.226574
C142	C	0.614653	-0.272452	0.726574
C143	C	0.127724	-0.810514	0.461659
C144	C	0.627724	-0.310514	0.961659
C145	C	0.127727	-0.810526	0.537884
C146	C	0.627727	-0.310526	1.037884
C147	C	0.075840	-0.819991	0.576012
C148	C	0.575840	-0.319991	1.076012
C149	C	0.023947	-0.829459	0.537906
C150	C	0.523947	-0.329459	1.037906
C151	C	0.023945	-0.829451	0.461679
C152	C	0.523945	-0.329451	0.961679
C153	C	0.075839	-0.819975	0.423559
C154	C	0.575839	-0.319975	0.923559
C155	C	0.037014	-0.867502	0.696762
C156	C	0.537014	-0.367502	1.196762
C157	C	0.037011	-0.867502	0.772991
C158	C	0.537011	-0.367502	1.272991
C159	C	0.114665	-0.772500	0.773015
C160	C	0.614665	-0.272500	1.273015
C161	C	0.114663	-0.772497	0.696788
C162	C	0.614663	-0.272497	1.196788
C163	C	0.075839	-0.820002	0.658665
C164	C	0.575839	-0.320002	1.158665
H165	H	-0.109639	-0.939648	-0.000218
H166	H	0.390361	-0.439648	0.499782
Br167	Br	0.167339	-0.707977	0.174869
Br168	Br	0.667339	-0.207977	0.674869
H169	H	-0.763893	-0.930094	-0.000269
H170	H	-0.263893	-0.430094	0.499731
H171	H	-0.738684	-0.700314	-0.000203
H172	H	-0.238684	-0.200314	0.499797
Br173	Br	0.198151	-0.797685	0.589591
Br174	Br	0.698151	-0.297685	1.089591
H175	H	-0.016435	-0.493372	-0.000187
H176	H	0.483565	0.006628	0.499813
H177	H	-0.656124	-0.931675	-0.000261
H178	H	-0.156124	-0.431675	0.499739
Br179	Br	-0.046476	-0.842293	0.409966
Br180	Br	0.453524	-0.342293	0.909966
H181	H	-0.192209	-0.708291	-0.000164
H182	H	0.307791	-0.208291	0.499836
H183	H	0.146267	-0.733789	0.333850
H184	H	0.646267	-0.233789	0.833850
Br185	Br	0.167353	-0.708038	0.824757
Br186	Br	0.667353	-0.208038	1.324757
H187	H	-0.014860	-0.624802	-0.000144
H188	H	0.485140	-0.124802	0.499856
H189	H	-0.630931	-0.701886	-0.000213
H190	H	-0.130931	-0.201886	0.499787
H191	H	-0.020230	-0.177928	-0.000236
H192	H	0.479770	0.322072	0.499764
H193	H	0.005394	-0.906139	0.195509
H194	H	0.505394	-0.406139	0.695509
Br195	Br	-0.046476	-0.842314	0.589641
Br196	Br	0.453524	-0.342314	1.089641
Br197	Br	0.198150	-0.797736	0.409921
Br198	Br	0.698150	-0.297736	0.909921
Br199	Br	-0.015678	-0.931970	0.645022
Br200	Br	0.484322	-0.431970	1.145022
Br201	Br	-0.015683	-0.931938	0.354484
Br202	Br	0.484317	-0.431938	0.854484
H203	H	-0.458486	-0.640978	-0.000215
H204	H	0.041514	-0.140978	0.499785
Br205	Br	-0.237284	-0.972227	-0.000252
Br206	Br	0.262716	-0.472227	0.499748
Br207	Br	0.167351	-0.708028	0.645082
Br208	Br	0.667351	-0.208028	1.145082
H209	H	-0.350733	-0.642556	-0.000211
H210	H	0.149267	-0.142556	0.499789
H211	H	-0.389829	-0.998986	-0.000263
H212	H	0.110171	-0.498986	0.499737
H213	H	-0.497577	-0.997412	-0.000276
H214	H	0.002423	-0.497412	0.499724
Br215	Br	-0.064543	-0.675728	-0.000163
Br216	Br	0.435457	-0.175728	0.499837
Br217	Br	0.201894	-0.608427	-0.000194
Br218	Br	0.701894	-0.108427	0.499806
Br219	Br	-0.015681	-0.931970	0.824695
Br220	Br	0.484319	-0.431970	1.324695
H221	H	0.171898	-0.462031	-0.000206
H222	H	0.671898	0.037969	0.499794
H223	H	0.166526	-0.015161	-0.000281
H224	H	0.666526	0.484839	0.499719
H225	H	0.148763	-0.373644	0.076758
H226	H	0.648763	0.126356	0.576758
Br227	Br	0.196521	-0.161559	-0.000272
Br228	Br	0.696521	0.338441	0.499728
Br229	Br	-0.050226	-0.031532	-0.000251
Br230	Br	0.449774	0.468468	0.499749
Br231	Br	-0.018909	-0.250261	-0.100256
Br232	Br	0.481091	0.249739	0.399744
H233	H	0.147181	-0.242217	0.076735
H234	H	0.647181	0.257783	0.576735
Br235	Br	-0.016862	-0.421014	-0.100217
Br236	Br	0.483138	0.078986	0.399783
