data_functionalizedCrystal
_audit_creation_method	'MofGen! by Chris Wilmer'
_symmetry_space_group_name_H-M	'P1'
_symmetry_Int_Tables_number	1
_symmetry_cell_setting	triclinic
loop_
_symmetry_equiv_pos_as_xyz
  x,y,z
_cell_length_a	27.732064
_cell_length_b	27.732048
_cell_length_c	12.996460
_cell_angle_alpha	89.988908
_cell_angle_beta	90.002042
_cell_angle_gamma	82.646040
loop_
_atom_site_label
_atom_site_type_symbol
_atom_site_fract_x
_atom_site_fract_y
_atom_site_fract_z
O1	O	0.640923	0.057556	-0.085394
O2	O	1.140923	0.557556	0.414606
O3	O	0.500130	0.066293	-0.085438
O4	O	1.000130	0.566293	0.414562
O5	O	0.574899	-0.008472	-0.085395
O6	O	1.074899	0.491528	0.414605
O7	O	0.566154	0.132321	-0.085437
O8	O	1.066154	0.632321	0.414563
O9	O	0.574891	-0.008476	0.085739
O10	O	1.074891	0.491524	0.585739
O11	O	0.500123	0.066289	0.085696
O12	O	1.000123	0.566289	0.585696
O13	O	0.640915	0.057552	0.085740
O14	O	1.140915	0.557552	0.585740
Cu15	Cu	0.570518	0.061920	0.101344
Cu16	Cu	1.070518	0.561920	0.601344
Cu17	Cu	0.570527	0.061925	-0.101042
Cu18	Cu	1.070527	0.561925	0.398958
O19	O	0.566146	0.132317	0.085697
O20	O	1.066146	0.632317	0.585697
C21	C	0.482120	0.066106	0.000123
C22	C	0.982120	0.566106	0.500123
C23	C	0.428465	0.065551	0.000108
C24	C	0.928465	0.565551	0.500108
C25	C	0.051392	0.017583	0.000180
C26	C	0.551392	0.517583	0.500180
C27	C	0.253053	0.019630	0.000153
C28	C	0.753053	0.519630	0.500153
O29	O	0.284305	-0.017591	0.000203
O30	O	0.784305	0.482409	0.500203
N31	N	0.272180	0.063964	0.000135
N32	N	0.772180	0.563964	0.500135
C33	C	0.240889	0.107790	0.000131
C34	C	0.740889	0.607790	0.500131
O35	O	0.261785	0.145546	0.000126
O36	O	0.761785	0.645546	0.500126
C37	C	0.039230	0.105743	0.000166
C38	C	0.539230	0.605743	0.500166
C39	C	0.020105	0.061406	0.000173
C40	C	0.520105	0.561406	0.500173
C41	C	0.032267	-0.026750	0.000189
C42	C	0.532267	0.473250	0.500189
C43	C	-0.018145	-0.027261	0.000190
C44	C	0.481855	0.472739	0.500190
C45	C	-0.049432	0.016561	0.000183
C46	C	0.450568	0.516561	0.500183
C47	C	-0.030307	0.060895	0.000174
C48	C	0.469693	0.560895	0.500174
C49	C	0.007940	0.149568	0.000169
C50	C	0.507940	0.649568	0.500169
C51	C	-0.042478	0.149053	0.000180
C52	C	0.457522	0.649053	0.500180
C53	C	-0.061602	0.104716	0.000188
C54	C	0.438398	0.604716	0.500188
C55	C	-0.112006	0.104206	0.000168
C56	C	0.387994	0.604206	0.500168
N57	N	-0.131134	0.059872	0.000186
N58	N	0.368866	0.559872	0.500186
C59	C	-0.099846	0.016049	0.000193
C60	C	0.400154	0.516049	0.500193
C61	C	0.346763	0.108861	0.000111
C62	C	0.846763	0.608861	0.500111
C63	C	0.397178	0.109373	0.000100
C64	C	0.897178	0.609373	0.500100
C65	C	0.409338	0.021213	0.000124
C66	C	0.909338	0.521213	0.500124
C67	C	0.358923	0.020701	0.000127
C68	C	0.858923	0.520701	0.500127
C69	C	0.327636	0.064527	0.000129
C70	C	0.827636	0.564527	0.500129
C71	C	-0.205716	0.014979	0.000195
C72	C	0.294284	0.514979	0.500195
C73	C	-0.256133	0.014472	0.000192
C74	C	0.243867	0.514472	0.500192
C75	C	-0.268289	0.102632	0.000174
C76	C	0.231711	0.602632	0.500174
C77	C	-0.217876	0.103140	0.000171
C78	C	0.282124	0.603140	0.500171
C79	C	-0.186590	0.059309	0.000185
C80	C	0.313410	0.559309	0.500185
O81	O	-0.143287	0.141407	0.000131
O82	O	0.356713	0.641407	0.500131
O83	O	-0.120752	-0.021701	0.000221
O84	O	0.379248	0.478299	0.500221
C85	C	0.101805	0.018094	0.000179
C86	C	0.601805	0.518094	0.500179
C87	C	0.120930	0.062428	0.000171
C88	C	0.620930	0.562428	0.500171
C89	C	0.089642	0.106250	0.000163
C90	C	0.589642	0.606250	0.500163
C91	C	0.171344	0.062940	0.000160
C92	C	0.671344	0.562940	0.500160
C93	C	0.202631	0.019117	0.000167
C94	C	0.702631	0.519117	0.500167
C95	C	0.183504	-0.025217	0.000185
C96	C	0.683504	0.474783	0.500185
C97	C	0.133092	-0.025728	0.000186
C98	C	0.633092	0.474272	0.500186
C99	C	0.108770	0.150585	0.000146
C100	C	0.608770	0.650585	0.500146
C101	C	0.159183	0.151092	0.000143
C102	C	0.659183	0.651092	0.500143
C103	C	0.190470	0.107270	0.000151
C104	C	0.690470	0.607270	0.500151
C105	C	0.574712	-0.026481	0.000174
C106	C	1.074712	0.473519	0.500174
C107	C	0.574159	-0.080136	0.000183
C108	C	1.074159	0.419864	0.500183
C109	C	0.614862	-0.418948	0.000143
C110	C	1.114862	0.081052	0.500143
C111	C	0.612811	-0.620608	0.000128
C112	C	1.112811	-0.120608	0.500128
O113	O	0.650032	-0.651862	0.000094
O114	O	1.150032	-0.151862	0.500094
N115	N	0.568476	-0.639735	0.000115
N116	N	1.068476	-0.139735	0.500115
C117	C	0.524651	-0.608442	0.000099
C118	C	1.024651	-0.108442	0.500099
O119	O	0.486895	-0.629338	0.000077
O120	O	0.986895	-0.129338	0.500077
C121	C	0.526703	-0.406784	0.000107
C122	C	1.026703	0.093216	0.500107
C123	C	0.571040	-0.387660	0.000130
C124	C	1.071040	0.112340	0.500130
C125	C	0.659196	-0.399824	0.000165
C126	C	1.159196	0.100176	0.500165
C127	C	0.659709	-0.349412	0.000174
C128	C	1.159709	0.150588	0.500174
C129	C	0.615887	-0.318124	0.000161
C130	C	1.115887	0.181876	0.500161
C131	C	0.571553	-0.337248	0.000139
C132	C	1.071553	0.162752	0.500139
C133	C	0.482878	-0.375493	0.000083
C134	C	0.982878	0.124507	0.500083
C135	C	0.483395	-0.325075	0.000083
C136	C	0.983395	0.174925	0.500083
C137	C	0.527733	-0.305952	0.000106
C138	C	1.027733	0.194048	0.500106
C139	C	0.528243	-0.255548	0.000136
C140	C	1.028243	0.244452	0.500136
N141	N	0.572578	-0.236422	0.000149
N142	N	1.072578	0.263578	0.500149
C143	C	0.616400	-0.267710	0.000161
C144	C	1.116400	0.232290	0.500161
C145	C	0.523577	-0.714317	0.000097
C146	C	1.023577	-0.214317	0.500097
C147	C	0.523064	-0.764731	0.000097
C148	C	1.023064	-0.264731	0.500097
C149	C	0.611225	-0.776893	0.000124
C150	C	1.111225	-0.276893	0.500124
C151	C	0.611737	-0.726478	0.000131
C152	C	1.111737	-0.226478	0.500131
C153	C	0.567912	-0.695190	0.000110
C154	C	1.067912	-0.195190	0.500110
C155	C	0.617472	-0.161841	0.000182
C156	C	1.117472	0.338159	0.500182
C157	C	0.617981	-0.111424	0.000196
C158	C	1.117981	0.388576	0.500196
C159	C	0.529821	-0.099266	0.000163
C160	C	1.029821	0.400734	0.500163
C161	C	0.529312	-0.149679	0.000155
C162	C	1.029312	0.350321	0.500155
C163	C	0.573142	-0.180965	0.000161
C164	C	1.073142	0.319035	0.500161
O165	O	0.491043	-0.224267	0.000158
O166	O	0.991043	0.275733	0.500158
O167	O	0.654151	-0.246805	0.000160
O168	O	1.154151	0.253195	0.500160
C169	C	0.614350	-0.469360	0.000133
C170	C	1.114350	0.030640	0.500133
C171	C	0.570016	-0.488484	0.000111
C172	C	1.070016	0.011516	0.500111
C173	C	0.526194	-0.457196	0.000098
C174	C	1.026194	0.042804	0.500098
C175	C	0.569503	-0.538899	0.000111
C176	C	1.069503	-0.038899	0.500111
C177	C	0.613325	-0.570187	0.000124
C178	C	1.113325	-0.070187	0.500124
C179	C	0.657660	-0.551060	0.000137
C180	C	1.157660	-0.051060	0.500137
C181	C	0.658172	-0.500648	0.000146
C182	C	1.158172	-0.000648	0.500146
C183	C	0.481859	-0.476323	0.000085
C184	C	0.981859	0.023677	0.500085
C185	C	0.481351	-0.526735	0.000077
C186	C	0.981351	-0.026735	0.500077
C187	C	0.525172	-0.558023	0.000090
C188	C	1.025172	-0.058023	0.500090
C189	C	0.658925	0.057739	0.000176
C190	C	1.158925	0.557739	0.500176
C191	C	0.712580	0.058295	0.000185
C192	C	1.212580	0.558295	0.500185
C193	C	0.566333	0.150326	0.000125
C194	C	1.066333	0.650326	0.500125
C195	C	0.566886	0.203981	0.000110
C196	C	1.066886	0.703981	0.500110
N197	N	0.570515	0.061916	0.243691
N198	N	1.070515	0.561916	0.743691
N199	N	0.570534	0.061925	-0.243389
N200	N	1.070534	0.561925	0.256611
C201	C	0.570526	0.061925	0.663505
C202	C	1.070526	0.561925	1.163505
C203	C	0.570522	0.061925	0.546700
C204	C	1.070522	0.561925	1.046700
C205	C	0.570521	0.061921	0.453601
C206	C	1.070521	0.561921	0.953601
C207	C	0.570516	0.061920	0.336789
C208	C	1.070516	0.561920	0.836789
H209	H	-0.033711	-0.063365	0.000200
H210	H	0.466289	0.436635	0.500200
H211	H	0.693341	-0.576544	0.000152
H212	H	1.193341	-0.076544	0.500152
H213	H	0.057737	-0.062438	0.000198
H214	H	0.557737	0.437562	0.500198
H215	H	-0.202304	0.139243	0.000164
H216	H	0.297696	0.639243	0.500164
H217	H	-0.180248	-0.020712	0.000206
H218	H	0.319752	0.479288	0.500206
H219	H	0.493209	-0.165249	0.000165
H220	H	0.993209	0.334751	0.500165
H221	H	0.321293	0.144551	0.000110
H222	H	0.821293	0.644551	0.500110
H223	H	-0.271701	-0.021634	0.000195
H224	H	0.228299	0.478366	0.500195
H225	H	-0.293772	0.138311	0.000163
H226	H	0.206228	0.638311	0.500163
C227	C	0.083459	-0.077455	-0.087773
C228	C	0.583459	0.422545	0.412227
C229	C	0.112076	-0.074466	0.000198
C230	C	0.612076	0.425534	0.500198
H231	H	0.070490	-0.107547	-0.087766
H232	H	0.570490	0.392453	0.412234
H233	H	0.057607	-0.051437	-0.087768
H234	H	0.557607	0.448563	0.412232
H235	H	0.102875	-0.075416	-0.147446
H236	H	0.602875	0.424584	0.352554
H237	H	0.092659	-0.076502	0.059872
H238	H	0.592659	0.423498	0.559872
H239	H	0.137931	-0.100491	0.000203
H240	H	0.637931	0.399509	0.500203
C241	C	0.376018	-0.066388	0.000149
C242	C	0.876018	0.433612	0.500149
C243	C	0.337904	-0.028035	0.000146
C244	C	0.837904	0.471965	0.500146
H245	H	0.363042	-0.096476	0.000168
H246	H	0.863042	0.403524	0.500168
H247	H	0.395421	-0.064350	-0.059532
H248	H	0.895421	0.435650	0.440468
H249	H	0.395434	-0.064351	0.059825
H250	H	0.895434	0.435649	0.559825
H251	H	0.318490	-0.030070	-0.059534
H252	H	0.818490	0.469930	0.440466
H253	H	0.318492	-0.030074	0.059833
H254	H	0.818492	0.469926	0.559833
C255	C	0.471330	-0.814370	0.088055
C256	C	0.971330	-0.314370	0.588055
C257	C	0.474327	-0.785748	0.000083
C258	C	0.974327	-0.285748	0.500083
H259	H	0.441239	-0.827340	0.088042
H260	H	0.941239	-0.327340	0.588042
H261	H	0.497349	-0.840220	0.088056
H262	H	0.997349	-0.340220	0.588056
H263	H	0.473361	-0.794956	0.147728
H264	H	0.973361	-0.294956	0.647728
H265	H	0.472299	-0.805162	-0.059590
H266	H	0.972299	-0.305162	0.440410
H267	H	0.448300	-0.759894	0.000072
H268	H	0.948300	-0.259894	0.500072
H269	H	0.412744	0.145477	0.000080
H270	H	0.912744	0.645477	0.500080
H271	H	0.494142	-0.073782	0.000157
H272	H	0.994142	0.426218	0.500157
H273	H	0.023502	0.185672	0.000158
H274	H	0.523502	0.685672	0.500158
H275	H	0.654087	-0.095857	0.000217
H276	H	1.154087	0.404143	0.500217
H277	H	-0.067950	0.184742	0.000186
H278	H	0.432050	0.684742	0.500186
H279	H	0.694276	-0.485083	0.000165
H280	H	1.194276	0.014917	0.500165
C281	C	0.266188	-0.063569	0.000197
C282	C	0.766188	0.436431	0.500197
C283	C	0.217902	-0.073388	0.000198
C284	C	0.717902	0.426612	0.500198
H285	H	0.287425	-0.093306	0.000215
H286	H	0.787425	0.406694	0.500215
H287	H	0.271945	-0.045376	-0.059485
H288	H	0.771945	0.454624	0.440515
H289	H	0.271945	-0.045372	0.059872
H290	H	0.771945	0.454628	0.559872
H291	H	0.212144	-0.091581	-0.059481
H292	H	0.712144	0.408419	0.440519
H293	H	0.212143	-0.091589	0.059886
H294	H	0.712143	0.408411	0.559886
C295	C	0.394258	-0.509636	0.000032
C296	C	0.894258	-0.009636	0.500032
C297	C	0.432610	-0.547751	0.000048
C298	C	0.932610	-0.047751	0.500048
H299	H	0.364169	-0.522611	0.000001
H300	H	0.864169	-0.022611	0.500001
H301	H	0.396287	-0.490237	0.059715
H302	H	0.896287	0.009763	0.559715
H303	H	0.396304	-0.490217	-0.059642
H304	H	0.896304	0.009783	0.440358
H305	H	0.430565	-0.567169	0.059727
H306	H	0.930565	-0.067169	0.559727
H307	H	0.430579	-0.567159	-0.059640
H308	H	0.930579	-0.067159	0.440360
C309	C	0.431283	-0.412567	-0.087895
C310	C	0.931283	0.087433	0.412105
C311	C	0.433685	-0.441936	0.000074
C312	C	0.933685	0.058064	0.500074
H313	H	0.401538	-0.391342	-0.087899
H314	H	0.901538	0.108658	0.412101
H315	H	0.457752	-0.393957	-0.087877
H316	H	0.957752	0.106043	0.412123
H317	H	0.432921	-0.432484	-0.147570
H318	H	0.932921	0.067516	0.352430
H319	H	0.432051	-0.422019	0.059749
H320	H	0.932051	0.077981	0.559749
H321	H	0.407208	-0.460547	0.000065
H322	H	0.907208	0.039453	0.500065
C323	C	0.473092	-0.029353	-0.087834
C324	C	0.973092	0.470647	0.412166
C325	C	0.443736	-0.026958	0.000139
C326	C	0.943736	0.473042	0.500139
H327	H	0.494331	-0.059089	-0.087814
H328	H	0.994331	0.440911	0.412186
H329	H	0.453170	-0.027727	-0.147500
H330	H	0.953170	0.472273	0.352500
H331	H	0.491691	-0.002870	-0.087840
H332	H	0.991691	0.497130	0.412160
H333	H	0.425134	-0.053439	0.000141
H334	H	0.925134	0.446561	0.500141
H335	H	0.463661	-0.028588	0.059820
H336	H	0.963661	0.471412	0.559820
H337	H	0.174748	0.187200	0.000130
H338	H	0.674748	0.687200	0.500130
H339	H	0.083300	0.186271	0.000141
H340	H	0.583300	0.686271	0.500141
H341	H	0.653163	-0.187309	0.000183
H342	H	1.153163	0.312691	0.500183
C343	C	0.661786	-0.840636	-0.087855
C344	C	1.161786	-0.340636	0.412145
C345	C	0.659396	-0.811290	0.000124
C346	C	1.159396	-0.311290	0.500124
H347	H	0.691525	-0.861869	-0.087862
H348	H	1.191525	-0.361869	0.412138
H349	H	0.635309	-0.859236	-0.087848
H350	H	1.135309	-0.359236	0.412152
H351	H	0.660153	-0.820702	-0.147523
H352	H	1.160153	-0.320702	0.352477
H353	H	0.661026	-0.831223	0.059792
H354	H	1.161026	-0.331223	0.559792
H355	H	0.685880	-0.792688	0.000127
H356	H	1.185880	-0.292688	0.500127
C357	C	0.746797	-0.366514	0.000189
C358	C	1.246797	0.133486	0.500189
C359	C	0.708447	-0.328397	0.000186
C360	C	1.208447	0.171603	0.500186
H361	H	0.776886	-0.353541	0.000188
H362	H	1.276886	0.146459	0.500188
H363	H	0.744759	-0.385927	0.059864
H364	H	1.244759	0.114073	0.559864
H365	H	0.744756	-0.385918	-0.059493
H366	H	1.244756	0.114082	0.440507
H367	H	0.710485	-0.308994	0.059873
H368	H	1.210485	0.191006	0.559873
H369	H	0.710485	-0.308975	-0.059494
H370	H	1.210485	0.191025	0.440506
H371	H	0.447706	-0.299603	0.000064
H372	H	0.947706	0.200397	0.500064
C373	C	0.709784	-0.463562	-0.087792
C374	C	1.209784	0.036438	0.412208
C375	C	0.707372	-0.434210	0.000179
C376	C	1.207372	0.065790	0.500179
H377	H	0.739530	-0.484785	-0.087779
H378	H	1.239530	0.015215	0.412221
H379	H	0.683316	-0.482173	-0.087795
H380	H	1.183316	0.017827	0.412205
H381	H	0.708151	-0.443632	-0.147465
H382	H	1.208151	0.056368	0.352535
H383	H	0.709002	-0.454140	0.059853
H384	H	1.209002	0.045860	0.559853
H385	H	0.733848	-0.415598	0.000192
H386	H	1.233848	0.084402	0.500192
H387	H	0.647841	-0.710911	0.000149
H388	H	1.147841	-0.210911	0.500149
C389	C	0.436383	-0.707370	0.000085
C390	C	0.936383	-0.207370	0.500085
C391	C	0.475400	-0.679929	0.000088
C392	C	0.975400	-0.179929	0.500088
H393	H	0.406641	-0.686141	0.000091
H394	H	0.906641	-0.186141	0.500091
H395	H	0.438020	-0.727278	-0.059591
H396	H	0.938020	-0.227278	0.440409
H397	H	0.438025	-0.727295	0.059766
H398	H	0.938025	-0.227295	0.559766
H399	H	0.473761	-0.660006	-0.059596
H400	H	0.973761	-0.160006	0.440404
H401	H	0.473763	-0.660012	0.059771
H402	H	0.973763	-0.160012	0.559771
H403	H	0.446774	-0.391054	0.000058
H404	H	0.946774	0.108946	0.500058
