data_functionalizedCrystal
_audit_creation_method	'MofGen! by Chris Wilmer'
_symmetry_space_group_name_H-M	'P1'
_symmetry_Int_Tables_number	1
_symmetry_cell_setting	triclinic
loop_
_symmetry_equiv_pos_as_xyz
  x,y,z
_cell_length_a	14.044191
_cell_length_b	11.026607
_cell_length_c	10.065875
_cell_angle_alpha	79.268236
_cell_angle_beta	80.446775
_cell_angle_gamma	79.111103
loop_
_atom_site_label
_atom_site_type_symbol
_atom_site_fract_x
_atom_site_fract_y
_atom_site_fract_z
O1	O	1.319597	-0.281479	-0.113417
O2	O	1.041793	-0.270711	-0.113435
O3	O	1.157670	-0.096949	-0.113422
O4	O	1.203720	-0.455241	-0.113429
O5	O	1.135599	-0.130229	0.113564
O6	O	1.019721	-0.303990	0.113552
O7	O	1.297526	-0.314758	0.113569
Zn8	Zn	1.155119	-0.314658	0.149600
Zn9	Zn	1.184199	-0.270811	-0.149465
O10	O	1.181648	-0.488520	0.113557
C11	C	0.994639	-0.282641	0.000056
C12	C	0.887017	-0.268593	0.000049
C13	C	0.649347	-0.342540	0.000062
C14	C	0.689979	-0.242933	0.000061
C15	C	0.799621	-0.257213	0.000055
C16	C	0.539695	-0.328261	0.000068
C17	C	1.138140	-0.067458	0.000069
C18	C	1.112816	0.069999	0.000062
C19	C	1.344680	-0.302828	0.000075
C20	C	1.452303	-0.316875	0.000073
C21	C	1.201179	-0.518011	0.000063
C22	C	1.226504	-0.655467	0.000061
N23	N	1.135280	-0.344582	0.353703
C24	C	1.182740	0.136233	0.000065
C25	C	1.156569	0.278302	0.000058
N26	N	1.204045	-0.240878	-0.353568
C27	C	1.177289	-0.281214	0.421486
C28	C	1.162029	-0.304255	0.578652
H29	H	0.642432	-0.146917	-0.000033
H30	H	1.114758	-0.375565	0.636968
H31	H	1.261980	0.087759	0.000078
H32	H	0.696901	-0.438534	0.000056
Cl33	Cl	1.034219	0.353126	0.000036
H34	H	1.305760	0.296083	-0.000037
H35	H	1.251307	-0.169559	0.588116
H36	H	1.033576	0.118473	0.000048
H37	H	1.088012	-0.415887	0.412024
H38	H	1.224548	-0.209899	0.363167
