data_functionalizedCrystal
_audit_creation_method	'MofGen! by Chris Wilmer'
_symmetry_space_group_name_H-M	'P1'
_symmetry_Int_Tables_number	1
_symmetry_cell_setting	triclinic
loop_
_symmetry_equiv_pos_as_xyz
  x,y,z
_cell_length_a	17.038272
_cell_length_b	15.944551
_cell_length_c	14.421503
_cell_angle_alpha	90.003141
_cell_angle_beta	90.004327
_cell_angle_gamma	92.694853
loop_
_atom_site_label
_atom_site_type_symbol
_atom_site_fract_x
_atom_site_fract_y
_atom_site_fract_z
O1	O	0.100827	-1.121728	-0.077015
O2	O	0.600827	-0.621728	0.422985
O3	O	0.113259	-0.878066	-0.077039
O4	O	0.613259	-0.378066	0.422961
O5	O	-0.006773	-0.998449	-0.077020
O6	O	0.493227	-0.498449	0.422980
O7	O	0.220859	-1.001345	-0.077034
O8	O	0.720859	-0.501345	0.422966
O9	O	-0.006755	-0.998429	0.077204
O10	O	0.493245	-0.498429	0.577204
O11	O	0.113277	-0.878046	0.077185
O12	O	0.613277	-0.378046	0.577185
O13	O	0.100845	-1.121708	0.077208
O14	O	0.600845	-0.621708	0.577208
Cu15	Cu	0.107062	-0.999875	0.091278
Cu16	Cu	0.607062	-0.499875	0.591278
Cu17	Cu	0.107041	-0.999899	-0.091109
Cu18	Cu	0.607041	-0.499899	0.408891
O19	O	0.220877	-1.001325	0.077189
O20	O	0.720877	-0.501325	0.577189
C21	C	0.112752	-0.846725	0.000070
C22	C	0.612752	-0.346725	0.500070
C23	C	0.111205	-0.753369	0.000062
C24	C	0.611205	-0.253369	0.500062
C25	C	-0.035893	-0.995805	0.000092
C26	C	0.464107	-0.495805	0.500092
C27	C	-0.122688	-0.987945	0.000091
C28	C	0.377312	-0.487945	0.500091
C29	C	0.101352	-1.153049	0.000097
C30	C	0.601352	-0.653049	0.500097
C31	C	0.102899	-1.246405	0.000100
C32	C	0.602899	-0.746405	0.500100
C33	C	-0.172781	-1.060103	0.000098
C34	C	0.327219	-0.560103	0.500098
C35	C	-0.254334	-1.052713	0.000089
C36	C	0.245666	-0.552713	0.500089
C37	C	-0.285792	-0.973165	0.000078
C38	C	0.214208	-0.473165	0.500078
C39	C	-0.235693	-0.901002	0.000068
C40	C	0.264307	-0.401002	0.500068
C41	C	-0.154142	-0.908393	0.000071
C42	C	0.345858	-0.408393	0.500071
C43	C	-0.531558	-0.947056	0.000063
C44	C	-0.031558	-0.447056	0.500063
C45	C	-0.613115	-0.939671	0.000063
C46	C	-0.113115	-0.439671	0.500063
C47	C	-0.631751	-1.091383	0.000083
C48	C	-0.131751	-0.591383	0.500083
C49	C	-0.550197	-1.098766	0.000091
C50	C	-0.050197	-0.598766	0.500091
C51	C	-0.500105	-1.026603	0.000075
C52	C	-0.000105	-0.526603	0.500075
C53	C	-0.369152	-0.965610	0.000071
C54	C	0.130848	-0.465610	0.500071
C55	C	-0.416747	-1.034159	0.000076
C56	C	0.083253	-0.534159	0.500076
C57	C	0.249997	-1.003969	0.000076
C58	C	0.749997	-0.503969	0.500076
C59	C	0.336792	-1.011829	0.000071
C60	C	0.836792	-0.511829	0.500071
N61	N	0.107077	-0.999865	0.219560
N62	N	0.607077	-0.499865	0.719560
C63	C	0.033105	-0.532936	0.000085
C64	C	0.533105	-0.032936	0.500085
C65	C	0.069363	-0.474515	-0.075958
C66	C	0.569363	0.025485	0.424042
C67	C	0.108405	-0.582443	0.000073
C68	C	0.608405	-0.082443	0.500073
C69	C	0.069398	-0.474519	0.076094
C70	C	0.569398	0.025481	0.576094
C71	C	0.105696	-0.417337	0.000088
C72	C	0.605696	0.082663	0.500088
C73	C	0.144684	-0.525252	-0.076033
C74	C	0.644684	-0.025252	0.423967
C75	C	0.144709	-0.525261	0.076088
C76	C	0.644709	-0.025261	0.576088
C77	C	0.181022	-0.466862	0.000027
C78	C	0.681022	0.033138	0.500027
C79	C	0.109964	-0.677557	0.000063
C80	C	0.609964	-0.177557	0.500063
C81	C	0.104143	-0.322225	0.000090
C82	C	0.604143	0.177775	0.500090
N83	N	0.107021	-0.999916	-0.219390
N84	N	0.607021	-0.499916	0.280610
C85	C	0.162555	-0.944187	0.469205
C86	C	0.662555	-0.444187	0.969205
C87	C	0.177734	-1.021171	0.531013
C88	C	0.677734	-0.521171	1.031013
C89	C	0.107058	-0.999884	0.408721
C90	C	0.607058	-0.499884	0.908721
C91	C	0.091897	-0.922921	0.531006
C92	C	0.591897	-0.422921	1.031006
C93	C	0.107042	-0.999895	0.591442
C94	C	0.607042	-0.499895	1.091442
C95	C	0.122272	-1.076908	0.469169
C96	C	0.622272	-0.576908	0.969169
C97	C	0.036405	-0.978606	0.469156
C98	C	0.536405	-0.478606	0.969156
C99	C	0.051554	-1.055642	0.530937
C100	C	0.551554	-0.555642	1.030937
C101	C	0.107070	-0.999876	0.303460
C102	C	0.607070	-0.499876	0.803460
C103	C	0.107030	-0.999912	0.696701
C104	C	0.607030	-0.499912	1.196701
H105	H	-0.147175	-1.124879	0.000113
H106	H	0.352825	-0.624879	0.500113
H107	H	0.037543	-0.452149	0.140380
H108	H	0.537543	0.047851	0.640380
Br109	Br	0.070535	-0.814433	0.576284
Br110	Br	0.570535	-0.314433	1.076284
H111	H	-0.023318	-0.960576	0.441965
H112	H	0.476682	-0.460576	0.941965
Br113	Br	-0.699736	-1.189313	0.000104
Br114	Br	-0.199736	-0.689313	0.500104
H115	H	0.237476	-1.039179	0.558183
H116	H	0.737476	-0.539179	1.058183
Br117	Br	-0.322315	-1.150646	0.000099
Br118	Br	0.177685	-0.650646	0.500099
H119	H	-0.638725	-0.874891	0.000069
H120	H	-0.138725	-0.374891	0.500069
H121	H	0.037506	-0.452139	-0.140243
H122	H	0.537506	0.047861	0.359757
H123	H	0.209524	-0.897141	0.442099
H124	H	0.709524	-0.397141	0.942099
Br125	Br	0.197718	-0.562360	-0.183302
Br126	Br	0.697718	-0.062360	0.316698
Br127	Br	-0.507509	-1.206728	0.000076
Br128	Br	-0.007509	-0.706728	0.500076
Br129	Br	0.285287	-0.419036	-0.000045
Br130	Br	0.785287	0.080964	0.499955
Br131	Br	-0.411852	-0.857655	0.000048
Br132	Br	0.088148	-0.357655	0.500048
H133	H	-0.490782	-0.888296	0.000051
H134	H	0.009218	-0.388296	0.500051
H135	H	0.135160	-1.142019	0.442121
H136	H	0.635160	-0.642019	0.942121
Br137	Br	-0.278385	-0.793043	0.000038
Br138	Br	0.221615	-0.293043	0.500038
H139	H	-0.029389	-0.561807	-0.000006
H140	H	0.470611	-0.061807	0.499994
Br141	Br	-0.086157	-0.810461	0.000052
Br142	Br	0.413843	-0.310461	0.500052
Br143	Br	-0.026685	-1.134242	0.575838
Br144	Br	0.473315	-0.634242	1.075838
Br145	Br	0.197764	-0.562591	0.183239
Br146	Br	0.697764	-0.062591	0.683239
H147	H	-0.391130	-1.098927	0.000064
H148	H	0.108870	-0.598927	0.500064
