data_functionalizedCrystal
_audit_creation_method	'MofGen! by Chris Wilmer'
_symmetry_space_group_name_H-M	'P1'
_symmetry_Int_Tables_number	1
_symmetry_cell_setting	triclinic
loop_
_symmetry_equiv_pos_as_xyz
  x,y,z
_cell_length_a	14.908571
_cell_length_b	16.120484
_cell_length_c	14.908308
_cell_angle_alpha	95.986071
_cell_angle_beta	90.175053
_cell_angle_gamma	89.787312
loop_
_atom_site_label
_atom_site_type_symbol
_atom_site_fract_x
_atom_site_fract_y
_atom_site_fract_z
Zn1	Zn	1.320097	-0.434923	-0.609960
Zn2	Zn	1.321040	-0.566744	-0.466383
Zn3	Zn	1.179340	-0.418915	-0.450134
Zn4	Zn	1.162126	-0.565754	-0.607984
O5	O	1.245651	-0.496584	-0.533615
O6	O	1.445636	-0.459523	-0.598542
O7	O	1.309843	-0.540849	-0.338080
O8	O	1.204822	-0.304418	-0.465363
O9	O	1.446329	-0.556371	-0.493056
O10	O	1.308235	-0.316179	-0.582786
O11	O	1.205736	-0.432240	-0.326142
O12	O	1.051643	-0.431280	-0.463446
O13	O	1.175482	-0.554684	-0.734394
O14	O	1.038995	-0.539162	-0.579418
O15	O	1.291543	-0.458562	-0.735846
O16	O	1.293150	-0.683233	-0.491140
O17	O	1.176396	-0.682506	-0.595173
C18	C	1.012801	-0.483377	-0.519455
C19	C	0.913184	-0.477748	-0.513419
C20	C	0.712871	-0.579666	-0.622692
C21	C	0.619272	-0.574380	-0.617025
C22	C	0.632384	-0.461887	-0.496421
C23	C	0.725983	-0.467173	-0.502089
C24	C	0.766223	-0.526065	-0.565226
C25	C	0.859824	-0.531355	-0.570888
C26	C	0.872935	-0.418858	-0.450290
C27	C	0.779335	-0.413572	-0.444622
C28	C	1.233031	-0.713110	-0.544726
C29	C	1.227712	-0.805747	-0.549515
C30	C	1.218005	-0.975358	-0.558276
C31	C	1.273456	-1.016980	-0.508979
C32	C	1.268055	-1.111356	-0.513854
C33	C	1.223405	-0.880972	-0.553403
C34	C	1.479410	-0.509843	-0.547832
C35	C	1.579025	-0.515493	-0.553890
C36	C	1.231487	-0.508298	-0.768743
C37	C	1.225451	-0.513290	-0.868941
C38	C	1.258344	-0.279214	-0.522482
C39	C	1.263752	-0.186584	-0.517738
C40	C	1.334963	-0.422560	-1.058735
C41	C	1.329294	-0.427248	-1.152880
C42	C	1.208443	-0.527348	-1.151376
C43	C	1.214111	-0.522661	-1.057231
C44	C	1.277374	-0.470266	-1.010914
C45	C	1.283046	-0.465583	-0.916769
C46	C	1.162191	-0.565679	-0.915266
C47	C	1.156523	-0.570366	-1.009410
C48	C	1.259815	-0.484858	-0.299402
C49	C	1.266038	-0.479641	-0.199204
H50	H	0.575836	-0.618026	-0.663822
C51	C	1.062050	-0.996041	-0.594198
C52	C	1.148440	-1.022927	-0.620188
H53	H	1.019105	-1.025413	-0.632422
H54	H	1.051845	-1.006538	-0.533552
H55	H	1.056609	-0.937940	-0.599009
H56	H	1.153883	-1.081028	-0.615370
H57	H	1.158648	-1.012437	-0.680848
H58	H	1.334559	-0.422921	-0.879059
C59	C	1.388605	-0.282476	-1.025158
C60	C	1.404499	-0.364974	-1.007815
H61	H	1.431533	-0.246926	-0.993717
H62	H	1.393479	-0.278444	-1.088064
H63	H	1.330028	-0.266106	-1.005441
H64	H	1.463075	-0.381347	-1.027538
H65	H	1.399634	-0.369009	-0.944896
H66	H	1.376187	-0.388398	-1.191812
H67	H	0.746559	-0.365621	-0.393220
H68	H	1.156937	-0.570005	-1.189103
C69	C	1.094173	-0.622000	-1.153061
C70	C	1.086989	-0.627959	-1.060328
H71	H	1.051249	-0.657562	-1.184492
H72	H	1.083389	-0.566038	-1.164815
H73	H	1.152753	-0.638375	-1.172767
H74	H	1.028411	-0.611578	-1.040620
H75	H	1.097767	-0.683934	-1.048567
H76	H	0.599604	-0.413934	-0.445024
C77	C	1.117215	-0.602945	-0.770283
C78	C	1.098883	-0.618121	-0.862699
H79	H	1.078130	-0.635319	-0.737832
H80	H	1.177642	-0.617787	-0.759148
H81	H	1.108291	-0.545438	-0.751193
H82	H	1.107813	-0.675627	-0.881791
H83	H	1.038441	-0.603284	-0.873840
H84	H	0.892586	-0.579309	-0.622296
C85	C	0.810872	-0.698348	-0.647143
C86	C	0.757108	-0.644403	-0.692085
H87	H	0.838175	-0.738317	-0.689986
H88	H	0.856040	-0.667178	-0.613742
H89	H	0.774857	-0.726143	-0.607234
H90	H	0.793123	-0.616604	-0.731990
H91	H	0.711934	-0.675577	-0.725501
C92	C	1.393244	-1.026196	-0.402414
C93	C	1.343017	-0.969406	-0.447055
H94	H	1.436188	-0.996822	-0.364190
H95	H	1.354393	-1.056267	-0.367255
H96	H	1.423226	-1.064004	-0.445526
H97	H	1.313030	-0.931602	-0.403943
H98	H	1.381873	-0.939321	-0.482217
H99	H	0.916384	-0.375214	-0.403494
