data_functionalizedCrystal
_audit_creation_method	'MofGen! by Chris Wilmer'
_symmetry_space_group_name_H-M	'P1'
_symmetry_Int_Tables_number	1
_symmetry_cell_setting	triclinic
loop_
_symmetry_equiv_pos_as_xyz
  x,y,z
_cell_length_a	10.908878
_cell_length_b	10.489746
_cell_length_c	10.066281
_cell_angle_alpha	80.272461
_cell_angle_beta	78.556385
_cell_angle_gamma	72.313046
loop_
_atom_site_label
_atom_site_type_symbol
_atom_site_fract_x
_atom_site_fract_y
_atom_site_fract_z
O1	O	1.685063	-0.209659	0.113458
O2	O	2.185063	0.290341	0.613458
O3	O	1.312119	-0.110252	0.113467
O4	O	1.812119	0.389748	0.613467
O5	O	1.507076	-0.347429	0.113452
O6	O	2.007076	0.152571	0.613452
O7	O	1.490107	0.027517	0.113473
O8	O	1.990107	0.527517	0.613473
O9	O	1.541005	-0.321336	-0.113521
O10	O	2.041005	0.178664	0.386479
O11	O	1.346048	-0.084160	-0.113506
O12	O	1.846048	0.415840	0.386494
O13	O	1.718993	-0.183567	-0.113515
O14	O	2.218993	0.316433	0.386485
Zn15	Zn	1.537908	-0.129720	-0.149547
Zn16	Zn	2.037908	0.370280	0.350453
Zn17	Zn	1.493204	-0.164099	0.149499
Zn18	Zn	1.993204	0.335901	0.649499
O19	O	1.524036	0.053610	-0.113500
O20	O	2.024036	0.553610	0.386500
C21	C	1.281328	-0.087916	-0.000018
C22	C	1.781328	0.412084	0.499982
C23	C	1.139031	-0.060250	-0.000015
C24	C	1.639031	0.439750	0.499985
C25	C	1.089088	-0.161199	-0.000020
C26	C	1.589088	0.338801	0.499980
C27	C	0.942017	-0.132607	-0.000016
C28	C	1.442017	0.367393	0.499984
C29	C	1.522757	-0.381630	-0.000034
C30	C	2.022757	0.118370	0.499966
C31	C	1.518919	-0.522410	-0.000033
C32	C	2.018919	-0.022410	0.499967
C33	C	1.392601	-0.647323	-0.000013
C34	C	1.892601	-0.147323	0.499987
C35	C	1.439025	-0.596768	0.111892
C36	C	1.939025	-0.096768	0.611892
C37	C	1.472506	-0.571090	-0.111885
C38	C	1.972506	-0.071090	0.388115
C39	C	1.558552	-0.722720	0.111995
C40	C	2.058552	-0.222720	0.611995
C41	C	1.592030	-0.697033	-0.111884
C42	C	2.092030	-0.197033	0.388116
C43	C	1.638538	-0.646550	0.000049
C44	C	2.138538	-0.146550	0.500049
C45	C	1.749783	-0.205903	-0.000027
C46	C	2.249783	0.294097	0.499973
C47	C	1.892079	-0.233571	-0.000021
C48	C	2.392079	0.266429	0.499979
C49	C	1.508354	0.087811	-0.000011
C50	C	2.008354	0.587811	0.499989
C51	C	1.512191	0.228590	-0.000003
C52	C	2.012191	0.728590	0.499997
N53	N	1.568426	-0.106261	-0.353639
N54	N	2.068426	0.393739	0.146361
C55	C	1.503806	-0.155940	-0.421448
C56	C	2.003806	0.344060	0.078552
C57	C	1.527326	-0.137884	-0.578604
C58	C	2.027326	0.362116	-0.078604
N59	N	1.462696	-0.187570	0.353591
N60	N	1.962696	0.312430	0.853591
H61	H	1.072908	0.047343	-0.000003
H62	H	1.572908	0.547343	0.499997
Br63	Br	1.219256	-0.650203	0.000169
Br64	Br	1.719256	-0.150203	0.500169
Br65	Br	1.699678	-0.770012	-0.269585
Br66	Br	2.199678	-0.270012	0.230415
Br67	Br	1.331314	-0.523826	0.269592
Br68	Br	1.831314	-0.023826	0.769592
Br69	Br	1.648555	-0.044692	-0.675744
Br70	Br	2.148555	0.455308	-0.175744
Br71	Br	1.619044	-0.831602	0.269861
Br72	Br	2.119044	-0.331602	0.769861
H73	H	0.875898	-0.025007	-0.000004
H74	H	1.375898	0.474993	0.499996
H75	H	1.389948	-0.243465	-0.588123
H76	H	1.889948	0.256535	-0.088123
Br77	Br	1.811974	-0.644133	0.000140
Br78	Br	2.311974	-0.144133	0.500140
H79	H	1.436141	-0.505595	-0.206494
H80	H	1.936141	-0.005595	0.293506
H81	H	1.155209	-0.268794	-0.000020
H82	H	1.655209	0.231206	0.499980
Br83	Br	1.002264	-0.412920	-0.000009
Br84	Br	1.502264	0.087080	0.499991
Br85	Br	1.382558	-0.249100	-0.324302
Br86	Br	1.882558	0.250900	0.175698
Br87	Br	1.689650	-0.013073	-0.450785
Br88	Br	2.189650	0.486927	0.049215
