data_functionalizedCrystal
_audit_creation_method	'MofGen! by Chris Wilmer'
_symmetry_space_group_name_H-M	'P1'
_symmetry_Int_Tables_number	1
_symmetry_cell_setting	triclinic
loop_
_symmetry_equiv_pos_as_xyz
  x,y,z
_cell_length_a	6.817900
_cell_length_b	12.908942
_cell_length_c	10.943624
_cell_angle_alpha	94.354559
_cell_angle_beta	108.838799
_cell_angle_gamma	100.860556
loop_
_atom_site_label
_atom_site_type_symbol
_atom_site_fract_x
_atom_site_fract_y
_atom_site_fract_z
V1	V	-4.074594	-0.145825	-0.401833
O2	O	-4.075178	0.007036	-0.394923
O3	O	-4.012338	-0.289174	-0.398374
O4	O	-4.053189	-0.143569	-0.577411
O5	O	-4.034043	-0.139576	-0.214647
V6	V	-4.556519	-0.127542	-0.379530
O7	O	-4.339357	-0.185929	-0.450756
O8	O	-4.741954	-0.087438	-0.330608
O9	O	-4.395569	0.015806	-0.382989
O10	O	-4.673333	-0.280403	-0.386441
O11	O	-4.714467	-0.133791	-0.566717
O12	O	-4.354718	-0.129798	-0.203953
C13	C	-3.853094	-0.324119	-0.391851
C14	C	-3.883659	-0.441309	-0.390194
C15	C	-3.905203	-0.138385	-0.620229
C16	C	-3.968894	-0.137490	-0.763760
C17	C	-4.306336	-0.672261	-0.399937
C18	C	-4.335064	-0.782371	-0.398379
C19	C	-3.969850	-0.771642	-0.385531
C20	C	-3.941122	-0.661532	-0.387088
C21	C	-4.109372	-0.611845	-0.394289
C22	C	-4.080637	-0.501732	-0.395837
C23	C	-3.715430	-0.491006	-0.382998
C24	C	-3.744158	-0.601116	-0.381441
C25	C	-3.815416	-0.131458	-0.840937
C26	C	-3.979664	-0.220983	-0.946486
C27	C	-3.918156	-0.046379	-0.913959
C28	C	-4.132330	-0.227099	-0.867432
C29	C	-4.070763	-0.052415	-0.834882
C30	C	-4.235141	-0.141966	-0.940401
C31	C	-4.218154	0.050746	-0.389508
C32	C	-4.166828	0.167935	-0.391175
C33	C	-4.166044	-0.134985	-0.161128
C34	C	-4.081592	-0.135876	-0.017596
H35	H	-4.217633	-0.461278	-0.401692
F36	F	-4.120125	0.040737	-0.771310
H37	H	-4.222266	-0.303560	-0.846511
F38	F	-4.485393	-0.619377	-0.407594
F39	F	-4.544700	-0.846667	-0.404394
H40	H	-3.637428	-0.127135	-0.797510
F41	F	-3.790817	-0.824542	-0.377882
F42	F	-3.505792	-0.426699	-0.376990
F43	F	-4.467879	-0.147796	-0.996898
H44	H	-3.828225	0.029980	-0.935098
F45	F	-3.930196	-0.314130	-1.010010
H46	H	-3.607183	-0.641587	-0.375583
