data_functionalizedCrystal
_audit_creation_method	'MofGen! by Chris Wilmer'
_symmetry_space_group_name_H-M	'P1'
_symmetry_Int_Tables_number	1
_symmetry_cell_setting	triclinic
loop_
_symmetry_equiv_pos_as_xyz
  x,y,z
_cell_length_a	10.967874
_cell_length_b	10.654551
_cell_length_c	9.482900
_cell_angle_alpha	99.428019
_cell_angle_beta	68.707142
_cell_angle_gamma	84.600153
loop_
_atom_site_label
_atom_site_type_symbol
_atom_site_fract_x
_atom_site_fract_y
_atom_site_fract_z
O1	O	1.746286	0.086106	-0.558372
O2	O	1.368019	0.118248	-0.463609
O3	O	1.565849	-0.080915	-0.513170
O4	O	1.548456	0.285268	-0.508811
O5	O	1.525667	-0.040304	-0.261311
O6	O	1.327836	0.158859	-0.211750
O7	O	1.706104	0.126717	-0.306513
Cu8	Cu	1.513301	0.146496	-0.236134
Cu9	Cu	1.560821	0.098468	-0.533987
O10	O	1.508274	0.325880	-0.256952
C11	C	1.299492	0.139283	-0.325545
C12	C	1.155169	0.141442	-0.289390
C13	C	1.544481	-0.107356	-0.386924
C14	C	1.540661	-0.246646	-0.385976
C15	C	1.111642	0.121367	-0.403742
C16	C	0.962477	0.123598	-0.366377
C17	C	1.560771	-0.334222	-0.522813
C18	C	1.557168	-0.465095	-0.521904
C19	C	1.513348	-0.420804	-0.247310
C20	C	1.516942	-0.289931	-0.248219
C21	C	1.584490	-0.290937	-0.660570
C22	C	1.604603	-0.378515	-0.797418
C23	C	1.601000	-0.509388	-0.796509
C24	C	1.577284	-0.552683	-0.658752
C25	C	1.774631	0.105681	-0.444579
C26	C	1.918955	0.103520	-0.480744
C27	C	1.529642	0.352320	-0.383201
C28	C	1.533464	0.491609	-0.384158
N29	N	1.479887	0.180276	-0.026643
N30	N	1.594245	0.064679	-0.743481
C31	C	1.550957	0.108425	0.027751
C32	C	1.523166	0.136540	0.202131
H33	H	1.184806	0.102535	-0.529304
N34	N	1.495264	-0.195479	-0.100628
H35	H	1.576215	-0.152958	-0.115037
H36	H	1.415301	-0.127505	-0.074806
H37	H	1.632372	0.026093	-0.054773
N38	N	0.865452	0.148130	-0.200140
H39	H	0.798191	0.227956	-0.177319
H40	H	0.818407	0.071543	-0.183132
H41	H	0.992114	0.084688	-0.606316
H42	H	1.675666	-0.017658	0.173997
N43	N	1.588359	-0.149779	-0.661537
H44	H	1.661054	-0.122326	-0.627990
H45	H	1.606387	-0.135736	-0.769588
H46	H	1.441736	0.218868	0.284656
H47	H	1.398463	0.262599	0.055885
N48	N	1.487796	-0.467500	-0.098745
H49	H	1.398410	-0.422287	-0.018722
H50	H	1.488648	-0.563702	-0.119077
H51	H	1.623900	-0.343253	-0.909572
N52	N	1.058338	0.165863	-0.123080
H53	H	0.965538	0.163738	-0.119971
H54	H	1.082561	0.096806	-0.071999
H55	H	1.617364	-0.580690	-0.907934
H56	H	1.574332	-0.659248	-0.658018
