data_functionalizedCrystal
_audit_creation_method	'MofGen! by Chris Wilmer'
_symmetry_space_group_name_H-M	'P1'
_symmetry_Int_Tables_number	1
_symmetry_cell_setting	triclinic
loop_
_symmetry_equiv_pos_as_xyz
  x,y,z
_cell_length_a	12.837943
_cell_length_b	14.853567
_cell_length_c	11.892095
_cell_angle_alpha	93.898435
_cell_angle_beta	85.689438
_cell_angle_gamma	89.231935
loop_
_atom_site_label
_atom_site_type_symbol
_atom_site_fract_x
_atom_site_fract_y
_atom_site_fract_z
O1	O	1.382409	0.229205	-0.093964
O2	O	1.080587	0.217625	-0.093972
O3	O	1.239561	0.092869	-0.093971
O4	O	1.223436	0.353961	-0.093965
O5	O	1.226306	0.103253	0.094036
O6	O	1.067332	0.228009	0.094035
O7	O	1.369154	0.239589	0.094043
Zn8	Zn	1.216139	0.235448	0.123889
Zn9	Zn	1.233603	0.221766	-0.123818
O10	O	1.210181	0.364345	0.094042
C11	C	1.035334	0.218906	0.000031
C12	C	0.920240	0.207240	0.000027
C13	C	1.232203	0.064410	0.000029
C14	C	1.230014	-0.035860	0.000019
C15	C	0.679482	0.347487	0.000047
C16	C	0.571341	0.336530	0.000045
C17	C	0.595813	0.174369	0.000029
C18	C	0.703955	0.185327	0.000031
C19	C	0.745785	0.271888	0.000038
C20	C	0.853929	0.282844	0.000032
C21	C	0.878399	0.120685	0.000024
C22	C	0.770257	0.109727	0.000022
C23	C	1.126324	-0.457187	0.000038
C24	C	1.315188	-0.462449	0.000043
C25	C	1.317247	-0.368241	0.000036
C26	C	1.223843	-0.318502	0.000032
C27	C	1.128380	-0.362970	0.000035
C28	C	1.412707	-0.323765	0.000045
C29	C	1.414770	-0.229551	0.000040
C30	C	1.321366	-0.179810	0.000028
C31	C	1.225899	-0.224285	0.000029
C32	C	1.132495	-0.174546	0.000025
C33	C	1.037028	-0.219019	0.000018
C34	C	1.034976	-0.313230	0.000023
C35	C	1.323418	-0.085599	0.000023
C36	C	1.134551	-0.080329	0.000022
C37	C	1.414408	0.238308	0.000038
C38	C	1.529502	0.249974	0.000034
C39	C	1.217539	0.392804	0.000040
C40	C	1.219728	0.493073	0.000042
N41	N	1.204228	0.244785	0.292943
N42	N	1.245522	0.212422	-0.292873
C43	C	1.328405	0.147396	0.529592
C44	C	1.320087	0.153930	0.647934
C45	C	1.179269	0.264382	0.647971
C46	C	1.187587	0.257848	0.529629
C47	C	1.262159	0.199354	0.470444
C48	C	1.270481	0.192826	0.352100
C49	C	1.129659	0.303272	0.352140
C50	C	1.121341	0.309806	0.470481
H51	H	0.887985	0.353327	0.000040
H52	H	1.374030	0.111620	0.696089
H53	H	1.488751	-0.364268	0.000059
H54	H	1.401145	-0.049393	0.000036
O55	O	1.098838	0.327453	0.711833
H56	H	1.019602	0.307718	0.689142
O57	O	0.949909	0.039136	0.000021
H58	H	1.032135	0.061295	0.000031
O59	O	1.517736	-0.181592	0.000039
H60	H	1.503477	-0.107724	0.000040
O61	O	1.033807	-0.026680	0.000028
H62	H	0.967083	-0.073434	0.000035
O63	O	1.408822	0.084292	0.465765
H64	H	1.368892	0.033728	0.411866
H65	H	1.075720	0.345582	0.303968
O66	O	1.040919	0.372900	0.534317
H67	H	1.046268	0.368721	0.626546
H68	H	0.960979	-0.178508	0.000023
H69	H	0.713541	0.417969	0.000051
O70	O	1.415928	-0.516088	0.000058
H71	H	1.398460	-0.589071	0.000060
H72	H	1.331203	0.145200	0.303912
O73	O	1.023357	-0.505144	0.000044
H74	H	1.037611	-0.579012	0.000056
O75	O	0.550683	0.081015	0.000041
H76	H	0.507397	0.067907	-0.076585
O77	O	0.932016	-0.361200	0.000040
H78	H	0.931963	-0.408245	-0.076575
O79	O	0.499824	0.418067	0.000049
H80	H	0.547084	0.480095	0.000047
H81	H	0.736183	0.039252	0.000029
