data_functionalizedCrystal
_audit_creation_method	'MofGen! by Chris Wilmer'
_symmetry_space_group_name_H-M	'P1'
_symmetry_Int_Tables_number	1
_symmetry_cell_setting	triclinic
loop_
_symmetry_equiv_pos_as_xyz
  x,y,z
_cell_length_a	11.792254
_cell_length_b	11.792241
_cell_length_c	10.868271
_cell_angle_alpha	89.999844
_cell_angle_beta	89.998414
_cell_angle_gamma	84.196007
loop_
_atom_site_label
_atom_site_type_symbol
_atom_site_fract_x
_atom_site_fract_y
_atom_site_fract_z
O1	O	0.155561	1.506916	-0.102203
O2	O	0.488895	1.840249	0.231130
O3	O	0.822228	2.173583	0.564463
O4	O	0.171594	1.176576	-0.102232
O5	O	0.504928	1.509909	0.231101
O6	O	0.838261	1.843242	0.564435
O7	O	-0.001592	1.349755	-0.102208
O8	O	0.331742	1.683088	0.231125
O9	O	0.665075	2.016422	0.564458
O10	O	0.328747	1.333737	-0.102227
O11	O	0.662081	1.667070	0.231106
O12	O	0.995414	2.000404	0.564440
O13	O	-0.001586	1.349739	0.102436
O14	O	0.331747	1.683073	0.435770
O15	O	0.665080	2.016406	0.769103
O16	O	0.171600	1.176560	0.102413
O17	O	0.504933	1.509893	0.435746
O18	O	0.838266	1.843227	0.769079
O19	O	0.155567	1.506900	0.102441
O20	O	0.488900	1.840234	0.435775
O21	O	0.822234	2.173567	0.769108
Zn22	Zn	0.163584	1.341728	0.134919
Zn23	Zn	0.496918	1.675061	0.468252
Zn24	Zn	0.830251	2.008394	0.801585
Zn25	Zn	0.163577	1.341748	-0.134709
Zn26	Zn	0.496910	1.675082	0.198624
Zn27	Zn	0.830244	2.008415	0.531957
O28	O	0.328753	1.333721	0.102418
O29	O	0.662086	1.667055	0.435751
O30	O	0.995420	2.000388	0.769084
C31	C	-0.043880	1.348738	0.000114
C32	C	0.289454	1.682071	0.333447
C33	C	0.622787	2.015405	0.666780
C34	C	-0.169893	1.345718	0.000112
C35	C	0.163441	1.679051	0.333445
C36	C	0.496774	2.012385	0.666779
C37	C	0.170590	1.134277	0.000087
C38	C	0.503923	1.467610	0.333420
C39	C	0.837257	1.800944	0.666753
C40	C	0.167576	1.008263	0.000076
C41	C	0.500909	1.341596	0.333409
C42	C	0.834242	1.674930	0.666743
C43	C	-0.272229	1.343264	0.000108
C44	C	0.061104	1.676597	0.333441
C45	C	0.394437	2.009931	0.666774
C46	C	-0.400616	1.340196	0.000096
C47	C	-0.067283	1.673529	0.333429
C48	C	0.266051	2.006862	0.666763
C49	C	0.162033	0.777551	0.000112
C50	C	0.495366	1.110884	0.333445
C51	C	0.828699	1.444217	0.666778
C52	C	0.165112	0.905936	0.000092
C53	C	0.498446	1.239269	0.333425
C54	C	0.831779	1.572603	0.666759
C55	C	0.371041	1.334738	0.000093
C56	C	0.704374	1.668071	0.333426
C57	C	1.037708	2.001405	0.666760
C58	C	0.497054	1.337758	0.000086
C59	C	0.830387	1.671092	0.333420
C60	C	1.163721	2.004425	0.666753
C61	C	0.156571	1.549199	0.000120
C62	C	0.489905	1.882533	0.333453
C63	C	0.823238	2.215866	0.666787
C64	C	0.159586	1.675213	0.000123
C65	C	0.492919	2.008546	0.333456
C66	C	0.826252	2.341880	0.666789
N67	N	0.163589	1.341722	0.318933
N68	N	0.496922	1.675055	0.652266
N69	N	0.830255	2.008389	0.985599
N70	N	0.163564	1.341763	-0.318724
N71	N	0.496897	1.675097	0.014610
N72	N	0.830230	2.008430	0.347943
C73	C	0.163589	1.341731	0.430270
C74	C	0.496922	1.675064	0.763604
C75	C	0.830256	2.008397	1.096937
C76	C	0.163579	1.341745	0.569948
C77	C	0.496912	1.675079	0.903281
C78	C	0.830245	2.008412	1.236615
