data_functionalizedCrystal
_audit_creation_method	'MofGen! by Chris Wilmer'
_symmetry_space_group_name_H-M	'P1'
_symmetry_Int_Tables_number	1
_symmetry_cell_setting	triclinic
loop_
_symmetry_equiv_pos_as_xyz
  x,y,z
_cell_length_a	16.625547
_cell_length_b	16.625545
_cell_length_c	12.759387
_cell_angle_alpha	89.966730
_cell_angle_beta	89.972868
_cell_angle_gamma	90.025495
loop_
_atom_site_label
_atom_site_type_symbol
_atom_site_fract_x
_atom_site_fract_y
_atom_site_fract_z
Zn1	Zn	1.232682	-0.320960	-0.594173
Zn2	Zn	1.732682	0.179040	-0.094173
Zn3	Zn	1.232572	-0.455816	-0.418486
Zn4	Zn	1.732572	0.044184	0.081514
Zn5	Zn	1.097838	-0.321001	-0.418489
Zn6	Zn	1.597838	0.178999	0.081511
Zn7	Zn	1.097807	-0.455755	-0.594104
Zn8	Zn	1.597807	0.044245	-0.094104
O9	O	1.165225	-0.388383	-0.506313
O10	O	1.665225	0.111617	-0.006313
O11	O	1.345499	-0.338858	-0.570894
O12	O	1.845499	0.161142	-0.070894
O13	O	1.214667	-0.437975	-0.271465
O14	O	1.714667	0.062025	0.228535
O15	O	1.115784	-0.208163	-0.441824
O16	O	1.615784	0.291837	0.058176
O17	O	1.345419	-0.437936	-0.441818
O18	O	1.845419	0.062064	0.058182
O19	O	1.214853	-0.208133	-0.570898
O20	O	1.714853	0.291867	-0.070898
O21	O	1.115678	-0.338927	-0.271468
O22	O	1.615678	0.161073	0.228532
O23	O	0.985001	-0.338867	-0.441758
O24	O	1.485001	0.161133	0.058242
O25	O	1.115731	-0.437831	-0.741135
O26	O	1.615731	0.062169	-0.241135
O27	O	0.984978	-0.437870	-0.570782
O28	O	1.484978	0.062130	-0.070782
O29	O	1.214823	-0.338799	-0.741185
O30	O	1.714823	0.161201	-0.241185
O31	O	1.214636	-0.568640	-0.441752
O32	O	1.714636	-0.068640	0.058248
O33	O	1.115625	-0.568595	-0.570778
O34	O	1.615625	-0.068595	-0.070778
C35	C	0.955734	-0.388367	-0.506263
C36	C	1.455734	0.111633	-0.006263
C37	C	0.866113	-0.388380	-0.506267
C38	C	1.366113	0.111620	-0.006267
C39	C	0.793330	-0.388381	-0.506280
C40	C	1.293330	0.111619	-0.006280
C41	C	0.702022	-0.388386	-0.506306
C42	C	1.202022	0.111614	-0.006306
C43	C	0.629245	-0.388393	-0.506333
C44	C	1.129245	0.111607	-0.006333
C45	C	0.537931	-0.388399	-0.506358
C46	C	1.037931	0.111601	-0.006358
C47	C	1.165137	-0.597874	-0.506280
C48	C	1.665137	-0.097874	-0.006280
C49	C	1.165173	-0.687495	-0.506301
C50	C	1.665173	-0.187495	-0.006301
C51	C	1.165205	-0.760277	-0.506322
C52	C	1.665205	-0.260277	-0.006322
C53	C	1.165251	-0.851586	-0.506345
C54	C	1.665251	-0.351586	-0.006345
C55	C	1.165293	-0.924362	-0.506358
C56	C	1.665293	-0.424362	-0.006358
C57	C	1.165339	-1.015676	-0.506380
C58	C	1.665339	-0.515676	-0.006380
C59	C	1.375533	-0.388399	-0.506363
C60	C	1.875533	0.111601	-0.006363
C61	C	1.465155	-0.388406	-0.506385
C62	C	1.965155	0.111594	-0.006385
C63	C	1.165285	-0.388304	-0.780347
C64	C	1.665285	0.111696	-0.280347
C65	C	1.165311	-0.388270	-0.897123
C66	C	1.665311	0.111730	-0.397123
C67	C	1.165334	-0.178074	-0.506369
C68	C	1.665334	0.321926	-0.006369
C69	C	1.165381	-0.088453	-0.506393
C70	C	1.665381	0.411547	-0.006393
C71	C	1.268503	-0.285154	-0.897195
C72	C	1.768503	0.214846	-0.397195
C73	C	1.320110	-0.233584	-0.952092
C74	C	1.820110	0.266416	-0.452092
C75	C	1.320130	-0.233555	-1.061814
C76	C	1.820130	0.266445	-0.561814
C77	C	1.268535	-0.285099	-1.116641
C78	C	1.768535	0.214901	-0.616641
C79	C	1.216928	-0.336669	-1.061744
C80	C	1.716928	0.163331	-0.561744
C81	C	1.216916	-0.336695	-0.952020
C82	C	1.716916	0.163305	-0.452020
C83	C	1.113734	-0.439780	-1.061672
C84	C	1.613734	0.060220	-0.561672
C85	C	1.113717	-0.439815	-0.951951
C86	C	1.613717	0.060185	-0.451951
C87	C	1.062139	-0.491324	-1.116500
C88	C	1.562139	0.008676	-0.616500
C89	C	1.010535	-0.542900	-1.061603
C90	C	1.510535	-0.042900	-0.561603
C91	C	1.010518	-0.542928	-0.951875
C92	C	1.510518	-0.042928	-0.451875
C93	C	1.062110	-0.491385	-0.897054
C94	C	1.562110	0.008615	-0.397054
C95	C	1.165210	-0.388403	-0.233345
C96	C	1.665210	0.111597	0.266655
C97	C	1.165341	-0.388210	-0.116569
C98	C	1.665341	0.111790	0.383431
H99	H	1.268500	-0.285180	-0.807854
H100	H	1.768500	0.214820	-0.307854
C101	C	1.062158	-0.491297	-1.237190
C102	C	1.562158	0.008703	-0.737190
H103	H	1.024037	-0.529376	-1.261978
H104	H	1.524037	-0.029376	-0.761978
H105	H	1.114185	-0.505245	-1.262024
H106	H	1.614185	-0.005245	-0.762024
H107	H	1.048248	-0.439254	-1.262027
H108	H	1.548248	0.060746	-0.762027
H109	H	1.362116	-0.191616	-0.907440
H110	H	1.862116	0.308384	-0.407440
C111	C	0.953790	-0.599592	-1.121912
C112	C	1.453790	-0.099592	-0.621912
H113	H	0.961194	-0.592189	-1.195120
H114	H	1.461194	-0.092189	-0.695120
H115	H	0.899619	-0.587793	-1.103913
H116	H	1.399619	-0.087793	-0.603913
H117	H	0.965563	-0.653777	-1.103924
H118	H	1.465563	-0.153777	-0.603924
H119	H	1.362148	-0.191557	-1.106511
H120	H	1.862148	0.308443	-0.606511
H121	H	1.062104	-0.491406	-0.807713
H122	H	1.562104	0.008594	-0.307713
H123	H	1.268549	-0.285064	-1.205983
H124	H	1.768549	0.214936	-0.705983
C125	C	0.953763	-0.599670	-0.891496
C126	C	1.453763	-0.099670	-0.391496
H127	H	0.923050	-0.630368	-0.939867
H128	H	1.423050	-0.130368	-0.439867
H129	H	0.918640	-0.568847	-0.848678
H130	H	1.418640	-0.068847	-0.348678
H131	H	0.984596	-0.634820	-0.848708
H132	H	1.484596	-0.134820	-0.348708
