data_functionalizedCrystal
_audit_creation_method	'MofGen! by Chris Wilmer'
_symmetry_space_group_name_H-M	'P1'
_symmetry_Int_Tables_number	1
_symmetry_cell_setting	triclinic
loop_
_symmetry_equiv_pos_as_xyz
  x,y,z
_cell_length_a	15.624803
_cell_length_b	15.538191
_cell_length_c	10.065918
_cell_angle_alpha	102.105338
_cell_angle_beta	117.677785
_cell_angle_gamma	66.736403
loop_
_atom_site_label
_atom_site_type_symbol
_atom_site_fract_x
_atom_site_fract_y
_atom_site_fract_z
O1	O	1.204689	0.199984	0.709845
O2	O	0.928018	0.199765	0.572884
O3	O	1.120210	0.065707	0.668032
O4	O	1.012497	0.334042	0.614697
O5	O	1.104121	0.040174	0.433080
O6	O	0.911930	0.174232	0.337933
O7	O	1.188600	0.174451	0.474894
Zn8	Zn	1.047710	0.170287	0.369109
Zn9	Zn	1.068908	0.203929	0.678668
O10	O	0.996408	0.308509	0.379746
C11	C	0.885429	0.184479	0.438308
C12	C	0.782501	0.176961	0.387356
C13	C	0.487955	0.221792	0.860291
C14	C	0.391247	0.214710	0.812416
C15	C	0.373684	0.186873	0.556269
C16	C	0.470395	0.193948	0.604124
C17	C	0.527522	0.211409	0.756137
C18	C	0.509962	0.183565	0.499970
C19	C	0.606662	0.190645	0.547821
C20	C	0.663794	0.208109	0.699826
C21	C	0.624222	0.218489	0.803988
C22	C	0.452829	0.166111	0.347957
C23	C	0.492397	0.155728	0.243803
C24	C	0.589102	0.162801	0.291654
C25	C	0.646234	0.180264	0.443659
C26	C	0.628674	0.152420	0.187493
C27	C	0.725374	0.159500	0.235344
C28	C	0.742934	0.187345	0.491510
C29	C	1.123436	0.018465	0.556140
C30	C	1.157005	-0.084261	0.572771
C31	C	0.823511	-0.390392	0.407651
C32	C	0.855077	-0.486923	0.423274
C33	C	1.032628	-0.499603	0.511169
C34	C	1.001078	-0.403071	0.495560
C35	C	0.896518	-0.348473	0.443799
C36	C	1.074084	-0.361151	0.531708
C37	C	1.042536	-0.264629	0.516093
C38	C	0.937980	-0.210025	0.464330
C39	C	0.864969	-0.251950	0.428184
C40	C	1.178643	-0.415752	0.583458
C41	C	1.251650	-0.373833	0.619606
C42	C	1.220102	-0.277307	0.604001
C43	C	1.115547	-0.222703	0.552238
C44	C	1.293114	-0.235382	0.640147
C45	C	1.261565	-0.138859	0.624532
C46	C	1.083998	-0.126181	0.536623
C47	C	1.231189	0.189737	0.609473
C48	C	1.334118	0.197256	0.660434
C49	C	0.993183	0.355751	0.491641
C50	C	0.959614	0.458478	0.475019
N51	N	1.033250	0.147328	0.157847
C52	C	1.052758	0.178269	-0.057441
C53	C	1.063875	0.195947	0.105229
N54	N	1.083378	0.226881	0.889935
H55	H	0.670741	0.232705	0.927772
Br56	Br	0.565502	0.245474	1.066601
H57	H	0.359035	0.223169	0.897242
H58	H	0.742530	0.213878	0.738782
Br59	Br	0.975851	0.056126	0.032246
Br60	Br	0.414856	0.132039	0.037505
H61	H	0.582142	0.138212	0.063722
Br62	Br	0.296143	0.163183	0.349972
Br63	Br	1.140802	0.318059	0.015559
Br64	Br	0.723065	-0.177842	0.357956
Br65	Br	1.121302	0.287129	0.230848
H66	H	0.789452	0.201560	0.615294
H67	H	0.374088	0.160352	0.309000
Br68	Br	0.681607	-0.316284	0.337424
H69	H	1.018318	0.123558	-0.132813
H70	H	0.998855	-0.081722	0.494485
Br71	Br	0.895158	-0.079030	0.443116
Br72	Br	0.779076	0.145415	0.093990
Br73	Br	0.755982	-0.543813	0.374195
H74	H	1.336783	-0.418300	0.661744
Br75	Br	1.174525	-0.573709	0.581397
H76	H	1.204328	-0.494345	0.596183
H77	H	1.378245	-0.279851	0.682277
H78	H	1.321014	-0.104728	0.653966
