data_functionalizedCrystal
_audit_creation_method	'MofGen! by Chris Wilmer'
_symmetry_space_group_name_H-M	'P1'
_symmetry_Int_Tables_number	1
_symmetry_cell_setting	triclinic
loop_
_symmetry_equiv_pos_as_xyz
  x,y,z
_cell_length_a	13.339071
_cell_length_b	11.804366
_cell_length_c	13.262508
_cell_angle_alpha	86.388064
_cell_angle_beta	99.430290
_cell_angle_gamma	74.862929
loop_
_atom_site_label
_atom_site_type_symbol
_atom_site_fract_x
_atom_site_fract_y
_atom_site_fract_z
O1	O	1.358548	-0.068198	0.516341
O2	O	1.059334	-0.046864	0.450471
O3	O	1.206783	-0.011062	0.339920
O4	O	1.211099	-0.104000	0.626892
O5	O	1.245655	-0.199725	0.310918
O6	O	1.098206	-0.235527	0.421468
O7	O	1.397420	-0.256861	0.487338
Cu8	Cu	1.251362	-0.263421	0.451755
Cu9	Cu	1.205391	-0.040304	0.486054
O10	O	1.249971	-0.292663	0.597889
C11	C	1.040289	-0.137592	0.424843
C12	C	0.925627	-0.126850	0.391677
N13	N	1.283703	-0.420349	0.427632
C14	C	0.877571	-0.093359	0.288249
C15	C	0.769840	-0.083260	0.257086
C16	C	0.710156	-0.106661	0.329345
C17	C	0.758213	-0.140161	0.432773
C18	C	0.865954	-0.150252	0.463942
C19	C	0.698538	-0.163554	0.505037
C20	C	0.746596	-0.197054	0.608466
C21	C	0.854326	-0.207144	0.639628
C22	C	0.914010	-0.183744	0.567369
C23	C	0.590798	-0.153463	0.473869
C24	C	0.579181	-0.210356	0.649561
C25	C	0.686912	-0.220455	0.680725
C26	C	1.222886	-0.093253	0.287940
C27	C	1.212942	-0.057077	0.176260
C28	C	1.416464	-0.166130	0.512967
C29	C	1.531125	-0.176865	0.546134
N30	N	1.173058	0.116626	0.510171
C31	C	1.361376	0.536056	0.369734
C32	C	1.385846	0.417300	0.351498
C33	C	1.332651	0.342126	0.391165
C34	C	1.254982	0.385719	0.449071
C35	C	1.230504	0.504488	0.467302
C36	C	1.201779	0.310558	0.488733
C37	C	1.124110	0.354151	0.546638
C38	C	1.099637	0.472909	0.564867
C39	C	1.152831	0.548084	0.525200
C40	C	1.226257	0.191789	0.470502
C41	C	1.095386	0.160221	0.568070
C42	C	1.070916	0.278977	0.586306
C43	C	1.269667	-0.366476	-0.201799
C44	C	1.279002	-0.400466	-0.096872
C45	C	1.262488	-0.314622	-0.028584
C46	C	1.236637	-0.194782	-0.065233
C47	C	1.227294	-0.160788	-0.170171
C48	C	1.220114	-0.108933	0.003044
C49	C	1.194264	0.010907	-0.033605
C50	C	1.184922	0.044895	-0.138533
C51	C	1.201436	-0.040950	-0.206822
C52	C	1.229458	-0.142927	0.107982
C53	C	1.187085	0.062761	0.139610
C54	C	1.177750	0.096751	0.034683
C55	C	1.233868	-0.210470	0.649870
C56	C	1.243810	-0.246638	0.761550
H57	H	0.622436	-0.098437	0.303965
C58	C	1.402436	0.623417	0.218787
C59	C	1.419828	0.618729	0.326182
H60	H	1.438518	0.674475	0.191913
H61	H	1.428164	0.546477	0.199620
H62	H	1.328829	0.652497	0.191995
H63	H	1.493435	0.589640	0.352975
H64	H	1.394106	0.695684	0.345358
C65	C	0.690199	-0.175071	0.854980
C66	C	0.739740	-0.257269	0.794414
H67	H	0.722810	-0.197805	0.925167
H68	H	0.696692	-0.099259	0.834104
H69	H	0.617497	-0.172421	0.846755
H70	H	0.812440	-0.259914	0.802633
H71	H	0.733256	-0.333102	0.815297
H72	H	1.001735	-0.191970	0.592737
C73	C	1.145132	0.685831	0.651336
C74	C	1.125949	0.678625	0.545252
H75	H	1.128548	0.766423	0.663714
H76	H	1.102322	0.647323	0.683232
H77	H	1.217543	0.648649	0.679004
H78	H	1.053536	0.715800	0.517586
H79	H	1.168759	0.717148	0.513344
H80	H	0.730718	-0.055983	0.172875
H81	H	1.300060	-0.498040	-0.067039
C82	C	1.047884	-0.083571	0.258033
C83	C	0.943176	-0.067640	0.208831
H84	H	1.088385	-0.067697	0.208996
H85	H	1.049585	-0.031122	0.309336
H86	H	1.076698	-0.162708	0.289120
H87	H	0.914359	0.011500	0.177750
H88	H	0.941470	-0.120090	0.157509
C89	C	1.438964	0.189193	0.311934
C90	C	1.359555	0.211584	0.371131
H91	H	1.455581	0.108596	0.299574
H92	H	1.414878	0.238001	0.248223
H93	H	1.500294	0.205780	0.347870
H94	H	1.298222	0.195005	0.335191
H95	H	1.383638	0.162760	0.434852
H96	H	1.163864	0.142477	-0.168370
C97	C	0.933234	0.611920	0.568533
C98	C	1.014262	0.520834	0.628515
H99	H	0.880527	0.641499	0.607828
H100	H	0.961415	0.673673	0.547523
H101	H	0.902797	0.582353	0.509576
H102	H	1.044704	0.550402	0.687468
H103	H	0.986078	0.459070	0.649540
H104	H	1.007675	0.314485	0.633453
C105	C	0.547565	-0.004881	0.329436
C106	C	0.537984	-0.116649	0.360185
H107	H	0.514966	0.017841	0.259245
H108	H	0.513958	0.050866	0.370526
H109	H	0.620273	-0.007558	0.337667
H110	H	0.465276	-0.113970	0.351960
H111	H	0.571588	-0.172409	0.319082
H112	H	0.893448	-0.234405	0.723849
H113	H	1.270088	-0.342304	0.056851
C114	C	1.390727	-0.535500	-0.248184
C115	C	1.287817	-0.460833	-0.276854
H116	H	1.401927	-0.593762	-0.294517
H117	H	1.440057	-0.490507	-0.250150
H118	H	1.399981	-0.572886	-0.180443
H119	H	1.278565	-0.423441	-0.344593
H120	H	1.238472	-0.505833	-0.274898
H121	H	0.530586	-0.229410	0.708401
H122	H	1.449082	0.381811	0.304351
H123	H	1.193842	-0.013281	-0.292262
C124	C	0.928415	0.120506	0.572168
C125	C	1.036906	0.077599	0.611676
H126	H	0.892318	0.069490	0.599080
H127	H	0.902729	0.197464	0.591316
H128	H	0.916623	0.123645	0.499312
H129	H	1.048700	0.074469	0.684532
H130	H	1.062601	0.000621	0.592535
H131	H	1.289495	0.156306	0.423355
H132	H	1.250497	-0.240501	0.137809
H133	H	1.156701	0.194327	0.004828
H134	H	1.173630	0.132664	0.195210
