data_functionalizedCrystal
_audit_creation_method	'MofGen! by Chris Wilmer'
_symmetry_space_group_name_H-M	'P1'
_symmetry_Int_Tables_number	1
_symmetry_cell_setting	triclinic
loop_
_symmetry_equiv_pos_as_xyz
  x,y,z
_cell_length_a	19.805407
_cell_length_b	25.639240
_cell_length_c	19.805399
_cell_angle_alpha	89.964092
_cell_angle_beta	89.982197
_cell_angle_gamma	90.030074
loop_
_atom_site_label
_atom_site_type_symbol
_atom_site_fract_x
_atom_site_fract_y
_atom_site_fract_z
Zn1	Zn	1.034706	-0.208200	-0.382648
Zn2	Zn	1.034608	-0.295634	-0.269444
Zn3	Zn	0.921520	-0.208211	-0.269477
Zn4	Zn	0.921471	-0.295602	-0.382594
O5	O	0.978076	-0.251912	-0.326041
O6	O	1.129409	-0.219808	-0.367641
O7	O	1.019586	-0.284055	-0.174732
O8	O	0.936596	-0.135044	-0.284526
O9	O	1.129338	-0.284045	-0.284470
O10	O	1.019753	-0.135037	-0.367672
O11	O	0.936501	-0.219825	-0.174756
O12	O	0.826797	-0.219794	-0.284473
O13	O	0.936513	-0.283991	-0.477318
O14	O	0.826761	-0.284001	-0.367580
O15	O	1.019705	-0.219777	-0.477358
O16	O	1.019539	-0.368795	-0.284417
O17	O	0.936418	-0.368772	-0.367548
C18	C	0.802220	-0.251896	-0.326024
C19	C	0.726988	-0.251901	-0.326033
C20	C	0.977981	-0.387755	-0.325988
C21	C	0.978002	-0.445869	-0.325988
C22	C	0.691682	-0.218512	-0.369406
C23	C	0.620994	-0.218515	-0.369409
C24	C	0.585613	-0.251910	-0.326041
C25	C	0.620924	-0.285300	-0.282664
C26	C	0.691611	-0.285295	-0.282658
C27	C	0.335851	-0.285324	-0.282684
C28	C	0.265159	-0.285328	-0.282695
C29	C	0.265233	-0.218544	-0.369435
C30	C	0.335921	-0.218538	-0.369430
C31	C	0.371225	-0.251927	-0.326050
C32	C	0.447874	-0.251923	-0.326046
C33	C	0.508966	-0.251917	-0.326048
C34	C	1.021398	-0.806189	-0.369413
C35	C	1.021418	-0.860793	-0.369427
O36	O	1.058201	-0.888994	-0.406295
N37	N	0.978170	-0.888151	-0.326106
C38	C	0.934895	-0.860901	-0.282773
O39	O	0.898112	-0.889185	-0.245927
C40	C	0.934873	-0.806298	-0.282764
C41	C	0.978128	-0.778943	-0.326083
C42	C	1.064649	-0.778834	-0.412729
C43	C	1.064629	-0.724234	-0.412715
C44	C	1.021359	-0.696988	-0.369384
C45	C	0.978108	-0.724343	-0.326068
C46	C	0.891595	-0.779049	-0.239435
C47	C	0.891575	-0.724442	-0.239429
C48	C	0.934830	-0.697088	-0.282748
C49	C	0.934819	-0.642497	-0.282722
N50	N	0.978066	-0.615139	-0.326043
C51	C	1.021336	-0.642385	-0.369374
C52	C	0.934946	-0.975572	-0.282798
C53	C	0.934972	-1.030174	-0.282804
C54	C	1.021493	-1.030063	-0.369459
C55	C	1.021470	-0.975459	-0.369449
C56	C	0.978193	-0.948214	-0.326119
C57	C	1.021293	-0.527720	-0.369339
C58	C	1.021272	-0.473114	-0.369318
C59	C	0.934748	-0.473231	-0.282666
C60	C	0.934772	-0.527831	-0.282684
C61	C	0.978046	-0.555075	-0.326026
O62	O	0.898053	-0.614261	-0.245875
O63	O	1.058108	-0.614095	-0.406220
C64	C	1.154619	-0.251929	-0.326058
C65	C	1.229851	-0.251936	-0.326065
C66	C	0.978114	-0.251879	-0.502584
C67	C	0.978131	-0.251865	-0.577816
C68	C	0.978191	-0.115539	-0.326109
C69	C	0.978240	-0.057425	-0.326138
C70	C	1.021450	-0.218427	-0.613182
C71	C	1.021457	-0.218412	-0.683870
C72	C	0.978147	-0.251838	-0.719191
C73	C	0.934823	-0.285277	-0.683820
C74	C	0.934813	-0.285289	-0.613133
C75	C	0.934861	-0.285228	-0.968894
C76	C	0.934876	-0.285215	-1.039586
C77	C	1.021505	-0.218351	-1.039631
C78	C	1.021495	-0.218363	-0.968944
C79	C	0.978169	-0.251800	-0.933579
C80	C	0.978161	-0.251816	-0.856930
C81	C	0.978158	-0.251825	-0.795838
C82	C	0.978078	-0.251907	-0.150185
C83	C	0.978193	-0.251774	-0.074953
H84	H	0.720484	-0.191319	-0.404723
H85	H	1.056765	-0.191146	-0.940189
C86	C	0.887211	-0.322010	-0.929998
H87	H	0.893399	-0.317229	-0.882840
H88	H	0.897089	-0.357138	-0.941567
H89	H	0.841740	-0.314349	-0.941582
H90	H	0.592251	-0.191327	-0.404729
C91	C	0.844008	-0.809128	-0.191788
H92	H	0.818233	-0.785073	-0.165991
H93	H	0.869914	-0.830432	-0.162318
H94	H	0.814506	-0.830428	-0.217664
C95	C	1.112254	-0.808797	-0.460394
H96	H	1.138009	-0.784677	-0.486181
H97	H	1.086364	-0.830099	-0.489871
H98	H	1.141775	-0.830090	-0.434527
H99	H	1.099849	-0.701965	-0.447991
C100	C	1.069124	-0.181644	-0.722773
H101	H	1.062928	-0.186422	-0.769930
H102	H	1.114587	-0.189315	-0.711186
H103	H	1.059259	-0.146510	-0.711211
C104	C	0.226396	-0.181812	-0.417147
H105	H	0.179230	-0.186592	-0.410936
H106	H	0.237994	-0.189509	-0.462603
H107	H	0.237999	-0.146670	-0.407325
C108	C	0.374680	-0.322054	-0.234976
H109	H	0.421847	-0.317266	-0.241176
H110	H	0.363079	-0.357193	-0.244797
H111	H	0.363080	-0.314354	-0.189517
H112	H	1.056692	-0.953190	-0.404723
H113	H	1.056725	-1.052256	-0.404743
C114	C	0.374836	-0.181802	-0.417131
H115	H	0.343684	-0.161913	-0.442959
H116	H	0.402414	-0.201828	-0.446570
H117	H	0.402411	-0.158992	-0.391287
H118	H	0.899706	-0.953392	-0.247508
H119	H	1.056781	-0.191123	-1.068433
C120	C	0.843971	-0.694474	-0.191765
H121	H	0.850146	-0.658036	-0.197962
H122	H	0.853903	-0.703446	-0.146299
H123	H	0.798490	-0.703446	-0.201641
H124	H	0.899531	-0.312512	-0.584339
H125	H	0.899605	-0.312435	-1.068342
C126	C	0.226240	-0.322061	-0.234984
H127	H	0.257390	-0.341941	-0.209142
H128	H	0.198663	-0.344871	-0.260818
H129	H	0.198665	-0.302025	-0.205548
H130	H	1.056720	-0.191210	-0.584428
C131	C	0.887396	-1.060259	-0.235149
H132	H	0.861622	-1.036207	-0.209347
H133	H	0.913308	-1.081563	-0.205685
H134	H	0.857891	-1.081559	-0.261023
C135	C	0.582007	-0.322035	-0.234961
H136	H	0.534851	-0.317261	-0.241181
H137	H	0.593576	-0.314337	-0.189502
H138	H	0.593578	-0.357175	-0.244783
C139	C	0.887194	-0.557923	-0.235034
H140	H	0.861419	-0.533874	-0.209228
H141	H	0.913104	-0.579231	-0.205572
H142	H	0.857691	-0.579220	-0.260913
H143	H	0.720356	-0.312483	-0.247339
C144	C	1.068848	-0.443027	-0.416977
H145	H	1.094614	-0.467077	-0.442790
H146	H	1.098350	-0.421723	-0.391113
H147	H	1.042924	-0.421726	-0.446442
H148	H	1.056527	-0.549895	-0.404637
H149	H	0.899520	-0.451039	-0.247385
H150	H	0.899557	-0.312491	-0.712584
