data_functionalizedCrystal
_audit_creation_method	'MofGen! by Chris Wilmer'
_symmetry_space_group_name_H-M	'P1'
_symmetry_Int_Tables_number	1
_symmetry_cell_setting	triclinic
loop_
_symmetry_equiv_pos_as_xyz
  x,y,z
_cell_length_a	12.837943
_cell_length_b	15.944551
_cell_length_c	11.892095
_cell_angle_alpha	93.888509
_cell_angle_beta	85.689438
_cell_angle_gamma	89.163839
loop_
_atom_site_label
_atom_site_type_symbol
_atom_site_fract_x
_atom_site_fract_y
_atom_site_fract_z
O1	O	1.382096	0.213524	-0.093988
O2	O	1.882096	0.713524	0.406012
O3	O	1.080290	0.202737	-0.093995
O4	O	1.580290	0.702737	0.406005
O5	O	1.239434	0.086515	-0.093981
O6	O	1.739434	0.586515	0.406019
O7	O	1.222952	0.329745	-0.094002
O8	O	1.722952	0.829745	0.405998
O9	O	1.226164	0.096189	0.094025
O10	O	1.726164	0.596189	0.594025
O11	O	1.067021	0.212411	0.094012
O12	O	1.567021	0.712411	0.594012
O13	O	1.368826	0.223198	0.094018
O14	O	1.868826	0.723198	0.594018
Zn15	Zn	1.215817	0.219340	0.123865
Zn16	Zn	1.715817	0.719340	0.623865
Zn17	Zn	1.233299	0.206594	-0.123842
Zn18	Zn	1.733299	0.706594	0.376158
O19	O	1.209683	0.339419	0.094005
O20	O	1.709683	0.839419	0.594005
C21	C	1.035034	0.203930	0.000008
C22	C	1.535034	0.703930	0.500008
C23	C	0.919957	0.193062	0.000006
C24	C	1.419957	0.693062	0.500006
C25	C	0.679007	0.323714	0.000011
C26	C	1.179007	0.823714	0.500011
C27	C	0.570881	0.313507	0.000010
C28	C	1.070881	0.813507	0.500010
C29	C	0.595575	0.162440	0.000010
C30	C	1.095575	0.662440	0.500010
C31	C	0.703701	0.172648	0.000012
C32	C	1.203701	0.672648	0.500012
C33	C	0.745413	0.253287	0.000010
C34	C	1.245413	0.753287	0.500010
C35	C	0.853542	0.263494	0.000003
C36	C	1.353542	0.763494	0.500003
C37	C	0.878234	0.112428	0.000012
C38	C	1.378234	0.612428	0.500012
C39	C	0.770107	0.102221	0.000011
C40	C	1.270107	0.602221	0.500011
C41	C	1.232115	0.060004	0.000022
C42	C	1.732115	0.560004	0.500022
C43	C	1.230063	-0.033407	0.000023
C44	C	1.730063	0.466593	0.500023
C45	C	1.126515	-0.256548	0.000005
C46	C	1.626515	0.243452	0.500005
C47	C	1.168058	-0.308949	0.092705
C48	C	1.668058	0.191051	0.592705
C49	C	1.226352	-0.204430	0.000014
C50	C	1.726352	0.295570	0.500014
C51	C	1.181163	-0.318468	-0.092655
C52	C	1.681163	0.181532	0.407345
C53	C	1.222761	-0.369631	0.000001
C54	C	1.722761	0.130369	0.500001
C55	C	1.267917	-0.255596	0.092790
C56	C	1.767917	0.244404	0.592790
C57	C	1.281014	-0.265115	-0.092653
C58	C	1.781014	0.234885	0.407347
C59	C	1.322628	-0.317491	0.000069
C60	C	1.822628	0.182509	0.500069
C61	C	1.228418	-0.109262	0.000023
C62	C	1.728418	0.390738	0.500023
C63	C	1.220702	-0.464796	0.000000
C64	C	1.720702	0.035204	0.500000
C65	C	1.414082	0.222005	0.000013
C66	C	1.914082	0.722005	0.500013
C67	C	1.529160	0.232872	0.000008
C68	C	2.029160	0.732872	0.500008
C69	C	1.217002	0.365931	-0.000001
C70	C	1.717002	0.865931	0.499999
C71	C	1.219054	0.459340	-0.000009
C72	C	1.719054	0.959340	0.499991
N73	N	1.203893	0.228039	0.292918
N74	N	1.703893	0.728039	0.792918
N75	N	1.245231	0.197890	-0.292895
N76	N	1.745231	0.697890	0.207105
C77	C	1.328203	0.137313	0.529576
C78	C	1.828203	0.637313	1.029576
C79	C	1.319876	0.143400	0.647918
C80	C	1.819876	0.643400	1.147918
C81	C	1.178907	0.246295	0.647944
C82	C	1.678907	0.746295	1.147944
C83	C	1.187234	0.240208	0.529603
C84	C	1.687234	0.740208	1.029603
C85	C	1.261886	0.185716	0.470423
C86	C	1.761886	0.685716	0.970423
C87	C	1.270217	0.179634	0.352080
C88	C	1.770217	0.679634	0.852080
C89	C	1.129244	0.282524	0.352108
C90	C	1.629244	0.782524	0.852108
C91	C	1.120917	0.288611	0.470449
C92	C	1.620917	0.788611	0.970449
H93	H	0.887502	0.329155	0.000004
H94	H	1.387502	0.829155	0.500004
N95	N	0.503033	0.385439	0.000022
N96	N	1.003033	0.885439	0.500022
N97	N	0.434352	0.400667	0.079274
N98	N	0.934352	0.900667	0.579274
H99	H	0.386433	0.451471	0.079287
H100	H	0.886433	0.951471	0.579287
N101	N	1.044667	0.344261	0.530921
N102	N	1.544667	0.844261	1.030921
N103	N	1.037237	0.349687	0.636582
N104	N	1.537237	0.849687	1.136582
H105	H	0.983384	0.388991	0.679291
H106	H	1.483384	0.888991	1.179291
N107	N	1.404367	0.081568	0.469137
N108	N	1.904367	0.581568	0.969137
N109	N	1.463512	0.038300	0.521967
N110	N	1.963512	0.538300	1.021967
H111	H	1.517267	-0.001106	0.479284
H112	H	2.017267	0.498894	0.979284
N113	N	1.061516	0.331974	0.291666
N114	N	1.561516	0.831974	0.791666
N115	N	1.068967	0.326541	0.186005
N116	N	1.568967	0.826541	0.686005
H117	H	1.021140	0.361469	0.143316
H118	H	1.521140	0.861469	0.643316
N119	N	1.387620	0.093946	0.708324
N120	N	1.887620	0.593946	1.208324
N121	N	1.454261	0.045296	0.655467
N122	N	1.954261	0.545296	1.155467
H123	H	1.502108	0.010365	0.698128
H124	H	2.002108	0.510365	1.198128
N125	N	1.426669	-0.350773	0.000107
N126	N	1.926669	0.149227	0.500107
N127	N	1.493023	-0.337396	-0.078729
N128	N	1.993023	0.162604	0.421271
H129	H	1.566501	-0.360904	-0.078701
H130	H	2.066501	0.139096	0.421299
H131	H	1.118121	0.290655	0.696143
H132	H	1.618121	0.790655	1.196143
H133	H	0.932315	0.055081	0.000004
H134	H	1.432315	0.555081	0.500004
N135	N	0.721606	0.406086	-0.000006
N136	N	1.221606	0.906086	0.499994
N137	N	0.662303	0.468961	-0.000015
N138	N	1.162303	0.968961	0.499985
H139	H	0.692385	0.527138	-0.000027
H140	H	1.192385	1.027138	0.499973
H141	H	0.561587	0.096792	0.000105
H142	H	1.061587	0.596792	0.500105
H143	H	1.043639	-0.229864	0.000096
H144	H	1.543639	0.270136	0.500096
N145	N	0.727477	0.019860	0.000021
N146	N	1.227477	0.519860	0.500021
N147	N	0.630935	0.010755	0.000024
N148	N	1.130935	0.510755	0.500024
H149	H	0.600827	-0.047413	0.000029
H150	H	1.100827	0.452587	0.500029
H151	H	1.120299	-0.328402	0.171073
H152	H	1.620299	0.171598	0.671073
H153	H	1.328737	-0.245642	-0.171025
H154	H	1.828737	0.254358	0.328975
N155	N	1.313883	-0.221214	0.191218
N156	N	1.813883	0.278786	0.691218
N157	N	1.262342	-0.171172	0.260247
N158	N	1.762342	0.328828	0.760247
H159	H	1.294801	-0.146887	0.329763
H160	H	1.794801	0.353113	0.829763
N161	N	1.135095	-0.352966	-0.190956
N162	N	1.635095	0.147034	0.309044
N163	N	1.043087	-0.333495	-0.207447
N164	N	1.543087	0.166505	0.292553
H165	H	1.010542	-0.357858	-0.276867
H166	H	1.510542	0.142142	0.223133
H167	H	1.331005	0.135266	0.303897
H168	H	1.831005	0.635266	0.803897
