data_functionalizedCrystal
_audit_creation_method	'MofGen! by Chris Wilmer'
_symmetry_space_group_name_H-M	'P1'
_symmetry_Int_Tables_number	1
_symmetry_cell_setting	triclinic
loop_
_symmetry_equiv_pos_as_xyz
  x,y,z
_cell_length_a	15.298709
_cell_length_b	16.120444
_cell_length_c	16.120297
_cell_angle_alpha	95.615117
_cell_angle_beta	101.989009
_cell_angle_gamma	102.068437
loop_
_atom_site_label
_atom_site_type_symbol
_atom_site_fract_x
_atom_site_fract_y
_atom_site_fract_z
Zn1	Zn	1.357795	-0.127708	-0.261065
Zn2	Zn	1.357676	-0.260418	-0.128397
Zn3	Zn	1.212303	-0.145186	-0.145784
Zn4	Zn	1.195843	-0.294758	-0.295341
O5	O	1.280904	-0.207017	-0.207647
O6	O	1.486396	-0.123626	-0.221845
O7	O	1.345231	-0.238076	-0.012591
O8	O	1.238540	-0.024731	-0.154008
O9	O	1.486308	-0.221127	-0.124374
O10	O	1.345433	-0.011890	-0.238704
O11	O	1.238425	-0.153415	-0.025365
O12	O	1.081503	-0.186714	-0.187244
O13	O	1.210488	-0.279655	-0.408907
O14	O	1.069410	-0.296603	-0.297124
O15	O	1.329473	-0.156924	-0.383724
O16	O	1.329271	-0.383109	-0.157611
O17	O	1.210373	-0.408339	-0.280264
C18	C	1.042108	-0.247282	-0.247791
C19	C	0.939947	-0.264529	-0.264986
C20	C	1.268047	-0.426352	-0.220784
C21	C	1.262629	-0.520172	-0.226419
C22	C	0.885684	-0.329922	-0.330190
C23	C	0.789699	-0.346123	-0.346353
C24	C	0.747967	-0.296936	-0.297310
C25	C	0.802230	-0.231546	-0.232100
C26	C	0.898225	-0.215340	-0.215939
C27	C	0.760508	-0.182354	-0.183059
C28	C	0.814771	-0.116964	-0.117849
C29	C	0.910756	-0.100760	-0.101691
C30	C	0.952488	-0.149947	-0.150735
C31	C	0.664514	-0.198561	-0.199219
C32	C	0.677055	-0.083978	-0.084969
C33	C	0.773040	-0.067778	-0.068805
C34	C	1.309225	-0.721222	-0.178562
C35	C	1.252753	-0.691933	-0.236712
C36	C	1.258250	-0.596356	-0.230983
C37	C	1.303730	-0.816807	-0.184289
C38	C	1.520633	-0.166596	-0.167347
C39	C	1.622792	-0.149371	-0.150173
C40	C	1.268158	-0.220170	-0.427797
C41	C	1.262726	-0.225775	-0.521612
C42	C	1.293836	0.013177	-0.194472
C43	C	1.299346	0.107011	-0.188858
C44	C	1.252776	-0.235996	-0.693376
C45	C	1.309228	-0.177756	-0.722724
C46	C	1.303692	-0.183442	-0.818299
C47	C	1.258311	-0.230310	-0.597792
C48	C	1.293658	-0.193846	0.011659
C49	C	1.299281	-0.187973	0.105518
H50	H	0.620342	-0.251801	-0.252315
H51	H	0.669811	-0.310131	-0.310474
C52	C	0.730017	-0.418064	-0.418068
N53	N	0.685063	-0.472259	-0.472081
C54	C	1.181870	-0.309119	-0.756399
N55	N	1.128465	-0.364196	-0.803878
H56	H	1.200279	-0.738639	-0.290799
C57	C	0.631154	-0.029871	-0.031016
N58	N	0.596576	0.010880	0.009618
H59	H	0.919671	-0.369958	-0.370118
C60	C	1.380104	-0.658129	-0.105492
N61	N	1.433486	-0.610598	-0.050453
C62	C	1.380145	-0.104632	-0.659698
N63	N	1.433561	-0.049560	-0.612224
C64	C	0.832741	0.004159	0.002915
N65	N	0.877710	0.058344	0.056932
C66	C	1.058078	-0.132177	-0.132911
N67	N	1.137609	-0.118812	-0.119470
H68	H	0.954935	-0.047511	-0.048598
