data_functionalizedCrystal
_audit_creation_method	'MofGen! by Chris Wilmer'
_symmetry_space_group_name_H-M	'P1'
_symmetry_Int_Tables_number	1
_symmetry_cell_setting	triclinic
loop_
_symmetry_equiv_pos_as_xyz
  x,y,z
_cell_length_a	6.817900
_cell_length_b	11.102183
_cell_length_c	12.200875
_cell_angle_alpha	92.492789
_cell_angle_beta	107.143593
_cell_angle_gamma	108.603876
loop_
_atom_site_label
_atom_site_type_symbol
_atom_site_fract_x
_atom_site_fract_y
_atom_site_fract_z
V1	V	-4.094459	-0.176127	-0.357659
O2	O	-4.053827	0.008167	-0.350853
O3	O	-4.071342	-0.348945	-0.355211
O4	O	-4.063799	-0.173548	-0.513647
O5	O	-4.061422	-0.168444	-0.191319
V6	V	-4.572512	-0.154068	-0.337764
O7	O	-4.367716	-0.224516	-0.401301
O8	O	-4.749452	-0.105680	-0.294122
O9	O	-4.372422	0.018750	-0.340212
O10	O	-4.730540	-0.338362	-0.344570
O11	O	-4.722945	-0.161751	-0.504103
O12	O	-4.379965	-0.156647	-0.181775
C13	C	-3.921919	-0.391070	-0.349568
C14	C	-3.984423	-0.532352	-0.348606
C15	C	-3.874090	-0.495905	-0.138500
C16	C	-3.848285	-0.544055	-0.032999
C17	C	-3.907021	-0.676802	-0.032102
C18	C	-3.991575	-0.761404	-0.136716
C19	C	-4.017381	-0.713254	-0.242217
C20	C	-3.958631	-0.580502	-0.243103
C21	C	-4.127728	-0.749702	-0.452321
C22	C	-4.068978	-0.616954	-0.453221
C23	C	-4.212282	-0.834304	-0.556936
C24	C	-4.238075	-0.786154	-0.662439
C25	C	-4.179330	-0.653398	-0.663332
C26	C	-4.094784	-0.568804	-0.558722
C27	C	-3.912296	-0.167333	-0.551668
C28	C	-3.968679	-0.166368	-0.679189
C29	C	-4.071869	-0.164603	-0.912664
C30	C	-4.014439	-0.165584	-0.782742
C31	C	-4.185187	0.060868	-0.345851
C32	C	-4.101922	0.202148	-0.346821
C33	C	-4.194809	-0.162867	-0.143749
C34	C	-4.117664	-0.163825	-0.016226
H35	H	-4.306931	-0.855046	-0.747608
H36	H	-4.200376	-0.614205	-0.749245
H37	H	-4.046915	-0.460711	-0.559438
H38	H	-3.779441	-0.475158	0.052176
O39	O	-3.817013	-0.366922	-0.139166
C40	C	-3.736799	-0.302574	-0.024213
H41	H	-3.803208	-0.371002	0.033810
H42	H	-3.550321	-0.268582	0.007975
C43	C	-3.729810	-0.101725	-0.091767
C44	C	-3.811389	-0.185766	-0.020505
H45	H	-3.775810	-0.029668	-0.089479
H46	H	-3.783843	-0.145075	-0.169214
H47	H	-3.574415	-0.073412	-0.064935
H48	H	-3.966780	-0.214090	-0.047346
H49	H	-3.757383	-0.142417	0.056938
O50	O	-3.882128	-0.723438	0.070444
C51	C	-4.008823	-0.686096	0.128695
H52	H	-4.040060	-0.596941	0.096372
H53	H	-4.171770	-0.767642	0.110827
C54	C	-3.846541	-0.765087	0.299825
C55	C	-3.884891	-0.655578	0.260132
H56	H	-3.770101	-0.746267	0.380902
H57	H	-3.761189	-0.790250	0.260579
H58	H	-3.982342	-0.833031	0.284924
H59	H	-3.749091	-0.587641	0.275020
H60	H	-3.970217	-0.630402	0.299384
O61	O	-4.269520	-0.963293	-0.556278
C62	C	-4.349614	-1.027632	-0.671229
H63	H	-4.410847	-0.963706	-0.733215
H64	H	-4.212668	-1.050211	-0.693368
C65	C	-4.464176	-1.232281	-0.607024
C66	C	-4.539400	-1.153770	-0.683156
H67	H	-4.581238	-1.310092	-0.614382
H68	H	-4.410208	-1.188936	-0.529578
H69	H	-4.350054	-1.251083	-0.625482
H70	H	-4.653501	-1.134956	-0.664689
H71	H	-4.593392	-1.197115	-0.760599
H72	H	-4.039422	-0.869494	-0.135977
