data_functionalizedCrystal
_audit_creation_method	'MofGen! by Chris Wilmer'
_symmetry_space_group_name_H-M	'P1'
_symmetry_Int_Tables_number	1
_symmetry_cell_setting	triclinic
loop_
_symmetry_equiv_pos_as_xyz
  x,y,z
_cell_length_a	19.077105
_cell_length_b	12.594516
_cell_length_c	19.076919
_cell_angle_alpha	87.724265
_cell_angle_beta	89.923776
_cell_angle_gamma	87.708332
loop_
_atom_site_label
_atom_site_type_symbol
_atom_site_fract_x
_atom_site_fract_y
_atom_site_fract_z
Zn1	Zn	1.058345	-0.514931	0.440441
Zn2	Zn	1.558345	-0.014931	0.940441
Zn3	Zn	1.063009	-0.686070	0.322942
Zn4	Zn	1.563009	-0.186070	0.822942
Zn5	Zn	0.945560	-0.500673	0.318234
Zn6	Zn	1.445560	-0.000673	0.818234
Zn7	Zn	0.940831	-0.685429	0.435695
Zn8	Zn	1.440831	-0.185429	0.935695
O9	O	1.001936	-0.596776	0.379328
O10	O	1.501936	-0.096776	0.879328
O11	O	1.157296	-0.543869	0.428812
O12	O	1.657296	-0.043869	0.928812
O13	O	1.051361	-0.655778	0.223986
O14	O	1.551361	-0.155778	0.723986
O15	O	0.960549	-0.353621	0.334461
O16	O	1.460549	0.146379	0.834461
O17	O	1.160723	-0.669604	0.342486
O18	O	1.660723	-0.169604	0.842486
O19	O	1.043411	-0.364097	0.424246
O20	O	1.543411	0.135903	0.924246
O21	O	0.965072	-0.519568	0.220527
O22	O	1.465072	-0.019568	0.720527
O23	O	0.846600	-0.518945	0.329859
O24	O	1.346600	-0.018945	0.829859
O25	O	0.952488	-0.668510	0.534656
O26	O	1.452488	-0.168510	1.034656
O27	O	0.843125	-0.654684	0.416157
O28	O	1.343125	-0.154684	0.916157
O29	O	1.038825	-0.543247	0.538143
O30	O	1.538825	-0.043247	1.038143
O31	O	1.046775	-0.834928	0.337883
O32	O	1.546775	-0.334928	0.837883
O33	O	0.957011	-0.834457	0.420722
O34	O	1.457011	-0.334457	0.920722
C35	C	0.819366	-0.585199	0.371982
C36	C	1.319366	-0.085199	0.871982
C37	C	0.741261	-0.580272	0.368856
C38	C	1.241261	-0.080272	0.868856
C39	C	0.702780	-0.648729	0.412248
C40	C	1.202780	-0.148729	0.912248
C41	C	0.629392	-0.644086	0.409314
C42	C	1.129392	-0.144086	0.909314
C43	C	0.594487	-0.570992	0.362984
C44	C	1.094487	-0.070992	0.862984
C45	C	0.632974	-0.502528	0.319591
C46	C	1.132974	-0.002528	0.819591
C47	C	0.706360	-0.507166	0.322529
C48	C	1.206360	-0.007166	0.822529
C49	C	0.375197	-0.549527	0.349391
C50	C	0.875197	-0.049527	0.849391
C51	C	0.301805	-0.544896	0.346455
C52	C	0.801805	-0.044896	0.846455
C53	C	0.298228	-0.686453	0.436179
C54	C	0.798228	-0.186453	0.936179
C55	C	0.371616	-0.691089	0.439109
C56	C	0.871616	-0.191089	0.939109
C57	C	0.410096	-0.622622	0.395719
C58	C	0.910096	-0.122622	0.895719
N59	N	0.519473	-0.566247	0.359983
N60	N	1.019473	-0.066247	0.859983
N61	N	0.485109	-0.627362	0.398724
N62	N	0.985109	-0.127362	0.898724
C63	C	1.001904	-0.873314	0.379315
C64	C	1.501904	-0.373314	0.879315
C65	C	1.001954	-0.991624	0.379335
C66	C	1.501954	-0.491624	0.879335
C67	C	1.050829	-1.061101	0.334331
C68	C	1.550829	-0.561101	0.834331
C69	C	1.065420	-1.136633	0.399156
C70	C	1.565420	-0.636633	0.899156
C71	C	0.987449	-1.126899	0.314555
C72	C	1.487449	-0.626899	0.814555
C73	C	1.016576	-1.065601	0.444195
C74	C	1.516576	-0.565601	0.944195
C75	C	0.938577	-1.055856	0.359549
C76	C	1.438577	-0.555856	0.859549
C77	C	0.953142	-1.131357	0.424417
C78	C	1.453142	-0.631357	0.924417
C79	C	1.185219	-0.608399	0.386703
C80	C	1.685219	-0.108399	0.886703
C81	C	1.263323	-0.613352	0.389846
C82	C	1.763323	-0.113352	0.889846
C83	C	0.994608	-0.607398	0.562609
C84	C	1.494608	-0.107398	1.062609
C85	C	0.991485	-0.611924	0.640712
C86	C	1.491485	-0.111924	1.140712
C87	C	1.001987	-0.319160	0.379358
C88	C	1.501987	0.180840	0.879358
C89	C	1.002008	-0.200856	0.379371
C90	C	1.502008	0.299144	0.879371
C91	C	1.009276	-0.586121	0.196762
C92	C	1.509276	-0.086121	0.696762
C93	C	1.012535	-0.581304	0.118665
C94	C	1.512535	-0.081304	0.618665
C95	C	1.034967	-0.548835	0.679222
C96	C	1.534967	-0.048835	1.179222
C97	C	1.032024	-0.553084	0.752608
C98	C	1.532024	-0.053084	1.252608
C99	C	0.985603	-0.620427	0.787483
C100	C	1.485603	-0.120427	1.287483
C101	C	0.942117	-0.683518	0.748968
C102	C	1.442117	-0.183518	1.248968
C103	C	0.945056	-0.679263	0.675583
C104	C	1.445056	-0.179263	1.175583
C105	C	0.971988	-0.640140	1.006765
C106	C	1.471988	-0.140140	1.506765
C107	C	0.969053	-0.644392	1.080155
C108	C	1.469053	-0.144392	1.580155
C109	C	1.058960	-0.513956	1.083790
C110	C	1.558960	-0.013956	1.583790
C111	C	1.061899	-0.509712	1.010404
C112	C	1.561899	-0.009712	1.510404
C113	C	1.018410	-0.572799	0.971895
C114	C	1.518410	-0.072799	1.471895
N115	N	0.982596	-0.624774	0.862495
N116	N	1.482596	-0.124774	1.362495
N117	N	1.021414	-0.568446	0.896884
N118	N	1.521414	-0.068446	1.396884
H119	H	0.273387	-0.485361	0.308732
H120	H	0.773387	0.014639	0.808732
H121	H	1.094366	-0.462593	1.115151
H122	H	1.594366	0.037407	1.615151
H123	H	0.936587	-0.691526	0.975420
H124	H	1.436587	-0.191526	1.475420
H125	H	1.028812	-1.038647	0.499038
H126	H	1.528812	-0.538647	0.999038
O127	O	0.416683	-0.475687	0.302577
O128	O	0.916683	0.024313	0.802577
H129	H	0.448865	-0.425527	0.335417
H130	H	0.948865	0.074473	0.835417
H131	H	1.067433	-0.501713	0.783959
H132	H	1.567433	-0.001713	1.283959
H133	H	0.909642	-0.730626	0.644229
H134	H	1.409642	-0.230626	1.144229
H135	H	1.119040	-1.171951	0.415911
H136	H	1.619040	-0.671951	0.915911
O137	O	0.898418	-1.171981	0.474902
O138	O	1.398418	-0.671981	0.974902
H139	H	0.910649	-1.147416	0.528622
H140	H	1.410649	-0.647416	1.028622
H141	H	0.904317	-0.738346	0.777369
H142	H	1.404317	-0.238346	1.277369
H143	H	0.604548	-0.443009	0.281872
H144	H	1.104548	0.056991	0.781872
H145	H	0.598063	-0.699832	0.444647
H146	H	1.098063	-0.199832	0.944647
H147	H	0.400030	-0.750613	0.476834
H148	H	0.900030	-0.250613	0.976834
O149	O	0.747872	-0.433344	0.275721
O150	O	1.247872	0.066656	0.775721
H151	H	0.711273	-0.381747	0.243004
H152	H	1.211273	0.118253	0.743004
O153	O	1.105577	-1.020218	0.283966
O154	O	1.605577	-0.520218	0.783966
H155	H	1.158161	-1.052720	0.300575
H156	H	1.658161	-0.552720	0.800575
H157	H	0.884974	-1.020516	0.342776
H158	H	1.384974	-0.520516	0.842776
H159	H	1.099702	-0.454877	0.982014
H160	H	1.599702	0.045123	1.482014
H161	H	0.975157	-1.153984	0.259756
H162	H	1.475157	-0.653984	0.759756
O163	O	1.085036	-0.476201	0.641607
O164	O	1.585036	0.023799	1.141607
H165	H	1.114772	-0.433038	0.680717
H166	H	1.614772	0.066962	1.180717
O167	O	0.918978	-0.717022	1.117775
O168	O	1.418978	-0.217022	1.617775
H169	H	0.889225	-0.760168	1.078669
H170	H	1.389225	-0.260168	1.578669
H171	H	0.731194	-0.708254	0.449972
H172	H	1.231194	-0.208254	0.949972
O173	O	0.256726	-0.760287	0.482985
O174	O	0.756726	-0.260287	0.982985
H175	H	0.199831	-0.744778	0.473166
H176	H	0.699831	-0.244778	0.973166
