data_functionalizedCrystal
_audit_creation_method	'MofGen! by Chris Wilmer'
_symmetry_space_group_name_H-M	'P1'
_symmetry_Int_Tables_number	1
_symmetry_cell_setting	triclinic
loop_
_symmetry_equiv_pos_as_xyz
  x,y,z
_cell_length_a	11.792241
_cell_length_b	8.965430
_cell_length_c	11.792241
_cell_angle_alpha	90.000275
_cell_angle_beta	95.806584
_cell_angle_gamma	89.999632
loop_
_atom_site_label
_atom_site_type_symbol
_atom_site_fract_x
_atom_site_fract_y
_atom_site_fract_z
O1	O	1.506909	0.123895	-0.155559
O2	O	1.176567	0.123930	-0.171592
O3	O	1.349754	0.123901	0.001595
O4	O	1.333722	0.123924	-0.328746
O5	O	1.349740	-0.124178	0.001583
O6	O	1.176553	-0.124149	-0.171604
O7	O	1.506894	-0.124184	-0.155571
Cu8	Cu	1.341722	-0.146818	-0.163588
Cu9	Cu	1.341739	0.146564	-0.163575
O10	O	1.333707	-0.124155	-0.328758
C11	C	1.134269	-0.000105	-0.170591
C12	C	1.008255	-0.000092	-0.167576
C13	C	0.777543	-0.000135	-0.162034
C14	C	0.905928	-0.000112	-0.165113
N15	N	1.341718	-0.353167	-0.163597
C16	C	1.261600	-0.450460	-0.243664
C17	C	1.364301	-0.549883	-0.266319
C18	C	1.239061	-0.549872	-0.140952
C19	C	1.444471	-0.450401	-0.186304
C20	C	1.319163	-0.450381	-0.060892
C21	C	1.421938	-0.549759	-0.083504
C22	C	1.549192	-0.000145	-0.156572
C23	C	1.675206	-0.000149	-0.159587
C24	C	1.348740	-0.000138	0.043880
C25	C	1.345726	-0.000136	0.169894
N26	N	1.341752	0.352913	-0.163557
C27	C	1.334721	-0.000113	-0.371043
C28	C	1.337736	-0.000105	-0.497057
C29	C	1.340183	-0.000110	0.400606
C30	C	1.343262	-0.000124	0.272221
H31	H	1.383402	-0.593587	-0.353157
C32	C	1.512171	-0.764437	0.007840
C33	C	1.513510	-0.608266	0.007934
H34	H	1.568701	-0.800555	0.064292
H35	H	1.527596	-0.800005	-0.064903
H36	H	1.439309	-0.798664	0.024085
H37	H	1.586370	-0.574038	-0.008320
H38	H	1.498093	-0.572684	0.080694
C39	C	1.185716	-0.441437	0.079818
C40	C	1.293335	-0.391315	0.056296
H41	H	1.169761	-0.404959	0.152162
H42	H	1.184851	-0.547368	0.080486
H43	H	1.129546	-0.405950	0.022766
H44	H	1.349506	-0.426810	0.113344
H45	H	1.294209	-0.285361	0.055639
H46	H	1.531321	-0.406891	-0.205544
C47	C	1.038074	-0.558708	-0.199082
C48	C	1.121845	-0.608845	-0.115102
H49	H	0.965709	-0.595105	-0.183124
H50	H	1.054656	-0.594251	-0.271468
H51	H	1.037034	-0.452762	-0.199594
H52	H	1.122891	-0.714792	-0.114596
H53	H	1.105259	-0.573310	-0.042698
H54	H	1.193909	-0.406860	-0.311436
