data_functionalizedCrystal
_audit_creation_method	'MofGen! by Chris Wilmer'
_symmetry_space_group_name_H-M	'P1'
_symmetry_Int_Tables_number	1
_symmetry_cell_setting	triclinic
loop_
_symmetry_equiv_pos_as_xyz
  x,y,z
_cell_length_a	10.654550
_cell_length_b	7.681481
_cell_length_c	10.654550
_cell_angle_alpha	84.202374
_cell_angle_beta	95.515069
_cell_angle_gamma	84.217550
loop_
_atom_site_label
_atom_site_type_symbol
_atom_site_fract_x
_atom_site_fract_y
_atom_site_fract_z
O1	O	1.656080	0.146299	-0.188176
O2	O	1.290599	0.146331	-0.204984
O3	O	1.481744	0.146303	-0.013840
O4	O	1.464936	0.146327	-0.379320
O5	O	1.505270	-0.146558	0.009741
O6	O	1.314126	-0.146530	-0.181404
O7	O	1.679607	-0.146563	-0.164595
Zn8	Zn	1.500601	-0.193044	-0.169256
Zn9	Zn	1.469604	0.192813	-0.200324
O10	O	1.488462	-0.146535	-0.355740
C11	C	1.255564	-0.000096	-0.191960
C12	C	1.116120	-0.000084	-0.188269
N13	N	1.521765	-0.456382	-0.148052
C14	C	1.036634	-0.000081	-0.300811
C15	C	0.905616	-0.000112	-0.297332
C16	C	0.933581	-0.000140	-0.068760
C17	C	1.064598	-0.000122	-0.072240
C18	C	1.714641	-0.000132	-0.177619
C19	C	1.854085	-0.000133	-0.181311
C20	C	1.492273	-0.000127	0.044748
C21	C	1.488581	-0.000124	0.184191
N22	N	1.448451	0.456150	-0.221518
C23	C	1.477933	-0.000101	-0.414328
C24	C	1.481624	-0.000093	-0.553772
C25	C	1.601123	-0.000133	0.263678
C26	C	1.597645	-0.000111	0.394697
C27	C	1.369073	-0.000078	0.366731
C28	C	1.372551	-0.000087	0.235713
H29	H	1.078580	-0.000063	-0.395289
Br30	Br	1.219802	-0.000051	0.127827
Br31	Br	1.758590	-0.000183	0.193758
H32	H	0.840903	-0.000114	-0.388975
H33	H	0.891616	-0.000182	0.025708
H34	H	1.596618	-0.531599	-0.073069
Br35	Br	1.750387	-0.000113	0.502567
H36	H	1.274605	-0.000052	0.408697
H37	H	1.129320	-0.000129	0.019412
H38	H	1.373611	-0.468642	-0.296505
