data_functionalizedCrystal
_audit_creation_method	'MofGen! by Chris Wilmer'
_symmetry_space_group_name_H-M	'P1'
_symmetry_Int_Tables_number	1
_symmetry_cell_setting	triclinic
loop_
_symmetry_equiv_pos_as_xyz
  x,y,z
_cell_length_a	19.077105
_cell_length_b	16.625546
_cell_length_c	19.077174
_cell_angle_alpha	92.270997
_cell_angle_beta	85.483752
_cell_angle_gamma	87.718759
loop_
_atom_site_label
_atom_site_type_symbol
_atom_site_fract_x
_atom_site_fract_y
_atom_site_fract_z
Zn1	Zn	1.093718	-0.391770	-0.441833
Zn2	Zn	1.427051	-0.058437	-0.108500
Zn3	Zn	1.760385	0.274897	0.224833
Zn4	Zn	1.088907	-0.520961	-0.323942
Zn5	Zn	1.422240	-0.187628	0.009391
Zn6	Zn	1.755574	0.145705	0.342725
Zn7	Zn	0.971103	-0.380499	-0.319231
Zn8	Zn	1.304436	-0.047165	0.014102
Zn9	Zn	1.637769	0.286168	0.347436
Zn10	Zn	0.975801	-0.520909	-0.437060
Zn11	Zn	1.309134	-0.187575	-0.103727
Zn12	Zn	1.642468	0.145758	0.229607
O13	O	1.032382	-0.453535	-0.380517
O14	O	1.365716	-0.120201	-0.047183
O15	O	1.699049	0.213132	0.286150
O16	O	1.191730	-0.413647	-0.430164
O17	O	1.525063	-0.080313	-0.096831
O18	O	1.858397	0.253020	0.236503
O19	O	1.069300	-0.497634	-0.224668
O20	O	1.402634	-0.164300	0.108666
O21	O	1.735967	0.169033	0.441999
O22	O	0.987415	-0.269165	-0.335520
O23	O	1.320748	0.064169	-0.002187
O24	O	1.654082	0.397502	0.331146
O25	O	1.188196	-0.508563	-0.343550
O26	O	1.521529	-0.175230	-0.010216
O27	O	1.854862	0.158104	0.323117
O28	O	1.077500	-0.277446	-0.425596
O29	O	1.410833	0.055888	-0.092262
O30	O	1.744167	0.389221	0.241071
O31	O	0.982750	-0.394436	-0.221206
O32	O	1.316083	-0.061103	0.112127
O33	O	1.649417	0.272230	0.445460
O34	O	0.873076	-0.394385	-0.330892
O35	O	1.206409	-0.061052	0.002441
O36	O	1.539742	0.272281	0.335775
O37	O	0.995423	-0.508473	-0.536343
O38	O	1.328756	-0.175140	-0.203009
O39	O	1.662089	0.158194	0.130324
O40	O	0.876527	-0.497544	-0.417460
O41	O	1.209861	-0.164210	-0.084127
O42	O	1.543194	0.169123	0.249206
O43	O	1.082056	-0.413595	-0.539850
O44	O	1.415389	-0.080262	-0.206516
O45	O	1.748722	0.253071	0.126817
O46	O	1.073856	-0.633783	-0.338921
O47	O	1.407189	-0.300450	-0.005588
O48	O	1.740523	0.032883	0.327745
O49	O	0.990757	-0.633745	-0.422029
O50	O	1.324091	-0.300411	-0.088695
O51	O	1.657424	0.032922	0.244638
C52	C	0.849223	-0.444736	-0.373147
C53	C	1.182556	-0.111403	-0.039814
C54	C	1.515889	0.221930	0.293519
C55	C	0.770867	-0.440993	-0.370012
C56	C	1.104200	-0.107659	-0.036678
C57	C	1.437534	0.225674	0.296655
C58	C	0.735868	-0.493017	-0.413539
C59	C	1.069201	-0.159684	-0.080206
C60	C	1.402535	0.173649	0.253128
C61	C	0.662244	-0.489489	-0.410596
C62	C	0.995578	-0.156156	-0.077263
C63	C	1.328911	0.177178	0.256071
C64	C	0.623621	-0.433940	-0.364122
C65	C	0.956955	-0.100606	-0.030788
C66	C	1.290288	0.232727	0.302545
C67	C	0.658625	-0.381910	-0.320592
C68	C	0.991959	-0.048576	0.012741
C69	C	1.325292	0.284757	0.346074
C70	C	0.732248	-0.385434	-0.323539
C71	C	1.065581	-0.052101	0.009794
C72	C	1.398914	0.281232	0.343127
C73	C	0.403240	-0.417627	-0.350485
C74	C	0.736573	-0.084293	-0.017152
C75	C	1.069906	0.249040	0.316181
C76	C	0.329612	-0.414107	-0.347540
C77	C	0.662946	-0.080774	-0.014207
C78	C	0.996279	0.252559	0.319127
C79	C	0.333237	-0.521686	-0.437545
C80	C	0.666570	-0.188353	-0.104212
C81	C	0.999903	0.144980	0.229122
C82	C	0.406860	-0.525210	-0.440485
C83	C	0.740193	-0.191876	-0.107152
C84	C	1.073527	0.141457	0.226182
C85	C	0.441858	-0.473177	-0.396959
C86	C	0.775191	-0.139843	-0.063625
C87	C	1.108525	0.193490	0.269708
N88	N	0.548366	-0.430334	-0.361111
N89	N	0.881699	-0.097000	-0.027777
N90	N	1.215033	0.236333	0.305556
N91	N	0.517112	-0.476779	-0.399974
N92	N	0.850445	-0.143446	-0.066640
N93	N	1.183778	0.189887	0.266693
C94	C	1.032314	-0.663021	-0.380484
C95	C	1.365648	-0.329688	-0.047151
C96	C	1.698981	0.003646	0.286182
C97	C	1.032351	-0.752644	-0.380497
C98	C	1.365684	-0.419311	-0.047163
C99	C	1.699017	-0.085978	0.286170
C100	C	1.032477	-1.080829	-0.380575
C101	C	1.365810	-0.747496	-0.047242
C102	C	1.699143	-0.414163	0.286092
C103	C	1.032439	-0.989518	-0.380555
C104	C	1.365773	-0.656185	-0.047222
C105	C	1.699106	-0.322851	0.286112
C106	C	1.032413	-0.916740	-0.380536
C107	C	1.365746	-0.583406	-0.047202
C108	C	1.699080	-0.250073	0.286131
C109	C	1.032377	-0.825423	-0.380516
C110	C	1.365710	-0.492089	-0.047183
C111	C	1.699044	-0.158756	0.286150
C112	C	1.216257	-0.462368	-0.387915
C113	C	1.549590	-0.129035	-0.054581
C114	C	1.882924	0.204299	0.278752
C115	C	1.294613	-0.466132	-0.391068
C116	C	1.627947	-0.132799	-0.057734
C117	C	1.961280	0.200535	0.275599
C118	C	1.039800	-0.462286	-0.564390
C119	C	1.373133	-0.128952	-0.231057
C120	C	1.706467	0.204381	0.102277
C121	C	1.042961	-0.466015	-0.642746
C122	C	1.376294	-0.132681	-0.309413
C123	C	1.709627	0.200652	0.023921
C124	C	1.032470	-0.243232	-0.380565
C125	C	1.365804	0.090101	-0.047232
C126	C	1.699137	0.423435	0.286102
C127	C	1.032508	-0.153614	-0.380586
C128	C	1.365841	0.179720	-0.047252
C129	C	1.699174	0.513053	0.286081
C130	C	0.999386	-0.414038	-0.677755
C131	C	1.332719	-0.080705	-0.344422
C132	C	1.666052	0.252628	-0.011089
C133	C	1.002353	-0.417549	-0.751379
C134	C	1.335686	-0.084216	-0.418046
C135	C	1.669020	0.249118	-0.084712
C136	C	1.048900	-0.473032	-0.789992
C137	C	1.382233	-0.139699	-0.456659
C138	C	1.715566	0.193634	-0.123326
C139	C	1.092477	-0.525014	-0.754978
C140	C	1.425810	-0.191681	-0.421644
C141	C	1.759143	0.141653	-0.088311
C142	C	1.089505	-0.521507	-0.681355
C143	C	1.422838	-0.188174	-0.348022
C144	C	1.756172	0.145160	-0.014689
C145	C	1.062615	-0.489286	-1.010373
C146	C	1.395948	-0.155953	-0.677040
C147	C	1.729282	0.177380	-0.343706
C148	C	1.065585	-0.492788	-1.084001
C149	C	1.398918	-0.159455	-0.750667
C150	C	1.732251	0.173879	-0.417334
C151	C	0.975460	-0.385323	-1.080397
C152	C	1.308793	-0.051990	-0.747063
C153	C	1.642127	0.281343	-0.413730
C154	C	0.972496	-0.381818	-1.006773
C155	C	1.305829	-0.048485	-0.673440
C156	C	1.639162	0.284849	-0.340106
C157	C	1.016070	-0.433802	-0.971765
C158	C	1.349403	-0.100469	-0.638432
C159	C	1.682737	0.232864	-0.305098
N160	N	1.051935	-0.476620	-0.865247
N161	N	1.385269	-0.143287	-0.531914
N162	N	1.718602	0.190046	-0.198581
N163	N	1.013030	-0.430218	-0.896511
N164	N	1.346363	-0.096885	-0.563178
N165	N	1.679697	0.236449	-0.229844
C166	C	1.025034	-0.444761	-0.197360
C167	C	1.358367	-0.111428	0.135973
C168	C	1.691701	0.221905	0.469307
C169	C	1.022010	-0.440812	-0.119010
C170	C	1.355343	-0.107478	0.214323
C171	C	1.688676	0.225855	0.547657
H172	H	0.431726	-0.375264	-0.315038
H173	H	0.765059	-0.041930	0.018296
H174	H	1.098392	0.291403	0.351629
H175	H	0.939984	-0.343001	-1.108908
H176	H	1.273317	-0.009668	-0.775575
H177	H	1.606650	0.323665	-0.442242
H178	H	0.438302	-0.570446	-0.478328
H179	H	0.771636	-0.237112	-0.144995
H180	H	1.104969	0.096221	0.188339
H181	H	0.966867	-0.375227	-0.779880
H182	H	1.300200	-0.041894	-0.446547
H183	H	1.633534	0.291439	-0.113213
H184	H	1.124994	-0.563826	-0.652852
H185	H	1.458327	-0.230492	-0.319519
H186	H	1.791661	0.102841	0.013815
Br187	Br	0.285736	-0.592302	-0.496611
Br188	Br	0.619069	-0.258968	-0.163277
Br189	Br	0.952403	0.074365	0.170056
Br190	Br	0.277195	-0.338722	-0.284456
Br191	Br	0.610528	-0.005389	0.048878
Br192	Br	0.943861	0.327944	0.382211
Br193	Br	0.614748	-0.560095	-0.469674
Br194	Br	0.948082	-0.226762	-0.136340
Br195	Br	1.281415	0.106571	0.196993
Br196	Br	0.606209	-0.306513	-0.257526
Br197	Br	0.939542	0.026821	0.075808
Br198	Br	1.272876	0.360154	0.409141
Br199	Br	0.779747	-0.314822	-0.264468
Br200	Br	1.113081	0.018511	0.068865
Br201	Br	1.446414	0.351844	0.402199
Br202	Br	0.788278	-0.568415	-0.476610
Br203	Br	1.121611	-0.235082	-0.143276
Br204	Br	1.454945	0.098251	0.190057
H205	H	0.961486	-0.368853	-0.646322
H206	H	1.294820	-0.035520	-0.312988
H207	H	1.628153	0.297813	0.020345
Br208	Br	0.909326	-0.306512	-0.954374
Br209	Br	1.242660	0.026821	-0.621041
Br210	Br	1.575993	0.360154	-0.287708
H211	H	1.103492	-0.537970	-1.115438
H212	H	1.436825	-0.204637	-0.782104
H213	H	1.770158	0.128696	-0.448771
H214	H	1.098089	-0.531624	-0.981878
H215	H	1.431422	-0.198291	-0.648545
H216	H	1.764755	0.135042	-0.315212
H217	H	1.130372	-0.570194	-0.786422
H218	H	1.463705	-0.236860	-0.453089
H219	H	1.797039	0.096473	-0.119756
