data_functionalizedCrystal
_audit_creation_method	'MofGen! by Chris Wilmer'
_symmetry_space_group_name_H-M	'P1'
_symmetry_Int_Tables_number	1
_symmetry_cell_setting	triclinic
loop_
_symmetry_equiv_pos_as_xyz
  x,y,z
_cell_length_a	13.262533
_cell_length_b	23.532357
_cell_length_c	11.804365
_cell_angle_alpha	101.747256
_cell_angle_beta	93.582318
_cell_angle_gamma	83.666128
loop_
_atom_site_label
_atom_site_type_symbol
_atom_site_fract_x
_atom_site_fract_y
_atom_site_fract_z
O1	O	1.320986	0.114727	0.328788
O2	O	1.035254	0.112367	0.236244
O3	O	1.186757	0.030990	0.285338
O4	O	1.169483	0.196104	0.279694
O5	O	1.146872	0.052390	0.470469
O6	O	0.995370	0.133767	0.421375
O7	O	1.281101	0.136128	0.513919
Cu8	Cu	1.134594	0.136901	0.484551
Cu9	Cu	1.181762	0.111593	0.265612
O10	O	1.129599	0.217505	0.464826
C11	C	1.166381	0.020455	0.377767
C12	C	1.165079	-0.042818	0.377356
C13	C	0.978764	0.121231	0.316973
C14	C	0.869862	0.115753	0.281702
C15	C	0.475911	0.146981	0.585942
C16	C	0.578228	0.152131	0.619085
C17	C	0.651141	0.143037	0.534743
C18	C	0.621728	0.128792	0.417250
C19	C	0.519399	0.123646	0.384103
C20	C	0.694630	0.119702	0.332903
C21	C	0.665216	0.105457	0.215411
C22	C	0.562897	0.100311	0.182269
C23	C	0.489984	0.109405	0.266612
C24	C	0.796958	0.124848	0.366051
C25	C	0.840446	0.101513	0.164212
C26	C	0.738129	0.096362	0.131068
C27	C	1.178674	-0.446855	0.273738
C28	C	1.177439	-0.506309	0.273332
O29	O	1.195257	-0.546975	0.187290
N30	N	1.155086	-0.524381	0.374047
C31	C	1.133955	-0.482996	0.475172
O32	O	1.114828	-0.503827	0.560801
C33	C	1.135183	-0.423543	0.475575
C34	C	1.157547	-0.405475	0.374857
C35	C	1.201036	-0.428786	0.173027
C36	C	1.202271	-0.369336	0.173435
C37	C	1.181145	-0.327956	0.274553
C38	C	1.158783	-0.346025	0.375264
C39	C	1.114045	-0.382159	0.576697
C40	C	1.115274	-0.322703	0.577091
C41	C	1.137639	-0.304635	0.476373
C42	C	1.138893	-0.245196	0.476790
N43	N	1.161247	-0.227123	0.376075
C44	C	1.182373	-0.268503	0.274956
C45	C	1.131378	-0.607851	0.474318
C46	C	1.130157	-0.667303	0.473918
C47	C	1.173639	-0.690612	0.272076
C48	C	1.174867	-0.631159	0.272479
C49	C	1.153731	-0.589779	0.373602
C50	C	1.184967	-0.143654	0.275820
C51	C	1.186206	-0.084198	0.276238
C52	C	1.142718	-0.060895	0.478077
C53	C	1.141485	-0.120345	0.477662
C54	C	1.162608	-0.161725	0.376523
O55	O	1.121082	-0.204497	0.562787
O56	O	1.201484	-0.247662	0.189338
C57	C	1.337592	0.127263	0.433188
C58	C	1.446496	0.132740	0.468451
C59	C	1.149974	0.228039	0.372394
C60	C	1.151278	0.291312	0.372797
N61	N	1.101425	0.154702	0.638544
N62	N	1.214938	0.093789	0.111622
C63	C	1.294587	0.051032	1.075086
C64	C	1.319678	0.037564	0.958555
C65	C	1.265117	0.066847	0.878547
C66	C	1.185461	0.109601	0.915080
C67	C	1.160373	0.123074	1.031625
C68	C	1.130902	0.138889	0.835085
C69	C	1.051246	0.181643	0.871619
C70	C	1.026162	0.195114	0.988152
C71	C	1.080723	0.165831	1.068161
C72	C	1.155990	0.125416	0.718541
C73	C	1.021776	0.197458	0.675080
C74	C	0.996685	0.210927	0.791611
H75	H	0.820896	0.136447	0.461714
Br76	Br	0.698201	0.077018	-0.028381
Br77	Br	1.086585	-0.266547	0.714337
H78	H	1.202163	-0.177339	0.193462
H79	H	0.899813	0.094109	0.095532
Br80	Br	0.790003	0.150027	0.579725
H81	H	0.977349	0.221305	0.609937
Br82	Br	1.083687	-0.406664	0.713395
Br83	Br	1.114051	-0.004726	0.615304
Br84	Br	1.232618	-0.344824	0.036735
H85	H	1.060292	0.176795	1.163050
H86	H	0.416537	0.154388	0.654601
H87	H	1.204421	-0.069492	0.194218
Br88	Br	1.229710	-0.484935	0.035776
Br89	Br	1.205220	-0.606644	0.135785
Br90	Br	1.111155	-0.144869	0.614359
Br91	Br	1.202305	-0.746782	0.134841
H92	H	0.406669	0.105207	0.239633
Br93	Br	0.618140	0.171467	0.778531
Br94	Br	0.522977	0.080991	0.022815
Br95	Br	1.299168	0.048568	0.720394
Br96	Br	1.099827	-0.691817	0.610621
H97	H	1.220846	0.090606	0.688806
H98	H	1.114168	-0.574161	0.556670
H99	H	1.384534	0.002754	0.928813
H100	H	1.339009	0.027197	1.140236
Br101	Br	0.918073	0.253146	1.037743
H102	H	0.931828	0.245739	0.821372
