data_functionalizedCrystal
_audit_creation_method	'MofGen! by Chris Wilmer'
_symmetry_space_group_name_H-M	'P1'
_symmetry_Int_Tables_number	1
_symmetry_cell_setting	triclinic
loop_
_symmetry_equiv_pos_as_xyz
  x,y,z
_cell_length_a	19.077105
_cell_length_b	18.101395
_cell_length_c	18.101390
_cell_angle_alpha	90.031247
_cell_angle_beta	92.314759
_cell_angle_gamma	87.727498
loop_
_atom_site_label
_atom_site_type_symbol
_atom_site_fract_x
_atom_site_fract_y
_atom_site_fract_z
Zn1	Zn	1.075931	-0.340355	0.464170
Zn2	Zn	1.075835	-0.464207	0.340328
Zn3	Zn	0.958239	-0.335405	0.335374
Zn4	Zn	0.958189	-0.459174	0.459161
O5	O	1.017048	-0.399785	0.399758
O6	O	1.174409	-0.360962	0.451912
O7	O	1.060217	-0.447157	0.236037
O8	O	0.973912	-0.232432	0.352482
O9	O	1.174338	-0.451956	0.360926
O10	O	1.060380	-0.236068	0.447108
O11	O	0.973819	-0.352527	0.232397
O12	O	0.859742	-0.347646	0.347624
O13	O	0.973827	-0.443377	0.563459
O14	O	0.859705	-0.438578	0.438570
O15	O	1.060331	-0.356081	0.567140
O16	O	1.060168	-0.567170	0.356069
O17	O	0.973734	-0.563472	0.443375
C18	C	0.834186	-0.392029	0.392017
C19	C	0.755956	-0.388729	0.388722
C20	C	0.719203	-0.434593	0.434451
C21	C	0.645698	-0.431482	0.431359
C22	C	0.608948	-0.382511	0.382534
C23	C	0.645706	-0.336641	0.336804
C24	C	0.719210	-0.339749	0.339900
C25	C	0.389116	-0.368129	0.368209
C26	C	0.315607	-0.365026	0.365114
C27	C	0.315605	-0.459867	0.459671
C28	C	0.389110	-0.462973	0.462759
C29	C	0.425861	-0.417101	0.417032
N30	N	0.533814	-0.379331	0.379371
N31	N	0.500994	-0.420277	0.420199
C32	C	1.016954	-0.592192	0.399733
C33	C	1.016978	-0.674507	0.399749
C34	C	1.017133	-0.973604	0.399795
C35	C	0.962877	-0.939989	0.454873
C36	C	0.962619	-0.854360	0.454683
C37	C	1.017056	-0.825219	0.399773
C38	C	0.996977	-0.855525	0.320876
C39	C	0.996628	-0.941156	0.321204
C40	C	1.091586	-0.945099	0.422933
C41	C	1.091149	-0.859429	0.424626
C42	C	1.017014	-0.741357	0.399756
C43	C	1.017173	-1.057466	0.399808
C44	C	1.200625	-0.407572	0.407531
C45	C	1.278854	-0.410891	0.410843
C46	C	1.017084	-0.399719	0.592922
C47	C	1.017099	-0.399691	0.675237
C48	C	1.017162	-0.206628	0.399801
C49	C	1.017211	-0.124316	0.399819
C50	C	1.017053	-0.399799	0.207348
C51	C	1.017174	-0.399624	0.125039
C52	C	1.017124	-0.399669	0.825946
C53	C	1.071553	-0.344740	0.859616
C54	C	1.071780	-0.344905	0.945244
C55	C	1.017149	-0.399646	0.974330
C56	C	1.036989	-0.478598	0.944059
C57	C	1.037370	-0.478297	0.858430
C58	C	0.942724	-0.376319	0.854362
C59	C	0.943138	-0.374601	0.940030
C60	C	1.017162	-0.399638	1.058190
C61	C	1.017113	-0.399683	0.742086
H62	H	0.285674	-0.497212	0.496900
N63	N	1.142290	-0.972651	0.372650
N64	N	1.123768	-1.013107	0.319986
H65	H	1.159572	-1.032568	0.284470
N66	N	0.426659	-0.321277	0.321504
N67	N	0.467704	-0.275848	0.349367
H68	H	0.494221	-0.242758	0.316380
H69	H	1.126370	-0.360289	0.840416
N70	N	0.608141	-0.478327	0.478060
N71	N	0.567153	-0.450601	0.523571
H72	H	0.540625	-0.483686	0.556554
N73	N	0.608158	-0.286616	0.286940
N74	N	0.542531	-0.283847	0.284181
H75	H	0.516012	-0.248516	0.248963
H76	H	0.907432	-0.831601	0.439109
H77	H	1.059385	-0.286470	0.965755
N78	N	0.278077	-0.314995	0.315234
N79	N	0.310899	-0.274042	0.274411
H80	H	0.284393	-0.238710	0.239184
N81	N	0.756744	-0.292887	0.293191
N82	N	0.723925	-0.249162	0.249604
H83	H	0.750432	-0.216060	0.216617
H84	H	0.419027	-0.502853	0.502516
H85	H	0.900444	-0.411413	0.959595
H86	H	0.975181	-0.833824	0.513086
N87	N	0.978520	-0.966374	0.528378
N88	N	1.029834	-1.010268	0.541031
H89	H	1.040897	-1.028889	0.592950
H90	H	0.908025	-0.959254	0.439480
H91	H	0.902175	-0.416286	0.832358
N92	N	0.924343	-0.301693	0.964734
N93	N	0.913004	-0.250618	0.918829
H94	H	0.899729	-0.199127	0.936279
N95	N	0.928348	-0.963415	0.297094
N96	N	0.893105	-1.000972	0.338817
H97	H	0.844880	-1.016689	0.321791
N98	N	1.044036	-0.969150	0.267740
N99	N	1.077272	-0.925439	0.230300
H100	H	1.110747	-0.945206	0.192532
N101	N	1.044997	-0.832008	0.267824
N102	N	1.094672	-0.792554	0.287619
H103	H	1.128588	-0.775944	0.250153
H104	H	0.749120	-0.474474	0.474207
H105	H	0.943129	-0.831862	0.301362
H106	H	1.106290	-0.839703	0.482705
N107	N	1.114562	-0.973104	0.494077
N108	N	1.121653	-1.041298	0.504475
H109	H	1.137874	-1.061078	0.554723
N110	N	1.144545	-0.834828	0.378288
N111	N	1.155514	-0.767412	0.373477
H112	H	1.193223	-0.750038	0.340744
N113	N	1.056187	-0.271221	0.833152
N114	N	1.004945	-0.258447	0.789165
H115	H	0.994091	-0.206523	0.770470
N116	N	1.140951	-0.364626	0.973872
N117	N	1.189207	-0.378317	0.930598
H118	H	1.238062	-0.392250	0.950815
H119	H	1.091748	-0.497685	0.840757
H120	H	0.999420	-0.520786	0.836072
N121	N	0.988784	-0.531501	0.967529
N122	N	0.939152	-0.511559	1.006922
H123	H	0.905106	-0.548920	1.023499
H124	H	1.090767	-0.498260	0.967803
N125	N	0.920004	-0.305118	0.826332
N126	N	0.955476	-0.250007	0.841014
H127	H	0.939438	-0.199718	0.821218
