data_functionalizedCrystal
_audit_creation_method	'MofGen! by Chris Wilmer'
_symmetry_space_group_name_H-M	'P1'
_symmetry_Int_Tables_number	1
_symmetry_cell_setting	triclinic
loop_
_symmetry_equiv_pos_as_xyz
  x,y,z
_cell_length_a	23.532407
_cell_length_b	15.944551
_cell_length_c	15.021413
_cell_angle_alpha	89.996935
_cell_angle_beta	90.001925
_cell_angle_gamma	83.173708
loop_
_atom_site_label
_atom_site_type_symbol
_atom_site_fract_x
_atom_site_fract_y
_atom_site_fract_z
O1	O	-0.755658	-0.101953	-0.073923
O2	O	-0.589851	-0.116707	-0.073949
O3	O	-0.677282	0.012983	-0.073927
O4	O	-0.668227	-0.231643	-0.073945
O5	O	-0.677268	0.012965	0.074137
O6	O	-0.589838	-0.116725	0.074115
O7	O	-0.755644	-0.101972	0.074141
Zn8	Zn	-0.672738	-0.109351	0.097636
Zn9	Zn	-0.672757	-0.109327	-0.097444
O10	O	-0.668213	-0.231661	0.074119
C11	C	-0.568627	-0.116340	0.000080
C12	C	-0.505406	-0.115211	0.000070
C13	C	-0.676899	0.044265	0.000105
C14	C	-0.675772	0.137501	0.000105
C15	C	-0.776868	-0.102338	0.000111
C16	C	-0.840090	-0.103468	0.000115
C17	C	-0.106572	-0.184874	0.000105
C18	C	-0.047168	-0.183824	0.000111
O19	O	-0.010674	-0.248403	0.000138
N20	N	-0.024243	-0.106724	0.000115
C21	C	-0.060726	-0.030668	0.000122
O22	O	-0.035772	0.035009	0.000127
C23	C	-0.120129	-0.031718	0.000123
C24	C	-0.143051	-0.108823	0.000110
C25	C	-0.129494	-0.261973	0.000093
C26	C	-0.188894	-0.263022	0.000086
C27	C	-0.225373	-0.186971	0.000091
C28	C	-0.202451	-0.109872	0.000103
C29	C	-0.156611	0.044337	0.000137
C30	C	-0.216018	0.043281	0.000138
C31	C	-0.238939	-0.033825	0.000125
C32	C	-0.298329	-0.034871	0.000100
N33	N	-0.321254	-0.111971	0.000096
C34	C	-0.284776	-0.188022	0.000092
C35	C	0.064025	-0.028468	0.000122
C36	C	0.123427	-0.027417	0.000115
C37	C	0.136981	-0.180574	0.000105
C38	C	0.077578	-0.181624	0.000106
C39	C	0.041100	-0.105569	0.000118
C40	C	-0.409521	-0.190219	0.000076
C41	C	-0.468927	-0.191261	0.000065
C42	C	-0.482476	-0.038104	0.000079
C43	C	-0.423075	-0.037062	0.000086
C44	C	-0.386599	-0.113126	0.000087
O45	O	-0.334859	0.029673	0.000076
O46	O	-0.309738	-0.253687	0.000098
C47	C	-0.668596	-0.262943	0.000085
C48	C	-0.669723	-0.356179	0.000079
N49	N	-0.672730	-0.109367	0.230774
C50	C	-0.618885	0.351879	0.000084
C51	C	-0.645295	0.413109	0.073093
C52	C	-0.673733	0.308210	0.000098
C53	C	-0.645321	0.413111	-0.072887
C54	C	-0.671760	0.473106	0.000087
C55	C	-0.700158	0.368212	0.073167
C56	C	-0.700177	0.368208	-0.072878
C57	C	-0.726627	0.429421	0.000148
C58	C	-0.674869	0.213217	0.000105
C59	C	-0.670629	0.568097	0.000087
N60	N	-0.672770	-0.109304	-0.230582
C61	C	-0.632296	-0.169308	0.470447
C62	C	-0.683757	-0.185181	0.529789
C63	C	-0.672745	-0.109346	0.412381
C64	C	-0.621298	-0.093492	0.529781
C65	C	-0.672754	-0.109328	0.587805
C66	C	-0.724232	-0.125257	0.470416
C67	C	-0.661739	-0.033535	0.470403
C68	C	-0.713237	-0.049376	0.529718
C69	C	-0.672738	-0.109359	0.311324
C70	C	-0.672766	-0.109314	0.688860
H71	H	-0.487586	-0.254052	0.000054
C72	C	-0.759499	0.019140	0.564668
C73	C	-0.742435	0.091333	0.623280
C74	C	-0.788699	0.159844	0.658234
C75	C	-0.852027	0.156161	0.634575
C76	C	-0.869094	0.083964	0.575960
C77	C	-0.822830	0.015454	0.541006
H78	H	-0.695553	0.094062	0.640796
H79	H	-0.776065	0.213288	0.701625
H80	H	-0.886274	0.206876	0.660450
H81	H	-0.915976	0.081236	0.558444
H82	H	-0.835465	-0.037990	0.497615
C83	C	0.148636	0.057401	0.000118
C84	C	0.134870	0.120421	0.077007
C85	C	0.160076	0.205242	0.077016
C86	C	0.199047	0.227043	0.000134
C87	C	0.212814	0.164021	-0.076761
C88	C	0.187609	0.079200	-0.076769
H89	H	0.106020	0.104284	0.133925
H90	H	0.149885	0.251895	0.133939
H91	H	0.217706	0.289832	0.000141
H92	H	0.241665	0.180158	-0.133678
H93	H	0.197800	0.032547	-0.133693
H94	H	-0.379828	-0.252157	0.000079
H95	H	-0.723362	0.348281	-0.134597
H96	H	0.034327	0.033470	0.000124
H97	H	-0.137960	0.107125	0.000148
H98	H	-0.512187	0.023814	0.000080
H99	H	-0.622121	0.433000	-0.134615
H100	H	-0.577786	-0.080090	0.555861
C101	C	-0.649132	0.053037	0.435128
C102	C	-0.693440	0.106184	0.376474
C103	C	-0.680826	0.192755	0.341197
C104	C	-0.623902	0.226179	0.364574
C105	C	-0.579590	0.173031	0.423231
C106	C	-0.592204	0.086460	0.458508
H107	H	-0.735582	0.081442	0.359167
H108	H	-0.713629	0.232098	0.297775
H109	H	-0.614564	0.290264	0.338460
H110	H	-0.537449	0.197773	0.440539
H111	H	-0.559401	0.047117	0.501930
C112	C	-0.586133	-0.237859	0.435278
C113	C	-0.522873	-0.235167	0.460031
C114	C	-0.476714	-0.303719	0.424859
C115	C	-0.493816	-0.374964	0.364935
C116	C	-0.557079	-0.377658	0.340178
C117	C	-0.603238	-0.309106	0.375350
H118	H	-0.510211	-0.182426	0.504393
H119	H	-0.429882	-0.301724	0.443186
H120	H	-0.459646	-0.425710	0.338899
H121	H	-0.569741	-0.430400	0.295816
H122	H	-0.650070	-0.311102	0.357023
H123	H	-0.099799	-0.323906	0.000092
C124	C	-0.214099	-0.347843	0.000087
C125	C	-0.200325	-0.410870	0.076977
C126	C	-0.225523	-0.495697	0.076985
C127	C	-0.264494	-0.517498	0.000103
C128	C	-0.278270	-0.454469	-0.076793
C129	C	-0.253072	-0.369642	-0.076801
H130	H	-0.171474	-0.394733	0.133896
H131	H	-0.215325	-0.542354	0.133909
H132	H	-0.283147	-0.580292	0.000108
H133	H	-0.307121	-0.470606	-0.133711
H134	H	-0.263270	-0.322984	-0.133725
H135	H	-0.693074	-0.249285	0.555873
C136	C	-0.256143	0.126945	0.000149
C137	C	-0.253565	0.190252	0.077042
C138	C	-0.293689	0.273915	0.077050
C139	C	-0.336391	0.294271	0.000164
C140	C	-0.338971	0.230963	-0.076736
C141	C	-0.298847	0.147300	-0.076743
H142	H	-0.221952	0.175184	0.133963
H143	H	-0.291778	0.320780	0.133977
H144	H	-0.366093	0.356204	0.000170
H145	H	-0.370584	0.246031	-0.133656
H146	H	-0.300758	0.100435	-0.133670
H147	H	-0.573358	0.318187	0.000149
H148	H	0.166693	-0.242498	0.000105
C149	C	0.052367	-0.266440	0.000099
C150	C	0.066135	-0.329479	0.076980
C151	C	0.040928	-0.414299	0.076976
C152	C	0.001952	-0.436080	0.000091
C153	C	-0.011818	-0.373040	-0.076796
C154	C	0.013389	-0.288220	-0.076792
H155	H	0.094989	-0.313357	0.133900
H156	H	0.051122	-0.460965	0.133893
H157	H	-0.016708	-0.498869	0.000088
H158	H	-0.040672	-0.389162	-0.133716
H159	H	0.003195	-0.241553	-0.133709
C160	C	-0.613949	0.440010	0.156464
C161	C	-0.550888	0.405283	0.172492
C162	C	-0.519539	0.432179	0.255860
C163	C	-0.551251	0.493803	0.323199
C164	C	-0.614316	0.528534	0.307173
C165	C	-0.645665	0.501637	0.223806
H166	H	-0.527410	0.359662	0.122642
H167	H	-0.472854	0.406469	0.267723
H168	H	-0.528044	0.513714	0.384913
H169	H	-0.637794	0.574154	0.357024
H170	H	-0.692350	0.527347	0.211943
C171	C	-0.783027	-0.143470	0.435345
C172	C	-0.793878	-0.146882	0.334386
C173	C	-0.852671	-0.165098	0.299313
C174	C	-0.900613	-0.179901	0.365199
C175	C	-0.889763	-0.176490	0.466165
C176	C	-0.830970	-0.158274	0.501238
H177	H	-0.758388	-0.135923	0.285607
H178	H	-0.860703	-0.167623	0.224571
H179	H	-0.944135	-0.193386	0.339236
H180	H	-0.925253	-0.187449	0.514944
H181	H	-0.822938	-0.155749	0.575980
H182	H	-0.723332	0.348410	0.134958
H183	H	-0.772194	0.462964	0.000197
H184	H	-0.404412	0.025724	0.000083
