data_functionalizedCrystal
_audit_creation_method	'MofGen! by Chris Wilmer'
_symmetry_space_group_name_H-M	'P1'
_symmetry_Int_Tables_number	1
_symmetry_cell_setting	triclinic
loop_
_symmetry_equiv_pos_as_xyz
  x,y,z
_cell_length_a	10.489741
_cell_length_b	10.489741
_cell_length_c	13.930277
_cell_angle_alpha	89.995758
_cell_angle_beta	89.995477
_cell_angle_gamma	84.539174
loop_
_atom_site_label
_atom_site_type_symbol
_atom_site_fract_x
_atom_site_fract_y
_atom_site_fract_z
O1	O	1.694059	0.179967	-0.079771
O2	O	1.322863	0.196860	-0.079786
O3	O	1.516907	0.002816	-0.079772
O4	O	1.500015	0.374011	-0.079784
O5	O	1.516880	0.002811	0.079890
O6	O	1.322836	0.196855	0.079876
O7	O	1.694032	0.179963	0.079891
Zn8	Zn	1.508429	0.188408	0.105233
Zn9	Zn	1.508465	0.188414	-0.105128
O10	O	1.499987	0.374007	0.079877
C11	C	1.275318	0.195582	0.000043
C12	C	1.133688	0.191765	0.000038
C13	C	1.065548	0.068300	0.000051
C14	C	0.973435	0.126626	-0.078671
C15	C	0.973442	0.126651	0.078743
C16	C	1.043440	0.250141	-0.078749
C17	C	1.043457	0.250149	0.078736
C18	C	0.951371	0.308564	-0.000005
C19	C	1.515618	-0.044718	0.000058
C20	C	1.511801	-0.186348	0.000056
C21	C	1.388336	-0.254488	0.000044
C22	C	1.446646	-0.346613	0.078768
C23	C	1.446702	-0.346583	-0.078646
C24	C	1.570162	-0.276607	0.078845
C25	C	1.570201	-0.276568	-0.078640
C26	C	1.628600	-0.368665	0.000103
C27	C	1.741577	0.181241	0.000060
C28	C	1.883206	0.185058	0.000059
C29	C	1.501277	0.421541	0.000045
C30	C	1.505094	0.563170	0.000041
N31	N	1.508414	0.188404	0.248799
N32	N	1.508490	0.188409	-0.248694
C33	C	1.422539	0.274303	0.701063
C34	C	1.594427	0.102516	0.701044
C35	C	1.594412	0.102512	0.600548
C36	C	1.508460	0.188406	0.550305
C37	C	1.422524	0.274304	0.600558
C38	C	1.680355	0.016624	0.550288
C39	C	1.680344	0.016617	0.449786
C40	C	1.594386	0.102506	0.399541
C41	C	1.508445	0.188407	0.449800
C42	C	1.422493	0.274301	0.399557
C43	C	1.336545	0.360196	0.449814
C44	C	1.336565	0.360193	0.550313
C45	C	1.594366	0.102510	0.299042
C46	C	1.422478	0.274302	0.299052
H47	H	1.286824	-0.204837	0.000119
H48	H	1.352481	0.344243	0.258150
H49	H	1.750341	-0.053303	0.591199
H50	H	1.622346	-0.245777	0.145475
H51	H	1.266568	0.430138	0.408894
H52	H	1.664412	0.032589	0.741955
H53	H	1.266590	0.430127	0.591238
H54	H	1.394394	-0.377626	0.145319
H55	H	1.394457	-0.377545	-0.145207
H56	H	1.074492	0.302345	0.145290
H57	H	0.942453	0.074386	0.145296
H58	H	1.730204	-0.418089	0.000151
H59	H	1.622408	-0.245521	-0.145195
H60	H	1.352558	0.344235	0.741984
H61	H	0.942432	0.074387	-0.145222
H62	H	1.750326	-0.053324	0.408873
H63	H	1.664349	0.032580	0.258128
H64	H	1.074280	0.302343	-0.145377
H65	H	0.901947	0.410168	-0.000051
H66	H	1.115238	-0.033196	-0.000044
