data_functionalizedCrystal
_audit_creation_method	'MofGen! by Chris Wilmer'
_symmetry_space_group_name_H-M	'P1'
_symmetry_Int_Tables_number	1
_symmetry_cell_setting	triclinic
loop_
_symmetry_equiv_pos_as_xyz
  x,y,z
_cell_length_a	13.032268
_cell_length_b	11.169417
_cell_length_c	11.169416
_cell_angle_alpha	90.011219
_cell_angle_beta	82.846368
_cell_angle_gamma	82.834482
loop_
_atom_site_label
_atom_site_type_symbol
_atom_site_fract_x
_atom_site_fract_y
_atom_site_fract_z
Zn1	Zn	-0.590812	-1.748724	0.563909
Zn2	Zn	-0.090812	-1.248724	1.063909
Zn3	Zn	-0.416084	-1.774118	0.739149
Zn4	Zn	0.083916	-1.274118	1.239149
Zn5	Zn	-0.416094	-1.573513	0.538483
Zn6	Zn	0.083906	-1.073513	1.038483
Zn7	Zn	-0.590784	-1.548022	0.764548
Zn8	Zn	-0.090784	-1.048022	1.264548
O9	O	-0.503444	-1.661094	0.651522
O10	O	-0.003444	-1.161094	1.151522
O11	O	-0.567642	-1.920041	0.587166
O12	O	-0.067642	-1.420041	1.087166
O13	O	-0.269853	-1.768803	0.691259
O14	O	0.230147	-1.268803	1.191259
O15	O	-0.439288	-1.596796	0.373908
O16	O	0.060712	-1.096796	0.873908
O17	O	-0.439269	-1.938698	0.715914
O18	O	0.060731	-1.438698	1.215914
O19	O	-0.567652	-1.725523	0.392589
O20	O	-0.067652	-1.225523	0.892589
O21	O	-0.269860	-1.621419	0.543831
O22	O	0.230140	-1.121419	1.043831
O23	O	-0.439260	-1.402183	0.568459
O24	O	0.060740	-0.902183	1.068459
O25	O	-0.737020	-1.553350	0.759203
O26	O	-0.237020	-1.053350	1.259203
O27	O	-0.567603	-1.383454	0.734548
O28	O	-0.067603	-0.883454	1.234548
O29	O	-0.737041	-1.700805	0.611795
O30	O	-0.237041	-1.200805	1.111795
O31	O	-0.439241	-1.744085	0.910465
O32	O	0.060759	-1.244085	1.410465
O33	O	-0.567593	-1.577973	0.929126
O34	O	-0.067593	-1.077973	1.429126
C35	C	-0.503430	-1.349271	0.651502
C36	C	-0.003430	-0.849271	1.151502
C37	C	-0.503449	-1.215868	0.651526
C38	C	-0.003449	-0.715868	1.151526
C39	C	-0.503436	-1.661048	0.963346
C40	C	-0.003436	-1.161048	1.463346
C41	C	-0.503467	-1.661132	1.096750
C42	C	-0.003467	-1.161132	1.596750
C43	C	-0.776007	-1.621401	0.691169
C44	C	-0.276007	-1.121401	1.191169
C45	C	-0.892158	-1.604486	0.708064
C46	C	-0.392158	-1.104486	1.208064
C47	C	-0.943952	-1.669903	0.642661
C48	C	-0.443952	-1.169903	1.142661
C49	C	-1.063999	-1.652423	0.660122
C50	C	-0.563999	-1.152423	1.160122
C51	C	-0.231940	-1.700701	0.611943
C52	C	0.268060	-1.200701	1.111943
C53	C	-0.115790	-1.717849	0.594710
C54	C	0.384210	-1.217849	1.094710
C55	C	-0.503458	-1.974134	0.651543
C56	C	-0.003458	-1.474134	1.151543
C57	C	-0.503464	-2.107533	0.651552
C58	C	-0.003464	-1.607533	1.151552
C59	C	-0.503474	-1.661170	0.338484
C60	C	-0.003474	-1.161170	0.838484
C61	C	-0.503488	-1.661202	0.205086
C62	C	-0.003488	-1.161202	0.705086
H63	H	-0.899420	-1.738846	0.573737
H64	H	-0.399420	-1.238846	1.073737
C65	C	-1.126539	-1.868074	0.444524
C66	C	-0.626539	-1.368074	0.944524
C67	C	-1.055692	-1.810932	0.501659
C68	C	-0.555692	-1.310932	1.001659
H69	H	-1.089435	-1.925532	0.387075
H70	H	-0.589435	-1.425532	0.887075
H71	H	-1.169103	-1.907813	0.502966
H72	H	-0.669103	-1.407813	1.002966
H73	H	-1.169117	-1.809625	0.404766
H74	H	-0.669117	-1.309625	0.904766
H75	H	-1.013120	-1.869380	0.541425
H76	H	-0.513120	-1.369380	1.041425
H77	H	-1.013111	-1.771192	0.443208
H78	H	-0.513111	-1.271192	0.943208
C79	C	-0.925939	-1.541088	0.916166
C80	C	-0.425939	-1.041088	1.416166
C81	C	-0.952258	-1.511406	0.801110
C82	C	-0.452258	-1.011406	1.301110
H83	H	-0.963036	-1.483616	0.973608
H84	H	-0.463036	-0.983616	1.473608
H85	H	-0.943784	-1.619132	0.936302
H86	H	-0.443784	-1.119132	1.436302
H87	H	-0.853147	-1.540625	0.916621
H88	H	-0.353147	-1.040625	1.416621
H89	H	-1.025049	-1.511877	0.800652
H90	H	-0.525049	-1.011877	1.300652
H91	H	-0.934420	-1.433341	0.780969
H92	H	-0.434420	-0.933341	1.280969
H93	H	-1.108527	-1.583463	0.729038
H94	H	-0.608527	-1.083463	1.229038
