data_functionalizedCrystal
_audit_creation_method	'MofGen! by Chris Wilmer'
_symmetry_space_group_name_H-M	'P1'
_symmetry_Int_Tables_number	1
_symmetry_cell_setting	triclinic
loop_
_symmetry_equiv_pos_as_xyz
  x,y,z
_cell_length_a	13.897449
_cell_length_b	16.120484
_cell_length_c	13.897441
_cell_angle_alpha	87.134365
_cell_angle_beta	90.023394
_cell_angle_gamma	92.926462
loop_
_atom_site_label
_atom_site_type_symbol
_atom_site_fract_x
_atom_site_fract_y
_atom_site_fract_z
Zn1	Zn	1.455182	-0.331862	0.564892
Zn2	Zn	1.446874	-0.471293	0.411762
Zn3	Zn	1.293868	-0.331900	0.403605
Zn4	Zn	1.285654	-0.471237	0.573004
O5	O	1.370394	-0.401573	0.488315
O6	O	1.589061	-0.350365	0.544598
O7	O	1.426538	-0.452842	0.275700
O8	O	1.322182	-0.215230	0.418191
O9	O	1.582957	-0.452805	0.432094
O10	O	1.440698	-0.215201	0.536688
O11	O	1.314126	-0.350431	0.269708
O12	O	1.157798	-0.350376	0.426057
O13	O	1.308181	-0.452709	0.706907
O14	O	1.151762	-0.452747	0.550514
O15	O	1.432732	-0.350311	0.700947
O16	O	1.418573	-0.587951	0.439959
O17	O	1.300125	-0.587910	0.558423
C18	C	1.119781	-0.401560	0.488281
C19	C	1.012566	-0.401575	0.488290
C20	C	0.925496	-0.401578	0.488307
C21	C	0.816263	-0.401584	0.488336
C22	C	1.357583	-0.618181	0.500977
C23	C	1.352190	-0.710847	0.506427
C24	C	1.342350	-0.880508	0.516395
C25	C	1.398612	-0.921798	0.460252
C26	C	1.393137	-1.016203	0.465798
C27	C	1.347823	-0.786094	0.510850
C28	C	1.621987	-0.401587	0.488351
C29	C	1.729200	-0.401592	0.488366
C30	C	1.370467	-0.401499	0.739904
C31	C	1.370498	-0.401468	0.847116
C32	C	1.383283	-0.184120	0.475625
C33	C	1.388775	-0.091454	0.470217
C34	C	1.370381	-0.401586	0.237702
C35	C	1.370551	-0.401383	0.130477
C36	C	1.370528	-0.401412	1.043408
C37	C	1.370508	-0.401445	0.934178
H38	H	1.450891	-0.886246	0.408020
H39	H	1.290074	-0.916057	0.568622
