data_functionalizedCrystal
_audit_creation_method	'MofGen! by Chris Wilmer'
_symmetry_space_group_name_H-M	'P1'
_symmetry_Int_Tables_number	1
_symmetry_cell_setting	triclinic
loop_
_symmetry_equiv_pos_as_xyz
  x,y,z
_cell_length_a	10.654550
_cell_length_b	9.130313
_cell_length_c	10.654551
_cell_angle_alpha	90.001552
_cell_angle_beta	84.485132
_cell_angle_gamma	89.996220
loop_
_atom_site_label
_atom_site_type_symbol
_atom_site_fract_x
_atom_site_fract_y
_atom_site_fract_z
O1	O	1.667835	-0.121910	0.176393
O2	O	1.302356	-0.121885	0.193199
O3	O	1.493498	-0.121899	0.002057
O4	O	1.476693	-0.121896	0.367535
O5	O	1.493496	0.121700	0.002062
O6	O	1.302354	0.121713	0.193204
O7	O	1.667832	0.121689	0.176398
Cu8	Cu	1.485093	0.143944	0.184802
Cu9	Cu	1.485096	-0.144140	0.184796
O10	O	1.476691	0.121703	0.367540
C11	C	1.255557	-0.000083	0.191968
C12	C	1.116114	-0.000074	0.188276
N13	N	1.485100	0.346566	0.184805
N14	N	1.485098	-0.346763	0.184782
C15	C	1.036629	-0.000095	0.300817
C16	C	0.905608	-0.000120	0.297341
C17	C	0.933570	-0.000110	0.068771
C18	C	1.064589	-0.000074	0.072249
C19	C	1.088154	-0.000094	0.416844
C20	C	1.008667	-0.000116	0.529395
C21	C	0.877647	-0.000142	0.525918
C22	C	0.826112	-0.000145	0.409891
C23	C	1.714632	-0.000117	0.177629
C24	C	1.854075	-0.000135	0.181321
C25	C	1.492263	-0.000103	-0.044739
C26	C	1.488570	-0.000112	-0.184182
C27	C	1.569760	0.423212	0.100196
C28	C	1.569756	0.576549	0.100181
C29	C	1.400430	0.576581	0.269395
C30	C	1.400428	0.423246	0.269403
C31	C	1.654431	0.346532	0.015599
C32	C	1.739099	0.423178	-0.069016
C33	C	1.739095	0.576515	-0.069031
C34	C	1.654425	0.653206	0.015569
C35	C	1.486839	-0.132895	-0.249696
C36	C	1.483359	-0.132888	-0.380717
C37	C	1.483346	0.132696	-0.380697
C38	C	1.486817	0.132688	-0.249678
C39	C	1.488592	-0.265696	-0.184201
C40	C	1.486863	-0.398490	-0.249716
C41	C	1.483382	-0.398483	-0.380736
C42	C	1.481632	-0.265682	-0.446241
C43	C	1.477926	-0.000097	0.414336
C44	C	1.481619	-0.000097	0.553779
H45	H	1.194836	-0.000080	0.419687
C46	C	1.025159	0.125114	0.725288
C47	C	1.065312	-0.000105	0.656925
H48	H	1.060135	0.125122	0.804018
H49	H	0.935765	0.125085	0.739324
H50	H	1.052366	0.210057	0.678891
H51	H	1.038097	-0.085049	0.703318
H52	H	1.154726	-0.000090	0.642894
C53	C	1.810978	0.623679	-0.285772
C54	C	1.832155	0.660764	-0.162040
H55	H	1.868440	0.675683	-0.343189
H56	H	1.727057	0.648820	-0.300192
H57	H	1.823095	0.521381	-0.297853
H58	H	1.820029	0.763061	-0.149957
H59	H	1.916096	0.635633	-0.147615
H60	H	1.491429	-0.265716	-0.077518
H61	H	1.478779	-0.265687	-0.552925
C62	C	1.380155	-0.624849	-0.196221
C63	C	1.488771	-0.544465	-0.177725
H64	H	1.381330	-0.714967	-0.151774
H65	H	1.377847	-0.643832	-0.283619
H66	H	1.307627	-0.570267	-0.165792
H67	H	1.561300	-0.599042	-0.208163
H68	H	1.491092	-0.525485	-0.090308
C69	C	1.371700	-0.552555	-0.514896
C70	C	1.481472	-0.544444	-0.452751
H71	H	1.370524	-0.642673	-0.559346
H72	H	1.370171	-0.473480	-0.572653
H73	H	1.299957	-0.547036	-0.454827
H74	H	1.553216	-0.549952	-0.512821
H75	H	1.483013	-0.623541	-0.394988
H76	H	0.812931	-0.000145	0.617562
H77	H	1.808028	0.360729	-0.137901
H78	H	1.488200	0.240812	-0.196331
C79	C	0.630842	-0.125410	0.467118
C80	C	0.682092	-0.000174	0.406062
H81	H	0.541933	-0.125435	0.464745
H82	H	0.650147	-0.125390	0.552314
H83	H	0.665677	-0.210341	0.425685
H84	H	0.647264	0.084758	0.447501
H85	H	0.662776	-0.000181	0.320850
C86	C	0.745140	-0.000180	-0.038044
C87	C	0.876925	-0.000135	-0.058759
H88	H	0.710175	-0.000209	-0.116780
H89	H	0.717909	0.084759	0.008332
H90	H	0.717964	-0.085139	0.008346
H91	H	0.904103	0.084830	-0.105142
H92	H	0.904168	-0.085082	-0.105156
H93	H	1.654444	0.221678	0.015606
H94	H	1.129308	-0.000062	-0.019392
H95	H	1.654420	0.778063	0.015541
C96	C	1.183657	0.623836	0.341109
C97	C	1.307370	0.660880	0.362384
H98	H	1.126209	0.675887	0.398515
H99	H	1.171544	0.521560	0.353232
H100	H	1.169314	0.648963	0.257154
H101	H	1.321717	0.635744	0.446337
H102	H	1.319489	0.763179	0.350272
H103	H	1.481921	0.240816	-0.434042
H104	H	1.331490	0.360841	0.338298
