data_functionalizedCrystal
_audit_creation_method	'MofGen! by Chris Wilmer'
_symmetry_space_group_name_H-M	'P1'
_symmetry_Int_Tables_number	1
_symmetry_cell_setting	triclinic
loop_
_symmetry_equiv_pos_as_xyz
  x,y,z
_cell_length_a	14.044220
_cell_length_b	19.188930
_cell_length_c	13.101039
_cell_angle_alpha	93.345801
_cell_angle_beta	86.340132
_cell_angle_gamma	88.166830
loop_
_atom_site_label
_atom_site_type_symbol
_atom_site_fract_x
_atom_site_fract_y
_atom_site_fract_z
O1	O	1.262233	0.164759	-0.085127
O2	O	1.762233	0.664759	0.414873
O3	O	0.986290	0.158685	-0.085152
O4	O	1.486290	0.658685	0.414848
O5	O	1.132223	0.060581	-0.085119
O6	O	1.632223	0.560581	0.414881
O7	O	1.116300	0.262863	-0.085160
O8	O	1.616300	0.762863	0.414840
O9	O	1.121753	0.067633	0.085309
O10	O	1.621753	0.567633	0.585309
O11	O	0.975820	0.165737	0.085275
O12	O	1.475820	0.665737	0.585275
O13	O	1.251762	0.171810	0.085300
O14	O	1.751762	0.671810	0.585300
Zn15	Zn	1.112128	0.169893	0.112347
Zn16	Zn	1.612128	0.669893	0.612347
Zn17	Zn	1.125924	0.160602	-0.112199
Zn18	Zn	1.625924	0.660602	0.387801
O19	O	1.105829	0.269914	0.085267
O20	O	1.605829	0.769914	0.585267
C21	C	0.945752	0.159553	0.000059
C22	C	1.445752	0.659553	0.500059
C23	C	0.840559	0.151623	0.000050
C24	C	1.340559	0.651623	0.500050
C25	C	1.126472	0.038063	0.000098
C26	C	1.626472	0.538063	0.500098
C27	C	1.124923	-0.039541	0.000106
C28	C	1.624923	0.460459	0.500106
C29	C	0.647957	0.137129	0.000073
C30	C	1.147957	0.637129	0.500073
C31	C	0.590091	0.193363	0.000066
C32	C	1.090091	0.693363	0.500066
C33	C	0.482920	0.185298	0.000079
C34	C	0.982920	0.685298	0.500079
C35	C	0.755137	0.145193	0.000060
C36	C	1.255137	0.645193	0.500060
C37	C	1.210553	-0.078939	0.000119
C38	C	1.710553	0.421061	0.500119
C39	C	1.209099	-0.151857	0.000103
C40	C	1.709099	0.348143	0.500103
C41	C	1.122010	-0.185374	0.000094
C42	C	1.622010	0.314626	0.500094
C43	C	1.036370	-0.145968	0.000075
C44	C	1.536370	0.354032	0.500075
C45	C	1.037827	-0.073051	0.000082
C46	C	1.537827	0.426949	0.500082
N47	N	1.051878	-0.295275	0.058088
N48	N	1.551878	0.204725	0.558088
N49	N	1.050500	-0.364543	0.058084
N50	N	1.550500	0.135457	0.558084
C51	C	1.117617	-0.405067	0.000073
C52	C	1.617617	0.094933	0.500073
N53	N	1.186177	-0.373707	-0.057921
N54	N	1.686177	0.126293	0.442079
N55	N	1.187558	-0.304433	-0.057913
N56	N	1.687558	0.195567	0.442087
C57	C	1.120421	-0.264440	0.000086
C58	C	1.620421	0.235560	0.500086
C59	C	1.201676	-0.523532	0.000066
C60	C	1.701676	-0.023532	0.500066
C61	C	1.200219	-0.596452	0.000043
C62	C	1.700219	-0.096452	0.500043
C63	C	1.027487	-0.590560	0.000026
C64	C	1.527487	-0.090560	0.500026
C65	C	1.028947	-0.517642	0.000039
C66	C	1.528947	-0.017642	0.500039
C67	C	1.116043	-0.484132	0.000064
C68	C	1.616043	0.015868	0.500064
C69	C	1.292301	0.170943	0.000087
C70	C	1.792301	0.670943	0.500087
C71	C	1.397494	0.178872	0.000089
C72	C	1.897494	0.678872	0.500089
C73	C	1.111580	0.292433	0.000048
C74	C	1.611580	0.792433	0.500048
C75	C	1.113129	0.370037	0.000033
C76	C	1.613129	0.870037	0.500033
N77	N	1.102720	0.176234	0.265593
N78	N	1.602720	0.676234	0.765593
N79	N	1.135340	0.154257	-0.265445
N80	N	1.635340	0.654257	0.234555
C81	C	1.089920	0.184867	0.474633
C82	C	1.589920	0.684867	0.974633
C83	C	1.148137	0.145626	0.525522
C84	C	1.648137	0.645626	1.025522
C85	C	1.141014	0.150429	0.641839
C86	C	1.641014	0.650429	1.141839
C87	C	1.097041	0.180064	0.358306
C88	C	1.597041	0.680064	0.858306
H89	H	0.621038	0.247564	0.000050
H90	H	1.121038	0.747564	0.500050
F91	F	1.300241	-0.193796	0.000115
F92	F	1.800241	0.306204	0.500115
H93	H	0.617011	0.082932	0.000090
H94	H	1.117011	0.582932	0.500090
H95	H	0.965462	-0.173262	0.000066
H96	H	1.465462	0.326738	0.500066
F97	F	1.220557	0.097225	0.468290
F98	F	1.720557	0.597225	0.968290
F99	F	1.303250	-0.043281	0.000123
F100	F	1.803250	0.456719	0.500123
H101	H	0.968095	-0.040974	0.000072
H102	H	1.468095	0.459026	0.500072
F103	F	1.294370	-0.487865	0.000097
F104	F	1.794370	0.012135	0.500097
F105	F	1.291363	-0.638382	0.000050
F106	F	1.791363	-0.138382	0.500050
F107	F	1.017789	0.233493	0.531863
F108	F	1.517789	0.733493	1.031863
F109	F	0.934800	-0.626226	0.000012
F110	F	1.434800	-0.126226	0.500012
H111	H	0.959218	-0.485564	0.000034
H112	H	1.459218	0.014436	0.500034
