data_functionalizedCrystal
_audit_creation_method	'MofGen! by Chris Wilmer'
_symmetry_space_group_name_H-M	'P1'
_symmetry_Int_Tables_number	1
_symmetry_cell_setting	triclinic
loop_
_symmetry_equiv_pos_as_xyz
  x,y,z
_cell_length_a	15.297475
_cell_length_b	18.101395
_cell_length_c	15.298159
_cell_angle_alpha	80.338715
_cell_angle_beta	88.366721
_cell_angle_gamma	80.333681
loop_
_atom_site_label
_atom_site_type_symbol
_atom_site_fract_x
_atom_site_fract_y
_atom_site_fract_z
Zn1	Zn	1.253123	-0.576513	0.726549
Zn2	Zn	1.278401	-0.683113	0.580067
Zn3	Zn	1.132049	-0.534871	0.554798
Zn4	Zn	1.106600	-0.675862	0.701191
O5	O	1.192543	-0.617590	0.640652
O6	O	1.379045	-0.611116	0.728306
O7	O	1.280217	-0.649056	0.454146
O8	O	1.148182	-0.436778	0.577619
O9	O	1.397617	-0.689434	0.620686
O10	O	1.237134	-0.467372	0.703803
O11	O	1.172693	-0.540144	0.435581
O12	O	1.006104	-0.533112	0.553030
O13	O	1.104807	-0.677075	0.827124
O14	O	0.987406	-0.636697	0.660584
O15	O	1.212457	-0.604084	0.845754
O16	O	1.255539	-0.785769	0.596097
O17	O	1.129318	-0.780441	0.685087
C18	C	0.964974	-0.579600	0.601314
C19	C	0.867616	-0.563367	0.584506
C20	C	0.554397	-0.733608	0.760783
C21	C	0.645870	-0.748864	0.776573
C22	C	0.701311	-0.702491	0.728558
C23	C	0.665269	-0.640860	0.664750
C24	C	0.573788	-0.625606	0.648954
C25	C	0.720702	-0.594489	0.616728
C26	C	0.684660	-0.532857	0.552921
C27	C	0.593187	-0.517606	0.537128
C28	C	0.537747	-0.563979	0.585143
C29	C	0.812184	-0.609743	0.632524
C30	C	0.831575	-0.501740	0.520695
C31	C	0.740101	-0.486484	0.504906
C32	C	1.192431	-0.809978	0.640606
C33	C	1.192457	-0.892299	0.640629
C34	C	1.192641	-1.191427	0.640709
C35	C	1.113354	-1.156827	0.696894
C36	C	1.113070	-1.071131	0.696626
C37	C	1.192550	-1.043026	0.640670
C38	C	1.183569	-1.059150	0.544046
C39	C	1.183063	-1.144770	0.544377
C40	C	1.281199	-1.178014	0.680362
C41	C	1.280303	-1.092510	0.682292
C42	C	1.192501	-0.959156	0.640643
C43	C	1.192689	-1.275297	0.640730
C44	C	1.421001	-0.655729	0.680143
C45	C	1.518356	-0.671981	0.696972
C46	C	1.152973	-0.644416	0.869109
C47	C	1.136111	-0.655847	0.966463
C48	C	1.192677	-0.424457	0.640721
C49	C	1.192734	-0.342155	0.640751
C50	C	1.312776	-0.536068	1.279691
C51	C	1.328625	-0.525330	1.188222
C52	C	1.280498	-0.557958	1.132778
C53	C	1.216519	-0.601327	1.168812
C54	C	1.200674	-0.612071	1.260290
C55	C	1.168395	-0.633961	1.113377
C56	C	1.104417	-0.677330	1.149410
C57	C	1.088574	-0.688072	1.240880
C58	C	1.136702	-0.655444	1.296324
C59	C	1.184241	-0.623217	1.021899
C60	C	1.072138	-0.699220	1.002498
C61	C	1.056290	-0.709958	1.093966
C62	C	1.231950	-0.590881	1.413082
C63	C	1.248804	-0.579440	1.315725
H64	H	0.775792	-0.714916	0.741418
Cl65	Cl	1.118877	-1.055063	0.806470
Cl66	Cl	0.422744	-0.544799	0.565301
Cl67	Cl	0.975864	-0.764479	1.139277
H68	H	0.710743	-0.436304	0.452952
H69	H	1.341216	-1.074546	0.645627
Cl70	Cl	1.409051	-0.470811	1.142930
Cl71	Cl	0.691174	-0.826341	0.856783
H72	H	1.047106	-1.037405	0.669099
Cl73	Cl	0.484701	-0.791912	0.821118
H74	H	1.239175	-1.167189	0.500227
Cl75	Cl	1.300420	-0.544454	1.017787
H76	H	1.340074	-1.200845	0.639636
Cl77	Cl	1.373279	-0.495063	1.349396
Cl78	Cl	1.011637	-0.740246	0.932803
H79	H	1.123801	-0.664185	1.370806
H80	H	0.876715	-0.463981	0.481596
H81	H	1.240207	-1.040619	0.500343
Cl82	Cl	0.547881	-0.440131	0.456905
H83	H	1.120089	-1.024185	0.512079
H84	H	0.841519	-0.659924	0.684478
Cl85	Cl	1.118860	-1.205011	0.807041
H86	H	1.292508	-1.211146	0.750462
Cl87	Cl	1.291213	-1.078265	0.792203
Cl88	Cl	1.008159	-0.742608	1.286179
Cl89	Cl	1.012101	-1.169778	0.654829
Cl90	Cl	1.264667	-0.568697	0.976611
Cl91	Cl	1.083852	-1.154632	0.495387
