data_functionalizedCrystal
_audit_creation_method	'MofGen! by Chris Wilmer'
_symmetry_space_group_name_H-M	'P1'
_symmetry_Int_Tables_number	1
_symmetry_cell_setting	triclinic
loop_
_symmetry_equiv_pos_as_xyz
  x,y,z
_cell_length_a	19.188930
_cell_length_b	14.519709
_cell_length_c	18.266242
_cell_angle_alpha	89.992715
_cell_angle_beta	89.977082
_cell_angle_gamma	83.412462
loop_
_atom_site_label
_atom_site_type_symbol
_atom_site_fract_x
_atom_site_fract_y
_atom_site_fract_z
O1	O	-0.926559	-0.115137	0.061118
O2	O	-0.723303	-0.130636	0.061068
O3	O	-0.830320	0.011385	0.061088
O4	O	-0.819542	-0.257158	0.061098
O5	O	-0.830302	0.011393	-0.060674
O6	O	-0.723285	-0.130629	-0.060694
O7	O	-0.926541	-0.115130	-0.060644
Zn8	Zn	-0.824910	-0.122878	-0.080001
Zn9	Zn	-0.824934	-0.122888	0.080425
O10	O	-0.819524	-0.257151	-0.060664
C11	C	-0.829809	0.045746	0.000206
C12	C	-0.828304	0.148118	0.000206
C13	C	-0.697281	-0.130131	0.000181
C14	C	-0.619771	-0.128624	0.000161
C15	C	-0.952563	-0.115635	0.000245
C16	C	-1.030073	-0.117142	0.000269
C17	C	-0.575144	-0.211957	0.000176
C18	C	-0.502315	-0.210542	0.000184
C19	C	-0.474117	-0.125788	0.000192
C20	C	-0.518754	-0.042444	0.000173
C21	C	-0.591581	-0.043861	0.000158
N22	N	-0.365912	-0.061007	0.041660
N23	N	-0.296729	-0.059666	0.041676
C24	C	-0.254693	-0.121511	0.000237
N25	N	-0.284453	-0.184762	-0.041210
N26	N	-0.353642	-0.186106	-0.041223
C27	C	-0.395149	-0.124241	0.000208
C28	C	-0.131096	-0.203315	0.000259
C29	C	-0.058266	-0.201896	0.000262
C30	C	-0.074706	-0.033796	0.000259
C31	C	-0.147535	-0.035217	0.000248
C32	C	-0.175725	-0.119980	0.000252
C33	C	-0.820035	-0.291511	0.000219
C34	C	-0.821541	-0.393883	0.000225
N35	N	-0.824899	-0.122871	-0.189488
C36	C	-0.822762	0.522979	0.000223
C37	C	-0.824301	0.418681	0.000218
C38	C	-0.825533	0.335552	0.000214
C39	C	-0.827072	0.231247	0.000210
C40	C	-0.872302	-0.060015	-0.227788
C41	C	-0.872306	-0.060010	-0.304433
C42	C	-0.824914	-0.122878	-0.342775
C43	C	-0.777503	-0.185739	-0.304466
C44	C	-0.777495	-0.185736	-0.227822
N45	N	-0.816129	-0.204517	-0.463106
N46	N	-0.816141	-0.204517	-0.535914
C47	C	-0.824934	-0.122892	-0.573698
N48	N	-0.833729	-0.041263	-0.535923
N49	N	-0.833721	-0.041263	-0.463108
C50	C	-0.824917	-0.122889	-0.425882
C51	C	-0.872344	-0.060025	-0.695105
C52	C	-0.872344	-0.060020	-0.771751
C53	C	-0.777544	-0.185757	-0.771782
C54	C	-0.777541	-0.185755	-0.695137
C55	C	-0.824945	-0.122890	-0.656803
N56	N	-0.824951	-0.122887	0.189912
H57	H	-0.465973	-0.278404	0.000194
O58	O	-0.488347	0.048973	0.000182
H59	H	-0.430207	0.035960	0.000202
O60	O	-0.161504	-0.294735	0.000252
H61	H	-0.219644	-0.281722	0.000250
O62	O	-0.923474	0.007785	-0.813061
H63	H	-0.915510	-0.002768	-0.872797
H64	H	-0.051748	0.035213	0.000311
O65	O	-0.923442	0.007777	-0.345758
H66	H	-0.956407	0.051485	-0.306225
H67	H	-0.021931	-0.269760	0.000270
H68	H	-0.183871	0.032642	0.000240
H69	H	-0.910899	-0.008824	-0.196579
O70	O	-0.639719	0.046025	0.000140
H71	H	-0.673324	0.049397	0.049759
O72	O	-0.726389	-0.253555	-0.345813
H73	H	-0.734364	-0.243006	-0.405544
O74	O	-0.726371	-0.253540	-0.186505
H75	H	-0.693418	-0.297261	-0.226040
H76	H	-0.910941	-0.008834	-0.663892
H77	H	-0.598091	-0.280978	0.000180
O78	O	-0.726427	-0.253570	-0.813124
H79	H	-0.734398	-0.243018	-0.872854
H80	H	-0.738944	-0.236942	-0.663951
