data_functionalizedCrystal
_audit_creation_method	'MofGen! by Chris Wilmer'
_symmetry_space_group_name_H-M	'P1'
_symmetry_Int_Tables_number	1
_symmetry_cell_setting	triclinic
loop_
_symmetry_equiv_pos_as_xyz
  x,y,z
_cell_length_a	19.077105
_cell_length_b	16.625546
_cell_length_c	19.076919
_cell_angle_alpha	87.730083
_cell_angle_beta	89.923776
_cell_angle_gamma	87.718759
loop_
_atom_site_label
_atom_site_type_symbol
_atom_site_fract_x
_atom_site_fract_y
_atom_site_fract_z
Zn1	Zn	1.058283	-0.390077	0.440407
Zn2	Zn	1.391616	-0.056743	0.773740
Zn3	Zn	1.724949	0.276590	1.107073
Zn4	Zn	1.062927	-0.519720	0.322896
Zn5	Zn	1.396260	-0.186387	0.656230
Zn6	Zn	1.729593	0.146947	0.989563
Zn7	Zn	0.945500	-0.379275	0.318200
Zn8	Zn	1.278833	-0.045942	0.651534
Zn9	Zn	1.612167	0.287391	0.984867
Zn10	Zn	0.940748	-0.519234	0.435649
Zn11	Zn	1.274082	-0.185900	0.768982
Zn12	Zn	1.607415	0.147433	1.102316
O13	O	1.001864	-0.452076	0.379288
O14	O	1.335198	-0.118743	0.712621
O15	O	1.668531	0.214590	1.045955
O16	O	1.157231	-0.411998	0.428775
O17	O	1.490564	-0.078665	0.762108
O18	O	1.823897	0.254669	1.095442
O19	O	1.051282	-0.496773	0.223942
O20	O	1.384615	-0.163439	0.557276
O21	O	1.717949	0.169894	0.890609
O22	O	0.960506	-0.267879	0.334437
O23	O	1.293839	0.065454	0.667771
O24	O	1.627173	0.398788	1.001104
O25	O	1.160642	-0.507246	0.342441
O26	O	1.493976	-0.173913	0.675774
O27	O	1.827309	0.159420	1.009107
O28	O	1.043367	-0.275815	0.424222
O29	O	1.376700	0.057519	0.757555
O30	O	1.710034	0.390852	1.090888
O31	O	0.965009	-0.393589	0.220492
O32	O	1.298342	-0.060255	0.553826
O33	O	1.631676	0.273078	0.887159
O34	O	0.846538	-0.393117	0.329824
O35	O	1.179871	-0.059784	0.663157
O36	O	1.513204	0.273549	0.996490
O37	O	0.952407	-0.506418	0.534611
O38	O	1.285741	-0.173084	0.867945
O39	O	1.619074	0.160249	1.201278
O40	O	0.843047	-0.495944	0.416113
O41	O	1.176380	-0.162611	0.749446
O42	O	1.509713	0.170723	1.082779
O43	O	1.038759	-0.411527	0.538107
O44	O	1.372093	-0.078193	0.871440
O45	O	1.705426	0.255140	1.204773
O46	O	1.046674	-0.632485	0.337827
O47	O	1.380008	-0.299151	0.671161
O48	O	1.713341	0.034182	1.004494
O49	O	0.956910	-0.632127	0.420666
O50	O	1.290244	-0.298794	0.753999
O51	O	1.623577	0.034539	1.087333
C52	C	0.819296	-0.443306	0.371943
C53	C	1.152629	-0.109973	0.705276
C54	C	1.485963	0.223360	1.038609
C55	C	0.741192	-0.439575	0.368817
C56	C	1.074525	-0.106241	0.702150
C57	C	1.407858	0.227092	1.035484
C58	C	1.001799	-0.661563	0.379256
C59	C	1.335132	-0.328230	0.712589
C60	C	1.668466	0.005104	1.045923
C61	C	1.001834	-0.751186	0.379268
C62	C	1.335168	-0.417853	0.712602
C63	C	1.668501	-0.084519	1.045935
C64	C	0.702702	-0.491432	0.412204
C65	C	1.036035	-0.158099	0.745537
C66	C	1.369368	0.175234	1.078871
C67	C	0.629314	-0.487916	0.409270
C68	C	0.962648	-0.154582	0.742604
C69	C	1.295981	0.178751	1.075937
C70	C	0.594418	-0.432544	0.362946
C71	C	0.927752	-0.099211	0.696279
C72	C	1.261085	0.234122	1.029613
C73	C	0.632913	-0.380681	0.319557
C74	C	0.966247	-0.047348	0.652891
C75	C	1.299580	0.285986	0.986224
C76	C	0.706299	-0.384194	0.322495
C77	C	1.039633	-0.050861	0.655828
C78	C	1.372966	0.282472	0.989162
C79	C	0.375130	-0.416284	0.349354
C80	C	0.708464	-0.082950	0.682687
C81	C	1.041797	0.250383	1.016021
C82	C	0.301739	-0.412776	0.346418
C83	C	0.635073	-0.079442	0.679751
C84	C	0.968406	0.253891	1.013085
C85	C	0.298145	-0.520010	0.436133
C86	C	0.631478	-0.186676	0.769466
C87	C	0.964812	0.146657	1.102799
C88	C	0.371533	-0.523522	0.439063
C89	C	0.704866	-0.190188	0.772396
C90	C	1.038199	0.143145	1.105730
C91	C	0.410021	-0.471655	0.395677
C92	C	0.743355	-0.138322	0.729010
C93	C	1.076688	0.195011	1.062344
N94	N	0.519405	-0.428950	0.359945
N95	N	0.852738	-0.095617	0.693278
N96	N	1.186071	0.237717	1.026611
N97	N	0.485034	-0.475247	0.398682
N98	N	0.818367	-0.141913	0.732016
N99	N	1.151700	0.191420	1.065349
C100	C	1.001954	-1.079371	0.379346
C101	C	1.335287	-0.746037	0.712680
C102	C	1.668621	-0.412704	1.046013
C103	C	1.001918	-0.988060	0.379327
C104	C	1.335252	-0.654726	0.712660
C105	C	1.668585	-0.321393	1.045993
C106	C	1.001894	-0.915281	0.379307
C107	C	1.335227	-0.581948	0.712640
C108	C	1.668560	-0.248615	1.045974
C109	C	1.001859	-0.823965	0.379288
C110	C	1.335193	-0.490631	0.712621
C111	C	1.668526	-0.157298	1.045955
C112	C	1.185146	-0.460881	0.386662
C113	C	1.518479	-0.127548	0.719996
C114	C	1.851812	0.205785	1.053329
C115	C	1.263249	-0.464634	0.389805
C116	C	1.596583	-0.131300	0.723138
C117	C	1.929916	0.202033	1.056472
C118	C	0.994535	-0.460123	0.562568
C119	C	1.327869	-0.126789	0.895901
C120	C	1.661202	0.206544	1.229235
C121	C	0.991412	-0.463552	0.640671
C122	C	1.324745	-0.130218	0.974004
C123	C	1.658079	0.203115	1.307338
C124	C	1.001948	-0.241774	0.379336
C125	C	1.335282	0.091560	0.712670
C126	C	1.668615	0.424893	1.046003
C127	C	1.001984	-0.152155	0.379357
C128	C	1.335318	0.181178	0.712690
C129	C	1.668651	0.514512	1.046024
C130	C	1.009205	-0.444005	0.196723
C131	C	1.342539	-0.110672	0.530056
C132	C	1.675872	0.222661	0.863389
C133	C	1.012465	-0.440356	0.118626
C134	C	1.345798	-0.107022	0.451959
C135	C	1.679132	0.226311	0.785292
C136	C	1.034901	-0.415760	0.679185
C137	C	1.368234	-0.082427	1.012518
C138	C	1.701568	0.250907	1.345852
C139	C	1.031958	-0.418978	0.752571
C140	C	1.365291	-0.085645	1.085904
C141	C	1.698625	0.247688	1.419237
C142	C	0.985529	-0.469993	0.787441
C143	C	1.318862	-0.136660	1.120775
C144	C	1.652195	0.196674	1.454108
C145	C	0.942035	-0.517786	0.748922
C146	C	1.275368	-0.184453	1.082255
C147	C	1.608701	0.148880	1.415589
C148	C	0.944975	-0.514563	0.675537
C149	C	1.278308	-0.181230	1.008871
C150	C	1.611641	0.152103	1.342204
C151	C	0.971911	-0.484926	1.006722
C152	C	1.305244	-0.151593	1.340055
C153	C	1.638578	0.181741	1.673389
C154	C	0.968976	-0.488147	1.080112
C155	C	1.302309	-0.154814	1.413445
C156	C	1.635642	0.178519	1.746778
C157	C	1.058898	-0.389338	1.083755
C158	C	1.392232	-0.056004	1.417089
C159	C	1.725565	0.277329	1.750422
C160	C	1.061837	-0.386123	1.010369
C161	C	1.395171	-0.052790	1.343703
C162	C	1.728504	0.280544	1.677036
C163	C	1.018341	-0.433913	0.971856
C164	C	1.351674	-0.100580	1.305190
C165	C	1.685008	0.232754	1.638523
N166	N	0.982521	-0.473286	0.862453
N167	N	1.315854	-0.139952	1.195787
N168	N	1.649187	0.193381	1.529120
N169	N	1.021346	-0.430616	0.896846
N170	N	1.354679	-0.097282	1.230179
N171	N	1.688013	0.236051	1.563512
H172	H	0.597979	-0.530145	0.444600
H173	H	0.931312	-0.196811	0.777933
H174	H	1.264645	0.136522	1.111267
H175	H	0.909554	-0.553472	0.644180
H176	H	1.242887	-0.220138	0.977513
H177	H	1.576221	0.113195	1.310847
H178	H	0.399940	-0.568613	0.476784
H179	H	0.733273	-0.235279	0.810117
H180	H	1.066607	0.098054	1.143450
N181	N	0.595274	-0.320969	0.269587
N182	N	0.928607	0.012364	0.602920
N183	N	1.261940	0.345698	0.936253
H184	H	0.607614	-0.264469	0.281096
H185	H	0.940948	0.068865	0.614429
H186	H	1.274281	0.402198	0.947763
H187	H	0.542956	-0.326692	0.274333
H188	H	0.876290	0.006641	0.607667
H189	H	1.209623	0.339974	0.941000
N190	N	1.111889	-0.331080	0.972745
N191	N	1.445222	0.002253	1.306079
N192	N	1.778555	0.335586	1.639412
H193	H	1.145659	-0.364063	0.943594
H194	H	1.478992	-0.030730	1.276927
H195	H	1.812326	0.302604	1.610260
H196	H	1.138946	-0.301287	1.008311
H197	H	1.472279	0.032046	1.341644
H198	H	1.805612	0.365379	1.674977
N199	N	0.918896	-0.543160	1.117739
N200	N	1.252229	-0.209827	1.451072
N201	N	1.585562	0.123507	1.784406
H202	H	0.930286	-0.600737	1.105401
H203	H	1.263619	-0.267404	1.438735
H204	H	1.596952	0.065929	1.772068
H205	H	0.869224	-0.527590	1.102943
H206	H	1.202557	-0.194257	1.436276
H207	H	1.535891	0.139076	1.769609
N208	N	0.747817	-0.328257	0.275704
N209	N	1.081150	0.005076	0.609038
N210	N	1.414484	0.338409	0.942371
H211	H	0.714576	-0.292646	0.245912
H212	H	1.047910	0.040687	0.579245
H213	H	1.381243	0.374021	0.912579
H214	H	0.779555	-0.361043	0.244352
H215	H	1.112888	-0.027709	0.577685
H216	H	1.446221	0.305624	0.911018
N217	N	1.084984	-0.360742	0.641577
N218	N	1.418317	-0.027409	0.974911
N219	N	1.751650	0.305924	1.308244
H220	H	1.112086	-0.330954	0.677114
H221	H	1.445419	0.002379	1.010447
H222	H	1.778752	0.335712	1.343781
H223	H	1.057616	-0.320717	0.609985
H224	H	1.390950	0.012616	0.943318
H225	H	1.724283	0.345949	1.276651
H226	H	0.904228	-0.559320	0.777319
H227	H	1.237562	-0.225987	1.110653
H228	H	1.570895	0.107346	1.443986
N229	N	1.105809	-0.337794	1.125293
N230	N	1.439142	-0.004460	1.458627
N231	N	1.772476	0.328873	1.791960
H232	H	1.096903	-0.347573	1.177073
H233	H	1.430236	-0.014240	1.510407
H234	H	1.763570	0.319093	1.843740
H235	H	1.095408	-0.279121	1.112038
H236	H	1.428741	0.054212	1.445371
H237	H	1.762074	0.387545	1.778704
H238	H	1.067373	-0.380063	0.783926
H239	H	1.400706	-0.046730	1.117259
H240	H	1.734040	0.286603	1.450592
H241	H	0.273329	-0.367677	0.308699
H242	H	0.606662	-0.034343	0.642033
H243	H	0.939996	0.298990	0.975366
N244	N	0.740337	-0.551160	0.462164
N245	N	1.073670	-0.217827	0.795497
N246	N	1.407004	0.115506	1.128830
H247	H	0.704815	-0.583477	0.489204
H248	H	1.038148	-0.250144	0.822538
H249	H	1.371482	0.083190	1.155871
H250	H	0.769500	-0.521287	0.495954
H251	H	1.102834	-0.187954	0.829287
H252	H	1.436167	0.145379	1.162620
N253	N	0.256633	-0.575948	0.482925
N254	N	0.589967	-0.242615	0.816259
N255	N	0.923300	0.090718	1.149592
H256	H	0.204848	-0.565323	0.474037
H257	H	0.538182	-0.231990	0.807371
H258	H	0.871515	0.101344	1.140704
H259	H	0.267468	-0.566307	0.533643
H260	H	0.600801	-0.232973	0.866977
H261	H	0.934135	0.100360	1.200310
N262	N	0.924976	-0.536441	0.965187
N263	N	1.258310	-0.203108	1.298521
N264	N	1.591643	0.130226	1.631854
H265	H	0.895113	-0.569239	0.998415
H266	H	1.228446	-0.235906	1.331748
H267	H	1.561780	0.097428	1.665082
H268	H	0.954758	-0.573800	0.935867
H269	H	1.288091	-0.240467	1.269200
H270	H	1.621424	0.092866	1.602534
H271	H	0.406459	-0.374056	0.314021
H272	H	0.739793	-0.040723	0.647354
H273	H	1.073126	0.292610	0.980687
