data_functionalizedCrystal
_audit_creation_method	'MofGen! by Chris Wilmer'
_symmetry_space_group_name_H-M	'P1'
_symmetry_Int_Tables_number	1
_symmetry_cell_setting	triclinic
loop_
_symmetry_equiv_pos_as_xyz
  x,y,z
_cell_length_a	21.395362
_cell_length_b	16.625546
_cell_length_c	21.395341
_cell_angle_alpha	89.896907
_cell_angle_beta	89.912864
_cell_angle_gamma	90.038346
loop_
_atom_site_label
_atom_site_type_symbol
_atom_site_fract_x
_atom_site_fract_y
_atom_site_fract_z
Zn1	Zn	0.958163	-0.320079	-0.354587
Zn2	Zn	1.458163	0.179921	0.145413
Zn3	Zn	0.958001	-0.455093	-0.249809
Zn4	Zn	1.458001	0.044907	0.250191
Zn5	Zn	0.853299	-0.320316	-0.249788
Zn6	Zn	1.353299	0.179684	0.250212
Zn7	Zn	0.853362	-0.454911	-0.354514
Zn8	Zn	1.353362	0.045089	0.145486
O9	O	0.905706	-0.387600	-0.302175
O10	O	1.405706	0.112400	0.197825
O11	O	1.045820	-0.337966	-0.340727
O12	O	1.545820	0.162034	0.159273
O13	O	0.944018	-0.437390	-0.162128
O14	O	1.444018	0.062610	0.337872
O15	O	0.867250	-0.207452	-0.263711
O16	O	1.367250	0.292548	0.236289
O17	O	1.045701	-0.437161	-0.263747
O18	O	1.545701	0.062839	0.236253
O19	O	0.944294	-0.207278	-0.340707
O20	O	1.444294	0.292722	0.159293
O21	O	0.867094	-0.338370	-0.162112
O22	O	1.367094	0.161630	0.337888
O23	O	0.765629	-0.338193	-0.263641
O24	O	1.265629	0.161807	0.236359
O25	O	0.867358	-0.436850	-0.442202
O26	O	1.367358	0.063150	0.057798
O27	O	0.765676	-0.437079	-0.340583
O28	O	1.265676	0.062921	0.159417
O29	O	0.944355	-0.337789	-0.442255
O30	O	1.444355	0.162211	0.057745
O31	O	0.944080	-0.567902	-0.263677
O32	O	1.444080	-0.067902	0.236323
O33	O	0.867202	-0.567768	-0.340603
O34	O	1.367202	-0.067768	0.159397
C35	C	0.742919	-0.387643	-0.302102
C36	C	1.242919	0.112357	0.197898
C37	C	0.673277	-0.387680	-0.302086
C38	C	1.173277	0.112320	0.197914
C39	C	0.640605	-0.439239	-0.342089
C40	C	1.140605	0.060761	0.157911
C41	C	0.575169	-0.439219	-0.342117
C42	C	1.075169	0.060781	0.157883
C43	C	0.542409	-0.387649	-0.302130
C44	C	1.042409	0.112351	0.197870
C45	C	0.575090	-0.336081	-0.262124
C46	C	1.075090	0.163919	0.237876
C47	C	0.640524	-0.336096	-0.262101
C48	C	1.140524	0.163904	0.237899
C49	C	0.438641	-0.381261	-0.245725
C50	C	0.938641	0.118739	0.254275
C51	C	0.373208	-0.381251	-0.245746
C52	C	0.873208	0.118749	0.254254
C53	C	0.340588	-0.387596	-0.302199
C54	C	0.840588	0.112404	0.197801
C55	C	0.373410	-0.393969	-0.358633
C56	C	0.873410	0.106031	0.141367
C57	C	0.438844	-0.393984	-0.358611
C58	C	0.938844	0.106016	0.141389
C59	C	0.471457	-0.387626	-0.302150
C60	C	0.971457	0.112374	0.197850
C61	C	0.236963	-0.439136	-0.342237
C62	C	0.736963	0.060864	0.157763
C63	C	0.171527	-0.439111	-0.342266
C64	C	0.671527	0.060889	0.157734
C65	C	0.171448	-0.335977	-0.262267
C66	C	0.671448	0.164023	0.237733
C67	C	0.236884	-0.335998	-0.262243
C68	C	0.736884	0.164002	0.237757
C69	C	0.269637	-0.387582	-0.302227
C70	C	0.769637	0.112418	0.197773
C71	C	0.905647	-0.597091	-0.302148
C72	C	1.405647	-0.097091	0.197852
C73	C	0.905679	-0.686712	-0.302158
C74	C	1.405679	-0.186712	0.197842
C75	C	0.905788	-1.014887	-0.302223
C76	C	1.405788	-0.514887	0.197777
C77	C	0.905756	-0.923579	-0.302207
C78	C	1.405756	-0.423579	0.197793
C79	C	0.905733	-0.850802	-0.302190
C80	C	1.405733	-0.350802	0.197810
C81	C	0.905702	-0.759488	-0.302175
C82	C	1.405702	-0.259488	0.197825
C83	C	1.069130	-0.387558	-0.302248
C84	C	1.569130	0.112442	0.197752
C85	C	1.138771	-0.387539	-0.302279
C86	C	1.638771	0.112461	0.197721
C87	C	0.905882	-0.387273	-0.465598
C88	C	1.405882	0.112727	0.034402
C89	C	0.905956	-0.387133	-0.535240
C90	C	1.405956	0.112867	-0.035240
C91	C	0.905783	-0.177291	-0.302215
C92	C	1.405783	0.322709	0.197785
C93	C	0.905816	-0.087670	-0.302232
C94	C	1.405816	0.412330	0.197768
C95	C	0.905568	-0.387867	-0.139386
C96	C	1.405568	0.112133	0.360614
C97	C	0.905614	-0.387780	-0.069745
C98	C	1.405614	0.112220	0.430255
C99	C	0.945735	-0.335234	0.431851
C100	C	1.445735	0.164766	0.931851
C101	C	0.945691	-0.335307	0.366416
C102	C	1.445691	0.164693	0.866416
C103	C	0.905875	-0.387295	0.333892
C104	C	1.405875	0.112705	0.833892
C105	C	0.866089	-0.439199	0.366809
C106	C	1.366089	0.060801	0.866809
C107	C	0.866129	-0.439118	0.432243
C108	C	1.366129	0.060882	0.932243
C109	C	0.901247	-0.460113	0.230391
C110	C	1.401247	0.039887	0.730391
C111	C	0.901211	-0.460195	0.164958
C112	C	1.401211	0.039805	0.664958
C113	C	0.905747	-0.387544	0.132072
C114	C	1.405747	0.112456	0.632072
C115	C	0.910332	-0.314808	0.164627
C116	C	1.410332	0.185192	0.664627
C117	C	0.910372	-0.314727	0.230061
C118	C	1.410372	0.185273	0.730061
C119	C	0.905827	-0.387388	0.262940
C120	C	1.405827	0.112612	0.762940
C121	C	0.945480	-0.335720	0.028210
C122	C	1.445480	0.164280	0.528210
C123	C	0.945432	-0.335792	-0.037226
C124	C	1.445432	0.164208	0.462774
C125	C	0.865832	-0.439691	-0.036831
C126	C	1.365832	0.060309	0.463169
C127	C	0.865877	-0.439611	0.028604
C128	C	1.365877	0.060389	0.528604
C129	C	0.905704	-0.387627	0.061121
C130	C	1.405704	0.112373	0.561121
H131	H	0.346852	-0.399135	-0.404603
H132	H	0.846852	0.100865	0.095397
H133	H	0.263486	-0.294017	-0.229665
H134	H	0.763486	0.205983	0.270335
O135	O	0.272298	-0.494759	-0.385368
O136	O	0.772298	0.005241	0.114632
H137	H	0.238583	-0.530598	-0.413199
H138	H	0.738583	-0.030598	0.086801
H139	H	0.978083	-0.293040	0.339616
H140	H	1.478083	0.206960	0.839616
H141	H	0.914026	-0.255649	0.137852
H142	H	1.414026	0.244351	0.637852
H143	H	0.833489	-0.481878	0.055399
H144	H	1.333489	0.018122	0.555399
O145	O	0.988686	-0.279160	0.466921
O146	O	1.488686	0.220840	0.966921
H147	H	1.020772	-0.314908	0.496737
H148	H	1.520772	0.185092	0.996737
O149	O	0.915313	-0.236281	0.265171
O150	O	1.415313	0.263719	0.765171
H151	H	0.914584	-0.248435	0.316195
H152	H	1.414584	0.251565	0.816195
O153	O	0.822885	-0.495765	-0.071899
O154	O	1.322885	0.004235	0.428101
H155	H	0.829541	-0.487106	-0.122929
H156	H	1.329541	0.012894	0.377071
O157	O	0.337809	-0.374374	-0.184883
O158	O	0.837809	0.125626	0.315117
H159	H	0.371483	-0.369946	-0.145625
H160	H	0.871483	0.130054	0.354375
H161	H	0.977906	-0.293387	0.054687
H162	H	1.477906	0.206613	0.554687
H163	H	0.667269	-0.481242	-0.374648
H164	H	1.167269	0.018758	0.125352
H165	H	0.897481	-0.519421	0.138457
H166	H	1.397481	-0.019421	0.638457
H167	H	0.548412	-0.294091	-0.229567
H168	H	1.048412	0.205909	0.270433
H169	H	0.977823	-0.293525	-0.064020
H170	H	1.477823	0.206475	0.435980
H171	H	0.548562	-0.481204	-0.374695
H172	H	1.048562	0.018796	0.125305
O173	O	0.474247	-0.400840	-0.419473
O174	O	0.974247	0.099160	0.080527
H175	H	0.440577	-0.405243	-0.458736
H176	H	0.940577	0.094757	0.041264
H177	H	0.833668	-0.481525	0.340324
H178	H	1.333668	0.018475	0.840324
H179	H	0.897359	-0.519258	0.257161
H180	H	1.397359	-0.019258	0.757161
H181	H	0.144926	-0.481095	-0.374845
H182	H	0.644926	0.018905	0.125155
O183	O	0.823208	-0.495086	0.467735
O184	O	1.323208	0.004914	0.967735
H185	H	0.834265	-0.558285	0.455294
H186	H	1.334265	-0.058285	0.955294
O187	O	0.136125	-0.280359	-0.219130
O188	O	0.636125	0.219641	0.280870
H189	H	0.085134	-0.289014	-0.225861
H190	H	0.585134	0.210986	0.274139
H191	H	0.667125	-0.294108	-0.229525
H192	H	1.167125	0.205892	0.270475
O193	O	0.473823	-0.374418	-0.184832
O194	O	0.973823	0.125582	0.315168
H195	H	0.440009	-0.369998	-0.145595
H196	H	0.940009	0.130002	0.354405
