data_functionalizedCrystal
_audit_creation_method	'MofGen! by Chris Wilmer'
_symmetry_space_group_name_H-M	'P1'
_symmetry_Int_Tables_number	1
_symmetry_cell_setting	triclinic
loop_
_symmetry_equiv_pos_as_xyz
  x,y,z
_cell_length_a	23.532407
_cell_length_b	23.532357
_cell_length_c	9.730223
_cell_angle_alpha	89.993164
_cell_angle_beta	90.002492
_cell_angle_gamma	82.838519
loop_
_atom_site_label
_atom_site_type_symbol
_atom_site_fract_x
_atom_site_fract_y
_atom_site_fract_z
O1	O	0.755244	0.069134	-0.114220
O2	O	0.589379	0.079138	-0.114244
O3	O	0.677328	-0.008798	-0.114203
O4	O	0.667295	0.157070	-0.114261
O5	O	0.677327	-0.008795	0.114377
O6	O	0.589378	0.079140	0.114336
O7	O	0.755243	0.069137	0.114360
Zn8	Zn	0.672310	0.074139	0.150640
Zn9	Zn	0.672311	0.074136	-0.150524
O10	O	0.667294	0.157072	0.114319
C11	C	0.568162	0.078884	0.000044
C12	C	0.504945	0.078118	0.000036
C13	C	0.238788	0.022922	0.000092
C14	C	0.298188	0.023633	0.000092
O15	O	0.334940	-0.020154	0.000155
N16	N	0.320805	0.075911	0.000064
C17	C	0.284018	0.127480	0.000051
O18	O	0.308710	0.172012	0.000029
C19	C	0.224619	0.126768	0.000062
C20	C	0.202006	0.074487	0.000075
C21	C	0.216174	-0.029355	0.000108
C22	C	0.156778	-0.030066	0.000106
C23	C	0.119996	0.021499	0.000089
C24	C	0.142610	0.073776	0.000073
C25	C	0.187833	0.178337	0.000058
C26	C	0.128431	0.177620	0.000070
C27	C	0.105818	0.125339	0.000084
C28	C	0.046431	0.124630	0.000054
N29	N	0.023815	0.072353	0.000082
C30	C	0.060597	0.020787	0.000099
C31	C	0.408760	0.128971	0.000032
C32	C	0.468158	0.129684	0.000011
C33	C	0.482324	0.025837	0.000055
C34	C	0.422925	0.025125	0.000065
C35	C	0.386143	0.076694	0.000059
C36	C	-0.064140	0.019297	0.000094
C37	C	-0.123542	0.018591	0.000086
C38	C	-0.137702	0.122438	0.000050
C39	C	-0.078306	0.123145	0.000051
C40	C	-0.041525	0.071570	0.000077
O41	O	0.009644	0.168394	-0.000003
O42	O	0.035897	-0.023737	0.000139
C43	C	0.677076	-0.030013	0.000092
C44	C	0.676322	-0.093232	0.000104
C45	C	0.671586	-0.485244	-0.124569
C46	C	0.670868	-0.544644	-0.124577
O47	O	0.670479	-0.575361	-0.230544
N48	N	0.670512	-0.574354	0.000020
C49	C	0.670867	-0.544660	0.124633
O50	O	0.670498	-0.575385	0.230612
C51	C	0.671580	-0.485261	0.124640
C52	C	0.671942	-0.455555	0.000034
C53	C	0.671947	-0.455538	-0.249165
C54	C	0.672665	-0.396143	-0.249156
C55	C	0.673022	-0.366454	-0.124552
C56	C	0.672661	-0.396160	0.000043
C57	C	0.671932	-0.455568	0.249251
C58	C	0.672644	-0.396165	0.249247
C59	C	0.673006	-0.366459	0.124642
C60	C	0.673736	-0.307076	0.124655
N61	N	0.674092	-0.277366	0.000058
C62	C	0.673735	-0.307055	-0.124546
C63	C	0.669369	-0.669402	0.124610
C64	C	0.668660	-0.728800	0.124605
C65	C	0.668660	-0.728779	-0.124606
C66	C	0.669373	-0.669380	-0.124600
C67	C	0.669725	-0.639692	0.000013
C68	C	0.675244	-0.182321	-0.124519
C69	C	0.675965	-0.122921	-0.124499
C70	C	0.675962	-0.122946	0.124711
C71	C	0.675244	-0.182342	0.124692
C72	C	0.674883	-0.212027	0.000066
O73	O	0.674124	-0.276320	0.230567
O74	O	0.674097	-0.276322	-0.230507
C75	C	0.776459	0.069390	0.000070
C76	C	0.839676	0.070156	0.000069
C77	C	0.667545	0.178288	0.000022
C78	C	0.668300	0.241506	0.000000
N79	N	0.672313	0.074140	0.356177
N80	N	0.672313	0.074130	-0.356060
C81	C	0.711267	0.035216	0.428121
C82	C	0.711265	0.035209	0.572004
C83	C	0.633355	0.113056	0.571986
C84	C	0.633354	0.113060	0.428105
C85	C	0.750226	-0.003704	0.356192
C86	C	0.789183	-0.042632	0.428137
C87	C	0.789182	-0.042639	0.572019
C88	C	0.750223	-0.003718	0.643958
H89	H	0.512283	-0.016151	0.000069
H90	H	-0.059893	0.165716	0.000038
C91	C	0.668270	-0.761476	0.261669
C92	C	0.717238	-0.809065	0.295947
C93	C	0.716845	-0.841740	0.433015
C94	C	0.667483	-0.826826	0.535806
C95	C	0.618511	-0.779235	0.501531
C96	C	0.618904	-0.746560	0.364463
H97	H	0.753782	-0.820108	0.219853
H98	H	0.753098	-0.876970	0.458387
H99	H	0.667192	-0.851013	0.637271
H100	H	0.581967	-0.768192	0.577625
H101	H	0.582651	-0.711330	0.339091
H102	H	0.672958	-0.371961	-0.350623
C103	C	0.832031	-0.085458	0.651163
C104	C	0.874880	-0.128270	0.572040
C105	C	0.917732	-0.171088	0.651181
C106	C	0.917735	-0.171095	0.809444
C107	C	0.874885	-0.128282	0.888575
C108	C	0.832033	-0.085464	0.809434
H109	H	0.874878	-0.128266	0.454877
H110	H	0.949453	-0.202781	0.592602
H111	H	0.949457	-0.202792	0.868028
H112	H	0.874886	-0.128286	1.005738
H113	H	0.800312	-0.053770	0.868013
C114	C	0.590507	0.155871	0.651113
C115	C	0.590582	0.155944	0.809376
C116	C	0.547734	0.198761	0.888500
C117	C	0.504812	0.241505	0.809362
C118	C	0.504735	0.241434	0.651091
C119	C	0.547583	0.198617	0.571966
H120	H	0.622357	0.124300	0.867966
H121	H	0.547791	0.198813	1.005664
H122	H	0.473093	0.273201	0.867935
H123	H	0.472960	0.273077	0.592501
H124	H	0.547526	0.198565	0.454803
H125	H	0.676261	-0.098737	-0.225972
H126	H	0.671654	-0.479704	-0.350637
H127	H	0.669667	-0.645197	-0.226064
C128	C	0.669767	-0.636749	0.261695
C129	C	0.620211	-0.638179	0.364491
C130	C	0.620609	-0.605530	0.501575
C131	C	0.670562	-0.571450	0.535863
C132	C	0.720121	-0.570019	0.433065
C133	C	0.719724	-0.602668	0.295981
H134	H	0.583229	-0.663408	0.339111
H135	H	0.583921	-0.606590	0.577672
H136	H	0.670856	-0.547282	0.637341
H137	H	0.757103	-0.544790	0.458446
H138	H	0.756411	-0.601608	0.219884
C139	C	0.674852	-0.214970	-0.261605
C140	C	0.724416	-0.213542	-0.364378
C141	C	0.724028	-0.246192	-0.501463
C142	C	0.674076	-0.280270	-0.535775
C143	C	0.624508	-0.281699	-0.433000
C144	C	0.624896	-0.249049	-0.295915
H145	H	0.761396	-0.188315	-0.338980
H146	H	0.760721	-0.245134	-0.577543
H147	H	0.673789	-0.304439	-0.637253
H148	H	0.587527	-0.306926	-0.458397
H149	H	0.588202	-0.250107	-0.219834
C150	C	-0.023687	-0.037434	0.000113
C151	C	-0.026014	-0.080370	0.118815
C152	C	0.014439	-0.137101	0.118822
C153	C	0.057218	-0.150896	0.000128
C154	C	0.059547	-0.107960	-0.118583
C155	C	0.019094	-0.051229	-0.118590
H156	H	-0.057683	-0.070159	0.206687
H157	H	0.012715	-0.168885	0.206701
H158	H	0.087164	-0.192892	0.000134
H159	H	0.091216	-0.118171	-0.206455
H160	H	0.020818	-0.019444	-0.206469
H161	H	-0.141950	-0.023984	0.000094
C162	C	0.676351	-0.090279	0.261768
C163	C	0.627379	-0.042694	0.296003
C164	C	0.627763	-0.010024	0.433060
C165	C	0.677120	-0.024938	0.535882
C166	C	0.726097	-0.072526	0.501650
C167	C	0.725712	-0.105196	0.364593
H168	H	0.590838	-0.031651	0.219886
H169	H	0.591507	0.025204	0.458400
H170	H	0.677405	-0.000754	0.637340
H171	H	0.762637	-0.083569	0.577767
H172	H	0.761968	-0.140424	0.339252
C173	C	0.256628	-0.086084	0.000117
C174	C	0.254303	-0.129020	0.118818
C175	C	0.294752	-0.185754	0.118814
C176	C	0.337526	-0.199550	0.000109
C177	C	0.339852	-0.156613	-0.118601
C178	C	0.299403	-0.099880	-0.118597
H179	H	0.222638	-0.118808	0.206699
H180	H	0.293030	-0.217539	0.206691
H181	H	0.367469	-0.241548	0.000106
H182	H	0.371517	-0.166825	-0.206482
H183	H	0.301125	-0.068095	-0.206474
H184	H	0.138372	-0.072639	0.000123
H185	H	0.404518	-0.017447	0.000077
C186	C	0.368303	0.185703	0.000001
C187	C	0.325516	0.199495	-0.118697
C188	C	0.285063	0.256225	-0.118726
C189	C	0.287395	0.299163	-0.000057
C190	C	0.330184	0.285372	0.118650
C191	C	0.370637	0.228642	0.118679
H192	H	0.323788	0.167708	-0.206551
H193	H	0.253388	0.266434	-0.206602
H194	H	0.257449	0.341159	-0.000079
H195	H	0.331912	0.317159	0.206504
H196	H	0.402312	0.218433	0.206555
H197	H	0.486564	0.172256	-0.000019
C198	C	0.087971	0.234349	0.000056
C199	C	0.090294	0.277281	-0.118653
C200	C	0.049836	0.334009	-0.118672
C201	C	0.007055	0.347803	0.000019
C202	C	0.004730	0.304870	0.118738
C203	C	0.045189	0.248142	0.118757
H204	H	0.121965	0.267070	-0.206524
H205	H	0.051557	0.365791	-0.206556
H206	H	-0.022895	0.389796	0.000006
H207	H	-0.026940	0.315081	0.206608
H208	H	0.043468	0.216360	0.206641
H209	H	0.206234	0.220910	0.000041
H210	H	-0.167661	0.164421	0.000029
H211	H	0.820899	-0.074323	0.369557
H212	H	0.750222	-0.003731	0.761117
H213	H	0.668367	-0.752962	-0.226065
H214	H	0.671638	-0.479745	0.350719
H215	H	0.672923	-0.371995	0.350724
H216	H	0.601634	0.144756	0.369528
H217	H	0.750232	-0.003701	0.239036
H218	H	0.674955	-0.206530	0.226156
