data_functionalizedCrystal
_audit_creation_method	'MofGen! by Chris Wilmer'
_symmetry_space_group_name_H-M	'P1'
_symmetry_Int_Tables_number	1
_symmetry_cell_setting	triclinic
loop_
_symmetry_equiv_pos_as_xyz
  x,y,z
_cell_length_a	6.817900
_cell_length_b	11.102244
_cell_length_c	14.858572
_cell_angle_alpha	93.466518
_cell_angle_beta	104.524003
_cell_angle_gamma	108.604870
loop_
_atom_site_label
_atom_site_type_symbol
_atom_site_fract_x
_atom_site_fract_y
_atom_site_fract_z
V1	V	-4.064541	-0.176638	-0.289958
O2	O	-4.024475	0.007665	-0.284441
O3	O	-4.041634	-0.349452	-0.287972
O4	O	-4.020832	-0.174282	-0.416419
O5	O	-4.045421	-0.168718	-0.155104
V6	V	-4.544258	-0.154551	-0.273828
O7	O	-4.334149	-0.225089	-0.325339
O8	O	-4.724848	-0.106100	-0.238448
O9	O	-4.343959	0.018263	-0.275814
O10	O	-4.701722	-0.338854	-0.279346
O11	O	-4.680776	-0.162471	-0.408682
O12	O	-4.364762	-0.156907	-0.147367
C13	C	-3.892685	-0.391569	-0.283397
C14	C	-3.955273	-0.532850	-0.282617
C15	C	-3.938305	-0.580848	-0.197090
C16	C	-3.997126	-0.713599	-0.196367
C17	C	-4.089876	-0.750341	-0.366707
C18	C	-4.031069	-0.617593	-0.367428
C19	C	-3.884748	-0.559636	-0.098746
C20	C	-3.943570	-0.692387	-0.098023
C21	C	-3.866148	-0.168121	-0.447243
C22	C	-3.911863	-0.167338	-0.550626
C23	C	-4.079180	-0.164478	-0.929195
C24	C	-4.032619	-0.165274	-0.823865
C25	C	-3.995523	-0.165909	-0.739914
C26	C	-3.948958	-0.166703	-0.634578
C27	C	-4.156252	0.060374	-0.280386
C28	C	-4.072902	0.201653	-0.281173
C29	C	-4.182788	-0.163072	-0.116538
C30	C	-4.116311	-0.163848	-0.013154
H31	H	-4.090358	-0.732113	-0.070954
O32	O	-3.770012	-0.719506	-0.048507
C33	C	-3.394768	-0.635529	0.041095
C34	C	-3.591122	-0.604639	-0.014974
H35	H	-3.250098	-0.542676	0.068238
H36	H	-3.354797	-0.703066	-0.006508
H37	H	-3.434104	-0.683720	0.103122
H38	H	-3.551942	-0.556402	-0.077003
H39	H	-3.631044	-0.537156	0.032693
H40	H	-4.151594	-0.819355	-0.435757
O41	O	-4.047613	-0.571179	-0.450590
C42	C	-4.145971	-0.621642	-0.619471
C43	C	-4.127289	-0.674375	-0.525352
H44	H	-4.210431	-0.705051	-0.679942
H45	H	-3.980084	-0.555479	-0.620577
H46	H	-4.261378	-0.565344	-0.627569
H47	H	-4.011974	-0.730731	-0.517193
H48	H	-4.293256	-0.740470	-0.524288
O49	O	-4.008706	-0.512771	-0.058045
C50	C	-4.015866	-0.366607	0.066758
C51	C	-3.875243	-0.419594	0.020774
H52	H	-3.908017	-0.291244	0.130480
H53	H	-4.133177	-0.448502	0.090087
H54	H	-4.110523	-0.320785	0.013698
H55	H	-3.780451	-0.465401	0.073783
H56	H	-3.758068	-0.337651	-0.002575
H57	H	-3.704733	-0.506741	-0.064781
