data_functionalizedCrystal
_audit_creation_method	'MofGen! by Chris Wilmer'
_symmetry_space_group_name_H-M	'P1'
_symmetry_Int_Tables_number	1
_symmetry_cell_setting	triclinic
loop_
_symmetry_equiv_pos_as_xyz
  x,y,z
_cell_length_a	15.944551
_cell_length_b	14.519709
_cell_length_c	13.596369
_cell_angle_alpha	90.012081
_cell_angle_beta	90.005711
_cell_angle_gamma	96.410558
loop_
_atom_site_label
_atom_site_type_symbol
_atom_site_fract_x
_atom_site_fract_y
_atom_site_fract_z
O1	O	0.110109	-1.223660	0.081665
O2	O	0.610109	-0.723660	0.581665
O3	O	0.123076	-0.955161	0.081696
O4	O	0.623076	-0.455161	0.581696
O5	O	-0.005672	-1.096742	0.081671
O6	O	0.494328	-0.596742	0.581671
O7	O	0.238857	-1.082078	0.081690
O8	O	0.738857	-0.582078	0.581690
O9	O	-0.005679	-1.096760	-0.081912
O10	O	0.494321	-0.596760	0.418088
O11	O	0.123069	-0.955178	-0.081887
O12	O	0.623069	-0.455178	0.418113
O13	O	0.110102	-1.223678	-0.081917
O14	O	0.610102	-0.723678	0.418083
Zn15	Zn	0.116584	-1.089431	-0.107875
Zn16	Zn	0.616584	-0.589431	0.392125
Zn17	Zn	0.116593	-1.089408	0.107653
Zn18	Zn	0.616593	-0.589408	0.607653
O19	O	0.238850	-1.082096	-0.081893
O20	O	0.738850	-0.582096	0.418107
C21	C	-0.036970	-1.096142	-0.000121
C22	C	0.463030	-0.596142	0.499879
C23	C	-0.130219	-1.094317	-0.000121
C24	C	0.369781	-0.594317	0.499879
C25	C	0.122468	-0.920811	-0.000092
C26	C	0.622468	-0.420811	0.499908
C27	C	0.120657	-0.818432	-0.000081
C28	C	0.620657	-0.318432	0.499919
C29	C	0.110710	-1.258028	-0.000128
C30	C	0.610710	-0.758028	0.499872
C31	C	0.112521	-1.360406	-0.000132
C32	C	0.612521	-0.860406	0.499868
C33	C	-0.345209	-1.002196	-0.000097
C34	C	0.154791	-0.502196	0.499903
C35	C	-0.406168	-1.044983	-0.080758
C36	C	0.093832	-0.544983	0.419242
C37	C	-0.300950	-1.091016	-0.000113
C38	C	0.199050	-0.591016	0.499887
C39	C	-0.406144	-1.044986	0.080522
C40	C	0.093856	-0.544986	0.580522
C41	C	-0.465867	-1.087820	-0.000101
C42	C	0.034133	-0.587820	0.499899
C43	C	-0.360680	-1.133827	-0.080841
C44	C	0.139320	-0.633827	0.419159
C45	C	-0.360650	-1.133818	0.080512
C46	C	0.139350	-0.633818	0.580512
C47	C	-0.421591	-1.176669	-0.000169
C48	C	0.078409	-0.676669	0.499831
C49	C	-0.205945	-1.092854	-0.000121
C50	C	0.294055	-0.592854	0.499879
C51	C	-0.560871	-1.085988	-0.000100
C52	C	-0.060871	-0.585988	0.499900
C53	C	0.270148	-1.082696	-0.000099
C54	C	0.770148	-0.582696	0.499901
C55	C	0.363397	-1.084521	-0.000092
C56	C	0.863397	-0.584521	0.499908
N57	N	0.116577	-1.089453	-0.254966
N58	N	0.616577	-0.589453	0.245034
C59	C	0.113990	-0.443548	-0.000126
C60	C	0.613990	0.056452	0.499874
C61	C	0.115842	-0.547853	-0.000113
C62	C	0.615842	-0.047853	0.499887
C63	C	0.117323	-0.630987	-0.000102
C64	C	0.617323	-0.130987	0.499898
C65	C	0.119175	-0.735298	-0.000091
C66	C	0.619175	-0.235298	0.499909
N67	N	0.116594	-1.089392	0.254745
N68	N	0.616594	-0.589392	0.754745
C69	C	0.116594	-1.089396	0.343743
C70	C	0.616594	-0.589396	0.843743
C71	C	0.116592	-1.089409	0.455394
C72	C	0.616592	-0.589409	0.955394
C73	C	0.116587	-1.089425	0.544385
C74	C	0.616587	-0.589425	1.044385
C75	C	0.116583	-1.089437	0.656043
C76	C	0.616583	-0.589437	1.156043
H77	H	-0.312009	-0.928471	-0.000169
H78	H	0.187991	-0.428471	0.499831
N79	N	-0.463064	-1.269232	-0.000210
N80	N	0.036936	-0.769232	0.499790
N81	N	-0.450412	-1.323305	0.068379
N82	N	0.049588	-0.823305	0.568379
H83	H	-0.479704	-1.388676	0.068349
H84	H	0.020296	-0.888676	0.568349
N85	N	-0.335330	-1.180892	0.166059
N86	N	0.164670	-0.680892	0.666059
N87	N	-0.349647	-1.150611	0.249748
N88	N	0.150353	-0.650611	0.749748
H89	H	-0.331764	-1.183851	0.310174
H90	H	0.168236	-0.683851	0.810174
N91	N	-0.431475	-0.997884	-0.166302
N92	N	0.068525	-0.497884	0.333698
N93	N	-0.416025	-1.027337	-0.250015
N94	N	0.083975	-0.527337	0.249985
H95	H	-0.433895	-0.994070	-0.310428
H96	H	0.066105	-0.494070	0.189572
N97	N	-0.335560	-1.180932	-0.166486
N98	N	0.164440	-0.680932	0.333514
N99	N	-0.363755	-1.263594	-0.181271
N100	N	0.136245	-0.763594	0.318729
H101	H	-0.346013	-1.296859	-0.241759
H102	H	0.153987	-0.796859	0.258241
N103	N	-0.431409	-0.997820	0.166057
N104	N	0.068591	-0.497820	0.666057
N105	N	-0.403756	-0.914929	0.180414
N106	N	0.096244	-0.414929	0.680414
H107	H	-0.421597	-0.881611	0.240818
H108	H	0.078403	-0.381611	0.740818
