data_functionalizedCrystal
_audit_creation_method	'MofGen! by Chris Wilmer'
_symmetry_space_group_name_H-M	'P1'
_symmetry_Int_Tables_number	1
_symmetry_cell_setting	triclinic
loop_
_symmetry_equiv_pos_as_xyz
  x,y,z
_cell_length_a	6.817900
_cell_length_b	12.200722
_cell_length_c	12.200875
_cell_angle_alpha	93.008822
_cell_angle_beta	107.143593
_cell_angle_gamma	107.140920
loop_
_atom_site_label
_atom_site_type_symbol
_atom_site_fract_x
_atom_site_fract_y
_atom_site_fract_z
V1	V	-4.086871	-0.158974	-0.357783
V2	V	-3.586871	0.341026	0.142217
O3	O	-4.054179	0.007371	-0.350847
O4	O	-3.554179	0.507371	0.149153
O5	O	-4.056310	-0.314960	-0.355457
O6	O	-3.556310	0.185040	0.144543
O7	O	-4.056323	-0.156646	-0.513769
O8	O	-3.556323	0.343354	-0.013769
O9	O	-4.054166	-0.152039	-0.191438
O10	O	-3.554166	0.347961	0.308562
V11	V	-4.565875	-0.139063	-0.337872
V12	V	-4.065875	0.360937	0.162128
O13	O	-4.358044	-0.202649	-0.401459
O14	O	-3.858044	0.297351	0.098541
O15	O	-4.744899	-0.095387	-0.294196
O16	O	-4.244899	0.404613	0.205804
O17	O	-4.373230	0.016924	-0.340199
O18	O	-3.873230	0.516924	0.159801
O19	O	-4.715964	-0.305408	-0.344808
O20	O	-4.215964	0.194592	0.155192
O21	O	-4.715977	-0.145998	-0.504217
O22	O	-4.215977	0.354002	-0.004217
O23	O	-4.373217	-0.141391	-0.181886
O24	O	-3.873217	0.358609	0.318114
C25	C	-3.905073	-0.352982	-0.349844
C26	C	-3.405073	0.147018	0.150156
C27	C	-3.961491	-0.480504	-0.348981
C28	C	-3.461491	0.019496	0.151019
C29	C	-3.905088	-0.151036	-0.551786
C30	C	-3.405088	0.348964	-0.051786
C31	C	-3.961513	-0.150165	-0.679306
C32	C	-3.461513	0.349835	-0.179306
C33	C	-4.007301	-0.584064	-0.348270
C34	C	-3.507301	-0.084064	0.151730
C35	C	-4.064792	-0.713986	-0.347384
C36	C	-3.564792	-0.213986	0.152616
C37	C	-4.064778	-0.148571	-0.912780
C38	C	-3.564778	0.351429	-0.412780
C39	C	-4.007305	-0.149457	-0.782858
C40	C	-3.507305	0.350543	-0.282858
C41	C	-4.187809	0.054940	-0.345808
C42	C	-3.687809	0.554940	0.154192
C43	C	-4.110630	0.182460	-0.346678
C44	C	-3.610630	0.682460	0.153322
C45	C	-4.187793	-0.147005	-0.143863
C46	C	-3.687793	0.352995	0.356137
C47	C	-4.110606	-0.147870	-0.016342
C48	C	-3.610606	0.352130	0.483658
