data_functionalizedCrystal
_audit_creation_method	'MofGen! by Chris Wilmer'
_symmetry_space_group_name_H-M	'P1'
_symmetry_Int_Tables_number	1
_symmetry_cell_setting	triclinic
loop_
_symmetry_equiv_pos_as_xyz
  x,y,z
_cell_length_a	17.699077
_cell_length_b	17.699092
_cell_length_c	16.776229
_cell_angle_alpha	89.995030
_cell_angle_beta	89.993415
_cell_angle_gamma	83.283472
loop_
_atom_site_label
_atom_site_type_symbol
_atom_site_fract_x
_atom_site_fract_y
_atom_site_fract_z
O1	O	1.004084	0.095691	-0.066275
O2	O	0.783706	0.108148	-0.066278
O3	O	0.900118	-0.008269	-0.066274
O4	O	0.887672	0.212109	-0.066278
O5	O	0.900102	-0.008276	0.066302
O6	O	0.783690	0.108141	0.066298
O7	O	1.004069	0.095684	0.066302
Zn8	Zn	0.893877	0.101911	0.087349
Zn9	Zn	0.893897	0.101921	-0.087326
O10	O	0.887656	0.212101	0.066298
C11	C	0.755501	0.107699	0.000010
C12	C	0.671482	0.106362	0.000008
C13	C	0.632007	0.105729	0.072276
C14	C	0.553064	0.104460	0.072277
C15	C	0.513598	0.103831	0.000009
C16	C	0.553080	0.104463	-0.072265
C17	C	0.632021	0.105726	-0.072265
C18	C	0.234716	0.099370	-0.072266
C19	C	0.155768	0.098109	-0.072261
C20	C	0.155759	0.098104	0.072276
C21	C	0.234701	0.099367	0.072276
C22	C	0.274176	0.099994	0.000003
C23	C	0.359774	0.101368	0.000002
C24	C	0.428000	0.102463	0.000008
C25	C	0.899663	-0.036470	0.000013
C26	C	0.898322	-0.120487	0.000009
C27	C	0.897702	-0.159951	-0.072260
C28	C	0.896437	-0.238894	-0.072260
C29	C	0.895798	-0.278373	0.000008
C30	C	0.896415	-0.238903	0.072282
C31	C	0.897675	-0.159961	0.072282
C32	C	0.891335	-0.557268	0.072283
C33	C	0.890078	-0.636216	0.072277
C34	C	0.890097	-0.636201	-0.072260
C35	C	0.891357	-0.557259	-0.072259
C36	C	0.891970	-0.517796	0.000014
C37	C	0.893341	-0.432197	0.000014
C38	C	0.894433	-0.363971	0.000008
C39	C	1.032274	0.096133	0.000012
C40	C	1.116292	0.097470	0.000009
C41	C	0.888111	0.240302	0.000009
C42	C	0.889452	0.324320	0.000008
N43	N	0.893869	0.101905	0.206561
N44	N	0.893912	0.101922	-0.206537
C45	C	0.945432	0.050376	0.248279
C46	C	0.945436	0.050375	0.331732
C47	C	0.893880	0.101907	0.373464
C48	C	0.842312	0.153438	0.331739
C49	C	0.842304	0.153435	0.248288
C50	C	0.842339	0.153453	0.668286
C51	C	0.842352	0.153454	0.751743
C52	C	0.945470	0.050394	0.751729
C53	C	0.945463	0.050390	0.668279
C54	C	0.893892	0.101918	0.626562
C55	C	0.893888	0.101917	0.536073
C56	C	0.893888	0.101913	0.463950
H57	H	0.520941	0.103946	-0.131107
N58	N	0.113196	0.097424	-0.150208
H59	H	0.120713	0.144540	-0.181813
H60	H	0.133177	0.050710	-0.181734
H61	H	0.800366	0.195420	0.785720
H62	H	0.664133	0.106247	0.131126
N63	N	0.786715	0.209023	0.623297
H64	H	0.754058	0.241668	0.662399
H65	H	0.815616	0.242449	0.588657
N66	N	1.001077	-0.005184	0.376717
H67	H	0.992485	-0.058899	0.362205
H68	H	1.054736	0.003561	0.362143
N69	N	0.895733	-0.281480	0.150230
H70	H	0.894848	-0.337480	0.139265
H71	H	0.942854	-0.273899	0.181781
N72	N	1.001061	-0.005195	0.623263
H73	H	1.034515	0.023682	0.588626
H74	H	1.033676	-0.037830	0.662403
H75	H	0.889555	-0.668357	0.131130
N76	N	0.786698	0.209016	0.376745
H77	H	0.794527	0.201201	0.435942
H78	H	0.795337	0.262698	0.362148
N79	N	0.898380	-0.117345	-0.150191
H80	H	0.945058	-0.137284	-0.181803
H81	H	0.851228	-0.124862	-0.181719
H82	H	0.800316	0.195394	0.214322
N83	N	0.277288	0.100041	-0.150214
H84	H	0.240305	0.099451	-0.195993
H85	H	0.303823	0.147462	-0.153371
H86	H	0.266829	0.099883	0.131124
N87	N	1.001095	-0.005186	0.796724
H88	H	0.993278	0.002630	0.855922
H89	H	0.992455	-0.058870	0.782145
N90	N	0.892006	-0.514711	0.150231
H91	H	0.891416	-0.551703	0.196010
H92	H	0.939431	-0.488182	0.153377
N93	N	0.113188	0.097415	0.150234
H94	H	0.121552	0.144011	0.182300
H95	H	0.057075	0.097545	0.139216
N96	N	1.001026	-0.005221	0.203274
H97	H	0.993197	0.002592	0.144077
H98	H	1.054706	0.003443	0.217842
H99	H	0.520928	0.103932	0.131125
N100	N	0.674604	0.106403	-0.150211
H101	H	0.637625	0.105814	-0.195993
H102	H	0.701137	0.153827	-0.153364
H103	H	0.895936	-0.271022	-0.131109
H104	H	0.891881	-0.525120	-0.131108
H105	H	0.889594	-0.668341	-0.131108
N106	N	0.898355	-0.117397	0.150230
H107	H	0.899249	-0.061397	0.139265
H108	H	0.851231	-0.124976	0.181790
