data_functionalizedCrystal
_audit_creation_method	'MofGen! by Chris Wilmer'
_symmetry_space_group_name_H-M	'P1'
_symmetry_Int_Tables_number	1
_symmetry_cell_setting	triclinic
loop_
_symmetry_equiv_pos_as_xyz
  x,y,z
_cell_length_a	29.839134
_cell_length_b	29.839131
_cell_length_c	29.839125
_cell_angle_alpha	89.982291
_cell_angle_beta	89.975687
_cell_angle_gamma	90.034165
loop_
_atom_site_label
_atom_site_type_symbol
_atom_site_fract_x
_atom_site_fract_y
_atom_site_fract_z
Zn1	Zn	0.686720	-0.179003	-0.254153
Zn2	Zn	0.686652	-0.254115	-0.179023
Zn3	Zn	0.611602	-0.178991	-0.179019
Zn4	Zn	0.611550	-0.254097	-0.254108
O5	O	0.649131	-0.216552	-0.216576
O6	O	0.749578	-0.188980	-0.244207
O7	O	0.676690	-0.244152	-0.116155
O8	O	0.621617	-0.116125	-0.189003
O9	O	0.749528	-0.244164	-0.189009
O10	O	0.676805	-0.116134	-0.244204
O11	O	0.621551	-0.188958	-0.116153
O12	O	0.548728	-0.188941	-0.188960
O13	O	0.621528	-0.244134	-0.316981
O14	O	0.548690	-0.244122	-0.244127
O15	O	0.676755	-0.188962	-0.317014
O16	O	0.676639	-0.316980	-0.188966
O17	O	0.621462	-0.316967	-0.244131
C18	C	0.532408	-0.216528	-0.216539
C19	C	0.482474	-0.216529	-0.216534
C20	C	0.125894	-0.187777	-0.187909
C21	C	0.313567	-0.187764	-0.187882
O22	O	0.337838	-0.163279	-0.163502
N23	N	0.337029	-0.216536	-0.216556
C24	C	0.313569	-0.245312	-0.245242
O25	O	0.337831	-0.269781	-0.269634
C26	C	0.125897	-0.245322	-0.245271
C27	C	0.102438	-0.216551	-0.216591
C28	C	0.102435	-0.159007	-0.159232
C29	C	0.055520	-0.159013	-0.159237
C30	C	0.032063	-0.187787	-0.187920
C31	C	0.055522	-0.216556	-0.216597
C32	C	0.102438	-0.274095	-0.273958
C33	C	0.055517	-0.274094	-0.273964
C34	C	0.032058	-0.245323	-0.245284
C35	C	-0.014849	-0.245336	-0.245284
N36	N	-0.038311	-0.216563	-0.216610
C37	C	-0.014854	-0.187789	-0.187927
C38	C	0.412100	-0.245305	-0.245224
C39	C	0.459018	-0.245303	-0.245216
C40	C	0.459013	-0.187755	-0.187856
C41	C	0.412094	-0.187759	-0.187862
C42	C	0.388638	-0.216533	-0.216549
C43	C	-0.113380	-0.187802	-0.187941
C44	C	-0.160300	-0.187811	-0.187947
C45	C	-0.160291	-0.245358	-0.245308
C46	C	-0.113375	-0.245351	-0.245300
C47	C	-0.089921	-0.216569	-0.216615
O48	O	-0.039149	-0.269804	-0.269654
O49	O	-0.039124	-0.163316	-0.163546
C50	C	0.172810	-0.187771	-0.187904
C51	C	0.196269	-0.216541	-0.216580
C52	C	0.172812	-0.245315	-0.245263
C53	C	0.243187	-0.216539	-0.216573
C54	C	0.266643	-0.187764	-0.187890
C55	C	0.243182	-0.158992	-0.159216
C56	C	0.196266	-0.158997	-0.159221
C57	C	0.196274	-0.274087	-0.273937
C58	C	0.243189	-0.274080	-0.273929
C59	C	0.266646	-0.245306	-0.245247
C60	C	0.649050	-0.333274	-0.216554
C61	C	0.649056	-0.383209	-0.216559
C62	C	0.677914	-0.692846	-0.187894
C63	C	0.677969	-0.880519	-0.187911
O64	O	0.702441	-0.904779	-0.163521
N65	N	0.649224	-0.903994	-0.216610
C66	C	0.620465	-0.880547	-0.245308
O67	O	0.596020	-0.904820	-0.269722
C68	C	0.620412	-0.692875	-0.245293
C69	C	0.649156	-0.669403	-0.216589
C70	C	0.706656	-0.669374	-0.159192
C71	C	0.706640	-0.622459	-0.159187
C72	C	0.677882	-0.599015	-0.187882
C73	C	0.649140	-0.622487	-0.216583
C74	C	0.591656	-0.669429	-0.273993
C75	C	0.591646	-0.622508	-0.273988
C76	C	0.620390	-0.599036	-0.245284
C77	C	0.620367	-0.552128	-0.245273
N78	N	0.649112	-0.528654	-0.216574
C79	C	0.677869	-0.552097	-0.187879
C80	C	0.620494	-0.979078	-0.245314
C81	C	0.620507	-1.025995	-0.245317
C82	C	0.678012	-1.025964	-0.187920
C83	C	0.677996	-0.979046	-0.187915
C84	C	0.649239	-0.955603	-0.216615
C85	C	0.677834	-0.453572	-0.187868
C86	C	0.677814	-0.406652	-0.187864
C87	C	0.620311	-0.406687	-0.245262
C88	C	0.620329	-0.453603	-0.245265
C89	C	0.649094	-0.477044	-0.216567
O90	O	0.595912	-0.527840	-0.269653
O91	O	0.702318	-0.527817	-0.163475
C92	C	0.677930	-0.739762	-0.187899
C93	C	0.649188	-0.763234	-0.216601
C94	C	0.620430	-0.739790	-0.245296
C95	C	0.649200	-0.810152	-0.216604
C96	C	0.677958	-0.833595	-0.187909
C97	C	0.706703	-0.810120	-0.159210
C98	C	0.706687	-0.763205	-0.159204
C99	C	0.591685	-0.763265	-0.273995
C100	C	0.591703	-0.810180	-0.273998
C101	C	0.620461	-0.833624	-0.245302
C102	C	0.766309	-0.216575	-0.216613
C103	C	0.816244	-0.216586	-0.216629
C104	C	0.649143	-0.216548	-0.333754
C105	C	0.649148	-0.216546	-0.383689
C106	C	0.649225	-0.099373	-0.216608
C107	C	0.649265	-0.049439	-0.216622
C108	C	0.677935	-0.187743	-0.693352
C109	C	0.677957	-0.187705	-0.881026
O110	O	0.702399	-0.163258	-0.905307
N111	N	0.649208	-0.216426	-0.904474
C112	C	0.620449	-0.245156	-0.881001
O113	O	0.595993	-0.269581	-0.905252
C114	C	0.620424	-0.245192	-0.693329
C115	C	0.649179	-0.216472	-0.669883
C116	C	0.706687	-0.159025	-0.669906
C117	C	0.706683	-0.159037	-0.622991
C118	C	0.677927	-0.187766	-0.599521
C119	C	0.649175	-0.216484	-0.622968
C120	C	0.591663	-0.273920	-0.669857
C121	C	0.591659	-0.273925	-0.622936
C122	C	0.620414	-0.245206	-0.599490
C123	C	0.620415	-0.245225	-0.552583
N124	N	0.649164	-0.216504	-0.529134
C125	C	0.677920	-0.187774	-0.552604
C126	C	0.620464	-0.245136	-0.979532
C127	C	0.620471	-0.245128	-1.026450
C128	C	0.677979	-0.187675	-1.026471
C129	C	0.677974	-0.187686	-0.979552
C130	C	0.649214	-0.216415	-0.956084
C131	C	0.677910	-0.187801	-0.454078
C132	C	0.677904	-0.187817	-0.407158
C133	C	0.620395	-0.245267	-0.407141
C134	C	0.620401	-0.245253	-0.454057
C135	C	0.649161	-0.216517	-0.477524
O136	O	0.595982	-0.269655	-0.528272
O137	O	0.702366	-0.163346	-0.528345
C138	C	0.677939	-0.187731	-0.740268
C139	C	0.649187	-0.216449	-0.763714
C140	C	0.620431	-0.245178	-0.740245
C141	C	0.649194	-0.216441	-0.810632
C142	C	0.677950	-0.187711	-0.834101
C143	C	0.706699	-0.158990	-0.810653
C144	C	0.706695	-0.159002	-0.763737
C145	C	0.591682	-0.273899	-0.763693
C146	C	0.591689	-0.273886	-0.810609
C147	C	0.620445	-0.245156	-0.834078
C148	C	0.649145	-0.216523	-0.099853
C149	C	0.649227	-0.216398	-0.049919
H150	H	0.262288	-0.135564	-0.135860
H151	H	0.568268	-0.744181	-0.297363
H152	H	0.730097	-0.135650	-0.603905
C153	C	-0.087585	-0.156145	-0.156386
C154	C	-0.094014	-0.105079	-0.160141
C155	C	-0.068218	-0.073425	-0.128584
C156	C	-0.035994	-0.092835	-0.093273
C157	C	-0.029563	-0.143902	-0.089516
C158	C	-0.055359	-0.175557	-0.121073
H159	H	-0.117869	-0.090709	-0.186282
H160	H	-0.072978	-0.035621	-0.131365
H161	H	-0.016898	-0.069402	-0.069913
H162	H	-0.005708	-0.158273	-0.063375
H163	H	-0.050599	-0.213361	-0.118292
H164	H	0.568292	-0.829287	-0.297372
H165	H	0.701220	-0.387543	-0.164488
H166	H	0.262286	-0.297513	-0.297283
H167	H	0.701327	-0.164400	-0.473179
C168	C	-0.186105	-0.156160	-0.156399
C169	C	-0.218387	-0.175577	-0.121095
C170	C	-0.244191	-0.143927	-0.089549
C171	C	-0.237712	-0.092860	-0.093307
C172	C	-0.205429	-0.073441	-0.128613
C173	C	-0.179625	-0.105091	-0.160159
H174	H	-0.223184	-0.213382	-0.118312
H175	H	-0.268089	-0.158303	-0.063414
H176	H	-0.256813	-0.069431	-0.069955
H177	H	-0.200631	-0.035636	-0.131396
H178	H	-0.155727	-0.090715	-0.186294
H179	H	0.568233	-0.297315	-0.603831
C180	C	0.738323	-0.127407	-0.737950
C181	C	0.773579	-0.146881	-0.705706
C182	C	0.805207	-0.115283	-0.679922
C183	C	0.801579	-0.064211	-0.686382
C184	C	0.766322	-0.044733	-0.718628
C185	C	0.734693	-0.076331	-0.744412
H186	H	0.776266	-0.184691	-0.700922
H187	H	0.831308	-0.129702	-0.656051
H188	H	0.824993	-0.040820	-0.667295
H189	H	0.763635	-0.006924	-0.723412
H190	H	0.708593	-0.061913	-0.768282
H191	H	0.730115	-0.135600	-0.829770
H192	H	0.701321	-0.164429	-0.388070
C193	C	0.560043	-0.305502	-0.737886
C194	C	0.524777	-0.286037	-0.705627
C195	C	0.493134	-0.317642	-0.679824
C196	C	0.496757	-0.368713	-0.686279
C197	C	0.532023	-0.388180	-0.718539
C198	C	0.563666	-0.356575	-0.744342
H199	H	0.522095	-0.248229	-0.700847
H200	H	0.467028	-0.303231	-0.655943
H201	H	0.473333	-0.392109	-0.667178
H202	H	0.534706	-0.425988	-0.723318
H203	H	0.589773	-0.370986	-0.768223
H204	H	0.701402	-0.959938	-0.164542
C205	C	0.128233	-0.305742	-0.305511
C206	C	0.121746	-0.356808	-0.301763
C207	C	0.147540	-0.388456	-0.333319
C208	C	0.179820	-0.369037	-0.368624
C209	C	0.186309	-0.317968	-0.372373
C210	C	0.160515	-0.286320	-0.340817
H211	H	0.097849	-0.371185	-0.275627
H212	H	0.142737	-0.426261	-0.330544
H213	H	0.198914	-0.392465	-0.391984
H214	H	0.210206	-0.303591	-0.398509
H215	H	0.165318	-0.248516	-0.343592
H216	H	0.478119	-0.164326	-0.164502
C217	C	0.588710	-0.479427	-0.276836
C218	C	0.537638	-0.473029	-0.273113
C219	C	0.506023	-0.498851	-0.304688
C220	C	0.525479	-0.531070	-0.339985
C221	C	0.576554	-0.537468	-0.343709
C222	C	0.608169	-0.511647	-0.312134
H223	H	0.523233	-0.449178	-0.246983
H224	H	0.468214	-0.494114	-0.301931
H225	H	0.502075	-0.550184	-0.363358
H226	H	0.590959	-0.561320	-0.369839
H227	H	0.645978	-0.516384	-0.314892
C228	C	0.029716	-0.305748	-0.305519
C229	C	0.036141	-0.356813	-0.301762
C230	C	0.010341	-0.388468	-0.333316
C231	C	-0.021883	-0.369056	-0.368627
C232	C	-0.028310	-0.317988	-0.372385
C233	C	-0.002510	-0.286334	-0.340831
H234	H	0.059997	-0.371185	-0.275622
H235	H	0.015099	-0.426272	-0.330534
H236	H	-0.040982	-0.392489	-0.391985
H237	H	-0.052166	-0.303617	-0.398526
H238	H	-0.007267	-0.248530	-0.343614
C239	C	0.588824	-0.276743	-0.953725
C240	C	0.537758	-0.273065	-0.960174
C241	C	0.506118	-0.304675	-0.934372
C242	C	0.525544	-0.339962	-0.902120
C243	C	0.576613	-0.343641	-0.895669
C244	C	0.608253	-0.312032	-0.921472
H245	H	0.523375	-0.246943	-0.984050
H246	H	0.468313	-0.301951	-0.939148
H247	H	0.502122	-0.363361	-0.883020
H248	H	0.590996	-0.369764	-0.871793
H249	H	0.646058	-0.314755	-0.916696
C250	C	0.709472	-0.479353	-0.156298
C251	C	0.705834	-0.472921	-0.105222
C252	C	0.737469	-0.498701	-0.073649
C253	C	0.772742	-0.530914	-0.093151
C254	C	0.776381	-0.537348	-0.144229
C255	C	0.744746	-0.511567	-0.175802
H256	H	0.679721	-0.449073	-0.090783
H257	H	0.734774	-0.493939	-0.035838
H258	H	0.796160	-0.549999	-0.069779
H259	H	0.802494	-0.561195	-0.158668
H260	H	0.747441	-0.516330	-0.213614
C261	C	-0.186098	-0.277008	-0.276859
C262	C	-0.179618	-0.273413	-0.327936
C263	C	-0.205425	-0.305060	-0.359491
C264	C	-0.237713	-0.340303	-0.339968
C265	C	-0.244194	-0.343900	-0.288888
C266	C	-0.218386	-0.312252	-0.257334
H267	H	-0.155715	-0.247322	-0.342391
H268	H	-0.200627	-0.302397	-0.397303
H269	H	-0.256817	-0.363730	-0.363326
H270	H	-0.268096	-0.369990	-0.274434
H271	H	-0.223184	-0.314915	-0.219521
C272	C	0.738292	-0.695156	-0.127623
C273	C	0.734655	-0.688719	-0.076548
C274	C	0.766291	-0.714496	-0.044973
C275	C	0.801564	-0.746711	-0.064473
C276	C	0.805202	-0.753150	-0.115550
C277	C	0.773566	-0.727372	-0.147125
H278	H	0.708543	-0.664870	-0.062111
H279	H	0.763597	-0.709729	-0.007162
H280	H	0.824982	-0.765793	-0.041099
H281	H	0.831314	-0.776998	-0.129987
H282	H	0.776259	-0.732139	-0.184936
C283	C	0.738338	-0.835914	-0.127645
C284	C	0.734709	-0.829496	-0.076567
C285	C	0.766344	-0.855292	-0.045006
C286	C	0.801607	-0.887507	-0.064523
C287	C	0.805237	-0.893927	-0.115604
C288	C	0.773602	-0.868131	-0.147164
H289	H	0.708604	-0.805647	-0.062117
H290	H	0.763656	-0.850539	-0.007193
H291	H	0.825025	-0.906603	-0.041160
H292	H	0.831342	-0.917776	-0.130054
H293	H	0.776290	-0.872883	-0.184977
H294	H	0.568248	-0.688532	-0.297365
H295	H	0.568229	-0.603423	-0.297360
H296	H	0.730104	-0.135628	-0.689010
C297	C	0.588680	-0.380892	-0.276827
C298	C	0.553417	-0.348673	-0.257317
C299	C	0.521789	-0.322876	-0.288885
C300	C	0.525425	-0.329299	-0.339961
C301	C	0.560690	-0.361519	-0.359473
C302	C	0.592318	-0.387316	-0.327906
H303	H	0.550724	-0.343918	-0.219505
H304	H	0.495684	-0.299024	-0.274440
H305	H	0.502012	-0.310202	-0.363329
H306	H	0.563383	-0.366275	-0.397286
H307	H	0.618423	-0.411168	-0.342350
H308	H	0.730047	-0.603351	-0.135815
H309	H	0.701427	-1.045060	-0.164556
C310	C	0.588775	-0.276853	-0.479844
C311	C	0.553515	-0.257380	-0.512085
C312	C	0.521884	-0.288980	-0.537864
C313	C	0.525514	-0.340052	-0.531403
C314	C	0.560776	-0.359528	-0.499160
C315	C	0.592406	-0.327928	-0.473381
H316	H	0.550826	-0.219571	-0.516869
H317	H	0.495781	-0.274562	-0.561732
H318	H	0.502099	-0.363444	-0.550486
H319	H	0.563464	-0.397337	-0.494376
H320	H	0.618509	-0.342346	-0.449513
H321	H	-0.094274	-0.268782	-0.268650
C322	C	0.128231	-0.127355	-0.127674
C323	C	0.121804	-0.076290	-0.131425
C324	C	0.147595	-0.044639	-0.099860
C325	C	0.179812	-0.064054	-0.064545
C326	C	0.186241	-0.115122	-0.060792
C327	C	0.160450	-0.146773	-0.092357
H328	H	0.097953	-0.061915	-0.157568
H329	H	0.142836	-0.006835	-0.102638
H330	H	0.198904	-0.040624	-0.041178
H331	H	0.210091	-0.129497	-0.034649
H332	H	0.165208	-0.184577	-0.089579
H333	H	0.597097	-1.045102	-0.268687
H334	H	0.036424	-0.135584	-0.135884
H335	H	0.478114	-0.268737	-0.268565
C336	C	0.709601	-0.156092	-0.953763
C337	C	0.705976	-0.105019	-0.960225
C338	C	0.737604	-0.073422	-0.934439
C339	C	0.772857	-0.092898	-0.902192
C340	C	0.776484	-0.143973	-0.895729
C341	C	0.744856	-0.175570	-0.921515
H342	H	0.679878	-0.090599	-0.984097
H343	H	0.734919	-0.035612	-0.939223
H344	H	0.796270	-0.069508	-0.883103
H345	H	0.802581	-0.158393	-0.871856
H346	H	0.747541	-0.213380	-0.916730
C347	C	0.386291	-0.156107	-0.156318
C348	C	0.392777	-0.105042	-0.160076
C349	C	0.366977	-0.073388	-0.128532
C350	C	0.334690	-0.092799	-0.093229
C351	C	0.328202	-0.143867	-0.089470
C352	C	0.354003	-0.175522	-0.121014
H353	H	0.416679	-0.090670	-0.186210
H354	H	0.371780	-0.035583	-0.131315
H355	H	0.315591	-0.069367	-0.069878
H356	H	0.304300	-0.158239	-0.063335
H357	H	0.349200	-0.213326	-0.118231
H358	H	0.393007	-0.268738	-0.268585
H359	H	0.177180	-0.297519	-0.297295
H360	H	0.730093	-0.744097	-0.135831
C361	C	0.588857	-0.953296	-0.276885
C362	C	0.537790	-0.959799	-0.273159
C363	C	0.506151	-0.934020	-0.304730
C364	C	0.525578	-0.901739	-0.340027
C365	C	0.576647	-0.895234	-0.343755
C366	C	0.608286	-0.921013	-0.312184
H367	H	0.523407	-0.983697	-0.247029
H368	H	0.468347	-0.938836	-0.301970
H369	H	0.502157	-0.882656	-0.363398
H370	H	0.591030	-0.871336	-0.369885
H371	H	0.646091	-0.916198	-0.314944
C372	C	0.588841	-0.276720	-1.052238
C373	C	0.557207	-0.308316	-1.026415
C374	C	0.525572	-0.339906	-1.052201
C375	C	0.525571	-0.339901	-1.103809
C376	C	0.557206	-0.308304	-1.129634
C377	C	0.588840	-0.276713	-1.103848
H378	H	0.557207	-0.308321	-0.988210
H379	H	0.502154	-0.363296	-1.033083
H380	H	0.502153	-0.363286	-1.122897
H381	H	0.557206	-0.308298	-1.167840
H382	H	0.612259	-0.253323	-1.122966
H383	H	0.177170	-0.135568	-0.135868
H384	H	0.701393	-0.164283	-1.045587
H385	H	0.568248	-0.297306	-0.688939
H386	H	0.596984	-0.268659	-0.388024
H387	H	0.568274	-0.297277	-0.829695
