data_functionalizedCrystal
_audit_creation_method	'MofGen! by Chris Wilmer'
_symmetry_space_group_name_H-M	'P1'
_symmetry_Int_Tables_number	1
_symmetry_cell_setting	triclinic
loop_
_symmetry_equiv_pos_as_xyz
  x,y,z
_cell_length_a	10.968094
_cell_length_b	16.109304
_cell_length_c	15.186229
_cell_angle_alpha	89.999066
_cell_angle_beta	102.124092
_cell_angle_gamma	84.099258
loop_
_atom_site_label
_atom_site_type_symbol
_atom_site_fract_x
_atom_site_fract_y
_atom_site_fract_z
O1	O	1.655581	0.116583	0.177983
O2	O	1.292294	0.127750	0.122860
O3	O	1.483915	0.001194	0.151935
O4	O	1.463959	0.243138	0.148908
O5	O	1.483903	0.001192	0.298390
O6	O	1.292281	0.127748	0.269315
O7	O	1.655568	0.116581	0.324439
Zn8	Zn	1.473923	0.122164	0.320130
Zn9	Zn	1.473939	0.122166	0.127169
O10	O	1.463947	0.243137	0.295363
C11	C	1.245801	0.126937	0.189034
C12	C	1.107284	0.124509	0.168015
C13	C	0.902351	0.120907	0.212784
C14	C	1.045514	0.123423	0.234516
C15	C	1.483100	-0.029787	0.225038
C16	C	1.480675	-0.122096	0.224664
C17	C	1.475078	-0.334465	0.143984
C18	C	1.472788	-0.421199	0.143638
C19	C	1.472780	-0.421198	0.303312
C20	C	1.475062	-0.334465	0.303657
C21	C	1.476217	-0.291102	0.223991
C22	C	1.471645	-0.464568	0.223300
C23	C	1.469162	-0.558608	0.222925
C24	C	1.478698	-0.197055	0.224366
C25	C	1.702061	0.117393	0.258263
C26	C	1.840578	0.119821	0.279275
C27	C	1.464762	0.274117	0.222259
C28	C	1.467187	0.366426	0.222627
N29	N	1.473920	0.122162	0.451822
N30	N	1.473952	0.122162	-0.004522
C31	C	1.558799	0.066142	0.690424
C32	C	1.558803	0.066140	0.782614
C33	C	1.389064	0.178184	0.756868
C34	C	1.389055	0.178182	0.664679
C35	C	1.473930	0.122162	0.631460
C36	C	1.473942	0.122162	0.815840
C37	C	1.473946	0.122161	0.915796
C38	C	1.473925	0.122162	0.531497
H39	H	1.098612	0.124351	0.307536
H40	H	0.893681	0.120750	0.352290
C41	C	1.476252	-0.287527	0.057389
C42	C	1.474729	-0.344069	-0.012756
C43	C	1.475788	-0.300862	-0.092546
H44	H	1.549842	-0.259615	0.065105
H45	H	1.404391	-0.247782	0.043121
H46	H	1.546582	-0.383800	0.001509
H47	H	1.401144	-0.371984	-0.020501
H48	H	1.403927	-0.261116	-0.106814
H49	H	1.549379	-0.272951	-0.084821
H50	H	1.474743	-0.339217	-0.140151
H51	H	1.627907	0.020526	0.663380
H52	H	1.475982	-0.299157	0.368811
C53	C	1.471297	-0.468303	0.056760
C54	C	1.362683	-0.509331	0.035604
C55	C	1.361256	-0.552722	-0.044430
H56	H	1.543038	-0.508128	0.064241
H57	H	1.472243	-0.430074	0.009331
H58	H	1.361748	-0.547557	0.083023
H59	H	1.290924	-0.469526	0.028105
H60	H	1.362201	-0.514492	-0.091860
H61	H	1.433001	-0.592542	-0.036941
H62	H	1.287557	-0.580558	-0.058799
H63	H	0.849250	0.119970	0.139770
H64	H	1.471842	-0.456515	0.368173
C65	C	1.036266	0.123306	0.070706
C66	C	0.908382	0.121080	0.068492
C67	C	0.842921	0.119983	-0.021132
H68	H	1.066929	0.075294	0.042470
H69	H	1.047930	0.172098	0.039650
H70	H	0.896726	0.072293	0.099535
H71	H	0.877683	0.169088	0.096709
H72	H	0.854585	0.168775	-0.052188
H73	H	0.873594	0.071971	-0.049360
H74	H	0.756144	0.118480	-0.022646
C75	C	1.296966	0.238918	0.600503
C76	C	1.315104	0.226908	0.512655
C77	C	1.230288	0.282831	0.453512
H78	H	1.310414	0.294526	0.617539
H79	H	1.213671	0.229380	0.602927
H80	H	1.398380	0.236453	0.510234
H81	H	1.301646	0.171312	0.495591
H82	H	1.146992	0.273293	0.455936
H83	H	1.243743	0.338435	0.470556
H84	H	1.242575	0.274685	0.393900
C85	C	1.651091	0.005284	0.846495
C86	C	1.725433	-0.043760	0.797670
C87	C	1.810475	-0.099825	0.856487
H88	H	1.606374	-0.029678	0.875679
H89	H	1.703088	0.035487	0.890323
H90	H	1.673443	-0.073961	0.753857
H91	H	1.770178	-0.008821	0.768487
H92	H	1.862472	-0.069622	0.900316
H93	H	1.765748	-0.134781	0.885669
H94	H	1.860934	-0.133103	0.823370
H95	H	1.319963	0.223796	0.783925
