data_functionalizedCrystal
_audit_creation_method	'MofGen! by Chris Wilmer'
_symmetry_space_group_name_H-M	'P1'
_symmetry_Int_Tables_number	1
_symmetry_cell_setting	triclinic
loop_
_symmetry_equiv_pos_as_xyz
  x,y,z
_cell_length_a	15.995363
_cell_length_b	14.472311
_cell_length_c	11.792241
_cell_angle_alpha	90.008428
_cell_angle_beta	96.154594
_cell_angle_gamma	89.998043
loop_
_atom_site_label
_atom_site_type_symbol
_atom_site_fract_x
_atom_site_fract_y
_atom_site_fract_z
O1	O	-1.111644	0.076774	0.146368
O2	O	-0.611644	0.576774	0.646368
O3	O	-0.867952	0.076790	0.164419
O4	O	-0.367952	0.576790	0.664419
O5	O	-0.995712	0.076775	-0.009826
O6	O	-0.495712	0.576775	0.490174
O7	O	-0.983884	0.076789	0.320613
O8	O	-0.483884	0.576789	0.820613
O9	O	-0.995700	-0.076907	-0.009843
O10	O	-0.495700	0.423093	0.490157
O11	O	-0.867940	-0.076892	0.164402
O12	O	-0.367940	0.423108	0.664402
O13	O	-1.111632	-0.076908	0.146351
O14	O	-0.611632	0.423092	0.646351
Cu15	Cu	-0.989785	-0.090932	0.155375
Cu16	Cu	-0.489785	0.409068	0.655375
Cu17	Cu	-0.989799	0.090814	0.155395
Cu18	Cu	-0.489799	0.590814	0.655395
O19	O	-0.983872	-0.076893	0.320596
O20	O	-0.483872	0.423107	0.820596
C21	C	-0.836748	-0.000048	0.163662
C22	C	-0.336748	0.499952	0.663662
C23	C	-0.743788	-0.000042	0.161417
C24	C	-0.243788	0.499958	0.661417
C25	C	-0.406006	-0.000065	0.153356
C26	C	0.093994	0.499935	0.653356
C27	C	-0.452876	-0.000413	0.029259
C28	C	0.047124	0.499587	0.529259
C29	C	-0.549576	-0.000059	0.031504
C30	C	-0.049576	0.499941	0.531504
C31	C	-0.573584	-0.000054	0.157354
C32	C	-0.073584	0.499946	0.657354
C33	C	-0.532781	0.087704	0.218571
C34	C	-0.032781	0.587704	0.718571
C35	C	-0.436132	0.087770	0.215448
C36	C	0.063868	0.587770	0.715448
C37	C	-0.435791	-0.086995	0.217993
C38	C	0.064209	0.413005	0.717993
C39	C	-0.532736	-0.088147	0.217969
C40	C	-0.032736	0.411853	0.717969
C41	C	-0.668291	-0.000045	0.159621
C42	C	-0.168291	0.499955	0.659621
C43	C	-0.311298	-0.000068	0.151093
C44	C	0.188702	0.499932	0.651093
N45	N	-0.989781	-0.218763	0.155360
N46	N	-0.489781	0.281237	0.655360
C47	C	-0.994963	-0.000065	-0.052120
C48	C	-0.494963	0.499935	0.447880
C49	C	-0.992739	-0.000064	-0.178115
C50	C	-0.492739	0.499936	0.321885
C51	C	-0.142837	-0.000070	0.147093
C52	C	0.357163	0.499930	0.647093
C53	C	-0.235801	-0.000077	0.149293
C54	C	0.264199	0.499923	0.649293
C55	C	-0.989791	-0.407263	0.155374
C56	C	-0.489791	0.092737	0.655374
C57	C	-1.058169	-0.446473	0.062171
C58	C	-0.558169	0.053527	0.562171
C59	C	-1.058419	-0.553561	0.062419
C60	C	-0.558419	-0.053561	0.562419
C61	C	-0.989800	-0.592854	0.155386
C62	C	-0.489800	-0.092854	0.655386
C63	C	-1.009058	-0.553958	0.273958
C64	C	-0.509058	-0.053958	0.773958
C65	C	-1.009544	-0.446836	0.273404
C66	C	-0.509544	0.053164	0.773404
C67	C	-0.901953	-0.446750	0.131074
C68	C	-0.401953	0.053250	0.631074
C69	C	-0.902535	-0.553878	0.128390
C70	C	-0.402535	-0.053878	0.628390
C71	C	-0.989803	-0.697743	0.155401
C72	C	-0.489803	-0.197743	0.655401
C73	C	-0.989789	-0.302375	0.155368
C74	C	-0.489789	0.197625	0.655368
N75	N	-0.989809	0.218645	0.155401
N76	N	-0.489809	0.718645	0.655401
C77	C	-0.988650	-0.000049	-0.408793
C78	C	-0.488650	0.499951	0.091207
C79	C	-0.990922	-0.000057	-0.280427
C80	C	-0.490922	0.499943	0.219573
C81	C	-0.984621	-0.000050	0.362889
C82	C	-0.484621	0.499950	0.862889
C83	C	-0.986845	-0.000045	0.488884
C84	C	-0.486845	0.499955	0.988884
H85	H	-0.434124	-0.063348	-0.020355
H86	H	0.065876	0.436652	0.479645
O87	O	-0.834546	-0.413155	0.221093
O88	O	-0.334546	0.086845	0.721093
H89	H	-0.803783	-0.473373	0.266503
H90	H	-0.303783	0.026627	0.766503
H91	H	-0.577782	-0.062968	-0.016615
H92	H	-0.077782	0.437032	0.483385
H93	H	-0.883491	-0.419744	0.046433
H94	H	-0.383491	0.080256	0.546433
O95	O	-0.426630	0.082476	-0.036159
O96	O	0.073370	0.582476	0.463841
H97	H	-0.380350	0.123921	0.019331
H98	H	0.119650	0.623921	0.519331
H99	H	-1.123599	-0.579185	0.077995
H100	H	-0.623599	-0.079185	0.577995
O101	O	-0.568640	-0.174145	0.158765
O102	O	-0.068640	0.325855	0.658765
H103	H	-0.517161	-0.214365	0.126202
H104	H	-0.017161	0.285635	0.626202
O105	O	-0.586203	0.083414	-0.032635
O106	O	-0.086203	0.583414	0.467365
H107	H	-0.534836	0.123692	-0.065369
H108	H	-0.034836	0.623692	0.434631
O109	O	-0.883166	-0.587561	0.012857
O110	O	-0.383166	-0.087561	0.512857
H111	H	-0.935465	-0.631881	-0.025187
H112	H	-0.435465	-0.131881	0.474813
O113	O	-1.144001	-0.410669	0.082358
O114	O	-0.644001	0.089331	0.582358
H115	H	-1.138176	-0.365092	0.158506
H116	H	-0.638176	0.134908	0.658506
H117	H	-0.961506	-0.420896	0.344700
H118	H	-0.461506	0.079104	0.844700
H119	H	-1.073609	-0.421848	0.294748
H120	H	-0.573609	0.078152	0.794748
H121	H	-1.072393	-0.580783	0.295814
H122	H	-0.572393	-0.080783	0.795814
H123	H	-1.046925	-0.579862	-0.025705
H124	H	-0.546925	-0.079862	0.474295
O125	O	-0.831949	-0.589299	0.212436
O126	O	-0.331949	-0.089299	0.712436
H127	H	-0.842866	-0.567522	0.299894
H128	H	-0.342866	-0.067522	0.799894
O129	O	-0.411609	0.174649	0.156308
O130	O	0.088391	0.674649	0.656308
H131	H	-0.468758	0.216219	0.130201
H132	H	0.031242	0.716219	0.630201
O133	O	-0.408361	-0.175114	0.164234
O134	O	0.091639	0.324886	0.664234
H135	H	-0.373187	-0.157930	0.090837
H136	H	0.126813	0.342070	0.590837
H137	H	-0.404297	0.091756	0.306558
H138	H	0.095703	0.591756	0.806558
O139	O	-0.553639	-0.095179	0.339533
O140	O	-0.053639	0.404821	0.839533
H141	H	-0.593640	-0.035726	0.358737
H142	H	-0.093640	0.464274	0.858737
H143	H	-0.960588	-0.579407	0.345006
H144	H	-0.460588	-0.079407	0.845006
H145	H	-0.547326	0.090971	0.311031
H146	H	-0.047326	0.590971	0.811031
H147	H	-0.404445	-0.087586	0.309489
H148	H	0.095555	0.412414	0.809489
O149	O	-0.570100	0.174221	0.162268
O150	O	-0.070100	0.674221	0.662268
H151	H	-0.617696	0.154938	0.090696
H152	H	-0.117696	0.654938	0.590696
H153	H	-1.046870	-0.420705	-0.026245
H154	H	-0.546870	0.079295	0.473755
