data_functionalizedCrystal
_audit_creation_method	'MofGen! by Chris Wilmer'
_symmetry_space_group_name_H-M	'P1'
_symmetry_Int_Tables_number	1
_symmetry_cell_setting	triclinic
loop_
_symmetry_equiv_pos_as_xyz
  x,y,z
_cell_length_a	14.809374
_cell_length_b	19.902436
_cell_length_c	14.809374
_cell_angle_alpha	81.051208
_cell_angle_beta	57.530506
_cell_angle_gamma	112.571071
loop_
_atom_site_label
_atom_site_type_symbol
_atom_site_fract_x
_atom_site_fract_y
_atom_site_fract_z
Zr1	Zr	1.000736	-0.702346	-0.231570
O2	O	1.191416	-0.591324	-0.398748
O3	O	0.810036	-0.727259	-0.165588
O4	O	1.000739	-0.718333	-0.377534
O5	O	1.000716	-0.617667	-0.036375
O6	O	1.000765	-0.828895	-0.377558
O7	O	1.000713	-0.600250	-0.186803
O8	O	0.659632	-0.844863	0.001574
O9	O	1.341849	-0.601699	-0.415507
O10	O	0.888500	-0.831416	-0.155265
O11	O	0.888484	-0.761902	-0.042985
O12	O	1.113012	-0.751392	-0.292524
O13	O	1.112996	-0.681879	-0.180243
Zr14	Zr	1.000782	-0.906458	0.008306
Zr15	Zr	1.000776	-0.878680	-0.231609
Zr16	Zr	1.000742	-0.730124	0.008345
Zr17	Zr	1.240660	-0.718894	-0.258298
Zr18	Zr	0.760858	-0.889910	0.035034
O19	O	1.191482	-0.881545	-0.057676
O20	O	1.191473	-0.842048	-0.398804
O21	O	1.191425	-0.630820	-0.057621
O22	O	0.810103	-1.017480	0.175484
O23	O	0.810094	-0.977983	-0.165643
O24	O	0.810045	-0.766756	0.175540
O25	O	1.000802	-0.991137	-0.186889
O26	O	1.000779	-0.890471	0.154270
O27	O	1.000753	-0.779909	0.154294
O28	O	1.000806	-1.008554	-0.036461
O29	O	1.341881	-0.741861	-0.415538
O30	O	0.659637	-0.866942	0.192274
O31	O	0.659669	-1.007105	0.192243
O32	O	0.659664	-0.985025	0.001543
O33	O	1.341854	-0.623779	-0.224807
O34	O	1.341886	-0.763941	-0.224838
O35	O	0.888506	-0.857412	0.069259
O36	O	0.888522	-0.926925	-0.043021
O37	O	1.113034	-0.846902	-0.180279
O38	O	1.113018	-0.777388	-0.067999
C39	C	0.700650	-0.783703	-0.078199
C40	C	0.598796	-0.776678	-0.066852
C41	C	0.553394	-0.808030	-0.117492
C42	C	0.448122	-0.800770	-0.105765
C43	C	1.000709	-0.583835	-0.111583
C44	C	1.000692	-0.508977	-0.111567
C45	C	1.000737	-0.236932	-0.111625
C46	C	0.859112	-0.315863	-0.025378
C47	C	0.859029	-0.393803	-0.024975
C48	C	1.000714	-0.371897	-0.111596
C49	C	1.071049	-0.328609	-0.067782
C50	C	1.070138	-0.251047	-0.067162
C51	C	1.073042	-0.229922	-0.241830
C52	C	1.070386	-0.308636	-0.241343
C53	C	1.000708	-0.448171	-0.111581
C54	C	1.000747	-0.160657	-0.111636
C55	C	1.300868	-0.825101	-0.145065
C56	C	1.402722	-0.832126	-0.156412
C57	C	1.000751	-0.769656	-0.411729
C58	C	1.000748	-0.757864	-0.513579
C59	C	1.000792	-0.024975	-0.111670
C60	C	1.000759	-0.099852	-0.111654
C61	C	1.000760	-0.810492	-0.559000
C62	C	1.000758	-0.798305	-0.664267
C63	C	1.000767	-0.839148	0.188465
C64	C	1.000770	-0.850940	0.290315
C65	C	0.700700	-1.004270	-0.078247
C66	C	0.598863	-1.072104	-0.066917
C67	C	0.700658	-0.818449	0.221898
C68	C	0.598806	-0.823217	0.335095
C69	C	0.700708	-1.039016	0.221849
C70	C	0.598874	-1.118642	0.335030
C71	C	1.300810	-0.569788	-0.445113
C72	C	1.402644	-0.490162	-0.558294
C73	C	1.300818	-0.604534	-0.145017
C74	C	1.402655	-0.536700	-0.156347
C75	C	1.300860	-0.790355	-0.445162
C76	C	1.402712	-0.785587	-0.558359
C77	C	0.551028	-1.054103	-0.120197
C78	C	0.455354	-1.117831	-0.109574
C79	C	0.407511	-1.199560	-0.045665
C80	C	0.455356	-1.217560	0.007615
C81	C	0.551034	-1.153832	-0.003015
C82	C	0.551059	-1.192328	0.329571
C83	C	0.455388	-1.267151	0.435906
C84	C	0.407527	-1.268287	0.547698
C85	C	0.455351	-1.194593	0.553153
C86	C	0.551026	-1.119772	0.446820
C87	C	1.450470	-0.416477	-0.552837
C88	C	1.546171	-0.341655	-0.659174
C89	C	1.594038	-0.340520	-0.770967
C90	C	1.546208	-0.414213	-0.776422
C91	C	1.450515	-0.489034	-0.670086
C92	C	1.450500	-0.554700	-0.103079
C93	C	1.546200	-0.490971	-0.113730
C94	C	1.594047	-0.409242	-0.177644
C95	C	1.546198	-0.391242	-0.230919
C96	C	1.450506	-0.454971	-0.220274
C97	C	0.633841	-0.770254	0.379035
C98	C	0.538154	-0.774716	0.485385
C99	C	0.407434	-0.832147	0.547798
C100	C	0.372399	-0.885112	0.503849
C101	C	0.468085	-0.880645	0.397496
C102	C	1.533417	-0.728152	-0.620739
C103	C	1.629130	-0.723671	-0.727092
C104	C	1.594137	-0.776623	-0.771067
C105	C	1.463419	-0.834064	-0.708677
C106	C	1.367708	-0.838548	-0.602321
H107	H	0.559728	-0.744465	-0.014813
H108	H	0.441778	-0.864348	-0.208447
H109	H	0.439541	-0.923779	0.361734
C110	C	0.784385	-0.325733	0.103940
H111	H	0.839123	-0.281963	0.105600
H112	H	0.711167	-0.324730	0.128735
H113	H	0.756785	-0.376595	0.157265
C114	C	1.699423	-0.771676	-0.888069
H115	H	1.659871	-0.811437	-0.905332
H116	H	1.751661	-0.718377	-0.953002
H117	H	1.751686	-0.782172	-0.878049
H118	H	0.329602	-1.251444	-0.037017
C119	C	0.784474	-0.436468	-0.063459
H120	H	0.753960	-0.406214	-0.079475
H121	H	0.840269	-0.438943	-0.134299
H122	H	0.713172	-0.490568	-0.000323
H123	H	0.416388	-1.284112	0.059650
H124	H	1.261283	-0.885317	-0.551542
H125	H	0.803343	-0.439490	0.071343
H126	H	1.585143	-0.505643	-0.070341
C127	C	0.783999	-0.307589	-0.063560
H128	H	0.838330	-0.255923	-0.132437
H129	H	0.756877	-0.350387	-0.082724
H130	H	0.710455	-0.311336	0.000925
H131	H	1.735560	-0.676893	-0.777879
H132	H	1.434944	-0.877175	-0.744498
H133	H	0.589944	-1.059777	0.451281
H134	H	1.671965	-0.357358	-0.186302
H135	H	0.566705	-0.731584	0.521153
C136	C	1.002608	-0.260710	0.061786
H137	H	0.975982	-0.311910	0.113300
H138	H	1.060978	-0.217341	0.060809
H139	H	0.929176	-0.258859	0.090813
H140	H	1.671956	-0.279591	-0.857544
C141	C	1.210501	-0.176171	-0.147632
H142	H	1.267826	-0.193249	-0.180549
H143	H	1.229150	-0.136943	-0.211383
H144	H	1.221123	-0.152141	-0.100585
H145	H	1.000738	-0.744224	-0.703304
C146	C	1.000774	-0.883550	-0.506259
H147	H	1.000782	-0.882154	-0.442430
H148	H	0.925808	-0.933505	-0.476070
H149	H	1.075764	-0.880055	-0.567744
H150	H	1.175225	-0.310373	-0.128243
H151	H	0.329533	-0.835775	0.634395
H152	H	0.590014	-1.191419	0.238554
H153	H	1.561934	-0.685028	-0.584953
C154	C	0.606147	-0.851558	-0.187783
H155	H	0.564003	-0.870293	-0.218024
H156	H	0.696495	-0.814178	-0.253259
H157	H	0.590460	-0.897074	-0.135413
C158	C	0.395362	-0.757244	-0.035466
H159	H	0.331536	-0.758069	-0.036814
H160	H	0.357992	-0.784850	0.045803
H161	H	0.464016	-0.701951	-0.072039
H162	H	1.411503	-0.417385	-0.461818
H163	H	1.411551	-0.621244	-0.051027
H164	H	1.585169	-0.324690	-0.282957
H165	H	1.022204	-0.373002	0.026691
H166	H	1.000729	-0.703787	-0.552620
H167	H	1.411576	-0.549028	-0.674543
C168	C	1.397870	-0.435161	-0.278856
H169	H	1.440067	-0.377359	-0.318430
H170	H	1.413545	-0.455464	-0.336068
H171	H	1.307522	-0.460426	-0.218202
C172	C	0.302288	-1.350592	0.664658
H173	H	0.280632	-1.340722	0.732025
H174	H	0.227632	-1.377264	0.672968
H175	H	0.333691	-1.384565	0.661141
H176	H	1.000775	-0.905026	-0.670639
H177	H	0.265955	-0.931871	0.554682
H178	H	0.589969	-1.168501	0.040380
H179	H	0.416368	-1.195530	0.644189
C180	C	0.603646	-0.964207	-0.190503
H181	H	0.667475	-0.928823	-0.189204
H182	H	0.640983	-0.951688	-0.271757
H183	H	0.534935	-0.956650	-0.153907
H184	H	1.019102	-0.337956	-0.274215
C185	C	1.011892	-0.214833	-0.293341
H186	H	0.941673	-0.212680	-0.235906
H187	H	1.074848	-0.164222	-0.365670
H188	H	0.981423	-0.258282	-0.310212
C189	C	0.402729	-1.098018	-0.168172
H190	H	0.444913	-1.040217	-0.207734
H191	H	0.418423	-1.118313	-0.225394
H192	H	0.312377	-1.123292	-0.107523
H193	H	0.416460	-1.327148	0.431443
H194	H	1.177374	-0.174240	-0.306203
C195	C	1.210033	-0.284328	-0.333801
H196	H	1.227755	-0.312563	-0.294306
H197	H	1.220111	-0.298652	-0.395371
H198	H	1.268395	-0.226765	-0.368749
C199	C	1.598852	-0.412958	-0.899394
H200	H	1.556673	-0.467557	-0.887427
H201	H	1.583160	-0.381613	-0.937395
H202	H	1.689204	-0.388937	-0.949220
H203	H	1.585098	-0.281659	-0.654709
H204	H	0.740274	-0.723485	0.328230
