data_functionalizedCrystal
_audit_creation_method	'MofGen! by Chris Wilmer'
_symmetry_space_group_name_H-M	'P1'
_symmetry_Int_Tables_number	1
_symmetry_cell_setting	triclinic
loop_
_symmetry_equiv_pos_as_xyz
  x,y,z
_cell_length_a	16.109302
_cell_length_b	16.109296
_cell_length_c	14.586319
_cell_angle_alpha	90.004442
_cell_angle_beta	89.994552
_cell_angle_gamma	96.539465
loop_
_atom_site_label
_atom_site_type_symbol
_atom_site_fract_x
_atom_site_fract_y
_atom_site_fract_z
O1	O	1.103128	-0.106869	-0.076283
O2	O	0.861066	-0.120168	-0.076276
O3	O	0.988749	0.007513	-0.076272
O4	O	0.975445	-0.234550	-0.076287
O5	O	0.988740	0.007515	0.076209
O6	O	0.861057	-0.120166	0.076205
O7	O	1.103119	-0.106867	0.076198
Cu8	Cu	0.982088	-0.113517	0.090124
Cu9	Cu	0.982098	-0.113519	-0.090202
O10	O	0.975436	-0.234548	0.076194
C11	C	0.830087	-0.119628	-0.000034
C12	C	0.737792	-0.118013	-0.000032
C13	C	0.525446	-0.114277	0.083077
C14	C	0.438726	-0.112750	0.083074
C15	C	0.438746	-0.112756	-0.083169
C16	C	0.525465	-0.114277	-0.083165
C17	C	0.568812	-0.115041	-0.000039
C18	C	0.395373	-0.111994	-0.000047
C19	C	0.301348	-0.110339	-0.000051
C20	C	0.662844	-0.116695	-0.000035
C21	C	0.988207	0.038489	-0.000032
C22	C	0.986593	0.130784	-0.000032
C23	C	1.134099	-0.107407	-0.000045
C24	C	1.226394	-0.109022	-0.000054
C25	C	1.057083	0.439783	-0.000046
C26	C	1.058606	0.353063	-0.000042
C27	C	0.907117	0.333190	-0.000025
C28	C	0.905594	0.419909	-0.000023
C29	C	0.980580	0.473203	-0.000038
C30	C	0.983626	0.299764	-0.000036
C31	C	0.985278	0.205738	-0.000031
C32	C	0.978929	0.567236	-0.000040
N33	N	0.982086	-0.113514	0.216956
C34	C	0.975984	0.734477	-0.000045
C35	C	0.977612	0.642183	-0.000042
N36	N	0.982106	-0.113514	-0.217034
C37	C	1.038643	-0.056996	0.451964
C38	C	1.038645	-0.056994	0.547945
C39	C	0.925543	-0.170035	0.547951
C40	C	0.925537	-0.170032	0.451972
C41	C	0.982092	-0.113514	0.403981
C42	C	0.982100	-0.113515	0.595941
C43	C	0.982102	-0.113513	0.700009
C44	C	0.982089	-0.113515	0.299907
H45	H	0.403442	-0.112135	-0.150847
O46	O	1.093442	-0.002024	0.405264
C47	C	1.048899	0.049292	0.349807
H48	H	0.983851	0.016164	0.335414
H49	H	1.043229	0.110713	0.386843
C50	C	1.175665	0.107813	0.276320
C51	C	1.095774	0.067122	0.258636
H52	H	1.204580	0.118816	0.220083
H53	H	1.205675	0.073243	0.313685
H54	H	1.170928	0.158993	0.307185
H55	H	1.100512	0.015939	0.227782
H56	H	1.065765	0.101684	0.221264
H57	H	1.084693	-0.010972	0.587011
O58	O	1.129865	0.491638	0.000070
C59	C	1.133526	0.542385	0.079052
H60	H	1.067535	0.546752	0.105385
H61	H	1.171489	0.513869	0.134348
C62	C	1.256439	0.625073	0.022719
C63	C	1.175387	0.630443	0.055057
H64	H	1.282263	0.679391	0.007920
H65	H	1.253975	0.590882	-0.030492
H66	H	1.288064	0.601307	0.068804
H67	H	1.143760	0.654199	0.008968
H68	H	1.177846	0.664640	0.108260
H69	H	0.879483	-0.216056	0.412901
O70	O	0.396723	-0.112049	0.163895
C71	C	0.453585	-0.113027	0.237259
H72	H	0.511952	-0.140420	0.212891
H73	H	0.471551	-0.046528	0.262821
C74	C	0.340896	-0.133277	0.345715
C75	C	0.412581	-0.166928	0.315788
H76	H	0.315602	-0.166522	0.394157
H77	H	0.302587	-0.132615	0.296289
H78	H	0.355878	-0.077862	0.367010
H79	H	0.397596	-0.222338	0.294483
H80	H	0.450886	-0.167601	0.365212
O81	O	0.831347	0.452516	0.000022
C82	C	0.846085	0.540484	0.000000
H83	H	0.910972	0.560865	0.028863
H84	H	0.842065	0.564620	-0.073152
C85	C	0.700266	0.551410	0.024353
C86	C	0.779959	0.576442	0.059811
H87	H	0.659475	0.573592	0.061244
H88	H	0.690336	0.492144	0.024365
H89	H	0.696928	0.571524	-0.036606
H90	H	0.783299	0.556319	0.120764
H91	H	0.789889	0.635706	0.059812
H92	H	0.879499	-0.216052	0.587035
H93	H	0.560737	-0.114899	0.150763
H94	H	1.120903	0.325856	-0.000046
H95	H	0.560776	-0.114898	-0.150852
O96	O	0.834358	0.281299	-0.000059
C97	C	0.852104	0.197591	-0.000042
H98	H	0.917407	0.194286	-0.028916
H99	H	0.848945	0.172513	0.073110
C100	C	0.707336	0.148556	-0.024373
C101	C	0.787540	0.144495	-0.059844
H102	H	0.667509	0.115802	-0.061258
H103	H	0.695379	0.204951	-0.024381
H104	H	0.704716	0.127659	0.036586
H105	H	0.790162	0.165401	-0.120797
H106	H	0.799497	0.088102	-0.059848
