data_functionalizedCrystal
_audit_creation_method	'MofGen! by Chris Wilmer'
_symmetry_space_group_name_H-M	'P1'
_symmetry_Int_Tables_number	1
_symmetry_cell_setting	triclinic
loop_
_symmetry_equiv_pos_as_xyz
  x,y,z
_cell_length_a	14.971486
_cell_length_b	17.699083
_cell_length_c	13.448316
_cell_angle_alpha	89.992503
_cell_angle_beta	89.998199
_cell_angle_gamma	83.448572
loop_
_atom_site_label
_atom_site_type_symbol
_atom_site_fract_x
_atom_site_fract_y
_atom_site_fract_z
O1	O	1.186608	0.098633	-0.082580
O2	O	0.926168	0.110445	-0.082607
O3	O	1.063746	-0.005632	-0.082584
O4	O	1.049030	0.214710	-0.082603
O5	O	1.063729	-0.005639	0.082800
O6	O	0.926150	0.110438	0.082777
O7	O	1.186591	0.098626	0.082804
Cu8	Cu	1.056369	0.104531	0.097891
Cu9	Cu	1.056390	0.104540	-0.097694
O10	O	1.049013	0.214703	0.082781
C11	C	0.892836	0.109913	0.000082
C12	C	0.793544	0.108330	0.000071
C13	C	0.736085	0.176522	0.000067
C14	C	0.642790	0.175030	0.000082
C15	C	0.606958	0.105346	0.000094
C16	C	0.664425	0.037148	0.000102
C17	C	0.757717	0.038641	0.000094
C18	C	0.469973	0.034042	0.000116
C19	C	0.376674	0.032549	0.000122
C20	C	0.355046	0.170431	0.000104
C21	C	0.448339	0.171924	0.000096
C22	C	0.505799	0.103726	0.000102
C23	C	1.063210	-0.033834	0.000108
C24	C	1.061628	-0.117856	0.000109
C25	C	1.142384	-0.166278	0.000118
C26	C	1.140892	-0.245225	0.000110
C27	C	1.058644	-0.275748	0.000098
C28	C	0.977882	-0.227320	0.000085
C29	C	0.979375	-0.148374	0.000087
C30	C	0.971860	-0.545698	0.000076
C31	C	0.970374	-0.624649	0.000077
C32	C	1.133378	-0.642548	0.000099
C33	C	1.134871	-0.563603	0.000101
C34	C	1.054109	-0.515181	0.000083
C35	C	1.055728	-0.429578	0.000090
C36	C	1.057024	-0.361350	0.000097
C37	C	1.219923	0.099158	0.000114
C38	C	1.319214	0.100741	0.000117
C39	C	1.049549	0.242905	0.000087
C40	C	1.051131	0.326927	0.000080
N41	N	1.056361	0.104525	0.235456
N42	N	1.056404	0.104540	-0.235258
C43	C	1.117300	0.053147	0.287506
C44	C	1.117306	0.053147	0.391610
C45	C	1.056376	0.104528	0.443660
C46	C	0.995431	0.155908	0.391602
C47	C	0.995422	0.155904	0.287501
C48	C	0.995456	0.155913	0.608582
C49	C	0.995466	0.155918	0.712691
C50	C	1.117339	0.053155	0.712691
C51	C	1.117330	0.053152	0.608590
C52	C	1.056386	0.104533	0.556539
H53	H	0.516756	-0.021492	0.000122
N54	N	1.220483	-0.694781	0.000106
H55	H	1.256385	-0.684948	-0.061194
H56	H	1.256294	-0.684939	0.061462
H57	H	0.635242	-0.019590	0.000126
H58	H	1.166926	0.011311	0.433989
H59	H	1.201846	-0.538756	0.000115
N60	N	1.183051	-0.002260	0.552445
H61	H	1.221659	-0.034810	0.601214
H62	H	1.148879	-0.035768	0.509266
N63	N	0.892280	-0.096137	0.000097
H64	H	0.889270	-0.062974	-0.061208
H65	H	0.839993	-0.127497	0.000133
N66	N	0.881659	-0.657573	0.000070
H67	H	0.830723	-0.614920	0.000059
H68	H	0.877501	-0.689937	-0.061237
H69	H	0.347502	-0.024194	0.000133
H70	H	1.206652	-0.284648	0.000120
H71	H	0.945799	0.197740	0.245122
N72	N	0.889167	-0.260233	0.000072
H73	H	0.884919	-0.292584	-0.061235
H74	H	0.884960	-0.292554	0.061421
N75	N	0.884758	-0.493478	0.000061
H76	H	0.832430	-0.524796	0.000058
H77	H	0.881819	-0.460338	0.061370
H78	H	1.166919	0.011310	0.245134
H79	H	1.166962	0.011319	0.755077
H80	H	0.945850	0.197757	0.755065
H81	H	0.596010	0.230559	0.000077
H82	H	0.804501	-0.016888	0.000097
N83	N	0.929712	0.211321	0.447745
H84	H	0.963819	0.244884	0.490922
H85	H	0.891118	0.243817	0.398913
H86	H	0.945826	0.197751	0.566206
H87	H	0.765252	0.233267	0.000056
H88	H	0.477510	0.228667	0.000076
H89	H	0.308257	0.225960	0.000104
N90	N	1.231095	-0.133359	0.000141
H91	H	1.282027	-0.176017	0.000144
H92	H	1.235274	-0.100987	-0.061167
