data_functionalizedCrystal
_audit_creation_method	'MofGen! by Chris Wilmer'
_symmetry_space_group_name_H-M	'P1'
_symmetry_Int_Tables_number	1
_symmetry_cell_setting	triclinic
loop_
_symmetry_equiv_pos_as_xyz
  x,y,z
_cell_length_a	6.817900
_cell_length_b	19.453103
_cell_length_c	25.601691
_cell_angle_alpha	99.050930
_cell_angle_beta	90.315674
_cell_angle_gamma	101.709178
loop_
_atom_site_label
_atom_site_type_symbol
_atom_site_fract_x
_atom_site_fract_y
_atom_site_fract_z
V1	V	-3.874907	-0.098837	-0.163298
O2	O	-3.874540	0.003049	-0.159939
O3	O	-3.818587	-0.194341	-0.162421
O4	O	-3.764327	-0.098063	-0.234408
O5	O	-3.929176	-0.093896	-0.087454
V6	V	-4.367619	-0.086562	-0.154197
O7	O	-4.116010	-0.125762	-0.183261
O8	O	-4.576713	-0.059636	-0.134234
O9	O	-4.200732	0.008942	-0.155073
O10	O	-4.485383	-0.188447	-0.157556
O11	O	-4.430747	-0.091503	-0.230040
O12	O	-4.254992	-0.087336	-0.083087
C13	C	-3.663673	-0.217599	-0.159907
C14	C	-3.698497	-0.295680	-0.159665
C15	C	-3.585123	-0.094799	-0.310960
C16	C	-3.594458	-0.094793	-0.251732
V17	V	-3.836446	-0.098866	-0.407046
O18	O	-3.866788	-0.093938	-0.482845
O19	O	-3.748729	-0.098079	-0.333249
O20	O	-3.776669	-0.194371	-0.428032
O21	O	-3.838655	0.003020	-0.387406
V22	V	-4.324767	-0.086598	-0.425791
O23	O	-4.081916	-0.125792	-0.399326
O24	O	-4.527702	-0.059678	-0.444886
O25	O	-4.190166	-0.087383	-0.493948
O26	O	-4.411355	-0.091527	-0.352958
O27	O	-4.439488	-0.188486	-0.448397
O28	O	-4.162226	0.008909	-0.399165
C29	C	-3.894345	-0.335960	-0.162166
C30	C	-3.927066	-0.409327	-0.161944
C31	C	-3.763928	-0.442407	-0.159209
C32	C	-3.568053	-0.402117	-0.156711
C33	C	-3.535337	-0.328754	-0.156938
N34	N	-3.683341	-0.548344	-0.126981
N35	N	-3.714432	-0.618037	-0.126764
C36	C	-3.862488	-0.663447	-0.158524
N37	N	-3.978309	-0.636531	-0.190503
N38	N	-3.947221	-0.566832	-0.190718
C39	C	-3.799383	-0.521957	-0.158962
C40	C	-4.093828	-0.783280	-0.160784
C41	C	-4.126542	-0.856648	-0.160565
C42	C	-3.767523	-0.849436	-0.155327
C43	C	-3.734815	-0.776071	-0.155552
C44	C	-3.897975	-0.742996	-0.158278
C45	C	-4.018989	0.032197	-0.157586
C46	C	-3.963400	0.110277	-0.157832
C47	C	-4.088205	-0.090615	-0.065760
C48	C	-4.076625	-0.090612	-0.007625
C49	C	-3.620749	-0.217625	-0.431865
C50	C	-3.652573	-0.295706	-0.450598
C51	C	-4.018466	-0.090660	-0.507728
C52	C	-3.988619	-0.090670	-0.565340
C53	C	-3.895943	-0.094151	0.017013
C54	C	-3.885065	-0.094153	0.071637
C55	C	-4.054890	-0.090630	0.101618
C56	C	-4.235593	-0.087086	0.076975
C57	C	-4.246460	-0.087077	0.022353
N58	N	-4.197733	-0.128231	0.184598
N59	N	-4.187398	-0.128242	0.236486
C60	C	-4.022156	-0.090656	0.266190
N61	N	-3.867615	-0.053069	0.242046
N62	N	-3.877948	-0.053062	0.190153
C63	C	-4.043125	-0.090639	0.160847
C64	C	-3.829666	-0.094197	0.350057
C65	C	-3.818792	-0.094194	0.404682
C66	C	-4.169331	-0.087135	0.410019
C67	C	-4.180194	-0.087130	0.355395
C68	C	-4.010358	-0.090665	0.325417
C69	C	-3.982827	0.032170	-0.386824
C70	C	-3.930325	0.110253	-0.367571
C71	C	-3.847011	-0.335982	-0.462139
C72	C	-3.876939	-0.409346	-0.479748
C73	C	-3.712428	-0.442434	-0.485813
C74	C	-3.517973	-0.402152	-0.474273
C75	C	-3.488047	-0.328788	-0.456667
C76	C	-3.731827	0.143327	-0.352309
C77	C	-3.682463	0.216695	-0.334225
C78	C	-3.831603	0.256987	-0.331400
C79	C	-4.030116	0.223908	-0.346665
C80	C	-4.079475	0.150542	-0.364752
H81	H	-4.027206	-0.309037	-0.164390
H82	H	-3.435227	-0.429056	-0.154486
H83	H	-4.393597	-0.084196	0.002294
H84	H	-3.980989	-0.309053	-0.457201
H85	H	-3.384038	-0.429103	-0.479214
H86	H	-3.691372	-0.097069	0.325648
H87	H	-3.610362	0.110531	-0.354609
H88	H	-4.151533	0.256725	-0.344362
H89	H	-4.035287	-0.442134	-0.489141
H90	H	-3.520815	0.243616	-0.321797
H91	H	-3.736824	-0.502172	-0.500149
H92	H	-4.286028	-0.889445	-0.162605
H93	H	-3.375852	-0.295957	-0.154902
H94	H	-3.671653	-0.097075	0.424741
H95	H	-3.329712	-0.296001	-0.447269
H96	H	-4.226682	-0.756349	-0.163003
H97	H	-4.307608	-0.084270	0.434429
H98	H	-3.757647	-0.097028	-0.007391
H99	H	-3.791385	0.316725	-0.316670
H100	H	-4.241115	0.123619	-0.377175
H101	H	-3.575336	-0.743272	-0.153511
H102	H	-4.373865	-0.084218	0.101389
H103	H	-3.634693	-0.876370	-0.153104
H104	H	-3.737920	-0.097024	0.091702
H105	H	-4.086554	-0.442129	-0.163980
H106	H	-4.327327	-0.084251	0.335335
