data_functionalizedCrystal
_audit_creation_method	'MofGen! by Chris Wilmer'
_symmetry_space_group_name_H-M	'P1'
_symmetry_Int_Tables_number	1
_symmetry_cell_setting	triclinic
loop_
_symmetry_equiv_pos_as_xyz
  x,y,z
_cell_length_a	23.096457
_cell_length_b	21.606444
_cell_length_c	21.606444
_cell_angle_alpha	59.999875
_cell_angle_beta	59.998221
_cell_angle_gamma	89.996160
loop_
_atom_site_label
_atom_site_type_symbol
_atom_site_fract_x
_atom_site_fract_y
_atom_site_fract_z
Zr1	Zr	-0.075983	0.596261	0.677433
O2	O	-0.168428	0.626568	0.677423
O3	O	-0.047646	0.497431	0.677439
O4	O	-0.168436	0.497447	0.806550
O5	O	0.047646	0.728394	0.446463
O6	O	-0.168439	0.497447	0.908404
O7	O	-0.047638	0.626552	0.548312
O8	O	0.047631	0.497418	0.677448
O9	O	-0.168424	0.728423	0.677419
O10	O	-0.035561	0.563460	0.753450
O11	O	0.035551	0.639463	0.601429
O12	O	-0.106663	0.639482	0.753440
O13	O	-0.035551	0.715484	0.601419
Zr14	Zr	0.075978	0.758687	0.677439
Zr15	Zr	-0.075988	0.596262	0.839877
Zr16	Zr	0.075984	0.758686	0.514995
Zr17	Zr	-0.075978	0.758707	0.677426
Zr18	Zr	0.075973	0.596242	0.677446
O19	O	0.047642	0.857518	0.677432
O20	O	-0.168435	0.626570	0.908398
O21	O	0.047650	0.857516	0.446457
O22	O	0.168423	0.728380	0.677448
O23	O	-0.047654	0.497432	0.908414
O24	O	0.168431	0.728378	0.446473
O25	O	-0.047650	0.626555	0.908409
O26	O	0.168431	0.857501	0.548321
O27	O	0.168435	0.857501	0.446468
O28	O	0.047633	0.728396	0.806559
O29	O	-0.168429	0.728423	0.806541
O30	O	0.168424	0.626525	0.548331
O31	O	0.168420	0.626526	0.677453
O32	O	0.047626	0.497419	0.806569
O33	O	-0.047631	0.857529	0.548302
O34	O	-0.047636	0.857530	0.677424
O35	O	0.106658	0.715466	0.601431
O36	O	0.035546	0.639464	0.753453
O37	O	-0.035556	0.715485	0.753443
O38	O	0.035556	0.791488	0.601422
C39	C	-0.000009	0.474280	0.677445
C40	C	-0.000011	0.405317	0.677448
C41	C	-0.037131	0.333246	0.756800
C42	C	-0.037127	0.268451	0.756798
C43	C	-0.000005	0.275729	0.677442
C44	C	0.037120	0.347808	0.598083
C45	C	0.037119	0.412601	0.598086
C46	C	0.037126	0.086505	0.598068
C47	C	0.037123	0.021704	0.598070
C48	C	-0.037120	-0.057645	0.756779
C49	C	-0.037121	0.007148	0.756783
C50	C	0.000007	0.079221	0.677424
C51	C	0.000003	0.149478	0.677428
C52	C	-0.000004	0.205473	0.677437
C53	C	-0.190077	0.677498	0.677419
C54	C	-0.254586	0.677506	0.677414
C55	C	-0.284887	0.621387	0.677426
C56	C	-0.345503	0.621381	0.677425
C57	C	-0.375823	0.677488	0.677429
C58	C	-0.345512	0.733617	0.677412
C59	C	-0.284893	0.733626	0.677404
N60	N	-0.494179	0.694468	0.726991
N61	N	-0.551765	0.694454	0.727001
C62	C	-0.558462	0.677464	0.677451
N63	N	-0.505404	0.660474	0.627903
N64	N	-0.447814	0.660484	0.627898
C65	C	-0.441553	0.677484	0.677437
C66	C	-0.654489	0.621335	0.677461
C67	C	-0.715104	0.621333	0.677455
C68	C	-0.715116	0.733567	0.677451
C69	C	-0.654499	0.733571	0.677449
C70	C	-0.624191	0.677451	0.677458
C71	C	0.190072	0.677450	0.677452
C72	C	0.254581	0.677442	0.677458
C73	C	0.000004	0.677473	0.474243
C74	C	0.000007	0.677472	0.405281
C75	C	0.000004	0.880669	0.677427
C76	C	0.000006	0.949631	0.677424
C77	C	0.037119	0.637788	0.372889
C78	C	0.037120	0.637791	0.308091
C79	C	0.000004	0.677475	0.275690
C80	C	-0.037110	0.717164	0.308085
C81	C	-0.037106	0.717165	0.372877
C82	C	-0.037125	0.717162	0.046783
C83	C	-0.037128	0.717157	-0.018012
C84	C	0.037100	0.637788	-0.018003
C85	C	0.037104	0.637789	0.046790
C86	C	-0.000006	0.677482	0.079175
C87	C	-0.000005	0.677479	0.149435
C88	C	-0.000002	0.677473	0.205436
C89	C	-0.000009	0.677475	0.880629
C90	C	-0.000012	0.677476	0.949591
C91	C	-0.190090	0.474305	0.880621
C92	C	-0.254603	0.405351	0.949580
C93	C	-0.000015	0.474281	0.880638
C94	C	-0.000020	0.405319	0.949603
C95	C	0.190079	0.677449	0.474259
C96	C	0.254590	0.677440	0.405303
C97	C	0.000011	0.880667	0.474234
C98	C	0.000015	0.949629	0.405269
C99	C	0.190085	0.880643	0.474251
C100	C	0.254599	0.949597	0.405291
C101	C	-0.190083	0.677500	0.880612
C102	C	-0.254595	0.677508	0.949569
C103	C	-0.322021	0.412652	0.981966
C104	C	-0.382644	0.347869	1.046770
C105	C	-0.375849	0.275786	1.079182
C106	C	-0.308424	0.268486	1.046794
C107	C	-0.247802	0.333269	0.981996
C108	C	-0.037145	0.333254	0.981995
C109	C	-0.037164	0.268451	1.046803
C110	C	-0.000052	0.275714	1.079215
C111	C	0.037075	0.347787	1.046820
C112	C	0.037088	0.412588	0.982017
C113	C	0.322009	0.717116	0.372915
C114	C	0.382631	0.717123	0.308114
C115	C	0.375832	0.677449	0.275707
C116	C	0.308406	0.637772	0.308098
C117	C	0.247786	0.637770	0.372893
C118	C	0.037134	1.021694	0.372884
C119	C	0.037136	1.086498	0.308093
C120	C	0.000022	1.079234	0.275684
C121	C	-0.037102	1.007161	0.308075
C122	C	-0.037107	0.942360	0.372870
C123	C	0.247780	1.021668	0.372895
C124	C	0.308392	1.086463	0.308092
C125	C	0.375822	1.079186	0.275689
C126	C	0.382638	1.007108	0.308088
C127	C	0.322027	0.942314	0.372886
C128	C	-0.247774	0.717186	0.981959
C129	C	-0.308383	0.717191	1.046760
C130	C	-0.375814	0.677524	1.079164
C131	C	-0.382634	0.637842	1.046770
C132	C	-0.322025	0.637832	0.981976
H133	H	-0.067364	0.327311	0.821421
H134	H	0.192882	1.027607	0.399269
H135	H	0.327558	0.749425	0.399291
H136	H	-0.370180	0.575680	0.677436
Cl137	Cl	0.083799	0.356957	0.498320
Cl138	Cl	0.083789	0.503207	0.498324
Cl139	Cl	0.452012	1.160650	0.194230
Cl140	Cl	-0.616384	0.550788	0.677469
Cl141	Cl	-0.299893	0.177861	1.087544
H142	H	0.302828	1.145146	0.281723
H143	H	-0.067354	0.749474	-0.044391
H144	H	-0.437538	0.353828	1.073130
Cl145	Cl	-0.753223	0.804106	0.677449
Cl146	Cl	0.452048	0.677458	0.194250
H147	H	0.067346	0.605476	0.399262
Cl148	Cl	0.299871	0.587898	0.267349
H149	H	0.067341	0.605477	0.281719
Cl150	Cl	0.083793	1.030846	0.413617
Cl151	Cl	-0.330613	0.587954	0.941256
H152	H	-0.067396	0.209772	1.073169
H153	H	-0.260218	0.575687	0.677440
H154	H	-0.067349	-0.116336	0.821398
Cl155	Cl	0.163033	0.587881	0.413606
H156	H	0.067318	0.605470	-0.044380
H157	H	-0.067375	0.327325	0.955622
H158	H	-0.067326	0.749480	0.281694
Cl159	Cl	0.083730	0.356905	1.087571
H160	H	-0.370201	0.779301	0.677412
H161	H	0.067325	0.605472	0.073170
Cl162	Cl	-0.163052	0.324077	0.941277
Cl163	Cl	-0.083760	0.767059	0.413595
Cl164	Cl	0.467412	0.997973	0.267347
Cl165	Cl	-0.083811	0.177848	0.856561
H166	H	-0.067319	1.001259	0.281678
H167	H	0.327589	0.883633	0.399261
H168	H	0.067369	1.145176	0.281727
H169	H	-0.067332	0.883684	0.399229
Cl170	Cl	-0.000075	0.194240	1.160681
Cl171	Cl	-0.083793	-0.002007	0.856549
Cl172	Cl	-0.246798	0.804182	0.677389
H173	H	-0.739771	0.575635	0.677459
Cl174	Cl	0.083805	0.177102	0.498302
Cl175	Cl	0.083771	0.503182	0.941298
H176	H	-0.425217	0.223042	1.131946
Cl177	Cl	0.467385	0.767003	0.267411
H178	H	0.000032	1.132006	0.222924
H179	H	-0.067355	0.749469	0.073157
H180	H	-0.437544	0.605546	1.073163
Cl181	Cl	-0.163011	0.767058	0.941238
Cl182	Cl	-0.299793	0.767087	1.087464
Cl183	Cl	-0.452002	0.677547	1.160618
Cl184	Cl	0.083795	0.030858	0.498300
Cl185	Cl	-0.330582	0.503264	0.941242
Cl186	Cl	-0.616405	0.804123	0.677437
