data_functionalizedCrystal
_audit_creation_method	'MofGen! by Chris Wilmer'
_symmetry_space_group_name_H-M	'P1'
_symmetry_Int_Tables_number	1
_symmetry_cell_setting	triclinic
loop_
_symmetry_equiv_pos_as_xyz
  x,y,z
_cell_length_a	16.120490
_cell_length_b	16.120484
_cell_length_c	16.120297
_cell_angle_alpha	95.614431
_cell_angle_beta	90.129683
_cell_angle_gamma	90.164100
loop_
_atom_site_label
_atom_site_type_symbol
_atom_site_fract_x
_atom_site_fract_y
_atom_site_fract_z
Zn1	Zn	1.224990	-0.422331	-0.554787
Zn2	Zn	1.474990	-0.172331	-0.304787
Zn3	Zn	1.724990	0.077669	-0.054787
Zn4	Zn	1.974990	0.327669	0.195213
Zn5	Zn	1.224886	-0.555015	-0.422092
Zn6	Zn	1.474886	-0.305015	-0.172092
Zn7	Zn	1.724886	-0.055015	0.077908
Zn8	Zn	1.974886	0.194985	0.327908
Zn9	Zn	1.093729	-0.408239	-0.408032
Zn10	Zn	1.343729	-0.158239	-0.158032
Zn11	Zn	1.593729	0.091761	0.091968
Zn12	Zn	1.843729	0.341761	0.341968
Zn13	Zn	1.078882	-0.554239	-0.554027
Zn14	Zn	1.328882	-0.304239	-0.304027
Zn15	Zn	1.578882	-0.054239	-0.054027
Zn16	Zn	1.828882	0.195761	0.195973
O17	O	1.155622	-0.484956	-0.484735
O18	O	1.405622	-0.234956	-0.234735
O19	O	1.655622	0.015044	0.015265
O20	O	1.905622	0.265044	0.265265
O21	O	1.341012	-0.446153	-0.543386
O22	O	1.591012	-0.196153	-0.293386
O23	O	1.841012	0.053847	-0.043386
O24	O	2.091012	0.303847	0.206614
O25	O	1.213657	-0.529972	-0.303594
O26	O	1.463657	-0.279972	-0.053594
O27	O	1.713657	-0.029972	0.196406
O28	O	1.963657	0.220028	0.446406
O29	O	1.117398	-0.293478	-0.421933
O30	O	1.367398	-0.043478	-0.171933
O31	O	1.617398	0.206522	0.078067
O32	O	1.867398	0.456522	0.328067
O33	O	1.340936	-0.543636	-0.445896
O34	O	1.590936	-0.293636	-0.195896
O35	O	1.840936	-0.043636	0.054104
O36	O	2.090936	0.206364	0.304104
O37	O	1.213835	-0.303831	-0.529753
O38	O	1.463835	-0.053831	-0.279753
O39	O	1.713835	0.196169	-0.029753
O40	O	1.963835	0.446169	0.220247
O41	O	1.117297	-0.422137	-0.293264
O42	O	1.367297	-0.172137	-0.043264
O43	O	1.617297	0.077863	0.206736
O44	O	1.867297	0.327863	0.456736
O45	O	0.975724	-0.421385	-0.421197
O46	O	1.225724	-0.171385	-0.171197
O47	O	1.475724	0.078615	0.078803
O48	O	1.725724	0.328615	0.328803
O49	O	1.092094	-0.542314	-0.670761
O50	O	1.342094	-0.292314	-0.420761
O51	O	1.592094	-0.042314	-0.170761
O52	O	1.842094	0.207686	0.079239
O53	O	0.964816	-0.528650	-0.528459
O54	O	1.214816	-0.278650	-0.278459
O55	O	1.464816	-0.028650	-0.028459
O56	O	1.714816	0.221350	0.221541
O57	O	1.199439	-0.445401	-0.671319
O58	O	1.449439	-0.195401	-0.421319
O59	O	1.699439	0.054599	-0.171319
O60	O	1.949439	0.304599	0.078681
O61	O	1.199261	-0.671542	-0.445159
O62	O	1.449261	-0.421542	-0.195159
O63	O	1.699261	-0.171542	0.054841
O64	O	1.949261	0.078458	0.304841
O65	O	1.091993	-0.670972	-0.542092
O66	O	1.341993	-0.420972	-0.292092
O67	O	1.591993	-0.170972	-0.042092
O68	O	1.841993	0.079028	0.207908
C69	C	0.940183	-0.473405	-0.473221
C70	C	1.190183	-0.223405	-0.223221
C71	C	1.440183	0.026595	0.026779
C72	C	1.690183	0.276595	0.276779
C73	C	0.848015	-0.468484	-0.468316
C74	C	1.098015	-0.218484	-0.218316
C75	C	1.348015	0.031516	0.031684
C76	C	1.598015	0.281516	0.281684
C77	C	0.632820	-0.510474	-0.510179
C78	C	0.882820	-0.260474	-0.260179
C79	C	1.132820	-0.010474	-0.010179
C80	C	1.382820	0.239526	0.239821
C81	C	0.679267	-0.459508	-0.459359
C82	C	0.929267	-0.209508	-0.209359
C83	C	1.179267	0.040492	0.040641
C84	C	1.429267	0.290492	0.290641
C85	C	0.773167	-0.464504	-0.464344
C86	C	1.023167	-0.214504	-0.214344
C87	C	1.273167	0.035496	0.035656
C88	C	1.523167	0.285496	0.285656
C89	C	0.538912	-0.505479	-0.505195
C90	C	0.788912	-0.255479	-0.255195
C91	C	1.038912	-0.005479	-0.005195
C92	C	1.288912	0.244521	0.244805
C93	C	1.144026	-0.701500	-0.495088
C94	C	1.394026	-0.451500	-0.245088
C95	C	1.644026	-0.201500	0.004912
C96	C	1.894026	0.048500	0.254912
C97	C	1.139140	-0.794144	-0.499550
C98	C	1.389140	-0.544144	-0.249550
C99	C	1.639140	-0.294144	0.000450
C100	C	1.889140	-0.044144	0.250450
C101	C	1.130223	-0.963767	-0.507712
C102	C	1.380223	-0.713767	-0.257712
C103	C	1.630223	-0.463767	-0.007712
C104	C	1.880223	-0.213767	0.242288
C105	C	1.181169	-1.005313	-0.461779
C106	C	1.431169	-0.755313	-0.211779
C107	C	1.681169	-0.505313	0.038221
C108	C	1.931169	-0.255313	0.288221
C109	C	1.176207	-1.099697	-0.466320
C110	C	1.426207	-0.849697	-0.216320
C111	C	1.676207	-0.599697	0.033680
C112	C	1.926207	-0.349697	0.283680
C113	C	1.135183	-0.869375	-0.503171
C114	C	1.385183	-0.619375	-0.253171
C115	C	1.635183	-0.369375	-0.003171
C116	C	1.885183	-0.119375	0.246829
C117	C	1.371902	-0.496553	-0.496294
C118	C	1.621902	-0.246553	-0.246294
C119	C	1.871902	0.003447	0.003706
C120	C	2.121902	0.253447	0.253706
C121	C	1.464068	-0.501495	-0.501220
C122	C	1.714068	-0.251495	-0.251220
C123	C	1.964068	-0.001495	-0.001220
C124	C	2.214068	0.248505	0.248780
C125	C	1.144122	-0.495343	-0.702127
C126	C	1.394122	-0.245343	-0.452127
C127	C	1.644122	0.004657	-0.202127
C128	C	1.894122	0.254657	0.047873
C129	C	1.139222	-0.499770	-0.794767
C130	C	1.389222	-0.249770	-0.544767
C131	C	1.639222	0.000230	-0.294767
C132	C	1.889222	0.250230	-0.044767
C133	C	1.167284	-0.267568	-0.474360
C134	C	1.417284	-0.017568	-0.224360
C135	C	1.667284	0.232432	0.025640
C136	C	1.917284	0.482432	0.275640
C137	C	1.172254	-0.174931	-0.469939
C138	C	1.422254	0.075069	-0.219939
C139	C	1.672254	0.325069	0.030061
C140	C	1.922254	0.575069	0.280061
C141	C	1.130245	-0.507831	-0.964378
C142	C	1.380245	-0.257831	-0.714378
C143	C	1.630245	-0.007831	-0.464378
C144	C	1.880245	0.242169	-0.214378
C145	C	1.181175	-0.461840	-1.005939
C146	C	1.431175	-0.211840	-0.755939
C147	C	1.681175	0.038160	-0.505939
C148	C	1.931175	0.288160	-0.255939
C149	C	1.176180	-0.466326	-1.100317
C150	C	1.426180	-0.216326	-0.850317
C151	C	1.676180	0.033674	-0.600317
C152	C	1.926180	0.283674	-0.350317
C153	C	1.135239	-0.503346	-0.869992
C154	C	1.385239	-0.253346	-0.619992
C155	C	1.635239	-0.003346	-0.369992
C156	C	1.885239	0.246654	-0.119992
C157	C	1.167128	-0.474552	-0.268187
C158	C	1.417128	-0.224552	-0.018187
C159	C	1.667128	0.025448	0.231813
C160	C	1.917128	0.275448	0.481813
C161	C	1.172201	-0.469899	-0.175545
C162	C	1.422201	-0.219899	0.074455
C163	C	1.672201	0.030101	0.324455
C164	C	1.922201	0.280101	0.574455
H165	H	0.663575	-0.557856	-0.557426
H166	H	0.913575	-0.307856	-0.307426
H167	H	1.163575	-0.057856	-0.057426
H168	H	1.413575	0.192144	0.192574
C169	C	1.066284	-0.565575	-1.012054
C170	C	1.316284	-0.315575	-0.762054
C171	C	1.566284	-0.065575	-0.512054
C172	C	1.816284	0.184425	-0.262054
H173	H	1.034981	-0.593842	-0.973568
H174	H	1.284981	-0.343842	-0.723568
H175	H	1.534981	-0.093842	-0.473568
H176	H	1.784981	0.156158	-0.223568
H177	H	1.094300	-0.605168	-1.049451
H178	H	1.344300	-0.355168	-0.799451
H179	H	1.594300	-0.105168	-0.549451
H180	H	1.844300	0.144832	-0.299451
H181	H	1.030100	-0.533335	-1.042552
H182	H	1.280100	-0.283335	-0.792552
H183	H	1.530100	-0.033335	-0.542552
H184	H	1.780100	0.216665	-0.292552
H185	H	1.228511	-0.969997	-0.419042
H186	H	1.478511	-0.719997	-0.169042
H187	H	1.728511	-0.469997	0.080958
H188	H	1.978511	-0.219997	0.330958
H189	H	1.082883	-0.999080	-0.550444
H190	H	1.332883	-0.749080	-0.300444
H191	H	1.582883	-0.499080	-0.050444
H192	H	1.832883	-0.249080	0.199556
H193	H	1.228527	-0.419097	-0.970641
H194	H	1.478527	-0.169097	-0.720641
H195	H	1.728527	0.080903	-0.470641
H196	H	1.978527	0.330903	-0.220641
C197	C	0.637724	-0.395491	-0.395530
C198	C	0.887724	-0.145491	-0.145530
C199	C	1.137724	0.104509	0.104470
C200	C	1.387724	0.354509	0.354470
H201	H	0.579148	-0.400491	-0.400508
H202	H	0.829148	-0.150491	-0.150508
H203	H	1.079148	0.099509	0.099492
H204	H	1.329148	0.349509	0.349492
H205	H	0.654213	-0.340837	-0.405879
H206	H	0.904213	-0.090837	-0.155879
H207	H	1.154213	0.159163	0.094121
H208	H	1.404213	0.409163	0.344121
H209	H	0.654172	-0.405666	-0.340820
H210	H	0.904172	-0.155666	-0.090820
H211	H	1.154172	0.094334	0.159180
H212	H	1.404172	0.344334	0.409180
