data_functionalizedCrystal
_audit_creation_method	'MofGen! by Chris Wilmer'
_symmetry_space_group_name_H-M	'P1'
_symmetry_Int_Tables_number	1
_symmetry_cell_setting	triclinic
loop_
_symmetry_equiv_pos_as_xyz
  x,y,z
_cell_length_a	12.837943
_cell_length_b	14.586319
_cell_length_c	16.109301
_cell_angle_alpha	90.001610
_cell_angle_beta	89.145210
_cell_angle_gamma	90.005121
loop_
_atom_site_label
_atom_site_type_symbol
_atom_site_fract_x
_atom_site_fract_y
_atom_site_fract_z
O1	O	1.375384	0.076230	0.216125
O2	O	1.073582	0.076235	0.205448
O3	O	1.232773	0.076223	0.090414
O4	O	1.216192	0.076242	0.331159
O5	O	1.232754	-0.076257	0.090420
O6	O	1.073562	-0.076245	0.205454
O7	O	1.375364	-0.076251	0.216131
Cu8	Cu	1.224461	-0.090171	0.210793
Cu9	Cu	1.224484	0.090156	0.210786
O10	O	1.216172	-0.076239	0.331165
C11	C	1.034953	-0.000005	0.201845
C12	C	0.919879	-0.000003	0.191088
N13	N	1.224453	-0.217002	0.210798
C14	C	1.232092	-0.000018	0.059389
C15	C	1.230078	-0.000019	-0.033066
C16	C	0.678877	-0.000006	0.320405
C17	C	0.570755	-0.000005	0.310302
C18	C	0.595510	-0.000007	0.160779
C19	C	0.703632	-0.000008	0.170882
C20	C	0.745312	-0.000006	0.250698
C21	C	0.853436	-0.000000	0.260800
C22	C	0.878189	-0.000009	0.111278
C23	C	0.770067	-0.000008	0.101175
C24	C	1.413993	-0.000009	0.219735
C25	C	1.529067	-0.000004	0.230491
C26	C	1.287320	-0.452006	0.266221
C27	C	1.287331	-0.547987	0.266216
C28	C	1.161632	-0.548003	0.155346
C29	C	1.161627	-0.452023	0.155348
C30	C	1.224469	-0.404027	0.210790
C31	C	1.224485	-0.595988	0.210783
C32	C	1.224496	-0.700055	0.210778
C33	C	1.224460	-0.299953	0.210795
N34	N	1.224501	0.216987	0.210775
C35	C	1.319857	-0.000006	-0.248206
C36	C	1.317957	0.000002	-0.335078
C37	C	1.129081	0.000001	-0.330208
C38	C	1.130983	0.000000	-0.243338
C39	C	1.226374	-0.000008	-0.202340
C40	C	1.222572	0.000001	-0.376081
C41	C	1.220511	0.000009	-0.470271
C42	C	1.228435	-0.000014	-0.108144
C43	C	1.216854	0.000004	0.362190
C44	C	1.218868	0.000012	0.454645
H45	H	0.887369	-0.000000	0.325790
H46	H	1.110467	-0.587093	0.110208
H47	H	1.051417	0.000006	-0.363600
H48	H	0.516666	-0.000007	0.367065
H49	H	1.110446	-0.412958	0.110205
H50	H	1.054852	0.000001	-0.205992
H51	H	1.394081	0.000005	-0.372419
H52	H	0.712813	-0.000003	0.385393
H53	H	1.397531	-0.000011	-0.214828
H54	H	0.561555	-0.000084	0.095797
H55	H	0.736116	-0.000020	0.036192
H56	H	1.338490	-0.412930	0.311366
H57	H	0.932293	-0.000003	0.054518
H58	H	1.338511	-0.587047	0.311353
