data_functionalizedCrystal
_audit_creation_method	'MofGen! by Chris Wilmer'
_symmetry_space_group_name_H-M	'P1'
_symmetry_Int_Tables_number	1
_symmetry_cell_setting	triclinic
loop_
_symmetry_equiv_pos_as_xyz
  x,y,z
_cell_length_a	13.185407
_cell_length_b	15.944493
_cell_length_c	11.804365
_cell_angle_alpha	101.834508
_cell_angle_beta	82.231191
_cell_angle_gamma	67.724264
loop_
_atom_site_label
_atom_site_type_symbol
_atom_site_fract_x
_atom_site_fract_y
_atom_site_fract_z
O1	O	1.469046	-0.240781	-0.099024
O2	O	1.151531	-0.155633	-0.099022
O3	O	1.318994	-0.322455	-0.099033
O4	O	1.301583	-0.073959	-0.099013
O5	O	1.274908	-0.278572	0.099026
O6	O	1.107445	-0.111749	0.099037
O7	O	1.424959	-0.196898	0.099035
Cu8	Cu	1.262177	-0.150317	0.117120
Cu9	Cu	1.314314	-0.202214	-0.117107
O10	O	1.257496	-0.030075	0.099046
C11	C	1.088858	-0.125059	0.000007
C12	C	0.967792	-0.099348	0.000007
C13	C	0.678589	-0.344730	-0.000008
C14	C	0.792335	-0.368888	0.000000
C15	C	0.836205	-0.301505	0.000001
C16	C	0.766318	-0.209960	-0.000004
C17	C	0.652559	-0.185798	-0.000003
C18	C	0.810175	-0.142573	0.000006
C19	C	0.740288	-0.051028	0.000001
C20	C	0.626541	-0.026870	0.000002
C21	C	0.582670	-0.094253	0.000000
C22	C	0.923934	-0.166735	0.000005
C23	C	0.897904	-0.007803	0.000010
C24	C	0.784158	0.016355	0.000002
C25	C	1.296241	-0.331649	-0.000009
C26	C	1.294111	-0.424418	-0.000024
C27	C	1.392677	-0.682461	-0.000002
C28	C	1.361258	-0.742647	-0.097654
C29	C	1.290156	-0.594242	-0.000009
C30	C	1.317769	-0.699352	0.097616
C31	C	1.286341	-0.758286	0.000010
C32	C	1.258782	-0.653224	-0.097742
C33	C	1.215288	-0.609910	0.097616
C34	C	1.183799	-0.670051	-0.000060
C35	C	1.292356	-0.499742	-0.000021
C36	C	1.284135	-0.852784	0.000014
C37	C	1.487633	-0.227472	0.000003
C38	C	1.608701	-0.253185	-0.000005
C39	C	1.280250	-0.020883	0.000019
C40	C	1.282382	0.071885	0.000026
N41	N	1.225514	-0.113817	0.281863
N42	N	1.350985	-0.238722	-0.281850
C43	C	1.439026	-0.326388	0.655798
C44	C	1.466760	-0.354003	0.531134
C45	C	1.406451	-0.293959	0.468810
C46	C	1.318403	-0.206295	0.531162
C47	C	1.290672	-0.178673	0.655838
C48	C	1.258096	-0.146245	0.468850
C49	C	1.170049	-0.058580	0.531202
C50	C	1.142321	-0.030964	0.655866
C51	C	1.202631	-0.091008	0.718190
C52	C	1.285827	-0.173866	0.344175
C53	C	1.137473	-0.026152	0.344215
C54	C	1.109739	0.001464	0.468878
H55	H	0.980826	-0.241272	0.000008
H56	H	1.095431	-0.665546	-0.000113
H57	H	1.088365	0.022743	0.293471
H58	H	1.153650	-0.552875	0.180178
O59	O	1.175509	-0.064054	0.839291
C60	C	1.084890	0.026208	0.880965
H61	H	1.035905	0.039607	0.809133
H62	H	1.026609	0.029980	0.964371
H63	H	1.118876	0.082023	0.903091
H64	H	0.569638	0.047675	0.000009
O65	O	0.860365	-0.457756	0.000047
C66	C	0.970178	-0.464640	0.000016
H67	H	0.966185	-0.391338	0.037521
H68	H	1.008924	-0.511834	0.057510
H69	H	1.024224	-0.496313	-0.095005
H70	H	1.488128	-0.375265	0.706550
H71	H	1.342712	-0.719786	0.180168
H72	H	1.233906	-0.632932	-0.180388
H73	H	0.727240	0.090893	-0.000001
H74	H	1.538449	-0.425377	0.480372
H75	H	1.422933	-0.799675	-0.180214
H76	H	0.928823	-0.321180	0.000008
H77	H	1.357516	-0.245242	0.293419
H78	H	0.642851	-0.399576	0.000025
O79	O	1.433183	-0.320730	0.347713
C80	C	1.338944	-0.323704	0.306084
H81	H	1.258706	-0.276079	0.377943
H82	H	1.335155	-0.298173	0.222686
H83	H	1.346766	-0.399262	0.283959
O84	O	0.472228	-0.070934	-0.000164
C85	C	0.464205	-0.129166	-0.102762
H86	H	0.544973	-0.197063	-0.136962
H87	H	0.389370	-0.146964	-0.079700
H88	H	0.451782	-0.090561	-0.174585
O89	O	1.056661	0.054134	0.716380
C90	C	0.955490	0.058096	0.685917
H91	H	0.962599	-0.016634	0.651646
H92	H	0.882520	0.098274	0.767915
H93	H	0.939542	0.095853	0.613558
O94	O	0.940314	0.057785	0.000060
C95	C	0.854244	0.143761	0.000037
H96	H	0.768624	0.145999	0.037535
H97	H	0.865214	0.205097	0.057540
H98	H	0.859294	0.149709	-0.094981
O99	O	1.498108	-0.687716	-0.000350
C100	C	1.574734	-0.756633	-0.103506
H101	H	1.527332	-0.767512	-0.175088
H102	H	1.640724	-0.732120	-0.137616
H103	H	1.618109	-0.825994	-0.081232
O104	O	1.024076	0.086558	0.529402
C105	C	0.922905	0.090519	0.498940
H106	H	0.930020	0.015788	0.464656
H107	H	0.849938	0.130685	0.580943
H108	H	0.906947	0.128285	0.426592
