data_functionalizedCrystal
_audit_creation_method	'MofGen! by Chris Wilmer'
_symmetry_space_group_name_H-M	'P1'
_symmetry_Int_Tables_number	1
_symmetry_cell_setting	triclinic
loop_
_symmetry_equiv_pos_as_xyz
  x,y,z
_cell_length_a	18.101398
_cell_length_b	18.050590
_cell_length_c	18.101389
_cell_angle_alpha	90.019149
_cell_angle_beta	90.009745
_cell_angle_gamma	90.014109
loop_
_atom_site_label
_atom_site_type_symbol
_atom_site_fract_x
_atom_site_fract_y
_atom_site_fract_z
Zn1	Zn	1.132186	-0.295825	0.418547
Zn2	Zn	1.132109	-0.420000	0.294704
Zn3	Zn	1.008344	-0.295818	0.294740
Zn4	Zn	1.008322	-0.419968	0.418524
O5	O	1.070240	-0.357903	0.356628
O6	O	1.235808	-0.312313	0.402113
O7	O	1.115668	-0.403537	0.191076
O8	O	1.024814	-0.191895	0.311187
O9	O	1.235752	-0.403544	0.311126
O10	O	1.115799	-0.191900	0.402148
O11	O	1.024739	-0.312301	0.191102
O12	O	0.904709	-0.312271	0.311165
O13	O	1.024776	-0.403491	0.522160
O14	O	0.904692	-0.403484	0.402109
O15	O	1.115778	-0.312283	0.522177
O16	O	1.115647	-0.523920	0.311104
O17	O	1.024701	-0.523897	0.402074
C18	C	0.877830	-0.357874	0.356639
C19	C	0.795516	-0.357879	0.356661
C20	C	0.496425	-0.357923	0.356630
C21	C	0.527764	-0.415589	0.413567
C22	C	0.613383	-0.415408	0.413801
C23	C	0.644807	-0.357902	0.356645
C24	C	0.613736	-0.279684	0.377974
C25	C	0.528091	-0.280030	0.378379
C26	C	0.527976	-0.377785	0.278227
C27	C	0.613627	-0.379502	0.278646
C28	C	0.728667	-0.357885	0.356653
C29	C	0.412565	-0.357934	0.356624
C30	C	1.070183	-0.550855	0.356599
C31	C	1.070227	-0.633401	0.356611
C32	C	1.119786	-0.832837	0.307211
C33	C	1.137875	-0.882182	0.374798
C34	C	1.070269	-0.784531	0.356641
C35	C	1.052255	-0.882268	0.289084
C36	C	1.070311	-0.930516	0.356663
C37	C	1.088393	-0.832789	0.424263
C38	C	1.002741	-0.832871	0.338504
C39	C	1.020805	-0.882193	0.406138
C40	C	1.070246	-0.700433	0.356627
C41	C	1.070333	-1.014613	0.356685
C42	C	1.263402	-0.357933	0.356619
C43	C	1.345716	-0.357946	0.356614
C44	C	1.070283	-0.357884	0.549790
C45	C	1.070301	-0.357876	0.632105
C46	C	1.070318	-0.164197	0.356674
C47	C	1.070350	-0.081652	0.356694
C48	C	1.070240	-0.357868	0.164218
C49	C	1.070365	-0.357667	0.081904
C50	C	1.070344	-0.357737	0.931196
C51	C	1.012891	-0.414940	0.899860
C52	C	1.013047	-0.415205	0.814242
C53	C	1.070322	-0.357806	0.782813
C54	C	1.148352	-0.379056	0.813899
C55	C	1.148032	-0.379431	0.899544
C56	C	1.050446	-0.279157	0.899626
C57	C	1.048710	-0.279611	0.813975
C58	C	1.070315	-0.357844	0.698954
C59	C	1.070357	-0.357701	1.015055
H60	H	0.507709	-0.335782	0.235804
C61	C	1.109096	-0.803559	0.501476
H62	H	1.108981	-0.750930	0.500990
H63	H	1.074159	-0.820852	0.536625
H64	H	1.156935	-0.820853	0.514441
H65	H	1.195000	-0.903844	0.390152
H66	H	1.026185	-0.473451	0.793755
H67	H	0.507162	-0.473782	0.400348
H68	H	0.506251	-0.402615	0.471322
C69	C	1.176369	-0.803552	0.250802
H70	H	1.224341	-0.820435	0.263820
H71	H	1.164030	-0.821218	0.202925
H72	H	1.175654	-0.750927	0.250874
H73	H	0.954855	-0.401778	0.920461
H74	H	0.978948	-0.903728	0.447997
C75	C	0.925596	-0.803577	0.317734
H76	H	0.912854	-0.820488	0.269686
H77	H	0.890311	-0.821210	0.352364
H78	H	0.926037	-0.750952	0.318320
H79	H	1.087501	-0.234729	0.792582
C80	C	1.031642	-0.911624	0.211894
H81	H	1.066858	-0.894714	0.176829
H82	H	1.031361	-0.964244	0.212561
H83	H	0.983994	-0.894006	0.198663
C84	C	0.641081	-0.397645	0.492273
H85	H	0.599990	-0.390504	0.524131
H86	H	0.670222	-0.437649	0.509955
H87	H	0.670112	-0.353808	0.491147
H88	H	0.955185	-0.401907	0.793224
H89	H	1.025899	-0.472830	0.921381
H90	H	1.164899	-0.436874	0.919522
C91	C	0.501116	-0.257279	0.455808
H92	H	0.542499	-0.247916	0.486721
H93	H	0.471889	-0.213734	0.452134
H94	H	0.472327	-0.296165	0.476345
C95	C	1.207830	-0.325606	0.927552
H96	H	1.232215	-0.303612	0.886585
H97	H	1.185467	-0.288036	0.956712
H98	H	1.242714	-0.351977	0.956628
H99	H	0.507359	-0.235526	0.338810
H100	H	1.192310	-0.338701	0.793542
C101	C	1.171536	-0.455833	0.784937
H102	H	1.218831	-0.468199	0.804055
H103	H	1.136506	-0.491829	0.800379
H104	H	1.173583	-0.454831	0.732505
H105	H	0.994534	-0.259798	0.921226
H106	H	0.991287	-0.263587	0.793658
C107	C	1.106965	-0.221579	0.927013
H108	H	1.142518	-0.245272	0.957538
H109	H	1.131037	-0.199645	0.885838
H110	H	1.082203	-0.184307	0.954578
H111	H	0.634390	-0.473412	0.400433
C112	C	0.641235	-0.220064	0.323707
H113	H	0.671987	-0.242399	0.287476
H114	H	0.600114	-0.197384	0.300234
H115	H	0.668587	-0.183633	0.349935
C116	C	0.642703	-0.256519	0.454571
H117	H	0.673726	-0.294403	0.473654
H118	H	0.670063	-0.211816	0.450247
H119	H	0.602181	-0.249064	0.487076
H120	H	0.506375	-0.433846	0.258844
H121	H	0.633943	-0.437059	0.262560
H122	H	0.635018	-0.340549	0.233945
