data_functionalizedCrystal
_audit_creation_method	'MofGen! by Chris Wilmer'
_symmetry_space_group_name_H-M	'P1'
_symmetry_Int_Tables_number	1
_symmetry_cell_setting	triclinic
loop_
_symmetry_equiv_pos_as_xyz
  x,y,z
_cell_length_a	15.297475
_cell_length_b	13.897448
_cell_length_c	15.298259
_cell_angle_alpha	80.288631
_cell_angle_beta	88.370891
_cell_angle_gamma	80.320483
loop_
_atom_site_label
_atom_site_type_symbol
_atom_site_fract_x
_atom_site_fract_y
_atom_site_fract_z
Zn1	Zn	1.253541	-0.481795	-0.726676
Zn2	Zn	1.753541	0.018205	-0.226676
Zn3	Zn	1.278796	-0.674907	-0.580180
Zn4	Zn	1.778796	-0.174907	-0.080180
Zn5	Zn	1.132394	-0.491177	-0.554900
Zn6	Zn	1.632394	0.008823	-0.054900
Zn7	Zn	1.107036	-0.620594	-0.701320
Zn8	Zn	1.607036	-0.120594	-0.201320
O9	O	1.192942	-0.567118	-0.640769
O10	O	1.692942	-0.067118	-0.140769
O11	O	1.379473	-0.526216	-0.728435
O12	O	1.879473	-0.026216	-0.228435
O13	O	1.280558	-0.677192	-0.454240
O14	O	1.780558	-0.177192	0.045760
O15	O	1.148508	-0.354953	-0.577719
O16	O	1.648508	0.145047	-0.077719
O17	O	1.398028	-0.668094	-0.620805
O18	O	1.898028	-0.168094	-0.120805
O19	O	1.237513	-0.348060	-0.703922
O20	O	1.737513	0.151940	-0.203922
O21	O	1.172997	-0.542206	-0.435668
O22	O	1.672997	-0.042206	0.064332
O23	O	1.006448	-0.489540	-0.553132
O24	O	1.506448	0.010460	-0.053132
O25	O	1.105288	-0.575525	-0.827270
O26	O	1.605288	-0.075525	-0.327270
O27	O	0.987817	-0.584622	-0.660706
O28	O	1.487817	-0.084622	-0.160706
O29	O	1.212924	-0.473550	-0.845899
O30	O	1.712924	0.026450	-0.345899
O31	O	1.255969	-0.802682	-0.596218
O32	O	1.755969	-0.302682	-0.096218
O33	O	1.129777	-0.762778	-0.685218
O34	O	1.629777	-0.262778	-0.185218
C35	C	0.965348	-0.532206	-0.601424
C36	C	1.465348	-0.032206	-0.101424
C37	C	0.867979	-0.517290	-0.584613
C38	C	1.367979	-0.017290	-0.084613
C39	C	0.554870	-0.673737	-0.760923
C40	C	1.054870	-0.173737	-0.260923
C41	C	0.646353	-0.687760	-0.776715
C42	C	1.146353	-0.187760	-0.276715
C43	C	0.701764	-0.645143	-0.728692
C44	C	1.201764	-0.145143	-0.228692
C45	C	0.665683	-0.588502	-0.664872
C46	C	1.165683	-0.088502	-0.164872
C47	C	0.574191	-0.574484	-0.649073
C48	C	1.074191	-0.074484	-0.149073
C49	C	0.721086	-0.545890	-0.616842
C50	C	1.221086	-0.045890	-0.116842
C51	C	0.685004	-0.489249	-0.553022
C52	C	1.185004	0.010751	-0.053022
C53	C	0.593521	-0.475234	-0.537227
C54	C	1.093521	0.024766	-0.037227
C55	C	0.538110	-0.517850	-0.585250
C56	C	1.038110	-0.017850	-0.085250
C57	C	0.812577	-0.559908	-0.632641
C58	C	1.312577	-0.059908	-0.132641
C59	C	0.831898	-0.460655	-0.520791
C60	C	1.331898	0.039345	-0.020791
C61	C	0.740415	-0.446633	-0.504998
C62	C	1.240415	0.053367	-0.004998
C63	C	1.192882	-0.817728	-0.640733
C64	C	1.692882	-0.317728	-0.140733
C65	C	1.192932	-0.924946	-0.640760
C66	C	1.692932	-0.424946	-0.140760
C67	C	1.193014	-1.121244	-0.640831
C68	C	1.693014	-0.621244	-0.140831
C69	C	1.192965	-1.012009	-0.640794
C70	C	1.692965	-0.512009	-0.140794
C71	C	1.421424	-0.602167	-0.680268
C72	C	1.921424	-0.102167	-0.180268
C73	C	1.518789	-0.617103	-0.697100
C74	C	2.018789	-0.117103	-0.197100
C75	C	1.153460	-0.517433	-0.869259
C76	C	1.653460	-0.017433	-0.369259
C77	C	1.136636	-0.496260	-0.966627
C78	C	1.636636	0.003740	-0.466627
C79	C	1.193022	-0.315529	-0.640829
C80	C	1.693022	0.184471	-0.140829
C81	C	1.193056	-0.208317	-0.640855
C82	C	1.693056	0.291683	-0.140855
C83	C	1.313218	-0.717706	-1.279766
C84	C	1.813218	-0.217706	-0.779766
C85	C	1.329021	-0.737605	-1.188282
C86	C	1.829021	-0.237605	-0.688282
C87	C	1.280927	-0.677270	-1.132864
C88	C	1.780927	-0.177270	-0.632864
C89	C	1.217026	-0.597034	-1.168938
C90	C	1.717026	-0.097034	-0.668938
C91	C	1.201216	-0.577138	-1.260429
C92	C	1.701216	-0.077138	-0.760429
C93	C	1.168924	-0.536702	-1.113528
C94	C	1.668924	-0.036702	-0.613528
C95	C	1.105023	-0.456465	-1.149602
C96	C	1.605023	0.043535	-0.649602
C97	C	1.089217	-0.436573	-1.241085
C98	C	1.589217	0.063427	-0.741085
C99	C	1.137312	-0.496907	-1.296503
C100	C	1.637312	0.003093	-0.796503
C101	C	1.184734	-0.556598	-1.022037
C102	C	1.684734	-0.056598	-0.522037
C103	C	1.072731	-0.416029	-1.002700
C104	C	1.572731	0.083971	-0.502700
C105	C	1.056929	-0.396131	-1.094184
C106	C	1.556929	0.103869	-0.594184
C107	C	1.232320	-0.616549	-0.413178
C108	C	1.732320	-0.116549	0.086822
C109	C	1.249314	-0.637476	-0.315839
C110	C	1.749314	-0.137476	0.184161
H111	H	0.675724	-0.733879	-0.828675
H112	H	1.175724	-0.233879	-0.328675
Cl113	Cl	0.485212	-0.727329	-0.821269
Cl114	Cl	0.985212	-0.227329	-0.321269
H115	H	1.293796	-0.693477	-1.058375
H116	H	1.793796	-0.193477	-0.558375
Cl117	Cl	0.695044	-0.375429	-0.424771
Cl118	Cl	1.195044	0.124571	0.075229
H119	H	1.037176	-0.371247	-1.270451
H120	H	1.537176	0.128753	-0.770451
Cl121	Cl	1.012254	-0.340186	-0.933036
Cl122	Cl	1.512254	0.159814	-0.433036
Cl123	Cl	1.409352	-0.838466	-1.142939
Cl124	Cl	1.909352	-0.338466	-0.642939
H125	H	0.463616	-0.506434	-0.572397
H126	H	0.963616	-0.006434	-0.072397
Cl127	Cl	0.548165	-0.404037	-0.456989
Cl128	Cl	1.048165	0.095963	0.043011
H129	H	0.776254	-0.656563	-0.741554
H130	H	1.276254	-0.156563	-0.241554
Cl131	Cl	0.857925	-0.631111	-0.712869
Cl132	Cl	1.357925	-0.131111	-0.212869
Cl133	Cl	0.976598	-0.295266	-1.139545
Cl134	Cl	1.476598	0.204734	-0.639545
Cl135	Cl	1.373663	-0.793554	-1.349435
Cl136	Cl	1.873663	-0.293554	-0.849435
Cl137	Cl	0.901552	-0.407083	-0.460410
Cl138	Cl	1.401552	0.092917	0.039590
H139	H	1.236768	-0.621922	-0.992675
H140	H	1.736768	-0.121922	-0.492675
H141	H	1.124451	-0.480708	-1.370997
H142	H	1.624451	0.019292	-0.870997
