data_functionalizedCrystal
_audit_creation_method	'MofGen! by Chris Wilmer'
_symmetry_space_group_name_H-M	'P1'
_symmetry_Int_Tables_number	1
_symmetry_cell_setting	triclinic
loop_
_symmetry_equiv_pos_as_xyz
  x,y,z
_cell_length_a	10.654545
_cell_length_b	17.038278
_cell_length_c	9.730223
_cell_angle_alpha	89.988387
_cell_angle_beta	89.997167
_cell_angle_gamma	87.796790
loop_
_atom_site_label
_atom_site_type_symbol
_atom_site_fract_x
_atom_site_fract_y
_atom_site_fract_z
O1	O	1.678042	0.109861	-0.114301
O2	O	1.313535	0.120333	-0.114309
O3	O	1.493624	0.001270	-0.114270
O4	O	1.497953	0.228924	-0.114340
O5	O	1.493611	0.001266	0.114310
O6	O	1.313522	0.120330	0.114271
O7	O	1.678029	0.109858	0.114279
Zn8	Zn	1.495774	0.115093	0.150567
Zn9	Zn	1.495790	0.115098	-0.150597
O10	O	1.497940	0.228921	0.114240
C11	C	1.266659	0.119563	-0.000020
C12	C	1.127002	0.117265	-0.000021
C13	C	1.061390	0.116181	0.124579
C14	C	0.930169	0.114009	0.124580
C15	C	0.930183	0.114007	-0.124631
C16	C	1.061402	0.116174	-0.124630
C17	C	1.489677	-0.027882	0.000026
C18	C	1.477921	-0.114741	0.000043
C19	C	1.405699	-0.605555	-0.000084
C20	C	1.416755	-0.523943	-0.000070
C21	C	1.535755	-0.491846	-0.000049
C22	C	1.643707	-0.541366	-0.000055
C23	C	1.632650	-0.622976	-0.000078
C24	C	1.574816	-0.245871	0.000014
C25	C	1.585865	-0.164254	0.000041
C26	C	1.358911	-0.146837	0.000024
C27	C	1.347865	-0.228450	0.000008
C28	C	1.455817	-0.277962	-0.000005
C29	C	1.547059	-0.408426	-0.000030
C30	C	1.444512	-0.361381	-0.000033
C31	C	1.724905	0.110627	-0.000014
C32	C	1.864562	0.112926	-0.000021
C33	C	1.501887	0.258073	-0.000059
C34	C	1.513643	0.344931	-0.000086
N35	N	1.495771	0.115090	0.356103
N36	N	1.495802	0.115095	-0.356133
C37	C	1.575546	0.062391	0.428046
C38	C	1.575558	0.062391	0.571929
C39	C	1.416019	0.167796	0.571913
C40	C	1.416001	0.167791	0.428033
H41	H	1.328855	-0.483632	-0.000073
H42	H	0.876754	0.113127	0.226041
H43	H	1.351073	0.210706	0.630493
N44	N	1.329943	0.224627	0.350424
H45	H	1.279416	0.258017	0.417822
H46	H	1.381725	0.259489	0.290694
H47	H	1.271024	-0.106515	0.000033
H48	H	1.662719	-0.286175	0.000011
N49	N	1.316161	-0.395990	-0.000055
H50	H	1.306523	-0.429445	-0.084799
H51	H	1.306594	-0.429440	0.084727
H52	H	1.740600	-0.515226	-0.000035
H53	H	1.114798	0.117070	0.226044
N54	N	1.749074	-0.676384	-0.000087
H55	H	1.826139	-0.643669	-0.000068
H56	H	1.749421	-0.710644	0.084638
N57	N	1.714223	-0.129636	0.000086
H58	H	1.704842	-0.070423	0.000123
H59	H	1.761813	-0.147730	0.084832
H60	H	0.876756	0.113120	-0.226083
H61	H	1.114825	0.117054	-0.226101
N62	N	1.675406	-0.373804	0.000027
H63	H	1.685072	-0.340310	-0.084689
H64	H	1.684928	-0.340390	0.084836
N65	N	1.277348	-0.640171	-0.000090
H66	H	1.210645	-0.596418	-0.000087
H67	H	1.267823	-0.673637	-0.084835
H68	H	1.250963	-0.254577	-0.000025
N69	N	1.661578	0.005550	0.350462
H70	H	1.712114	-0.027835	0.417876
H71	H	1.609776	-0.029315	0.290790
N72	N	1.661619	0.005563	0.649527
H73	H	1.712153	-0.027818	0.582123
H74	H	1.720361	0.035851	0.709188
