data_functionalizedCrystal
_audit_creation_method	'MofGen! by Chris Wilmer'
_symmetry_space_group_name_H-M	'P1'
_symmetry_Int_Tables_number	1
_symmetry_cell_setting	triclinic
loop_
_symmetry_equiv_pos_as_xyz
  x,y,z
_cell_length_a	17.640280
_cell_length_b	12.759401
_cell_length_c	12.759393
_cell_angle_alpha	90.021396
_cell_angle_beta	78.768081
_cell_angle_gamma	101.198847
loop_
_atom_site_label
_atom_site_type_symbol
_atom_site_fract_x
_atom_site_fract_y
_atom_site_fract_z
Zn1	Zn	-0.314605	-1.690811	-0.509606
Zn2	Zn	-0.446802	-1.726235	-0.298437
Zn3	Zn	-0.314648	-1.515124	-0.333925
Zn4	Zn	-0.446743	-1.550616	-0.474085
O5	O	-0.380699	-1.620697	-0.404013
O6	O	-0.332148	-1.842533	-0.481608
O7	O	-0.429314	-1.698203	-0.156112
O8	O	-0.204036	-1.508751	-0.386946
O9	O	-0.429273	-1.868559	-0.326463
O10	O	-0.204004	-1.637827	-0.516019
O11	O	-0.332222	-1.543101	-0.182185
O12	O	-0.332164	-1.372809	-0.352504
O13	O	-0.429171	-1.569241	-0.625830
O14	O	-0.429213	-1.398885	-0.455479
O15	O	-0.332091	-1.672241	-0.651927
O16	O	-0.557401	-1.732618	-0.292020
O17	O	-0.557357	-1.603590	-0.421068
C18	C	-0.380687	-1.347726	-0.403988
C19	C	-0.380701	-1.230953	-0.403997
C20	C	-0.431311	-1.189716	-0.457489
C21	C	-0.431313	-1.079993	-0.457506
C22	C	-0.330093	-1.052752	-0.350532
C23	C	-0.330088	-1.162472	-0.350522
C24	C	-0.586058	-1.675828	-0.348861
C25	C	-0.673911	-1.699509	-0.325302
C26	C	-0.962873	-1.441222	-0.583371
C27	C	-1.045425	-1.463476	-0.561200
C28	C	-1.045405	-1.597915	-0.426958
C29	C	-0.962852	-1.575676	-0.449121
C30	C	-0.921592	-1.497327	-0.527328
C31	C	-0.921571	-1.631781	-0.393078
C32	C	-0.839025	-1.609539	-0.415236
C33	C	-0.797760	-1.531192	-0.493437
C34	C	-0.839046	-1.475085	-0.549486
C35	C	-0.962832	-1.710124	-0.314867
C36	C	-0.921551	-1.766230	-0.258824
C37	C	-0.839003	-1.743993	-0.280987
C38	C	-0.797738	-1.665646	-0.359187
C39	C	-0.797716	-1.800100	-0.224938
C40	C	-0.715170	-1.777858	-0.247096
C41	C	-0.715192	-1.643404	-0.381345
C42	C	-0.174539	-1.565379	-0.459403
C43	C	-0.086686	-1.541805	-0.483007
C44	C	-0.380620	-1.620748	-0.678068
C45	C	-0.380586	-1.620770	-0.794854
C46	C	-0.380710	-0.894733	-0.404033
C47	C	-0.380709	-1.011509	-0.404025
C48	C	-0.330020	-1.540030	-0.863294
C49	C	-0.329996	-1.540048	-0.973025
C50	C	-0.431104	-1.701556	-0.945865
C51	C	-0.431132	-1.701533	-0.836135
C52	C	-0.380722	-1.620690	-0.131040
C53	C	-0.380533	-1.620812	-0.014314
H54	H	-0.472523	-1.046424	-0.501066
H55	H	-0.288870	-1.196045	-0.306964
O56	O	-0.485619	-1.788668	-0.990386
H57	H	-0.450234	-1.832650	-1.049881
H58	H	-0.288887	-0.996982	-0.306992
O59	O	-1.089899	-1.682423	-0.342610
H60	H	-1.073987	-1.760576	-0.364987
O61	O	-1.089959	-1.402963	-0.621644
H62	H	-1.074079	-1.416657	-0.708384
O63	O	-0.670684	-1.558896	-0.465696
H64	H	-0.686482	-1.581122	-0.543930
H65	H	-0.730545	-1.513076	-0.511469
H66	H	-0.472312	-1.767285	-0.780408
H67	H	-0.288862	-1.474268	-0.829687
O68	O	-0.485881	-1.263569	-0.515197
H69	H	-0.477377	-1.346794	-0.506206
O70	O	-0.275446	-1.452974	-1.046845
H71	H	-0.310799	-1.409007	-1.087323
H72	H	-1.030046	-1.728234	-0.296831
H73	H	-0.805452	-1.411293	-0.613177
O74	O	-0.670637	-1.838374	-0.186661
H75	H	-0.713194	-1.896600	-0.128566
O76	O	-0.918365	-1.356714	-0.667722
H77	H	-0.934163	-1.378939	-0.745956
O78	O	-0.966052	-1.850761	-0.174503
H79	H	-1.030387	-1.856817	-0.168523
H80	H	-0.831322	-1.863884	-0.161255
