data_functionalizedCrystal
_audit_creation_method	'MofGen! by Chris Wilmer'
_symmetry_space_group_name_H-M	'P1'
_symmetry_Int_Tables_number	1
_symmetry_cell_setting	triclinic
loop_
_symmetry_equiv_pos_as_xyz
  x,y,z
_cell_length_a	14.519731
_cell_length_b	14.044220
_cell_length_c	12.996460
_cell_angle_alpha	90.001035
_cell_angle_beta	90.006310
_cell_angle_gamma	88.438865
loop_
_atom_site_label
_atom_site_type_symbol
_atom_site_fract_x
_atom_site_fract_y
_atom_site_fract_z
O1	O	1.233889	0.124362	0.085572
O2	O	1.483889	0.374362	0.335572
O3	O	1.733889	0.624362	0.585572
O4	O	1.983889	0.874362	0.835572
O5	O	0.966594	0.138975	0.085574
O6	O	1.216594	0.388975	0.335574
O7	O	1.466594	0.638975	0.585574
O8	O	1.716594	0.888975	0.835574
O9	O	1.096229	-0.006323	0.085563
O10	O	1.346229	0.243677	0.335563
O11	O	1.596229	0.493677	0.585563
O12	O	1.846229	0.743677	0.835563
O13	O	1.104254	0.269660	0.085583
O14	O	1.354254	0.519660	0.335583
O15	O	1.604254	0.769660	0.585583
O16	O	1.854254	1.019660	0.835583
O17	O	1.096212	-0.006315	-0.085571
O18	O	1.346212	0.243685	0.164429
O19	O	1.596212	0.493685	0.414429
O20	O	1.846212	0.743685	0.664429
O21	O	0.966576	0.138983	-0.085560
O22	O	1.216576	0.388983	0.164440
O23	O	1.466576	0.638983	0.414440
O24	O	1.716576	0.888983	0.664440
O25	O	1.233872	0.124370	-0.085562
O26	O	1.483872	0.374370	0.164438
O27	O	1.733872	0.624370	0.414438
O28	O	1.983872	0.874370	0.664438
Cu29	Cu	1.100222	0.131677	-0.101187
Cu30	Cu	1.350222	0.381677	0.148813
Cu31	Cu	1.600222	0.631677	0.398813
Cu32	Cu	1.850222	0.881677	0.648813
Cu33	Cu	1.100243	0.131668	0.101199
Cu34	Cu	1.350243	0.381668	0.351199
Cu35	Cu	1.600243	0.631668	0.601199
Cu36	Cu	1.850243	0.881668	0.851199
O37	O	1.104236	0.269668	-0.085551
O38	O	1.354236	0.519668	0.164449
O39	O	1.604236	0.769668	0.414449
O40	O	1.854236	1.019668	0.664449
C41	C	0.932170	0.138295	0.000007
C42	C	1.182170	0.388295	0.250007
C43	C	1.432170	0.638295	0.500007
C44	C	1.682170	0.888295	0.750007
C45	C	0.829625	0.136243	0.000008
C46	C	1.079625	0.386243	0.250008
C47	C	1.329625	0.636243	0.500008
C48	C	1.579625	0.886243	0.750008
C49	C	1.092708	-0.041640	-0.000004
C50	C	1.342708	0.208360	0.249996
C51	C	1.592708	0.458360	0.499996
C52	C	1.842708	0.708360	0.749996
C53	C	1.082231	-0.146884	-0.000006
C54	C	1.332231	0.103116	0.249994
C55	C	1.582231	0.353116	0.499994
C56	C	1.832231	0.603116	0.749994
C57	C	0.746346	0.134575	0.000012
C58	C	0.996346	0.384575	0.250012
C59	C	1.246346	0.634575	0.500012
C60	C	1.496346	0.884575	0.750012
C61	C	0.641869	0.132492	0.000012
C62	C	0.891869	0.382492	0.250012
C63	C	1.141869	0.632492	0.500012
C64	C	1.391869	0.882492	0.750012
C65	C	0.558597	0.130839	0.000012
C66	C	0.808597	0.380839	0.250012
C67	C	1.058597	0.630839	0.500012
C68	C	1.308597	0.880839	0.750012
C69	C	0.454113	0.128756	0.000014
C70	C	0.704113	0.378756	0.250014
C71	C	0.954113	0.628756	0.500014
C72	C	1.204113	0.878756	0.750014
C73	C	1.063077	-0.339580	0.000009
C74	C	1.313077	-0.089580	0.250009
C75	C	1.563077	0.160420	0.500009
C76	C	1.813077	0.410420	0.750009
C77	C	1.137385	-0.397081	0.000012
C78	C	1.387385	-0.147081	0.250012
C79	C	1.637385	0.102919	0.500012
C80	C	1.887385	0.352919	0.750012
C81	C	1.126727	-0.504303	0.000020
C82	C	1.376727	-0.254303	0.250020
C83	C	1.626727	-0.004303	0.500020
C84	C	1.876727	0.245697	0.750020
C85	C	1.073733	-0.232347	0.000001
C86	C	1.323733	0.017653	0.250001
C87	C	1.573733	0.267653	0.500001
C88	C	1.823733	0.517653	0.750001
C89	C	1.268295	0.125050	0.000007
C90	C	1.518295	0.375050	0.250007
C91	C	1.768295	0.625050	0.500007
C92	C	2.018295	0.875050	0.750007
C93	C	1.370841	0.127102	0.000014
C94	C	1.620841	0.377102	0.250014
C95	C	1.870841	0.627102	0.500014
C96	C	2.120841	0.877102	0.750014
C97	C	1.107757	0.304985	0.000019
C98	C	1.357757	0.554985	0.250019
C99	C	1.607757	0.804985	0.500019
C100	C	1.857757	1.054985	0.750019
C101	C	1.118234	0.410229	0.000027
C102	C	1.368234	0.660229	0.250027
C103	C	1.618234	0.910229	0.500027
C104	C	1.868234	1.160229	0.750027
N105	N	1.100214	0.131684	-0.243534
N106	N	1.350214	0.381684	0.006466
N107	N	1.600214	0.631684	0.256466
N108	N	1.850214	0.881684	0.506466
C109	C	1.100219	0.131686	-0.336640
C110	C	1.350219	0.381686	-0.086640
C111	C	1.600219	0.631686	0.163360
C112	C	1.850219	0.881686	0.413360
C113	C	1.100227	0.131680	-0.453445
C114	C	1.350227	0.381680	-0.203445
C115	C	1.600227	0.631680	0.046555
C116	C	1.850227	0.881680	0.296555
C117	C	1.100238	0.131669	-0.546543
C118	C	1.350238	0.381669	-0.296543
C119	C	1.600238	0.631669	-0.046543
C120	C	1.850238	0.881669	0.203457
C121	C	1.100247	0.131664	-0.663356
C122	C	1.350247	0.381664	-0.413356
C123	C	1.600247	0.631664	-0.163356
C124	C	1.850247	0.881664	0.086644
N125	N	1.100258	0.131654	0.243546
N126	N	1.350258	0.381654	0.493546
N127	N	1.600258	0.631654	0.743546
N128	N	1.850258	0.881654	0.993546
H129	H	1.209006	-0.365783	0.000080
H130	H	1.459006	-0.115783	0.250080
H131	H	1.709006	0.134217	0.500080
H132	H	1.959006	0.384217	0.750080
H133	H	0.991461	-0.370876	0.000012
H134	H	1.241461	-0.120876	0.250012
H135	H	1.491461	0.129124	0.500012
H136	H	1.741461	0.379124	0.750012
