data_functionalizedCrystal
_audit_creation_method	'MofGen! by Chris Wilmer'
_symmetry_space_group_name_H-M	'P1'
_symmetry_Int_Tables_number	1
_symmetry_cell_setting	triclinic
loop_
_symmetry_equiv_pos_as_xyz
  x,y,z
_cell_length_a	12.759395
_cell_length_b	16.959454
_cell_length_c	16.959447
_cell_angle_alpha	89.973264
_cell_angle_beta	89.986940
_cell_angle_gamma	90.021612
loop_
_atom_site_label
_atom_site_type_symbol
_atom_site_fract_x
_atom_site_fract_y
_atom_site_fract_z
Zn1	Zn	1.606152	-0.314634	-0.446902
Zn2	Zn	1.606049	-0.446826	-0.314732
Zn3	Zn	1.430473	-0.314669	-0.314742
Zn4	Zn	1.430426	-0.446777	-0.446873
O5	O	1.518275	-0.380726	-0.380812
O6	O	1.753160	-0.332175	-0.429377
O7	O	1.582735	-0.429330	-0.204122
O8	O	1.453840	-0.204053	-0.332290
O9	O	1.753084	-0.429296	-0.332272
O10	O	1.582911	-0.204027	-0.429387
O11	O	1.453740	-0.332235	-0.204130
O12	O	1.283446	-0.332188	-0.332262
O13	O	1.453760	-0.429213	-0.557488
O14	O	1.283411	-0.429248	-0.429338
O15	O	1.582865	-0.332128	-0.557509
O16	O	1.582690	-0.557430	-0.332244
O17	O	1.453660	-0.557395	-0.429328
C18	C	1.245308	-0.380717	-0.380799
C19	C	1.128531	-0.380732	-0.380811
C20	C	1.128534	-0.481963	-0.481733
C21	C	1.073674	-0.532585	-0.532196
C22	C	0.963953	-0.532595	-0.532206
C23	C	0.909088	-0.481975	-0.481749
C24	C	0.963947	-0.431353	-0.431286
C25	C	1.073672	-0.431351	-0.431280
C26	C	0.963945	-0.330119	-0.330369
C27	C	1.073666	-0.330112	-0.330354
C28	C	0.909080	-0.279500	-0.279912
C29	C	0.963940	-0.228880	-0.229444
C30	C	1.073668	-0.228873	-0.229435
C31	C	1.128526	-0.279490	-0.279891
C32	C	1.518187	-0.586093	-0.380799
C33	C	1.518246	-0.673949	-0.380819
C34	C	1.451187	-1.045436	-0.431358
C35	C	1.585656	-1.045413	-0.330347
C36	C	1.585619	-0.962868	-0.330339
C37	C	1.518364	-0.921602	-0.380841
C38	C	1.451146	-0.962883	-0.431351
C39	C	1.652829	-0.921581	-0.279825
C40	C	1.652794	-0.839030	-0.279815
C41	C	1.585543	-0.797763	-0.330322
C42	C	1.518323	-0.839049	-0.380834
C43	C	1.451068	-0.797783	-0.431336
C44	C	1.383853	-0.839068	-0.481853
C45	C	1.383896	-0.921616	-0.481858
C46	C	1.585501	-0.715215	-0.330317
C47	C	1.451027	-0.715230	-0.431329
C48	C	1.792309	-0.380737	-0.380826
C49	C	1.909085	-0.380741	-0.380832
C50	C	1.518319	-0.380661	-0.586980
C51	C	1.518338	-0.380633	-0.674837
C52	C	1.518392	-0.174558	-0.380843
C53	C	1.518442	-0.086702	-0.380856
C54	C	1.451244	-0.431098	-1.046304
C55	C	1.585682	-0.330002	-1.046321
C56	C	1.585654	-0.330019	-0.963776
C57	C	1.518421	-0.380577	-0.922490
C58	C	1.451216	-0.431118	-0.963751
C59	C	1.652866	-0.279484	-0.922509
C60	C	1.652841	-0.279499	-0.839958
C61	C	1.585602	-0.330054	-0.798671
C62	C	1.518393	-0.380596	-0.839937
C63	C	1.451160	-0.431154	-0.798651
C64	C	1.383946	-0.481694	-0.839915
C65	C	1.383977	-0.481672	-0.922464
C66	C	1.585571	-0.330075	-0.716122
C67	C	1.451132	-0.431174	-0.716098
C68	C	1.518292	-0.380735	-0.175446
C69	C	1.518477	-0.380540	-0.087590
H70	H	0.819747	-0.481981	-0.481768
O71	O	1.378683	-1.089962	-0.485831
H72	H	1.425684	-1.127529	-0.526079
H73	H	0.819739	-0.279508	-0.279927
H74	H	1.396516	-0.472243	-1.079905
H75	H	1.396264	-0.681637	-0.472457
H76	H	1.640426	-0.288844	-1.079941
O77	O	1.311314	-0.794559	-0.536324
H78	H	1.322586	-0.730223	-0.527830
O79	O	0.904770	-0.174305	-0.175009
H80	H	0.819258	-0.182822	-0.183488
H81	H	1.118328	-0.187645	-0.188348
H82	H	1.640406	-1.079017	-0.289225
O83	O	1.725334	-0.224991	-0.795457
H84	H	1.678322	-0.184785	-0.757855
H85	H	0.919286	-0.573812	-0.573301
H86	H	1.118357	-0.573798	-0.573279
H87	H	1.707576	-0.955185	-0.238703
O88	O	1.725341	-0.224927	-0.967033
H89	H	1.714042	-0.233387	-1.031367
H90	H	1.329171	-0.955237	-0.522985
H91	H	1.217867	-0.279492	-0.279887
H92	H	1.707525	-0.805422	-0.238683
O93	O	1.657990	-0.670684	-0.275842
H94	H	1.704765	-0.713247	-0.240728
O95	O	1.378592	-0.485688	-0.671568
H96	H	1.331859	-0.520821	-0.714132
H97	H	1.640299	-0.288929	-0.682529
O98	O	1.311418	-0.536219	-0.795388
H99	H	1.358400	-0.576445	-0.757765
O100	O	1.311484	-0.536179	-0.966967
H101	H	1.322808	-0.527675	-1.031304
H102	H	1.217875	-0.481966	-0.481724
