data_functionalizedCrystal
_audit_creation_method	'MofGen! by Chris Wilmer'
_symmetry_space_group_name_H-M	'P1'
_symmetry_Int_Tables_number	1
_symmetry_cell_setting	triclinic
loop_
_symmetry_equiv_pos_as_xyz
  x,y,z
_cell_length_a	6.817900
_cell_length_b	13.694001
_cell_length_c	10.992410
_cell_angle_alpha	78.154034
_cell_angle_beta	108.764651
_cell_angle_gamma	106.288079
loop_
_atom_site_label
_atom_site_type_symbol
_atom_site_fract_x
_atom_site_fract_y
_atom_site_fract_z
V1	V	-4.075513	-0.140270	-0.351295
O2	O	-4.074237	0.006741	-0.395336
O3	O	-4.015021	-0.278132	-0.300104
O4	O	-4.053700	-0.138112	-0.526766
O5	O	-4.035290	-0.134248	-0.167105
V6	V	-4.557262	-0.122686	-0.335191
O7	O	-4.340661	-0.178842	-0.386620
O8	O	-4.742311	-0.084114	-0.299866
O9	O	-4.394547	0.015176	-0.386383
O10	O	-4.675934	-0.269696	-0.291150
O11	O	-4.714882	-0.128708	-0.519381
O12	O	-4.355868	-0.124844	-0.159721
C13	C	-3.856220	-0.311740	-0.281973
C14	C	-3.888225	-0.424444	-0.241288
C15	C	-4.205711	-0.800053	-0.576893
C16	C	-4.175657	-0.694163	-0.615124
C17	C	-4.103797	-0.626728	-0.521669
C18	C	-4.061995	-0.665193	-0.389974
C19	C	-4.092067	-0.771094	-0.351739
C20	C	-3.990154	-0.597769	-0.296515
C21	C	-3.948351	-0.636234	-0.164821
C22	C	-3.978421	-0.742124	-0.126592
C23	C	-4.050280	-0.809559	-0.220048
C24	C	-3.960081	-0.491868	-0.334750
C25	C	-3.846438	-0.462909	-0.109597
C26	C	-3.876491	-0.568799	-0.071365
C27	C	-3.905558	-0.133130	-0.571102
C28	C	-3.968928	-0.132278	-0.714230
C29	C	-3.838195	-0.124516	-0.912081
C30	C	-3.772284	-0.125822	-0.763139
C31	C	-4.139339	-0.232240	-0.756202
C32	C	-4.203897	-0.231356	-0.905079
C33	C	-4.135116	-0.037792	-0.935075
C34	C	-4.064537	-0.037319	-0.786229
C35	C	-4.216689	0.048778	-0.404508
C36	C	-4.163924	0.161481	-0.445201
C37	C	-4.167350	-0.129830	-0.115377
C38	C	-4.083220	-0.130676	0.027750
H39	H	-3.787929	-0.408003	-0.033497
Br40	Br	-3.645848	-0.238607	-0.682130
Br41	Br	-4.503232	-0.245819	-0.971054
H42	H	-4.074108	-0.302743	-0.705818
Br43	Br	-4.303262	-0.891574	-0.703710
H44	H	-4.168913	-0.301686	-0.926632
Br45	Br	-4.386154	-0.246135	-0.703325
Br46	Br	-4.431757	-0.043843	-1.001020
H47	H	-3.994134	-0.460562	-0.441977
Br48	Br	-4.063002	-0.483018	-0.573556
H49	H	-3.941705	0.036630	-0.759860
Br50	Br	-4.232387	-0.641967	-0.793844
H51	H	-4.206975	-0.036145	-0.754130
Br52	Br	-4.091082	-0.953274	-0.168166
Br53	Br	-3.998535	0.088730	-1.013478
Br54	Br	-3.557870	-0.006040	-0.716325
H55	H	-3.740977	-0.052144	-0.956345
H56	H	-3.842462	-0.600132	0.035863
Br57	Br	-3.921745	-0.794327	0.052134
Br58	Br	-3.765898	-0.235750	-0.952969
