data_functionalizedCrystal
_audit_creation_method	'MofGen! by Chris Wilmer'
_symmetry_space_group_name_H-M	'P1'
_symmetry_Int_Tables_number	1
_symmetry_cell_setting	triclinic
loop_
_symmetry_equiv_pos_as_xyz
  x,y,z
_cell_length_a	27.732048
_cell_length_b	11.792241
_cell_length_c	10.268362
_cell_angle_alpha	90.005428
_cell_angle_beta	89.999089
_cell_angle_gamma	83.418035
loop_
_atom_site_label
_atom_site_type_symbol
_atom_site_fract_x
_atom_site_fract_y
_atom_site_fract_z
O1	O	-0.641711	-0.135041	-0.108133
O2	O	-0.501036	-0.155574	-0.108173
O3	O	-0.574787	0.019972	-0.108143
O4	O	-0.567960	-0.310587	-0.108163
O5	O	-0.574781	0.019979	0.108458
O6	O	-0.501030	-0.155567	0.108428
O7	O	-0.641704	-0.135034	0.108467
Cu8	Cu	-0.571366	-0.145300	0.128225
Cu9	Cu	-0.571374	-0.145308	-0.127930
O10	O	-0.567953	-0.310580	0.108438
C11	C	-0.483024	-0.155140	0.000123
C12	C	-0.429361	-0.153842	0.000108
C13	C	-0.574355	0.062253	0.000157
C14	C	-0.573071	0.188226	0.000155
C15	C	-0.659717	-0.135469	0.000169
C16	C	-0.713379	-0.136766	0.000175
C17	C	-0.091101	-0.249407	0.000158
C18	C	0.110587	-0.244592	0.000170
O19	O	0.141335	-0.331980	0.000221
N20	N	0.130315	-0.140500	0.000174
C21	C	0.099617	-0.037605	0.000184
O22	O	0.121024	0.051042	0.000201
C23	C	-0.102070	-0.042422	0.000181
C24	C	-0.121794	-0.146520	0.000164
C25	C	-0.110826	-0.353497	0.000143
C26	C	-0.161245	-0.354700	0.000133
C27	C	-0.191939	-0.251813	0.000138
C28	C	-0.172213	-0.147723	0.000154
C29	C	-0.132766	0.060472	0.000200
C30	C	-0.183191	0.059259	0.000203
C31	C	-0.202915	-0.044840	0.000186
C32	C	-0.253326	-0.046038	0.000150
N33	N	-0.273054	-0.150130	0.000146
C34	C	-0.242360	-0.253017	0.000140
C35	C	0.205506	-0.035084	0.000183
C36	C	0.255927	-0.033879	0.000181
C37	C	0.266894	-0.240866	0.000170
C38	C	0.216471	-0.242070	0.000162
C39	C	0.185778	-0.139175	0.000179
C40	C	-0.348244	-0.255535	0.000118
C41	C	-0.398668	-0.256729	0.000102
C42	C	-0.409630	-0.049742	0.000120
C43	C	-0.359210	-0.048548	0.000129
C44	C	-0.328518	-0.151454	0.000132
O45	O	-0.284103	0.041303	0.000113
O46	O	-0.263777	-0.341651	0.000152
C47	C	-0.040682	-0.248205	0.000169
C48	C	-0.020957	-0.144115	0.000184
C49	C	-0.051650	-0.041227	0.000190
C50	C	0.029465	-0.142910	0.000183
C51	C	0.060159	-0.245797	0.000177
C52	C	0.040431	-0.349889	0.000173
C53	C	-0.009988	-0.351092	0.000163
C54	C	-0.031923	0.062864	0.000194
C55	C	0.018497	0.064058	0.000203
C56	C	0.049191	-0.038829	0.000197
C57	C	-0.568385	-0.352861	0.000135
C58	C	-0.569669	-0.478834	0.000128
N59	N	-0.571365	-0.145293	0.308391
C60	C	-0.570711	0.418862	0.000133
C61	C	-0.572023	0.290519	0.000145
N62	N	-0.571380	-0.145306	-0.308096
C63	C	-0.571372	-0.145306	0.574062
C64	C	-0.571366	-0.145302	0.426224
H65	H	-0.414724	-0.341502	0.000087
O66	O	0.070183	-0.449939	0.000111
C67	C	0.041966	-0.542085	0.000136
H68	H	0.004416	-0.512621	-0.040877
H69	H	0.060378	-0.614117	-0.062747
H70	H	0.038289	-0.574028	0.104049
H71	H	-0.056909	0.146649	0.000202
H72	H	-0.177300	-0.439467	0.000118
H73	H	-0.323260	-0.339331	0.000124
O74	O	0.037712	0.165116	0.000388
C75	C	0.066533	0.172021	0.112594
H76	H	0.078851	0.082347	0.149982
H77	H	0.099667	0.216678	0.087383
H78	H	0.044389	0.222621	0.191149
O79	O	0.296645	-0.340917	0.000115
C80	C	0.268428	-0.433062	0.000154
H81	H	0.230878	-0.403601	-0.040860
H82	H	0.286839	-0.505101	-0.062720
H83	H	0.264752	-0.464995	0.104072
H84	H	-0.116716	0.145240	0.000215
O85	O	-0.080994	-0.453420	0.000359
C86	C	-0.051487	-0.458929	0.112513
H87	H	-0.069787	-0.400563	0.190938
H88	H	-0.046071	-0.550452	0.150146
H89	H	-0.014745	-0.430228	0.087148
O90	O	-0.439400	0.050273	0.000299
C91	C	-0.430429	0.113514	0.112505
H92	H	-0.392260	0.084968	0.149903
H93	H	-0.433725	0.208232	0.087290
H94	H	-0.458047	0.098480	0.191053
H95	H	0.200415	-0.326836	0.000156
O96	O	0.275005	0.067342	0.000240
C97	C	0.237095	0.157886	0.000215
H98	H	0.202763	0.126679	0.041219
H99	H	0.247823	0.230621	0.063107
H100	H	0.230046	0.189576	-0.103697
O101	O	-0.212936	0.159318	0.000154
C102	C	-0.184710	0.251445	0.000202
H103	H	-0.147158	0.221955	-0.040800
H104	H	-0.203109	0.323480	-0.062681
H105	H	-0.181036	0.283395	0.104120
O106	O	-0.340102	0.052640	-0.000042
C107	C	-0.355742	0.115289	-0.112239
H108	H	-0.390790	0.084988	-0.149655
H109	H	-0.362486	0.209926	-0.087004
H110	H	-0.326599	0.101616	-0.190781
O111	O	0.175645	0.064803	0.000012
C112	C	0.146161	0.070314	-0.112186
H113	H	0.143362	-0.019722	-0.149582
H114	H	0.108386	0.113289	-0.086960
H115	H	0.162894	0.121831	-0.190739
O116	O	-0.029166	-0.452188	-0.000087
C117	C	-0.058008	-0.459078	-0.112258
H118	H	-0.045929	-0.399973	-0.190651
H119	H	-0.053717	-0.550623	-0.149929
H120	H	-0.097697	-0.432212	-0.086899
