data_functionalizedCrystal
_audit_creation_method	'MofGen! by Chris Wilmer'
_symmetry_space_group_name_H-M	'P1'
_symmetry_Int_Tables_number	1
_symmetry_cell_setting	triclinic
loop_
_symmetry_equiv_pos_as_xyz
  x,y,z
_cell_length_a	19.121063
_cell_length_b	18.050590
_cell_length_c	18.050583
_cell_angle_alpha	89.997484
_cell_angle_beta	92.401387
_cell_angle_gamma	87.544963
loop_
_atom_site_label
_atom_site_type_symbol
_atom_site_fract_x
_atom_site_fract_y
_atom_site_fract_z
Zn1	Zn	-0.279806	-1.122681	-0.432152
Zn2	Zn	0.220194	-0.622681	0.067848
Zn3	Zn	-0.397277	-1.117292	-0.313255
Zn4	Zn	0.102723	-0.617292	0.186745
Zn5	Zn	-0.279818	-0.998498	-0.308017
Zn6	Zn	0.220182	-0.498498	0.191983
Zn7	Zn	-0.397192	-0.993154	-0.437440
Zn8	Zn	0.102808	-0.493154	0.062560
O9	O	-0.338523	-1.057906	-0.372716
O10	O	0.161477	-0.557906	0.127284
O11	O	-0.295419	-1.225889	-0.416359
O12	O	0.204581	-0.725889	0.083641
O13	O	-0.381736	-1.101514	-0.208637
O14	O	0.118264	-0.601514	0.291363
O15	O	-0.181534	-1.019462	-0.320079
O16	O	0.318466	-0.519462	0.179921
O17	O	-0.381724	-1.221930	-0.329006
O18	O	0.118276	-0.721930	0.170994
O19	O	-0.181525	-1.110700	-0.411280
O20	O	0.318475	-0.610700	0.088720
O21	O	-0.295440	-1.014236	-0.204789
O22	O	0.204560	-0.514236	0.295211
O23	O	-0.295358	-0.893866	-0.325206
O24	O	0.204642	-0.393866	0.174794
O25	O	-0.381581	-1.010356	-0.540661
O26	O	0.118419	-0.510356	-0.040661
O27	O	-0.381592	-0.889940	-0.420292
O28	O	0.118408	-0.389940	0.079708
O29	O	-0.295338	-1.105519	-0.536776
O30	O	0.204662	-0.605519	-0.036776
O31	O	-0.495548	-1.096333	-0.334133
O32	O	0.004452	-0.596333	0.165867
O33	O	-0.495487	-1.005130	-0.425371
O34	O	0.004513	-0.505130	0.074629
C35	C	-0.338468	-0.864957	-0.372755
C36	C	0.161532	-0.364957	0.127245
C37	C	-0.338461	-0.782411	-0.372790
C38	C	0.161539	-0.282411	0.127210
C39	C	-0.385482	-0.580841	-0.424396
C40	C	0.114518	-0.080841	0.075604
C41	C	-0.321437	-0.534337	-0.439788
C42	C	0.178563	-0.034337	0.060212
C43	C	-0.338495	-0.631279	-0.372763
C44	C	0.161505	-0.131279	0.127237
C45	C	-0.402571	-0.530700	-0.357379
C46	C	0.097429	-0.030700	0.142621
C47	C	-0.338533	-0.485292	-0.372738
C48	C	0.161467	0.014708	0.127262
C49	C	-0.274415	-0.585864	-0.388189
C50	C	0.225585	-0.085864	0.111811
C51	C	-0.355593	-0.582229	-0.305750
C52	C	0.144407	-0.082229	0.194250
C53	C	-0.291503	-0.535749	-0.321114
C54	C	0.208497	-0.035749	0.178886
C55	C	-0.338474	-0.715378	-0.372779
C56	C	0.161526	-0.215378	0.127221
C57	C	-0.338546	-0.401195	-0.372722
C58	C	0.161454	0.098805	0.127278
C59	C	-0.521001	-1.049587	-0.380911
C60	C	-0.021001	-0.549587	0.119089
C61	C	-0.599066	-1.046096	-0.384441
C62	C	-0.099066	-0.546096	0.115559
C63	C	-0.635750	-1.091977	-0.338636
C64	C	-0.135750	-0.591977	0.161364
C65	C	-0.709100	-1.088698	-0.341961
C66	C	-0.209100	-0.588698	0.158039
C67	C	-0.745765	-1.039533	-0.391088
C68	C	-0.245765	-0.539533	0.108912
C69	C	-0.709076	-0.993650	-0.436897
C70	C	-0.209076	-0.493650	0.063103
C71	C	-0.635727	-0.996933	-0.433576
C72	C	-0.135727	-0.496933	0.066424
C73	C	-0.967231	-1.027246	-0.403495
C74	C	-0.467231	-0.527246	0.096505
C75	C	-1.040585	-1.023965	-0.406811
C76	C	-0.540585	-0.523965	0.093189
C77	C	-1.040603	-1.119014	-0.311876
C78	C	-0.540603	-0.619014	0.188124
C79	C	-0.967253	-1.122290	-0.308555
C80	C	-0.467253	-0.622290	0.191445
C81	C	-0.930571	-1.076409	-0.354368
C82	C	-0.430571	-0.576409	0.145632
C83	C	-0.820741	-1.036179	-0.394486
C84	C	-0.320741	-0.536179	0.105514
C85	C	-0.855596	-1.079768	-0.350973
C86	C	-0.355596	-0.579768	0.149027
C87	C	-0.155333	-1.066278	-0.364505
C88	C	0.344667	-0.566278	0.135495
C89	C	-0.077268	-1.069846	-0.361007
C90	C	0.422732	-0.569846	0.138993
C91	C	-0.338449	-1.057942	-0.566418
C92	C	0.161551	-0.557942	-0.066418
C93	C	-0.338417	-1.057958	-0.648963
C94	C	0.161583	-0.557958	-0.148963
C95	C	-0.338570	-0.251610	-0.372689
C96	C	0.161430	0.248390	0.127311
C97	C	-0.338565	-0.334156	-0.372709
C98	C	0.161435	0.165844	0.127291
C99	C	-0.291495	-1.109758	-0.846300
C100	C	0.208505	-0.609758	-0.346300
C101	C	-0.274291	-1.042800	-0.894941
C102	C	0.225709	-0.542800	-0.394941
C103	C	-0.338405	-1.057988	-0.800093
C104	C	0.161595	-0.557988	-0.300093
C105	C	-0.355564	-1.124975	-0.898531
C106	C	0.144436	-0.624975	-0.398531
C107	C	-0.338392	-1.058023	-0.946077
C108	C	0.161608	-0.558023	-0.446077
C109	C	-0.321167	-0.990996	-0.847645
C110	C	0.178833	-0.490996	-0.347645
C111	C	-0.402471	-1.073215	-0.851232
C112	C	0.097529	-0.573215	-0.351232
C113	C	-0.385291	-1.006210	-0.899852
C114	C	0.114709	-0.506210	-0.399852
C115	C	-0.338410	-1.057969	-0.715994
C116	C	0.161590	-0.557969	-0.215994
C117	C	-0.338386	-1.058035	-1.030173
C118	C	0.161614	-0.558035	-0.530173
C119	C	-0.338547	-1.057915	-0.179765
C120	C	0.161453	-0.557915	0.320235
C121	C	-0.338382	-1.058053	-0.097212
C122	C	0.161618	-0.558053	0.402788
H123	H	-0.605902	-1.132009	-0.298629
H124	H	-0.105902	-0.632009	0.201371
F125	F	-0.203587	-0.617289	-0.405268
F126	F	0.296413	-0.117289	0.094732
H127	H	-0.220106	-1.029932	-0.914236
H128	H	0.279894	-0.529932	-0.414236
F129	F	-0.302548	-0.506808	-0.513846
F130	F	0.197452	-0.006808	-0.013846
H131	H	-0.370062	-0.603306	-0.249107
H132	H	0.129938	-0.103306	0.250893
F133	F	-1.079649	-1.167843	-0.263126
F134	F	-0.579649	-0.667843	0.236874
F135	F	-0.816574	-1.132094	-0.298694
F136	F	-0.316574	-0.632094	0.201306
H137	H	-0.251800	-1.153471	-0.822851
H138	H	0.248200	-0.653471	-0.322851
H139	H	-0.425150	-0.600715	-0.468101
H140	H	0.074850	-0.100715	0.031899
H141	H	-0.456743	-0.506562	-0.344379
H142	H	0.043257	-0.006562	0.155621
H143	H	-0.251738	-0.516019	-0.277438
H144	H	0.248262	-0.016019	0.222562
H145	H	-0.850601	-0.996147	-0.434483
H146	H	-0.350601	-0.496147	0.065517
H147	H	-0.738965	-1.126059	-0.304662
H148	H	-0.238965	-0.626059	0.195338
H149	H	-0.937402	-1.162323	-0.268553
H150	H	-0.437402	-0.662323	0.231447
F151	F	-1.079605	-0.971627	-0.459093
F152	F	-0.579605	-0.471627	0.040907
H153	H	-0.937369	-0.989887	-0.440796
H154	H	-0.437369	-0.489887	0.059204
H155	H	-0.738934	-0.953622	-0.476901
H156	H	-0.238934	-0.453622	0.023099
F157	F	-0.596686	-0.948102	-0.482330
F158	F	-0.096686	-0.448102	0.017670
F159	F	-0.302115	-0.916949	-0.818582
F160	F	0.197885	-0.416949	-0.318582
H161	H	-0.370082	-1.181610	-0.920859
H162	H	0.129918	-0.681610	-0.420859
F163	F	-0.437129	-0.948943	-0.930331
F164	F	0.062871	-0.448943	-0.430331
F165	F	-0.473274	-1.090063	-0.825989
F166	F	0.026726	-0.590063	-0.325989
