data_functionalizedCrystal
_audit_creation_method	'MofGen! by Chris Wilmer'
_symmetry_space_group_name_H-M	'P1'
_symmetry_Int_Tables_number	1
_symmetry_cell_setting	triclinic
loop_
_symmetry_equiv_pos_as_xyz
  x,y,z
_cell_length_a	17.699104
_cell_length_b	10.967829
_cell_length_c	16.776229
_cell_angle_alpha	77.865496
_cell_angle_beta	89.991971
_cell_angle_gamma	84.016579
loop_
_atom_site_label
_atom_site_type_symbol
_atom_site_fract_x
_atom_site_fract_y
_atom_site_fract_z
O1	O	1.005067	0.157924	-0.087996
O2	O	0.784820	0.178427	-0.090810
O3	O	0.900021	-0.013491	-0.064445
O4	O	0.889866	0.349842	-0.114361
O5	O	0.900006	-0.013502	0.068133
O6	O	0.784805	0.178415	0.041768
O7	O	1.005051	0.157912	0.044582
Zn8	Zn	0.894926	0.168162	0.064225
Zn9	Zn	0.894946	0.168178	-0.110453
O10	O	0.889850	0.349830	0.018217
C11	C	0.756611	0.177682	-0.024419
C12	C	0.672580	0.175465	-0.024114
C13	C	0.148342	0.275612	-0.037881
C14	C	0.227299	0.277688	-0.038168
C15	C	0.275204	0.165025	-0.022690
C16	C	0.244149	0.050279	-0.006932
C17	C	0.165194	0.048204	-0.006650
C18	C	0.562568	0.058642	-0.008068
C19	C	0.641528	0.060726	-0.008348
C20	C	0.624673	0.288127	-0.039586
C21	C	0.545718	0.286052	-0.039305
C22	C	0.514670	0.171307	-0.023550
C23	C	0.429055	0.169057	-0.023240
C24	C	0.360817	0.167273	-0.022994
C25	C	0.899274	-0.059985	0.008229
C26	C	0.897059	-0.198504	0.027254
C27	C	0.896080	-0.260248	-0.032944
C28	C	0.893792	-0.403415	-0.013282
C29	C	1.033261	0.158657	-0.021810
C30	C	1.117292	0.160875	-0.022121
C31	C	0.890598	0.396324	-0.054459
C32	C	0.892813	0.534844	-0.073489
N33	N	0.894917	0.168151	0.183438
N34	N	0.894960	0.168179	-0.229664
C35	C	0.945944	0.083204	0.236824
C36	C	0.945948	0.083203	0.320277
C37	C	0.894929	0.168156	0.350340
C38	C	0.843896	0.253106	0.296947
C39	C	0.843889	0.253100	0.213497
C40	C	0.843924	0.253131	0.633490
C41	C	0.843937	0.253132	0.716947
C42	C	0.945983	0.083234	0.740270
C43	C	0.945976	0.083228	0.656820
C44	C	0.894941	0.168173	0.603435
C45	C	0.894936	0.168172	0.512947
C46	C	0.894937	0.168164	0.440825
H47	H	0.283160	-0.041454	0.005666
C48	C	0.086160	-0.086063	0.079940
C49	C	0.131058	-0.077918	0.010674
H50	H	0.065084	-0.163925	0.090628
H51	H	0.116603	-0.080542	0.125408
H52	H	0.046334	-0.019255	0.070752
H53	H	0.170888	-0.144721	0.019865
H54	H	0.100613	-0.083452	-0.034804
C55	C	0.899310	-0.060598	-0.124378
C56	C	0.897256	-0.188543	-0.122172
H57	H	0.900046	-0.016338	-0.179465
H58	H	0.855585	-0.029687	-0.098931
H59	H	0.943700	-0.049001	-0.096244
H60	H	0.852863	-0.200142	-0.150301
H61	H	0.940986	-0.219464	-0.147630
C62	C	0.049783	0.405208	-0.123839
C63	C	0.095686	0.399455	-0.054896
H64	H	0.017274	0.481663	-0.134341
H65	H	0.080943	0.401298	-0.169524
H66	H	0.019992	0.336571	-0.114401
H67	H	0.125481	0.468087	-0.064336
H68	H	0.064522	0.403377	-0.009200
C69	C	0.890583	-0.603065	0.078157
C70	C	0.892629	-0.475119	0.075950
H71	H	0.889867	-0.647330	0.133245
H72	H	0.846193	-0.614673	0.050040
H73	H	0.934309	-0.633967	0.052693
H74	H	0.848900	-0.444215	0.101409
H75	H	0.937023	-0.463503	0.104079
H76	H	0.896198	-0.251632	0.093348
C77	C	0.828489	-0.410711	-0.204121
C78	C	0.893943	-0.393502	-0.162735
H79	H	0.829180	-0.366482	-0.259219
H80	H	0.827116	-0.497518	-0.202575
H81	H	0.784780	-0.379783	-0.178642
H82	H	0.937653	-0.424438	-0.188211
H83	H	0.895323	-0.306677	-0.164286
C84	C	1.046811	-0.084747	0.268271
C85	C	1.002026	-0.010182	0.203784
H86	H	1.081430	-0.142408	0.247874
H87	H	1.074305	-0.032855	0.293677
H88	H	1.015069	-0.129563	0.306991
H89	H	1.033768	0.034641	0.165067
H90	H	0.974530	-0.062081	0.178365
H91	H	0.802371	0.322298	0.590030
C92	C	0.961518	-0.086664	0.437456
C93	C	1.002044	-0.010172	0.378954
H94	H	0.996153	-0.144318	0.473676
H95	H	0.931142	-0.036080	0.467306
H96	H	0.929784	-0.131488	0.411061
H97	H	1.033774	0.034658	0.405349
H98	H	1.032433	-0.060764	0.349101
C99	C	1.046843	-0.084727	0.688261
C100	C	1.002055	-0.010159	0.623777
H101	H	1.081459	-0.142387	0.667862
H102	H	1.074339	-0.032837	0.713667
H103	H	1.015102	-0.129543	0.726982
H104	H	1.033796	0.034665	0.585059
H105	H	0.974557	-0.062054	0.598358
H106	H	0.987536	0.014062	0.783747
H107	H	0.252576	0.371119	-0.051009
C108	C	0.743043	0.421060	0.685516
C109	C	0.787844	0.346508	0.749995
H110	H	0.708414	0.478696	0.705922
H111	H	0.774768	0.465894	0.646798
H112	H	0.715554	0.369149	0.660108
H113	H	0.815338	0.398419	0.775399
H114	H	0.756116	0.301671	0.788727
H115	H	0.649962	0.381558	-0.052418
C116	C	0.741053	0.280386	0.387079
C117	C	0.787815	0.346485	0.329994
H118	H	0.706435	0.338040	0.407483
H119	H	0.713559	0.228507	0.361663
H120	H	0.771455	0.229799	0.430813
H121	H	0.757414	0.397066	0.286257
H122	H	0.815312	0.398386	0.355410
C123	C	0.536989	0.511045	-0.070221
C124	C	0.493061	0.409895	-0.056323
H125	H	0.504480	0.587500	-0.080735
H126	H	0.568124	0.507127	-0.023451
H127	H	0.568147	0.507117	-0.115915
H128	H	0.461907	0.413818	-0.010625
H129	H	0.461913	0.413815	-0.103098
C130	C	0.650264	-0.164279	0.022538
C131	C	0.694188	-0.063123	0.008656
H132	H	0.682775	-0.240731	0.033029
H133	H	0.619113	-0.160379	0.068230
H134	H	0.619123	-0.160338	-0.024241
H135	H	0.725325	-0.067059	0.055437
H136	H	0.725353	-0.067025	-0.037041
H137	H	0.802337	0.322271	0.170029
C138	C	0.483587	-0.075629	-0.057788
C139	C	0.528451	-0.067488	0.009252
H140	H	0.462529	-0.153506	-0.047096
H141	H	0.443756	-0.008846	-0.066959
H142	H	0.514056	-0.070076	-0.104774
H143	H	0.497981	-0.073032	0.056237
H144	H	0.568288	-0.134290	0.018433
