data_functionalizedCrystal
_audit_creation_method	'MofGen! by Chris Wilmer'
_symmetry_space_group_name_H-M	'P1'
_symmetry_Int_Tables_number	1
_symmetry_cell_setting	triclinic
loop_
_symmetry_equiv_pos_as_xyz
  x,y,z
_cell_length_a	14.519731
_cell_length_b	9.065218
_cell_length_c	8.140239
_cell_angle_alpha	90.002802
_cell_angle_beta	89.995496
_cell_angle_gamma	95.647631
loop_
_atom_site_label
_atom_site_type_symbol
_atom_site_fract_x
_atom_site_fract_y
_atom_site_fract_z
O1	O	0.135224	-1.957880	-0.136622
O2	O	0.468557	-1.624547	0.196711
O3	O	0.801891	-1.291214	0.530045
O4	O	0.146316	-1.528389	-0.136625
O5	O	0.479649	-1.195056	0.196709
O6	O	0.812982	-0.861722	0.530042
O7	O	0.006616	-1.754506	-0.136608
O8	O	0.339949	-1.421172	0.196725
O9	O	0.673283	-1.087839	0.530058
O10	O	0.274924	-1.731764	-0.136638
O11	O	0.608257	-1.398430	0.196695
O12	O	0.941590	-1.065097	0.530028
O13	O	0.006614	-1.754493	0.136619
O14	O	0.339948	-1.421160	0.469952
O15	O	0.673281	-1.087826	0.803285
O16	O	0.146314	-1.528376	0.136602
O17	O	0.479647	-1.195043	0.469936
O18	O	0.812981	-0.861710	0.803269
O19	O	0.135222	-1.957868	0.136605
O20	O	0.468556	-1.624534	0.469938
O21	O	0.801889	-1.291201	0.803272
Zn22	Zn	0.140768	-1.743120	0.179984
Zn23	Zn	0.474101	-1.409787	0.513318
Zn24	Zn	0.807435	-1.076454	0.846651
Zn25	Zn	0.140770	-1.743137	-0.180004
Zn26	Zn	0.474103	-1.409803	0.153329
Zn27	Zn	0.807437	-1.076470	0.486663
O28	O	0.274922	-1.731751	0.136589
O29	O	0.608255	-1.398418	0.469922
O30	O	0.941589	-1.065085	0.803255
C31	C	0.145249	-1.473416	-0.000011
C32	C	0.478582	-1.140083	0.333322
C33	C	0.811916	-0.806749	0.666655
C34	C	0.142062	-1.309632	-0.000012
C35	C	0.475395	-0.976299	0.333321
C36	C	0.808728	-0.642966	0.666655
C37	C	-0.027752	-1.753434	0.000005
C38	C	0.305581	-1.420100	0.333339
C39	C	0.638915	-1.086767	0.666672
C40	C	-0.130156	-1.750241	0.000006
C41	C	0.203178	-1.416907	0.333340
C42	C	0.536511	-1.083574	0.666673
C43	C	-0.213319	-1.747646	0.000003
C44	C	0.120014	-1.414313	0.333336
C45	C	0.453348	-1.080979	0.666669
C46	C	-0.317651	-1.744404	-0.000010
C47	C	0.015682	-1.411071	0.333323
C48	C	0.349015	-1.077737	0.666657
C49	C	-0.400809	-1.741831	-0.000021
C50	C	-0.067476	-1.408498	0.333313
C51	C	0.265857	-1.075164	0.666646
C52	C	-0.505148	-1.738589	-0.000030
C53	C	-0.171815	-1.405256	0.333303
C54	C	0.161518	-1.071923	0.666637
C55	C	0.136289	-2.012841	-0.000012
C56	C	0.469622	-1.679507	0.333321
C57	C	0.802956	-1.346174	0.666655
C58	C	0.139476	-2.176624	-0.000022
C59	C	0.472810	-1.843291	0.333311
C60	C	0.806143	-1.509958	0.666644
C61	C	0.309290	-1.732823	-0.000029
C62	C	0.642623	-1.399490	0.333304
C63	C	0.975957	-1.066156	0.666638
C64	C	0.411694	-1.736016	-0.000041
C65	C	0.745027	-1.402683	0.333293
C66	C	1.078360	-1.069349	0.666626
N67	N	0.140766	-1.743120	0.425667
N68	N	0.474099	-1.409786	0.759000
N69	N	0.807433	-1.076453	1.092334
N70	N	0.140765	-1.743149	-0.425687
N71	N	0.474098	-1.409815	-0.092353
N72	N	0.807432	-1.076482	0.240980
