data_functionalizedCrystal
_audit_creation_method	'MofGen! by Chris Wilmer'
_symmetry_space_group_name_H-M	'P1'
_symmetry_Int_Tables_number	1
_symmetry_cell_setting	triclinic
loop_
_symmetry_equiv_pos_as_xyz
  x,y,z
_cell_length_a	25.639242
_cell_length_b	19.805404
_cell_length_c	19.805399
_cell_angle_alpha	89.972890
_cell_angle_beta	89.972605
_cell_angle_gamma	90.025120
loop_
_atom_site_label
_atom_site_type_symbol
_atom_site_fract_x
_atom_site_fract_y
_atom_site_fract_z
Zn1	Zn	0.799285	-0.269560	-0.382863
Zn2	Zn	1.132618	0.063774	-0.049530
Zn3	Zn	1.465952	0.397107	0.283804
Zn4	Zn	0.799214	-0.382748	-0.269676
Zn5	Zn	1.132548	-0.049415	0.063658
Zn6	Zn	1.465881	0.283919	0.396991
Zn7	Zn	0.711853	-0.269569	-0.269672
Zn8	Zn	1.045187	0.063764	0.063661
Zn9	Zn	1.378520	0.397097	0.396994
Zn10	Zn	0.711820	-0.382703	-0.382807
Zn11	Zn	1.045154	-0.049370	-0.049474
Zn12	Zn	1.378487	0.283964	0.283860
O13	O	0.755543	-0.326145	-0.326255
O14	O	1.088877	0.007188	0.007079
O15	O	1.422210	0.340522	0.340412
O16	O	0.872441	-0.284589	-0.367873
O17	O	1.205774	0.048744	-0.034540
O18	O	1.539108	0.382078	0.298793
O19	O	0.787610	-0.367757	-0.174959
O20	O	1.120943	-0.034424	0.158375
O21	O	1.454277	0.298909	0.491708
O22	O	0.723495	-0.174852	-0.284709
O23	O	1.056828	0.158482	0.048624
O24	O	1.390161	0.491815	0.381957
O25	O	0.872389	-0.367748	-0.284715
O26	O	1.205722	-0.034415	0.048618
O27	O	1.539056	0.298919	0.381951
O28	O	0.787731	-0.174844	-0.367870
O29	O	1.121064	0.158489	-0.034537
O30	O	1.454397	0.491822	0.298797
O31	O	0.723426	-0.284606	-0.174956
O32	O	1.056760	0.048728	0.158377
O33	O	1.390093	0.382061	0.491711
O34	O	0.638684	-0.284562	-0.284655
O35	O	0.972017	0.048771	0.048678
O36	O	1.305351	0.382104	0.382012
O37	O	0.723439	-0.367672	-0.477531
O38	O	1.056772	-0.034338	-0.144198
O39	O	1.390105	0.298995	0.189136
O40	O	0.638660	-0.367681	-0.367775
O41	O	0.971993	-0.034348	-0.034441
O42	O	1.305326	0.298986	0.298892
O43	O	0.787698	-0.284545	-0.477572
O44	O	1.121032	0.048788	-0.144239
O45	O	1.454365	0.382121	0.189094
O46	O	0.787578	-0.477459	-0.284661
O47	O	1.120911	-0.144125	0.048672
O48	O	1.454245	0.189208	0.382006
O49	O	0.723370	-0.477426	-0.367778
O50	O	1.056703	-0.144092	-0.034445
O51	O	1.390037	0.189241	0.298889
C52	C	0.755477	-0.502001	-0.326228
C53	C	1.088810	-0.168668	0.007105
C54	C	1.422144	0.164666	0.340438
C55	C	0.755496	-0.577233	-0.326240
C56	C	1.088830	-0.243900	0.007093
C57	C	1.422163	0.089434	0.340427
C58	C	0.619701	-0.326118	-0.326209
C59	C	0.953034	0.007215	0.007125
C60	C	1.286367	0.340548	0.340458
C61	C	0.561587	-0.326123	-0.326205
C62	C	0.894920	0.007210	0.007128
C63	C	1.228253	0.340543	0.340462
C64	C	0.789105	-1.039019	-0.283070
C65	C	1.122438	-0.705685	0.050263
C66	C	1.455772	-0.372352	0.383596
C67	C	0.789080	-0.968330	-0.283057
C68	C	1.122414	-0.634997	0.050276
C69	C	1.455747	-0.301664	0.383610
C70	C	0.755612	-0.932995	-0.326290
C71	C	1.088945	-0.599661	0.007043
C72	C	1.422279	-0.266328	0.340376
C73	C	0.722162	-0.968351	-0.369535
C74	C	1.055495	-0.635018	-0.036202
C75	C	1.388829	-0.301685	0.297132
C76	C	0.722184	-1.039038	-0.369544
C77	C	1.055518	-0.705705	-0.036211
C78	C	1.388851	-0.372372	0.297122
C79	C	0.722071	-0.683278	-0.369498
C80	C	1.055404	-0.349945	-0.036164
C81	C	1.388738	-0.016611	0.297169
C82	C	0.722052	-0.612586	-0.369487
C83	C	1.055386	-0.279253	-0.036153
C84	C	1.388719	0.054081	0.297180
C85	C	0.788967	-0.612570	-0.283011
C86	C	1.122300	-0.279237	0.050323
C87	C	1.455634	0.054097	0.383656
C88	C	0.788989	-0.683257	-0.283020
C89	C	1.122323	-0.349924	0.050313
C90	C	1.455656	-0.016590	0.383647
C91	C	0.755538	-0.718607	-0.326262
C92	C	1.088871	-0.385274	0.007072
C93	C	1.422204	-0.051941	0.340405
C94	C	0.755564	-0.795256	-0.326274
C95	C	1.088897	-0.461922	0.007059
C96	C	1.422231	-0.128589	0.340392
C97	C	0.755588	-0.856348	-0.326281
C98	C	1.088921	-0.523014	0.007052
C99	C	1.422255	-0.189681	0.340385
C100	C	0.201220	-0.369497	-0.369494
C101	C	0.534553	-0.036164	-0.036161
C102	C	0.867887	0.297169	0.297173
C103	C	0.146616	-0.369502	-0.369505
C104	C	0.479949	-0.036168	-0.036171
C105	C	0.813282	0.297165	0.297162
O106	O	0.118376	-0.406347	-0.406271
O107	O	0.451709	-0.073013	-0.072938
O108	O	0.785042	0.260320	0.260395
N109	N	0.119304	-0.326164	-0.326299
N110	N	0.452638	0.007170	0.007035
N111	N	0.785971	0.340503	0.340368
C112	C	0.146600	-0.282814	-0.283084
C113	C	0.479933	0.050519	0.050249
C114	C	0.813267	0.383853	0.383583
O115	O	0.118356	-0.245952	-0.246336
O116	O	0.451689	0.087382	0.086998
O117	O	0.785022	0.420715	0.420331
C118	C	0.201203	-0.282807	-0.283077
C119	C	0.534537	0.050526	0.050256
C120	C	0.867870	0.383860	0.383589
C121	C	0.228512	-0.326152	-0.326281
C122	C	0.561845	0.007181	0.007052
C123	C	0.895179	0.340514	0.340385
C124	C	0.228529	-0.412839	-0.412695
C125	C	0.561862	-0.079505	-0.079361
C126	C	0.895195	0.253828	0.253972
C127	C	0.283129	-0.412835	-0.412683
C128	C	0.616462	-0.079502	-0.079350
C129	C	0.949796	0.253831	0.253984
C130	C	0.310421	-0.369491	-0.369470
C131	C	0.643754	-0.036157	-0.036137
C132	C	0.977088	0.297176	0.297196
C133	C	0.283112	-0.326149	-0.326270
C134	C	0.616446	0.007184	0.007064
C135	C	0.949779	0.340518	0.340397
C136	C	0.228498	-0.239454	-0.239867
C137	C	0.561832	0.093879	0.093467
C138	C	0.895165	0.427212	0.426800
C139	C	0.283105	-0.239451	-0.239864
C140	C	0.616439	0.093883	0.093469
C141	C	0.949772	0.427216	0.426803
C142	C	0.310414	-0.282796	-0.283068
C143	C	0.643747	0.050537	0.050265
C144	C	0.977080	0.383870	0.383599
C145	C	0.365005	-0.282801	-0.283045
C146	C	0.698338	0.050533	0.050288
C147	C	1.031672	0.383866	0.383622
N148	N	0.392316	-0.326139	-0.326251
N149	N	0.725650	0.007195	0.007082
N150	N	1.058983	0.340528	0.340416
C151	C	0.365024	-0.369483	-0.369464
C152	C	0.698358	-0.036150	-0.036130
C153	C	1.031691	0.297183	0.297203
C154	C	0.031929	-0.282831	-0.283102
C155	C	0.365263	0.050502	0.050231
C156	C	0.698596	0.383835	0.383564
C157	C	-0.022673	-0.282841	-0.283105
C158	C	0.310660	0.050492	0.050228
C159	C	0.643994	0.383825	0.383561
C160	C	-0.022654	-0.369528	-0.369527
C161	C	0.310680	-0.036195	-0.036193
C162	C	0.644013	0.297139	0.297140
C163	C	0.031950	-0.369521	-0.369520
C164	C	0.365283	-0.036188	-0.036187
C165	C	0.698616	0.297146	0.297147
C166	C	0.059241	-0.326169	-0.326308
C167	C	0.392574	0.007164	0.007025
C168	C	0.725907	0.340498	0.340358
C169	C	0.479689	-0.369473	-0.369435
C170	C	0.813023	-0.036140	-0.036102
C171	C	1.146356	0.297193	0.297231
C172	C	0.534295	-0.369468	-0.369418
C173	C	0.867628	-0.036135	-0.036084
C174	C	1.200961	0.297199	0.297249
C175	C	0.534271	-0.282779	-0.282999
C176	C	0.867604	0.050554	0.050334
C177	C	1.200937	0.383888	0.383668
C178	C	0.479670	-0.282787	-0.283014
C179	C	0.813003	0.050547	0.050320
C180	C	1.146337	0.383880	0.383653
C181	C	0.452381	-0.326136	-0.326237
C182	C	0.785714	0.007197	0.007096
C183	C	1.119047	0.340531	0.340429
O184	O	0.393280	-0.245973	-0.246299
O185	O	0.726613	0.087361	0.087034
O186	O	1.059946	0.420694	0.420368
O187	O	0.393275	-0.406333	-0.406212
O188	O	0.726609	-0.073000	-0.072879
O189	O	1.059942	0.260333	0.260454
C190	C	0.891916	-0.326172	-0.326301
C191	C	1.225250	0.007161	0.007032
C192	C	1.558583	0.340494	0.340366
C193	C	0.950030	-0.326184	-0.326321
C194	C	1.283364	0.007149	0.007013
C195	C	1.616697	0.340483	0.340346
C196	C	0.755624	-0.149602	-0.326295
C197	C	1.088958	0.183731	0.007038
C198	C	1.422291	0.517064	0.340371
C199	C	0.755659	-0.074370	-0.326313
C200	C	1.088992	0.258963	0.007020
C201	C	1.422325	0.592296	0.340354
C202	C	0.755573	-0.326102	-0.502797
C203	C	1.088906	0.007231	-0.169464
C204	C	1.422239	0.340564	0.163869
C205	C	0.755585	-0.326084	-0.578029
C206	C	1.088919	0.007249	-0.244696
C207	C	1.422252	0.340582	0.088637
C208	C	0.789046	-0.282798	-0.613396
C209	C	1.122379	0.050535	-0.280063
C210	C	1.455713	0.383868	0.053271
C211	C	0.789051	-0.282779	-0.684085
C212	C	1.122385	0.050555	-0.350751
C213	C	1.455718	0.383888	-0.017418
C214	C	0.755598	-0.326049	-0.719405
C215	C	1.088932	0.007284	-0.386072
C216	C	1.422265	0.340618	-0.052738
C217	C	0.722134	-0.369337	-0.684033
C218	C	1.055467	-0.036003	-0.350700
C219	C	1.388800	0.297330	-0.017367
C220	C	0.722126	-0.369352	-0.613346
C221	C	1.055459	-0.036019	-0.280013
C222	C	1.388793	0.297314	0.053320
C223	C	0.722163	-0.369274	-0.969107
C224	C	1.055496	-0.035940	-0.635773
C225	C	1.388830	0.297393	-0.302440
C226	C	0.722174	-0.369256	-1.039799
C227	C	1.055508	-0.035923	-0.706466
C228	C	1.388841	0.297411	-0.373132
C229	C	0.789089	-0.282700	-1.039845
C230	C	1.122422	0.050633	-0.706512
C231	C	1.455755	0.383967	-0.373178
C232	C	0.789081	-0.282716	-0.969158
C233	C	1.122414	0.050618	-0.635825
C234	C	1.455748	0.383951	-0.302491
C235	C	0.755615	-0.326001	-0.933793
C236	C	1.088948	0.007333	-0.600459
C237	C	1.422281	0.340666	-0.267126
C238	C	0.755609	-0.326020	-0.857144
C239	C	1.088942	0.007313	-0.523811
C240	C	1.422275	0.340646	-0.190477
C241	C	0.755607	-0.326033	-0.796052
C242	C	1.088940	0.007300	-0.462719
C243	C	1.422273	0.340634	-0.129386
C244	C	0.755544	-0.326139	-0.150399
C245	C	1.088878	0.007195	0.182935
C246	C	1.422211	0.340528	0.516268
C247	C	0.755633	-0.325966	-0.075167
C248	C	1.088966	0.007367	0.258166
C249	C	1.422300	0.340701	0.591500
H250	H	0.816362	-1.067784	-0.247868
H251	H	1.149695	-0.734450	0.085465
H252	H	1.483028	-0.401117	0.418799
H253	H	0.816300	-0.247533	-0.712877
H254	H	1.149633	0.085801	-0.379544
H255	H	1.482967	0.419134	-0.046210
H256	H	0.694796	-0.583817	-0.404694
H257	H	1.028130	-0.250484	-0.071360
H258	H	1.361463	0.082850	0.261973
H259	H	0.206273	-0.204160	-0.204684
H260	H	0.539606	0.129174	0.128650
H261	H	0.872940	0.462507	0.461983
H262	H	0.694952	-1.067821	-0.404760
H263	H	1.028285	-0.734488	-0.071427
H264	H	1.361618	-0.401154	0.261906
H265	H	0.694909	-0.939577	-0.404734
H266	H	1.028242	-0.606244	-0.071401
H267	H	1.361575	-0.272910	0.261933
H268	H	0.816324	-0.247483	-0.940403
H269	H	1.149657	0.085851	-0.607070
H270	H	1.482991	0.419184	-0.273737
H271	H	0.556527	-0.404768	-0.404600
H272	H	0.889860	-0.071434	-0.071267
H273	H	1.223194	0.261899	0.262067
H274	H	0.694930	-0.404493	-1.068555
H275	H	1.028264	-0.071160	-0.735222
H276	H	1.361597	0.262174	-0.401888
H277	H	0.694873	-0.404593	-0.584552
H278	H	1.028207	-0.071260	-0.251218
H279	H	1.361540	0.262073	0.082115
H280	H	0.816337	-0.247453	-1.068648
H281	H	1.149670	0.085881	-0.735315
H282	H	1.483003	0.419214	-0.401982
H283	H	0.816289	-0.247565	-0.584643
H284	H	1.149623	0.085769	-0.251310
H285	H	1.482956	0.419102	0.082024
H286	H	0.816204	-0.583780	-0.247798
H287	H	1.149537	-0.250447	0.085535
H288	H	1.482870	0.082887	0.418868
H289	H	0.816314	-0.939547	-0.247845
H290	H	1.149648	-0.606214	0.085488
H291	H	1.482981	-0.272881	0.418821
H292	H	0.694920	-0.404529	-0.940321
H293	H	1.028254	-0.071196	-0.606987
H294	H	1.361587	0.262138	-0.273654
H295	H	0.305359	-0.448130	-0.447866
H296	H	0.638692	-0.114797	-0.114532
H297	H	0.972026	0.218536	0.218801
H298	H	0.694893	-0.404566	-0.712797
H299	H	1.028227	-0.071232	-0.379464
H300	H	1.361560	0.262101	-0.046130
H301	H	0.694829	-0.712052	-0.404703
H302	H	1.028162	-0.378719	-0.071369
H303	H	1.361495	-0.045385	0.261964
H304	H	0.457477	-0.404771	-0.404634
H305	H	0.790810	-0.071438	-0.071300
H306	H	1.124144	0.261896	0.262033
H307	H	0.816245	-0.712024	-0.247817
H308	H	1.149578	-0.378690	0.085516
H309	H	1.482911	-0.045357	0.418849
H310	H	0.206313	-0.448136	-0.447887
H311	H	0.539647	-0.114802	-0.114554
H312	H	0.872980	0.218531	0.218779
H313	H	0.305323	-0.204144	-0.204679
H314	H	0.638656	0.129190	0.128654
H315	H	0.971989	0.462523	0.461988
H316	H	0.054146	-0.247530	-0.247909
H317	H	0.387480	0.085804	0.085424
H318	H	0.720813	0.419137	0.418757
H319	H	0.054181	-0.404816	-0.404702
H320	H	0.387514	-0.071482	-0.071368
H321	H	0.720847	0.261851	0.261965
H322	H	-0.044885	-0.404820	-0.404715
H323	H	0.288449	-0.071486	-0.071382
H324	H	0.621782	0.261847	0.261952
H325	H	0.457434	-0.247493	-0.247832
H326	H	0.790768	0.085841	0.085501
H327	H	1.124101	0.419174	0.418834
H328	H	-0.044903	-0.247552	-0.247918
H329	H	0.288430	0.085782	0.085416
H330	H	0.621764	0.419115	0.418749
H331	H	0.556502	-0.247491	-0.247814
H332	H	0.889835	0.085842	0.085519
H333	H	1.223168	0.419176	0.418852
