data_functionalizedCrystal
_audit_creation_method	'MofGen! by Chris Wilmer'
_symmetry_space_group_name_H-M	'P1'
_symmetry_Int_Tables_number	1
_symmetry_cell_setting	triclinic
loop_
_symmetry_equiv_pos_as_xyz
  x,y,z
_cell_length_a	12.837943
_cell_length_b	14.853567
_cell_length_c	11.295483
_cell_angle_alpha	94.104625
_cell_angle_beta	85.461227
_cell_angle_gamma	89.231935
loop_
_atom_site_label
_atom_site_type_symbol
_atom_site_fract_x
_atom_site_fract_y
_atom_site_fract_z
O1	O	1.382763	0.228927	-0.098984
O2	O	1.080941	0.217348	-0.098992
O3	O	1.239915	0.092592	-0.098991
O4	O	1.223790	0.353684	-0.098985
O5	O	1.225952	0.103530	0.099059
O6	O	1.066978	0.228287	0.099059
O7	O	1.368800	0.239866	0.099067
Cu8	Cu	1.216614	0.235075	0.117146
Cu9	Cu	1.233127	0.222139	-0.117072
O10	O	1.209827	0.364623	0.099066
C11	C	1.035334	0.218906	0.000032
C12	C	0.920240	0.207240	0.000029
C13	C	0.679482	0.347487	0.000049
C14	C	0.571341	0.336530	0.000047
C15	C	0.595813	0.174369	0.000030
C16	C	0.703954	0.185327	0.000032
C17	C	0.745785	0.271888	0.000040
C18	C	0.853929	0.282844	0.000034
C19	C	0.878399	0.120685	0.000026
C20	C	0.770257	0.109728	0.000023
C21	C	1.232203	0.064410	0.000030
C22	C	1.230014	-0.035860	0.000020
C23	C	1.126324	-0.457187	0.000040
C24	C	1.315188	-0.462449	0.000045
C25	C	1.317247	-0.368241	0.000038
C26	C	1.223843	-0.318502	0.000034
C27	C	1.128380	-0.362970	0.000037
C28	C	1.412707	-0.323764	0.000047
C29	C	1.414770	-0.229551	0.000042
C30	C	1.321366	-0.179810	0.000029
C31	C	1.225899	-0.224285	0.000030
C32	C	1.132495	-0.174546	0.000026
C33	C	1.037028	-0.219019	0.000019
C34	C	1.034976	-0.313230	0.000024
C35	C	1.323418	-0.085599	0.000024
C36	C	1.134551	-0.080329	0.000023
C37	C	1.414408	0.238308	0.000040
C38	C	1.529502	0.249974	0.000036
C39	C	1.217539	0.392804	0.000042
C40	C	1.219728	0.493073	0.000044
N41	N	1.205008	0.244174	0.281883
N42	N	1.244742	0.213033	-0.281808
C43	C	1.328293	0.147484	0.531173
C44	C	1.319529	0.154367	0.655836
C45	C	1.178712	0.264819	0.655876
C46	C	1.187475	0.257935	0.531212
C47	C	1.262270	0.199267	0.468865
C48	C	1.271038	0.192389	0.344199
C49	C	1.130216	0.302836	0.344241
C50	C	1.121452	0.309719	0.468904
H51	H	0.960979	-0.178508	0.000024
H52	H	1.060553	0.357483	0.519682
H53	H	0.957251	-0.349448	0.000020
C54	C	0.724243	0.014516	0.000010
H55	H	0.779221	-0.028939	0.000009
H56	H	0.687431	0.003062	-0.069055
H57	H	0.677700	0.010680	0.069083
H58	H	0.517360	0.398091	0.000058
C59	C	1.057599	0.359811	0.275700
H60	H	1.073528	0.347311	0.192525
H61	H	1.067519	0.422084	0.296144
H62	H	0.986949	0.345176	0.296135
C63	C	1.519778	-0.180639	0.000033
H64	H	1.575110	-0.223757	0.000027
H65	H	1.519644	-0.140173	0.069090
H66	H	1.529371	-0.147821	-0.069048
C67	C	1.353303	0.127854	0.275618
H68	H	1.391361	0.097993	0.330586
H69	H	1.399928	0.161326	0.226977
H70	H	1.319364	0.084413	0.226997
H71	H	0.713541	0.417969	0.000054
H72	H	1.058490	-0.039837	0.000014
H73	H	0.561728	0.103900	0.000122
C74	C	1.021318	-0.506102	0.000037
H75	H	1.033465	-0.569335	0.000046
H76	H	0.987722	-0.493393	-0.069026
H77	H	0.977990	-0.485763	0.069112
C78	C	1.096382	0.329287	0.724466
H79	H	1.058290	0.359123	0.669505
H80	H	1.130244	0.372741	0.773136
H81	H	1.049787	0.295745	0.773059
C82	C	0.951334	0.037522	0.000014
H83	H	1.021731	0.056443	0.000021
H84	H	0.943503	-0.001398	-0.069054
H85	H	0.933774	0.006225	0.069084
C86	C	1.417923	-0.517159	0.000052
H87	H	1.403026	-0.579637	0.000050
H88	H	1.452194	-0.498982	0.069114
H89	H	1.461926	-0.506622	-0.069024
H90	H	1.488750	-0.364268	0.000062
H91	H	1.401145	-0.049393	0.000038
H92	H	0.887985	0.353327	0.000043
H93	H	1.389201	0.099720	0.480409
H94	H	1.373291	0.112199	0.706564
