data_functionalizedCrystal
_audit_creation_method	'MofGen! by Chris Wilmer'
_symmetry_space_group_name_H-M	'P1'
_symmetry_Int_Tables_number	1
_symmetry_cell_setting	triclinic
loop_
_symmetry_equiv_pos_as_xyz
  x,y,z
_cell_length_a	17.699077
_cell_length_b	19.188925
_cell_length_c	16.776229
_cell_angle_alpha	89.993696
_cell_angle_beta	89.993415
_cell_angle_gamma	83.211563
loop_
_atom_site_label
_atom_site_type_symbol
_atom_site_fract_x
_atom_site_fract_y
_atom_site_fract_z
O1	O	1.003963	0.088275	-0.066277
O2	O	0.783569	0.099766	-0.066281
O3	O	0.900128	-0.007628	-0.066274
O4	O	0.887404	0.195669	-0.066284
O5	O	0.900113	-0.007635	0.066302
O6	O	0.783553	0.099760	0.066296
O7	O	1.003948	0.088268	0.066300
Zn8	Zn	0.893748	0.094013	0.087347
Zn9	Zn	0.893768	0.094022	-0.087328
O10	O	0.887388	0.195663	0.066293
C11	C	0.755365	0.099352	0.000007
C12	C	0.671348	0.098119	0.000006
C13	C	0.631873	0.097534	0.072274
C14	C	0.552932	0.096364	0.072275
C15	C	0.513467	0.095784	0.000007
C16	C	0.552948	0.096367	-0.072267
C17	C	0.631888	0.097532	-0.072267
C18	C	0.234591	0.091668	-0.072269
C19	C	0.155644	0.090505	-0.072263
C20	C	0.155635	0.090501	0.072274
C21	C	0.234575	0.091666	0.072274
C22	C	0.274049	0.092245	0.000000
C23	C	0.359646	0.093512	0.000000
C24	C	0.427870	0.094522	0.000006
C25	C	0.899709	-0.033643	0.000013
C26	C	0.898474	-0.111149	0.000012
C27	C	0.958599	-0.672853	-0.000007
C28	C	0.959766	-0.600029	-0.000000
C29	C	0.891372	-0.555170	-0.000002
C30	C	0.821807	-0.583140	0.000010
C31	C	0.820642	-0.655964	0.000011
N32	N	0.841863	-0.434541	-0.045128
N33	N	0.842975	-0.365363	-0.045130
C34	C	0.894878	-0.335757	-0.000002
N35	N	0.945639	-0.377944	0.045119
N36	N	0.944530	-0.447129	0.045118
C37	C	0.892628	-0.476204	-0.000002
C38	C	0.965704	-0.228830	-0.000000
C39	C	0.966868	-0.156003	0.000012
C40	C	0.828908	-0.139116	0.000014
C41	C	0.827746	-0.211941	0.000010
C42	C	0.896146	-0.256794	-0.000001
C43	C	1.032152	0.088682	0.000010
C44	C	1.116169	0.089916	0.000006
C45	C	0.887807	0.221678	0.000004
C46	C	0.889042	0.299184	-0.000000
N47	N	0.893740	0.094007	0.206558
N48	N	0.893783	0.094022	-0.206540
C49	C	0.945368	0.046472	0.248278
C50	C	0.945372	0.046471	0.331730
C51	C	0.893751	0.094009	0.373461
C52	C	0.842118	0.141546	0.331735
C53	C	0.842110	0.141543	0.248285
C54	C	0.842145	0.141560	0.668282
C55	C	0.842158	0.141561	0.751739
C56	C	0.945407	0.046488	0.751728
C57	C	0.945400	0.046485	0.668278
C58	C	0.893764	0.094019	0.626559
C59	C	0.893759	0.094018	0.536071
C60	C	0.893759	0.094014	0.463948
H61	H	0.123486	0.090026	0.131122
O62	O	1.001040	-0.004816	0.203282
H63	H	0.969282	-0.038710	0.165279
H64	H	1.016408	-0.577257	-0.000006
O65	O	0.786485	0.192850	0.796745
H66	H	0.727511	0.184025	0.780757
O67	O	0.113077	0.089856	-0.150212
H68	H	0.153789	0.090440	-0.200470
O69	O	1.041897	-0.125844	0.000008
H70	H	1.031218	-0.067670	0.000020
O71	O	0.674435	0.098162	0.150223
H72	H	0.703484	0.146267	0.153677
H73	H	0.771105	-0.234708	0.000010
O74	O	1.032373	-0.721226	-0.000013
H75	H	1.019881	-0.776564	-0.000018
O76	O	0.277162	0.092300	-0.150216
H77	H	0.236453	0.091710	-0.200466
H78	H	0.766121	-0.546611	0.000012
O79	O	0.786462	0.192833	0.623290
H80	H	0.750577	0.225894	0.666330
H81	H	0.520809	0.095889	-0.131109
O82	O	0.745618	-0.686131	0.000014
H83	H	0.698253	-0.642706	0.000012
O84	O	1.039473	-0.277214	0.000003
H85	H	1.088038	-0.245532	0.000014
H86	H	0.987411	0.007764	0.365698
O87	O	0.674470	0.098167	-0.150213
H88	H	0.633766	0.097575	-0.200467
H89	H	0.520797	0.095877	0.131123
O90	O	0.786430	0.192816	0.203280
H91	H	0.750541	0.225878	0.246316
O92	O	0.755136	-0.090744	0.000012
H93	H	0.767631	-0.035406	0.000006
H94	H	0.987436	0.007777	0.634303
H95	H	0.266703	0.092142	0.131122
O96	O	1.001097	-0.004791	0.796723
H97	H	0.992427	0.003189	0.861762
H98	H	0.800083	0.180251	0.365717
