data_functionalizedCrystal
_audit_creation_method	'MofGen! by Chris Wilmer'
_symmetry_space_group_name_H-M	'P1'
_symmetry_Int_Tables_number	1
_symmetry_cell_setting	triclinic
loop_
_symmetry_equiv_pos_as_xyz
  x,y,z
_cell_length_a	6.817900
_cell_length_b	19.551823
_cell_length_c	19.453114
_cell_angle_alpha	96.328084
_cell_angle_beta	101.709288
_cell_angle_gamma	101.663376
loop_
_atom_site_label
_atom_site_type_symbol
_atom_site_fract_x
_atom_site_fract_y
_atom_site_fract_z
V1	V	-3.997770	-0.097403	-0.219330
O2	O	-3.995107	0.003932	-0.214817
O3	O	-3.940569	-0.192415	-0.218155
O4	O	-3.940794	-0.096234	-0.314839
O5	O	-3.994880	-0.092915	-0.117463
V6	V	-4.483650	-0.085244	-0.207106
O7	O	-4.253859	-0.124077	-0.246143
O8	O	-4.677759	-0.058570	-0.180293
O9	O	-4.317645	0.009767	-0.208281
O10	O	-4.603710	-0.186579	-0.211619
O11	O	-4.603937	-0.089732	-0.308973
O12	O	-4.317420	-0.086414	-0.111597
C13	C	-3.783706	-0.215566	-0.214779
C14	C	-3.818166	-0.293241	-0.214455
C15	C	-4.015806	-0.333298	-0.217815
C16	C	-4.048189	-0.406283	-0.217517
C17	C	-3.882914	-0.439206	-0.213845
C18	C	-3.685249	-0.399141	-0.210489
C19	C	-3.652875	-0.326158	-0.210793
C20	C	-3.773685	-0.545546	-0.169305
C21	C	-3.806064	-0.618527	-0.168997
C22	C	-3.982761	-0.664309	-0.212909
C23	C	-4.127103	-0.637101	-0.257122
C24	C	-4.094729	-0.564118	-0.257427
C25	C	-3.917998	-0.518343	-0.213515
C26	C	-4.215527	-0.783505	-0.215948
C27	C	-4.247906	-0.856492	-0.215655
C28	C	-3.884956	-0.849347	-0.208619
C29	C	-3.852586	-0.776363	-0.208920
C30	C	-4.017878	-0.743446	-0.212581
C31	C	-3.783992	-0.092877	-0.338108
C32	C	-3.818633	-0.092549	-0.416189
C33	C	-4.016364	-0.095902	-0.456458
C34	C	-4.048913	-0.095594	-0.529823
C35	C	-3.883727	-0.091947	-0.562920
C36	C	-3.685965	-0.088590	-0.522641
C37	C	-3.653418	-0.088890	-0.449276
N38	N	-3.820565	-0.128848	-0.681834
N39	N	-3.851496	-0.128564	-0.751529
C40	C	-3.981777	-0.091039	-0.783965
N41	N	-4.079993	-0.053818	-0.744076
N42	N	-4.049066	-0.054106	-0.674376
C43	C	-3.918998	-0.091620	-0.642472
C44	C	-4.214814	-0.094058	-0.903785
C45	C	-4.247354	-0.093745	-0.977151
C46	C	-3.884403	-0.086747	-0.969969
C47	C	-3.851866	-0.087053	-0.896603
C48	C	-4.017080	-0.090711	-0.863516
C49	C	-4.137850	0.032915	-0.211656
C50	C	-4.082627	0.110590	-0.211984
C51	C	-4.137564	-0.089773	-0.088325
C52	C	-4.082162	-0.090097	-0.010243
H53	H	-4.150405	-0.306503	-0.220801
H54	H	-3.690857	-0.084330	-0.863817
H55	H	-3.492396	-0.086154	-0.416488
C56	C	-4.396531	-0.098075	-0.867385
H57	H	-4.518955	-0.100018	-0.901877
H58	H	-4.412699	-0.139297	-0.845470
H59	H	-4.370057	-0.057377	-0.832359
H60	H	-4.270797	-0.674387	-0.292977
C61	C	-4.397333	-0.747293	-0.219975
H62	H	-4.519688	-0.781607	-0.221942
H63	H	-4.370840	-0.712455	-0.179064
H64	H	-4.413655	-0.725487	-0.261414
H65	H	-3.688537	-0.640673	-0.132991
C66	C	-3.504312	-0.084681	-0.559057
H67	H	-3.381895	-0.082753	-0.524568
H68	H	-3.530962	-0.125411	-0.594051
H69	H	-3.487997	-0.043484	-0.581013
H70	H	-3.491931	-0.293544	-0.208058
C71	C	-4.464868	-0.097433	-1.021447
H72	H	-4.558595	-0.099661	-0.991232
H73	H	-4.463804	-0.056503	-1.043662
H74	H	-4.506414	-0.138422	-1.056771
H75	H	-4.150897	-0.098879	-0.429523
H76	H	-4.209137	-0.438904	-0.220253
C77	C	-4.253476	-0.534192	-0.306064
H78	H	-4.363344	-0.571906	-0.332179
H79	H	-4.305745	-0.502578	-0.277923
H80	H	-4.189267	-0.509636	-0.338109
H81	H	-3.750387	-0.876153	-0.205634
H82	H	-4.408854	-0.889107	-0.218396
H83	H	-4.209937	-0.098329	-0.562617
C84	C	-3.579328	-0.495191	-0.120989
H85	H	-3.498024	-0.521845	-0.094605
H86	H	-3.501780	-0.469853	-0.149360
H87	H	-3.618294	-0.462815	-0.089182
C88	C	-3.503448	-0.435352	-0.206445
H89	H	-3.551029	-0.484554	-0.206736
H90	H	-3.444972	-0.428447	-0.246221
H91	H	-3.402187	-0.415400	-0.163872
H92	H	-3.691646	-0.743747	-0.206179
H93	H	-3.749901	-0.083772	-0.996914
