data_functionalizedCrystal
_audit_creation_method	'MofGen! by Chris Wilmer'
_symmetry_space_group_name_H-M	'P1'
_symmetry_Int_Tables_number	1
_symmetry_cell_setting	triclinic
loop_
_symmetry_equiv_pos_as_xyz
  x,y,z
_cell_length_a	12.759401
_cell_length_b	18.101395
_cell_length_c	12.759393
_cell_angle_alpha	89.963711
_cell_angle_beta	89.980875
_cell_angle_gamma	90.031595
loop_
_atom_site_label
_atom_site_type_symbol
_atom_site_fract_x
_atom_site_fract_y
_atom_site_fract_z
Zn1	Zn	1.606129	-0.294793	-0.593964
Zn2	Zn	1.605971	-0.418655	-0.418270
Zn3	Zn	1.430431	-0.294831	-0.418302
Zn4	Zn	1.430367	-0.418596	-0.593910
O5	O	1.518225	-0.356719	-0.506112
O6	O	1.753129	-0.311232	-0.570668
O7	O	1.582646	-0.402269	-0.271253
O8	O	1.453831	-0.191193	-0.441640
O9	O	1.753013	-0.402233	-0.441586
O10	O	1.582916	-0.191165	-0.570699
O11	O	1.453678	-0.311296	-0.271277
O12	O	1.283402	-0.311240	-0.441587
O13	O	1.453722	-0.402134	-0.740938
O14	O	1.283355	-0.402170	-0.570605
O15	O	1.582854	-0.311176	-0.740978
O16	O	1.582583	-0.522280	-0.441533
O17	O	1.453568	-0.522237	-0.570574
C18	C	1.245257	-0.356703	-0.506094
C19	C	1.128481	-0.356715	-0.506112
C20	C	0.963888	-0.309321	-0.439061
C21	C	1.073612	-0.309305	-0.439050
C22	C	1.073620	-0.404137	-0.573196
C23	C	0.963898	-0.404148	-0.573210
C24	C	0.909024	-0.261914	-0.371987
C25	C	0.963877	-0.214490	-0.304905
C26	C	1.073601	-0.214475	-0.304894
C27	C	1.128472	-0.261883	-0.371967
C28	C	1.518080	-0.549129	-0.506067
C29	C	1.518114	-0.631443	-0.506083
C30	C	1.518235	-0.782152	-0.506125
C31	C	1.437020	-0.813510	-0.587252
C32	C	1.437327	-0.899128	-0.587594
C33	C	1.518352	-0.930534	-0.506166
C34	C	1.629116	-0.899349	-0.535947
C35	C	1.628579	-0.813704	-0.536513
C36	C	1.489679	-0.813798	-0.395022
C37	C	1.487304	-0.899450	-0.395638
C38	C	1.518425	-1.014394	-0.506188
C39	C	1.518170	-0.698292	-0.506106
C40	C	1.792258	-0.356735	-0.506129
C41	C	1.909035	-0.356741	-0.506137
C42	C	1.518298	-0.356644	-0.780145
C43	C	1.518330	-0.356612	-0.896922
C44	C	1.518399	-0.163557	-0.506179
C45	C	1.518473	-0.081243	-0.506208
C46	C	1.585578	-0.309246	-0.951806
C47	C	1.585603	-0.309219	-1.061531
C48	C	1.451129	-0.403931	-1.061476
C49	C	1.451099	-0.403954	-0.951753
C50	C	1.652809	-0.261904	-0.896975
C51	C	1.720063	-0.214535	-0.951860
C52	C	1.720088	-0.214508	-1.061584
C53	C	1.652858	-0.261851	-1.116423
C54	C	1.518212	-0.356740	-0.233144
C55	C	1.518384	-0.356563	-0.116368
H56	H	0.919194	-0.175888	-0.250303
H57	H	1.396393	-0.442475	-1.106135
H58	H	1.217817	-0.261859	-0.371963
F59	F	1.652876	-0.261811	-1.233203
F60	F	0.905516	-0.454617	-0.644604
H61	H	1.396323	-0.442512	-0.907065
H62	H	1.774792	-0.175985	-0.907202
H63	H	1.118305	-0.442735	-0.627802
H64	H	0.819681	-0.261923	-0.371987
H65	H	1.652798	-0.261922	-0.807632
H66	H	1.354604	-0.792991	-0.568847
F67	F	1.131977	-0.163996	-0.233510
H68	H	1.691170	-0.792955	-0.479979
H69	H	1.355203	-0.920217	-0.568980
H70	H	1.455716	-0.791933	-0.669108
H71	H	1.456320	-0.919559	-0.669921
H72	H	1.652749	-0.793668	-0.617720
F73	F	1.791665	-0.164095	-1.119993
H74	H	1.691313	-0.919687	-0.478687
H75	H	1.410252	-0.792268	-0.367850
F76	F	1.661302	-0.927304	-0.640941
H77	H	1.405788	-0.919843	-0.373174
H78	H	1.542145	-0.920840	-0.331989
H79	H	1.548824	-0.793511	-0.334579
