data_functionalizedCrystal
_audit_creation_method	'MofGen! by Chris Wilmer'
_symmetry_space_group_name_H-M	'P1'
_symmetry_Int_Tables_number	1
_symmetry_cell_setting	triclinic
loop_
_symmetry_equiv_pos_as_xyz
  x,y,z
_cell_length_a	14.519709
_cell_length_b	17.666332
_cell_length_c	14.519709
_cell_angle_alpha	90.007412
_cell_angle_beta	96.319855
_cell_angle_gamma	89.996791
loop_
_atom_site_label
_atom_site_type_symbol
_atom_site_fract_x
_atom_site_fract_y
_atom_site_fract_z
O1	O	-1.223874	0.062842	0.120893
O2	O	-0.890540	0.396176	0.454226
O3	O	-0.557207	0.729509	0.787559
O4	O	-0.955397	0.062868	0.135129
O5	O	-0.622064	0.396201	0.468463
O6	O	-0.288730	0.729534	0.801796
O7	O	-1.096754	0.062847	-0.006227
O8	O	-0.763420	0.396181	0.327106
O9	O	-0.430087	0.729514	0.660439
O10	O	-1.082517	0.062862	0.262250
O11	O	-0.749184	0.396196	0.595583
O12	O	-0.415850	0.729529	0.928916
O13	O	-1.096729	-0.063049	-0.006235
O14	O	-0.763395	0.270284	0.327098
O15	O	-0.430062	0.603617	0.660432
O16	O	-0.955372	-0.063029	0.135122
O17	O	-0.622039	0.270304	0.468455
O18	O	-0.288705	0.603637	0.801788
O19	O	-1.223849	-0.063055	0.120885
O20	O	-0.890516	0.270279	0.454219
O21	O	-0.557182	0.603612	0.787552
Cu22	Cu	-1.089608	-0.074537	0.128003
Cu23	Cu	-0.756275	0.258796	0.461336
Cu24	Cu	-0.422942	0.592129	0.794669
Cu25	Cu	-1.089638	0.074350	0.128012
Cu26	Cu	-0.756304	0.407684	0.461345
Cu27	Cu	-0.422971	0.741017	0.794678
O28	O	-1.082492	-0.063034	0.262242
O29	O	-0.749159	0.270299	0.595575
O30	O	-0.415826	0.603632	0.928909
C31	C	-0.921025	-0.000078	0.134462
C32	C	-0.587691	0.333256	0.467795
C33	C	-0.254358	0.666589	0.801129
C34	C	-0.818643	-0.000068	0.132474
C35	C	-0.485310	0.333265	0.465807
C36	C	-0.151977	0.666598	0.799141
N37	N	-1.089594	-0.179257	0.127996
N38	N	-0.756261	0.154077	0.461329
N39	N	-0.422928	0.487410	0.794663
C40	C	-0.443748	-0.000100	0.125154
C41	C	-0.110414	0.333233	0.458488
C42	C	0.222919	0.666566	0.791821
C43	C	-0.548056	-0.000091	0.127187
C44	C	-0.214722	0.333242	0.460520
C45	C	0.118611	0.666576	0.793854
C46	C	-0.631192	-0.000083	0.128814
C47	C	-0.297859	0.333250	0.462147
C48	C	0.035474	0.666583	0.795481
C49	C	-0.735507	-0.000076	0.130847
C50	C	-0.402173	0.333258	0.464180
C51	C	-0.068840	0.666591	0.797514
C52	C	-1.152207	-0.218875	0.065434
C53	C	-0.818874	0.114458	0.398767
C54	C	-0.485541	0.447791	0.732101
C55	C	-1.152213	-0.298123	0.065429
C56	C	-0.818879	0.035210	0.398763
C57	C	-0.485546	0.368544	0.732096
C58	C	-1.089614	-0.337749	0.128003
C59	C	-0.756280	-0.004416	0.461336
C60	C	-0.422947	0.328918	0.794670
C61	C	-1.026989	-0.298121	0.190570
C62	C	-0.693656	0.035213	0.523903
C63	C	-0.360322	0.368546	0.857236
C64	C	-1.026979	-0.218875	0.190566
C65	C	-0.693646	0.114459	0.523900
C66	C	-0.360312	0.447792	0.857233
N67	N	-1.078009	-0.462162	0.209587
N68	N	-0.744676	-0.128829	0.542920
N69	N	-0.411342	0.204504	0.876253
N70	N	-1.078024	-0.537443	0.209587
N71	N	-0.744691	-0.204109	0.542920
N72	N	-0.411357	0.129224	0.876254
C73	C	-1.089638	-0.576513	0.128016
C74	C	-0.756305	-0.243180	0.461349
C75	C	-0.422971	0.090154	0.794683
N76	N	-1.101255	-0.537459	0.046442
N77	N	-0.767922	-0.204125	0.379775
N78	N	-0.434588	0.129208	0.713108
N79	N	-1.101245	-0.462171	0.046442
N80	N	-0.767912	-0.128838	0.379775
N81	N	-0.434578	0.204495	0.713109
C82	C	-1.089617	-0.423678	0.128013
C83	C	-0.756284	-0.090345	0.461347
C84	C	-0.422950	0.242989	0.794680
C85	C	-1.152261	-0.702061	0.065444
C86	C	-0.818927	-0.368727	0.398777
C87	C	-0.485594	-0.035394	0.732111
C88	C	-1.152259	-0.781310	0.065438
C89	C	-0.818926	-0.447977	0.398772
C90	C	-0.485593	-0.114643	0.732105
C91	C	-1.027040	-0.781306	0.190587
C92	C	-0.693707	-0.447973	0.523920
C93	C	-0.360373	-0.114639	0.857253
C94	C	-1.027037	-0.702058	0.190584
C95	C	-0.693703	-0.368725	0.523918
C96	C	-0.360370	-0.035392	0.857251
C97	C	-1.089652	-0.662441	0.128014
C98	C	-0.756318	-0.329107	0.461347
C99	C	-0.422985	0.004226	0.794681
C100	C	-0.258221	-0.000106	0.121553
C101	C	0.075112	0.333228	0.454886
C102	C	0.408446	0.666561	0.788219
C103	C	-0.360602	-0.000105	0.123541
C104	C	-0.027269	0.333229	0.456874
C105	C	0.306064	0.666562	0.790207
C106	C	-1.096078	-0.000101	-0.040591
C107	C	-0.762744	0.333232	0.292742
C108	C	-0.429411	0.666566	0.626076
C109	C	-1.094090	-0.000101	-0.142972
C110	C	-0.760756	0.333232	0.190361
C111	C	-0.427423	0.666565	0.523694
N112	N	-1.089659	0.179070	0.128011
N113	N	-0.756326	0.512403	0.461345
N114	N	-0.422992	0.845736	0.794678
C115	C	-1.086770	-0.000081	-0.517868
C116	C	-0.753437	0.333252	-0.184535
C117	C	-0.420103	0.666586	0.148799
C118	C	-1.088803	-0.000087	-0.413560
C119	C	-0.755469	0.333247	-0.080227
C120	C	-0.422136	0.666580	0.253107
C121	C	-1.090430	-0.000092	-0.330423
C122	C	-0.757096	0.333242	0.002910
C123	C	-0.423763	0.666575	0.336243
C124	C	-1.092463	-0.000096	-0.226109
C125	C	-0.759129	0.333237	0.107224
C126	C	-0.425796	0.666570	0.440558
C127	C	-1.083168	-0.000084	0.296605
C128	C	-0.749835	0.333249	0.629939
C129	C	-0.416501	0.666582	0.963272
C130	C	-1.085156	-0.000079	0.398987
C131	C	-0.751823	0.333254	0.732320
C132	C	-0.418490	0.666588	1.065653
H133	H	-1.203190	-0.186621	0.014483
H134	H	-0.869857	0.146713	0.347817
H135	H	-0.536523	0.480046	0.681150
H136	H	-1.203202	-0.330386	0.014482
H137	H	-0.869868	0.002947	0.347815
H138	H	-0.536535	0.336280	0.681149
Br139	Br	-0.942074	-0.835077	0.275499
Br140	Br	-0.608740	-0.501744	0.608832
Br141	Br	-0.275407	-0.168411	0.942165
Br142	Br	-0.942025	-0.351895	0.275486
Br143	Br	-0.608692	-0.018562	0.608819
Br144	Br	-0.275359	0.314771	0.942152
H145	H	-0.975991	-0.186616	0.241513
H146	H	-0.642657	0.146717	0.574846
H147	H	-0.309324	0.480050	0.908179
H148	H	-1.203244	-0.813568	0.014488
H149	H	-0.869911	-0.480235	0.347821
H150	H	-0.536577	-0.146901	0.681154
H151	H	-1.203243	-0.669803	0.014492
H152	H	-0.869910	-0.336469	0.347826
H153	H	-0.536576	-0.003136	0.681159
H154	H	-0.976055	-0.669799	0.241532
H155	H	-0.642721	-0.336465	0.574865
H156	H	-0.309388	-0.003132	0.908199
