data_functionalizedCrystal
_audit_creation_method	'MofGen! by Chris Wilmer'
_symmetry_space_group_name_H-M	'P1'
_symmetry_Int_Tables_number	1
_symmetry_cell_setting	triclinic
loop_
_symmetry_equiv_pos_as_xyz
  x,y,z
_cell_length_a	16.109301
_cell_length_b	15.995350
_cell_length_c	14.586319
_cell_angle_alpha	89.998440
_cell_angle_beta	89.999213
_cell_angle_gamma	83.476928
loop_
_atom_site_label
_atom_site_type_symbol
_atom_site_fract_x
_atom_site_fract_y
_atom_site_fract_z
O1	O	1.103160	0.107624	-0.076178
O2	O	0.861101	0.121018	-0.076192
O3	O	0.988747	-0.007569	-0.076184
O4	O	0.975514	0.236210	-0.076186
O5	O	0.988739	-0.007570	0.076297
O6	O	0.861093	0.121016	0.076289
O7	O	1.103151	0.107622	0.076303
Cu8	Cu	0.982121	0.114319	0.090219
Cu9	Cu	0.982131	0.114321	-0.090107
O10	O	0.975505	0.236208	0.076295
C11	C	0.830122	0.120474	0.000047
C12	C	0.737826	0.118848	0.000041
C13	C	0.515573	0.191366	0.000051
C14	C	0.428853	0.189831	0.000057
C15	C	0.448686	0.037268	0.000055
C16	C	0.535405	0.038804	0.000055
C17	C	0.568846	0.115855	0.000049
C18	C	0.395406	0.112785	0.000054
C19	C	0.301380	0.111120	0.000061
C20	C	0.662879	0.117520	0.000044
C21	C	0.988196	-0.038764	0.000055
C22	C	0.986556	-0.131714	0.000050
C23	C	0.980665	-0.469460	0.000053
C24	C	0.889758	-0.422001	-0.000295
C25	C	0.891399	-0.325311	0.000049
C26	C	0.983587	-0.301900	0.000051
C27	C	1.028421	-0.342991	0.087126
C28	C	1.026137	-0.439626	0.087198
C29	C	1.028025	-0.439983	-0.086201
C30	C	1.028003	-0.343037	-0.087351
C31	C	0.985243	-0.207203	0.000053
C32	C	0.979012	-0.564157	0.000057
C33	C	1.134130	0.108166	0.000062
C34	C	1.226426	0.109792	0.000062
C35	C	0.976056	0.267404	0.000054
C36	C	0.977697	0.360354	0.000053
N37	N	0.982120	0.114317	0.217050
N38	N	0.982139	0.114317	-0.216939
C39	C	1.038660	0.057398	0.452061
C40	C	1.038662	0.057396	0.548042
C41	C	0.925593	0.171238	0.548044
C42	C	0.925587	0.171236	0.452064
C43	C	0.982125	0.114316	0.404075
C44	C	0.982134	0.114317	0.596036
C45	C	0.982136	0.114315	0.700103
C46	C	0.982122	0.114317	0.300001
H47	H	0.421447	-0.025465	0.000066
H48	H	1.084696	0.011050	0.412990
H49	H	0.578782	-0.022690	0.000056
H50	H	1.084697	0.011047	0.587109
H51	H	0.879562	0.217582	0.587126
C52	C	0.863396	0.233850	0.399272
C53	C	0.801236	0.296491	0.452052
C54	C	0.739046	0.359100	0.399259
C55	C	0.739016	0.359068	0.293685
C56	C	0.801178	0.296425	0.240899
C57	C	0.863368	0.233816	0.293692
H58	H	0.801257	0.296517	0.530210
H59	H	0.693030	0.405473	0.438335
H60	H	0.692979	0.405415	0.254604
H61	H	0.801157	0.296399	0.162742
H62	H	0.909384	0.187443	0.254616
H63	H	0.385481	0.251320	0.000061
C64	C	0.552360	0.276120	0.000055
C65	C	0.493757	0.359181	0.000063
C66	C	0.530540	0.443937	0.000070
C67	C	0.625927	0.445633	0.000069
C68	C	0.684536	0.362570	0.000060
C69	C	0.647752	0.277813	0.000053
H70	H	0.423141	0.357928	0.000064
H71	H	0.487154	0.505426	0.000077
H72	H	0.653156	0.508375	0.000074
H73	H	0.755152	0.363823	0.000059
H74	H	0.691139	0.216325	0.000047
C75	C	0.981951	-0.464345	0.175120
C76	C	0.948987	-0.396188	0.244778
C77	C	0.904797	-0.420902	0.332700
C78	C	0.893572	-0.513773	0.350964
C79	C	0.926537	-0.581936	0.281305
C80	C	0.970727	-0.557222	0.193383
H81	H	0.957295	-0.327434	0.231259
H82	H	0.880394	-0.370442	0.384266
H83	H	0.860860	-0.532067	0.416049
H84	H	0.918229	-0.650689	0.294824
H85	H	0.995130	-0.607681	0.141816
H86	H	0.997274	-0.314602	0.151923
H87	H	0.995224	-0.315779	-0.151767
C88	C	0.843772	-0.286891	-0.084261
C89	C	0.803978	-0.344183	-0.152375
C90	C	0.756341	-0.305767	-0.236683
C91	C	0.748497	-0.210059	-0.252876
C92	C	0.788292	-0.152761	-0.184760
C93	C	0.835930	-0.191178	-0.100453
H94	H	0.809783	-0.415037	-0.140390
H95	H	0.726882	-0.348183	-0.287106
H96	H	0.713233	-0.181621	-0.315286
H97	H	0.782487	-0.081908	-0.196746
H98	H	0.865389	-0.148762	-0.050029
C99	C	0.840674	-0.447008	-0.084657
C100	C	0.882531	-0.510831	-0.154266
C101	C	0.833449	-0.535837	-0.238636
C102	C	0.742508	-0.497021	-0.253398
C103	C	0.700645	-0.433194	-0.183788
C104	C	0.749728	-0.408188	-0.099417
H105	H	0.949856	-0.539568	-0.143340
H106	H	0.864439	-0.583086	-0.290166
H107	H	0.706174	-0.515532	-0.315854
H108	H	0.633321	-0.404456	-0.194713
H109	H	0.718738	-0.360939	-0.047887
C110	C	0.843468	-0.287648	0.084516
C111	C	0.803582	-0.345563	0.151869
C112	C	0.755651	-0.307901	0.236341
C113	C	0.747607	-0.212323	0.253460
C114	C	0.787494	-0.154402	0.186105
C115	C	0.835425	-0.192064	0.101633
H116	H	0.809536	-0.416321	0.139198
H117	H	0.726124	-0.350778	0.286202
H118	H	0.712126	-0.184443	0.315992
H119	H	0.781540	-0.083644	0.198776
H120	H	0.864952	-0.149187	0.051772
C121	C	1.116295	-0.483227	0.092558
C122	C	1.171900	-0.466972	0.175068
C123	C	1.262055	-0.510570	0.180437
C124	C	1.296605	-0.570422	0.103295
C125	C	1.240999	-0.586679	0.020779
C126	C	1.150844	-0.543082	0.015410
H127	H	1.146324	-0.422663	0.232178
H128	H	1.303217	-0.498535	0.241521
H129	H	1.363343	-0.602696	0.107269
H130	H	1.266575	-0.630988	-0.036331
H131	H	1.109682	-0.555117	-0.045674
C132	C	1.119913	-0.323922	0.091507
C133	C	1.139986	-0.232162	0.096238
C134	C	1.231477	-0.213085	0.100614
C135	C	1.302895	-0.285769	0.100259
C136	C	1.282824	-0.377535	0.095527
C137	C	1.191333	-0.396611	0.091151
H138	H	1.087116	-0.178352	0.096502
H139	H	1.246334	-0.145154	0.104117
H140	H	1.370621	-0.271647	0.103498
H141	H	1.335694	-0.431345	0.095263
H142	H	1.176476	-0.464543	0.087648
H143	H	0.853581	-0.441586	0.061797
H144	H	0.998307	-0.460513	-0.152198
H145	H	1.095231	-0.327694	-0.092608
H146	H	1.095050	-0.471762	-0.086785
