data_functionalizedCrystal
_audit_creation_method	'MofGen! by Chris Wilmer'
_symmetry_space_group_name_H-M	'P1'
_symmetry_Int_Tables_number	1
_symmetry_cell_setting	triclinic
loop_
_symmetry_equiv_pos_as_xyz
  x,y,z
_cell_length_a	19.188930
_cell_length_b	14.586319
_cell_length_c	16.109301
_cell_angle_alpha	89.994786
_cell_angle_beta	83.303130
_cell_angle_gamma	89.982618
loop_
_atom_site_label
_atom_site_type_symbol
_atom_site_fract_x
_atom_site_fract_y
_atom_site_fract_z
O1	O	0.926386	-0.076538	0.103796
O2	O	0.723108	-0.076476	0.117769
O3	O	0.830331	-0.076499	-0.010267
O4	O	0.819163	-0.076514	0.231832
O5	O	0.830324	0.075982	-0.010268
O6	O	0.723100	0.076005	0.117767
O7	O	0.926379	0.075943	0.103795
Cu8	Cu	0.824739	0.089897	0.110781
Cu9	Cu	0.824748	-0.090429	0.110783
O10	O	0.819155	0.075966	0.231830
C11	C	0.697092	-0.000227	0.117316
C12	C	0.619584	-0.000203	0.115958
N13	N	0.824738	0.216728	0.110779
C14	C	0.829875	-0.000258	-0.041241
C15	C	0.828519	-0.000256	-0.133532
C16	C	0.574836	-0.000222	0.191085
C17	C	0.502009	-0.000232	0.189809
C18	C	0.473934	-0.000241	0.113401
C19	C	0.518692	-0.000217	0.038264
C20	C	0.591517	-0.000198	0.039542
N21	N	0.365820	-0.052170	0.054998
N22	N	0.296638	-0.052191	0.053788
C23	C	0.254516	-0.000297	0.109545
N24	N	0.284188	0.051606	0.166569
N25	N	0.353375	0.051622	0.167781
C26	C	0.394968	-0.000262	0.112007
C27	C	0.130800	-0.000326	0.183294
C28	C	0.057973	-0.000330	0.182015
C29	C	0.074657	-0.000324	0.030468
C30	C	0.147483	-0.000311	0.031749
C31	C	0.175550	-0.000316	0.108165
C32	C	0.952395	-0.000308	0.104248
C33	C	1.029903	-0.000338	0.105606
N34	N	0.824754	-0.217261	0.110778
C35	C	0.872232	0.451724	0.054103
C36	C	0.872234	0.547706	0.054101
C37	C	0.777255	0.547736	0.167457
C38	C	0.777250	0.451757	0.167454
C39	C	0.824743	0.403753	0.110778
C40	C	0.824750	0.595714	0.110779
C41	C	0.824751	0.699781	0.110777
C42	C	0.824740	0.299679	0.110779
C43	C	0.888990	-0.000290	-0.356005
C44	C	0.887710	-0.000297	-0.442721
C45	C	0.760493	-0.000254	-0.422425
C46	C	0.761773	-0.000253	-0.335710
C47	C	0.826024	-0.000267	-0.302503
C48	C	0.823463	-0.000274	-0.475933
C49	C	0.822075	-0.000282	-0.569955
C50	C	0.827412	-0.000261	-0.208475
C51	C	0.819612	-0.000277	0.262805
C52	C	0.820968	-0.000284	0.355096
H53	H	0.597683	-0.000228	0.253308
H54	H	0.738575	0.412696	0.213606
H55	H	0.910903	0.412642	0.007953
H56	H	0.153654	-0.000316	0.245516
C57	C	0.725020	0.600540	0.229805
C58	C	0.725060	0.706114	0.229860
C59	C	0.672825	0.758915	0.292212
C60	C	0.620550	0.706142	0.354509
C61	C	0.620509	0.600562	0.354455
C62	C	0.672744	0.547761	0.292103
H63	H	0.763758	0.745185	0.183742
H64	H	0.672856	0.837072	0.292251
H65	H	0.581883	0.745228	0.400665
H66	H	0.581810	0.561491	0.400573
H67	H	0.672712	0.469604	0.292064
H68	H	0.941306	-0.000302	-0.328970
C69	C	0.956973	-0.000317	-0.501574
C70	C	0.973593	-0.079505	-0.563968
C71	C	1.042860	-0.079527	-0.622822
C72	C	1.095506	-0.000361	-0.619281
C73	C	1.078887	0.078833	-0.556884
C74	C	1.009620	0.078855	-0.498030
H75	H	0.934620	-0.138114	-0.566592
H76	H	1.055162	-0.138152	-0.669012
H77	H	1.146781	-0.000377	-0.662848
H78	H	1.117860	0.137442	-0.554261
H79	H	0.997318	0.137480	-0.451840
H80	H	0.021538	-0.000340	0.243195
H81	H	0.910904	0.586761	0.007950
H82	H	0.708182	-0.000242	-0.449473
H83	H	0.495829	-0.000237	-0.023948
H84	H	0.710496	-0.000237	-0.292146
H85	H	0.183919	-0.000300	-0.029428
H86	H	0.051799	-0.000389	-0.031745
C87	C	0.452774	-0.000264	0.272453
C88	C	0.483646	-0.000273	0.356505
C89	C	0.434414	-0.000309	0.439149
C90	C	0.354309	-0.000336	0.437741
C91	C	0.323433	-0.000327	0.353686
C92	C	0.372665	-0.000291	0.271042
H93	H	0.542948	-0.000253	0.357551
H94	H	0.457271	-0.000315	0.501372
H95	H	0.317864	-0.000363	0.498919
H96	H	0.264131	-0.000348	0.352640
H97	H	0.349808	-0.000285	0.208819
C98	C	0.640746	-0.000184	-0.043103
C99	C	0.693134	-0.079351	-0.063060
C100	C	0.742365	-0.079340	-0.145705
C101	C	0.739208	-0.000160	-0.208393
C102	C	0.686818	0.079014	-0.188437
C103	C	0.637587	0.079002	-0.105792
H104	H	0.695473	-0.137970	-0.016653
H105	H	0.781147	-0.137950	-0.160477
H106	H	0.775651	-0.000151	-0.269572
H107	H	0.684479	0.137633	-0.234844
H108	H	0.598805	0.137612	-0.091020
