data_functionalizedCrystal
_audit_creation_method	'MofGen! by Chris Wilmer'
_symmetry_space_group_name_H-M	'P1'
_symmetry_Int_Tables_number	1
_symmetry_cell_setting	triclinic
loop_
_symmetry_equiv_pos_as_xyz
  x,y,z
_cell_length_a	10.654554
_cell_length_b	19.188930
_cell_length_c	9.730223
_cell_angle_alpha	89.993564
_cell_angle_beta	89.999614
_cell_angle_gamma	83.815812
loop_
_atom_site_label
_atom_site_type_symbol
_atom_site_fract_x
_atom_site_fract_y
_atom_site_fract_z
O1	O	1.665755	0.098075	-0.114313
O2	O	1.300080	0.107414	-0.114316
O3	O	1.493470	0.001158	-0.114288
O4	O	1.472365	0.204331	-0.114342
O5	O	1.493468	0.001160	0.114292
O6	O	1.300078	0.107416	0.114264
O7	O	1.665753	0.098077	0.114267
Zn8	Zn	1.482915	0.102747	0.150557
Zn9	Zn	1.482918	0.102744	-0.150607
O10	O	1.472363	0.204333	0.114238
C11	C	1.253295	0.106729	-0.000026
C12	C	1.113896	0.104675	-0.000026
C13	C	0.932740	0.038251	-0.000020
C14	C	1.063720	0.040180	-0.000011
C15	C	1.033083	0.167244	-0.000037
C16	C	0.902105	0.165315	-0.000037
C17	C	0.882572	-0.026247	-0.000019
C18	C	0.963376	-0.088817	-0.000005
C19	C	1.094357	-0.086888	0.000004
C20	C	1.144533	-0.022389	0.000000
C21	C	1.492786	-0.024857	0.000006
C22	C	1.490734	-0.102374	0.000018
C23	C	1.604209	-0.146555	0.000026
C24	C	1.602282	-0.219392	0.000004
C25	C	1.486872	-0.248044	0.000002
C26	C	1.373382	-0.203854	-0.000014
C27	C	1.375313	-0.131019	-0.000005
N28	N	1.398655	-0.356626	0.077791
N29	N	1.396829	-0.425816	0.077786
C30	C	1.481048	-0.467491	-0.000026
N31	N	1.567182	-0.437362	-0.077816
N32	N	1.569013	-0.368165	-0.077805
C33	C	1.484766	-0.327020	-0.000008
C34	C	1.592441	-0.590650	-0.000045
C35	C	1.590509	-0.663487	-0.000075
C36	C	1.361607	-0.647947	-0.000079
C37	C	1.363542	-0.575112	-0.000062
C38	C	1.478963	-0.546467	-0.000038
C39	C	1.712537	0.098762	-0.000026
C40	C	1.851937	0.100816	-0.000035
C41	C	1.473047	0.230348	-0.000059
C42	C	1.475099	0.307865	-0.000079
N43	N	1.482922	0.102749	0.356094
N44	N	1.482921	0.102736	-0.356143
C45	C	1.568577	0.055715	0.428032
C46	C	1.568574	0.055707	0.571915
C47	C	1.397257	0.149773	0.571908
C48	C	1.397255	0.149777	0.428028
C49	C	1.654244	0.008687	0.356098
C50	C	1.739907	-0.038350	0.428037
C51	C	1.739904	-0.038359	0.571920
C52	C	1.654238	0.008670	0.643864
H53	H	1.160144	-0.137835	0.000028
H54	H	1.694689	-0.255370	0.000004
H55	H	1.267638	-0.671275	-0.000087
H56	H	1.327512	0.188062	0.630495
O57	O	1.261195	-0.231601	0.000168
C58	C	1.064993	-0.240648	0.118615
C59	C	1.191991	-0.209167	0.118574
H60	H	1.009017	-0.222535	0.214350
H61	H	1.008853	-0.222470	0.023016
H62	H	1.083134	-0.300294	0.118547
H63	H	1.173965	-0.149521	0.118691
H64	H	1.248091	-0.227401	0.214164
H65	H	1.282905	-0.095046	-0.000011
H66	H	1.251188	-0.020823	0.000021
H67	H	1.327506	0.188076	0.369455
H68	H	1.809645	-0.076663	0.630491
H69	H	1.073948	0.219757	-0.000042
H70	H	1.809646	-0.076644	0.369453
O71	O	1.704665	-0.562935	-0.000107
C72	C	1.931496	-0.586033	-0.000051
C73	C	1.804494	-0.617510	-0.000005
H74	H	2.012241	-0.630142	0.000061
H75	H	1.938199	-0.552338	-0.095730
H76	H	1.938063	-0.552307	0.095591
H77	H	1.797841	-0.651268	-0.095582
H78	H	1.797845	-0.651165	0.095737
H79	H	0.836313	0.216260	-0.000043
O80	O	1.253228	-0.532263	-0.000235
C81	C	1.058214	-0.496658	-0.118693
C82	C	1.183091	-0.545235	-0.118647
H83	H	1.001485	-0.507119	-0.214434
H84	H	1.001310	-0.507165	-0.023100
H85	H	1.079445	-0.439685	-0.118619
H86	H	1.161974	-0.602225	-0.118770
H87	H	1.239958	-0.534668	-0.214232
H88	H	0.775922	-0.027825	-0.000030
O89	O	0.914788	-0.151510	-0.000181
C90	C	0.900844	-0.260684	-0.118624
C91	C	0.955973	-0.189714	-0.118580
H92	H	0.934099	-0.291585	-0.214353
H93	H	0.934179	-0.291682	-0.023019
H94	H	0.793352	-0.251300	-0.118569
H95	H	1.063465	-0.199034	-0.118684
H96	H	0.922538	-0.158738	-0.214176
H97	H	1.698193	-0.123238	0.000040
H98	H	1.682918	-0.699459	-0.000077
H99	H	1.654257	0.008691	0.238941
H100	H	1.654234	0.008655	0.761023
