data_functionalizedCrystal
_audit_creation_method	'MofGen! by Chris Wilmer'
_symmetry_space_group_name_H-M	'P1'
_symmetry_Int_Tables_number	1
_symmetry_cell_setting	triclinic
loop_
_symmetry_equiv_pos_as_xyz
  x,y,z
_cell_length_a	29.999520
_cell_length_b	29.998686
_cell_length_c	29.995014
_cell_angle_alpha	60.005185
_cell_angle_beta	60.010401
_cell_angle_gamma	59.993433
loop_
_atom_site_label
_atom_site_type_symbol
_atom_site_fract_x
_atom_site_fract_y
_atom_site_fract_z
O1	O	0.061772	-0.651300	0.544623
O2	O	0.023267	-0.507084	0.438819
O3	O	0.114589	-0.598332	0.438743
O4	O	-0.029550	-0.560051	0.544699
O5	O	0.144886	-0.568039	0.468961
O6	O	0.053564	-0.476791	0.469038
O7	O	0.092069	-0.621007	0.574841
Zn8	Zn	0.077627	-0.544089	0.526737
Zn9	Zn	0.037709	-0.584002	0.486923
O10	O	0.000748	-0.529758	0.574918
N11	N	0.104871	-0.516854	0.553912
N12	N	0.010470	-0.611242	0.459748
C13	C	0.143162	-0.478782	0.827124
C14	C	0.378203	-0.478734	0.591892
C15	C	0.143005	-0.478752	0.591997
C16	C	0.142986	-0.243586	0.592008
C17	C	0.180857	-0.357087	0.629814
C18	C	0.180866	-0.440920	0.629807
C19	C	0.201840	-0.419964	0.650755
C20	C	0.293272	-0.404201	0.602606
C21	C	0.350426	-0.423248	0.583534
C22	C	0.350451	-0.515727	0.618798
C23	C	0.293297	-0.496678	0.637872
C24	C	0.194628	-0.328499	0.573626
C25	C	0.175551	-0.271340	0.554591
C26	C	0.128936	-0.271362	0.647935
C27	C	0.148014	-0.328521	0.666970
C28	C	0.124672	-0.427119	0.643641
C29	C	0.105611	-0.446170	0.624592
C30	C	0.198934	-0.492820	0.577889
C31	C	0.217998	-0.473770	0.596931
C32	C	0.124740	-0.427136	0.742229
C33	C	0.105728	-0.446202	0.799386
C34	C	0.199085	-0.492863	0.799337
C35	C	0.218096	-0.473798	0.742178
C36	C	0.180923	-0.440933	0.713626
C37	C	0.264710	-0.440915	0.629773
C38	C	0.121509	-0.499370	0.889991
C39	C	0.441068	-0.498953	0.570621
C40	C	0.121297	-0.499349	0.571429
C41	C	0.121653	-0.180715	0.571802
C42	C	-0.111071	-0.648912	0.421584
C43	C	-0.027286	-0.649018	0.421777
C44	C	-0.048200	-0.669944	0.400740
C45	C	-0.064036	-0.761340	0.448814
C46	C	-0.045033	-0.818500	0.467893
C47	C	0.047447	-0.818609	0.432797
C48	C	0.028444	-0.761451	0.413717
C49	C	-0.139731	-0.662677	0.477755
C50	C	-0.196885	-0.643554	0.496701
C51	C	-0.196717	-0.596907	0.403303
C52	C	-0.139562	-0.616030	0.384357
C53	C	-0.041053	-0.592827	0.407952
C54	C	-0.022041	-0.573809	0.427083
C55	C	0.024504	-0.667167	0.473848
C56	C	0.005492	-0.686188	0.454725
C57	C	-0.040886	-0.592836	0.309259
C58	C	-0.021740	-0.573821	0.252102
C59	C	0.024886	-0.667185	0.252163
C60	C	0.005743	-0.686199	0.309322
C61	C	-0.027145	-0.649023	0.337868
C62	C	-0.027299	-0.732818	0.421728
N63	N	0.492511	-0.516826	0.553742
O64	O	0.679283	-0.525926	0.419277
O65	O	0.679465	-0.632059	0.563349
O66	O	0.679393	-0.631817	0.471975
O67	O	0.679355	-0.526168	0.510650
O68	O	0.588593	-0.601610	0.502313
O69	O	0.588665	-0.601852	0.593686
O70	O	0.588483	-0.495720	0.449614
Zn71	Zn	0.574158	-0.543990	0.526467
Zn72	Zn	0.693790	-0.583788	0.486496
O73	O	0.588555	-0.495962	0.540987
N74	N	0.775436	-0.610952	0.459215
N75	N	0.104844	-0.129269	0.553931
O76	O	-0.029548	0.057600	0.544709
O77	O	0.114530	0.057617	0.438578
O78	O	0.023130	0.057594	0.438850
O79	O	0.061852	0.057623	0.544437
O80	O	0.053431	-0.033213	0.469115
O81	O	0.144831	-0.033190	0.468843
O82	O	0.000753	-0.033207	0.574974
Zn83	Zn	0.077603	-0.047616	0.526714
Zn84	Zn	0.037680	0.072026	0.486838
O85	O	0.092153	-0.033184	0.574702
N86	N	0.010432	0.153679	0.459622
N87	N	0.105130	-0.516904	0.941437
O88	O	0.095923	-0.651280	1.128292
O89	O	-0.010184	-0.507155	1.128318
O90	O	-0.009938	-0.598539	1.128284
O91	O	0.095677	-0.559897	1.128326
O92	O	0.020315	-0.568257	1.037481
O93	O	0.020068	-0.476874	1.037515
O94	O	0.126176	-0.620999	1.037489
Zn95	Zn	0.077925	-0.544128	1.023085
Zn96	Zn	0.038066	-0.584026	1.142722
O97	O	0.125929	-0.529616	1.037523
N98	N	0.010860	-0.611256	1.224371
C99	C	0.034807	-0.473765	0.439352
C100	C	0.147897	-0.586765	0.439257
C101	C	0.080529	-0.654326	0.574308
C102	C	-0.032561	-0.541326	0.574403
C103	C	0.634087	-0.631571	0.596668
C104	C	0.633999	-0.631272	0.483513
C105	C	0.633858	-0.496206	0.416295
C106	C	0.633949	-0.496507	0.529449
C107	C	0.147793	0.012327	0.439058
C108	C	0.034644	0.012187	0.439432
C109	C	-0.032548	0.012195	0.574457
C110	C	0.080639	0.012222	0.574120
C111	C	-0.009670	-0.473857	1.082920
C112	C	-0.009359	-0.587018	1.082860
C113	C	0.125662	-0.654297	1.082887
C114	C	0.125358	-0.541129	1.082927
H115	H	0.094465	-0.400370	0.718985
O116	O	0.197080	0.012532	0.399225
C117	C	0.221425	-0.034393	0.384351
H118	H	0.203594	-0.067440	0.419355
H119	H	0.212993	-0.023713	0.346474
C120	C	0.305397	-0.014848	0.328990
C121	C	0.283500	-0.055438	0.371985
H122	H	0.343688	-0.027829	0.321360
H123	H	0.288995	0.016767	0.339010
H124	H	0.298365	-0.005952	0.297431
H125	H	0.290526	-0.064329	0.403545
H126	H	0.299905	-0.087056	0.361971
O127	O	0.197286	-0.596407	0.399541
C128	C	0.221501	-0.558923	0.384851
H129	H	0.188418	-0.521147	0.395847
H130	H	0.251274	-0.578700	0.407796
C131	C	0.293057	-0.588689	0.309449
C132	C	0.252423	-0.542289	0.322950
H133	H	0.312133	-0.578430	0.271266
H134	H	0.276744	-0.613944	0.319346
H135	H	0.317862	-0.605165	0.328574
H136	H	0.227615	-0.525818	0.303830
H137	H	0.268733	-0.517031	0.313048
O138	O	0.165012	-0.531310	1.082861
C139	C	0.211036	-0.537362	1.035823
H140	H	0.210605	-0.564745	1.020134
H141	H	0.209929	-0.495608	1.002900
C142	C	0.263916	-0.529757	1.069375
C143	C	0.263389	-0.563392	1.050109
H144	H	0.296210	-0.545811	1.078186
H145	H	0.232908	-0.525677	1.101065
H146	H	0.262992	-0.494963	1.041936
H147	H	0.264306	-0.598182	1.077550
H148	H	0.294398	-0.567479	1.018424
O149	O	-0.081927	-0.531696	0.614151
C150	C	-0.081965	-0.578647	0.661198
H151	H	-0.049656	-0.616119	0.649163
H152	H	-0.072434	-0.574261	0.690861
C153	C	-0.178207	-0.539217	0.703560
C154	C	-0.138528	-0.585241	0.688777
H155	H	-0.213099	-0.543284	0.720574
H156	H	-0.178182	-0.507584	0.671865
H157	H	-0.170258	-0.535567	0.728277
H158	H	-0.146474	-0.588886	0.664056
H159	H	-0.138557	-0.616875	0.720469
O160	O	0.633961	-0.456859	0.539219
C161	C	0.633881	-0.409727	0.492354
H162	H	0.651045	-0.421639	0.454811
H163	H	0.590303	-0.380055	0.496796
C164	C	0.648393	-0.367601	0.531984
C165	C	0.669479	-0.382232	0.485873
H166	H	0.670349	-0.350639	0.527987
H167	H	0.648445	-0.399354	0.563559
H168	H	0.612078	-0.342877	0.535681
H169	H	0.705790	-0.406961	0.482181
H170	H	0.669434	-0.350483	0.454297
O171	O	0.090419	-0.703786	0.613885
C172	C	0.144079	-0.737647	0.594081
H173	H	0.158480	-0.722769	0.547576
H174	H	0.172326	-0.736143	0.607894
C175	C	0.127398	-0.815040	0.673726
C176	C	0.145083	-0.796768	0.616608
H177	H	0.128018	-0.851509	0.687623
H178	H	0.091247	-0.792227	0.687070
H179	H	0.150939	-0.813782	0.685230
H180	H	0.121538	-0.798020	0.605105
H181	H	0.181230	-0.819583	0.603262
O182	O	0.633694	-0.456401	0.366978
C183	C	0.586648	-0.410415	0.374218
H184	H	0.553819	-0.423603	0.414210
H185	H	0.597262	-0.379584	0.375475
C186	C	0.605585	-0.367820	0.277286
C187	C	0.565263	-0.384018	0.326403
H188	H	0.592395	-0.351535	0.247791
H189	H	0.637282	-0.398800	0.272407
H190	H	0.614426	-0.342129	0.278341
H191	H	0.556428	-0.409713	0.325350
H192	H	0.533564	-0.353041	0.331280
H193	H	-0.073925	0.012190	0.607776
H194	H	0.059977	-0.434960	0.822668
H195	H	0.634133	-0.664888	0.638048
O196	O	0.633991	-0.670800	0.473562
C197	C	0.633950	-0.650914	0.419899
H198	H	0.616719	-0.604408	0.405552
H199	H	0.677500	-0.664696	0.391626
C200	C	0.619515	-0.730517	0.436475
C201	C	0.598347	-0.673397	0.418855
H202	H	0.597556	-0.744387	0.435829
H203	H	0.619544	-0.743916	0.472628
H204	H	0.655806	-0.741994	0.412911
H205	H	0.562060	-0.661920	0.442422
H206	H	0.598311	-0.659996	0.382706
H207	H	0.026351	0.012184	0.406260
H208	H	0.026581	-0.432337	0.406123
H209	H	0.088930	0.012231	0.607291
O210	O	-0.049363	-0.424455	1.082952
C211	C	-0.029707	-0.390477	1.082955
H212	H	0.005343	-0.416735	1.100148
H213	H	-0.014554	-0.362903	1.039397
C214	C	-0.119102	-0.322892	1.097456
C215	C	-0.076055	-0.355142	1.118577
H216	H	-0.147692	-0.301093	1.119427
H217	H	-0.132344	-0.345782	1.097452
H218	H	-0.106467	-0.299918	1.061158
H219	H	-0.088689	-0.378120	1.154872
H220	H	-0.062816	-0.332255	1.118588
H221	H	-0.042525	-0.595273	1.082811
O222	O	0.165425	-0.703679	1.082951
C223	C	0.180077	-0.727860	1.129990
H224	H	0.169011	-0.694753	1.145683
H225	H	0.157165	-0.757650	1.162909
C226	C	0.255573	-0.799414	1.096430
C227	C	0.241986	-0.758752	1.115702
H228	H	0.293760	-0.818472	1.087619
H229	H	0.245700	-0.783125	1.064740
H230	H	0.236475	-0.824234	1.123866
H231	H	0.261078	-0.733929	1.088264
H232	H	0.251863	-0.775038	1.147388
H233	H	0.263847	-0.485039	0.718893
O234	O	0.235219	-0.524856	0.827044
C235	C	0.268279	-0.572781	0.813047
H236	H	0.246198	-0.580735	0.797351
H237	H	0.308416	-0.567574	0.779852
C238	C	0.307124	-0.611654	0.883080
C239	C	0.280001	-0.621425	0.863806
H240	H	0.314357	-0.641659	0.914389
H241	H	0.284852	-0.579365	0.892508
H242	H	0.340568	-0.607314	0.855412
H243	H	0.246554	-0.625758	0.891470
H244	H	0.302267	-0.653716	0.854383
O245	O	0.088529	-0.395193	0.675549
C246	C	0.034843	-0.387107	0.683680
H247	H	0.034923	-0.393485	0.649223
H248	H	0.018494	-0.417537	0.724395
C249	C	-0.001922	-0.320720	0.726428
C250	C	-0.001824	-0.328549	0.684104
H251	H	-0.024541	-0.284600	0.726692
H252	H	0.034247	-0.326169	0.720952
H253	H	-0.015545	-0.346082	0.760353
H254	H	0.011805	-0.303192	0.650180
H255	H	-0.037992	-0.323095	0.689575
H256	H	-0.032937	-0.528066	0.228816
O257	O	0.051036	-0.432865	0.638049
C258	C	0.037251	-0.480898	0.666827
H259	H	0.074922	-0.516805	0.656496
H260	H	0.021588	-0.488940	0.712574
C261	C	-0.053808	-0.429896	0.663110
C262	C	-0.007540	-0.473997	0.650418
H263	H	-0.081439	-0.425639	0.652990
H264	H	-0.044521	-0.397535	0.643723
H265	H	-0.066853	-0.436603	0.701232
H266	H	0.005508	-0.467286	0.612295
H267	H	-0.016826	-0.506356	0.669797
H268	H	0.263756	-0.485001	0.585661
O269	O	0.235079	-0.524709	0.545943
C270	C	0.288763	-0.532815	0.537836
H271	H	0.288660	-0.498356	0.544225
H272	H	0.305163	-0.573536	0.568245
C273	C	0.325517	-0.575531	0.471425
C274	C	0.325391	-0.533206	0.479268
H275	H	0.348112	-0.575775	0.435299
H276	H	0.289349	-0.570072	0.476888
H277	H	0.339182	-0.609461	0.496769
H278	H	0.311720	-0.499277	0.453929
H279	H	0.361558	-0.538659	0.473799
H280	H	0.270043	-0.526578	0.659994
H281	H	0.373680	-0.393351	0.561411
O282	O	0.378166	-0.569899	0.626626
C283	C	0.364194	-0.587350	0.600954
H284	H	0.322681	-0.558367	0.596109
H285	H	0.396339	-0.587439	0.559033
C286	C	0.412569	-0.681038	0.642039
C287	C	0.361581	-0.645444	0.636092
H288	H	0.410960	-0.716874	0.663712
H289	H	0.421985	-0.669282	0.659334
H290	H	0.439351	-0.681107	0.607102
H291	H	0.334801	-0.645371	0.671028
H292	H	0.352160	-0.657202	0.618804
O293	O	0.265564	-0.350011	0.594644
C294	C	0.279486	-0.320519	0.538211
H295	H	0.320978	-0.345492	0.515693
H296	H	0.247302	-0.311992	0.522649
C297	C	0.231160	-0.235416	0.555664
C298	C	0.282123	-0.266086	0.528007
H299	H	0.232784	-0.201838	0.549369
H300	H	0.221778	-0.255285	0.593684
H301	H	0.204345	-0.228316	0.542692
H302	H	0.308936	-0.273191	0.540984
H303	H	0.291510	-0.246217	0.489989
O304	O	0.226503	-0.356166	0.537461
C305	C	0.234571	-0.318674	0.483784
H306	H	0.200103	-0.277934	0.483905
H307	H	0.275283	-0.312588	0.467388
C308	C	0.277282	-0.391013	0.446986
C309	C	0.234946	-0.340976	0.447134
H310	H	0.277516	-0.404770	0.424378
H311	H	0.271849	-0.416272	0.483149
H312	H	0.311205	-0.385934	0.433324
H313	H	0.201024	-0.346057	0.460803
H314	H	0.240374	-0.315718	0.410973
H315	H	0.186762	-0.248063	0.508836
H316	H	0.136793	-0.351798	0.712725
O317	O	0.097024	-0.243692	0.684101
C318	C	0.088982	-0.281182	0.737778
H319	H	0.095372	-0.321928	0.737676
H320	H	0.119423	-0.287256	0.754129
C321	C	0.022593	-0.208845	0.774588
C322	C	0.030437	-0.258888	0.774463
H323	H	-0.013519	-0.195093	0.797218
H324	H	0.028012	-0.183587	0.738425
H325	H	0.047965	-0.213914	0.788212
H326	H	0.005071	-0.253818	0.760833
H327	H	0.025012	-0.284145	0.810625
H328	H	0.051655	-0.697459	0.228927
O329	O	-0.072798	-0.556647	0.336904
C330	C	-0.080830	-0.502976	0.299397
H331	H	-0.046327	-0.503127	0.258692
H332	H	-0.121517	-0.486550	0.293235
C333	C	-0.123626	-0.466150	0.371729
C334	C	-0.081247	-0.466335	0.321736
H335	H	-0.123886	-0.443547	0.385509
H336	H	-0.118217	-0.502309	0.396999
H337	H	-0.157528	-0.452463	0.366588
H338	H	-0.047346	-0.480028	0.326879
H339	H	-0.086650	-0.430177	0.296467
H340	H	0.016937	-0.731954	0.332612
O341	O	-0.035475	-0.519230	0.413744
C342	C	-0.064304	-0.505374	0.461748
H343	H	-0.083701	-0.537556	0.496059
H344	H	-0.034952	-0.503507	0.473855
C345	C	-0.085420	-0.409763	0.409339
C346	C	-0.109247	-0.449287	0.451479
H347	H	-0.113142	-0.375165	0.403005
H348	H	-0.065996	-0.419098	0.376998
H349	H	-0.060961	-0.408214	0.419434
H350	H	-0.133700	-0.450840	0.441381
H351	H	-0.128677	-0.439951	0.483819
H352	H	-0.067739	-0.562558	0.381123
O353	O	0.056403	-0.703329	0.505786
C354	C	0.104363	-0.736414	0.476985
H355	H	0.096757	-0.736964	0.443663
H356	H	0.138756	-0.719274	0.457658
C357	C	0.129909	-0.794288	0.557568
C358	C	0.120566	-0.794968	0.516645
H359	H	0.139906	-0.830407	0.582032
H360	H	0.097599	-0.771998	0.576972
H361	H	0.158569	-0.780002	0.541456
H362	H	0.091902	-0.809247	0.532756
H363	H	0.152872	-0.817262	0.497244
H364	H	0.058362	-0.738230	0.391661
O365	O	0.101617	-0.846342	0.424951
C366	C	0.129968	-0.808911	0.396963
H367	H	0.105088	-0.768152	0.373493
H368	H	0.136535	-0.802843	0.427587
C369	C	0.216230	-0.881340	0.385553
C370	C	0.185675	-0.831280	0.356723
H371	H	0.250594	-0.895138	0.360733
H372	H	0.197130	-0.906559	0.404411
H373	H	0.221697	-0.876277	0.411072
H374	H	0.180202	-0.836345	0.331210
H375	H	0.204775	-0.806062	0.337860
O376	O	-0.080805	-0.846122	0.494279
C377	C	-0.134083	-0.808593	0.497282
H378	H	-0.136266	-0.767844	0.493477
H379	H	-0.144752	-0.802549	0.462661
C380	C	-0.172239	-0.880858	0.557142
C381	C	-0.174921	-0.830810	0.552473
H382	H	-0.197431	-0.894562	0.591185
H383	H	-0.136344	-0.906142	0.555117
H384	H	-0.181129	-0.875814	0.528288
H385	H	-0.166025	-0.835855	0.581323
H386	H	-0.210816	-0.805526	0.554504
H387	H	-0.109425	-0.738032	0.455342
O388	O	-0.112112	-0.694672	0.513966
C389	C	-0.126127	-0.742578	0.546980
H390	H	-0.167605	-0.734861	0.547455
H391	H	-0.093955	-0.776985	0.529829
C392	C	-0.077924	-0.768329	0.604986
C393	C	-0.128870	-0.758850	0.605573
H394	H	-0.079613	-0.778369	0.641128
H395	H	-0.068480	-0.736055	0.582743
H396	H	-0.051119	-0.797000	0.590691
H397	H	-0.155672	-0.730175	0.619861
H398	H	-0.138318	-0.791120	0.627820
O399	O	-0.224751	-0.656832	0.551264
C400	C	-0.257821	-0.608787	0.565043
H401	H	-0.240547	-0.574483	0.532850
H402	H	-0.301116	-0.596710	0.566853
C403	C	-0.280013	-0.661089	0.660677
C404	C	-0.258793	-0.618958	0.621140
H405	H	-0.280615	-0.667363	0.695281
H406	H	-0.257734	-0.693459	0.651395
H407	H	-0.316090	-0.651020	0.662178
H408	H	-0.222715	-0.629031	0.619634
H409	H	-0.281066	-0.586590	0.630423
H410	H	0.016700	-0.731943	0.465981
O411	O	-0.224339	-0.565033	0.367093
C412	C	-0.210349	-0.593911	0.334049
H413	H	-0.168877	-0.627222	0.333560
H414	H	-0.242536	-0.613260	0.351181
C415	C	-0.258543	-0.513404	0.276070
C416	C	-0.207605	-0.554315	0.275467
H417	H	-0.256853	-0.488980	0.239934
H418	H	-0.267971	-0.493949	0.298333
H419	H	-0.285360	-0.529535	0.290350
H420	H	-0.180791	-0.538184	0.261194
H421	H	-0.198173	-0.573766	0.253199
H422	H	-0.116227	-0.604815	0.338615
