data_functionalizedCrystal
_audit_creation_method	'MofGen! by Chris Wilmer'
_symmetry_space_group_name_H-M	'P1'
_symmetry_Int_Tables_number	1
_symmetry_cell_setting	triclinic
loop_
_symmetry_equiv_pos_as_xyz
  x,y,z
_cell_length_a	6.817900
_cell_length_b	12.000057
_cell_length_c	16.305550
_cell_angle_alpha	91.571640
_cell_angle_beta	103.455250
_cell_angle_gamma	119.141479
loop_
_atom_site_label
_atom_site_type_symbol
_atom_site_fract_x
_atom_site_fract_y
_atom_site_fract_z
V1	V	-4.113989	-0.177949	-0.264463
O2	O	-4.010172	0.007441	-0.257964
O3	O	-4.151150	-0.351775	-0.264063
O4	O	-4.064285	-0.175699	-0.379162
O5	O	-4.097638	-0.169854	-0.142069
V6	V	-4.586699	-0.155717	-0.249653
O7	O	-4.398966	-0.226718	-0.296951
O8	O	-4.751919	-0.106948	-0.217165
O9	O	-4.326331	0.018110	-0.250053
O10	O	-4.807912	-0.341107	-0.256152
O11	O	-4.720446	-0.163811	-0.372048
O12	O	-4.413196	-0.157967	-0.134954
C13	C	-4.017007	-0.394135	-0.260255
C14	C	-4.128669	-0.536244	-0.260692
C15	C	-4.117726	-0.740273	-0.257284
C16	C	-4.002315	-0.593397	-0.256835
C17	C	-3.906201	-0.169531	-0.407074
C18	C	-3.947413	-0.168841	-0.500850
C19	C	-4.097182	-0.166169	-0.841574
C20	C	-3.857223	-0.158237	-0.800582
C21	C	-3.814644	-0.159484	-0.703097
C22	C	-4.022878	-0.167494	-0.672537
C23	C	-4.252163	-0.293746	-0.724179
C24	C	-4.293675	-0.293032	-0.821723
C25	C	-4.094094	-0.048859	-0.794787
C26	C	-4.045672	-0.047860	-0.696936
C27	C	-3.980900	-0.168247	-0.577005
C28	C	-4.139174	-0.165425	-0.937107
C29	C	-4.123819	0.060463	-0.253859
C30	C	-3.991396	0.202570	-0.253427
C31	C	-4.234624	-0.164139	-0.107038
C32	C	-4.172647	-0.164822	-0.013261
H33	H	-4.322267	-0.596036	-0.264313
H34	H	-3.955525	0.046801	-0.807385
O35	O	-3.771397	-0.522232	-0.252608
C36	C	-3.730967	-0.568421	-0.323668
H37	H	-3.875279	-0.673141	-0.349694
H38	H	-3.554372	-0.562914	-0.303241
H39	H	-3.730556	-0.506558	-0.375530
H40	H	-3.797796	-0.737627	-0.249789
O41	O	-4.302006	-0.054272	-0.826703
C42	C	-4.297263	0.051380	-0.784308
H43	H	-4.160959	0.087915	-0.719268
H44	H	-4.476881	0.019295	-0.775127
H45	H	-4.250119	0.132363	-0.824247
O46	O	-3.610443	-0.051061	-0.660535
C47	C	-3.624248	0.059235	-0.679634
H48	H	-3.762008	0.033349	-0.743256
H49	H	-3.447012	0.138868	-0.684166
H50	H	-3.674884	0.094674	-0.626926
H51	H	-3.706114	-0.067034	-0.812211
O52	O	-3.853421	-0.258895	-0.839041
C53	C	-4.066648	-0.336428	-0.902880
H54	H	-4.208432	-0.321433	-0.888153
H55	H	-4.119272	-0.442528	-0.904402
H56	H	-4.044664	-0.308022	-0.967706
H57	H	-3.790255	-0.244739	-0.687489
O58	O	-3.846445	0.063509	-0.654897
C59	C	-3.809339	0.065788	-0.565963
H60	H	-3.982869	-0.000464	-0.552193
H61	H	-3.733625	0.168782	-0.532711
H62	H	-3.681520	0.030890	-0.541072
O63	O	-4.348599	-0.811515	-0.261471
C64	C	-4.389049	-0.765281	-0.190435
H65	H	-4.219063	-0.712335	-0.136426
H66	H	-4.526270	-0.850189	-0.167947
H67	H	-4.454526	-0.695936	-0.209489
H68	H	-4.240530	-0.382577	-0.708082
H69	H	-4.472971	-0.304104	-0.849804
O70	O	-4.220376	-0.046094	-0.671318
C71	C	-4.326281	-0.153484	-0.630554
H72	H	-4.294489	-0.232582	-0.652955
H73	H	-4.522550	-0.191939	-0.647400
H74	H	-4.247447	-0.122769	-0.558348
O75	O	-4.303204	-0.399069	-0.858887
C76	C	-4.522818	-0.476043	-0.919587
H77	H	-4.656117	-0.454597	-0.903267
H78	H	-4.582371	-0.582632	-0.918582
H79	H	-4.507554	-0.453145	-0.985993
O80	O	-4.441149	-0.306430	-0.701705
C81	C	-4.546030	-0.422586	-0.668924
H82	H	-4.497664	-0.492702	-0.694105
H83	H	-4.744303	-0.467643	-0.690054
H84	H	-4.480937	-0.401341	-0.596106
