data_functionalizedCrystal
_audit_creation_method	'MofGen! by Chris Wilmer'
_symmetry_space_group_name_H-M	'P1'
_symmetry_Int_Tables_number	1
_symmetry_cell_setting	triclinic
loop_
_symmetry_equiv_pos_as_xyz
  x,y,z
_cell_length_a	25.639242
_cell_length_b	16.994747
_cell_length_c	25.639233
_cell_angle_alpha	89.993240
_cell_angle_beta	90.022166
_cell_angle_gamma	90.006589
loop_
_atom_site_label
_atom_site_type_symbol
_atom_site_fract_x
_atom_site_fract_y
_atom_site_fract_z
Zn1	Zn	0.799326	-0.314218	0.295835
Zn2	Zn	0.799291	-0.446103	0.208438
Zn3	Zn	0.711902	-0.314207	0.208399
Zn4	Zn	0.711889	-0.446074	0.295828
O5	O	0.755602	-0.380150	0.252125
O6	O	0.872486	-0.331730	0.284261
O7	O	0.787690	-0.428614	0.135268
O8	O	0.723518	-0.203827	0.219984
O9	O	0.872461	-0.428625	0.220051
O10	O	0.787748	-0.203835	0.284223
O11	O	0.723485	-0.331710	0.135239
O12	O	0.638735	-0.331682	0.219977
O13	O	0.723497	-0.428575	0.368994
O14	O	0.638726	-0.428564	0.284211
O15	O	0.787736	-0.331702	0.368999
O16	O	0.787677	-0.556480	0.220044
O17	O	0.723463	-0.556459	0.284249
C18	C	0.619759	-0.380119	0.252090
C19	C	0.561645	-0.380125	0.252087
C20	C	0.755572	-0.585090	0.252149
C21	C	0.755575	-0.674412	0.252147
Zn22	Zn	0.711917	-0.945293	0.208384
Zn23	Zn	0.799349	-0.945283	0.295812
Zn24	Zn	0.711907	-0.813466	0.295819
Zn25	Zn	0.799301	-0.813358	0.208421
O26	O	0.755618	-0.879350	0.252109
O27	O	0.723539	-1.055673	0.219963
O28	O	0.787765	-0.927838	0.368978
O29	O	0.638743	-0.831003	0.284209
O30	O	0.787775	-1.055666	0.284196
O31	O	0.638750	-0.927855	0.219971
O32	O	0.723522	-0.830993	0.368984
O33	O	0.723476	-0.703071	0.284244
O34	O	0.787693	-0.830819	0.135251
O35	O	0.787683	-0.702991	0.220033
O36	O	0.723492	-0.927751	0.135224
O37	O	0.872508	-0.927734	0.284232
O38	O	0.872472	-0.830809	0.220026
C39	C	0.201286	-0.430681	0.285540
C40	C	0.146682	-0.430686	0.285548
O41	O	0.118449	-0.473632	0.313961
N42	N	0.119363	-0.380172	0.252159
C43	C	0.146651	-0.329644	0.218764
O44	O	0.118400	-0.286678	0.190365
C45	C	0.201254	-0.329636	0.218758
C46	C	0.228570	-0.380159	0.252146
C47	C	0.228603	-0.481199	0.318925
C48	C	0.283203	-0.481195	0.318916
C49	C	0.310487	-0.430673	0.285522
C50	C	0.283171	-0.380155	0.252137
C51	C	0.228541	-0.279105	0.185366
C52	C	0.283148	-0.279101	0.185364
C53	C	0.310464	-0.329624	0.218751
C54	C	0.365056	-0.329629	0.218733
N55	N	0.392375	-0.380143	0.252122
C56	C	0.365091	-0.430665	0.285517
C57	C	0.031980	-0.329664	0.218778
C58	C	-0.022622	-0.329676	0.218780
C59	C	-0.022587	-0.430717	0.285565
C60	C	0.032016	-0.430709	0.285560
C61	C	0.059299	-0.380178	0.252167
C62	C	0.479756	-0.430653	0.285495
C63	C	0.534361	-0.430647	0.285481
C64	C	0.534321	-0.329604	0.218698
C65	C	0.479721	-0.329612	0.218709
C66	C	0.452439	-0.380140	0.252112
O67	O	0.393324	-0.286702	0.190336
O68	O	0.393348	-0.473617	0.313916
C69	C	0.891975	-0.380182	0.252161
C70	C	0.950089	-0.380196	0.252176
C71	C	0.755619	-0.380137	0.388498
C72	C	0.755626	-0.380131	0.446612
C73	C	0.755635	-0.174410	0.252098
C74	C	0.755651	-0.085088	0.252087
C75	C	0.755615	-0.380107	0.116283
C76	C	0.755709	-0.379891	0.058169
C77	C	0.789118	-0.329539	0.806984
C78	C	0.789124	-0.329517	0.861588
O79	O	0.817558	-0.286595	0.889832
N80	N	0.755684	-0.379946	0.888895
C81	C	0.722231	-0.430394	0.861595
O82	O	0.693787	-0.473285	0.889835
C83	C	0.722222	-0.430411	0.806991
C84	C	0.755668	-0.379985	0.779687
C85	C	0.822561	-0.279115	0.779680
C86	C	0.822555	-0.279139	0.725079
C87	C	0.789106	-0.329585	0.697783
C88	C	0.755662	-0.380008	0.725087
C89	C	0.688767	-0.480855	0.779692
C90	C	0.688761	-0.480868	0.725085
C91	C	0.722207	-0.430441	0.697781
C92	C	0.722207	-0.430477	0.643190
N93	N	0.755648	-0.380048	0.615883
C94	C	0.789097	-0.329602	0.643179
C95	C	0.722251	-0.430353	0.976265
C96	C	0.722262	-0.430340	1.030868
C97	C	0.789155	-0.329462	1.030857
C98	C	0.789146	-0.329479	0.976254
C99	C	0.755691	-0.379924	0.948958
C100	C	0.789083	-0.329655	0.528514
C101	C	0.789075	-0.329684	0.473909
C102	C	0.722181	-0.430560	0.473924
C103	C	0.722190	-0.430533	0.528524
C104	C	0.755642	-0.380074	0.555818
O105	O	0.693787	-0.473375	0.614911
O106	O	0.817531	-0.286711	0.614932
C107	C	0.891461	-0.879261	0.252133
C108	C	0.949575	-0.879245	0.252159
C109	C	0.755588	-0.879274	0.115736
C110	C	0.755576	-0.879241	0.057622
C111	C	0.619245	-0.879442	0.252086
C112	C	0.561131	-0.879481	0.252077
C113	C	0.755611	-0.879471	0.387952
C114	C	0.755477	-0.879654	0.446065
C115	C	0.976869	-0.929749	0.285572
C116	C	1.031473	-0.929750	0.285597
C117	C	1.058783	-0.879243	0.252210
C118	C	1.031485	-0.828737	0.218793
C119	C	0.976881	-0.828741	0.218766
C120	C	0.722140	-0.929694	0.030314
C121	C	0.722118	-0.929663	-0.024290
C122	C	0.755534	-0.879184	-0.051586
C123	C	0.788971	-0.828726	-0.024274
C124	C	0.788991	-0.828753	0.030330
C125	C	0.533834	-0.829068	0.285518
C126	C	0.479229	-0.829089	0.285509
C127	C	0.451924	-0.879529	0.252061
C128	C	0.479225	-0.929944	0.218616
C129	C	0.533828	-0.929919	0.218623
C130	C	0.722207	-0.828952	0.473337
C131	C	0.722071	-0.829124	0.527941
C132	C	0.755210	-0.879994	0.555273
C133	C	0.788482	-0.930701	0.527998
C134	C	0.788615	-0.930533	0.473394
H135	H	0.457550	-0.471796	0.312696
C136	C	0.859470	-0.318542	0.914862
C137	C	0.825906	-0.274042	0.946243
H138	H	0.882165	-0.284312	0.896340
H139	H	0.839548	-0.348577	0.890790
H140	H	0.879466	-0.352905	0.936179
H141	H	0.805906	-0.239682	0.924926
H142	H	0.845829	-0.243993	0.970318
C143	C	0.854146	-1.031085	0.522583
C144	C	0.824910	-0.986611	0.558045
H145	H	0.876634	-1.065601	0.541135
H146	H	0.874352	-0.996861	0.501384
H147	H	0.831279	-1.060966	0.501184
H148	H	0.847778	-0.956726	0.579442
H149	H	0.804703	-1.020840	0.579253
H150	H	0.755098	-0.880122	0.599734
C151	C	0.818318	-0.975383	0.389721
C152	C	0.825193	-0.986264	0.443421
H153	H	0.840899	-1.009795	0.371220
H154	H	0.826233	-0.922444	0.380864
H155	H	0.783158	-0.986545	0.380660
H156	H	0.860352	-0.975096	0.452482
H157	H	0.817281	-1.039215	0.452282
C158	C	0.877696	-0.291040	1.047700
C159	C	0.825919	-0.274005	1.060871
H160	H	0.900390	-0.256808	1.066234
H161	H	0.882481	-0.283825	1.011278
H162	H	0.885335	-0.344039	1.056663
H163	H	0.818279	-0.221007	1.051904
H164	H	0.821132	-0.281213	1.097301
H165	H	0.816178	-0.787627	-0.046506
H166	H	0.457008	-0.788034	0.312745
H167	H	0.556600	-0.471792	0.312670
H168	H	0.816221	-0.787670	0.052560
C169	C	0.277736	-0.581060	0.384934
C170	C	0.313225	-0.536724	0.355623
H171	H	0.296268	-0.615337	0.407599
H172	H	0.256430	-0.611182	0.362128
H173	H	0.256447	-0.546725	0.404960
H174	H	0.334511	-0.571058	0.335593
H175	H	0.334540	-0.506599	0.378432
H176	H	0.556050	-0.970976	0.191392
C177	C	1.115167	-0.974606	0.315311
C178	C	1.061472	-0.985262	0.322335
H179	H	1.133685	-1.008880	0.337991
H180	H	1.124117	-0.921627	0.323001
H181	H	1.124115	-0.986099	0.280178
H182	H	1.052523	-0.973764	0.357467
H183	H	1.052518	-1.038254	0.314649
H184	H	0.661531	-0.521918	0.801914
C185	C	0.618411	-0.491848	0.663671
C186	C	0.651986	-0.536326	0.695087
H187	H	0.595708	-0.526089	0.645156
H188	H	0.638325	-0.461833	0.639591
H189	H	0.598425	-0.457465	0.684963
H190	H	0.671975	-0.570705	0.673795
H191	H	0.632070	-0.566355	0.719169
H192	H	0.456984	-0.971010	0.191383
H193	H	0.695221	-0.787524	0.451090
H194	H	0.954641	-0.970877	0.312763
H195	H	0.694960	-0.471602	0.550757
C196	C	0.373714	-0.824657	0.288483
C197	C	0.391902	-0.879558	0.252062
H198	H	0.336660	-0.824679	0.288488
H199	H	0.386054	-0.773752	0.279446
H200	H	0.386088	-0.838316	0.322218
H201	H	0.379532	-0.865895	0.218326
H202	H	0.379557	-0.930474	0.261096
H203	H	0.556059	-0.787991	0.312755
C204	C	0.855196	-0.229962	0.479392
C205	C	0.825840	-0.274248	0.443897
H206	H	0.877889	-0.195735	0.460864
H207	H	0.875191	-0.264326	0.500701
H208	H	0.832416	-0.199781	0.500676
H209	H	0.848619	-0.304433	0.422615
H210	H	0.805843	-0.239880	0.422578
C211	C	0.167240	-0.492346	0.389261
C212	C	0.198619	-0.536742	0.355636
H213	H	0.148735	-0.526643	0.411926
H214	H	0.143151	-0.462275	0.369382
H215	H	0.188555	-0.458020	0.409287
H216	H	0.177303	-0.571065	0.335607
H217	H	0.222710	-0.566827	0.375517
C218	C	0.026553	-0.530579	0.351575
C219	C	0.062039	-0.486237	0.322265
H220	H	0.045088	-0.564856	0.374239
H221	H	0.005248	-0.560703	0.328768
H222	H	0.005263	-0.496249	0.371603
H223	H	0.083327	-0.520567	0.302235
H224	H	0.083353	-0.456112	0.345075
H225	H	0.954663	-0.787610	0.191558
C226	C	-0.083958	-0.441826	0.355895
C227	C	-0.052584	-0.486248	0.322279
H228	H	-0.102474	-0.476108	0.378560
H229	H	-0.108037	-0.411748	0.336008
H230	H	-0.062638	-0.407505	0.375920
H231	H	-0.073904	-0.520565	0.302251
H232	H	-0.028503	-0.516339	0.342168
C233	C	-0.017158	-0.229802	0.152766
C234	C	-0.052644	-0.274145	0.182076
H235	H	-0.035693	-0.195513	0.130111
H236	H	0.004125	-0.264125	0.132735
H237	H	0.004154	-0.199684	0.175578
H238	H	-0.073954	-0.304267	0.159265
H239	H	-0.073936	-0.239817	0.202109
C240	C	0.656452	-0.728683	0.522388
C241	C	0.685501	-0.773375	0.557913
H242	H	0.633879	-0.694263	0.540892
H243	H	0.636346	-0.762776	0.500993
H244	H	0.679433	-0.698691	0.501193
H245	H	0.662521	-0.803372	0.579106
H246	H	0.705609	-0.739278	0.579318
H247	H	0.054191	-0.288517	0.191581
C248	C	0.768865	-0.954193	-0.129800
C249	C	0.755523	-0.879168	-0.111607
H250	H	0.768864	-0.954186	-0.166855
H251	H	0.744175	-0.991465	-0.117455
H252	H	0.802610	-0.967804	-0.117435
H253	H	0.721777	-0.865560	-0.123969
H254	H	0.780215	-0.841885	-0.123957
C255	C	1.115198	-0.783880	0.189189
C256	C	1.061508	-0.773215	0.182100
H257	H	1.133733	-0.749596	0.166541
H258	H	1.124141	-0.836856	0.181499
H259	H	1.124132	-0.772407	0.224336
H260	H	1.052574	-0.784694	0.146954
H261	H	1.052561	-0.720226	0.189787
H262	H	0.206310	-0.237966	0.158177
H263	H	0.457479	-0.288474	0.191521
C264	C	0.277625	-0.179227	0.119348
C265	C	0.313137	-0.223562	0.148650
H266	H	0.296139	-0.144947	0.096679
H267	H	0.256344	-0.149108	0.142159
H268	H	0.256312	-0.213562	0.099325
H269	H	0.334447	-0.189228	0.168676
H270	H	0.334426	-0.253684	0.125836
H271	H	0.556546	-0.288472	0.191507
H272	H	0.695007	-0.471436	0.954045
C273	C	0.656050	-1.029447	0.024800
C274	C	0.685401	-0.985181	0.060309
H275	H	0.633364	-1.063698	0.043316
H276	H	0.678829	-1.059594	0.003502
H277	H	0.636043	-0.995067	0.003505
H278	H	0.705411	-1.019562	0.081602
H279	H	0.662619	-0.955032	0.081616
C280	C	0.692470	-0.475363	0.390220
C281	C	0.685411	-0.486004	0.443912
H282	H	0.669765	-0.509587	0.371693
H283	H	0.727591	-0.486927	0.381288
H284	H	0.684831	-0.422361	0.381267
H285	H	0.693054	-0.539006	0.452867
H286	H	0.650282	-0.474447	0.452848
H287	H	0.816321	-0.288564	0.550730
H288	H	0.849800	-0.238032	0.801899
C289	C	0.651759	-0.940667	-0.085690
C290	C	0.685364	-0.985137	-0.054302
H291	H	0.629068	-0.974917	-0.104214
H292	H	0.671652	-0.910606	-0.109762
H293	H	0.631761	-0.906329	-0.064379
H294	H	0.705366	-1.019472	-0.075614
H295	H	0.665470	-1.015212	-0.030227
H296	H	0.849790	-0.238074	0.702853
H297	H	0.695032	-0.471411	1.053094
H298	H	1.103244	-0.879248	0.252237
