data_functionalizedCrystal
_audit_creation_method	'MofGen! by Chris Wilmer'
_symmetry_space_group_name_H-M	'P1'
_symmetry_Int_Tables_number	1
_symmetry_cell_setting	triclinic
loop_
_symmetry_equiv_pos_as_xyz
  x,y,z
_cell_length_a	14.044191
_cell_length_b	15.995350
_cell_length_c	12.503572
_cell_angle_alpha	93.525550
_cell_angle_beta	86.162165
_cell_angle_gamma	88.342076
loop_
_atom_site_label
_atom_site_type_symbol
_atom_site_fract_x
_atom_site_fract_y
_atom_site_fract_z
O1	O	1.263171	0.197459	-0.089258
O2	O	0.987202	0.190168	-0.089272
O3	O	1.132730	0.072489	-0.089264
O4	O	1.117643	0.315137	-0.089267
O5	O	1.121785	0.081355	0.089377
O6	O	0.976257	0.199034	0.089369
O7	O	1.252226	0.206325	0.089383
Cu8	Cu	1.113242	0.203489	0.105687
Cu9	Cu	1.126186	0.193004	-0.105577
O10	O	1.106698	0.324003	0.089375
C11	C	0.946415	0.191411	0.000046
C12	C	0.841190	0.181898	0.000041
C13	C	0.590903	0.231977	0.000051
C14	C	0.648532	0.164519	0.000050
C15	C	0.755736	0.174191	0.000045
C16	C	0.483688	0.222306	0.000056
C17	C	1.126634	0.045681	0.000055
C18	C	1.124765	-0.047410	0.000048
C19	C	1.118049	-0.385659	0.000052
C20	C	1.014431	-0.345988	-0.000354
C21	C	1.016276	-0.249138	0.000049
C22	C	1.121380	-0.217849	0.000049
C23	C	1.166250	-0.250045	0.102063
C24	C	1.163641	-0.346871	0.102148
C25	C	1.178229	-0.357151	-0.101000
C26	C	1.178287	-0.260275	-0.102348
C27	C	1.123268	-0.123011	0.000052
C28	C	1.116163	-0.480497	0.000057
C29	C	1.293013	0.205081	0.000062
C30	C	1.398239	0.214594	0.000060
C31	C	1.112794	0.350811	0.000054
C32	C	1.114664	0.443902	0.000053
N33	N	1.104146	0.210864	0.254279
N34	N	1.135290	0.185623	-0.254168
C35	C	1.090764	0.221719	0.473394
C36	C	1.148668	0.174770	0.526724
C37	C	1.141223	0.180810	0.648647
C38	C	1.098209	0.215680	0.351460
H39	H	0.622076	0.296987	0.000047
H40	H	1.255310	-0.239492	-0.108507
H41	H	1.121693	-0.364172	0.178404
C42	C	1.314776	0.135886	0.491554
C43	C	1.223053	0.114372	0.464625
H44	H	1.360667	0.098594	0.453179
H45	H	1.326298	0.191626	0.473225
H46	H	1.319572	0.132013	0.566523
H47	H	1.218254	0.118251	0.389658
H48	H	1.211527	0.058618	0.482947
C49	C	0.680534	0.016244	0.000042
C50	C	0.606455	0.076746	0.000046
H51	H	0.654553	-0.037939	0.000043
H52	H	0.722451	0.019726	-0.062251
H53	H	0.714829	0.025908	0.062342
H54	H	0.572165	0.067087	-0.062258
H55	H	0.564522	0.073262	0.062345
H56	H	1.035603	0.266448	0.519298
H57	H	0.980573	-0.227348	-0.073079
C58	C	1.026308	-0.437200	-0.160849
C59	C	0.964545	-0.380091	-0.099102
H60	H	0.995505	-0.458262	-0.221808
H61	H	1.082502	-0.409813	-0.183786
H62	H	1.042788	-0.482265	-0.118829
H63	H	0.948070	-0.335023	-0.141120
H64	H	0.908333	-0.407478	-0.076166
C65	C	0.874439	-0.415629	0.063246
C66	C	0.952738	-0.371721	0.097848
H67	H	0.836360	-0.431521	0.123874
H68	H	0.837355	-0.380807	0.021985
H69	H	0.896504	-0.464344	0.020424
H70	H	0.930673	-0.323002	0.140664
H71	H	0.989828	-0.406544	0.139127
C72	C	0.881209	-0.160630	0.065387
C73	C	0.955614	-0.210690	0.098937
H74	H	0.843757	-0.136900	0.126443
H75	H	0.907094	-0.117073	0.025287
H76	H	0.842307	-0.193971	0.021692
H77	H	0.994521	-0.177347	0.142625
H78	H	0.929729	-0.254252	0.139055
C79	C	1.329361	-0.316491	0.112084
C80	C	1.265975	-0.382426	0.108417
H81	H	1.392533	-0.338440	0.115965
H82	H	1.326033	-0.286422	0.049186
H83	H	1.312509	-0.279903	0.173600
H84	H	1.282822	-0.419010	0.046896
H85	H	1.269306	-0.412508	0.171322
H86	H	1.243235	-0.229962	0.105858
C87	C	1.073394	-0.273408	0.265158
C88	C	1.112042	-0.210237	0.204552
H89	H	1.039929	-0.248832	0.328431
H90	H	1.030652	-0.304566	0.223888
H91	H	1.123395	-0.309658	0.284272
H92	H	1.062040	-0.173991	0.185431
H93	H	1.154787	-0.179065	0.245831
C94	C	1.202667	-0.191656	-0.266984
C95	C	1.134149	-0.232238	-0.204234
H96	H	1.175417	-0.174347	-0.329884
H97	H	1.223487	-0.144034	-0.226927
H98	H	1.255559	-0.229071	-0.286714
H99	H	1.081261	-0.194820	-0.184498
H100	H	1.113316	-0.279866	-0.244299
C101	C	1.281126	-0.480034	-0.105808
C102	C	1.281442	-0.392369	-0.101941
H103	H	1.344844	-0.501777	-0.106390
H104	H	1.245119	-0.497459	-0.044575
H105	H	1.253214	-0.500319	-0.169093
H106	H	1.309348	-0.372084	-0.038651
H107	H	1.317463	-0.374936	-0.163179
H108	H	1.149080	-0.384060	-0.178320
