data_functionalizedCrystal
_audit_creation_method	'MofGen! by Chris Wilmer'
_symmetry_space_group_name_H-M	'P1'
_symmetry_Int_Tables_number	1
_symmetry_cell_setting	triclinic
loop_
_symmetry_equiv_pos_as_xyz
  x,y,z
_cell_length_a	10.489711
_cell_length_b	10.489741
_cell_length_c	14.185328
_cell_angle_alpha	104.653505
_cell_angle_beta	104.657453
_cell_angle_gamma	84.533091
loop_
_atom_site_label
_atom_site_type_symbol
_atom_site_fract_x
_atom_site_fract_y
_atom_site_fract_z
O1	O	1.720140	0.205847	0.083458
O2	O	1.348938	0.222777	0.083452
O3	O	1.542984	0.028711	0.083449
O4	O	1.526094	0.399912	0.083461
O5	O	1.490860	-0.023391	-0.083396
O6	O	1.296814	0.170675	-0.083393
O7	O	1.668017	0.153744	-0.083387
Cu8	Cu	1.477656	0.157452	-0.098624
Cu9	Cu	1.539298	0.219069	0.098690
O10	O	1.473971	0.347810	-0.083384
C11	C	1.275343	0.195455	0.000029
C12	C	1.133711	0.191652	0.000026
C13	C	0.951330	0.308361	0.000042
C14	C	1.069174	0.275754	0.082302
C15	C	1.017757	0.224354	-0.082195
C16	C	0.999246	0.152234	0.082376
C17	C	0.947796	0.100828	-0.082195
C18	C	1.065619	0.068137	0.000086
C19	C	1.515646	-0.044871	0.000027
C20	C	1.511829	-0.186500	0.000029
C21	C	1.388365	-0.254625	0.000034
C22	C	1.420990	-0.372443	-0.082228
C23	C	1.472409	-0.321048	0.082268
C24	C	1.544484	-0.302473	-0.082301
C25	C	1.595909	-0.251046	0.082269
C26	C	1.628617	-0.368843	-0.000013
C27	C	1.741612	0.181067	0.000039
C28	C	1.883246	0.184872	0.000048
C29	C	1.501309	0.421393	0.000040
C30	C	1.505128	0.563024	0.000045
N31	N	1.434309	0.114113	-0.237404
C32	C	1.709905	0.389764	-0.604998
C33	C	1.677100	0.356915	-0.710026
C34	C	1.520973	0.200697	-0.710019
C35	C	1.553760	0.233537	-0.604989
C36	C	1.648228	0.328070	-0.552486
C37	C	1.492084	0.171843	-0.552477
C38	C	1.524874	0.204675	-0.447456
C39	C	1.619340	0.299201	-0.394946
C40	C	1.681018	0.360902	-0.447465
C41	C	1.397623	0.077303	-0.604981
C42	C	1.335946	0.015609	-0.552470
C43	C	1.368729	0.048448	-0.447446
C44	C	1.463196	0.142974	-0.394937
C45	C	1.307052	-0.013252	-0.394928
C46	C	1.339842	0.019580	-0.289906
C47	C	1.495986	0.175807	-0.289916
N48	N	1.582655	0.262398	0.237469
H49	H	1.115089	-0.033446	0.000124
H50	H	1.026986	0.254909	-0.151740
O51	O	1.749926	-0.427622	0.000071
C52	C	1.842145	-0.363464	0.086052
H53	H	1.804008	-0.258909	0.114443
H54	H	1.940207	-0.359533	0.066203
H55	H	1.856791	-0.420070	0.147033
O56	O	1.267157	-0.195512	-0.000238
C57	C	1.175384	-0.258151	-0.087126
H58	H	1.229462	-0.309723	-0.147446
H59	H	1.101587	-0.181474	-0.115837
H60	H	1.120894	-0.333906	-0.068356
O61	O	0.884859	0.012785	-0.165268
C62	C	0.893088	0.051169	-0.251835
H63	H	0.910424	0.161424	-0.232124
H64	H	0.797076	0.028679	-0.311529
H65	H	0.978414	-0.005555	-0.281853
O66	O	1.435954	-0.332327	0.165164
C67	C	1.434046	-0.466769	0.164503
H68	H	1.421312	-0.528727	0.084321
H69	H	1.348490	-0.483244	0.195662
H70	H	1.530790	-0.497050	0.212990
O71	O	1.587857	0.267495	-0.238798
C72	C	1.693174	0.209543	-0.178048
H73	H	1.657531	0.119429	-0.162307
H74	H	1.730905	0.284042	-0.104201
H75	H	1.776246	0.178299	-0.218508
O76	O	1.332662	-0.435459	-0.165093
C77	C	1.234948	-0.489026	-0.135564
H78	H	1.275394	-0.503448	-0.056299
H79	H	1.205492	-0.588155	-0.189371
H80	H	1.144944	-0.418796	-0.137145
O81	O	1.683947	-0.188099	0.165343
C82	C	1.645586	-0.196361	0.251910
H83	H	1.535336	-0.213729	0.232199
H84	H	1.668058	-0.100353	0.311605
H85	H	1.702342	-0.281679	0.281926
O86	O	1.650984	0.331225	-0.292928
C87	C	1.537449	0.380927	-0.257860
H88	H	1.462850	0.420418	-0.318399
H89	H	1.565614	0.463946	-0.187613
H90	H	1.492078	0.298610	-0.239211
H91	H	1.574929	-0.293389	-0.151925
H92	H	1.121895	0.349728	0.151847
H93	H	1.757929	0.437894	-0.404715
H94	H	1.786816	0.466755	-0.562247
H95	H	1.727331	0.407163	-0.752777
H96	H	1.259034	-0.061364	-0.595231
O97	O	1.279761	-0.040426	-0.239046
C98	C	1.189372	-0.130923	-0.307905
H99	H	1.159030	-0.101599	-0.382779
H100	H	1.098471	-0.130316	-0.277566
H101	H	1.237522	-0.234030	-0.319050
O102	O	1.365998	0.045389	-0.706999
C103	C	1.479516	-0.004367	-0.742074
H104	H	1.571227	0.032964	-0.681553
H105	H	1.477579	0.030421	-0.812345
H106	H	1.481537	-0.116716	-0.760685
H107	H	1.444061	0.123723	-0.752781
O108	O	0.891848	0.429376	0.000093
C109	C	0.757779	0.423828	-0.000764
H110	H	0.724695	0.317920	-0.032884
H111	H	0.696012	0.489761	-0.049181
H112	H	0.744218	0.459315	0.079078
H113	H	0.990189	0.121774	0.152002
H114	H	1.230145	-0.090231	-0.437691
