data_functionalizedCrystal
_audit_creation_method	'MofGen! by Chris Wilmer'
_symmetry_space_group_name_H-M	'P1'
_symmetry_Int_Tables_number	1
_symmetry_cell_setting	triclinic
loop_
_symmetry_equiv_pos_as_xyz
  x,y,z
_cell_length_a	9.565339
_cell_length_b	19.288864
_cell_length_c	19.288857
_cell_angle_alpha	96.865323
_cell_angle_beta	90.009674
_cell_angle_gamma	89.983156
loop_
_atom_site_label
_atom_site_type_symbol
_atom_site_fract_x
_atom_site_fract_y
_atom_site_fract_z
O1	O	0.116715	-0.921344	0.086651
O2	O	0.116620	-0.719083	0.098340
O3	O	0.116653	-0.826061	-0.008635
O4	O	0.116681	-0.814366	0.193626
O5	O	-0.115867	-0.826055	-0.008645
O6	O	-0.115900	-0.719078	0.098330
O7	O	-0.115805	-0.921339	0.086642
Zn8	Zn	-0.152770	-0.820207	0.092485
Zn9	Zn	0.153585	-0.820214	0.092497
O10	O	-0.115839	-0.814361	0.193617
C11	C	0.000348	-0.693204	0.097959
C12	C	0.000311	-0.616100	0.096830
C13	C	0.000392	-0.825683	-0.034516
C14	C	0.000387	-0.824556	-0.111620
N15	N	-0.361850	-0.820207	0.092476
C16	C	-0.546170	-0.869303	0.042623
C17	C	-0.452915	-0.883142	0.105151
C18	C	-0.453036	-0.806399	0.029953
C19	C	-0.546132	-0.834090	0.155059
C20	C	-0.546261	-0.757320	0.079820
C21	C	-0.453048	-0.771132	0.142394
N22	N	0.362664	-0.820220	0.092500
C23	C	0.000470	-0.947218	0.087022
C24	C	0.000516	-1.024321	0.088151
C25	C	0.000342	-0.571402	0.159598
C26	C	0.000357	-0.498955	0.158537
C27	C	0.000370	-0.471209	0.094705
C28	C	0.000331	-0.515917	0.031929
C29	C	0.000302	-0.588363	0.032991
C30	C	0.081872	-0.362951	0.044529
C31	C	0.081910	-0.290506	0.043469
C32	C	0.000454	-0.247764	0.091425
C33	C	-0.081022	-0.277473	0.140453
C34	C	-0.081051	-0.349919	0.141516
C35	C	0.000401	-0.392656	0.093546
C36	C	0.000499	-0.124510	0.153048
C37	C	0.000506	-0.052062	0.151984
C38	C	0.000494	-0.069026	0.025374
C39	C	0.000473	-0.141472	0.026439
C40	C	0.000482	-0.169210	0.090278
C41	C	0.127134	-0.824033	-0.147826
C42	C	0.127144	-0.822964	-0.220272
C43	C	0.000400	-0.822432	-0.256511
C44	C	-0.126363	-0.822951	-0.220297
C45	C	-0.126370	-0.824013	-0.147851
C46	C	-0.096675	-0.861432	-0.376747
C47	C	-0.096664	-0.860374	-0.449192
C48	C	0.000414	-0.819155	-0.479957
C49	C	0.097504	-0.779001	-0.438270
C50	C	0.097498	-0.780063	-0.365825
C51	C	0.000393	-0.821281	-0.335066
C52	C	0.127180	-0.817472	-0.594717
C53	C	0.127185	-0.816399	-0.667164
C54	C	-0.126326	-0.816393	-0.667188
C55	C	-0.126327	-0.817459	-0.594742
C56	C	0.000430	-0.818002	-0.558511
C57	C	0.000426	-0.814739	0.219498
C58	C	0.000440	-0.815866	0.296602
H59	H	-0.587057	-0.910844	0.000501
H60	H	0.000523	-0.015669	0.203100
F61	F	0.000347	-0.600918	0.227541
F62	F	0.000338	-0.486387	-0.036006
H63	H	0.000278	-0.624757	-0.018124
H64	H	-0.412417	-0.729616	0.184608
H65	H	-0.587292	-0.704148	0.069081
H66	H	0.176554	-0.745436	-0.463318
F67	F	0.262041	-0.824607	-0.109270
H68	H	0.000591	-0.046436	-0.026600
H69	H	-0.175715	-0.893072	-0.483128
F70	F	0.168635	-0.258893	-0.008704
F71	F	-0.399293	-0.952659	0.119154
F72	F	0.000448	-0.189045	-0.040368
H73	H	-0.412139	-0.794714	-0.022932
F74	F	0.262084	-0.818045	-0.556154
H75	H	0.230402	-0.815969	-0.696641
H76	H	-0.229585	-0.824436	-0.118373
F77	F	0.168573	-0.408434	-0.006517
H78	H	-0.229559	-0.822516	-0.249807
F79	F	0.262050	-0.822407	-0.258812
F80	F	-0.199982	-0.905320	-0.344013
H81	H	-0.586855	-0.845832	0.207957
F82	F	-0.167720	-0.231989	0.191497
H83	H	0.000378	-0.462555	0.209652
F84	F	-0.167765	-0.381536	0.193691
F85	F	0.000498	-0.154033	0.220990
H86	H	0.176549	-0.747367	-0.331886
H87	H	-0.229524	-0.815955	-0.696693
H88	H	-0.229538	-0.817891	-0.565264
