data_functionalizedCrystal
_audit_creation_method	'MofGen! by Chris Wilmer'
_symmetry_space_group_name_H-M	'P1'
_symmetry_Int_Tables_number	1
_symmetry_cell_setting	triclinic
loop_
_symmetry_equiv_pos_as_xyz
  x,y,z
_cell_length_a	16.625539
_cell_length_b	16.625548
_cell_length_c	18.101165
_cell_angle_alpha	90.184977
_cell_angle_beta	89.799111
_cell_angle_gamma	90.020568
loop_
_atom_site_label
_atom_site_type_symbol
_atom_site_fract_x
_atom_site_fract_y
_atom_site_fract_z
Zn1	Zn	-0.454943	-1.233848	-0.294814
Zn2	Zn	-0.319704	-1.234242	-0.418666
Zn3	Zn	-0.320123	-1.099010	-0.294842
Zn4	Zn	-0.454494	-1.099471	-0.418624
O5	O	-0.387316	-1.166643	-0.356737
O6	O	-0.437016	-1.346733	-0.311249
O7	O	-0.206927	-1.216275	-0.402270
O8	O	-0.338371	-1.116539	-0.191203
O9	O	-0.337656	-1.347022	-0.402243
O10	O	-0.437422	-1.215604	-0.191183
O11	O	-0.207235	-1.116921	-0.311297
O12	O	-0.337936	-0.986239	-0.311256
O13	O	-0.567386	-1.117324	-0.402170
O14	O	-0.436657	-0.986577	-0.402198
O15	O	-0.567716	-1.216051	-0.311208
O16	O	-0.337221	-1.216722	-0.522296
O17	O	-0.436251	-1.117706	-0.522265
C18	C	-0.387294	-0.957152	-0.356726
C19	C	-0.387303	-0.867531	-0.356739
C20	C	-0.386659	-1.167329	-0.549152
C21	C	-0.386405	-1.167696	-0.631468
C22	C	-0.597625	-1.166695	-0.356681
C23	C	-0.687247	-1.166717	-0.356658
C24	C	-1.015423	-1.166754	-0.356575
C25	C	-0.924114	-1.166742	-0.356600
C26	C	-0.851338	-1.166736	-0.356617
C27	C	-0.760023	-1.166723	-0.356641
C28	C	-0.177825	-1.166637	-0.356738
C29	C	-0.088205	-1.166770	-0.356553
C30	C	-0.387339	-1.376952	-0.356748
C31	C	-0.387349	-1.466573	-0.356753
C32	C	-0.387338	-0.539355	-0.356744
C33	C	-0.387325	-0.630664	-0.356741
C34	C	-0.387320	-0.703440	-0.356742
C35	C	-0.387309	-0.794754	-0.356738
C36	C	-0.387993	-1.165976	-0.163570
C37	C	-0.388282	-1.165692	-0.081254
C38	C	-0.387653	-1.166364	0.069450
C39	C	-0.325206	-1.104174	0.100790
C40	C	-0.324604	-1.104739	0.186403
C41	C	-0.387034	-1.167024	0.217828
C42	C	-0.364386	-1.251918	0.186023
C43	C	-0.364291	-1.251176	0.100380
C44	C	-0.472773	-1.144545	0.101730
C45	C	-0.471959	-1.143051	0.187388
C46	C	-0.386685	-1.167402	0.301685
C47	C	-0.388000	-1.165991	-0.014407
H48	H	-0.338740	-1.041788	0.207936
C49	C	-0.344328	-1.018605	0.073693
N50	N	-0.358740	-0.954151	0.053288
C51	C	-0.535609	-1.205744	0.074353
N52	N	-0.582932	-1.251841	0.053727
C53	C	-0.239145	-1.124510	0.213385
N54	N	-0.174773	-1.139398	0.233707
C55	C	-0.423702	-1.316496	0.213492
N56	N	-0.468378	-1.365135	0.234184
H57	H	-0.262484	-1.118460	0.078758
H58	H	-0.302065	-1.269668	0.079865
H59	H	-0.302672	-1.270915	0.206936
C60	C	-0.495062	-1.058637	0.215562
N61	N	-0.512463	-0.995057	0.236790
H62	H	-0.407823	-1.299106	0.079617
C63	C	-0.537895	-1.200012	0.216338
N64	N	-0.587557	-1.242922	0.238140
H65	H	-0.493649	-1.083496	0.080677
