data_functionalizedCrystal
_audit_creation_method	'MofGen! by Chris Wilmer'
_symmetry_space_group_name_H-M	'P1'
_symmetry_Int_Tables_number	1
_symmetry_cell_setting	triclinic
loop_
_symmetry_equiv_pos_as_xyz
  x,y,z
_cell_length_a	21.295417
_cell_length_b	18.215407
_cell_length_c	18.215399
_cell_angle_alpha	90.014769
_cell_angle_beta	89.965438
_cell_angle_gamma	89.973873
loop_
_atom_site_label
_atom_site_type_symbol
_atom_site_fract_x
_atom_site_fract_y
_atom_site_fract_z
Zn1	Zn	-0.250674	-1.125021	-0.416054
Zn2	Zn	0.249326	-0.625021	0.083946
Zn3	Zn	-0.355950	-1.124924	-0.292979
Zn4	Zn	0.144050	-0.624924	0.207021
Zn5	Zn	-0.250690	-1.001960	-0.293006
Zn6	Zn	0.249310	-0.501960	0.206994
Zn7	Zn	-0.355902	-1.001908	-0.416008
Zn8	Zn	0.144098	-0.501908	0.083992
O9	O	-0.303304	-1.063453	-0.354512
O10	O	0.196696	-0.563453	0.145488
O11	O	-0.264653	-1.227993	-0.399736
O12	O	0.235347	-0.727993	0.100264
O13	O	-0.342014	-1.108594	-0.189998
O14	O	0.157986	-0.608594	0.310002
O15	O	-0.162599	-1.018347	-0.309359
O16	O	0.337401	-0.518347	0.190641
O17	O	-0.341998	-1.227921	-0.309313
O18	O	0.158002	-0.727921	0.190687
O19	O	-0.162587	-1.108760	-0.399762
O20	O	0.337413	-0.608760	0.100238
O21	O	-0.264680	-1.018253	-0.190018
O22	O	0.235320	-0.518253	0.309982
O23	O	-0.264633	-0.898969	-0.309314
O24	O	0.235367	-0.398969	0.190686
O25	O	-0.341916	-1.018258	-0.518998
O26	O	0.158084	-0.518258	-0.018998
O27	O	-0.341932	-0.898930	-0.399684
O28	O	0.158068	-0.398930	0.100316
O29	O	-0.264606	-1.108709	-0.519032
O30	O	0.235394	-0.608709	-0.019032
O31	O	-0.444033	-1.108543	-0.309268
O32	O	0.055967	-0.608543	0.190732
O33	O	-0.443997	-1.018163	-0.399657
O34	O	0.056003	-0.518163	0.100343
C35	C	-0.303279	-0.872247	-0.354497
C36	C	0.196721	-0.372247	0.145503
C37	C	-0.303284	-0.790448	-0.354509
C38	C	0.196716	-0.290448	0.145491
C39	C	-0.263088	-0.602290	-0.401665
C40	C	0.236912	-0.102290	0.098335
C41	C	-0.263091	-0.525432	-0.401667
C42	C	0.236909	-0.025432	0.098333
C43	C	-0.343510	-0.525368	-0.307364
C44	C	0.156490	-0.025368	0.192636
C45	C	-0.343503	-0.602226	-0.307359
C46	C	0.156497	-0.102226	0.192641
C47	C	-0.303293	-0.640685	-0.354514
C48	C	0.196707	-0.140685	0.145486
C49	C	-0.303303	-0.486969	-0.354521
C50	C	0.196697	0.013031	0.145479
C51	C	-0.303307	-0.403635	-0.354522
C52	C	0.196693	0.096365	0.145478
C53	C	-0.303288	-0.724024	-0.354511
C54	C	0.196712	-0.224024	0.145489
C55	C	-0.466856	-1.063357	-0.354471
C56	C	0.033144	-0.563357	0.145529
C57	C	-0.536824	-1.063383	-0.354478
C58	C	-0.036824	-0.563383	0.145522
C59	C	-0.569688	-1.110485	-0.307461
C60	C	-0.069688	-0.610485	0.192539
C61	C	-0.635430	-1.110520	-0.307477
C62	C	-0.135430	-0.610520	0.192523
C63	C	-0.668306	-1.063439	-0.354503
C64	C	-0.168306	-0.563439	0.145497
C65	C	-0.635434	-1.016333	-0.401530
C66	C	-0.135434	-0.516333	0.098470
C67	C	-0.569693	-1.016305	-0.401517
C68	C	-0.069693	-0.516305	0.098483
N69	N	-0.771568	-0.999060	-0.360109
N70	N	-0.271568	-0.499060	0.139891
N71	N	-0.834019	-0.999088	-0.360117
N72	N	-0.334019	-0.499088	0.139883
C73	C	-0.866381	-1.063521	-0.354546
C74	C	-0.366381	-0.563521	0.145454
N75	N	-0.833932	-1.127926	-0.348952
N76	N	-0.333932	-0.627926	0.151048
N77	N	-0.771475	-1.127896	-0.348940
N78	N	-0.271475	-0.627896	0.151060
C79	C	-0.739592	-1.063464	-0.354523
C80	C	-0.239592	-0.563464	0.145477
C81	C	-0.970531	-1.110665	-0.307544
C82	C	-0.470531	-0.610665	0.192456
C83	C	-1.036274	-1.110701	-0.307565
C84	C	-0.536274	-0.610701	0.192435
C85	C	-1.036277	-1.016507	-0.401614
C86	C	-0.536277	-0.516507	0.098386
C87	C	-0.970534	-1.016478	-0.401596
C88	C	-0.470534	-0.516478	0.098404
C89	C	-0.937665	-1.063556	-0.354557
C90	C	-0.437665	-0.563556	0.145443
C91	C	-0.139114	-1.063570	-0.354569
C92	C	0.360886	-0.563570	0.145431
C93	C	-0.069146	-1.063620	-0.354593
C94	C	0.430854	-0.563620	0.145407
C95	C	-0.303254	-1.063488	-0.546465
C96	C	0.196746	-0.563488	-0.046465
C97	C	-0.303232	-1.063503	-0.628264
C98	C	0.196768	-0.563503	-0.128264
C99	C	-0.303322	-0.255406	-0.354525
C100	C	0.196678	0.244594	0.145475
C101	C	-0.303313	-0.337205	-0.354525
C102	C	0.196687	0.162795	0.145475
C103	C	-0.262938	-1.016502	-0.816469
C104	C	0.237062	-0.516502	-0.316469
C105	C	-0.262925	-1.016515	-0.893328
C106	C	0.237075	-0.516515	-0.393328
C107	C	-0.343452	-1.110592	-0.893296
C108	C	0.156548	-0.610592	-0.393296
C109	C	-0.343467	-1.110575	-0.816439
C110	C	0.156533	-0.610575	-0.316439
C111	C	-0.303207	-1.063531	-0.778027
C112	C	0.196793	-0.563531	-0.278027
C113	C	-0.303179	-1.063561	-0.931743
C114	C	0.196821	-0.563561	-0.431743
C115	C	-0.303165	-1.063575	-1.015077
C116	C	0.196835	-0.563575	-0.515077
C117	C	-0.303221	-1.063516	-0.694688
C118	C	0.196779	-0.563516	-0.194688
C119	C	-0.303309	-1.063461	-0.163305
C120	C	0.196691	-0.563461	0.336695
C121	C	-0.303153	-1.063589	-0.081507
C122	C	0.196847	-0.563589	0.418493
H123	H	-0.376249	-0.494046	-0.268973
H124	H	0.123751	0.005954	0.231027
O125	O	-0.219727	-0.484024	-0.452526
O126	O	0.280273	0.015976	0.047474
H127	H	-0.187663	-0.449019	-0.419657
H128	H	0.312337	0.050981	0.080343
O129	O	-0.386869	-0.643639	-0.256496
O130	O	0.113131	-0.143639	0.243504
H131	H	-0.380102	-0.703544	-0.264408
H132	H	0.119898	-0.203544	0.235592
H133	H	-0.542928	-1.148821	-0.269160
H134	H	-0.042928	-0.648821	0.230840
O135	O	-0.670890	-1.161318	-0.256758
O136	O	-0.170890	-0.661318	0.243242
H137	H	-0.636989	-1.194045	-0.224043
H138	H	-0.136989	-0.694045	0.275957
O139	O	-0.670895	-0.965551	-0.452245
O140	O	-0.170895	-0.465551	0.047755
H141	H	-0.658239	-0.978134	-0.510015
H142	H	-0.158239	-0.478134	-0.010015
H143	H	-0.542934	-0.977948	-0.439805
H144	H	-0.042934	-0.477948	0.060195
H145	H	-0.943768	-1.149001	-0.269244
H146	H	-0.443768	-0.649001	0.230756
O147	O	-0.219485	-0.965800	-0.934793
O148	O	0.280515	-0.465800	-0.434793
H149	H	-0.230269	-0.908029	-0.920031
H150	H	0.269731	-0.408029	-0.420031
O151	O	-0.386873	-1.161335	-0.934723
O152	O	0.113127	-0.661335	-0.434723
H153	H	-0.358696	-1.198810	-0.969746
H154	H	0.141304	-0.698810	-0.469746
H155	H	-1.063043	-0.978176	-0.439907
H156	H	-0.563043	-0.478176	0.060093
H157	H	-0.230155	-0.978196	-0.785196
H158	H	0.269845	-0.478196	-0.285196
O159	O	-1.071726	-1.161505	-0.256850
O160	O	-0.571726	-0.661505	0.243150
H161	H	-1.037823	-1.194229	-0.224136
H162	H	-0.537823	-0.694229	0.275864
O163	O	-0.386903	-1.161308	-0.774978
O164	O	0.113097	-0.661308	-0.274978
H165	H	-0.418938	-1.128341	-0.739952
H166	H	0.081062	-0.628341	-0.239952
H167	H	-0.230344	-0.633602	-0.440059
H168	H	0.269656	-0.133602	0.059941
O169	O	-0.935081	-0.965656	-0.452289
O170	O	-0.435081	-0.465656	0.047711
H171	H	-0.968984	-0.932913	-0.484985
H172	H	-0.468984	-0.432913	0.015015
