data_functionalizedCrystal
_audit_creation_method	'MofGen! by Chris Wilmer'
_symmetry_space_group_name_H-M	'P1'
_symmetry_Int_Tables_number	1
_symmetry_cell_setting	triclinic
loop_
_symmetry_equiv_pos_as_xyz
  x,y,z
_cell_length_a	21.295420
_cell_length_b	25.639240
_cell_length_c	21.295411
_cell_angle_alpha	89.973291
_cell_angle_beta	89.975408
_cell_angle_gamma	90.028539
loop_
_atom_site_label
_atom_site_type_symbol
_atom_site_fract_x
_atom_site_fract_y
_atom_site_fract_z
Zn1	Zn	0.962345	-0.208269	-0.355890
Zn2	Zn	0.962244	-0.295689	-0.250606
Zn3	Zn	0.857069	-0.208263	-0.250635
Zn4	Zn	0.857034	-0.295669	-0.355837
O5	O	0.909673	-0.251973	-0.303242
O6	O	1.050421	-0.219877	-0.341933
O7	O	0.948264	-0.284098	-0.162520
O8	O	0.871091	-0.135099	-0.264631
O9	O	1.050347	-0.284104	-0.264582
O10	O	0.948437	-0.135103	-0.341961
O11	O	0.870992	-0.219866	-0.162541
O12	O	0.768975	-0.219847	-0.264580
O13	O	0.871032	-0.284069	-0.443934
O14	O	0.768949	-0.284063	-0.341872
O15	O	0.948404	-0.219857	-0.443972
O16	O	0.948230	-0.368852	-0.264531
O17	O	0.870933	-0.368837	-0.341844
C18	C	0.746121	-0.251953	-0.303224
C19	C	0.676153	-0.251957	-0.303231
C20	C	0.176734	-0.218608	-0.343594
C21	C	0.242476	-0.218605	-0.343594
C22	C	0.275314	-0.251989	-0.303257
C23	C	0.242404	-0.285388	-0.262928
C24	C	0.176662	-0.285395	-0.262934
N25	N	0.378503	-0.255922	-0.248136
N26	N	0.440955	-0.255912	-0.248133
C27	C	0.473388	-0.251971	-0.303238
N28	N	0.441011	-0.248030	-0.358348
N29	N	0.378554	-0.248036	-0.358351
C30	C	0.346599	-0.251985	-0.303246
C31	C	0.577576	-0.218572	-0.343567
C32	C	0.643320	-0.218572	-0.343568
C33	C	0.643246	-0.285353	-0.262897
C34	C	0.577504	-0.285356	-0.262901
C35	C	0.544673	-0.251963	-0.303236
C36	C	0.909584	-0.387815	-0.303193
C37	C	0.909604	-0.445929	-0.303193
C38	C	0.949967	-0.806256	-0.343581
C39	C	0.949986	-0.860860	-0.343593
O40	O	0.984199	-0.889066	-0.377882
N41	N	0.909760	-0.888212	-0.303303
C42	C	0.869509	-0.860956	-0.263001
O43	O	0.835295	-0.889234	-0.228733
C44	C	0.869488	-0.806352	-0.262992
C45	C	0.909720	-0.779004	-0.303281
C46	C	0.990196	-0.778908	-0.383866
C47	C	0.990178	-0.724307	-0.383853
C48	C	0.949931	-0.697055	-0.343553
C49	C	0.909703	-0.724404	-0.303267
C50	C	0.829234	-0.779098	-0.222694
C51	C	0.829216	-0.724491	-0.222689
C52	C	0.869448	-0.697142	-0.262978
C53	C	0.869438	-0.642551	-0.262954
N54	N	0.909663	-0.615200	-0.303244
C55	C	0.949910	-0.642452	-0.343544
C56	C	0.869556	-0.975626	-0.263024
C57	C	0.869580	-1.030229	-0.263030
C58	C	0.950056	-1.030130	-0.343623
C59	C	0.950035	-0.975526	-0.343614
C60	C	0.909782	-0.948275	-0.303315
C61	C	0.949870	-0.527787	-0.343511
C62	C	0.949850	-0.473181	-0.343492
C63	C	0.869372	-0.473285	-0.262902
C64	C	0.869394	-0.527886	-0.262918
C65	C	0.909645	-0.555135	-0.303228
O66	O	0.835241	-0.614310	-0.228684
O67	O	0.984112	-0.614167	-0.377813
C68	C	1.073863	-0.251993	-0.303260
C69	C	1.143831	-0.252002	-0.303268
C70	C	0.909725	-0.251962	-0.467432
C71	C	0.909747	-0.251957	-0.537400
C72	C	0.909779	-0.115600	-0.303305
C73	C	0.909825	-0.057486	-0.303332
C74	C	0.950033	-0.218520	-0.570288
C75	C	0.950032	-0.218497	-0.636031
C76	C	0.909752	-0.251921	-0.668883
C77	C	0.869459	-0.285360	-0.635987
C78	C	0.869456	-0.285378	-0.570246
N79	N	0.904893	-0.297659	-0.772093
N80	N	0.904899	-0.297640	-0.834545
C81	C	0.909756	-0.251868	-0.866958
N82	N	0.914619	-0.206114	-0.834560
N83	N	0.914616	-0.206133	-0.772103
C84	C	0.909750	-0.251905	-0.740168
C85	C	0.950043	-0.218404	-0.971131
C86	C	0.950038	-0.218380	-1.036875
C87	C	0.869468	-0.285247	-1.036830
C88	C	0.869470	-0.285266	-0.971088
C89	C	0.909761	-0.251845	-0.938242
C90	C	0.909657	-0.251946	-0.139690
C91	C	0.909757	-0.251803	-0.069723
H92	H	0.982615	-0.450916	-0.376300
H93	H	1.022937	-0.702043	-0.416661
Cl94	Cl	0.283684	-0.327359	-0.212221
Cl95	Cl	0.135464	-0.176633	-0.394305
Cl96	Cl	1.000691	-0.176387	-0.929836
H97	H	0.836668	-0.312497	-0.944310
Cl98	Cl	0.818807	-0.327417	-0.528899
H99	H	0.269270	-0.191409	-0.376431
Cl100	Cl	0.684522	-0.327326	-0.212192
H101	H	0.982642	-0.549967	-0.376340
H102	H	0.836825	-1.052491	-0.230216
H103	H	0.982843	-0.191149	-1.063651
H104	H	1.022970	-0.801091	-0.416687
Cl105	Cl	0.818779	-0.439015	-0.212242
H106	H	0.149874	-0.312589	-0.230095
Cl107	Cl	0.778650	-0.813465	-0.172045
Cl108	Cl	0.536300	-0.176595	-0.394274
Cl109	Cl	1.000681	-0.176502	-0.529000
H110	H	0.670108	-0.191380	-0.376411
Cl111	Cl	0.536139	-0.327330	-0.212193
H112	H	0.982795	-0.953262	-0.376421
Cl113	Cl	1.000669	-0.176449	-0.677384
H114	H	0.836779	-0.953441	-0.230203
Cl115	Cl	1.000651	-1.064400	-0.394287
Cl116	Cl	0.778609	-0.690235	-0.172024
H117	H	0.836638	-0.550154	-0.230107
Cl118	Cl	0.818818	-0.327376	-0.677287
Cl119	Cl	0.818823	-0.327261	-1.078124
