data_functionalizedCrystal
_audit_creation_method	'MofGen! by Chris Wilmer'
_symmetry_space_group_name_H-M	'P1'
_symmetry_Int_Tables_number	1
_symmetry_cell_setting	triclinic
loop_
_symmetry_equiv_pos_as_xyz
  x,y,z
_cell_length_a	16.109301
_cell_length_b	15.944551
_cell_length_c	14.421503
_cell_angle_alpha	89.990248
_cell_angle_beta	89.997488
_cell_angle_gamma	83.480109
loop_
_atom_site_label
_atom_site_type_symbol
_atom_site_fract_x
_atom_site_fract_y
_atom_site_fract_z
O1	O	1.103167	0.107972	-0.077055
O2	O	1.436501	0.441306	0.256278
O3	O	1.769834	0.774639	0.589612
O4	O	0.861110	0.121408	-0.077070
O5	O	1.194443	0.454742	0.256263
O6	O	1.527776	0.788075	0.589597
O7	O	0.988748	-0.007587	-0.077054
O8	O	1.322082	0.325747	0.256280
O9	O	1.655415	0.659080	0.589613
O10	O	0.975528	0.236967	-0.077071
O11	O	1.308862	0.570301	0.256262
O12	O	1.642195	0.903634	0.589595
O13	O	0.988737	-0.007600	0.077170
O14	O	1.322070	0.325733	0.410503
O15	O	1.655403	0.659066	0.743836
O16	O	0.861098	0.121395	0.077153
O17	O	1.194431	0.454728	0.410487
O18	O	1.527765	0.788061	0.743820
O19	O	1.103155	0.107958	0.077168
O20	O	1.436489	0.441292	0.410502
O21	O	1.769822	0.774625	0.743835
Cu22	Cu	0.982126	0.114675	0.091243
Cu23	Cu	1.315459	0.448009	0.424576
Cu24	Cu	1.648792	0.781342	0.757909
Cu25	Cu	0.982139	0.114692	-0.091144
Cu26	Cu	1.315473	0.448025	0.242189
Cu27	Cu	1.648806	0.781358	0.575522
O28	O	0.975517	0.236954	0.077152
O29	O	1.308850	0.570287	0.410486
O30	O	1.642183	0.903620	0.743819
C31	C	0.830129	0.120857	0.000040
C32	C	1.163462	0.454191	0.333373
C33	C	1.496795	0.787524	0.666707
C34	C	0.737833	0.119226	0.000034
C35	C	1.071166	0.452559	0.333368
C36	C	1.404499	0.785892	0.666701
C37	C	0.515584	0.191975	0.000040
C38	C	0.848917	0.525308	0.333373
C39	C	1.182251	0.858641	0.666707
C40	C	0.428863	0.190435	0.000046
C41	C	0.762196	0.523768	0.333379
C42	C	1.095530	0.857102	0.666713
C43	C	0.448688	0.037387	0.000053
C44	C	0.782021	0.370720	0.333386
C45	C	1.115355	0.704053	0.666720
C46	C	0.535407	0.038927	0.000054
C47	C	0.868740	0.372260	0.333387
C48	C	1.202074	0.705594	0.666720
C49	C	0.568853	0.116224	0.000042
C50	C	0.902186	0.449557	0.333376
C51	C	1.235519	0.782890	0.666709
C52	C	0.395412	0.113143	0.000048
C53	C	0.728746	0.446477	0.333381
C54	C	1.062079	0.779810	0.666715
C55	C	0.301386	0.111473	0.000054
C56	C	0.634719	0.444807	0.333388
C57	C	0.968053	0.778140	0.666721
C58	C	0.662885	0.117894	0.000038
C59	C	0.996218	0.451227	0.333371
C60	C	1.329552	0.784561	0.666704
C61	C	0.988194	-0.038887	0.000058
C62	C	1.321527	0.294446	0.333391
C63	C	1.654860	0.627779	0.666725
C64	C	0.986548	-0.132133	0.000059
C65	C	1.319882	0.201201	0.333392
C66	C	1.653215	0.534534	0.666725
C67	C	0.903499	-0.346962	0.000041
C68	C	1.236832	-0.013629	0.333374
C69	C	1.570166	0.319705	0.666707
C70	C	0.942059	-0.407999	0.076084
C71	C	1.275392	-0.074666	0.409418
C72	C	1.608725	0.258668	0.742751
C73	C	0.983572	-0.302858	0.000051
C74	C	1.316905	0.030476	0.333385
C75	C	1.650238	0.363809	0.666718
C76	C	0.942089	-0.407969	-0.075968
C77	C	1.275422	-0.074635	0.257366
C78	C	1.608756	0.258698	0.590699
C79	C	0.980691	-0.467769	0.000040
C80	C	1.314024	-0.134436	0.333373
C81	C	1.647357	0.198897	0.666707
C82	C	1.022153	-0.362666	0.076158
C83	C	1.355487	-0.029333	0.409491
C84	C	1.688820	0.304000	0.742825
C85	C	1.022173	-0.362630	-0.075963
C86	C	1.355506	-0.029297	0.257371
C87	C	1.688839	0.304037	0.590704
C88	C	1.060790	-0.423649	0.000100
C89	C	1.394124	-0.090316	0.333433
C90	C	1.727457	0.243018	0.666766
C91	C	0.985229	-0.207856	0.000058
C92	C	1.318563	0.125477	0.333392
C93	C	1.651896	0.458811	0.666725
C94	C	0.979039	-0.562770	0.000040
C95	C	1.312373	-0.229437	0.333373
C96	C	1.645706	0.103897	0.666706
C97	C	1.134136	0.108510	0.000056
C98	C	1.467470	0.441843	0.333390
C99	C	1.800803	0.775176	0.666723
C100	C	1.226432	0.110141	0.000056
C101	C	1.559766	0.443475	0.333389
C102	C	1.893099	0.776808	0.666723
C103	C	0.976071	0.268254	0.000038
C104	C	1.309405	0.601588	0.333372
C105	C	1.642738	0.934921	0.666705
C106	C	0.977717	0.361500	0.000032
C107	C	1.311050	0.694833	0.333365
C108	C	1.644383	1.028166	0.666698
N109	N	0.982122	0.114663	0.219524
N110	N	1.315455	0.447997	0.552857
N111	N	1.648789	0.781330	0.886191
N112	N	0.982150	0.114697	-0.219426
N113	N	1.315483	0.448030	0.113908
N114	N	1.648816	0.781364	0.447241
C115	C	1.040699	0.054542	0.530960
C116	C	1.374033	0.387875	0.864294
C117	C	1.707366	0.721208	1.197627
C118	C	1.057513	0.130206	0.469120
C119	C	1.390847	0.463540	0.802453
C120	C	1.724180	0.796873	1.135786
C121	C	0.982141	0.114687	0.591413
C122	C	1.315474	0.448021	0.924746
C123	C	1.648807	0.781354	1.258080
C124	C	0.965356	0.039013	0.469160
C125	C	1.298690	0.372346	0.802493
C126	C	1.632023	0.705679	1.135826
C127	C	0.982134	0.114671	0.408692
C128	C	1.315467	0.448005	0.742025
C129	C	1.648800	0.781338	1.075358
C130	C	0.998992	0.190391	0.530933
C131	C	1.332326	0.523724	0.864267
C132	C	1.665659	0.857057	1.197600
C133	C	0.906802	0.099147	0.530979
C134	C	1.240136	0.432480	0.864312
C135	C	1.573469	0.765814	1.197645
C136	C	0.923585	0.174867	0.469166
C137	C	1.256918	0.508200	0.802499
C138	C	1.590252	0.841534	1.135833
C139	C	0.982147	0.114695	0.696674
C140	C	1.315480	0.448029	1.030007
C141	C	1.648813	0.781362	1.363341
C142	C	0.982127	0.114672	0.303433
C143	C	1.315460	0.448005	0.636766
C144	C	1.648794	0.781339	0.970099
H145	H	0.385495	0.252119	0.000046
H146	H	0.718828	0.585452	0.333379
H147	H	1.052161	0.918786	0.666713
H148	H	0.908216	-0.428029	-0.140261
H149	H	1.241549	-0.094695	0.193072
H150	H	1.574883	0.238638	0.526405
F151	F	0.551176	0.274240	0.000032
F152	F	0.884510	0.607574	0.333365
F153	F	1.217843	0.940907	0.666698
H154	H	1.013254	0.254396	0.557955
H155	H	1.346588	0.587730	0.891288
H156	H	1.679921	0.921063	1.224621
H157	H	0.843113	0.085979	0.558170
H158	H	1.176447	0.419313	0.891504
H159	H	1.509780	0.752646	1.224837
F160	F	1.105472	-0.011857	0.566427
F161	F	1.438805	0.321476	0.899761
F162	F	1.772139	0.654810	1.233094
F163	F	1.140781	0.147376	0.433584
F164	F	1.474115	0.480709	0.766917
F165	F	1.807448	0.814043	1.100251
H166	H	0.421446	-0.025546	0.000068
H167	H	0.754779	0.307788	0.333401
H168	H	1.088112	0.641121	0.666735
F169	F	1.147739	-0.467021	0.000158
F170	F	1.481072	-0.133687	0.333492
F171	F	1.814405	0.199646	0.666825
H172	H	0.578781	-0.022762	0.000058
H173	H	0.912114	0.310571	0.333392
H174	H	1.245448	0.643904	0.666725
F175	F	0.858851	0.241410	0.433920
F176	F	1.192184	0.574743	0.767254
F177	F	1.525517	0.908077	1.100587
H178	H	0.951163	-0.024978	0.442023
H179	H	1.284496	0.308355	0.775357
H180	H	1.617830	0.641689	1.108690
H181	H	0.837035	-0.313632	0.000112
H182	H	1.170368	0.019701	0.333446
H183	H	1.503702	0.353034	0.666779
H184	H	0.908186	-0.428102	0.140369
H185	H	1.241519	-0.094768	0.473703
H186	H	1.574853	0.238565	0.807036
H187	H	1.055988	-0.342693	0.140518
H188	H	1.389321	-0.009359	0.473851
H189	H	1.722654	0.323974	0.807184
H190	H	1.056016	-0.342505	-0.140251
H191	H	1.389349	-0.009172	0.193082
H192	H	1.722683	0.324162	0.526416
