data_functionalizedCrystal
_audit_creation_method	'MofGen! by Chris Wilmer'
_symmetry_space_group_name_H-M	'P1'
_symmetry_Int_Tables_number	1
_symmetry_cell_setting	triclinic
loop_
_symmetry_equiv_pos_as_xyz
  x,y,z
_cell_length_a	18.215407
_cell_length_b	14.909383
_cell_length_c	18.215399
_cell_angle_alpha	93.273811
_cell_angle_beta	89.982632
_cell_angle_gamma	86.723416
loop_
_atom_site_label
_atom_site_type_symbol
_atom_site_fract_x
_atom_site_fract_y
_atom_site_fract_z
Zn1	Zn	1.141995	-0.359196	-0.433005
Zn2	Zn	1.149011	-0.510051	-0.317053
Zn3	Zn	1.018929	-0.359218	-0.309959
Zn4	Zn	1.025998	-0.509993	-0.440080
O5	O	1.083983	-0.434614	-0.375024
O6	O	1.245911	-0.379223	-0.417632
O7	O	1.131733	-0.490076	-0.213129
O8	O	1.029359	-0.232982	-0.320352
O9	O	1.251065	-0.490055	-0.332442
O10	O	1.119775	-0.232966	-0.410754
O11	O	1.036162	-0.379259	-0.207917
O12	O	0.916882	-0.379203	-0.327212
O13	O	1.041408	-0.489956	-0.542124
O14	O	0.922076	-0.489977	-0.422811
O15	O	1.126631	-0.379166	-0.536927
O16	O	1.138588	-0.636276	-0.339302
O17	O	1.048211	-0.636233	-0.429690
C18	C	0.892776	-0.434587	-0.375010
C19	C	0.810977	-0.434596	-0.375023
C20	C	0.620104	-0.377005	-0.419461
C21	C	0.543246	-0.377013	-0.419464
C22	C	0.548616	-0.492249	-0.330602
C23	C	0.625473	-0.492236	-0.330596
C24	C	0.661215	-0.434615	-0.375029
C25	C	0.507500	-0.434636	-0.375038
C26	C	0.424167	-0.434645	-0.375041
C27	C	0.744553	-0.434605	-0.375026
C28	C	1.094948	-0.668985	-0.386049
C29	C	1.099706	-0.769250	-0.390791
C30	C	1.014582	-0.957829	-0.305478
C31	C	1.019051	-1.052036	-0.309931
C32	C	1.113114	-1.051875	-0.404144
C33	C	1.108646	-0.957668	-0.399691
C34	C	1.059378	-0.910647	-0.350358
C35	C	1.054906	-0.816438	-0.345909
C36	C	1.148973	-0.816279	-0.440118
C37	C	1.153441	-0.910486	-0.444571
C38	C	1.275938	-0.434643	-0.375039
C39	C	1.357737	-0.434655	-0.375045
C40	C	1.084025	-0.434552	-0.566974
C41	C	1.084043	-0.434526	-0.648772
C42	C	1.072996	-0.199328	-0.363972
C43	C	1.068314	-0.099063	-0.359263
C44	C	1.128433	-0.376784	-0.834258
C45	C	1.128440	-0.376757	-0.911116
C46	C	1.039699	-0.492128	-0.916517
C47	C	1.039688	-0.492149	-0.839661
C48	C	1.084059	-0.434478	-0.798533
C49	C	1.084078	-0.434431	-0.952247
C50	C	1.084086	-0.434403	-1.035580
C51	C	1.084051	-0.434505	-0.715196
C52	C	1.083981	-0.434611	-0.183818
C53	C	1.084094	-0.434384	-0.102009
H54	H	0.519505	-0.539163	-0.294426
H55	H	0.658946	-0.539150	-0.294410
C56	C	1.000716	-0.764717	-0.291644
H57	H	0.974683	-0.806312	-0.265549
H58	H	0.966888	-0.727975	-0.318026
H59	H	1.027151	-0.727965	-0.257866
C60	C	0.960387	-0.906104	-0.251220
H61	H	0.934349	-0.947697	-0.225127
H62	H	0.926565	-0.869362	-0.277609
H63	H	0.986818	-0.869352	-0.217439
H64	H	0.649203	-0.330084	-0.455639
C65	C	0.990876	-0.555614	-0.800357
H66	H	0.997219	-0.547358	-0.748694
H67	H	1.004476	-0.616223	-0.815796
H68	H	0.940811	-0.542396	-0.812325
H69	H	0.982574	-1.090448	-0.273385
H70	H	1.153231	-1.090175	-0.444303
C71	C	0.498027	-0.313646	-0.468342
H72	H	0.530324	-0.279335	-0.494807
H73	H	0.466189	-0.274300	-0.438397
H74	H	0.469679	-0.348214	-0.501992
H75	H	1.164561	-0.329822	-0.800774
C76	C	1.207628	-0.962213	-0.498836
H77	H	1.203871	-1.025078	-0.495065
H78	H	1.256349	-0.946735	-0.487387
H79	H	1.196082	-0.946747	-0.547543
H80	H	1.003575	-0.539084	-0.950013
C81	C	1.198254	-0.764382	-0.489486
H82	H	1.228231	-0.805881	-0.519506
H83	H	1.228592	-0.727620	-0.459628
H84	H	1.168335	-0.727637	-0.519793
H85	H	1.164573	-0.329775	-0.940199
