data_functionalizedCrystal
_audit_creation_method	'MofGen! by Chris Wilmer'
_symmetry_space_group_name_H-M	'P1'
_symmetry_Int_Tables_number	1
_symmetry_cell_setting	triclinic
loop_
_symmetry_equiv_pos_as_xyz
  x,y,z
_cell_length_a	11.169416
_cell_length_b	11.169417
_cell_length_c	12.759393
_cell_angle_alpha	89.983089
_cell_angle_beta	89.971151
_cell_angle_gamma	90.011589
loop_
_atom_site_label
_atom_site_type_symbol
_atom_site_fract_x
_atom_site_fract_y
_atom_site_fract_z
Zn1	Zn	-0.477694	1.834931	-0.593990
Zn2	Zn	0.022306	2.334931	-0.093990
Zn3	Zn	-0.678427	1.834830	-0.418319
Zn4	Zn	-0.178427	2.334830	0.081681
Zn5	Zn	-0.477761	1.634226	-0.418330
Zn6	Zn	0.022239	2.134226	0.081670
Zn7	Zn	-0.678338	1.634225	-0.593962
Zn8	Zn	-0.178338	2.134225	-0.093962
O9	O	-0.578055	1.734553	-0.506150
O10	O	-0.078055	2.234553	-0.006150
O11	O	-0.504331	2.002868	-0.570693
O12	O	-0.004331	2.502868	-0.070693
O13	O	-0.651874	1.808178	-0.271299
O14	O	-0.151874	2.308178	0.228701
O15	O	-0.309803	1.660894	-0.441649
O16	O	0.190197	2.160894	0.058351
O17	O	-0.651809	2.002793	-0.441629
O18	O	-0.151809	2.502793	0.058371
O19	O	-0.309753	1.808351	-0.570705
O20	O	0.190247	2.308351	-0.070705
O21	O	-0.504446	1.660795	-0.271308
O22	O	-0.004446	2.160795	0.228692
O23	O	-0.504359	1.466277	-0.441621
O24	O	-0.004359	1.966277	0.058379
O25	O	-0.651657	1.660891	-0.740986
O26	O	-0.151657	2.160891	-0.240986
O27	O	-0.651722	1.466275	-0.570657
O28	O	-0.151722	1.966275	-0.070657
O29	O	-0.504244	1.808349	-0.741007
O30	O	-0.004244	2.308349	-0.241007
O31	O	-0.846365	1.808176	-0.441601
O32	O	-0.346365	2.308176	0.058399
O33	O	-0.846300	1.660792	-0.570645
O34	O	-0.346300	2.160792	-0.070645
C35	C	-0.578039	1.422729	-0.506138
C36	C	-0.078039	1.922729	-0.006138
C37	C	-0.578061	1.289329	-0.506158
C38	C	-0.078061	1.789329	-0.006158
C39	C	-0.889880	1.734506	-0.506142
C40	C	-0.389880	2.234506	-0.006142
C41	C	-1.023280	1.734595	-0.506174
C42	C	-0.523280	2.234595	-0.006174
C43	C	-0.265013	1.734634	-0.506181
C44	C	0.234987	2.234634	-0.006181
C45	C	-0.131613	1.734668	-0.506194
C46	C	0.368387	2.234668	-0.006194
C47	C	-0.577933	1.734631	-0.780183
C48	C	-0.077933	2.234631	-0.280183
C49	C	-0.577881	1.734664	-0.896960
C50	C	-0.077881	2.234664	-0.396960
C51	C	-0.578072	2.047596	-0.506163
C52	C	-0.078072	2.547596	-0.006163
C53	C	-0.578080	2.180995	-0.506168
C54	C	-0.078080	2.680995	-0.006168
C55	C	-0.501101	1.657955	-0.951833
C56	C	-0.001101	2.157955	-0.451833
C57	C	-0.501065	1.657991	-1.061557
C58	C	-0.001065	2.157991	-0.561557
C59	C	-0.654593	1.811457	-1.061526
C60	C	-0.154593	2.311457	-0.561526
C61	C	-0.654634	1.811414	-0.951804
C62	C	-0.154634	2.311414	-0.451804
C63	C	-0.412459	1.569356	-0.951851
C64	C	0.087541	2.069356	-0.451851
C65	C	-0.412423	1.569392	-1.061576
C66	C	0.087577	2.069392	-0.561576
C67	C	-0.578090	1.734545	-0.233183
C68	C	-0.078090	2.234545	0.266817
C69	C	-0.577804	1.734744	-0.116407
C70	C	-0.077804	2.234744	0.383593
H71	H	-0.717173	1.873860	-0.907131
H72	H	-0.217173	2.373860	-0.407131
O73	O	-0.452317	1.464156	-1.102222
O74	O	0.047683	1.964156	-0.602222
C75	C	-0.554439	1.485549	-1.164372
C76	C	-0.054439	1.985549	-0.664372
H77	H	-0.598579	1.572774	-1.138722
H78	H	-0.098579	2.072774	-0.638722
H79	H	-0.620477	1.408534	-1.154465
H80	H	-0.120477	1.908534	-0.654465
H81	H	-0.526840	1.492638	-1.250183
H82	H	-0.026840	1.992638	-0.750183
H83	H	-0.319456	1.594308	-1.091368
H84	H	0.180544	2.094308	-0.591368
H85	H	-0.437351	1.476383	-0.922076
H86	H	0.062649	1.976383	-0.422076
O87	O	-0.728969	1.886142	-1.114850
O88	O	-0.228969	2.386142	-0.614850
C89	C	-0.660625	1.963681	-1.178348
C90	C	-0.160625	2.463681	-0.678348
H91	H	-0.566110	1.971108	-1.145300
H92	H	-0.066110	2.471108	-0.645300
H93	H	-0.704038	2.056033	-1.179582
H94	H	-0.204038	2.556033	-0.679582
H95	H	-0.656461	1.926606	-1.261506
H96	H	-0.156461	2.426606	-0.761506
H97	H	-0.324179	1.602665	-0.917831
H98	H	0.175821	2.102665	-0.417831
