data_functionalizedCrystal
_audit_creation_method	'MofGen! by Chris Wilmer'
_symmetry_space_group_name_H-M	'P1'
_symmetry_Int_Tables_number	1
_symmetry_cell_setting	triclinic
loop_
_symmetry_equiv_pos_as_xyz
  x,y,z
_cell_length_a	6.394989
_cell_length_b	19.288865
_cell_length_c	18.366186
_cell_angle_alpha	90.011479
_cell_angle_beta	90.008475
_cell_angle_gamma	84.816979
loop_
_atom_site_label
_atom_site_type_symbol
_atom_site_fract_x
_atom_site_fract_y
_atom_site_fract_z
O1	O	-2.770438	-0.113783	-0.060553
O2	O	-2.162255	-0.119515	-0.060557
O3	O	-2.483920	-0.015691	-0.060540
O4	O	-2.448773	-0.217607	-0.060570
O5	O	-2.483866	-0.015685	0.060559
O6	O	-2.162201	-0.119509	0.060543
O7	O	-2.770383	-0.113777	0.060546
Zn8	Zn	-2.466283	-0.116642	0.079772
Zn9	Zn	-2.466355	-0.116650	-0.079782
O10	O	-2.448718	-0.217601	0.060530
C11	C	-2.482762	0.010200	0.000011
C12	C	-2.479367	0.087336	0.000018
C13	C	-2.449877	-0.243492	-0.000024
C14	C	-2.453271	-0.320629	-0.000035
N15	N	-2.466250	-0.116637	0.188663
C16	C	-2.084417	-0.118379	-0.000003
C17	C	-1.848215	-0.114915	0.000000
N18	N	-2.466406	-0.116650	-0.188673
C19	C	-2.668105	0.130184	0.000022
C20	C	-2.664916	0.202663	0.000011
C21	C	-2.472977	0.232290	0.000009
C22	C	-2.284214	0.189433	0.000001
C23	C	-2.287409	0.116956	0.000005
C24	C	-2.322072	0.342057	0.042427
C25	C	-2.318886	0.414533	0.042427
C26	C	-2.463116	0.455832	-0.000007
C27	C	-2.610569	0.424648	-0.042432
C28	C	-2.613764	0.352171	-0.042428
C29	C	-2.469492	0.310878	0.000004
C30	C	-2.648409	0.577270	-0.000016
C31	C	-2.645212	0.649749	-0.000032
C32	C	-2.264505	0.636517	-0.000035
C33	C	-2.267707	0.564040	-0.000026
C34	C	-2.459665	0.534420	-0.000013
C35	C	-2.608729	-0.070687	0.226770
C36	C	-2.608742	-0.070684	0.302998
C37	C	-2.466296	-0.116643	0.341115
C38	C	-2.323790	-0.162596	0.302999
C39	C	-2.323767	-0.162593	0.226772
C40	C	-2.438337	-0.179657	0.461867
C41	C	-2.438375	-0.179661	0.538091
C42	C	-2.466355	-0.116652	0.576223
C43	C	-2.494343	-0.053637	0.538120
C44	C	-2.494319	-0.053634	0.461894
C45	C	-2.466304	-0.116651	0.423770
C46	C	-2.608857	-0.070695	0.696985
C47	C	-2.608856	-0.070691	0.773215
C48	C	-2.323913	-0.162610	0.773214
C49	C	-2.323904	-0.162607	0.696986
C50	C	-2.466387	-0.116651	0.658876
H51	H	-2.824412	0.106073	0.000031
C52	C	-2.079784	0.069819	0.000005
C53	C	-2.029658	0.018156	-0.062873
C54	C	-1.822030	-0.028982	-0.062871
C55	C	-1.664528	-0.024458	0.000011
C56	C	-1.714649	0.027207	0.062894
C57	C	-1.922277	0.074345	0.062891
H58	H	-2.146255	0.014805	-0.109426
H59	H	-1.784928	-0.067228	-0.109421
H60	H	-1.510829	-0.059353	0.000013
H61	H	-1.598053	0.030558	0.109447
H62	H	-1.959379	0.112591	0.109442
H63	H	-2.415599	-0.230972	0.569109
H64	H	-2.724870	-0.033273	0.665955
H65	H	-2.724873	-0.033270	0.804243
C66	C	-2.156689	0.448832	0.089090
C67	C	-1.998004	0.403407	0.135753
C68	C	-1.835798	0.437704	0.182416
C69	C	-1.832278	0.517425	0.182415
C70	C	-1.990969	0.562855	0.135751
C71	C	-2.153174	0.528558	0.089088
H72	H	-2.000604	0.344388	0.135755
H73	H	-1.718325	0.404074	0.216960
H74	H	-1.712204	0.542814	0.216958
H75	H	-1.988369	0.621873	0.135749
H76	H	-2.270648	0.562188	0.054544
H77	H	-2.415516	-0.230969	0.430826
C78	C	-2.163408	0.296629	0.089107
C79	C	-1.926127	0.298359	0.075940
C80	C	-1.767467	0.252931	0.122616
C81	C	-1.846089	0.205773	0.182459
C82	C	-2.083382	0.204041	0.195628
C83	C	-2.242042	0.249469	0.148952
H84	H	-1.867915	0.333270	0.031639
H85	H	-1.591807	0.254213	0.112867
H86	H	-1.728640	0.172144	0.217011
H87	H	-2.141593	0.169130	0.239930
H88	H	-2.417702	0.248187	0.158701
C89	C	-2.775928	0.317867	-0.089100
C90	C	-2.934584	0.363284	-0.135782
C91	C	-3.096741	0.328979	-0.182458
C92	C	-3.100242	0.249257	-0.182454
C93	C	-2.941581	0.203835	-0.135771
C94	C	-2.779424	0.238140	-0.089094
H95	H	-2.931997	0.422303	-0.135787
H96	H	-3.214193	0.362604	-0.217016
H97	H	-3.220281	0.223863	-0.217006
H98	H	-2.944167	0.144816	-0.135766
H99	H	-2.661972	0.204515	-0.054536
H100	H	-2.207740	-0.200011	0.195744
C101	C	-2.765491	-0.020140	0.344927
C102	C	-2.922272	0.030387	0.303006
C103	C	-3.079024	0.080930	0.344931
C104	C	-3.078995	0.080947	0.428777
C105	C	-2.922209	0.030419	0.470703
C106	C	-2.765457	-0.020125	0.428777
H107	H	-2.922299	0.030376	0.240934
H108	H	-3.195087	0.118335	0.313895
H109	H	-3.195032	0.118362	0.459813
H110	H	-2.922182	0.030429	0.532775
H111	H	-2.649393	-0.057529	0.459814
C112	C	-2.167098	-0.213153	0.344923
C113	C	-2.167215	-0.213194	0.428769
C114	C	-2.010509	-0.263751	0.470693
C115	C	-1.853687	-0.314266	0.428770
C116	C	-1.853564	-0.314227	0.344919
C117	C	-2.010270	-0.263670	0.302996
H118	H	-2.283309	-0.175798	0.459807
H119	H	-2.010601	-0.263779	0.532765
H120	H	-1.737684	-0.351691	0.459804
H121	H	-1.737470	-0.351623	0.313882
H122	H	-2.010179	-0.263641	0.240924
H123	H	-2.818614	0.237556	0.000012
H124	H	-2.728014	0.458273	-0.076986
H125	H	-2.207922	-0.200027	0.804248
H126	H	-2.108225	0.660639	-0.000040
H127	H	-2.517126	-0.002329	0.569165
C128	C	-2.525062	0.015678	0.419980
C129	C	-2.555829	0.084991	0.461912
C130	C	-2.586555	0.154304	0.419998
C131	C	-2.586513	0.154305	0.336152
C132	C	-2.555745	0.084989	0.294215
C133	C	-2.525020	0.015676	0.336129
H134	H	-2.555861	0.084993	0.523984
H135	H	-2.609331	0.205616	0.451042
H136	H	-2.609258	0.205614	0.305124
H137	H	-2.555714	0.084987	0.232143
H138	H	-2.502244	-0.035636	0.305084
H139	H	-2.804712	0.553152	-0.000009
C140	C	-2.852841	0.696884	-0.000026
C141	C	-2.902949	0.748546	0.062854
C142	C	-3.110583	0.795682	0.062860
C143	C	-3.268109	0.791154	-0.000013
C144	C	-3.218006	0.739490	-0.062898
C145	C	-3.010372	0.692354	-0.062904
H146	H	-2.786335	0.751900	0.109401
H147	H	-3.147672	0.833927	0.109412
H148	H	-3.421813	0.826047	-0.000008
H149	H	-3.334620	0.736136	-0.109445
H150	H	-2.973283	0.654109	-0.109456
H151	H	-2.114016	0.529152	-0.000026
H152	H	-2.127937	0.213560	-0.000002
H153	H	-2.724742	-0.033265	0.195744
H154	H	-2.207892	-0.200027	0.665957
