data_functionalizedCrystal
_audit_creation_method	'MofGen! by Chris Wilmer'
_symmetry_space_group_name_H-M	'P1'
_symmetry_Int_Tables_number	1
_symmetry_cell_setting	triclinic
loop_
_symmetry_equiv_pos_as_xyz
  x,y,z
_cell_length_a	12.759401
_cell_length_b	16.959453
_cell_length_c	12.759393
_cell_angle_alpha	90.034523
_cell_angle_beta	90.019211
_cell_angle_gamma	90.020414
loop_
_atom_site_label
_atom_site_type_symbol
_atom_site_fract_x
_atom_site_fract_y
_atom_site_fract_z
Zn1	Zn	1.606223	-0.314630	0.593959
Zn2	Zn	1.606099	-0.446830	0.418269
Zn3	Zn	1.430523	-0.314671	0.418298
Zn4	Zn	1.430497	-0.446771	0.593910
O5	O	1.518336	-0.380726	0.506109
O6	O	1.753228	-0.332174	0.570662
O7	O	1.582768	-0.429341	0.271252
O8	O	1.453893	-0.204054	0.441633
O9	O	1.753137	-0.429301	0.441583
O10	O	1.582979	-0.204025	0.570691
O11	O	1.453773	-0.332244	0.271273
O12	O	1.283499	-0.332187	0.441585
O13	O	1.453849	-0.429201	0.740938
O14	O	1.283480	-0.429240	0.570606
O15	O	1.582954	-0.332117	0.740974
O16	O	1.582743	-0.557433	0.441535
O17	O	1.453729	-0.557390	0.570578
C18	C	1.245368	-0.380712	0.506094
C19	C	1.128592	-0.380725	0.506113
C20	C	1.073778	-0.330243	0.573428
C21	C	0.964054	-0.330251	0.573435
C22	C	0.963967	-0.431231	0.438809
C23	C	1.073689	-0.431218	0.438797
C24	C	1.518248	-0.586092	0.506071
C25	C	1.518307	-0.673949	0.506089
C26	C	1.585637	-1.045350	0.573436
C27	C	1.451328	-1.045498	0.438938
C28	C	1.451289	-0.962952	0.438914
C29	C	1.518424	-0.921601	0.506153
C30	C	1.585598	-0.962796	0.573416
C31	C	1.384109	-0.921751	0.371660
C32	C	1.384067	-0.839200	0.371634
C33	C	1.451207	-0.797848	0.438868
C34	C	1.518385	-0.839048	0.506133
C35	C	1.585520	-0.797697	0.573372
C36	C	1.652703	-0.838896	0.640633
C37	C	1.652739	-0.921444	0.640651
C38	C	1.451172	-0.715299	0.438850
C39	C	1.585480	-0.715144	0.573353
C40	C	1.792369	-0.380740	0.506125
C41	C	1.909146	-0.380746	0.506131
C42	C	1.518412	-0.380648	0.780143
C43	C	1.518445	-0.380615	0.896919
C44	C	1.518452	-0.174557	0.506171
C45	C	1.518502	-0.086701	0.506197
C46	C	1.518320	-0.380746	0.233142
C47	C	1.518491	-0.380557	0.116366
C48	C	1.585696	-0.330025	1.061533
C49	C	1.585676	-0.330056	0.951809
C50	C	1.451236	-0.431152	0.951760
C51	C	1.451263	-0.431124	1.061482
H52	H	0.919252	-0.472341	0.384004
C53	C	1.377279	-0.486766	0.891377
N54	N	1.321569	-0.528652	0.845898
C55	C	1.726628	-0.966768	0.714637
N56	N	1.782277	-1.000910	0.770365
H57	H	0.919429	-0.289141	0.628248
C58	C	1.377326	-0.486715	1.121801
N59	N	1.321640	-0.528584	1.167234
C60	C	1.133988	-0.486756	0.364741
N61	N	1.179405	-0.528583	0.308963
H62	H	1.396467	-0.681759	0.384093
C63	C	1.377566	-1.090987	0.364898
N64	N	1.322037	-1.125252	0.309096
C65	C	1.659340	-0.669664	0.647319
N66	N	1.714971	-0.635410	0.703030
C67	C	1.134166	-0.274692	0.647468
N68	N	1.179648	-0.232847	0.703233
H69	H	1.707360	-0.805218	0.695384
H70	H	1.640339	-1.078897	0.628195
C71	C	1.310390	-0.967242	0.297578
N72	N	1.254910	-1.001509	0.241730
C73	C	1.310155	-0.793889	0.297655
N74	N	1.254482	-0.759760	0.241936
C75	C	1.659657	-0.274406	1.121902
N76	N	1.715371	-0.232514	1.167368
H77	H	1.640402	-0.288909	0.907169
