data_functionalizedCrystal
_audit_creation_method	'MofGen! by Chris Wilmer'
_symmetry_space_group_name_H-M	'P1'
_symmetry_Int_Tables_number	1
_symmetry_cell_setting	triclinic
loop_
_symmetry_equiv_pos_as_xyz
  x,y,z
_cell_length_a	19.121063
_cell_length_b	16.959455
_cell_length_c	16.959447
_cell_angle_alpha	90.015228
_cell_angle_beta	92.406624
_cell_angle_gamma	87.536243
loop_
_atom_site_label
_atom_site_type_symbol
_atom_site_fract_x
_atom_site_fract_y
_atom_site_fract_z
Zn1	Zn	-0.279697	-1.194913	-0.460333
Zn2	Zn	-0.397157	-1.189178	-0.333783
Zn3	Zn	-0.279714	-1.062741	-0.328169
Zn4	Zn	-0.397100	-1.057052	-0.465917
O5	O	-0.338417	-1.125971	-0.397050
O6	O	-0.295294	-1.304762	-0.443558
O7	O	-0.381609	-1.172387	-0.222429
O8	O	-0.181428	-1.085054	-0.341014
O9	O	-0.381592	-1.300549	-0.350583
O10	O	-0.181415	-1.182161	-0.438114
O11	O	-0.295324	-1.079494	-0.218304
O12	O	-0.295269	-0.951376	-0.346429
O13	O	-0.381495	-1.075358	-0.575786
O14	O	-0.381512	-0.947196	-0.447632
O15	O	-0.295239	-1.176645	-0.571683
O16	O	-0.495433	-1.166871	-0.355998
O17	O	-0.495392	-1.069798	-0.453076
C18	C	-0.338387	-0.920606	-0.397028
C19	C	-0.338391	-0.832749	-0.397037
C20	C	-0.293451	-0.463427	-0.344446
C21	C	-0.383396	-0.459117	-0.449680
C22	C	-0.383389	-0.541663	-0.449676
C23	C	-0.338413	-0.585095	-0.397055
C24	C	-0.293444	-0.545981	-0.344439
C25	C	-0.428361	-0.580783	-0.502286
C26	C	-0.428356	-0.663335	-0.502283
C27	C	-0.383376	-0.706768	-0.449666
C28	C	-0.338405	-0.667649	-0.397048
C29	C	-0.293429	-0.711081	-0.344428
C30	C	-0.248454	-0.671964	-0.291813
C31	C	-0.248464	-0.589415	-0.291822
C32	C	-0.383367	-0.789317	-0.449658
C33	C	-0.293422	-0.793635	-0.344421
C34	C	-0.520897	-1.117116	-0.405770
C35	C	-0.598962	-1.113400	-0.409526
C36	C	-0.635636	-1.162234	-0.360790
C37	C	-0.708987	-1.158744	-0.364327
C38	C	-0.745662	-1.106416	-0.416598
C39	C	-0.708983	-1.057579	-0.465340
C40	C	-0.635634	-1.061074	-0.461806
C41	C	-0.967131	-1.093337	-0.429799
C42	C	-1.040485	-1.089845	-0.433328
C43	C	-1.040484	-1.191011	-0.332316
C44	C	-0.967133	-1.194498	-0.328783
C45	C	-0.930460	-1.145665	-0.377528
C46	C	-0.820639	-1.102845	-0.420214
C47	C	-0.855485	-1.149240	-0.373916
C48	C	-0.155225	-1.134882	-0.388314
C49	C	-0.077159	-1.138679	-0.384592
C50	C	-0.338359	-1.126007	-0.603216
C51	C	-0.338334	-1.126022	-0.691071
C52	C	-0.338439	-0.332138	-0.397069
C53	C	-0.338427	-0.419995	-0.397066
C54	C	-0.383169	-1.073385	-1.064682
C55	C	-0.293351	-1.178855	-1.060405
C56	C	-0.293365	-1.178833	-0.977860
C57	C	-0.338284	-1.126087	-0.938722
C58	C	-0.383187	-1.073363	-0.982130
C59	C	-0.248468	-1.231562	-0.934446
C60	C	-0.248481	-1.231543	-0.851896
C61	C	-0.293397	-1.178792	-0.812757
C62	C	-0.338301	-1.126065	-0.856169
C63	C	-0.383220	-1.073319	-0.817032
C64	C	-0.428121	-1.020588	-0.860443
C65	C	-0.428102	-1.020612	-0.942990
C66	C	-0.293416	-1.178768	-0.730209
C67	C	-0.383237	-1.073298	-0.734479
C68	C	-0.338424	-1.125983	-0.191685
C69	C	-0.338251	-1.126131	-0.103820
H70	H	-0.211838	-0.707337	-0.248967
C71	C	-0.243939	-1.236867	-1.103459
N72	N	-0.206716	-1.280560	-1.135891
H73	H	-0.825622	-1.191849	-0.331360
H74	H	-0.211919	-1.274479	-0.816558
C75	C	-0.926800	-1.039659	-0.483461
N76	N	-0.896421	-0.999241	-0.523897
C77	C	-0.432836	-0.832343	-0.507530
N78	N	-0.470098	-0.864749	-0.551125
H79	H	-0.420017	-0.423750	-0.492516
H80	H	-0.211902	-1.274509	-0.966319
C81	C	-0.595299	-1.219799	-0.303285
N82	N	-0.564920	-1.263160	-0.259973
H83	H	-0.605775	-1.021309	-0.501493
H84	H	-0.211848	-0.557558	-0.248985
H85	H	-1.070350	-1.230770	-0.292632
C86	C	-0.244028	-1.236769	-0.682461
N87	N	-0.206824	-1.280458	-0.646498
C88	C	-0.243980	-0.420398	-0.286573
N89	N	-0.206719	-0.387987	-0.242983
H90	H	-0.738843	-1.198510	-0.324640
H91	H	-0.937273	-1.237108	-0.286220
H92	H	-0.464978	-0.695177	-0.545126
C93	C	-0.243944	-0.841404	-0.286533
N94	N	-0.206677	-0.877383	-0.242931
C95	C	-1.080827	-1.032282	-0.490838
N96	N	-1.111213	-0.988928	-0.534153
H97	H	-0.464983	-0.545415	-0.545121
H98	H	-0.738851	-1.014976	-0.507904
C99	C	-0.432651	-1.015270	-0.691434
N100	N	-0.469870	-0.971564	-0.659014
C101	C	-0.477530	-0.962569	-0.817381
N102	N	-0.514742	-0.918870	-0.784943
H103	H	-0.850508	-1.060237	-0.462771
H104	H	-0.464661	-0.977684	-0.978343
C105	C	-0.432554	-1.015378	-1.112434
N106	N	-0.469749	-0.971685	-1.148402
