data_functionalizedCrystal
_audit_creation_method	'MofGen! by Chris Wilmer'
_symmetry_space_group_name_H-M	'P1'
_symmetry_Int_Tables_number	1
_symmetry_cell_setting	triclinic
loop_
_symmetry_equiv_pos_as_xyz
  x,y,z
_cell_length_a	12.594517
_cell_length_b	12.594516
_cell_length_c	12.594510
_cell_angle_alpha	89.968094
_cell_angle_beta	89.977213
_cell_angle_gamma	90.015853
loop_
_atom_site_label
_atom_site_type_symbol
_atom_site_fract_x
_atom_site_fract_y
_atom_site_fract_z
Zn1	Zn	1.627282	-0.423656	-0.601875
Zn2	Zn	2.127282	0.076344	-0.101875
Zn3	Zn	1.627169	-0.601684	-0.423903
Zn4	Zn	2.127169	-0.101684	0.076097
Zn5	Zn	1.449282	-0.423719	-0.423904
Zn6	Zn	1.949282	0.076281	0.076096
Zn7	Zn	1.449268	-0.601592	-0.601833
Zn8	Zn	1.949268	-0.101592	-0.101833
O9	O	1.538250	-0.512663	-0.512879
O10	O	2.038250	-0.012663	-0.012879
O11	O	1.776213	-0.447283	-0.578284
O12	O	2.276213	0.052717	-0.078284
O13	O	1.603530	-0.578141	-0.274957
O14	O	2.103530	-0.078141	0.225043
O15	O	1.472947	-0.274765	-0.447530
O16	O	1.972947	0.225235	0.052470
O17	O	1.776129	-0.578080	-0.447528
O18	O	2.276129	-0.078080	0.052472
O19	O	1.603723	-0.274718	-0.578285
O20	O	2.103723	0.225282	-0.078285
O21	O	1.472837	-0.447391	-0.274958
O22	O	1.972837	0.052609	0.225042
O23	O	1.300334	-0.447302	-0.447489
O24	O	1.800334	0.052698	0.052511
O25	O	1.472924	-0.577924	-0.750784
O26	O	1.972924	-0.077924	-0.250784
O27	O	1.300324	-0.577985	-0.578213
O28	O	1.800324	-0.077985	-0.078213
O29	O	1.603710	-0.447195	-0.750815
O30	O	2.103710	0.052805	-0.250815
O31	O	1.603517	-0.750617	-0.447488
O32	O	2.103517	-0.250617	0.052512
O33	O	1.472814	-0.750550	-0.578212
O34	O	1.972814	-0.250550	-0.078212
C35	C	1.261709	-0.512641	-0.512847
C36	C	1.761709	-0.012641	-0.012847
C37	C	1.143404	-0.512658	-0.512859
C38	C	1.643404	-0.012658	-0.012859
C39	C	1.074125	-0.441482	-0.441894
C40	C	1.574125	0.058518	0.058106
C41	C	1.003313	-0.538574	-0.415718
C42	C	1.503313	-0.038574	0.084282
C43	C	1.003417	-0.415614	-0.539054
C44	C	1.503417	0.084386	-0.039054
C45	C	1.074150	-0.609800	-0.486632
C46	C	1.574150	-0.109800	0.013368
C47	C	1.074260	-0.486775	-0.610013
C48	C	1.574260	0.013225	-0.110013
C49	C	1.003480	-0.583933	-0.583874
C50	C	1.503480	-0.083933	-0.083874
C51	C	1.538180	-0.789204	-0.512868
C52	C	2.038180	-0.289204	-0.012868
C53	C	1.538248	-0.907509	-0.512899
C54	C	2.038248	-0.407509	-0.012899
C55	C	1.467152	-0.976764	-0.583950
C56	C	1.967152	-0.476764	-0.083950
C57	C	1.441216	-1.047639	-0.486827
C58	C	1.941216	-0.547639	0.013173
C59	C	1.564281	-1.047433	-0.610039
C60	C	2.064281	-0.547433	-0.110039
C61	C	1.512261	-0.976826	-0.415725
C62	C	2.012261	-0.476826	0.084275
C63	C	1.635371	-0.976613	-0.539002
C64	C	2.135371	-0.476613	-0.039002
C65	C	1.609472	-1.047456	-0.441812
C66	C	2.109472	-0.547456	0.058188
C67	C	1.815871	-0.512685	-0.512911
C68	C	2.315871	-0.012685	-0.012911
C69	C	1.934177	-0.512694	-0.512924
C70	C	2.434177	-0.012694	-0.012924
C71	C	1.538329	-0.512542	-0.790500
C72	C	2.038329	-0.012542	-0.290500
C73	C	1.538362	-0.512490	-0.908805
C74	C	2.038362	-0.012490	-0.408805
C75	C	1.538349	-0.235042	-0.512912
C76	C	2.038349	0.264958	-0.012912
C77	C	1.538391	-0.116736	-0.512927
C78	C	2.038391	0.383264	-0.012927
C79	C	1.609522	-0.441365	-1.048839
C80	C	2.109522	0.058635	-0.548839
C81	C	1.635509	-0.538486	-0.978022
C82	C	2.135509	-0.038486	-0.478022
C83	C	1.512422	-0.415381	-0.978051
C84	C	2.012422	0.084619	-0.478051
C85	C	1.564444	-0.609630	-1.048774
C86	C	2.064444	-0.109630	-0.548774
C87	C	1.441312	-0.486459	-1.048809
C88	C	1.941312	0.013541	-0.548809
C89	C	1.467262	-0.583646	-0.978024
C90	C	1.967262	-0.083646	-0.478024
C91	C	1.538233	-0.512706	-0.236338
C92	C	2.038233	-0.012706	0.263662
C93	C	1.538406	-0.512458	-0.118033
C94	C	2.038406	-0.012458	0.381967
H95	H	0.972290	-0.333541	-0.561146
H96	H	1.472290	0.166459	-0.061146
N97	N	1.591824	-1.086363	-0.713074
N98	N	2.091824	-0.586363	-0.213074
N99	N	1.528482	-1.144441	-0.762685
N100	N	2.028482	-0.644441	-0.262685
H101	H	1.547925	-1.171935	-0.835455
H102	H	2.047925	-0.671935	-0.335455
N103	N	1.113050	-0.366033	-0.366539
N104	N	1.613050	0.133967	0.133461
N105	N	1.089105	-0.270131	-0.375437
N106	N	1.589105	0.229869	0.124563
H107	H	1.116597	-0.216847	-0.322217
H108	H	1.616597	0.283153	0.177783
H109	H	1.105446	-0.464830	-0.692122
H110	H	1.605446	0.035170	-0.192122
H111	H	1.669657	-1.078300	-0.381669
H112	H	2.169657	-0.578300	0.118331
H113	H	0.972152	-0.560489	-0.333584
H114	H	1.472152	-0.060489	0.166416
H115	H	1.407103	-0.643850	-0.947128
H116	H	1.907103	-0.143850	-0.447128
H117	H	1.406921	-0.945723	-0.643949
H118	H	1.906921	-0.445723	-0.143949
N119	N	1.738478	-0.566109	-0.938983
N120	N	2.238478	-0.066109	-0.438983
N121	N	1.750035	-0.646698	-0.882185
N122	N	2.250035	-0.146698	-0.382185
H123	H	1.822758	-0.666202	-0.854615
H124	H	2.322758	-0.166202	-0.354615
H125	H	1.359148	-1.078860	-0.464772
H126	H	1.859148	-0.578860	0.035228
H127	H	1.105091	-0.691908	-0.464413
H128	H	1.605091	-0.191908	0.035587
N129	N	0.964820	-0.659553	-0.659192
N130	N	1.464820	-0.159553	-0.159192
N131	N	0.987714	-0.755612	-0.649281
N132	N	1.487714	-0.255612	-0.149281
H133	H	0.960410	-0.809023	-0.702471
H134	H	1.460410	-0.309023	-0.202471
H135	H	1.359244	-0.464418	-1.079928
H136	H	1.859244	0.035582	-0.579928
N137	N	1.484578	-0.938071	-0.312662
N138	N	1.984578	-0.438071	0.187338
N139	N	1.480003	-0.840344	-0.296029
N140	N	1.980003	-0.340344	0.203971
H141	H	1.460443	-0.812969	-0.223245
H142	H	1.960443	-0.312969	0.276755
N143	N	1.592127	-0.712658	-1.087591
N144	N	2.092127	-0.212658	-0.587591
N145	N	1.672330	-0.724155	-1.144930
N146	N	2.172330	-0.224155	-0.644930
H147	H	1.691884	-0.796916	-1.172348
H148	H	2.191884	-0.296916	-0.672348
N149	N	1.685038	-0.366009	-1.087836
N150	N	2.185038	0.133991	-0.587836
N151	N	1.739448	-0.312808	-1.024162
N152	N	2.239448	0.187192	-0.524162
H153	H	1.792783	-0.259590	-1.051702
H154	H	2.292783	0.240410	-0.551702
H155	H	1.717420	-0.945395	-0.561104
H156	H	2.217420	-0.445395	-0.061104
H157	H	1.490464	-0.333270	-0.946982
H158	H	1.990464	0.166730	-0.446982
