data_functionalizedCrystal
_audit_creation_method	'MofGen! by Chris Wilmer'
_symmetry_space_group_name_H-M	'P1'
_symmetry_Int_Tables_number	1
_symmetry_cell_setting	triclinic
loop_
_symmetry_equiv_pos_as_xyz
  x,y,z
_cell_length_a	15.944564
_cell_length_b	14.421503
_cell_length_c	10.654549
_cell_angle_alpha	89.994683
_cell_angle_beta	96.005644
_cell_angle_gamma	89.996857
loop_
_atom_site_label
_atom_site_type_symbol
_atom_site_fract_x
_atom_site_fract_y
_atom_site_fract_z
O1	O	-1.115460	0.077013	0.162025
O2	O	-0.871028	0.077036	0.181977
O3	O	-0.998864	0.077020	-0.010810
O4	O	-0.987624	0.077029	0.354813
O5	O	-0.998843	-0.077203	-0.010782
O6	O	-0.871006	-0.077188	0.182006
O7	O	-1.115439	-0.077211	0.162054
Cu8	Cu	-0.993221	-0.091281	0.172032
Cu9	Cu	-0.993246	0.091106	0.171999
O10	O	-0.987603	-0.077195	0.354841
C11	C	-0.839718	-0.000073	0.181160
C12	C	-0.746458	-0.000064	0.178669
C13	C	-0.530877	-0.000085	0.053209
C14	C	-0.470205	0.075956	0.111443
C15	C	-0.575708	-0.000075	0.174161
C16	C	-0.470206	-0.076096	0.111500
C17	C	-0.410771	-0.000090	0.169798
C18	C	-0.516264	0.076029	0.232428
C19	C	-0.516271	-0.076091	0.232468
C20	C	-0.455617	-0.000031	0.290790
C21	C	-0.670724	-0.000066	0.176671
C22	C	-0.315756	-0.000093	0.167297
N23	N	-0.993209	-0.219562	0.172055
C24	C	-0.934087	-0.469209	0.261160
C25	C	-1.010128	-0.531018	0.285547
C26	C	-0.993230	-0.408724	0.172025
C27	C	-0.917209	-0.531008	0.147669
C28	C	-0.993242	-0.591445	0.171999
C29	C	-1.069309	-0.469172	0.196468
C30	C	-0.976340	-0.469157	0.058541
C31	C	-1.052435	-0.530938	0.082879
C32	C	-0.993221	-0.303462	0.172044
C33	C	-0.993260	-0.696704	0.171980
C34	C	-0.146750	-0.000100	0.162853
C35	C	-0.240014	-0.000102	0.165294
C36	C	-0.998028	-0.000091	-0.057583
C37	C	-0.995559	-0.000088	-0.196995
N38	N	-0.993264	0.219387	0.171965
C39	C	-1.068501	-0.000088	-0.408449
C40	C	-1.070827	-0.000096	-0.277458
C41	C	-0.917960	-0.000081	-0.247529
C42	C	-0.915634	-0.000081	-0.378517
C43	C	-0.988438	-0.000082	0.401614
C44	C	-0.990907	-0.000079	0.541026
H45	H	-0.449808	0.140242	0.060274
O46	O	-0.540613	0.152783	0.293310
C47	C	-0.628918	0.151871	0.294902
H48	H	-0.658644	0.106805	0.214296
H49	H	-0.645211	0.122475	0.388676
C50	C	-0.626707	0.306813	0.377852
C51	C	-0.663217	0.251468	0.278844
H52	H	-0.647865	0.368249	0.367953
H53	H	-0.567213	0.307427	0.376785
H54	H	-0.640287	0.282306	0.455988
H55	H	-0.649627	0.275969	0.200713
H56	H	-0.722709	0.250861	0.279898
H57	H	-0.852914	-0.558173	0.127080
O58	O	-0.570028	0.000120	-0.066489
C59	C	-0.621350	0.079608	-0.084662
H60	H	-0.638113	0.105733	0.010563
H61	H	-0.585855	0.136040	-0.132246
C62	C	-0.682128	0.022826	-0.285825
C63	C	-0.702722	0.054909	-0.168868
H64	H	-0.732320	0.007593	-0.337772
H65	H	-0.647549	-0.030725	-0.273584
H66	H	-0.652547	0.069859	-0.325462
H67	H	-0.732293	0.007873	-0.129227
H68	H	-0.737308	0.108452	-0.181104
O69	O	-0.844820	-0.000236	-0.169424
C70	C	-0.797728	-0.080091	-0.192335
H71	H	-0.841800	-0.135927	-0.237084
H72	H	-0.748726	-0.062027	-0.259044
C73	C	-0.698819	-0.047716	-0.011835
C74	C	-0.752950	-0.116298	-0.066788
H75	H	-0.671194	-0.070050	0.065606
H76	H	-0.730543	0.006086	0.003598
H77	H	-0.657991	-0.032669	-0.067438
H78	H	-0.793783	-0.131336	-0.011192
H79	H	-0.721231	-0.170104	-0.082209
H80	H	-0.423040	0.000014	0.391269
H81	H	-1.102510	-0.557872	0.007485
O82	O	-0.959359	-0.436817	-0.056003
C83	C	-1.020987	-0.469615	-0.150075
H84	H	-1.051114	-0.535185	-0.115290
H85	H	-1.071501	-0.414270	-0.171632
C86	C	-0.942369	-0.411092	-0.313428
C87	C	-0.979367	-0.491632	-0.270708
H88	H	-0.916698	-0.424669	-0.387842
H89	H	-0.900850	-0.388992	-0.250050
H90	H	-0.984471	-0.364979	-0.331382
H91	H	-0.937264	-0.537738	-0.252739
H92	H	-1.020878	-0.513740	-0.334085
H93	H	-1.129794	-0.000087	-0.473954
O94	O	-1.146130	-0.000140	-0.228169
C95	C	-1.132046	-0.000120	-0.095303
H96	H	-1.066675	-0.029316	-0.064546
H97	H	-1.136336	0.073868	-0.058847
C98	C	-1.279465	-0.024744	-0.078735
C99	C	-1.199177	-0.060611	-0.040959
H100	H	-1.320876	-0.062054	-0.045211
H101	H	-1.288955	-0.024754	-0.168249
H102	H	-1.283028	0.036912	-0.048352
H103	H	-1.195612	-0.122261	-0.071354
H104	H	-1.189689	-0.060613	0.048552
H105	H	-0.536690	-0.140380	0.283596
H106	H	-0.449815	-0.140381	0.060332
O107	O	-1.027067	-0.563554	0.400020
C108	C	-0.959209	-0.618693	0.452402
H109	H	-0.922569	-0.645790	0.373707
H110	H	-0.915652	-0.575206	0.520712
C111	C	-1.038420	-0.667781	0.620304
C112	C	-0.993422	-0.701069	0.523649
H113	H	-1.059523	-0.718592	0.664258
H114	H	-1.084136	-0.630630	0.585017
H115	H	-1.002115	-0.631542	0.677216
H116	H	-1.029729	-0.737297	0.466731
H117	H	-0.947712	-0.738228	0.558928
H118	H	-0.884124	-0.442105	0.336599
O119	O	-0.840306	0.000055	-0.427752
C120	C	-0.834392	0.079940	-0.502614
H121	H	-0.900410	0.106562	-0.535229
H122	H	-0.797576	0.135875	-0.444758
C123	C	-0.707401	0.022984	-0.578425
C124	C	-0.788486	0.055677	-0.618493
H125	H	-0.679081	0.008020	-0.649903
H126	H	-0.711383	-0.030835	-0.527987
H127	H	-0.676732	0.069602	-0.530211
H128	H	-0.819157	0.009056	-0.666692
H129	H	-0.784508	0.109488	-0.668943
H130	H	-1.133618	-0.442124	0.217173
