data_functionalizedCrystal
_audit_creation_method	'MofGen! by Chris Wilmer'
_symmetry_space_group_name_H-M	'P1'
_symmetry_Int_Tables_number	1
_symmetry_cell_setting	triclinic
loop_
_symmetry_equiv_pos_as_xyz
  x,y,z
_cell_length_a	25.639242
_cell_length_b	16.994747
_cell_length_c	25.639233
_cell_angle_alpha	89.993240
_cell_angle_beta	90.022166
_cell_angle_gamma	90.006589
loop_
_atom_site_label
_atom_site_type_symbol
_atom_site_fract_x
_atom_site_fract_y
_atom_site_fract_z
Zn1	Zn	0.799326	-0.314218	0.295835
Zn2	Zn	0.799291	-0.446103	0.208438
Zn3	Zn	0.711902	-0.314207	0.208399
Zn4	Zn	0.711889	-0.446074	0.295828
O5	O	0.755602	-0.380150	0.252125
O6	O	0.872486	-0.331730	0.284261
O7	O	0.787690	-0.428614	0.135268
O8	O	0.723518	-0.203827	0.219984
O9	O	0.872461	-0.428625	0.220051
O10	O	0.787748	-0.203835	0.284223
O11	O	0.723485	-0.331710	0.135239
O12	O	0.638735	-0.331682	0.219977
O13	O	0.723497	-0.428575	0.368994
O14	O	0.638726	-0.428564	0.284211
O15	O	0.787736	-0.331702	0.368999
O16	O	0.787677	-0.556480	0.220044
O17	O	0.723463	-0.556459	0.284249
C18	C	0.619759	-0.380119	0.252090
C19	C	0.561645	-0.380125	0.252087
C20	C	0.755572	-0.585090	0.252149
C21	C	0.755575	-0.674412	0.252147
Zn22	Zn	0.711917	-0.945293	0.208384
Zn23	Zn	0.799349	-0.945283	0.295812
Zn24	Zn	0.711907	-0.813466	0.295819
Zn25	Zn	0.799301	-0.813358	0.208421
O26	O	0.755618	-0.879350	0.252109
O27	O	0.723539	-1.055673	0.219963
O28	O	0.787765	-0.927838	0.368978
O29	O	0.638743	-0.831003	0.284209
O30	O	0.787775	-1.055666	0.284196
O31	O	0.638750	-0.927855	0.219971
O32	O	0.723522	-0.830993	0.368984
O33	O	0.723476	-0.703071	0.284244
O34	O	0.787693	-0.830819	0.135251
O35	O	0.787683	-0.702991	0.220033
O36	O	0.723492	-0.927751	0.135224
O37	O	0.872508	-0.927734	0.284232
O38	O	0.872472	-0.830809	0.220026
C39	C	0.201286	-0.430681	0.285540
C40	C	0.146682	-0.430686	0.285548
O41	O	0.118449	-0.473632	0.313961
N42	N	0.119363	-0.380172	0.252159
C43	C	0.146651	-0.329644	0.218764
O44	O	0.118400	-0.286678	0.190365
C45	C	0.201254	-0.329636	0.218758
C46	C	0.228570	-0.380159	0.252146
C47	C	0.228603	-0.481199	0.318925
C48	C	0.283203	-0.481195	0.318916
C49	C	0.310487	-0.430673	0.285522
C50	C	0.283171	-0.380155	0.252137
C51	C	0.228541	-0.279105	0.185366
C52	C	0.283148	-0.279101	0.185364
C53	C	0.310464	-0.329624	0.218751
C54	C	0.365056	-0.329629	0.218733
N55	N	0.392375	-0.380143	0.252122
C56	C	0.365091	-0.430665	0.285517
C57	C	0.031980	-0.329664	0.218778
C58	C	-0.022622	-0.329676	0.218780
C59	C	-0.022587	-0.430717	0.285565
C60	C	0.032016	-0.430709	0.285560
C61	C	0.059299	-0.380178	0.252167
C62	C	0.479756	-0.430653	0.285495
C63	C	0.534361	-0.430647	0.285481
C64	C	0.534321	-0.329604	0.218698
C65	C	0.479721	-0.329612	0.218709
C66	C	0.452439	-0.380140	0.252112
O67	O	0.393324	-0.286702	0.190336
O68	O	0.393348	-0.473617	0.313916
C69	C	0.891975	-0.380182	0.252161
C70	C	0.950089	-0.380196	0.252176
C71	C	0.755619	-0.380137	0.388498
C72	C	0.755626	-0.380131	0.446612
C73	C	0.755635	-0.174410	0.252098
C74	C	0.755651	-0.085088	0.252087
C75	C	0.755615	-0.380107	0.116283
C76	C	0.755709	-0.379891	0.058169
C77	C	0.789118	-0.329539	0.806984
C78	C	0.789124	-0.329517	0.861588
O79	O	0.817558	-0.286595	0.889832
N80	N	0.755684	-0.379946	0.888895
C81	C	0.722231	-0.430394	0.861595
O82	O	0.693787	-0.473285	0.889835
C83	C	0.722222	-0.430411	0.806991
C84	C	0.755668	-0.379985	0.779687
C85	C	0.822561	-0.279115	0.779680
C86	C	0.822555	-0.279139	0.725079
C87	C	0.789106	-0.329585	0.697783
C88	C	0.755662	-0.380008	0.725087
C89	C	0.688767	-0.480855	0.779692
C90	C	0.688761	-0.480868	0.725085
C91	C	0.722207	-0.430441	0.697781
C92	C	0.722207	-0.430477	0.643190
N93	N	0.755648	-0.380048	0.615883
C94	C	0.789097	-0.329602	0.643179
C95	C	0.722251	-0.430353	0.976265
C96	C	0.722262	-0.430340	1.030868
C97	C	0.789155	-0.329462	1.030857
C98	C	0.789146	-0.329479	0.976254
C99	C	0.755691	-0.379924	0.948958
C100	C	0.789083	-0.329655	0.528514
C101	C	0.789075	-0.329684	0.473909
C102	C	0.722181	-0.430560	0.473924
C103	C	0.722190	-0.430533	0.528524
C104	C	0.755642	-0.380074	0.555818
O105	O	0.693787	-0.473375	0.614911
O106	O	0.817531	-0.286711	0.614932
C107	C	0.891461	-0.879261	0.252133
C108	C	0.949575	-0.879245	0.252159
C109	C	0.755588	-0.879274	0.115736
C110	C	0.755576	-0.879241	0.057622
C111	C	0.619245	-0.879442	0.252086
C112	C	0.561131	-0.879481	0.252077
C113	C	0.755611	-0.879471	0.387952
C114	C	0.755477	-0.879654	0.446065
C115	C	0.976869	-0.929749	0.285572
C116	C	1.031473	-0.929750	0.285597
C117	C	1.058783	-0.879243	0.252210
C118	C	1.031485	-0.828737	0.218793
C119	C	0.976881	-0.828741	0.218766
C120	C	0.722140	-0.929694	0.030314
C121	C	0.722118	-0.929663	-0.024290
C122	C	0.755534	-0.879184	-0.051586
C123	C	0.788971	-0.828726	-0.024274
C124	C	0.788991	-0.828753	0.030330
C125	C	0.533834	-0.829068	0.285518
C126	C	0.479229	-0.829089	0.285509
C127	C	0.451924	-0.879529	0.252061
C128	C	0.479225	-0.929944	0.218616
C129	C	0.533828	-0.929919	0.218623
C130	C	0.722207	-0.828952	0.473337
C131	C	0.722071	-0.829124	0.527941
C132	C	0.755210	-0.879994	0.555273
C133	C	0.788482	-0.930701	0.527998
C134	C	0.788615	-0.930533	0.473394
H135	H	0.457550	-0.471796	0.312696
C136	C	0.825218	-0.986301	0.443399
H137	H	0.820552	-0.978925	0.406965
H138	H	0.860376	-0.975143	0.452465
H139	H	0.817299	-1.039250	0.452260
H140	H	0.556600	-0.471792	0.312670
C141	C	0.824940	-0.986644	0.558065
H142	H	0.844776	-1.016822	0.534007
H143	H	0.847801	-0.956756	0.579465
H144	H	0.804733	-1.020876	0.579269
C145	C	0.755511	-0.879165	-0.111648
H146	H	0.730814	-0.916451	-0.123999
H147	H	0.746455	-0.828267	-0.124000
H148	H	0.789251	-0.892786	-0.124000
C149	C	0.685474	-0.485815	1.060896
H150	H	0.665551	-0.515855	1.036814
H151	H	0.705467	-0.520182	1.082212
H152	H	0.662697	-0.455624	1.082181
H153	H	0.556050	-0.970976	0.191392
C154	C	0.685743	-0.773003	0.443281
H155	H	0.665906	-0.742845	0.467350
H156	H	0.705940	-0.738766	0.422077
H157	H	0.662875	-0.802891	0.421884
C158	C	0.825931	-0.274002	0.946224
H159	H	0.845849	-0.243955	0.970306
H160	H	0.848705	-0.304180	0.924932
H161	H	0.805929	-0.239630	0.924915
H162	H	0.816178	-0.787627	-0.046506
C163	C	-0.052607	-0.486284	0.322303
H164	H	-0.089038	-0.479043	0.317526
H165	H	-0.043668	-0.539267	0.314608
H166	H	-0.043641	-0.474809	0.357444
C167	C	0.449208	-0.773638	0.322305
H168	H	0.473293	-0.743608	0.342231
H169	H	0.427896	-0.739260	0.302315
H170	H	0.427918	-0.803843	0.345078
H171	H	0.556059	-0.787991	0.312755
C172	C	0.391861	-0.879557	0.252063
H173	H	0.379518	-0.842312	0.276775
H174	H	0.379490	-0.865906	0.218326
H175	H	0.379521	-0.930473	0.261101
H176	H	1.053692	-0.970877	0.312811
H177	H	0.456984	-0.971010	0.191383
C178	C	0.313244	-0.536761	0.355649
H179	H	0.289168	-0.566841	0.375540
H180	H	0.334536	-0.571089	0.335622
H181	H	0.334554	-0.506629	0.378458
H182	H	0.206394	-0.522341	0.346122
C183	C	0.825779	-0.773261	0.060363
H184	H	0.845679	-0.743204	0.036283
H185	H	0.805786	-0.738911	0.081671
H186	H	0.848576	-0.803439	0.081656
H187	H	0.954663	-0.787610	0.191558
C188	C	0.685476	-0.773336	0.557933
H189	H	0.665767	-0.743009	0.533832
H190	H	0.662500	-0.803330	0.579132
H191	H	0.705587	-0.739239	0.579333
H192	H	0.695007	-0.471436	0.954045
C193	C	1.118845	-0.879238	0.252249
H194	H	1.131185	-0.916545	0.276937
H195	H	1.131210	-0.892814	0.218509
H196	H	1.131195	-0.828347	0.261340
H197	H	0.755098	-0.880122	0.599734
C198	C	1.061527	-0.773172	0.182077
H199	H	1.037455	-0.743091	0.162169
H200	H	1.082824	-0.738847	0.202122
H201	H	1.082833	-0.803301	0.159282
H202	H	0.054253	-0.471848	0.312748
C203	C	0.946839	-0.985276	0.322324
H204	H	0.970921	-1.015345	0.342227
H205	H	0.925549	-0.955119	0.345111
H206	H	0.925528	-1.019627	0.302308
H207	H	-0.044858	-0.288543	0.191587
C208	C	0.685340	-0.985173	-0.054326
H209	H	0.690106	-0.977926	-0.090755
H210	H	0.693011	-1.038168	-0.045382
H211	H	0.650209	-0.973657	-0.045373
C212	C	0.685376	-0.985221	0.060329
H213	H	0.665458	-1.015253	0.036239
H214	H	0.705384	-1.019593	0.081628
H215	H	0.662594	-0.955066	0.081631
H216	H	0.054191	-0.288517	0.191581
H217	H	0.206310	-0.237966	0.158177
H218	H	0.556546	-0.288472	0.191507
C219	C	0.651970	-0.536318	0.809715
H220	H	0.632046	-0.566351	0.785630
H221	H	0.671957	-0.570692	0.831031
H222	H	0.629195	-0.506122	0.830998
H223	H	0.305359	-0.237947	0.158173
H224	H	0.457479	-0.288474	0.191521
H225	H	0.816321	-0.288564	0.550730
C226	C	0.825865	-0.274212	0.443875
H227	H	0.821077	-0.281452	0.407445
H228	H	0.818224	-0.221209	0.452809
H229	H	0.860995	-0.285766	0.452838
C230	C	0.859342	-0.223661	0.695051
H231	H	0.879257	-0.193613	0.719135
H232	H	0.882118	-0.253839	0.673762
H233	H	0.839341	-0.189290	0.673740
H234	H	0.694960	-0.471602	0.550757
H235	H	0.816390	-0.288384	1.053092
C236	C	0.859362	-0.223624	0.809697
H237	H	0.879277	-0.193606	0.785608
H238	H	0.839379	-0.189237	0.830989
H239	H	0.882145	-0.253803	0.831006
C240	C	0.651961	-0.536358	0.695060
H241	H	0.656742	-0.529149	0.658630
H242	H	0.659602	-0.589355	0.704026
H243	H	0.616834	-0.524793	0.703998
C244	C	0.685387	-0.486042	0.443891
H245	H	0.690172	-0.478822	0.407461
H246	H	0.693023	-0.539043	0.452850
H247	H	0.650259	-0.474475	0.452827
