data_functionalizedCrystal
_audit_creation_method	'MofGen! by Chris Wilmer'
_symmetry_space_group_name_H-M	'P1'
_symmetry_Int_Tables_number	1
_symmetry_cell_setting	triclinic
loop_
_symmetry_equiv_pos_as_xyz
  x,y,z
_cell_length_a	12.645331
_cell_length_b	12.594516
_cell_length_c	12.645323
_cell_angle_alpha	90.025622
_cell_angle_beta	90.022676
_cell_angle_gamma	90.010795
loop_
_atom_site_label
_atom_site_type_symbol
_atom_site_fract_x
_atom_site_fract_y
_atom_site_fract_z
Zn1	Zn	1.620775	-0.423763	0.599441
Zn2	Zn	1.620674	-0.601766	0.422178
Zn3	Zn	1.443489	-0.423799	0.422185
Zn4	Zn	1.443489	-0.601696	0.599394
O5	O	1.532107	-0.512756	0.510800
O6	O	1.769108	-0.447389	0.575943
O7	O	1.597128	-0.578202	0.273832
O8	O	1.467048	-0.274848	0.445721
O9	O	1.769035	-0.578167	0.445710
O10	O	1.597299	-0.274822	0.575950
O11	O	1.466951	-0.447451	0.273837
O12	O	1.295142	-0.447383	0.445675
O13	O	1.467048	-0.578049	0.747747
O14	O	1.295142	-0.578084	0.575870
O15	O	1.597299	-0.447322	0.747782
O16	O	1.597128	-0.750702	0.445664
O17	O	1.466951	-0.750651	0.575864
C18	C	1.256677	-0.512731	0.510769
C19	C	1.138847	-0.512745	0.510781
C20	C	0.971248	-0.430143	0.429327
C21	C	1.093807	-0.430357	0.428969
C22	C	1.094338	-0.624870	0.480265
C23	C	0.971740	-0.624419	0.479709
C24	C	0.971695	-0.484290	0.623065
C25	C	1.094300	-0.481785	0.622442
C26	C	1.532058	-0.789297	0.510781
C27	C	1.532134	-0.907602	0.510809
C28	C	1.603019	-0.976844	0.440069
C29	C	1.628928	-1.047545	0.536828
C30	C	1.506358	-1.047700	0.414111
C31	C	1.558092	-0.976745	0.607618
C32	C	1.435477	-0.976894	0.484837
C33	C	1.461348	-1.047563	0.581662
C34	C	1.808612	-0.512782	0.510831
C35	C	1.926442	-0.512793	0.510844
C36	C	1.532185	-0.512674	0.787305
C37	C	1.532218	-0.512639	0.905135
C38	C	1.532185	-0.235135	0.510841
C39	C	1.532218	-0.116830	0.510859
C40	C	1.532090	-0.512761	0.235370
C41	C	1.532262	-0.512496	0.117540
C42	C	1.450024	-0.594491	1.072678
C43	C	1.450240	-0.594897	0.950118
C44	C	1.643921	-0.543081	0.949655
C45	C	1.643470	-0.543595	1.072253
C46	C	1.503765	-0.399885	1.072334
C47	C	1.501273	-0.400561	0.949728
H48	H	0.940790	-0.403956	0.650818
C49	C	1.728925	-0.464965	0.910301
H50	H	1.795836	-0.484836	0.938160
H51	H	1.731537	-0.466652	0.835245
H52	H	1.711848	-0.395210	0.933242
C53	C	0.929575	-0.455292	0.317645
H54	H	0.957019	-0.404982	0.268884
H55	H	0.951457	-0.524589	0.297618
H56	H	0.854529	-0.451802	0.317531
C57	C	1.729065	-0.466441	1.112353
H58	H	1.763964	-0.434930	1.053714
H59	H	1.697049	-0.412587	1.154084
H60	H	1.779005	-0.504226	1.153986
H61	H	1.710705	-1.078582	0.558824
H62	H	1.124996	-0.649457	0.399106
C63	C	1.475176	-0.706564	1.114317
H64	H	1.535580	-0.703603	1.158919
H65	H	1.416482	-0.732651	1.153318
H66	H	1.489001	-0.752576	1.056401
C67	C	1.587730	-0.934828	0.718148
H68	H	1.587555	-0.859400	0.717445
H69	H	1.537724	-0.959606	0.768457
H70	H	1.656213	-0.959606	0.736720
C71	C	1.676088	-0.654802	1.110908
H72	H	1.689484	-0.699242	1.051685
H73	H	1.738256	-0.649392	1.152761
H74	H	1.620629	-0.684390	1.152110
H75	H	1.123087	-0.449196	0.345808
C76	C	1.135714	-0.557171	0.708887
H77	H	1.107549	-0.536597	0.775451
H78	H	1.114430	-0.627789	0.693230
H79	H	1.210720	-0.553624	0.711320
H80	H	1.401439	-1.078418	0.641576
H81	H	1.123900	-0.347212	0.448096
C82	C	1.684007	-0.934884	0.359331
H83	H	1.752681	-0.959074	0.377980
H84	H	1.666342	-0.960218	0.290795
H85	H	1.682974	-0.859461	0.359428
H86	H	1.668488	-0.624540	0.918965
H87	H	1.556794	-0.336240	0.919108
H88	H	0.943096	-0.648590	0.397670
H89	H	1.353723	-0.945834	0.462812
C90	C	0.931405	-0.317487	0.454860
H91	H	0.887085	-0.319843	0.515460
H92	H	0.990056	-0.272361	0.468478
H93	H	0.892462	-0.290761	0.396389
H94	H	1.484521	-1.078867	0.332315
H95	H	1.366948	-0.575624	1.102151
H96	H	1.367409	-0.575846	0.920016
H97	H	0.942102	-0.688084	0.536493
H98	H	1.123514	-0.688096	0.537774
H99	H	1.123396	-0.399274	0.645453
H100	H	1.469053	-0.678380	0.920802
C101	C	1.395647	-0.362394	1.114082
H102	H	1.366871	-0.415077	1.159475
H103	H	1.404330	-0.298004	1.152261
H104	H	1.349027	-0.350996	1.056262
H105	H	1.419070	-0.377602	0.920629
C106	C	0.932553	-0.565605	0.705119
H107	H	0.888844	-0.616679	0.671210
H108	H	0.991519	-0.600222	0.736378
H109	H	0.893123	-0.530076	0.758379
C110	C	1.584665	-0.317353	1.111544
H111	H	1.635564	-0.351300	1.155251
H112	H	1.619118	-0.285927	1.052606
H113	H	1.549218	-0.263927	1.150992
