data_functionalizedCrystal
_audit_creation_method	'MofGen! by Chris Wilmer'
_symmetry_space_group_name_H-M	'P1'
_symmetry_Int_Tables_number	1
_symmetry_cell_setting	triclinic
loop_
_symmetry_equiv_pos_as_xyz
  x,y,z
_cell_length_a	10.654550
_cell_length_b	14.421503
_cell_length_c	10.654551
_cell_angle_alpha	89.993900
_cell_angle_beta	84.485180
_cell_angle_gamma	90.004464
loop_
_atom_site_label
_atom_site_type_symbol
_atom_site_fract_x
_atom_site_fract_y
_atom_site_fract_z
O1	O	1.667849	0.077039	0.176382
O2	O	1.302371	0.077055	0.193188
O3	O	1.493513	0.077044	0.002046
O4	O	1.476708	0.077049	0.367524
O5	O	1.493481	-0.077179	0.002074
O6	O	1.302339	-0.077168	0.193216
O7	O	1.667818	-0.077185	0.176410
Cu8	Cu	1.485076	-0.091258	0.184816
Cu9	Cu	1.485113	0.091129	0.184782
O10	O	1.476676	-0.077174	0.367552
C11	C	1.255557	-0.000054	0.191968
C12	C	1.116114	-0.000048	0.188276
N13	N	1.485058	-0.219540	0.184839
C14	C	1.036629	-0.000049	0.300818
C15	C	0.905608	-0.000065	0.297341
C16	C	0.933570	-0.000075	0.068772
C17	C	1.064588	-0.000066	0.072249
C18	C	1.396659	-0.469188	0.273183
C19	C	1.510356	-0.530996	0.298547
C20	C	1.485089	-0.408701	0.184809
C21	C	1.371421	-0.530987	0.159474
C22	C	1.485108	-0.591422	0.184783
C23	C	1.598844	-0.469148	0.210231
C24	C	1.459834	-0.469134	0.071107
C25	C	1.573613	-0.530914	0.096424
C26	C	1.485076	-0.303440	0.184827
C27	C	1.485134	-0.696681	0.184764
C28	C	1.714632	-0.000073	0.177630
C29	C	1.854075	-0.000074	0.181322
C30	C	1.492262	-0.000066	-0.044738
C31	C	1.488570	-0.000061	-0.184181
N32	N	1.485140	0.219410	0.184749
C33	C	1.486854	0.084007	-0.249701
C34	C	1.483374	0.084008	-0.380721
C35	C	1.483331	-0.084135	-0.380692
C36	C	1.486802	-0.084135	-0.249673
C37	C	1.477926	-0.000062	0.414336
C38	C	1.481619	-0.000060	0.553779
H39	H	1.078576	-0.000042	0.395294
H40	H	1.438420	-0.441940	-0.025006
Cl41	Cl	1.222999	-0.572928	0.126404
H42	H	1.531734	-0.558168	0.394691
H43	H	1.488290	0.152465	-0.196381
H44	H	1.481894	-0.152585	-0.434031
H45	H	0.840896	-0.000068	0.388984
H46	H	1.488192	-0.152598	-0.196325
H47	H	1.481974	0.152465	-0.434061
H48	H	0.891602	-0.000095	-0.025693
Cl49	Cl	1.164521	-0.000072	-0.069243
Cl50	Cl	1.281321	-0.427338	0.388656
H51	H	1.648486	-0.557846	0.021675
Cl52	Cl	1.747305	-0.427392	0.243472
