data_functionalizedCrystal
_audit_creation_method	'MofGen! by Chris Wilmer'
_symmetry_space_group_name_H-M	'P1'
_symmetry_Int_Tables_number	1
_symmetry_cell_setting	triclinic
loop_
_symmetry_equiv_pos_as_xyz
  x,y,z
_cell_length_a	19.188930
_cell_length_b	19.188930
_cell_length_c	18.266242
_cell_angle_alpha	90.011475
_cell_angle_beta	89.977082
_cell_angle_gamma	96.855221
loop_
_atom_site_label
_atom_site_type_symbol
_atom_site_fract_x
_atom_site_fract_y
_atom_site_fract_z
O1	O	0.926149	-0.087169	-0.061124
O2	O	0.722838	-0.098903	-0.061075
O3	O	0.830361	0.008620	-0.061087
O4	O	0.818627	-0.194691	-0.061113
O5	O	0.830343	0.008625	0.060675
O6	O	0.722820	-0.098897	0.060687
O7	O	0.926131	-0.087163	0.060638
Zn8	Zn	0.824473	-0.093029	0.079994
Zn9	Zn	0.824497	-0.093037	-0.080432
O10	O	0.818608	-0.194686	0.060649
C11	C	0.696818	-0.098520	-0.000188
C12	C	0.619313	-0.097380	-0.000169
C13	C	0.574389	-0.160470	-0.000188
C14	C	0.501566	-0.159399	-0.000196
C15	C	0.473669	-0.095233	-0.000199
C16	C	0.518603	-0.032133	-0.000175
C17	C	0.591425	-0.033207	-0.000160
N18	N	0.365695	-0.046188	-0.041663
N19	N	0.296516	-0.045172	-0.041679
C20	C	0.254260	-0.091994	-0.000243
N21	N	0.283795	-0.139881	0.041200
N22	N	0.352980	-0.140899	0.041213
C23	C	0.394707	-0.094062	-0.000215
C24	C	0.130372	-0.153928	-0.000270
C25	C	0.057547	-0.152853	-0.000274
C26	C	0.074586	-0.025586	-0.000261
C27	C	0.147409	-0.026662	-0.000250
C28	C	0.175298	-0.090835	-0.000258
C29	C	0.829972	0.034634	-0.000204
C30	C	0.828831	0.112138	-0.000197
C31	C	0.952151	-0.087546	-0.000252
C32	C	1.029656	-0.088687	-0.000276
C33	C	0.818997	-0.220700	-0.000236
C34	C	0.820138	-0.298204	-0.000247
N35	N	0.824461	-0.093024	0.189481
C36	C	0.891922	0.157062	-0.000209
C37	C	0.890850	0.229886	-0.000220
C38	C	0.826684	0.257782	-0.000206
C39	C	0.763585	0.212849	-0.000198
C40	C	0.764658	0.140026	-0.000194
N41	N	0.777631	0.365789	0.041244
N42	N	0.776615	0.434968	0.041242
C43	C	0.823446	0.477191	-0.000220
N44	N	0.871341	0.447624	-0.041669
N45	N	0.872359	0.378439	-0.041664
C46	C	0.825513	0.336745	-0.000210
C47	C	0.885379	0.601079	-0.000245
C48	C	0.884305	0.673904	-0.000261
C49	C	0.757038	0.656865	-0.000231
C50	C	0.758114	0.584042	-0.000222
C51	C	0.822287	0.556154	-0.000226
N52	N	0.824513	-0.093037	-0.189919
C53	C	0.872088	-0.045436	0.227785
C54	C	0.872092	-0.045433	0.304430
C55	C	0.824477	-0.093030	0.342768
C56	C	0.776841	-0.140621	0.304455
C57	C	0.776834	-0.140618	0.227812
N58	N	0.815401	-0.154837	0.463094
N59	N	0.815413	-0.154838	0.535902
C60	C	0.824496	-0.093040	0.573691
N61	N	0.833582	-0.031239	0.535920
N62	N	0.833574	-0.031240	0.463106
C63	C	0.824480	-0.093038	0.425875
C64	C	0.872131	-0.045444	0.695101
C65	C	0.872130	-0.045440	0.771748
C66	C	0.776882	-0.140634	0.771772
C67	C	0.776879	-0.140632	0.695127
C68	C	0.824507	-0.093038	0.656796
H69	H	0.464982	-0.210776	-0.000210
H70	H	0.713281	0.103448	-0.000184
O71	O	0.730531	-0.186802	0.808971
C72	C	0.609008	-0.228043	0.832437
C73	C	0.661428	-0.175710	0.790273
H74	H	0.553127	-0.219103	0.817324
H75	H	0.617131	-0.219872	0.893805
H76	H	0.617967	-0.283937	0.817357
H77	H	0.652500	-0.119795	0.805291
H78	H	0.653293	-0.183942	0.728915
H79	H	0.711340	0.235567	-0.000187
H80	H	0.738100	-0.179386	0.663938
O81	O	0.947696	0.573952	-0.000128
C82	C	1.022747	0.501608	0.062917
C83	C	0.952156	0.532292	0.062887
H84	H	1.026369	0.467907	0.113851
H85	H	1.067684	0.546203	0.062946
H86	H	1.026427	0.467956	0.011939
H87	H	0.948407	0.565936	0.113856
H88	H	0.907252	0.487663	0.062819
H89	H	0.597091	-0.212725	-0.000196
O90	O	0.918466	0.000815	0.808845
C91	C	1.012921	0.095248	0.800730
C92	C	0.960493	0.042893	0.758625
H93	H	1.046903	0.129292	0.760145
H94	H	1.047751	0.065219	0.836567
H95	H	0.982881	0.130027	0.836656
H96	H	0.990475	0.008100	0.722659
H97	H	0.925663	0.072965	0.722834
H98	H	0.935683	0.710481	-0.000274
H99	H	0.704792	0.679578	-0.000222
O100	O	0.190953	0.034689	-0.000272
C101	C	0.200166	0.161032	-0.000216
C102	C	0.150773	0.091600	-0.000212
H103	H	0.167700	0.207062	-0.000152
H104	H	0.234701	0.163756	-0.051178
H105	H	0.234671	0.163674	0.050737
H106	H	0.116224	0.088911	-0.051130
H107	H	0.116285	0.088904	0.050784
O108	O	0.696762	0.540498	-0.000169
C109	C	0.570420	0.531286	-0.000181
C110	C	0.639852	0.580679	-0.000222
H111	H	0.524390	0.563752	-0.000240
H112	H	0.567686	0.496792	0.050791
H113	H	0.567787	0.496740	-0.051123
H114	H	0.642531	0.615269	0.050685
H115	H	0.642557	0.615125	-0.051228
O116	O	0.014005	-0.214208	-0.000323
C117	C	0.004793	-0.340550	-0.000303
C118	C	0.054186	-0.271118	-0.000264
H119	H	0.037259	-0.386580	-0.000240
H120	H	-0.029687	-0.343276	-0.051277
H121	H	-0.029766	-0.343192	0.050637
H122	H	0.088789	-0.268430	-0.051170
H123	H	0.088618	-0.268421	0.050744
H124	H	0.944176	0.134360	-0.000214
O125	O	0.918373	0.000868	0.190666
C126	C	1.012874	0.095256	0.198734
C127	C	0.960485	0.042864	0.240865
H128	H	1.046945	0.129214	0.239301
H129	H	0.982873	0.130113	0.162899
H130	H	1.047622	0.065186	0.162803
H131	H	0.925724	0.072877	0.276835
H132	H	0.990530	0.008007	0.276653
O133	O	0.491474	0.030180	-0.000310
C134	C	0.419146	0.105229	-0.063381
C135	C	0.449835	0.034640	-0.063332
H136	H	0.385462	0.108852	-0.114321
H137	H	0.463739	0.150168	-0.063413
H138	H	0.385477	0.108905	-0.012409
H139	H	0.483496	0.030896	-0.114296
H140	H	0.405208	-0.010265	-0.063263
O141	O	0.952204	0.273436	-0.000197
C142	C	1.078546	0.282656	-0.000257
C143	C	1.009117	0.233259	-0.000266
H144	H	1.124579	0.250193	-0.000328
H145	H	1.081259	0.317172	0.050711
H146	H	1.081197	0.317180	-0.051203
H147	H	1.006420	0.198692	0.050646
H148	H	1.006433	0.198791	-0.051268
H149	H	0.910910	-0.006688	0.663892
H150	H	0.628003	0.018171	-0.000145
H151	H	0.910877	-0.006680	0.335623
O152	O	0.157504	-0.216243	-0.000396
C153	C	0.229907	-0.291301	-0.063440
C154	C	0.199215	-0.220713	-0.063400
H155	H	0.263649	-0.294932	-0.114365
H156	H	0.185315	-0.336242	-0.063493
H157	H	0.263518	-0.294966	-0.012453
H158	H	0.165612	-0.216980	-0.114378
H159	H	0.243840	-0.175807	-0.063308
H160	H	0.051874	0.026659	-0.000309
H161	H	0.738071	-0.179374	0.335674
O162	O	0.730543	-0.186918	0.190713
C163	C	0.636044	-0.281307	0.198825
C164	C	0.688439	-0.228920	0.240932
H165	H	0.601978	-0.315269	0.239408
H166	H	0.666040	-0.316161	0.162941
H167	H	0.601290	-0.251233	0.162946
H168	H	0.723205	-0.258936	0.276851
H169	H	0.658399	-0.194066	0.276770
