data_functionalizedCrystal
_audit_creation_method	'MofGen! by Chris Wilmer'
_symmetry_space_group_name_H-M	'P1'
_symmetry_Int_Tables_number	1
_symmetry_cell_setting	triclinic
loop_
_symmetry_equiv_pos_as_xyz
  x,y,z
_cell_length_a	18.101398
_cell_length_b	18.101395
_cell_length_c	18.101389
_cell_angle_alpha	89.983159
_cell_angle_beta	90.024327
_cell_angle_gamma	89.973629
loop_
_atom_site_label
_atom_site_type_symbol
_atom_site_fract_x
_atom_site_fract_y
_atom_site_fract_z
Zn1	Zn	1.132121	0.295001	0.418847
Zn2	Zn	1.382121	0.545001	0.668847
Zn3	Zn	1.632121	0.795001	0.918847
Zn4	Zn	1.882121	1.045001	1.168847
Zn5	Zn	1.132017	0.418826	0.295009
Zn6	Zn	1.382017	0.668826	0.545009
Zn7	Zn	1.632017	0.918826	0.795009
Zn8	Zn	1.882017	1.168826	1.045009
Zn9	Zn	1.008280	0.294993	0.295008
Zn10	Zn	1.258280	0.544993	0.545008
Zn11	Zn	1.508280	0.794993	0.795008
Zn12	Zn	1.758280	1.044993	1.045008
Zn13	Zn	1.008231	0.418795	0.418797
Zn14	Zn	1.258231	0.668795	0.668797
Zn15	Zn	1.508231	0.918795	0.918797
Zn16	Zn	1.758231	1.168795	1.168797
O17	O	1.070162	0.356904	0.356915
O18	O	1.320162	0.606904	0.606915
O19	O	1.570162	0.856904	0.856915
O20	O	1.820162	1.106904	1.106915
O21	O	1.235740	0.311443	0.402440
O22	O	1.485740	0.561443	0.652440
O23	O	1.735740	0.811443	0.902440
O24	O	1.985740	1.061443	1.152440
O25	O	1.115580	0.402410	0.191376
O26	O	1.365580	0.652410	0.441376
O27	O	1.615580	0.902410	0.691376
O28	O	1.865580	1.152410	0.941376
O29	O	1.024772	0.191361	0.311456
O30	O	1.274772	0.441361	0.561456
O31	O	1.524772	0.691361	0.811456
O32	O	1.774772	0.941361	1.061456
O33	O	1.235664	0.402417	0.311457
O34	O	1.485664	0.652417	0.561457
O35	O	1.735664	0.902417	0.811457
O36	O	1.985664	1.152417	1.061457
O37	O	1.115757	0.191367	0.402440
O38	O	1.365757	0.441367	0.652440
O39	O	1.615757	0.691367	0.902440
O40	O	1.865757	0.941367	1.152440
O41	O	1.024671	0.311430	0.191375
O42	O	1.274671	0.561430	0.441375
O43	O	1.524671	0.811430	0.691375
O44	O	1.774671	1.061430	0.941375
O45	O	0.904641	0.311399	0.311408
O46	O	1.154641	0.561399	0.561408
O47	O	1.404641	0.811399	0.811408
O48	O	1.654641	1.061399	1.061408
O49	O	1.024688	0.402363	0.522437
O50	O	1.274688	0.652363	0.772437
O51	O	1.524688	0.902363	1.022437
O52	O	1.774688	1.152363	1.272437
O53	O	0.904604	0.402356	0.402355
O54	O	1.154604	0.652356	0.652355
O55	O	1.404604	0.902356	0.902355
O56	O	1.654604	1.152356	1.152355
O57	O	1.115710	0.311412	0.522473
O58	O	1.365710	0.561412	0.772473
O59	O	1.615710	0.811412	1.022473
O60	O	1.865710	1.061412	1.272473
O61	O	1.115532	0.522455	0.311409
O62	O	1.365532	0.772455	0.561409
O63	O	1.615532	1.022455	0.811409
O64	O	1.865532	1.272455	1.061409
O65	O	1.024587	0.522432	0.402356
O66	O	1.274587	0.772432	0.652356
O67	O	1.524587	1.022432	0.902356
O68	O	1.774587	1.272432	1.152356
C69	C	0.877752	0.356874	0.356877
C70	C	1.127752	0.606874	0.606877
C71	C	1.377752	0.856874	0.856877
C72	C	1.627752	1.106874	1.106877
C73	C	0.795437	0.356879	0.356878
C74	C	1.045437	0.606879	0.606878
C75	C	1.295437	0.856879	0.856878
C76	C	1.545437	1.106879	1.106878
C77	C	1.070063	0.549314	0.356893
C78	C	1.320063	0.799314	0.606893
C79	C	1.570063	1.049314	0.856893
C80	C	1.820063	1.299314	1.106893
C81	C	1.070088	0.631628	0.356909
C82	C	1.320088	0.881628	0.606909
C83	C	1.570088	1.131628	0.856909
C84	C	1.820088	1.381628	1.106909
C85	C	0.496347	0.356925	0.356940
C86	C	0.746347	0.606925	0.606940
C87	C	0.996347	0.856925	0.856940
C88	C	1.246347	1.106925	1.106940
C89	C	0.527670	0.299412	0.299997
C90	C	0.777670	0.549412	0.549997
C91	C	1.027670	0.799412	0.799997
C92	C	1.277670	1.049412	1.049997
C93	C	0.613288	0.299566	0.299754
C94	C	0.863288	0.549566	0.549754
C95	C	1.113288	0.799566	0.799754
C96	C	1.363288	1.049566	1.049754
C97	C	0.644729	0.356901	0.356909
C98	C	0.894729	0.606901	0.606909
C99	C	1.144729	0.856901	0.856909
C100	C	1.394729	1.106901	1.106909
C101	C	0.613611	0.434909	0.335587
C102	C	0.863611	0.684909	0.585587
C103	C	1.113611	0.934909	0.835587
C104	C	1.363611	1.184909	1.085587
C105	C	0.527966	0.434590	0.335191
C106	C	0.777966	0.684590	0.585191
C107	C	1.027966	0.934590	0.835191
C108	C	1.277966	1.184590	1.085191
C109	C	0.527961	0.337109	0.435339
C110	C	0.777961	0.587109	0.685339
C111	C	1.027961	0.837109	0.935339
C112	C	1.277961	1.087109	1.185339
C113	C	0.613612	0.335371	0.434911
C114	C	0.863612	0.585371	0.684911
C115	C	1.113612	0.835371	0.934911
C116	C	1.363612	1.085371	1.184911
C117	C	0.728589	0.356893	0.356893
C118	C	0.978589	0.606893	0.606893
C119	C	1.228589	0.856893	0.856893
C120	C	1.478589	1.106893	1.106893
C121	C	0.412487	0.356939	0.356954
C122	C	0.662487	0.606939	0.606954
C123	C	0.912487	0.856939	0.856954
C124	C	1.162487	1.106939	1.106954
C125	C	1.070205	0.356885	0.550077
C126	C	1.320205	0.606885	0.800077
C127	C	1.570205	0.856885	1.050077
C128	C	1.820205	1.106885	1.300077
C129	C	1.070223	0.356877	0.632391
C130	C	1.320223	0.606877	0.882391
C131	C	1.570223	0.856877	1.132391
C132	C	1.820223	1.106877	1.382391
C133	C	1.263324	0.356934	0.356954
C134	C	1.513324	0.606934	0.606954
C135	C	1.763324	0.856934	0.856954
C136	C	2.013324	1.106934	1.106954
C137	C	1.345638	0.356948	0.356971
C138	C	1.595638	0.606948	0.606971
C139	C	1.845638	0.856948	0.856971
C140	C	2.095638	1.106948	1.106971
C141	C	1.070282	0.163742	0.356953
C142	C	1.320282	0.413742	0.606953
C143	C	1.570282	0.663742	0.856953
C144	C	1.820282	0.913742	1.106953
C145	C	1.070333	0.081428	0.356970
C146	C	1.320333	0.331428	0.606970
C147	C	1.570333	0.581428	0.856970
C148	C	1.820333	0.831428	1.106970
C149	C	1.070251	0.930719	0.356949
C150	C	1.320251	1.180719	0.606949
C151	C	1.570251	1.430719	0.856949
C152	C	1.820251	1.680719	1.106949
C153	C	1.013163	0.899410	0.414312
C154	C	1.263163	1.149410	0.664312
C155	C	1.513163	1.399410	0.914312
C156	C	1.763163	1.649410	1.164312
C157	C	1.012892	0.813792	0.414133
C158	C	1.262892	1.063792	0.664133
C159	C	1.512892	1.313792	0.914133
C160	C	1.762892	1.563792	1.164133
C161	C	1.070170	0.782337	0.356930
C162	C	1.320170	1.032337	0.606930
C163	C	1.570170	1.282337	0.856930
C164	C	1.820170	1.532337	1.106930
C165	C	1.049041	0.813472	0.278878
C166	C	1.299041	1.063472	0.528878
C167	C	1.549041	1.313472	0.778878
C168	C	1.799041	1.563472	1.028878
C169	C	1.048673	0.899117	0.279221
C170	C	1.298673	1.149117	0.529221
C171	C	1.548673	1.399117	0.779221
C172	C	1.798673	1.649117	1.029221
C173	C	1.148593	0.899073	0.376950
C174	C	1.398593	1.149073	0.626950
C175	C	1.648593	1.399073	0.876950
C176	C	1.898593	1.649073	1.126950
C177	C	1.148132	0.813422	0.378661
C178	C	1.398132	1.063422	0.628661
C179	C	1.648132	1.313422	0.878661
C180	C	1.898132	1.563422	1.128661
C181	C	1.070126	0.698477	0.356914
C182	C	1.320126	0.948477	0.606914
C183	C	1.570126	1.198477	0.856914
C184	C	1.820126	1.448477	1.106914
C185	C	1.070293	1.014579	0.356959
C186	C	1.320293	1.264579	0.606959
C187	C	1.570293	1.514579	0.856959
C188	C	1.820293	1.764579	1.106959
C189	C	1.070162	0.356869	0.164505
C190	C	1.320162	0.606869	0.414505
C191	C	1.570162	0.856869	0.664505
C192	C	1.820162	1.106869	0.914505
C193	C	1.070287	0.356668	0.082191
C194	C	1.320287	0.606668	0.332191
C195	C	1.570287	0.856668	0.582191
C196	C	1.820287	1.106668	0.832191
C197	C	1.070266	0.356738	0.931482
C198	C	1.320266	0.606738	1.181482
C199	C	1.570266	0.856738	1.431482
C200	C	1.820266	1.106738	1.681482
C201	C	1.012801	0.413780	0.900134
C202	C	1.262801	0.663780	1.150134
C203	C	1.512801	0.913780	1.400134
C204	C	1.762801	1.163780	1.650134
C205	C	1.012956	0.414045	0.814516
C206	C	1.262956	0.664045	1.064516
C207	C	1.512956	0.914045	1.314516
C208	C	1.762956	1.164045	1.564516
C209	C	1.070244	0.356807	0.783100
C210	C	1.320244	0.606807	1.033100
C211	C	1.570244	0.856807	1.283100
C212	C	1.820244	1.106807	1.533100
C213	C	1.148270	0.377998	0.814206
C214	C	1.398270	0.627998	1.064206
C215	C	1.648270	0.877998	1.314206
C216	C	1.898270	1.127998	1.564206
C217	C	1.147949	0.378372	0.899851
C218	C	1.397949	0.628372	1.149851
C219	C	1.647949	0.878372	1.399851
C220	C	1.897949	1.128372	1.649851
C221	C	1.050385	0.278379	0.899905
C222	C	1.300385	0.528379	1.149905
C223	C	1.550385	0.778379	1.399905
C224	C	1.800385	1.028379	1.649905
C225	C	1.048649	0.278832	0.814254
C226	C	1.298649	0.528832	1.064254
C227	C	1.548649	0.778832	1.314254
C228	C	1.798649	1.028832	1.564254
C229	C	1.070237	0.356845	0.699240
C230	C	1.320237	0.606845	0.949240
C231	C	1.570237	0.856845	1.199240
C232	C	1.820237	1.106845	1.449240
C233	C	1.070279	0.356702	1.015342
C234	C	1.320279	0.606702	1.265342
C235	C	1.570279	0.856702	1.515342
C236	C	1.820279	1.106702	1.765342
H237	H	0.634329	0.241719	0.313119
H238	H	0.884329	0.491719	0.563119
H239	H	1.134329	0.741719	0.813119
H240	H	1.384329	0.991719	1.063119
H241	H	0.507244	0.478892	0.374857
H242	H	0.757244	0.728892	0.624857
H243	H	1.007244	0.978892	0.874857
H244	H	1.257244	1.228892	1.124857
F245	F	0.499768	0.264052	0.460678
F246	F	0.749768	0.514052	0.710678
F247	F	0.999768	0.764052	0.960678
F248	F	1.249768	1.014052	1.210678
H249	H	1.167856	0.920633	0.432895
H250	H	1.417856	1.170633	0.682895
H251	H	1.667856	1.420633	0.932895
H252	H	1.917856	1.670633	1.182895
F253	F	1.105092	0.222829	0.926404
F254	F	1.355092	0.472829	1.176404
F255	F	1.605092	0.722829	1.426404
F256	F	1.855092	0.972829	1.676404
F257	F	0.640212	0.260344	0.455933
F258	F	0.890212	0.510344	0.705933
F259	F	1.140212	0.760344	0.955933
F260	F	1.390212	1.010344	1.205933
H261	H	0.955448	0.920990	0.401230
H262	H	1.205448	1.170990	0.651230
H263	H	1.455448	1.420990	0.901230
H264	H	1.705448	1.670990	1.151230
F265	F	1.030147	0.489955	0.787743
F266	F	1.280147	0.739955	1.037743
F267	F	1.530147	0.989955	1.287743
F268	F	1.780147	1.239955	1.537743
F269	F	1.205779	0.326393	0.926961
F270	F	1.455779	0.576393	1.176961
F271	F	1.705779	0.826393	1.426961
F272	F	1.955779	1.076393	1.676961
F273	F	0.937331	0.396708	0.787022
F274	F	1.187331	0.646708	1.037022
F275	F	1.437331	0.896708	1.287022
F276	F	1.687331	1.146708	1.537022
H277	H	0.633975	0.478909	0.375763
H278	H	0.883975	0.728909	0.625763
H279	H	1.133975	0.978909	0.875763
H280	H	1.383975	1.228909	1.125763
F281	F	1.168960	0.786823	0.453742
F282	F	1.418960	1.036823	0.703742
F283	F	1.668960	1.286823	0.953742
F284	F	1.918960	1.536823	1.203742
H285	H	1.192915	0.792007	0.339927
H286	H	1.442915	1.042007	0.589927
H287	H	1.692915	1.292007	0.839927
H288	H	1.942915	1.542007	1.089927
F289	F	1.204188	0.925547	0.322350
F290	F	1.454188	1.175547	0.572350
F291	F	1.704188	1.425547	0.822350
F292	F	1.954188	1.675547	1.072350
H293	H	1.025796	0.471508	0.921661
H294	H	1.275796	0.721508	1.171661
H295	H	1.525796	0.971508	1.421661
H296	H	1.775796	1.221508	1.671661
F297	F	0.641586	0.386138	0.493338
F298	F	0.891586	0.636138	0.743338
F299	F	1.141586	0.886138	0.993338
F300	F	1.391586	1.136138	1.243338
H301	H	0.954768	0.400655	0.920720
H302	H	1.204768	0.650655	1.170720
H303	H	1.454768	0.900655	1.420720
H304	H	1.704768	1.150655	1.670720
F305	F	0.641599	0.457260	0.261482
F306	F	0.891599	0.707260	0.511482
F307	F	1.141599	0.957260	0.761482
F308	F	1.391599	1.207260	1.011482
H309	H	0.506120	0.312363	0.242242
H310	H	0.756120	0.562363	0.492242
H311	H	1.006120	0.812363	0.742242
H312	H	1.256120	1.062363	0.992242
F313	F	0.501484	0.391861	0.490795
F314	F	0.751484	0.641861	0.740795
F315	F	1.001484	0.891861	0.990795
F316	F	1.251484	1.141861	1.240795
F317	F	0.500784	0.223569	0.317272
F318	F	0.750784	0.473569	0.567272
F319	F	1.000784	0.723569	0.817272
F320	F	1.250784	0.973569	1.067272
H321	H	1.088449	0.919830	0.235023
H322	H	1.338449	1.169830	0.485023
H323	H	1.588449	1.419830	0.735023
H324	H	1.838449	1.669830	0.985023
H325	H	1.026111	0.792740	0.472007
H326	H	1.276111	1.042740	0.722007
H327	H	1.526111	1.292740	0.972007
H328	H	1.776111	1.542740	1.222007
H329	H	0.954823	0.793362	0.400884
H330	H	1.204823	1.043362	0.650884
H331	H	1.454823	1.293362	0.900884
H332	H	1.704823	1.543362	1.150884
F333	F	0.973821	0.925307	0.257077
F334	F	1.223821	1.175307	0.507077
F335	F	1.473821	1.425307	0.757077
F336	F	1.723821	1.675307	1.007077
H337	H	1.192236	0.337757	0.793859
H338	H	1.442236	0.587757	1.043859
H339	H	1.692236	0.837757	1.293859
H340	H	1.942236	1.087757	1.543859
F341	F	0.640026	0.316684	0.223822
F342	F	0.890026	0.566684	0.473822
F343	F	1.140026	0.816684	0.723822
F344	F	1.390026	1.066684	0.973822
H345	H	1.026252	0.919970	0.472374
H346	H	1.276252	1.169970	0.722374
H347	H	1.526252	1.419970	0.972374
H348	H	1.776252	1.669970	1.222374
F349	F	1.101678	0.786843	0.221488
F350	F	1.351678	1.036843	0.471488
F351	F	1.601678	1.286843	0.721488
F352	F	1.851678	1.536843	0.971488
H353	H	0.507954	0.451397	0.277877
H354	H	0.757954	0.701397	0.527877
H355	H	1.007954	0.951397	0.777877
H356	H	1.257954	1.201397	1.027877
H357	H	0.992380	0.792080	0.261633
H358	H	1.242380	1.042080	0.511633
H359	H	1.492380	1.292080	0.761633
H360	H	1.742380	1.542080	1.011633
F361	F	1.169978	0.453243	0.925975
F362	F	1.419978	0.703243	1.175975
F363	F	1.669978	0.953243	1.425975
F364	F	1.919978	1.203243	1.675975
F365	F	1.170683	0.452073	0.786183
F366	F	1.420683	0.702073	1.036183
F367	F	1.670683	0.952073	1.286183
F368	F	1.920683	1.202073	1.536183
H369	H	0.994478	0.259074	0.921490
H370	H	1.244478	0.509074	1.171490
H371	H	1.494478	0.759074	1.421490
H372	H	1.744478	1.009074	1.671490
F373	F	0.973593	0.257946	0.787686
F374	F	1.223593	0.507946	1.037686
F375	F	1.473593	0.757946	1.287686
F376	F	1.723593	1.007946	1.537686
H377	H	1.087450	0.234076	0.792868
H378	H	1.337450	0.484076	1.042868
H379	H	1.587450	0.734076	1.292868
H380	H	1.837450	0.984076	1.542868
