data_functionalizedCrystal
_audit_creation_method	'MofGen! by Chris Wilmer'
_symmetry_space_group_name_H-M	'P1'
_symmetry_Int_Tables_number	1
_symmetry_cell_setting	triclinic
loop_
_symmetry_equiv_pos_as_xyz
  x,y,z
_cell_length_a	27.732048
_cell_length_b	19.288865
_cell_length_c	18.366186
_cell_angle_alpha	90.011479
_cell_angle_beta	89.996446
_cell_angle_gamma	97.110548
loop_
_atom_site_label
_atom_site_type_symbol
_atom_site_fract_x
_atom_site_fract_y
_atom_site_fract_z
O1	O	0.641180	-0.082649	-0.060464
O2	O	0.974513	0.250684	0.272869
O3	O	1.307847	0.584017	0.606203
O4	O	0.500424	-0.095216	-0.060487
O5	O	0.833758	0.238117	0.272846
O6	O	1.167091	0.571451	0.606179
O7	O	0.574869	0.012223	-0.060461
O8	O	0.908203	0.345556	0.272873
O9	O	1.241536	0.678890	0.606206
O10	O	0.566735	-0.190088	-0.060491
O11	O	0.900068	0.143245	0.272843
O12	O	1.233402	0.476578	0.606176
O13	O	0.574857	0.012228	0.060639
O14	O	0.908190	0.345562	0.393972
O15	O	1.241523	0.678895	0.727306
O16	O	0.500412	-0.095211	0.060612
O17	O	0.833745	0.238123	0.393946
O18	O	1.167078	0.571456	0.727279
O19	O	0.641167	-0.082644	0.060635
O20	O	0.974501	0.250689	0.393969
O21	O	1.307834	0.584023	0.727302
Zn22	Zn	0.570788	-0.088927	0.079851
Zn23	Zn	0.904121	0.244407	0.413184
Zn24	Zn	1.237454	0.577740	0.746518
Zn25	Zn	0.570804	-0.088933	-0.079703
Zn26	Zn	0.904137	0.244400	0.253631
Zn27	Zn	1.237471	0.577733	0.586964
O28	O	0.566722	-0.190083	0.060609
O29	O	0.900056	0.143250	0.393942
O30	O	1.233389	0.476584	0.727275
C31	C	0.482410	-0.094950	0.000060
C32	C	0.815744	0.238384	0.333393
C33	C	1.149077	0.571717	0.666726
C34	C	0.428753	-0.094155	0.000052
C35	C	0.762086	0.239178	0.333385
C36	C	1.095420	0.572511	0.666718
C37	C	0.090115	-0.152644	0.000074
C38	C	0.423448	0.180689	0.333408
C39	C	0.756781	0.514023	0.666741
C40	C	-0.111554	-0.149697	0.000081
C41	C	0.221780	0.183636	0.333415
C42	C	0.555113	0.516970	0.666748
O43	O	-0.142648	-0.203181	0.000105
O44	O	0.190685	0.130153	0.333438
O45	O	0.524019	0.463486	0.666771
N46	N	-0.130870	-0.085990	0.000089
N47	N	0.202463	0.247343	0.333423
N48	N	0.535797	0.580677	0.666756
C49	C	-0.099766	-0.023015	0.000101
C50	C	0.233568	0.310318	0.333434
C51	C	0.566901	0.643651	0.666767
O52	O	-0.120823	0.031239	0.000115
O53	O	0.212511	0.364572	0.333449
O54	O	0.545844	0.697906	0.666782
C55	C	0.101902	-0.025963	0.000099
C56	C	0.435235	0.307370	0.333432
C57	C	0.768569	0.640703	0.666766
C58	C	0.121215	-0.089674	0.000083
C59	C	0.454548	0.243659	0.333417
C60	C	0.787882	0.576992	0.666750
C61	C	0.109428	-0.216350	0.000060
C62	C	0.442762	0.116983	0.333393
C63	C	0.776095	0.450317	0.666726
C64	C	0.159843	-0.217086	0.000054
C65	C	0.493176	0.116247	0.333387
C66	C	0.826509	0.449581	0.666721
C67	C	0.190943	-0.154116	0.000063
C68	C	0.524276	0.179217	0.333396
C69	C	0.857610	0.512550	0.666730
C70	C	0.171629	-0.090410	0.000078
C71	C	0.504963	0.242923	0.333411
C72	C	0.838296	0.576256	0.666744
C73	C	0.133005	0.037011	0.000115
C74	C	0.466339	0.370344	0.333449
C75	C	0.799672	0.703677	0.666782
C76	C	0.183425	0.036268	0.000117
C77	C	0.516758	0.369601	0.333450
C78	C	0.850092	0.702935	0.666784
C79	C	0.202738	-0.027443	0.000101
C80	C	0.536071	0.305890	0.333435
C81	C	0.869405	0.639224	0.666768
C82	C	0.253144	-0.028177	0.000081
C83	C	0.586477	0.305157	0.333414
C84	C	0.919811	0.638490	0.666748
N85	N	0.272460	-0.091884	0.000073
N86	N	0.605793	0.241450	0.333406
N87	N	0.939127	0.574783	0.666740
C88	C	0.241360	-0.154853	0.000064
C89	C	0.574693	0.178480	0.333397
C90	C	0.908026	0.511813	0.666730
C91	C	-0.205644	-0.021472	0.000100
C92	C	0.127689	0.311861	0.333434
C93	C	0.461022	0.645194	0.666767
C94	C	-0.256061	-0.020735	0.000099
C95	C	0.077272	0.312598	0.333433
C96	C	0.410606	0.645932	0.666766
C97	C	-0.267846	-0.147417	0.000081
C98	C	0.065488	0.185916	0.333415
C99	C	0.398821	0.519250	0.666748
C100	C	-0.217428	-0.148153	0.000077
C101	C	0.115905	0.185180	0.333410
C102	C	0.449239	0.518513	0.666744
C103	C	-0.186328	-0.085179	0.000092
C104	C	0.147005	0.248154	0.333425
C105	C	0.480339	0.581488	0.666759
C106	C	0.347234	-0.156395	0.000051
C107	C	0.680567	0.176939	0.333385
C108	C	1.013900	0.510272	0.666718
C109	C	0.397653	-0.157125	0.000042
C110	C	0.730986	0.176208	0.333376
C111	C	1.064319	0.509542	0.666709
C112	C	0.409433	-0.030444	0.000064
C113	C	0.742766	0.302890	0.333398
C114	C	1.076100	0.636223	0.666731
C115	C	0.359018	-0.029713	0.000069
C116	C	0.692352	0.303621	0.333403
C117	C	1.025685	0.636954	0.666736
C118	C	0.327919	-0.092694	0.000065
C119	C	0.661253	0.240640	0.333398
C120	C	0.994586	0.573973	0.666732
O121	O	0.284266	0.025278	0.000066
O122	O	0.617600	0.358612	0.333399
O123	O	0.950933	0.691945	0.666732
O124	O	0.262426	-0.209100	0.000065
O125	O	0.595759	0.124234	0.333399
O126	O	0.929093	0.457567	0.666732
C127	C	0.039701	-0.151908	0.000080
C128	C	0.373034	0.181425	0.333413
C129	C	0.706367	0.514759	0.666747
C130	C	0.020387	-0.088202	0.000095
C131	C	0.353720	0.245131	0.333428
C132	C	0.687053	0.578465	0.666761
C133	C	0.051487	-0.025232	0.000104
C134	C	0.384821	0.308101	0.333437
C135	C	0.718154	0.641434	0.666771
C136	C	-0.030030	-0.087465	0.000094
C137	C	0.303304	0.245868	0.333427
C138	C	0.636637	0.579202	0.666761
C139	C	-0.061130	-0.150435	0.000085
C140	C	0.272203	0.182899	0.333418
C141	C	0.605536	0.516232	0.666752
C142	C	-0.041814	-0.214142	0.000077
C143	C	0.291519	0.119192	0.333410
C144	C	0.624853	0.452525	0.666743
C145	C	0.008600	-0.214878	0.000071
C146	C	0.341933	0.118456	0.333404
C147	C	0.675267	0.451789	0.666738
C148	C	0.032171	0.038475	0.000112
C149	C	0.365504	0.371808	0.333445
C150	C	0.698838	0.705141	0.666779
C151	C	-0.018244	0.039206	0.000117
C152	C	0.315090	0.372539	0.333450
C153	C	0.648423	0.705872	0.666784
C154	C	-0.049344	-0.023764	0.000108
C155	C	0.283989	0.309569	0.333441
C156	C	0.617323	0.642902	0.666775
C157	C	0.574601	0.038100	0.000091
C158	C	0.907935	0.371434	0.333425
C159	C	1.241268	0.704767	0.666758
C160	C	0.573816	0.115199	0.000098
C161	C	0.907149	0.448532	0.333431
C162	C	1.240482	0.781866	0.666764
C163	C	0.659181	-0.082910	0.000087
C164	C	0.992515	0.250423	0.333420
C165	C	1.325848	0.583756	0.666754
C166	C	0.712839	-0.083705	0.000090
C167	C	1.046172	0.249629	0.333424
C168	C	1.379505	0.582962	0.666757
C169	C	0.566990	-0.215961	0.000055
C170	C	0.900324	0.117373	0.333389
C171	C	1.233657	0.450706	0.666722
C172	C	0.567776	-0.293059	0.000044
C173	C	0.901109	0.040274	0.333378
C174	C	1.234443	0.373607	0.666711
N175	N	0.570780	-0.088922	0.188742
N176	N	0.904113	0.244412	0.522075
N177	N	1.237446	0.577745	0.855409
C178	C	0.617496	0.160168	0.000108
C179	C	0.950830	0.493501	0.333442
C180	C	1.284163	0.826835	0.666775
C181	C	0.616758	0.232610	0.000097
C182	C	0.950092	0.565944	0.333430
C183	C	1.283425	0.899277	0.666763
C184	C	0.572337	0.260081	0.000089
C185	C	0.905670	0.593414	0.333422
C186	C	1.239003	0.926748	0.666756
C187	C	0.528650	0.215102	0.000074
C188	C	0.861984	0.548436	0.333407
C189	C	1.195317	0.881769	0.666741
C190	C	0.529390	0.142661	0.000078
C191	C	0.862723	0.475995	0.333412
C192	C	1.196056	0.809328	0.666745
C193	C	0.537412	0.368152	0.042502
C194	C	0.870745	0.701486	0.375835
C195	C	1.204079	1.034819	0.709168
C196	C	0.536674	0.440592	0.042502
C197	C	0.870008	0.773925	0.375835
C198	C	1.203341	1.107259	0.709168
C199	C	0.570054	0.483512	0.000072
C200	C	0.903388	0.816846	0.333406
C201	C	1.236721	1.150179	0.666739
C202	C	0.604180	0.453985	-0.042348
C203	C	0.937514	0.787318	0.290985
C204	C	1.270847	1.120652	0.624319
C205	C	0.604920	0.381544	-0.042344
C206	C	0.938253	0.714878	0.290990
C207	C	1.271586	1.048211	0.624323
C208	C	0.571530	0.338630	0.000084
C209	C	0.904863	0.671963	0.333417
C210	C	1.238197	1.005296	0.666750
C211	C	0.612938	0.607032	0.000069
C212	C	0.946271	0.940365	0.333403
C213	C	1.279605	1.273699	0.666736
C214	C	0.612198	0.679475	0.000053
C215	C	0.945531	1.012809	0.333387
C216	C	1.278865	1.346142	0.666720
C217	C	0.524089	0.661966	0.000038
C218	C	0.857422	0.995299	0.333371
C219	C	1.190755	1.328632	0.666705
C220	C	0.524830	0.589524	0.000047
C221	C	0.858163	0.922857	0.333380
C222	C	1.191497	1.256190	0.666713
C223	C	0.569256	0.562062	0.000066
C224	C	0.902589	0.895395	0.333399
C225	C	1.235923	1.228728	0.666733
N226	N	0.570816	-0.088933	-0.188594
N227	N	0.904149	0.244400	0.144739
N228	N	1.237482	0.577734	0.478073
C229	C	0.603755	-0.041371	0.226854
C230	C	0.937088	0.291963	0.560188
C231	C	1.270421	0.625296	0.893521
C232	C	0.603758	-0.041368	0.303082
C233	C	0.937091	0.291966	0.636415
C234	C	1.270424	0.625299	0.969749
C235	C	0.570790	-0.088927	0.341195
C236	C	0.904124	0.244406	0.674528
C237	C	1.237457	0.577739	1.007861
C238	C	0.537809	-0.136482	0.303073
C239	C	0.871143	0.196852	0.636407
C240	C	1.204476	0.530185	0.969740
C241	C	0.537804	-0.136479	0.226847
C242	C	0.871137	0.196854	0.560180
C243	C	1.204471	0.530188	0.893514
C244	C	0.564320	-0.152255	0.461945
C245	C	0.897653	0.181078	0.795278
C246	C	1.230986	0.514411	1.128612
C247	C	0.564328	-0.152259	0.538170
C248	C	0.897662	0.181074	0.871503
C249	C	1.230995	0.514408	1.204837
C250	C	0.570804	-0.088936	0.576302
C251	C	0.904138	0.244398	0.909636
C252	C	1.237471	0.577731	1.242969
C253	C	0.577281	-0.025606	0.538200
C254	C	0.910615	0.307727	0.871534
C255	C	1.243948	0.641061	1.204867
C256	C	0.577276	-0.025603	0.461974
C257	C	0.910609	0.307730	0.795307
C258	C	1.243943	0.641064	1.128641
C259	C	0.570792	-0.088935	0.423850
C260	C	0.904126	0.244398	0.757183
C261	C	1.237459	0.577731	1.090516
C262	C	0.603784	-0.041378	0.697069
C263	C	0.937118	0.291956	1.030403
C264	C	1.270451	0.625289	1.363736
C265	C	0.603784	-0.041374	0.773299
C266	C	0.937117	0.291960	1.106632
C267	C	1.270451	0.625293	1.439965
C268	C	0.537838	-0.136494	0.773289
C269	C	0.871171	0.196840	1.106622
C270	C	1.204505	0.530173	1.439955
C271	C	0.537836	-0.136492	0.697061
C272	C	0.871169	0.196841	1.030394
C273	C	1.204503	0.530175	1.363727
C274	C	0.570812	-0.088934	0.658956
C275	C	0.904145	0.244399	0.992289
C276	C	1.237478	0.577732	1.325622
H277	H	-0.067145	-0.265414	0.000066
H278	H	0.266188	0.067920	0.333400
H279	H	0.599522	0.401253	0.666733
F280	F	0.663251	0.280478	0.000107
F281	F	0.996585	0.613812	0.333440
F282	F	1.329918	0.947145	0.666774
H283	H	0.057489	0.089753	0.000121
H284	H	0.390822	0.423087	0.333455
H285	H	0.724155	0.756420	0.666788
F286	F	0.500357	0.472011	0.087652
F287	F	0.833690	0.805344	0.420985
F288	F	1.167023	1.138677	0.754318
H289	H	0.489260	0.552909	0.000042
H290	H	0.822593	0.886242	0.333375
H291	H	1.155927	1.219576	0.666709
H292	H	-0.033963	0.091091	0.000124
H293	H	0.299370	0.424424	0.333457
H294	H	0.632704	0.757757	0.666791
F295	F	0.584166	0.041795	0.421426
F296	F	0.917499	0.375128	0.754759
F297	F	1.250832	0.708462	1.088092
F298	F	0.639709	0.499658	-0.087509
F299	F	0.973042	0.832992	0.245824
F300	F	1.306375	1.166325	0.579157
F301	F	0.658692	0.727335	0.000060
F302	F	0.992025	1.060669	0.333393
F303	F	1.325359	1.394002	0.666727
H304	H	0.649112	0.584671	0.000082
H305	H	0.982446	0.918004	0.333415
H306	H	1.315779	1.251338	0.666748
H307	H	0.630604	-0.002645	0.195831
H308	H	0.963938	0.330688	0.529165
H309	H	1.297271	0.664022	0.862498
F310	F	0.476811	0.691197	0.000026
F311	F	0.810145	1.024530	0.333359
F312	F	1.143478	1.357863	0.666693
H313	H	0.632705	0.357506	-0.076885
H314	H	0.966039	0.690840	0.256448
H315	H	1.299372	1.024173	0.589781
H316	H	0.343293	0.022166	0.000071
H317	H	0.676626	0.355499	0.333405
H318	H	1.009960	0.688833	0.666738
F319	F	0.584177	0.041793	0.578777
F320	F	0.917510	0.375126	0.912110
F321	F	1.250844	0.708459	1.245444
F322	F	0.638856	0.009245	0.343651
F323	F	0.972189	0.342579	0.676984
F324	F	1.305523	0.675912	1.010317
H325	H	0.321918	-0.207680	0.000050
H326	H	0.655251	0.125653	0.333383
H327	H	0.988585	0.458987	0.666717
F328	F	0.501882	0.322480	0.087665
F329	F	0.835216	0.655813	0.420999
F330	F	1.168549	0.989146	0.754332
F331	F	-0.276610	0.047075	0.000100
F332	F	0.056724	0.380408	0.333433
F333	F	0.390057	0.713741	0.666766
F334	F	0.076336	-0.283377	0.000050
F335	F	0.409669	0.049956	0.333383
F336	F	0.743002	0.383289	0.666717
H337	H	0.492482	0.237473	0.000066
H338	H	0.825815	0.570807	0.333399
H339	H	1.159148	0.904140	0.666733
F340	F	0.180390	-0.284897	0.000041
F341	F	0.513724	0.048437	0.333374
F342	F	0.847057	0.381770	0.666707
F343	F	0.482896	0.094800	0.000067
F344	F	0.816230	0.428134	0.333400
F345	F	1.149563	0.761467	0.666733
H346	H	0.630634	-0.002651	0.666043
H347	H	0.963967	0.330682	0.999377
H348	H	1.297300	0.664015	1.332710
H349	H	0.630635	-0.002648	0.804330
H350	H	0.963968	0.330685	1.137664
H351	H	1.297301	0.664018	1.470997
H352	H	0.510966	-0.175205	0.334109
H353	H	0.844299	0.158129	0.667442
H354	H	1.177633	0.491462	1.000775
F355	F	0.502749	-0.187106	0.813847
F356	F	0.836082	0.146227	1.147181
F357	F	1.169415	0.479561	1.480514
F358	F	0.029148	-0.282688	0.000055
F359	F	0.362481	0.050645	0.333388
F360	F	0.695815	0.383978	0.666721
F361	F	0.502741	-0.187105	0.656496
F362	F	0.836075	0.146228	0.989829
F363	F	1.169408	0.479562	1.323162
F364	F	-0.196878	-0.215962	0.000062
F365	F	0.136455	0.117371	0.333395
F366	F	0.469788	0.450704	0.666728
F367	F	0.557438	-0.219660	0.578714
F368	F	0.890772	0.113674	0.912047
F369	F	1.224105	0.447007	1.245381
F370	F	0.664779	0.130945	0.000113
F371	F	0.998112	0.464278	0.333446
F372	F	1.331445	0.797612	0.666780
F373	F	0.442541	0.036570	0.000075
F374	F	0.775874	0.369903	0.333408
F375	F	1.109208	0.703236	0.666742
H376	H	0.510951	-0.175201	0.195815
H377	H	0.844285	0.158132	0.529149
H378	H	1.177618	0.491465	0.862482
F379	F	0.418204	-0.224938	0.000023
F380	F	0.751537	0.108395	0.333357
F381	F	1.084870	0.441729	0.666690
F382	F	-0.300954	-0.214434	0.000072
F383	F	0.032380	0.118899	0.333406
F384	F	0.365713	0.452232	0.666739
F385	F	0.557462	-0.219659	0.421369
F386	F	0.890796	0.113675	0.754702
F387	F	1.224129	0.447008	1.088036
H388	H	0.117290	0.088891	0.000129
H389	H	0.450623	0.422224	0.333462
H390	H	0.783957	0.755558	0.666795
F391	F	-0.172551	0.045558	0.000116
F392	F	0.160783	0.378892	0.333449
F393	F	0.494116	0.712225	0.666782
H394	H	0.208745	0.087550	0.000130
H395	H	0.542078	0.420884	0.333463
H396	H	0.875411	0.754217	0.666796
