data_functionalizedCrystal
_audit_creation_method	'MofGen! by Chris Wilmer'
_symmetry_space_group_name_H-M	'P1'
_symmetry_Int_Tables_number	1
_symmetry_cell_setting	triclinic
loop_
_symmetry_equiv_pos_as_xyz
  x,y,z
_cell_length_a	25.639242
_cell_length_b	19.805405
_cell_length_c	19.805398
_cell_angle_alpha	90.030326
_cell_angle_beta	89.979057
_cell_angle_gamma	89.978063
loop_
_atom_site_label
_atom_site_type_symbol
_atom_site_fract_x
_atom_site_fract_y
_atom_site_fract_z
Zn1	Zn	0.799263	0.269553	-0.382853
Zn2	Zn	1.132597	0.602886	-0.049519
Zn3	Zn	1.465930	0.936219	0.283814
Zn4	Zn	0.799207	0.382743	-0.269661
Zn5	Zn	1.132541	0.716076	0.063672
Zn6	Zn	1.465874	1.049410	0.397006
Zn7	Zn	0.711842	0.269565	-0.269662
Zn8	Zn	1.045175	0.602898	0.063671
Zn9	Zn	1.378508	0.936231	0.397005
Zn10	Zn	0.711804	0.382696	-0.382792
Zn11	Zn	1.045137	0.716030	-0.049459
Zn12	Zn	1.378470	1.049363	0.283874
O13	O	0.755529	0.326139	-0.326242
O14	O	1.088862	0.659473	0.007091
O15	O	1.422196	0.992806	0.340425
O16	O	0.872421	0.284582	-0.367863
O17	O	1.205754	0.617916	-0.034529
O18	O	1.539088	0.951249	0.298804
O19	O	0.787611	0.367754	-0.174945
O20	O	1.120944	0.701088	0.158389
O21	O	1.454277	1.034421	0.491722
O22	O	0.723478	0.174846	-0.284703
O23	O	1.056811	0.508180	0.048631
O24	O	1.390144	0.841513	0.381964
O25	O	0.872380	0.367743	-0.284701
O26	O	1.205713	0.701076	0.048632
O27	O	1.539047	1.034409	0.381966
O28	O	0.787706	0.174838	-0.367863
O29	O	1.121039	0.508171	-0.034530
O30	O	1.454373	0.841504	0.298803
O31	O	0.723423	0.284603	-0.174945
O32	O	1.056757	0.617936	0.158388
O33	O	1.390090	0.951269	0.491721
O34	O	0.638671	0.284557	-0.284644
O35	O	0.972005	0.617890	0.048689
O36	O	1.305338	0.951224	0.382023
O37	O	0.723413	0.367663	-0.477517
O38	O	1.056746	0.700996	-0.144184
O39	O	1.390079	1.034330	0.189150
O40	O	0.638643	0.367675	-0.367760
O41	O	0.971977	0.701008	-0.034427
O42	O	1.305310	1.034341	0.298906
O43	O	0.787669	0.284537	-0.477561
O44	O	1.121002	0.617870	-0.144228
O45	O	1.454336	0.951204	0.189105
O46	O	0.787574	0.477454	-0.284643
O47	O	1.120907	0.810787	0.048691
O48	O	1.454240	1.144120	0.382024
O49	O	0.723359	0.477419	-0.367760
O50	O	1.056692	0.810752	-0.034426
O51	O	1.390025	1.144086	0.298907
C52	C	0.755470	0.501995	-0.326209
C53	C	1.088803	0.835329	0.007124
C54	C	1.422137	1.168662	0.340457
C55	C	0.755493	0.577227	-0.326218
C56	C	1.088826	0.910561	0.007115
C57	C	1.422159	1.243894	0.340449
C58	C	0.619686	0.326113	-0.326196
C59	C	0.953020	0.659446	0.007137
C60	C	1.286353	0.992779	0.340470
C61	C	0.561572	0.326117	-0.326193
C62	C	0.894906	0.659451	0.007141
C63	C	1.228239	0.992784	0.340474
C64	C	0.755543	0.326093	-0.502785
C65	C	1.088876	0.659427	-0.169452
C66	C	1.422210	0.992760	0.163882
C67	C	0.755549	0.326074	-0.578017
C68	C	1.088882	0.659407	-0.244684
C69	C	1.422216	0.992741	0.088650
C70	C	0.201204	0.369491	-0.369480
C71	C	0.534537	0.702824	-0.036146
C72	C	0.867870	1.036157	0.297187
C73	C	0.146599	0.369495	-0.369490
C74	C	0.479933	0.702828	-0.036157
C75	C	0.813266	1.036162	0.297176
O76	O	0.118358	0.406339	-0.406256
O77	O	0.451691	0.739673	-0.072923
O78	O	0.785024	1.073006	0.260411
N79	N	0.119290	0.326158	-0.326286
N80	N	0.452623	0.659491	0.007047
N81	N	0.785957	0.992825	0.340380
C82	C	0.146588	0.282809	-0.283073
C83	C	0.479921	0.616142	0.050260
C84	C	0.813254	0.949476	0.383593
O85	O	0.118345	0.245947	-0.246326
O86	O	0.451678	0.579281	0.087007
O87	O	0.785011	0.912614	0.420341
C88	C	0.201191	0.282802	-0.283067
C89	C	0.534524	0.616135	0.050267
C90	C	0.867858	0.949469	0.383600
C91	C	0.228498	0.326147	-0.326269
C92	C	0.561831	0.659480	0.007065
C93	C	0.895164	0.992813	0.340398
C94	C	0.228510	0.412831	-0.412679
C95	C	0.561844	0.746165	-0.079346
C96	C	0.895177	1.079498	0.253988
C97	C	0.283111	0.412828	-0.412667
C98	C	0.616444	0.746161	-0.079334
C99	C	0.949778	1.079495	0.253999
C100	C	0.310405	0.369484	-0.369456
C101	C	0.643738	0.702817	-0.036123
C102	C	0.977071	1.036151	0.297210
C103	C	0.283098	0.326143	-0.326257
C104	C	0.616431	0.659477	0.007076
C105	C	0.949765	0.992810	0.340410
C106	C	0.228488	0.239450	-0.239858
C107	C	0.561821	0.572783	0.093476
C108	C	0.895154	0.906117	0.426809
C109	C	0.283095	0.239446	-0.239855
C110	C	0.616428	0.572780	0.093478
C111	C	0.949761	0.906113	0.426812
C112	C	0.310401	0.282791	-0.283057
C113	C	0.643735	0.616125	0.050276
C114	C	0.977068	0.949458	0.383610
C115	C	0.364992	0.282796	-0.283034
C116	C	0.698326	0.616129	0.050299
C117	C	1.031659	0.949462	0.383632
N118	N	0.392302	0.326133	-0.326239
N119	N	0.725635	0.659466	0.007095
N120	N	1.058969	0.992799	0.340428
C121	C	0.365008	0.369477	-0.369450
C122	C	0.698341	0.702810	-0.036116
C123	C	1.031675	1.036144	0.297217
C124	C	0.031917	0.282826	-0.283092
C125	C	0.365250	0.616160	0.050242
C126	C	0.698584	0.949493	0.383575
C127	C	-0.022685	0.282836	-0.283094
C128	C	0.310648	0.616169	0.050239
C129	C	0.643981	0.949503	0.383572
C130	C	-0.022670	0.369521	-0.369513
C131	C	0.310663	0.702855	-0.036179
C132	C	0.643997	1.036188	0.297154
C133	C	0.031933	0.369514	-0.369506
C134	C	0.365267	0.702848	-0.036173
C135	C	0.698600	1.036181	0.297161
C136	C	0.059226	0.326163	-0.326296
C137	C	0.392560	0.659497	0.007037
C138	C	0.725893	0.992830	0.340371
C139	C	0.479673	0.369467	-0.369421
C140	C	0.813006	0.702800	-0.036088
C141	C	1.146340	1.036134	0.297245
C142	C	0.534279	0.369462	-0.369404
C143	C	0.867612	0.702795	-0.036070
C144	C	1.200945	1.036128	0.297263
C145	C	0.534258	0.282774	-0.282988
C146	C	0.867592	0.616107	0.050345
C147	C	1.200925	0.949441	0.383678
C148	C	0.479658	0.282782	-0.283003
C149	C	0.812991	0.616115	0.050330
C150	C	1.146324	0.949448	0.383664
C151	C	0.452366	0.326130	-0.326225
C152	C	0.785700	0.659464	0.007108
C153	C	1.119033	0.992797	0.340442
O154	O	0.393269	0.245968	-0.246290
O155	O	0.726602	0.579301	0.087044
O156	O	1.059935	0.912635	0.420377
O157	O	0.393258	0.406326	-0.406197
O158	O	0.726591	0.739659	-0.072863
O159	O	1.059924	1.072993	0.260470
C160	C	0.891902	0.326166	-0.326289
C161	C	1.225235	0.659500	0.007045
C162	C	1.558569	0.992833	0.340378
C163	C	0.950016	0.326178	-0.326308
C164	C	1.283349	0.659511	0.007025
C165	C	1.616683	0.992845	0.340358
C166	C	0.755602	0.149596	-0.326290
C167	C	1.088936	0.482930	0.007044
C168	C	1.422269	0.816263	0.340377
C169	C	0.755634	0.074364	-0.326310
C170	C	1.088967	0.407698	0.007023
C171	C	1.422300	0.741031	0.340357
C172	C	0.788962	0.612567	-0.282984
C173	C	1.122296	0.945900	0.050349
C174	C	1.455629	1.279233	0.383682
C175	C	0.788984	0.683255	-0.282999
C176	C	1.122318	1.016589	0.050334
C177	C	1.455651	1.349922	0.383668
C178	C	0.755534	0.718603	-0.326245
C179	C	1.088868	1.051936	0.007088
C180	C	1.422201	1.385269	0.340422
C181	C	0.722063	0.683258	-0.369483
C182	C	1.055397	1.016592	-0.036150
C183	C	1.388730	1.349925	0.297183
C184	C	0.722044	0.612571	-0.369471
C185	C	1.055378	0.945904	-0.036138
C186	C	1.388711	1.279238	0.297195
C187	C	0.722140	0.968331	-0.369534
C188	C	1.055474	1.301665	-0.036200
C189	C	1.388807	1.634998	0.297133
C190	C	0.722161	1.039024	-0.369541
C191	C	1.055494	1.372357	-0.036208
C192	C	1.388828	1.705690	0.297126
C193	C	0.789081	1.039016	-0.283061
C194	C	1.122414	1.372349	0.050272
C195	C	1.455747	1.705682	0.383605
C196	C	0.789061	0.968328	-0.283049
C197	C	1.122395	1.301662	0.050284
C198	C	1.455728	1.634995	0.383617
C199	C	0.755593	0.932990	-0.326290
C200	C	1.088926	1.266323	0.007043
C201	C	1.422260	1.599657	0.340377
C202	C	0.755570	0.856342	-0.326274
C203	C	1.088903	1.189675	0.007059
C204	C	1.422237	1.523008	0.340392
C205	C	0.755554	0.795250	-0.326258
C206	C	1.088887	1.128583	0.007075
C207	C	1.422221	1.461917	0.340409
C208	C	0.789054	0.369263	-1.039805
C209	C	1.122387	0.702597	-0.706472
C210	C	1.455720	1.035930	-0.373139
C211	C	0.789039	0.369282	-0.969117
C212	C	1.122373	0.702615	-0.635784
C213	C	1.455706	1.035948	-0.302450
C214	C	0.755614	0.325998	-0.933779
C215	C	1.088947	0.659331	-0.600445
C216	C	1.422280	0.992664	-0.267112
C217	C	0.722197	0.282697	-0.969133
C218	C	1.055530	0.616030	-0.635800
C219	C	1.388864	0.949364	-0.302466
C220	C	0.722209	0.282683	-1.039820
C221	C	1.055543	0.616016	-0.706487
C222	C	1.388876	0.949349	-0.373153
C223	C	0.722146	0.282755	-0.684059
C224	C	1.055480	0.616088	-0.350726
C225	C	1.388813	0.949422	-0.017393
C226	C	0.722138	0.282771	-0.613367
C227	C	1.055471	0.616105	-0.280034
C228	C	1.388805	0.949438	0.053299
C229	C	0.788977	0.369354	-0.613356
C230	C	1.122310	0.702688	-0.280023
C231	C	1.455643	1.036021	0.053310
C232	C	0.788989	0.369340	-0.684043
C233	C	1.122322	0.702673	-0.350710
C234	C	1.455655	1.036006	-0.017377
C235	C	0.755570	0.326042	-0.719391
C236	C	1.088904	0.659375	-0.386058
C237	C	1.422237	0.992709	-0.052725
C238	C	0.755586	0.326024	-0.796040
C239	C	1.088919	0.659357	-0.462706
C240	C	1.422252	0.992690	-0.129373
C241	C	0.755601	0.326012	-0.857132
C242	C	1.088934	0.659346	-0.523798
C243	C	1.422267	0.992679	-0.190465
C244	C	0.755545	0.326136	-0.150386
C245	C	1.088878	0.659469	0.182947
C246	C	1.422212	0.992803	0.516281
C247	C	0.755641	0.325965	-0.075154
C248	C	1.088974	0.659298	0.258179
C249	C	1.422307	0.992631	0.591512
H250	H	0.556509	0.404761	-0.404585
H251	H	0.889842	0.738094	-0.071251
H252	H	1.223176	1.071427	0.262082
H253	H	0.816186	0.404611	-0.584568
H254	H	1.149519	0.737945	-0.251234
H255	H	1.482853	1.071278	0.082099
H256	H	0.694830	0.712044	-0.404698
H257	H	1.028163	1.045377	-0.071365
H258	H	1.361497	1.378711	0.261969
H259	H	-0.044902	0.404812	-0.404700
H260	H	0.288431	0.738146	-0.071366
H261	H	0.621764	1.071479	0.261967
H262	H	0.694923	1.067802	-0.404762
H263	H	1.028256	1.401135	-0.071429
H264	H	1.361589	1.734468	0.261905
H265	H	0.305314	0.204140	-0.204671
H266	H	0.638647	0.537473	0.128662
H267	H	0.971980	0.870807	0.461995
H268	H	0.694917	0.247522	-0.584597
H269	H	1.028251	0.580855	-0.251264
H270	H	1.361584	0.914189	0.082070
H271	H	0.816199	0.583791	-0.247766
H272	H	1.149532	0.917125	0.085568
H273	H	1.482866	1.250458	0.418901
H274	H	0.816275	0.404507	-1.068573
H275	H	1.149608	0.737841	-0.735239
H276	H	1.482942	1.071174	-0.401906
H277	H	0.694934	0.247500	-0.712831
H278	H	1.028268	0.580834	-0.379498
H279	H	1.361601	0.914167	-0.046164
H280	H	0.695001	0.247424	-1.068600
H281	H	1.028335	0.580757	-0.735267
H282	H	1.361668	0.914090	-0.401934
H283	H	0.305339	0.448122	-0.447848
H284	H	0.638672	0.781456	-0.114515
H285	H	0.972006	1.114789	0.218818
H286	H	0.206293	0.448128	-0.447870
H287	H	0.539627	0.781461	-0.114537
H288	H	0.872960	1.114794	0.218796
H289	H	0.816209	0.404584	-0.712812
H290	H	1.149542	0.737917	-0.379479
H291	H	1.482876	1.071251	-0.046146
H292	H	0.694791	0.583798	-0.404678
H293	H	1.028124	0.917132	-0.071344
H294	H	1.361457	1.250465	0.261989
H295	H	0.694979	0.247457	-0.940355
H296	H	1.028312	0.580791	-0.607022
H297	H	1.361646	0.914124	-0.273688
H298	H	0.694888	0.939565	-0.404740
H299	H	1.028222	1.272898	-0.071407
H300	H	1.361555	1.606231	0.261926
H301	H	-0.044914	0.247547	-0.247908
H302	H	0.288420	0.580881	0.085425
H303	H	0.621753	0.914214	0.418759
H304	H	0.054136	0.247525	-0.247900
H305	H	0.387469	0.580858	0.085433
H306	H	0.720802	0.914192	0.418767
H307	H	0.816334	1.067797	-0.247855
H308	H	1.149668	1.401130	0.085478
H309	H	1.483001	1.734463	0.418811
H310	H	0.457459	0.404764	-0.404618
H311	H	0.790792	0.738097	-0.071285
H312	H	1.124126	1.071431	0.262049
H313	H	0.816238	0.712026	-0.247793
H314	H	1.149571	1.045359	0.085540
H315	H	1.482905	1.378692	0.418873
H316	H	0.206264	0.204156	-0.204676
H317	H	0.539597	0.537489	0.128658
H318	H	0.872931	0.870823	0.461991
H319	H	0.054163	0.404809	-0.404686
H320	H	0.387496	0.738142	-0.071353
H321	H	0.720830	1.071475	0.261981
H322	H	0.457423	0.247488	-0.247823
H323	H	0.790757	0.580821	0.085511
H324	H	1.124090	0.914155	0.418844
H325	H	0.556491	0.247487	-0.247805
H326	H	0.889824	0.580820	0.085529
H327	H	1.223157	0.914153	0.418862
H328	H	0.816298	0.939551	-0.247832
H329	H	1.149631	1.272884	0.085501
H330	H	1.482965	1.606217	0.418834
H331	H	0.816241	0.404548	-0.940339
H332	H	1.149575	0.737881	-0.607005
H333	H	1.482908	1.071215	-0.273672
