data_functionalizedCrystal
_audit_creation_method	'MofGen! by Chris Wilmer'
_symmetry_space_group_name_H-M	'P1'
_symmetry_Int_Tables_number	1
_symmetry_cell_setting	triclinic
loop_
_symmetry_equiv_pos_as_xyz
  x,y,z
_cell_length_a	27.732064
_cell_length_b	27.732048
_cell_length_c	10.065875
_cell_angle_alpha	98.710990
_cell_angle_beta	81.333551
_cell_angle_gamma	82.646040
loop_
_atom_site_label
_atom_site_type_symbol
_atom_site_fract_x
_atom_site_fract_y
_atom_site_fract_z
O1	O	0.648033	0.050412	-0.113260
O2	O	0.898033	0.300412	0.136740
O3	O	1.148033	0.550412	0.386740
O4	O	1.398033	0.800412	0.636740
O5	O	0.507244	0.059146	-0.113318
O6	O	0.757244	0.309146	0.136682
O7	O	1.007244	0.559146	0.386682
O8	O	1.257244	0.809146	0.636682
O9	O	0.582009	-0.015616	-0.113261
O10	O	0.832009	0.234384	0.136739
O11	O	1.082009	0.484384	0.386739
O12	O	1.332009	0.734384	0.636739
O13	O	0.573268	0.125174	-0.113317
O14	O	0.823268	0.375174	0.136683
O15	O	1.073268	0.625174	0.386683
O16	O	1.323268	0.875174	0.636683
O17	O	0.567752	-0.001303	0.113717
O18	O	0.817752	0.248697	0.363717
O19	O	1.067752	0.498697	0.613717
O20	O	1.317752	0.748697	0.863717
O21	O	0.492987	0.073458	0.113660
O22	O	0.742987	0.323458	0.363660
O23	O	0.992987	0.573458	0.613660
O24	O	1.242987	0.823458	0.863660
O25	O	0.633776	0.064725	0.113718
O26	O	0.883776	0.314725	0.363718
O27	O	1.133776	0.564725	0.613718
O28	O	1.383776	0.814725	0.863718
Zn29	Zn	0.561118	0.071364	0.149726
Zn30	Zn	0.811118	0.321364	0.399726
Zn31	Zn	1.061118	0.571364	0.649726
Zn32	Zn	1.311118	0.821364	0.899726
Zn33	Zn	0.579902	0.052506	-0.149327
Zn34	Zn	0.829902	0.302506	0.100673
Zn35	Zn	1.079902	0.552506	0.350673
Zn36	Zn	1.329902	0.802506	0.600673
O37	O	0.559010	0.139486	0.113661
O38	O	0.809010	0.389486	0.363661
O39	O	1.059010	0.639486	0.613661
O40	O	1.309010	0.889486	0.863661
C41	C	0.482109	0.066117	0.000164
C42	C	0.732109	0.316117	0.250164
C43	C	0.982109	0.566117	0.500164
C44	C	1.232109	0.816117	0.750164
C45	C	0.428456	0.065560	0.000143
C46	C	0.678456	0.315560	0.250143
C47	C	0.928456	0.565560	0.500143
C48	C	1.178456	0.815560	0.750143
C49	C	0.051377	0.017598	0.000239
C50	C	0.301377	0.267598	0.250239
C51	C	0.551377	0.517598	0.500239
C52	C	0.801377	0.767598	0.750239
C53	C	0.253040	0.019642	0.000203
C54	C	0.503040	0.269642	0.250203
C55	C	0.753040	0.519642	0.500203
C56	C	1.003040	0.769642	0.750203
O57	O	0.284288	-0.017575	0.000269
O58	O	0.534288	0.232425	0.250269
O59	O	0.784288	0.482425	0.500269
O60	O	1.034288	0.732425	0.750269
N61	N	0.272169	0.063975	0.000179
N62	N	0.522169	0.313975	0.250179
N63	N	0.772169	0.563975	0.500179
N64	N	1.022169	0.813975	0.750179
C65	C	0.240878	0.107801	0.000174
C66	C	0.490878	0.357801	0.250174
C67	C	0.740878	0.607801	0.500174
C68	C	0.990878	0.857801	0.750174
O69	O	0.261775	0.145556	0.000167
O70	O	0.511775	0.395556	0.250167
O71	O	0.761775	0.645556	0.500167
O72	O	1.011775	0.895556	0.750167
C73	C	0.039216	0.105757	0.000220
C74	C	0.289216	0.355757	0.250220
C75	C	0.539216	0.605757	0.500220
C76	C	0.789216	0.855757	0.750220
C77	C	0.020091	0.061420	0.000230
C78	C	0.270091	0.311420	0.250230
C79	C	0.520091	0.561420	0.500230
C80	C	0.770091	0.811420	0.750230
C81	C	0.032252	-0.026734	0.000251
C82	C	0.282252	0.223266	0.250251
C83	C	0.532252	0.473266	0.500251
C84	C	0.782252	0.723266	0.750251
C85	C	-0.018161	-0.027245	0.000252
C86	C	0.231839	0.222755	0.250252
C87	C	0.481839	0.472755	0.500252
C88	C	0.731839	0.722755	0.750252
C89	C	-0.049447	0.016576	0.000243
C90	C	0.200553	0.266576	0.250243
C91	C	0.450553	0.516576	0.500243
C92	C	0.700553	0.766576	0.750243
C93	C	-0.030321	0.060909	0.000231
C94	C	0.219679	0.310909	0.250231
C95	C	0.469679	0.560909	0.500231
C96	C	0.719679	0.810909	0.750231
C97	C	0.007926	0.149582	0.000224
C98	C	0.257926	0.399582	0.250224
C99	C	0.507926	0.649582	0.500224
C100	C	0.757926	0.899582	0.750224
C101	C	-0.042493	0.149068	0.000239
C102	C	0.207507	0.399068	0.250239
C103	C	0.457507	0.649068	0.500239
C104	C	0.707507	0.899068	0.750239
C105	C	-0.061618	0.104731	0.000249
C106	C	0.188382	0.354731	0.250249
C107	C	0.438382	0.604731	0.500249
C108	C	0.688382	0.854731	0.750249
C109	C	-0.112020	0.104220	0.000223
C110	C	0.137980	0.354220	0.250223
C111	C	0.387980	0.604220	0.500223
C112	C	0.637980	0.854220	0.750223
N113	N	-0.131149	0.059887	0.000247
N114	N	0.118851	0.309887	0.250247
N115	N	0.368851	0.559887	0.500247
N116	N	0.618851	0.809887	0.750247
C117	C	-0.099863	0.016066	0.000257
C118	C	0.150137	0.266066	0.250257
C119	C	0.400137	0.516066	0.500257
C120	C	0.650137	0.766066	0.750257
C121	C	0.346754	0.108870	0.000147
C122	C	0.596754	0.358870	0.250147
C123	C	0.846754	0.608870	0.500147
C124	C	1.096754	0.858870	0.750147
C125	C	0.397170	0.109381	0.000133
C126	C	0.647170	0.359381	0.250133
C127	C	0.897170	0.609381	0.500133
C128	C	1.147170	0.859381	0.750133
C129	C	0.409328	0.021223	0.000165
C130	C	0.659328	0.271223	0.250165
C131	C	0.909328	0.521223	0.500165
C132	C	1.159328	0.771223	0.750165
C133	C	0.358912	0.020712	0.000169
C134	C	0.608912	0.270712	0.250169
C135	C	0.858912	0.520712	0.500169
C136	C	1.108912	0.770712	0.750169
C137	C	0.327625	0.064538	0.000171
C138	C	0.577625	0.314538	0.250171
C139	C	0.827625	0.564538	0.500171
C140	C	1.077625	0.814538	0.750171
C141	C	-0.205732	0.014996	0.000259
C142	C	0.044268	0.264996	0.250259
C143	C	0.294268	0.514996	0.500259
C144	C	0.544268	0.764996	0.750259
C145	C	-0.256149	0.014488	0.000255
C146	C	-0.006149	0.264488	0.250255
C147	C	0.243851	0.514488	0.500255
C148	C	0.493851	0.764488	0.750255
C149	C	-0.268303	0.102647	0.000230
C150	C	-0.018303	0.352647	0.250230
C151	C	0.231697	0.602647	0.500230
C152	C	0.481697	0.852647	0.750230
C153	C	-0.217890	0.103154	0.000227
C154	C	0.032110	0.353154	0.250227
C155	C	0.282110	0.603154	0.500227
C156	C	0.532110	0.853154	0.750227
C157	C	-0.186606	0.059325	0.000246
C158	C	0.063394	0.309325	0.250246
C159	C	0.313394	0.559325	0.500246
C160	C	0.563394	0.809325	0.750246
O161	O	-0.143298	0.141418	0.000173
O162	O	0.106702	0.391418	0.250173
O163	O	0.356702	0.641418	0.500173
O164	O	0.606702	0.891418	0.750173
O165	O	-0.120771	-0.021683	0.000294
O166	O	0.129229	0.228317	0.250294
O167	O	0.379229	0.478317	0.500294
O168	O	0.629229	0.728317	0.750294
C169	C	0.101790	0.018109	0.000238
C170	C	0.351790	0.268109	0.250238
C171	C	0.601790	0.518109	0.500238
C172	C	0.851790	0.768109	0.750238
C173	C	0.120915	0.062442	0.000226
C174	C	0.370915	0.312442	0.250226
C175	C	0.620915	0.562442	0.500226
C176	C	0.870915	0.812442	0.750226
C177	C	0.089629	0.106264	0.000217
C178	C	0.339629	0.356264	0.250217
C179	C	0.589629	0.606264	0.500217
C180	C	0.839629	0.856264	0.750217
C181	C	0.171331	0.062953	0.000212
C182	C	0.421331	0.312953	0.250212
C183	C	0.671331	0.562953	0.500212
C184	C	0.921331	0.812953	0.750212
C185	C	0.202617	0.019131	0.000222
C186	C	0.452617	0.269131	0.250222
C187	C	0.702617	0.519131	0.500222
C188	C	0.952617	0.769131	0.750222
C189	C	0.183488	-0.025201	0.000246
C190	C	0.433488	0.224799	0.250246
C191	C	0.683488	0.474799	0.500246
C192	C	0.933488	0.724799	0.750246
C193	C	0.133076	-0.025712	0.000247
C194	C	0.383076	0.224288	0.250247
C195	C	0.633076	0.474288	0.500247
C196	C	0.883076	0.724288	0.750247
C197	C	0.108758	0.150597	0.000193
C198	C	0.358758	0.400597	0.250193
C199	C	0.608758	0.650597	0.500193
C200	C	0.858758	0.900597	0.750193
C201	C	0.159171	0.151104	0.000190
C202	C	0.409171	0.401104	0.250190
C203	C	0.659171	0.651104	0.500190
C204	C	0.909171	0.901104	0.750190
C205	C	0.190457	0.107282	0.000200
C206	C	0.440457	0.357282	0.250200
C207	C	0.690457	0.607282	0.500200
C208	C	0.940457	0.857282	0.750200
C209	C	0.574697	-0.026466	0.000231
C210	C	0.824697	0.223534	0.250231
C211	C	1.074697	0.473534	0.500231
C212	C	1.324697	0.723534	0.750231
C213	C	0.574144	-0.080120	0.000242
C214	C	0.824144	0.169880	0.250242
C215	C	1.074144	0.419880	0.500242
C216	C	1.324144	0.669880	0.750242
C217	C	0.614850	-0.418936	0.000189
C218	C	0.864850	-0.168936	0.250189
C219	C	1.114850	0.081064	0.500189
C220	C	1.364850	0.331064	0.750189
C221	C	0.612801	-0.620597	0.000169
C222	C	0.862801	-0.370597	0.250169
C223	C	1.112801	-0.120597	0.500169
C224	C	1.362801	0.129403	0.750169
O225	O	0.650024	-0.651854	0.000125
O226	O	0.900024	-0.401854	0.250125
O227	O	1.150024	-0.151854	0.500125
O228	O	1.400024	0.098146	0.750125
N229	N	0.568467	-0.639725	0.000152
N230	N	0.818467	-0.389725	0.250152
N231	N	1.068467	-0.139725	0.500152
N232	N	1.318467	0.110275	0.750152
C233	C	0.524643	-0.608434	0.000131
C234	C	0.774643	-0.358434	0.250131
C235	C	1.024643	-0.108434	0.500131
C236	C	1.274643	0.141566	0.750131
O237	O	0.486888	-0.629331	0.000102
O238	O	0.736888	-0.379331	0.250102
O239	O	0.986888	-0.129331	0.500102
O240	O	1.236888	0.120669	0.750102
C241	C	0.526694	-0.406775	0.000141
C242	C	0.776694	-0.156775	0.250141
C243	C	1.026694	0.093225	0.500141
C244	C	1.276694	0.343225	0.750141
C245	C	0.571030	-0.387649	0.000172
C246	C	0.821030	-0.137649	0.250172
C247	C	1.071030	0.112351	0.500172
C248	C	1.321030	0.362351	0.750172
C249	C	0.659183	-0.399811	0.000219
C250	C	0.909183	-0.149811	0.250219
C251	C	1.159183	0.100189	0.500219
C252	C	1.409183	0.350189	0.750219
C253	C	0.659694	-0.349398	0.000231
C254	C	0.909694	-0.099398	0.250231
C255	C	1.159694	0.150602	0.500231
C256	C	1.409694	0.400602	0.750231
C257	C	0.615873	-0.318111	0.000214
C258	C	0.865873	-0.068111	0.250214
C259	C	1.115873	0.181889	0.500214
C260	C	1.365873	0.431889	0.750214
C261	C	0.571541	-0.337237	0.000185
C262	C	0.821541	-0.087237	0.250185
C263	C	1.071541	0.162763	0.500185
C264	C	1.321541	0.412763	0.750185
C265	C	0.482871	-0.375486	0.000110
C266	C	0.732871	-0.125486	0.250110
C267	C	0.982871	0.124514	0.500110
C268	C	1.232871	0.374514	0.750110
C269	C	0.483388	-0.325068	0.000110
C270	C	0.733388	-0.075068	0.250110
C271	C	0.983388	0.174932	0.500110
C272	C	1.233388	0.424932	0.750110
C273	C	0.527724	-0.305943	0.000140
C274	C	0.777724	-0.055943	0.250140
C275	C	1.027724	0.194057	0.500140
C276	C	1.277724	0.444057	0.750140
C277	C	0.528232	-0.255537	0.000180
C278	C	0.778232	-0.005537	0.250180
C279	C	1.028232	0.244463	0.500180
C280	C	1.278232	0.494463	0.750180
N281	N	0.572566	-0.236410	0.000197
N282	N	0.822566	0.013590	0.250197
N283	N	1.072566	0.263590	0.500197
N284	N	1.322566	0.513590	0.750197
C285	C	0.616386	-0.267696	0.000214
C286	C	0.866386	-0.017696	0.250214
C287	C	1.116386	0.232304	0.500214
C288	C	1.366386	0.482304	0.750214
C289	C	0.523569	-0.714309	0.000129
C290	C	0.773569	-0.464309	0.250129
C291	C	1.023569	-0.214309	0.500129
C292	C	1.273569	0.035691	0.750129
C293	C	0.523056	-0.764723	0.000129
C294	C	0.773056	-0.514723	0.250129
C295	C	1.023056	-0.264723	0.500129
C296	C	1.273056	-0.014723	0.750129
C297	C	0.611214	-0.776883	0.000164
C298	C	0.861214	-0.526883	0.250164
C299	C	1.111214	-0.276883	0.500164
C300	C	1.361214	-0.026883	0.750164
C301	C	0.611726	-0.726467	0.000174
C302	C	0.861726	-0.476467	0.250174
C303	C	1.111726	-0.226467	0.500174
C304	C	1.361726	0.023533	0.750174
C305	C	0.567903	-0.695181	0.000146
C306	C	0.817903	-0.445181	0.250146
C307	C	1.067903	-0.195181	0.500146
C308	C	1.317903	0.054819	0.750146
C309	C	0.617457	-0.161826	0.000241
C310	C	0.867457	0.088174	0.250241
C311	C	1.117457	0.338174	0.500241
C312	C	1.367457	0.588174	0.750241
C313	C	0.617964	-0.111407	0.000259
C314	C	0.867964	0.138593	0.250259
C315	C	1.117964	0.388593	0.500259
C316	C	1.367964	0.638593	0.750259
C317	C	0.529807	-0.099252	0.000217
C318	C	0.779807	0.150748	0.250217
C319	C	1.029807	0.400748	0.500217
C320	C	1.279807	0.650748	0.750217
C321	C	0.529299	-0.149666	0.000206
C322	C	0.779299	0.100334	0.250206
C323	C	1.029299	0.350334	0.500206
C324	C	1.279299	0.600334	0.750206
C325	C	0.573128	-0.180952	0.000213
C326	C	0.823128	0.069048	0.250213
C327	C	1.073128	0.319048	0.500213
C328	C	1.323128	0.569048	0.750213
O329	O	0.491030	-0.224253	0.000209
O330	O	0.741030	0.025747	0.250209
O331	O	0.991030	0.275747	0.500209
O332	O	1.241030	0.525747	0.750209
O333	O	0.654138	-0.246792	0.000213
O334	O	0.904138	0.003208	0.250213
O335	O	1.154138	0.253208	0.500213
O336	O	1.404138	0.503208	0.750213
C337	C	0.614339	-0.469349	0.000177
C338	C	0.864339	-0.219349	0.250177
C339	C	1.114339	0.030651	0.500177
C340	C	1.364339	0.280651	0.750177
C341	C	0.570007	-0.488475	0.000147
C342	C	0.820007	-0.238475	0.250147
C343	C	1.070007	0.011525	0.500147
C344	C	1.320007	0.261525	0.750147
C345	C	0.526186	-0.457188	0.000130
C346	C	0.776186	-0.207188	0.250130
C347	C	1.026186	0.042812	0.500130
C348	C	1.276186	0.292812	0.750130
C349	C	0.569494	-0.538889	0.000147
C350	C	0.819494	-0.288889	0.250147
C351	C	1.069494	-0.038889	0.500147
C352	C	1.319494	0.211111	0.750147
C353	C	0.613314	-0.570176	0.000164
C354	C	0.863314	-0.320176	0.250164
C355	C	1.113314	-0.070176	0.500164
C356	C	1.363314	0.179824	0.750164
C357	C	0.657648	-0.551049	0.000181
C358	C	0.907648	-0.301049	0.250181
C359	C	1.157648	-0.051049	0.500181
C360	C	1.407648	0.198951	0.750181
C361	C	0.658160	-0.500636	0.000194
C362	C	0.908160	-0.250636	0.250194
C363	C	1.158160	-0.000636	0.500194
C364	C	1.408160	0.249364	0.750194
C365	C	0.481852	-0.476315	0.000113
C366	C	0.731852	-0.226315	0.250113
C367	C	0.981852	0.023685	0.500113
C368	C	1.231852	0.273685	0.750113
C369	C	0.481344	-0.526729	0.000103
C370	C	0.731344	-0.276729	0.250103
C371	C	0.981344	-0.026729	0.500103
C372	C	1.231344	0.223271	0.750103
C373	C	0.525165	-0.558016	0.000119
C374	C	0.775165	-0.308016	0.250119
C375	C	1.025165	-0.058016	0.500119
C376	C	1.275165	0.191984	0.750119
C377	C	0.658911	0.057753	0.000233
C378	C	0.908911	0.307753	0.250233
C379	C	1.158911	0.557753	0.500233
C380	C	1.408911	0.807753	0.750233
C381	C	0.712564	0.058310	0.000245
C382	C	0.962564	0.308310	0.250245
C383	C	1.212564	0.558310	0.500245
C384	C	1.462564	0.808310	0.750245
C385	C	0.566323	0.150336	0.000165
C386	C	0.816323	0.400336	0.250165
C387	C	1.066323	0.650336	0.500165
C388	C	1.316323	0.900336	0.750165
C389	C	0.566877	0.203990	0.000145
C390	C	0.816877	0.453990	0.250145
C391	C	1.066877	0.703990	0.500145
C392	C	1.316877	0.953990	0.750145
N393	N	0.548301	0.084234	0.353822
N394	N	0.798301	0.334234	0.603822
N395	N	1.048301	0.584234	0.853822
N396	N	1.298301	0.834234	1.103822
N397	N	0.592722	0.039633	-0.353422
N398	N	0.842722	0.289633	-0.103422
N399	N	1.092722	0.539633	0.146578
N400	N	1.342722	0.789633	0.396578
C401	C	0.575440	0.056981	0.421622
C402	C	0.825440	0.306981	0.671622
C403	C	1.075440	0.556981	0.921622
C404	C	1.325440	0.806981	1.171622
C405	C	0.565580	0.066889	0.578782
C406	C	0.815580	0.316889	0.828782
C407	C	1.065580	0.566889	1.078782
C408	C	1.315580	0.816889	1.328782
H409	H	-0.067965	0.184757	0.000247
H410	H	0.182035	0.434757	0.250247
H411	H	0.432035	0.684757	0.500247
H412	H	0.682035	0.934757	0.750247
O413	O	0.615885	0.016356	0.344400
O414	O	0.865885	0.266356	0.594400
O415	O	1.115885	0.516356	0.844400
O416	O	1.365885	0.766356	1.094400
H417	H	0.634262	-0.002103	0.417971
H418	H	0.884262	0.247897	0.667971
H419	H	1.134262	0.497897	0.917971
H420	H	1.384262	0.747897	1.167971
O421	O	0.217241	-0.072466	0.000261
O422	O	0.467241	0.177534	0.250261
O423	O	0.717241	0.427534	0.500261
O424	O	0.967241	0.677534	0.750261
H425	H	0.195476	-0.103384	0.000266
H426	H	0.445476	0.146616	0.250266
H427	H	0.695476	0.396616	0.500266
H428	H	0.945476	0.646616	0.750266
O429	O	0.434582	-0.442577	0.000111
O430	O	0.684582	-0.192577	0.250111
O431	O	0.934582	0.057423	0.500111
O432	O	1.184582	0.307423	0.750111
H433	H	0.438506	-0.425144	-0.092399
H434	H	0.688506	-0.175144	0.157601
H435	H	0.938506	0.074856	0.407601
H436	H	1.188506	0.324856	0.657601
O437	O	-0.171994	-0.032276	0.000283
O438	O	0.078006	0.217724	0.250283
O439	O	0.328006	0.467724	0.500283
O440	O	0.578006	0.717724	0.750283
H441	H	-0.142926	-0.039986	-0.092224
H442	H	0.107074	0.210014	0.157776
H443	H	0.357074	0.460014	0.407776
H444	H	0.607074	0.710014	0.657776
O445	O	0.476296	-0.680570	0.000118
O446	O	0.726296	-0.430570	0.250118
O447	O	0.976296	-0.180570	0.500118
O448	O	1.226296	0.069430	0.750118
H449	H	0.480220	-0.663141	-0.092398
H450	H	0.730220	-0.413141	0.157602
H451	H	0.980220	-0.163141	0.407602
H452	H	1.230220	0.086859	0.657602
H453	H	0.434810	-0.014459	0.000168
H454	H	0.684810	0.235541	0.250168
H455	H	0.934810	0.485541	0.500168
H456	H	1.184810	0.735541	0.750168
H457	H	0.412738	0.145483	0.000106
H458	H	0.662738	0.395483	0.250106
H459	H	0.912738	0.645483	0.500106
H460	H	1.162738	0.895483	0.750106
O461	O	0.179796	0.198928	0.000197
O462	O	0.429796	0.448928	0.250197
O463	O	0.679796	0.698928	0.500197
O464	O	0.929796	0.948928	0.750197
H465	H	0.149564	0.229313	0.000210
H466	H	0.399564	0.479313	0.250210
H467	H	0.649564	0.729313	0.500210
H468	H	0.899564	0.979313	0.750210
O469	O	0.525138	0.107520	0.656007
O470	O	0.775138	0.357520	0.906007
O471	O	1.025138	0.607520	1.156007
O472	O	1.275138	0.857520	1.406007
H473	H	0.532835	0.143413	0.628635
H474	H	0.782835	0.393413	0.878635
H475	H	1.032835	0.643413	1.128635
H476	H	1.282835	0.893413	1.378635
O477	O	0.065994	-0.074003	0.000259
O478	O	0.315994	0.175997	0.250259
O479	O	0.565994	0.425997	0.500259
O480	O	0.815994	0.675997	0.750259
H481	H	0.044216	-0.104912	0.000261
H482	H	0.294216	0.145088	0.250261
H483	H	0.544216	0.395088	0.500261
H484	H	0.794216	0.645088	0.750261
H485	H	0.623257	0.008962	0.588280
H486	H	0.873257	0.258962	0.838280
H487	H	1.123257	0.508962	1.088280
H488	H	1.373257	0.758962	1.338280
H489	H	0.517766	0.114899	0.412125
H490	H	0.767766	0.364899	0.662125
H491	H	1.017766	0.614899	0.912125
H492	H	1.267766	0.864899	1.162125
O493	O	-0.302056	0.149909	0.000221
O494	O	-0.052056	0.399909	0.250221
O495	O	0.197944	0.649909	0.500221
O496	O	0.447944	0.899909	0.750221
H497	H	-0.280290	0.180826	0.000203
H498	H	-0.030290	0.430826	0.250203
H499	H	0.219710	0.680826	0.500203
H500	H	0.469710	0.930826	0.750203
O501	O	-0.197259	0.150973	0.000203
O502	O	0.052741	0.400973	0.250203
O503	O	0.302741	0.650973	0.500203
O504	O	0.552741	0.900973	0.750203
H505	H	-0.180387	0.159145	0.092715
H506	H	0.069613	0.409145	0.342715
H507	H	0.319613	0.659145	0.592715
H508	H	0.569613	0.909145	0.842715
H509	H	0.447701	-0.299597	0.000085
H510	H	0.697701	-0.049597	0.250085
H511	H	0.947701	0.200403	0.500085
H512	H	1.197701	0.450403	0.750085
H513	H	0.494129	-0.073769	0.000208
H514	H	0.744129	0.176231	0.250208
H515	H	0.994129	0.426231	0.500208
H516	H	1.244129	0.676231	0.750208
H517	H	0.343344	-0.015391	0.000178
H518	H	0.593344	0.234609	0.250178
H519	H	0.843344	0.484609	0.500178
H520	H	1.093344	0.734609	0.750178
O521	O	0.313011	0.156142	0.000139
O522	O	0.563011	0.406142	0.250139
O523	O	0.813011	0.656142	0.500139
O524	O	1.063011	0.906142	0.750139
H525	H	0.334789	0.187050	0.000107
H526	H	0.584789	0.437050	0.250107
H527	H	0.834789	0.687050	0.500107
H528	H	1.084789	0.937050	0.750107
H529	H	-0.271717	-0.021618	0.000259
H530	H	-0.021717	0.228382	0.250259
H531	H	0.228283	0.478382	0.500259
H532	H	0.478283	0.728382	0.750259
O533	O	0.112452	-0.073532	0.000284
O534	O	0.362452	0.176468	0.250284
O535	O	0.612452	0.426468	0.500284
O536	O	0.862452	0.676468	0.750284
H537	H	0.130854	-0.100406	-0.092213
H538	H	0.380854	0.149594	0.157787
H539	H	0.630854	0.399594	0.407787
H540	H	0.880854	0.649594	0.657787
O541	O	0.075016	0.197864	0.000184
O542	O	0.325016	0.447864	0.250184
O543	O	0.575016	0.697864	0.500184
O544	O	0.825016	0.947864	0.750184
H545	H	0.087583	0.213261	-0.092344
H546	H	0.337583	0.463261	0.157656
H547	H	0.587583	0.713261	0.407656
H548	H	0.837583	0.963261	0.657656
O549	O	-0.038784	-0.075065	0.000298
O550	O	0.211216	0.174935	0.250298
O551	O	0.461216	0.424935	0.500298
O552	O	0.711216	0.674935	0.750298
H553	H	-0.020383	-0.101941	-0.092195
H554	H	0.229617	0.148059	0.157805
H555	H	0.479617	0.398059	0.407805
H556	H	0.729617	0.648059	0.657805
O557	O	0.028539	0.197408	0.000247
O558	O	0.278539	0.447408	0.250247
O559	O	0.528539	0.697408	0.500247
O560	O	0.778539	0.947408	0.750247
H561	H	0.021744	0.212623	-0.092252
H562	H	0.271744	0.462623	0.157748
H563	H	0.521744	0.712623	0.407748
H564	H	0.771744	0.962623	0.657748
O565	O	0.665786	-0.090780	0.000271
O566	O	0.915786	0.159220	0.250271
O567	O	1.165786	0.409220	0.500271
O568	O	1.415786	0.659220	0.750271
H569	H	0.696172	-0.121010	0.000261
H570	H	0.946172	0.128990	0.250261
H571	H	1.196172	0.378990	0.500261
H572	H	1.446172	0.628990	0.750261
O573	O	0.664727	-0.195565	0.000270
O574	O	0.914727	0.054435	0.250270
O575	O	1.164727	0.304435	0.500270
O576	O	1.414727	0.554435	0.750270
H577	H	0.695635	-0.173788	0.000309
H578	H	0.945635	0.076212	0.250309
H579	H	1.195635	0.326212	0.500309
H580	H	1.445635	0.576212	0.750309
H581	H	0.695797	-0.333832	0.000250
H582	H	0.945797	-0.083832	0.250250
H583	H	1.195797	0.166168	0.500250
H584	H	1.445797	0.416168	0.750250
H585	H	0.694869	-0.425281	0.000227
H586	H	0.944869	-0.175281	0.250227
H587	H	1.194869	0.074719	0.500227
H588	H	1.444869	0.324719	0.750227
H589	H	0.646895	-0.802366	0.000179
H590	H	0.896895	-0.552366	0.250179
H591	H	1.146895	-0.302366	0.500179
H592	H	1.396895	-0.052366	0.750179
O593	O	0.659546	-0.705841	0.000182
O594	O	0.909546	-0.455841	0.250182
O595	O	1.159546	-0.205841	0.500182
O596	O	1.409546	0.044159	0.750182
H597	H	0.689929	-0.736072	0.000182
H598	H	0.939929	-0.486072	0.250182
H599	H	1.189929	-0.236072	0.500182
H600	H	1.439929	0.013928	0.750182
H601	H	0.486952	-0.780288	0.000127
H602	H	0.736952	-0.530288	0.250127
H603	H	0.986952	-0.280288	0.500127
H604	H	1.236952	-0.030288	0.750127
O605	O	0.435052	-0.396107	0.000072
O606	O	0.685052	-0.146107	0.250072
O607	O	0.935052	0.103893	0.500072
O608	O	1.185052	0.353893	0.750072
H609	H	0.404673	-0.365876	0.000044
H610	H	0.654673	-0.115876	0.250044
H611	H	0.904673	0.134124	0.500044
H612	H	1.154673	0.384124	0.750044
H613	H	0.493195	-0.165236	0.000219
H614	H	0.743195	0.084764	0.250219
H615	H	0.993195	0.334764	0.500219
H616	H	1.243195	0.584764	0.750219
H617	H	0.693328	-0.576531	0.000201
H618	H	0.943328	-0.326531	0.250201
H619	H	1.193328	-0.076531	0.500201
H620	H	1.443328	0.173469	0.750201
O621	O	0.705981	-0.480012	0.000200
O622	O	0.955981	-0.230012	0.250200
O623	O	1.205981	0.019988	0.500200
O624	O	1.455981	0.269988	0.750200
H625	H	0.736363	-0.510245	0.000192
H626	H	0.986363	-0.260245	0.250192
H627	H	1.236363	-0.010245	0.500192
H628	H	1.486363	0.239755	0.750192
H629	H	0.445237	-0.542294	0.000089
H630	H	0.695237	-0.292294	0.250089
H631	H	0.945237	-0.042294	0.500089
H632	H	1.195237	0.207706	0.750089
