data_functionalizedCrystal
_audit_creation_method	'MofGen! by Chris Wilmer'
_symmetry_space_group_name_H-M	'P1'
_symmetry_Int_Tables_number	1
_symmetry_cell_setting	triclinic
loop_
_symmetry_equiv_pos_as_xyz
  x,y,z
_cell_length_a	34.490303
_cell_length_b	34.489386
_cell_length_c	34.485816
_cell_angle_alpha	60.004462
_cell_angle_beta	60.008900
_cell_angle_gamma	59.994399
loop_
_atom_site_label
_atom_site_type_symbol
_atom_site_fract_x
_atom_site_fract_y
_atom_site_fract_z
O1	O	0.053846	-0.566517	0.473678
O2	O	0.020329	-0.441078	0.381663
O3	O	0.099768	-0.520436	0.381578
O4	O	-0.025592	-0.487159	0.473762
O5	O	0.126127	-0.494082	0.407849
O6	O	0.046689	-0.414724	0.407933
O7	O	0.080206	-0.540163	0.499949
Zn8	Zn	0.067632	-0.473259	0.458112
Zn9	Zn	0.032903	-0.507982	0.423499
O10	O	0.000767	-0.460805	0.500033
N11	N	0.091336	-0.449565	0.481736
N12	N	0.009203	-0.531680	0.399875
C13	C	0.142510	-0.268211	0.532817
C14	C	0.142641	-0.398441	0.662987
C15	C	0.142524	-0.398421	0.532817
C16	C	0.272762	-0.398394	0.532723
C17	C	0.156853	-0.311177	0.547124
C18	C	0.156928	-0.384109	0.620020
C19	C	0.229794	-0.384081	0.547073
C20	C	0.156863	-0.384097	0.547124
C21	C	0.124253	-0.213522	0.514606
C22	C	0.124277	-0.416652	0.514606
C23	C	0.175110	-0.365866	0.565335
C24	C	0.352285	-0.384669	0.490824
C25	C	0.401998	-0.401229	0.474223
C26	C	0.402027	-0.481671	0.504898
C27	C	0.352316	-0.465109	0.521500
C28	C	0.136220	-0.188652	0.465734
C29	C	0.119621	-0.138936	0.449181
C30	C	0.079092	-0.138961	0.530374
C31	C	0.095691	-0.188678	0.546927
C32	C	0.075398	-0.404656	0.526651
C33	C	0.058814	-0.421229	0.510091
C34	C	0.139984	-0.461794	0.469452
C35	C	0.156570	-0.445221	0.486007
C36	C	0.075593	-0.404694	0.742565
C37	C	0.059066	-0.421281	0.792280
C38	C	0.140274	-0.461856	0.792215
C39	C	0.156800	-0.445269	0.742499
C40	C	0.124458	-0.416687	0.717675
C41	C	0.327446	-0.416608	0.514460
C42	C	-0.023585	-0.564792	0.161919
C43	C	-0.023910	-0.769260	0.366530
C44	C	-0.023880	-0.564780	0.366623
C45	C	-0.228325	-0.564561	0.366222
C46	C	-0.129610	-0.597564	0.333467
C47	C	-0.056729	-0.597644	0.333613
C48	C	-0.074925	-0.615849	0.315324
C49	C	-0.088689	-0.695351	0.357144
C50	C	-0.072155	-0.745068	0.373736
C51	C	0.008283	-0.745150	0.343188
C52	C	-0.008252	-0.695435	0.326596
C53	C	-0.154529	-0.609541	0.382326
C54	C	-0.204241	-0.592916	0.398818
C55	C	-0.204114	-0.552341	0.317588
C56	C	-0.154401	-0.568966	0.301096
C57	C	-0.068707	-0.548770	0.321590
C58	C	-0.052166	-0.532225	0.338221
C59	C	-0.011669	-0.613425	0.378886
C60	C	-0.028210	-0.629972	0.362261
C61	C	-0.068581	-0.548777	0.235758
C62	C	-0.051939	-0.532234	0.186043
C63	C	-0.011379	-0.613438	0.186090
C64	C	-0.028020	-0.629981	0.235806
C65	C	-0.056622	-0.597649	0.260639
C66	C	-0.056739	-0.670537	0.333576
C67	C	-0.005614	-0.545951	0.107238
C68	C	-0.006360	-0.823943	0.385033
C69	C	-0.005995	-0.545937	0.384582
C70	C	-0.283006	-0.545971	0.383725
N71	N	0.426163	-0.449489	0.481488
O72	O	0.588601	-0.457377	0.364497
O73	O	0.588789	-0.549696	0.489801
O74	O	0.588709	-0.549485	0.410335
O75	O	0.588681	-0.457588	0.443963
O76	O	0.509731	-0.523223	0.436741
O77	O	0.509811	-0.523434	0.516207
O78	O	0.509624	-0.431115	0.390903
Zn79	Zn	0.497178	-0.473105	0.457747
Zn80	Zn	0.601234	-0.507706	0.422956
O81	O	0.509704	-0.431326	0.470368
N82	N	0.672250	-0.531322	0.399211
N83	N	0.091303	-0.114798	0.481730
O84	O	-0.025603	0.047729	0.473733
O85	O	0.099703	0.047764	0.381394
O86	O	0.020199	0.047731	0.381655
O87	O	0.053901	0.047761	0.473472
O88	O	0.046564	-0.031252	0.407974
O89	O	0.126068	-0.031219	0.407713
O90	O	0.000762	-0.031254	0.500052
Zn91	Zn	0.067601	-0.043777	0.458061
Zn92	Zn	0.032864	0.060287	0.423385
O93	O	0.080266	-0.031222	0.499791
N94	N	0.009156	0.131307	0.399717
N95	N	0.091635	-0.449614	0.816396
O96	O	0.083664	-0.566502	0.978913
O97	O	-0.008637	-0.441152	0.978954
O98	O	-0.008421	-0.520640	0.978930
O99	O	0.083448	-0.487013	0.978936
O100	O	0.017877	-0.494296	0.899950
O101	O	0.017661	-0.414807	0.899974
O102	O	0.109961	-0.540157	0.899933
Zn103	Zn	0.067986	-0.473299	0.887414
Zn104	Zn	0.033338	-0.508010	0.991473
O105	O	0.109746	-0.460669	0.899956
N106	N	0.009689	-0.531700	1.062491
C107	C	0.030367	-0.412095	0.382120
C108	C	0.128741	-0.510370	0.382016
C109	C	0.070168	-0.569147	0.499490
C110	C	-0.028207	-0.470871	0.499595
C111	C	0.549323	-0.549278	0.518791
C112	C	0.549225	-0.549017	0.420381
C113	C	0.549087	-0.431532	0.361914
C114	C	0.549188	-0.431794	0.460322
C115	C	0.128638	0.008374	0.381806
C116	C	0.030215	0.008236	0.382161
C117	C	-0.028206	0.008233	0.499608
C118	C	0.070250	0.008272	0.499285
C119	C	-0.008199	-0.412187	0.939469
C120	C	-0.007927	-0.510619	0.939425
C121	C	0.109523	-0.569121	0.939417
C122	C	0.109257	-0.470684	0.939444
H123	H	0.049253	-0.381417	0.722357
H124	H	0.549237	-0.577886	0.413185
H125	H	0.164551	0.008603	0.352745
O126	O	0.021541	0.008193	0.347809
C127	C	-0.034905	0.008164	0.326133
C128	C	-0.025145	0.008212	0.365079
H129	H	-0.072653	0.008189	0.340078
H130	H	-0.008640	-0.024902	0.315765
H131	H	-0.030656	0.041206	0.293709
H132	H	-0.029400	-0.024809	0.397529
H133	H	-0.051408	0.041299	0.375407
H134	H	-0.064213	-0.463781	0.528541
O135	O	0.078779	-0.612168	0.533911
C136	C	0.135149	-0.690334	0.555750
C137	C	0.125457	-0.641638	0.516724
H138	H	0.172891	-0.714170	0.541872
H139	H	0.108866	-0.707485	0.566144
H140	H	0.130873	-0.685381	0.588142
H141	H	0.129739	-0.646549	0.484306
H142	H	0.151739	-0.624503	0.506370
O143	O	0.171313	-0.489495	0.441613
C144	C	0.199687	-0.498305	0.365914
C145	C	0.164174	-0.466898	0.397400
H146	H	0.193934	-0.480043	0.330158
H147	H	0.193980	-0.534071	0.384087
H148	H	0.237464	-0.504039	0.360179
H149	H	0.126383	-0.461126	0.403145
H150	H	0.169922	-0.431152	0.379212
O151	O	-0.042389	-0.519191	0.939467
C152	C	-0.121471	-0.523599	0.980315
C153	C	-0.082480	-0.513890	0.980331
H154	H	-0.153898	-0.519307	1.013345
H155	H	-0.107576	-0.561337	0.980323
H156	H	-0.131815	-0.497304	0.947241
H157	H	-0.072119	-0.540155	1.013400
H158	H	-0.096397	-0.476139	0.980298
H159	H	0.138503	-0.605120	0.939399
H160	H	0.549371	-0.578259	0.554780
H161	H	0.138119	-0.463487	0.939440
O162	O	-0.228505	-0.604569	0.446271
C163	C	-0.284693	-0.642772	0.512017
C164	C	-0.257253	-0.629595	0.458270
H165	H	-0.307936	-0.663016	0.521736
H166	H	-0.308000	-0.609036	0.521799
H167	H	-0.258428	-0.666049	0.532312
H168	H	-0.283484	-0.606330	0.437938
H169	H	-0.233940	-0.663350	0.448524
O170	O	-0.071173	0.008313	0.534149
C171	C	-0.155657	0.049209	0.557103
C172	C	-0.107027	0.049180	0.517949
H173	H	-0.184659	0.082241	0.544016
H174	H	-0.155723	0.049248	0.590175
H175	H	-0.162591	0.016134	0.566095
H176	H	-0.100062	0.082249	0.508916
H177	H	-0.106984	0.049115	0.484902
O178	O	0.011580	-0.409561	0.816380
C179	C	-0.067220	-0.367580	0.811191
C180	C	-0.013456	-0.380806	0.783838
H181	H	-0.087478	-0.344337	0.784893
H182	H	-0.077015	-0.347317	0.834455
H183	H	-0.076970	-0.401328	0.834479
H184	H	-0.003668	-0.347082	0.760524
H185	H	-0.003690	-0.401087	0.760604
H186	H	0.549182	-0.402927	0.467517
O187	O	0.549037	-0.397010	0.318951
C188	C	0.548905	-0.374914	0.240757
C189	C	0.548974	-0.414056	0.289385
H190	H	0.548844	-0.388678	0.216842
H191	H	0.581944	-0.364526	0.223641
H192	H	0.515840	-0.342545	0.245800
H193	H	0.582018	-0.446451	0.284383
H194	H	0.515914	-0.424404	0.306485
H195	H	0.077468	0.008281	0.528131
H196	H	0.023205	-0.376060	0.353221
H197	H	-0.037176	-0.376187	0.939482
H198	H	0.196592	-0.455039	0.722237
O199	O	0.171755	-0.489630	0.816256
C200	C	0.254047	-0.528106	0.810945
C201	C	0.218448	-0.496650	0.783660
H202	H	0.291806	-0.533783	0.784603
H203	H	0.248376	-0.563892	0.834201
H204	H	0.248310	-0.509900	0.834235
H205	H	0.224164	-0.514814	0.760344
H206	H	0.224127	-0.460866	0.760434
H207	H	0.019013	-0.411451	0.519888
O208	O	0.043964	-0.376889	0.554407
C209	C	-0.038298	-0.338420	0.592987
C210	C	-0.002751	-0.369861	0.561540
H211	H	-0.076075	-0.332737	0.598772
H212	H	-0.032622	-0.302636	0.574778
H213	H	-0.032509	-0.356642	0.628722
H214	H	-0.008519	-0.351681	0.525800
H215	H	-0.008436	-0.405644	0.579786
H216	H	0.164745	-0.517463	0.353068
H217	H	0.011902	-0.639768	0.165877
H218	H	0.196371	-0.454985	0.476195
H219	H	0.422274	-0.521162	0.510626
O220	O	0.328262	-0.496198	0.544433
C221	C	0.333545	-0.577739	0.573129
C222	C	0.360844	-0.542579	0.547140
H223	H	0.359876	-0.615246	0.575334
H224	H	0.310259	-0.567800	0.552824
H225	H	0.310284	-0.576200	0.610502
H226	H	0.384131	-0.544099	0.509767
H227	H	0.384100	-0.552529	0.567481
H228	H	0.422223	-0.375220	0.454977
H229	H	0.332037	-0.345175	0.485091
H230	H	0.129365	-0.118686	0.409385
O231	O	0.163942	-0.212710	0.434273
C232	C	0.202407	-0.207438	0.351992
C233	C	0.171000	-0.180131	0.387569
H234	H	0.208132	-0.181109	0.314224
H235	H	0.184202	-0.230708	0.357700
H236	H	0.238171	-0.230717	0.357719
H237	H	0.135231	-0.156825	0.381863
H238	H	0.189242	-0.156890	0.381852
H239	H	0.055841	-0.118733	0.556693
H240	H	0.085944	-0.208923	0.586721
H241	H	-0.061683	-0.492436	0.165791
H242	H	-0.018278	-0.669778	0.256062
O243	O	-0.096336	-0.517303	0.259806
C244	C	-0.134817	-0.435013	0.254512
C245	C	-0.103379	-0.470602	0.227218
H246	H	-0.140530	-0.397247	0.228176
H247	H	-0.116642	-0.440726	0.277820
H248	H	-0.170584	-0.440723	0.277751
H249	H	-0.067607	-0.464913	0.203953
H250	H	-0.121592	-0.464879	0.203940
H251	H	-0.061921	-0.492427	0.328433
O252	O	0.016015	-0.644893	0.406723
C253	C	0.054463	-0.727182	0.445276
C254	C	0.023099	-0.691595	0.413754
H255	H	0.060208	-0.764949	0.450962
H256	H	0.036210	-0.721473	0.481052
H257	H	0.090220	-0.721467	0.427121
H258	H	-0.012664	-0.697289	0.431868
H259	H	0.041389	-0.697314	0.377980
H260	H	-0.018458	-0.669769	0.372051
O261	O	0.022840	-0.671381	0.303654
C262	C	0.091797	-0.656226	0.236718
C263	C	0.056626	-0.683504	0.262660
H264	H	0.119115	-0.666010	0.203565
H265	H	0.110650	-0.666024	0.261288
H266	H	0.071638	-0.616418	0.226081
H267	H	0.076748	-0.723319	0.273300
H268	H	0.037773	-0.673666	0.238074
O269	O	0.055365	-0.769413	0.336470
C270	C	0.116489	-0.846042	0.348470
C271	C	0.063157	-0.818625	0.356121
H272	H	0.122807	-0.885835	0.364344
H273	H	0.128822	-0.836319	0.366560
H274	H	0.137329	-0.836265	0.308806
H275	H	0.042280	-0.828387	0.395773
H276	H	0.050862	-0.828351	0.337999
O277	O	-0.103266	-0.769100	0.396695
C278	C	-0.184810	-0.763774	0.425349
C279	C	-0.149624	-0.736497	0.399314
H280	H	-0.222297	-0.737426	0.427466
H281	H	-0.183340	-0.786996	0.462753
H282	H	-0.174833	-0.787099	0.405071
H283	H	-0.159578	-0.713146	0.419552
H284	H	-0.151100	-0.713304	0.361908
H285	H	-0.091926	-0.522444	0.298262
H286	H	-0.134345	-0.632833	0.408685
O287	O	-0.135768	-0.671109	0.363833
C288	C	-0.195826	-0.614952	0.327076
C289	C	-0.142496	-0.642373	0.319438
H290	H	-0.201284	-0.591720	0.291189
H291	H	-0.209860	-0.591634	0.348908
H292	H	-0.215821	-0.641232	0.346790
H293	H	-0.122463	-0.616128	0.299711
H294	H	-0.128500	-0.665699	0.297626
H295	H	-0.134111	-0.559208	0.261309
O296	O	-0.228125	-0.524553	0.286081
C297	C	-0.222754	-0.486100	0.203770
C298	C	-0.195504	-0.517564	0.239400
H299	H	-0.196392	-0.480448	0.166021
H300	H	-0.246005	-0.450304	0.209431
H301	H	-0.246046	-0.504286	0.209485
H302	H	-0.172186	-0.499420	0.233706
H303	H	-0.172283	-0.553359	0.233729
