data_functionalizedCrystal
_audit_creation_method	'MofGen! by Chris Wilmer'
_symmetry_space_group_name_H-M	'P1'
_symmetry_Int_Tables_number	1
_symmetry_cell_setting	triclinic
loop_
_symmetry_equiv_pos_as_xyz
  x,y,z
_cell_length_a	19.077068
_cell_length_b	19.805407
_cell_length_c	19.805399
_cell_angle_alpha	89.978936
_cell_angle_beta	87.730571
_cell_angle_gamma	87.673869
loop_
_atom_site_label
_atom_site_type_symbol
_atom_site_fract_x
_atom_site_fract_y
_atom_site_fract_z
Zn1	Zn	-0.280237	-1.023903	0.393561
Zn2	Zn	0.053096	-0.690570	0.726895
Zn3	Zn	0.386430	-0.357237	1.060228
Zn4	Zn	-0.397936	-1.019269	0.284915
Zn5	Zn	-0.064603	-0.685935	0.618248
Zn6	Zn	0.268731	-0.352602	0.951582
Zn7	Zn	-0.280254	-0.910717	0.280384
Zn8	Zn	0.053079	-0.577384	0.613717
Zn9	Zn	0.386412	-0.244051	0.947050
Zn10	Zn	-0.397896	-0.906133	0.398057
Zn11	Zn	-0.064563	-0.572800	0.731391
Zn12	Zn	0.268770	-0.239467	1.064724
O13	O	-0.339081	-0.965006	0.339229
O14	O	-0.005748	-0.631672	0.672563
O15	O	0.327586	-0.298339	1.005896
O16	O	-0.295859	-1.118005	0.379164
O17	O	0.037474	-0.784671	0.712497
O18	O	0.370807	-0.451338	1.045831
O19	O	-0.382349	-1.004848	0.189598
O20	O	-0.049016	-0.671514	0.522932
O21	O	0.284318	-0.338181	0.856265
O22	O	-0.181761	-0.929590	0.291619
O23	O	0.151573	-0.596256	0.624952
O24	O	0.484906	-0.262923	0.958285
O25	O	-0.382332	-1.114600	0.299342
O26	O	-0.048999	-0.781266	0.632675
O27	O	0.284335	-0.447933	0.966009
O28	O	-0.181748	-1.012747	0.374770
O29	O	0.151585	-0.679414	0.708103
O30	O	0.484919	-0.346080	1.041436
O31	O	-0.295889	-0.925096	0.186269
O32	O	0.037445	-0.591762	0.519602
O33	O	0.370778	-0.258429	0.852936
O34	O	-0.295850	-0.815393	0.295978
O35	O	0.037483	-0.482060	0.629312
O36	O	0.370816	-0.148726	0.962645
O37	O	-0.382265	-0.921777	0.492177
O38	O	-0.048932	-0.588444	0.825510
O39	O	0.284402	-0.255110	1.158843
O40	O	-0.382282	-0.812025	0.382433
O41	O	-0.048948	-0.478692	0.715766
O42	O	0.284385	-0.145359	1.049100
O43	O	-0.295821	-1.008302	0.488873
O44	O	0.037512	-0.674969	0.822207
O45	O	0.370846	-0.341635	1.155540
O46	O	-0.496422	-1.000403	0.303702
O47	O	-0.163088	-0.667070	0.637035
O48	O	0.170245	-0.333736	0.970369
O49	O	-0.496393	-0.917283	0.386827
O50	O	-0.163059	-0.583950	0.720160
O51	O	0.170274	-0.250616	1.053494
C52	C	-0.339064	-0.789150	0.339202
C53	C	-0.005731	-0.455817	0.672536
C54	C	0.327603	-0.122484	1.005869
C55	C	-0.339074	-0.713918	0.339207
C56	C	-0.005741	-0.380585	0.672541
C57	C	0.327593	-0.047251	1.005874
C58	C	-0.384146	-0.676835	0.384156
C59	C	-0.050812	-0.343502	0.717489
C60	C	0.282521	-0.010169	1.050822
C61	C	-0.384146	-0.606147	0.384163
C62	C	-0.050812	-0.272813	0.717497
C63	C	0.282521	0.060520	1.050830
C64	C	-0.339077	-0.572542	0.339219
C65	C	-0.005744	-0.239209	0.672552
C66	C	0.327590	0.094125	1.005886
C67	C	-0.294000	-0.609630	0.294268
C68	C	0.039333	-0.276297	0.627602
C69	C	0.372667	0.057037	0.960935
C70	C	-0.293997	-0.680317	0.294265
C71	C	0.039336	-0.346984	0.627598
C72	C	0.372670	-0.013651	0.960931
C73	C	-0.294010	-0.324556	0.294284
C74	C	0.039323	0.008777	0.627617
C75	C	0.372656	0.342110	0.960950
C76	C	-0.294018	-0.253864	0.294290
C77	C	0.039315	0.079469	0.627623
C78	C	0.372648	0.412803	0.960956
C79	C	-0.384159	-0.250386	0.384183
C80	C	-0.050826	0.082948	0.717516
C81	C	0.282508	0.416281	1.050849
C82	C	-0.384156	-0.321073	0.384179
C83	C	-0.050823	0.012260	0.717512
C84	C	0.282511	0.345594	1.050846
C85	C	-0.339077	-0.358155	0.339231
C86	C	-0.005744	-0.024821	0.672564
C87	C	0.327590	0.308512	1.005898
C88	C	-0.339077	-0.434803	0.339224
C89	C	-0.005743	-0.101470	0.672557
C90	C	0.327590	0.231863	1.005891
C91	C	-0.339080	-0.495895	0.339222
C92	C	-0.005747	-0.162562	0.672555
C93	C	0.327586	0.170772	1.005889
C94	C	-0.521945	-0.957861	0.346259
C95	C	-0.188612	-0.624528	0.679592
C96	C	0.144722	-0.291194	1.012925
C97	C	-0.600175	-0.954866	0.349289
C98	C	-0.266842	-0.621533	0.682622
C99	C	0.066492	-0.288200	1.015955
C100	C	-0.636919	-0.996769	0.307469
C101	C	-0.303586	-0.663436	0.640803
C102	C	0.029747	-0.330102	0.974136
C103	C	-0.710425	-0.993957	0.310323
C104	C	-0.377091	-0.660623	0.643656
C105	C	-0.043758	-0.327290	0.976990
C106	C	-0.747184	-0.949237	0.354993
C107	C	-0.413851	-0.615904	0.688327
C108	C	-0.080518	-0.282571	1.021660
C109	C	-0.710435	-0.907333	0.396817
C110	C	-0.377102	-0.573999	0.730151
C111	C	-0.043768	-0.240666	1.063484
C112	C	-0.636931	-0.910149	0.393966
C113	C	-0.303598	-0.576816	0.727300
C114	C	0.029736	-0.243483	1.060633
C115	C	-0.967019	-0.936173	0.368160
C116	C	-0.633686	-0.602840	0.701493
C117	C	-0.300352	-0.269506	1.034826
C118	C	-1.040528	-0.933358	0.371006
C119	C	-0.707195	-0.600025	0.704339
C120	C	-0.373862	-0.266691	1.037672
C121	C	-1.040513	-1.019983	0.284512
C122	C	-0.707180	-0.686650	0.617845
C123	C	-0.373846	-0.353317	0.951179
C124	C	-0.967008	-1.022793	0.281662
C125	C	-0.633674	-0.689459	0.614996
C126	C	-0.300341	-0.356126	0.948329
C127	C	-0.930264	-0.980891	0.323489
C128	C	-0.596931	-0.647558	0.656822
C129	C	-0.263598	-0.314224	0.990155
N130	N	-0.822319	-0.946360	0.357910
N131	N	-0.488985	-0.613027	0.691243
N132	N	-0.155652	-0.279693	1.024576
N133	N	-0.855131	-0.983772	0.320575
N134	N	-0.521798	-0.650439	0.653909
N135	N	-0.188465	-0.317106	0.987242
C136	C	-0.155503	-0.972197	0.332187
C137	C	0.177831	-0.638863	0.665521
C138	C	0.511164	-0.305530	0.998854
C139	C	-0.077273	-0.975261	0.329186
C140	C	0.256061	-0.641928	0.662520
C141	C	0.589394	-0.308594	0.995853
C142	C	-0.339037	-0.965045	0.515770
C143	C	-0.005703	-0.631712	0.849104
C144	C	0.327630	-0.298379	1.182437
C145	C	-0.339018	-0.965062	0.591002
C146	C	-0.005684	-0.631729	0.924335
C147	C	0.327649	-0.298396	1.257668
C148	C	-0.339094	-0.141548	0.339250
C149	C	-0.005760	0.191786	0.672584
C150	C	0.327573	0.525119	1.005917
C151	C	-0.339087	-0.216780	0.339242
C152	C	-0.005754	0.116553	0.672575
C153	C	0.327580	0.449887	1.005909
C154	C	-0.339074	-0.965007	0.163373
C155	C	-0.005741	-0.631674	0.496706
C156	C	0.327592	-0.298340	0.830040
C157	C	-0.338895	-0.965129	0.088135
C158	C	-0.005562	-0.631796	0.421468
C159	C	0.327772	-0.298462	0.754801
C160	C	-0.294004	-1.010117	0.624627
C161	C	0.039329	-0.676783	0.957960
C162	C	0.372663	-0.343450	1.291294
C163	C	-0.293984	-1.010125	0.695315
C164	C	0.039350	-0.676791	1.028648
C165	C	0.372683	-0.343458	1.361981
C166	C	-0.338981	-0.965080	0.732376
C167	C	-0.005648	-0.631747	1.065709
C168	C	0.327686	-0.298414	1.399043
C169	C	-0.383996	-0.920021	0.698746
C170	C	-0.050663	-0.586688	1.032079
C171	C	0.282670	-0.253354	1.365413
C172	C	-0.384013	-0.920010	0.628059
C173	C	-0.050679	-0.586677	0.961393
C174	C	0.282654	-0.253344	1.294726
C175	C	-0.383931	-0.920062	0.983817
C176	C	-0.050598	-0.586728	1.317150
C177	C	0.282736	-0.253395	1.650484
C178	C	-0.383913	-0.920077	1.054508
C179	C	-0.050579	-0.586744	1.387842
C180	C	0.282754	-0.253410	1.721175
C181	C	-0.293902	-1.010176	1.051072
C182	C	0.039432	-0.676842	1.384405
C183	C	0.372765	-0.343509	1.717739
C184	C	-0.293918	-1.010165	0.980385
C185	C	0.039415	-0.676832	1.313719
C186	C	0.372749	-0.343499	1.647052
C187	C	-0.338931	-0.965104	0.946762
C188	C	-0.005597	-0.631770	1.280095
C189	C	0.327736	-0.298437	1.613428
C190	C	-0.338951	-0.965095	0.870114
C191	C	-0.005618	-0.631762	1.203447
C192	C	0.327715	-0.298428	1.536781
C193	C	-0.338964	-0.965092	0.809022
C194	C	-0.005631	-0.631759	1.142356
C195	C	0.327702	-0.298425	1.475689
H196	H	-0.257301	-0.582264	0.257677
H197	H	0.076032	-0.248930	0.591010
H198	H	0.409366	0.084403	0.924343
H199	H	-0.257364	-1.046799	0.594456
H200	H	0.075969	-0.713466	0.927790
H201	H	0.409303	-0.380132	1.261123
H202	H	-0.257291	-0.710509	0.257666
H203	H	0.076042	-0.377176	0.591000
H204	H	0.409375	-0.043843	0.924333
H205	H	-1.070456	-0.896950	0.407393
H206	H	-0.737123	-0.563617	0.740727
H207	H	-0.403789	-0.230284	1.074060
H208	H	-0.420593	-0.883379	0.956449
H209	H	-0.087260	-0.550046	1.289783
H210	H	0.246073	-0.216713	1.623116
H211	H	-0.257313	-0.226505	0.257690
H212	H	0.076020	0.106828	0.591024
H213	H	0.409353	0.440161	0.924357
Br214	Br	-0.445061	-0.858885	0.749043
Br215	Br	-0.111728	-0.525551	1.082376
Br216	Br	0.221606	-0.192218	1.415709
H217	H	-0.607014	-0.876028	0.428021
H218	H	-0.273681	-0.542695	0.761354
H219	H	0.059652	-0.209362	1.094688
Br220	Br	-0.445319	-0.722434	0.445151
Br221	Br	-0.111986	-0.389101	0.778484
Br222	Br	0.221347	-0.055768	1.111817
H223	H	-1.070437	-1.054098	0.250460
H224	H	-0.737104	-0.720765	0.583794
H225	H	-0.403771	-0.387432	0.917127
Br226	Br	-0.917124	-1.083494	0.221045
Br227	Br	-0.583791	-0.750161	0.554378
Br228	Br	-0.250458	-0.416828	0.887712
Br229	Br	-0.232828	-0.374873	0.233287
Br230	Br	0.100506	-0.041539	0.566620
Br231	Br	0.433839	0.291794	0.899953
Br232	Br	-0.445341	-0.200057	0.445183
Br233	Br	-0.112007	0.133276	0.778517
Br234	Br	0.221326	0.466610	1.111850
H235	H	-0.420848	-0.575957	0.420764
H236	H	-0.087515	-0.242624	0.754098
H237	H	0.245818	0.090710	1.087431
H238	H	-0.606994	-1.033181	0.271091
H239	H	-0.273661	-0.699848	0.604424
H240	H	0.059672	-0.366515	0.937758
Br241	Br	-0.917162	-0.879306	0.424925
Br242	Br	-0.583829	-0.545973	0.758258
Br243	Br	-0.250496	-0.212639	1.091591
Br244	Br	-0.760290	-1.050832	0.253569
Br245	Br	-0.426956	-0.717498	0.586903
Br246	Br	-0.093623	-0.384165	0.920236
H247	H	-0.740371	-0.870924	0.433192
H248	H	-0.407037	-0.537591	0.766525
H249	H	-0.073704	-0.204258	1.099858
H250	H	-0.420660	-0.883316	0.600683
H251	H	-0.087327	-0.549982	0.934016
H252	H	0.246006	-0.216649	1.267349
Br253	Br	-0.232924	-1.071303	0.740948
Br254	Br	0.100410	-0.737970	1.074281
Br255	Br	0.433743	-0.404636	1.407614
H256	H	-0.257279	-1.046847	0.950213
H257	H	0.076054	-0.713514	1.283547
H258	H	0.409388	-0.380180	1.616880
H259	H	-0.257248	-1.046865	1.078457
H260	H	0.076086	-0.713532	1.411790
H261	H	0.409419	-0.380198	1.745124
H262	H	-0.420858	-0.348430	0.420775
H263	H	-0.087525	-0.015097	0.754108
H264	H	0.245809	0.318236	1.087442
Br265	Br	-0.444986	-0.858942	1.104806
Br266	Br	-0.111652	-0.525609	1.438140
Br267	Br	0.221681	-0.192276	1.771473
