data_functionalizedCrystal
_audit_creation_method	'MofGen! by Chris Wilmer'
_symmetry_space_group_name_H-M	'P1'
_symmetry_Int_Tables_number	1
_symmetry_cell_setting	triclinic
loop_
_symmetry_equiv_pos_as_xyz
  x,y,z
_cell_length_a	10.908878
_cell_length_b	19.188930
_cell_length_c	10.065918
_cell_angle_alpha	99.848379
_cell_angle_beta	101.450495
_cell_angle_gamma	71.614786
loop_
_atom_site_label
_atom_site_type_symbol
_atom_site_fract_x
_atom_site_fract_y
_atom_site_fract_z
O1	O	1.721264	-0.100752	0.113449
O2	O	2.221264	0.399248	0.613449
O3	O	1.347096	-0.046193	0.113468
O4	O	1.847096	0.453807	0.613468
O5	O	1.544974	-0.176366	0.113431
O6	O	2.044974	0.323634	0.613431
O7	O	1.523386	0.029421	0.113486
O8	O	2.023386	0.529421	0.613486
O9	O	1.511336	-0.190685	-0.113560
O10	O	2.011336	0.309315	0.386440
O11	O	1.313458	-0.060512	-0.113524
O12	O	1.813458	0.439488	0.386476
O13	O	1.687626	-0.115071	-0.113542
O14	O	2.187626	0.384929	0.386458
Zn15	Zn	1.495201	-0.090065	-0.149573
Zn16	Zn	1.995201	0.409935	0.350427
Zn17	Zn	1.539521	-0.071199	0.149498
Zn18	Zn	2.039521	0.428801	0.649498
O19	O	1.489748	0.015101	-0.113506
O20	O	1.989748	0.515101	0.386494
C21	C	1.282407	-0.048254	-0.000026
C22	C	1.782407	0.451746	0.499974
C23	C	1.139770	-0.033069	-0.000020
C24	C	1.639770	0.466931	0.499980
C25	C	1.091071	-0.088474	-0.000034
C26	C	1.591071	0.411526	0.499966
C27	C	0.943648	-0.072782	-0.000028
C28	C	1.443648	0.427218	0.499972
C29	C	1.527455	-0.209457	-0.000068
C30	C	2.027455	0.290543	0.499932
C31	C	1.525354	-0.286722	-0.000080
C32	C	2.025354	0.213278	0.499920
C33	C	1.641463	-0.344935	-0.000092
C34	C	2.141463	0.155065	0.499908
C35	C	1.639494	-0.417532	-0.000070
C36	C	2.139494	0.082468	0.499930
C37	C	1.521405	-0.431913	-0.000063
C38	C	2.021405	0.068087	0.499937
C39	C	1.405281	-0.373687	-0.000044
C40	C	1.905281	0.126313	0.499956
C41	C	1.407256	-0.301091	-0.000052
C42	C	1.907256	0.198909	0.499948
N43	N	1.419692	-0.534459	-0.077309
N44	N	1.919692	-0.034459	0.422691
N45	N	1.417824	-0.603424	-0.077304
N46	N	1.917824	-0.103424	0.422696
C47	C	1.515450	-0.650637	-0.000036
C48	C	2.015450	-0.150637	0.499964
N49	N	1.615031	-0.626286	0.077210
N50	N	2.115031	-0.126286	0.577210
N51	N	1.616902	-0.557316	0.077199
N52	N	2.116902	-0.057316	0.577199
C53	C	1.519251	-0.510628	-0.000054
C54	C	2.019251	-0.010628	0.499946
C55	C	1.629433	-0.787570	-0.000022
C56	C	2.129433	-0.287570	0.499978
C57	C	1.627460	-0.860167	0.000008
C58	C	2.127460	-0.360167	0.500008
C59	C	1.393242	-0.816320	0.000021
C60	C	1.893242	-0.316320	0.500021
C61	C	1.395220	-0.743725	0.000005
C62	C	1.895220	-0.243725	0.500005
C63	C	1.513318	-0.729355	-0.000024
C64	C	2.013318	-0.229355	0.499976
C65	C	1.752315	-0.113011	-0.000045
C66	C	2.252315	0.386989	0.499955
C67	C	1.894954	-0.128195	-0.000042
C68	C	2.394954	0.371805	0.499958
C69	C	1.507268	0.048192	-0.000003
C70	C	2.007268	0.548192	0.499997
C71	C	1.509370	0.125458	0.000017
C72	C	2.009370	0.625458	0.500017
N73	N	1.464964	-0.102943	-0.353681
N74	N	1.964964	0.397057	0.146319
C75	C	1.528992	-0.075678	-0.421454
C76	C	2.028992	0.424322	0.078546
C77	C	1.505731	-0.085597	-0.578624
C78	C	2.005731	0.414403	-0.078624
N79	N	1.569769	-0.058329	0.353607
N80	N	2.069769	0.441671	0.853607
H81	H	1.737628	-0.333241	-0.000110
H82	H	2.237628	0.166759	0.499890
H83	H	0.962397	-0.187250	-0.000048
H84	H	1.462397	0.312750	0.499952
C85	C	1.626307	-0.034223	-0.342664
C86	C	2.126307	0.465777	0.157336
H87	H	1.629166	-0.032990	-0.247364
H88	H	2.129166	0.467010	0.252636
H89	H	1.710821	-0.058971	-0.366002
H90	H	2.210821	0.441029	0.133998
H91	H	1.598950	0.014878	-0.366004
H92	H	2.098950	0.514878	0.133996
H93	H	1.433693	-0.116286	-0.636953
H94	H	1.933693	0.383714	-0.136953
H95	H	1.641814	-0.027643	-0.588066
H96	H	2.141814	0.472357	-0.088066
H97	H	1.072323	0.025983	0.000002
H98	H	1.572323	0.525983	0.500002
C99	C	1.182174	-0.168250	-0.000060
C100	C	1.682174	0.331750	0.499940
H101	H	1.269306	-0.168333	-0.000071
H102	H	1.769306	0.331667	0.499929
H103	H	1.178446	-0.187827	0.079087
H104	H	1.678446	0.312173	0.579087
H105	H	1.154982	-0.197808	-0.079237
H106	H	1.654982	0.302192	0.420763
H107	H	1.722015	-0.907566	0.000006
H108	H	2.222015	-0.407566	0.500006
H109	H	1.734048	-0.464938	-0.000075
H110	H	2.234048	0.035062	0.499925
H111	H	1.309133	-0.385400	-0.000035
H112	H	1.809133	0.114600	0.499965
C113	C	0.852548	0.006998	-0.000007
C114	C	1.352548	0.506998	0.499993
H115	H	0.765413	0.007079	-0.000015
H116	H	1.265413	0.507079	0.499985
H117	H	0.879737	0.036560	0.079154
H118	H	1.379737	0.536560	0.579154
H119	H	0.856274	0.026569	-0.079170
H120	H	1.356274	0.526569	0.420830
C121	C	1.279528	-0.237054	-0.000051
C122	C	1.779528	0.262946	0.499949
H123	H	1.208912	-0.256013	-0.000050
H124	H	1.708912	0.243987	0.499950
H125	H	1.287159	-0.202819	0.079097
H126	H	1.787159	0.297181	0.579097
H127	H	1.263701	-0.212831	-0.079227
H128	H	1.763701	0.287169	0.420773
C129	C	1.759334	-0.771758	-0.000037
C130	C	2.259334	-0.271758	0.499963
H131	H	1.828208	-0.816827	-0.000021
H132	H	2.328208	-0.316827	0.499979
H133	H	1.753244	-0.749353	-0.079200
H134	H	2.253244	-0.249353	0.420800
H135	H	1.776701	-0.739346	0.079124
H136	H	2.276701	-0.239346	0.579124
C137	C	1.263346	-0.832131	0.000033
C138	C	1.763346	-0.332131	0.500033
H139	H	1.278797	-0.883704	0.000030
H140	H	1.778797	-0.383704	0.500030
H141	H	1.227284	-0.806223	0.079191
H142	H	1.727284	-0.306223	0.579191
H143	H	1.203823	-0.816230	-0.079133
H144	H	1.703823	-0.316230	0.420867
H145	H	1.300670	-0.696325	0.000007
H146	H	1.800670	-0.196325	0.500007
H147	H	1.392930	-0.133630	-0.412015
H148	H	1.892930	0.366370	0.087985
