data_functionalizedCrystal
_audit_creation_method	'MofGen! by Chris Wilmer'
_symmetry_space_group_name_H-M	'P1'
_symmetry_Int_Tables_number	1
_symmetry_cell_setting	triclinic
loop_
_symmetry_equiv_pos_as_xyz
  x,y,z
_cell_length_a	9.065218
_cell_length_b	14.472310
_cell_length_c	9.065218
_cell_angle_alpha	89.999097
_cell_angle_beta	94.984081
_cell_angle_gamma	89.984749
loop_
_atom_site_label
_atom_site_type_symbol
_atom_site_fract_x
_atom_site_fract_y
_atom_site_fract_z
O1	O	-1.960421	0.076884	0.216348
O2	O	-1.531136	0.076875	0.234094
O3	O	-1.754651	0.076878	0.010579
O4	O	-1.736905	0.076881	0.439864
O5	O	-1.754593	-0.076804	0.010591
O6	O	-1.531078	-0.076807	0.234107
O7	O	-1.960363	-0.076798	0.216361
Cu8	Cu	-1.745715	-0.090835	0.225235
Cu9	Cu	-1.745784	0.090912	0.225220
O10	O	-1.736847	-0.076801	0.439876
C11	C	-1.476120	0.000033	0.232395
C12	C	-1.312277	0.000030	0.227295
N13	N	-1.745677	-0.218666	0.225244
C14	C	-1.745781	-0.592757	0.225214
C15	C	-1.625771	-0.553592	0.344401
C16	C	-1.626057	-0.446504	0.344845
C17	C	-1.745728	-0.407166	0.225229
C18	C	-1.900138	-0.445999	0.260914
C19	C	-1.899466	-0.553121	0.261764
C20	C	-1.712751	-0.553288	0.070003
C21	C	-1.709234	-0.446161	0.070988
C22	C	-1.745708	-0.302278	0.225235
C23	C	-1.745812	-0.697645	0.225212
C24	C	-1.015378	0.000041	0.218060
C25	C	-1.179221	0.000033	0.223159
C26	C	-1.752917	0.000038	-0.044402
C27	C	-1.747817	0.000043	-0.208244
N28	N	-1.745833	0.218743	0.225199
C29	C	-1.738581	0.000041	0.494856
C30	C	-1.743681	0.000043	0.658699
H31	H	-1.511348	-0.420251	0.323281
Cl32	Cl	-1.835194	-0.404837	-0.072613
H33	H	-1.991668	-0.579026	0.178487
H34	H	-1.929565	-0.419160	0.372893
H35	H	-1.800246	-0.578613	-0.018716
Cl36	Cl	-1.658246	-0.595115	0.521168
Cl37	Cl	-1.542484	-0.595050	0.017842
Cl38	Cl	-1.448090	-0.593388	0.311590
H39	H	-1.647364	-0.420869	0.459982
Cl40	Cl	-1.533851	-0.406978	0.029244
H41	H	-1.928258	-0.578095	0.375021
H42	H	-1.991661	-0.420515	0.176499
