data_functionalizedCrystal
_audit_creation_method	'MofGen! by Chris Wilmer'
_symmetry_space_group_name_H-M	'P1'
_symmetry_Int_Tables_number	1
_symmetry_cell_setting	triclinic
loop_
_symmetry_equiv_pos_as_xyz
  x,y,z
_cell_length_a	12.784905
_cell_length_b	12.811487
_cell_length_c	9.130313
_cell_angle_alpha	95.427991
_cell_angle_beta	89.995863
_cell_angle_gamma	78.601760
loop_
_atom_site_label
_atom_site_type_symbol
_atom_site_fract_x
_atom_site_fract_y
_atom_site_fract_z
O1	O	1.410343	0.006573	-0.120935
O2	O	1.101087	0.051504	-0.114967
O3	O	1.263493	-0.124461	-0.138333
O4	O	1.247937	0.182538	-0.097569
O5	O	1.263482	-0.124465	0.105266
O6	O	1.101076	0.051500	0.128631
O7	O	1.410331	0.006570	0.122664
Cu8	Cu	1.255703	0.029035	0.147890
Cu9	Cu	1.255716	0.029039	-0.140193
O10	O	1.247925	0.182535	0.146029
C11	C	1.061495	0.054424	0.007220
C12	C	0.943540	0.063119	0.008375
C13	C	1.262615	-0.163487	-0.021718
C14	C	1.260002	-0.279764	-0.037167
C15	C	0.746370	-0.114024	-0.015172
C16	C	0.635541	-0.105860	-0.014088
C17	C	0.611052	0.087611	0.011617
C18	C	0.721880	0.079447	0.010533
C19	C	0.789536	-0.021374	-0.002860
C20	C	0.900367	-0.029538	-0.003934
C21	C	0.875875	0.163932	0.021761
C22	C	0.765047	0.172097	0.022845
C23	C	1.255100	-0.498283	0.199401
C24	C	1.252645	-0.607537	0.184892
C25	C	1.252645	-0.607527	-0.080692
C26	C	1.255100	-0.498274	-0.066183
C27	C	1.256326	-0.443656	0.073868
C28	C	1.258773	-0.334399	0.088375
C29	C	1.258781	-0.334393	-0.177207
C30	C	1.256326	-0.443647	-0.191716
C31	C	1.449923	0.003649	0.000473
C32	C	1.567879	-0.005045	-0.000691
C33	C	1.248803	0.221560	0.029412
C34	C	1.251416	0.337838	0.044851
N35	N	1.255701	0.029030	0.350512
N36	N	1.255726	0.029034	-0.342817
C37	C	1.327639	-0.048859	0.416821
C38	C	1.327649	-0.048860	0.570158
C39	C	1.183780	0.106928	0.590864
C40	C	1.183766	0.106923	0.437529
H41	H	0.955451	-0.111631	-0.014836
H42	H	1.386226	-0.112286	0.624142
Br43	Br	1.086121	0.212631	0.347526
Br44	Br	1.260381	-0.260236	-0.347582
H45	H	0.801457	-0.196116	-0.026067
H46	H	1.125214	0.170348	0.661729
H47	H	0.600401	-0.181305	-0.024116
H48	H	1.255332	-0.488133	-0.305741
H49	H	0.555948	0.169694	0.022502
H50	H	1.386211	-0.112286	0.345975
Br51	Br	1.256750	-0.424150	0.389463
Br52	Br	1.260432	-0.260273	0.278441
H53	H	0.911032	0.239375	0.031794
Br54	Br	1.250989	-0.681674	0.355265
Br55	Br	1.251023	-0.681680	-0.270746
H56	H	0.709947	0.254182	0.033744
