data_functionalizedCrystal
_audit_creation_method	'MofGen! by Chris Wilmer'
_symmetry_space_group_name_H-M	'P1'
_symmetry_Int_Tables_number	1
_symmetry_cell_setting	triclinic
loop_
_symmetry_equiv_pos_as_xyz
  x,y,z
_cell_length_a	10.723024
_cell_length_b	14.519709
_cell_length_c	9.798715
_cell_angle_alpha	90.004331
_cell_angle_beta	89.996846
_cell_angle_gamma	95.925993
loop_
_atom_site_label
_atom_site_type_symbol
_atom_site_fract_x
_atom_site_fract_y
_atom_site_fract_z
O1	O	-1.655977	0.129348	0.113485
O2	O	-1.322644	0.462681	0.446819
O3	O	-0.989311	0.796014	0.780152
O4	O	-1.292709	0.141729	0.113490
O5	O	-0.959376	0.475062	0.446824
O6	O	-0.626042	0.808395	0.780157
O7	O	-1.483975	0.001349	0.113475
O8	O	-1.150641	0.334682	0.446809
O9	O	-0.817308	0.668016	0.780142
O10	O	-1.464712	0.269728	0.113500
O11	O	-1.131378	0.603061	0.446834
O12	O	-0.798045	0.936394	0.780167
O13	O	-1.483961	0.001348	-0.113507
O14	O	-1.150628	0.334681	0.219827
O15	O	-0.817295	0.668015	0.553160
O16	O	-1.292696	0.141728	-0.113492
O17	O	-0.959362	0.475061	0.219842
O18	O	-0.626029	0.808394	0.553175
O19	O	-1.655964	0.129347	-0.113497
O20	O	-1.322631	0.462680	0.219837
O21	O	-0.989297	0.796013	0.553170
Zn22	Zn	-1.474328	0.135537	-0.149533
Zn23	Zn	-1.140994	0.468870	0.183801
Zn24	Zn	-0.807661	0.802204	0.517134
Zn25	Zn	-1.474345	0.135538	0.149526
Zn26	Zn	-1.141012	0.468872	0.482860
Zn27	Zn	-0.807679	0.802205	0.816193
O28	O	-1.464698	0.269726	-0.113482
O29	O	-1.131365	0.603060	0.219851
O30	O	-0.798032	0.936393	0.553185
C31	C	-1.483070	-0.033016	-0.000016
C32	C	-1.149737	0.300317	0.333318
C33	C	-0.816404	0.633651	0.666651
C34	C	-1.480380	-0.135411	-0.000017
C35	C	-1.147047	0.197922	0.333317
C36	C	-0.813713	0.531256	0.666650
C37	C	-1.246211	0.140827	-0.000000
C38	C	-0.912878	0.474161	0.333333
C39	C	-0.579545	0.807494	0.666666
C40	C	-1.107682	0.138132	0.000001
C41	C	-0.774349	0.471465	0.333335
C42	C	-0.441016	0.804798	0.666668
N43	N	-1.474325	0.135536	-0.353632
N44	N	-1.140992	0.468869	-0.020299
N45	N	-0.807658	0.802202	0.313034
C46	C	-1.702462	0.130248	-0.000003
C47	C	-1.369128	0.463582	0.333330
C48	C	-1.035795	0.796915	0.666663
C49	C	-1.840991	0.132944	0.000004
C50	C	-1.507657	0.466277	0.333338
C51	C	-1.174324	0.799611	0.666671
C52	C	-1.031965	0.216681	0.000009
C53	C	-0.698632	0.550014	0.333343
C54	C	-0.365298	0.883347	0.666676
C55	C	-0.888788	0.213896	0.000011
C56	C	-0.555454	0.547230	0.333344
C57	C	-0.222121	0.880563	0.666678
C58	C	-1.470476	-0.510357	0.000019
C59	C	-1.137143	-0.177024	0.333352
C60	C	-0.803810	0.156309	0.666686
C61	C	-1.473227	-0.406035	0.000009
C62	C	-1.139893	-0.072702	0.333342
C63	C	-0.806560	0.260631	0.666675
C64	C	-1.475428	-0.322887	-0.000000
C65	C	-1.142095	0.010446	0.333333
C66	C	-0.808761	0.343779	0.666667
C67	C	-1.478179	-0.218559	-0.000008
C68	C	-1.144845	0.114775	0.333326
C69	C	-0.811512	0.448108	0.666659
C70	C	-1.465603	0.304091	0.000012
C71	C	-1.132269	0.637425	0.333346
C72	C	-0.798936	0.970758	0.666679
C73	C	-1.468293	0.406486	0.000022
C74	C	-1.134960	0.739820	0.333355
C75	C	-0.801626	1.073153	0.666689
C76	C	-1.554831	0.076466	-0.578570
C77	C	-1.221498	0.409800	-0.245237
C78	C	-0.888164	0.743133	0.088096
C79	C	-1.554814	0.076467	-0.421408
C80	C	-1.221481	0.409801	-0.088074
C81	C	-0.888147	0.743134	0.245259
N82	N	-1.474358	0.135533	0.353626
N83	N	-1.141025	0.468866	0.686959
N84	N	-0.807691	0.802199	1.020293
H85	H	-1.073139	0.285991	0.000008
H86	H	-0.739806	0.619324	0.333341
H87	H	-0.406472	0.952657	0.666675
H88	H	-0.823726	0.281141	0.000024
H89	H	-0.490393	0.614474	0.333357
H90	H	-0.157060	0.947807	0.666690
Cl91	Cl	-1.661234	-0.001610	-0.668570
Cl92	Cl	-1.327900	0.331723	-0.335237
Cl93	Cl	-0.994567	0.665057	-0.001903
H94	H	-1.405421	0.186104	-0.411932
H95	H	-1.072087	0.519437	-0.078598
H96	H	-0.738754	0.852771	0.254735
Cl97	Cl	-1.661183	-0.001616	-0.331390
Cl98	Cl	-1.327850	0.331717	0.001944
Cl99	Cl	-0.994516	0.665050	0.335277
H100	H	-0.906045	0.065696	0.000006
H101	H	-0.572712	0.399029	0.333339
H102	H	-0.239378	0.732363	0.666673
H103	H	-1.066508	0.068822	0.000030
H104	H	-0.733175	0.402155	0.333363
H105	H	-0.399842	0.735488	0.666697
Cl106	Cl	-1.367969	0.213617	-0.556371
Cl107	Cl	-1.034636	0.546951	-0.223037
Cl108	Cl	-0.701303	0.880284	0.110296
