data_functionalizedCrystal
_audit_creation_method	'MofGen! by Chris Wilmer'
_symmetry_space_group_name_H-M	'P1'
_symmetry_Int_Tables_number	1
_symmetry_cell_setting	triclinic
loop_
_symmetry_equiv_pos_as_xyz
  x,y,z
_cell_length_a	15.944551
_cell_length_b	16.109301
_cell_length_c	14.586319
_cell_angle_alpha	90.005214
_cell_angle_beta	89.992301
_cell_angle_gamma	96.519891
loop_
_atom_site_label
_atom_site_type_symbol
_atom_site_fract_x
_atom_site_fract_y
_atom_site_fract_z
O1	O	1.114488	-0.107227	-0.076332
O2	O	1.447821	0.226106	0.257001
O3	O	1.781154	0.559440	0.590334
O4	O	0.869934	-0.120447	-0.076315
O5	O	1.203267	0.212886	0.257018
O6	O	1.536600	0.546219	0.590352
O7	O	0.998929	0.007192	-0.076315
O8	O	1.332262	0.340525	0.257019
O9	O	1.665595	0.673858	0.590352
O10	O	0.985492	-0.234866	-0.076333
O11	O	1.318826	0.098467	0.257001
O12	O	1.652159	0.431801	0.590334
O13	O	0.998920	0.007194	0.076166
O14	O	1.332253	0.340527	0.409499
O15	O	1.665586	0.673860	0.742833
O16	O	0.869925	-0.120445	0.076166
O17	O	1.203258	0.212888	0.409499
O18	O	1.536591	0.546221	0.742832
O19	O	1.114479	-0.107225	0.076148
O20	O	1.447812	0.226108	0.409482
O21	O	1.781145	0.559441	0.742815
Cu22	Cu	0.992201	-0.113835	0.090080
Cu23	Cu	1.325534	0.219498	0.423413
Cu24	Cu	1.658868	0.552832	0.756747
Cu25	Cu	0.992211	-0.113837	-0.090246
Cu26	Cu	1.325545	0.219496	0.243087
Cu27	Cu	1.658878	0.552829	0.576420
O28	O	0.985484	-0.234864	0.076148
O29	O	1.318817	0.098469	0.409482
O30	O	1.652150	0.431803	0.742815
C31	C	0.998380	0.038168	-0.000074
C32	C	1.331713	0.371501	0.333259
C33	C	1.665047	0.704834	0.666593
C34	C	0.996748	0.130464	-0.000072
C35	C	1.330082	0.463797	0.333261
C36	C	1.663415	0.797130	0.666594
C37	C	0.838635	-0.119897	-0.000072
C38	C	1.171969	0.213436	0.333261
C39	C	1.505302	0.546769	0.666594
C40	C	0.745390	-0.118252	-0.000065
C41	C	1.078723	0.215081	0.333268
C42	C	1.412057	0.548415	0.666601
C43	C	1.145777	-0.107775	-0.000096
C44	C	1.479110	0.225558	0.333237
C45	C	1.812444	0.558892	0.666570
C46	C	1.239022	-0.109420	-0.000109
C47	C	1.572356	0.223913	0.333224
C48	C	1.905689	0.557246	0.666557
C49	C	1.453852	-0.192470	-0.000094
C50	C	1.787185	0.140864	0.333239
C51	C	2.120518	0.474197	0.666572
C52	C	1.514889	-0.153905	-0.075272
C53	C	1.848222	0.179428	0.258062
C54	C	2.181556	0.512761	0.591395
C55	C	1.409747	-0.112397	-0.000096
C56	C	1.743081	0.220936	0.333237
C57	C	2.076414	0.554270	0.666571
C58	C	1.514858	-0.153884	0.075062
C59	C	1.848191	0.179449	0.408396
C60	C	2.181525	0.512782	0.741729
C61	C	1.574659	-0.115278	-0.000079
C62	C	1.907992	0.218055	0.333254
C63	C	2.241326	0.551389	0.666587
C64	C	1.469556	-0.073811	-0.075336
C65	C	1.802890	0.259523	0.257998
C66	C	2.136223	0.592856	0.591331
C67	C	1.469519	-0.073801	0.075066
C68	C	1.802852	0.259532	0.408399
C69	C	2.136186	0.592866	0.741733
C70	C	1.530539	-0.035178	-0.000130
C71	C	1.863872	0.298155	0.333204
C72	C	2.197205	0.631488	0.666537
C73	C	1.314746	-0.110739	-0.000106
C74	C	1.648079	0.222594	0.333227
C75	C	1.981412	0.555927	0.666560
C76	C	1.669660	-0.116929	-0.000076
C77	C	2.002993	0.216404	0.333258
C78	C	2.336326	0.549737	0.666591
C79	C	0.986032	-0.265840	-0.000095
C80	C	1.319366	0.067493	0.333239
C81	C	1.652699	0.400827	0.666572
C82	C	0.987664	-0.358136	-0.000102
C83	C	1.320997	-0.024803	0.333231
C84	C	1.654331	0.308531	0.666565
N85	N	0.992200	-0.113833	0.216912
N86	N	1.325533	0.219500	0.550245
N87	N	1.658866	0.552834	0.883578
C88	C	1.069497	0.352712	-0.000092
C89	C	1.402831	0.686046	0.333241
C90	C	1.736164	1.019379	0.666575
C91	C	1.067958	0.439433	-0.000100
C92	C	1.401291	0.772767	0.333234
C93	C	1.734624	1.106100	0.666567
C94	C	0.914909	0.419608	-0.000085
C95	C	1.248243	0.752942	0.333248
C96	C	1.581576	1.086275	0.666582
C97	C	0.916450	0.332889	-0.000084
C98	C	1.249783	0.666223	0.333249
C99	C	1.583116	0.999556	0.666582
C100	C	0.993746	0.299444	-0.000083
C101	C	1.327080	0.632777	0.333250
C102	C	1.660413	0.966110	0.666584
C103	C	0.990666	0.472884	-0.000091
C104	C	1.323999	0.806217	0.333242
C105	C	1.657333	1.139551	0.666575
C106	C	0.988996	0.566910	-0.000099
C107	C	1.322329	0.900244	0.333234
C108	C	1.655663	1.233577	0.666567
C109	C	0.995417	0.205411	-0.000077
C110	C	1.328750	0.538745	0.333257
C111	C	1.662083	0.872078	0.666590
N112	N	0.992219	-0.113833	-0.217078
N113	N	1.325553	0.219501	0.116255
N114	N	1.658886	0.552834	0.449589
C115	C	1.049337	-0.057333	0.451918
C116	C	1.382671	0.276000	0.785251
C117	C	1.716004	0.609333	1.118585
C118	C	1.049340	-0.057331	0.547899
C119	C	1.382673	0.276002	0.881233
C120	C	1.716007	0.609335	1.214566
C121	C	0.935075	-0.170335	0.547909
C122	C	1.268409	0.162998	0.881242
C123	C	1.601742	0.496332	1.214575
C124	C	0.935070	-0.170332	0.451929
C125	C	1.268403	0.163001	0.785262
C126	C	1.601736	0.496334	1.118596
C127	C	0.992205	-0.113833	0.403936
C128	C	1.325539	0.219501	0.737270
C129	C	1.658872	0.552834	1.070603
C130	C	0.992214	-0.113833	0.595897
C131	C	1.325547	0.219500	0.929230
C132	C	1.658880	0.552833	1.262564
C133	C	0.992216	-0.113831	0.699964
C134	C	1.325549	0.219502	1.033298
C135	C	1.658882	0.552835	1.366631
C136	C	0.992202	-0.113833	0.299863
C137	C	1.325536	0.219500	0.633196
C138	C	1.658869	0.552834	0.966529
H139	H	1.420524	-0.258934	-0.000174
H140	H	1.753857	0.074399	0.333159
H141	H	2.087190	0.407732	0.666493
H142	H	1.095860	-0.011327	0.412845
H143	H	1.429193	0.322007	0.746178
H144	H	1.762526	0.655340	1.079511
H145	H	1.095861	-0.011324	0.586964
H146	H	1.429194	0.322010	0.920297
H147	H	1.762528	0.655343	1.253630
C148	C	0.872211	-0.232463	0.600699
C149	C	1.205544	0.100871	0.934033
C150	C	1.538878	0.434204	1.267366
H151	H	0.838172	-0.266099	0.558374
H152	H	1.171505	0.067234	0.891707
H153	H	1.504838	0.400568	1.225041
H154	H	0.902392	-0.267102	0.638144
H155	H	1.235725	0.066232	0.971477
H156	H	1.569059	0.399565	1.304810
H157	H	0.837266	-0.202505	0.638138
H158	H	1.170599	0.130828	0.971471
H159	H	1.503932	0.464161	1.304804
C160	C	0.872229	-0.232489	0.399141
C161	C	1.205562	0.100845	0.732475
C162	C	1.538895	0.434178	1.065808
H163	H	0.880405	-0.224389	0.335106
H164	H	1.213739	0.108944	0.668440
H165	H	1.547072	0.442277	1.001773
H166	H	0.881337	-0.287982	0.414861
H167	H	1.214671	0.045351	0.748194
H168	H	1.548004	0.378684	1.081527
H169	H	0.816171	-0.223425	0.414881
H170	H	1.149504	0.109908	0.748214
H171	H	1.482838	0.443241	1.081547
C172	C	1.542054	-0.199655	-0.161135
C173	C	1.875387	0.133678	0.172199
C174	C	2.208721	0.467011	0.505532
H175	H	1.515535	-0.255531	-0.161049
H176	H	1.848869	0.077802	0.172284
H177	H	2.182202	0.411136	0.505617
H178	H	1.525786	-0.171750	-0.214522
H179	H	1.859119	0.161583	0.118812
H180	H	2.192453	0.494917	0.452145
H181	H	1.601603	-0.199926	-0.160791
H182	H	1.934936	0.133407	0.172542
H183	H	2.268270	0.466741	0.505876
H184	H	1.563714	0.031346	-0.000163
H185	H	1.897047	0.364680	0.333171
H186	H	2.230380	0.698013	0.666504
C187	C	1.442585	-0.028099	-0.161295
C188	C	1.775919	0.305234	0.172038
C189	C	2.109252	0.638567	0.505371
H190	H	1.490985	-0.010041	-0.197147
H191	H	1.824318	0.323293	0.136187
H192	H	2.157652	0.656626	0.469520
H193	H	1.404540	-0.065003	-0.196443
H194	H	1.737873	0.268330	0.136891
H195	H	2.071207	0.601664	0.470224
H196	H	1.415602	0.018959	-0.143324
H197	H	1.748935	0.352292	0.190010
H198	H	2.082268	0.685625	0.523343
C199	C	1.442316	-0.028089	0.160931
C200	C	1.775649	0.305245	0.494265
C201	C	2.108983	0.638578	0.827598
H202	H	1.415800	0.019236	0.142878
H203	H	1.749134	0.352570	0.476211
H204	H	2.082467	0.685903	0.809545
H205	H	1.403813	-0.064853	0.195707
H206	H	1.737146	0.268480	0.529041
H207	H	2.070479	0.601813	0.862374
H208	H	1.490559	-0.010439	0.197181
H209	H	1.823892	0.322894	0.530514
H210	H	2.157225	0.656227	0.863847
C211	C	1.541974	-0.199646	0.160923
C212	C	1.875307	0.133688	0.494256
C213	C	2.208641	0.467021	0.827590
H214	H	1.579657	-0.162598	0.196333
H215	H	1.912991	0.170735	0.529666
H216	H	2.246324	0.504069	0.863000
H217	H	1.493582	-0.218199	0.196555
H218	H	1.826915	0.115134	0.529889
H219	H	2.160249	0.448467	0.863222
H220	H	1.569427	-0.246372	0.142842
H221	H	1.902760	0.086961	0.476176
H222	H	2.236093	0.420295	0.809509
C223	C	1.154519	0.315924	-0.000101
C224	C	1.487853	0.649258	0.333232
C225	C	1.821186	0.982591	0.666565
H226	H	1.199412	0.360073	-0.000116
H227	H	1.532746	0.693406	0.333217
H228	H	1.866079	1.026739	0.666551
H229	H	1.158304	0.282512	0.053071
H230	H	1.491637	0.615845	0.386405
H231	H	1.824971	0.949178	0.719738
H232	H	1.158300	0.282504	-0.053282
H233	H	1.491634	0.615837	0.280051
H234	H	1.824967	0.949170	0.613384
C235	C	1.151284	0.498025	-0.000104
C236	C	1.484617	0.831359	0.333230
C237	C	1.817950	1.164692	0.666563
H238	H	1.197536	0.465683	-0.000096
H239	H	1.530869	0.799016	0.333237
H240	H	1.864202	1.132350	0.666570
H241	H	1.153870	0.532262	-0.053278
H242	H	1.487204	0.865595	0.280055
H243	H	1.820537	1.198929	0.613389
H244	H	1.153859	0.532270	0.053076
H245	H	1.487192	0.865604	0.386409
H246	H	1.820526	1.198937	0.719742
H247	H	0.851977	0.446851	-0.000084
H248	H	1.185310	0.780184	0.333249
H249	H	1.518644	1.113517	0.666582
H250	H	0.854760	0.289515	-0.000080
H251	H	1.188094	0.622849	0.333254
H252	H	1.521427	0.956182	0.666587
