data_functionalizedCrystal
_audit_creation_method	'MofGen! by Chris Wilmer'
_symmetry_space_group_name_H-M	'P1'
_symmetry_Int_Tables_number	1
_symmetry_cell_setting	triclinic
loop_
_symmetry_equiv_pos_as_xyz
  x,y,z
_cell_length_a	13.635800
_cell_length_b	17.458045
_cell_length_c	19.551889
_cell_angle_alpha	84.602079
_cell_angle_beta	101.664587
_cell_angle_gamma	73.632038
loop_
_atom_site_label
_atom_site_type_symbol
_atom_site_fract_x
_atom_site_fract_y
_atom_site_fract_z
V1	V	2.010687	-0.111415	0.218485
O2	O	1.996829	0.004481	0.213687
O3	O	1.993835	-0.220079	0.217606
O4	O	1.981948	-0.110085	0.313494
O5	O	2.008799	-0.106274	0.117135
V6	V	2.252136	-0.097508	0.206288
O7	O	2.141999	-0.141923	0.245240
O8	O	2.345922	-0.067000	0.179533
O9	O	2.157384	0.011156	0.207168
O10	O	2.324692	-0.213404	0.211086
O11	O	2.312722	-0.102649	0.307639
O12	O	2.169272	-0.098839	0.111280
V13	V	2.510687	-0.111415	0.218485
O14	O	2.496829	0.004481	0.213687
O15	O	2.493835	-0.220079	0.217606
O16	O	2.481948	-0.110085	0.313494
O17	O	2.508799	-0.106274	0.117135
V18	V	2.752136	-0.097508	0.206288
O19	O	2.641999	-0.141923	0.245240
O20	O	2.845922	-0.067000	0.179533
O21	O	2.657384	0.011156	0.207168
O22	O	2.824692	-0.213404	0.211086
O23	O	2.812722	-0.102649	0.307639
O24	O	2.669272	-0.098839	0.111280
C25	C	1.918270	-0.246557	0.214317
C26	C	1.945106	-0.335393	0.214231
C27	C	1.866548	-0.373047	0.210681
C28	C	1.891766	-0.456517	0.210591
C29	C	1.995544	-0.502332	0.214058
C30	C	2.074107	-0.464672	0.217607
C31	C	2.048887	-0.381203	0.217691
C32	C	2.080747	-0.752406	0.214178
C33	C	2.105962	-0.835881	0.214096
C34	C	1.923619	-0.827720	0.207079
C35	C	1.898408	-0.744250	0.207167
C36	C	1.976971	-0.706597	0.210713
N37	N	2.021324	-0.587652	0.213969
N38	N	1.951189	-0.621277	0.210796
C39	C	1.903106	-0.106247	0.336632
C40	C	1.920299	-0.105878	0.414306
C41	C	2.064621	0.037630	0.210454
C42	C	2.027404	0.126465	0.210545
C43	C	2.079785	-0.102679	0.088138
C44	C	2.052211	-0.103044	0.010464
C45	C	2.418270	-0.246557	0.214317
C46	C	2.445106	-0.335393	0.214231
C47	C	2.135292	-0.107210	0.977560
C48	C	2.119148	-0.107562	0.904578
C49	C	2.019912	-0.103733	0.864500
C50	C	1.936822	-0.099571	0.897412
C51	C	1.952971	-0.099227	0.970394
C52	C	1.908696	-0.054154	0.739452
C53	C	1.892549	-0.054494	0.666471
C54	C	1.970099	-0.104799	0.639400
C55	C	2.063812	-0.154754	0.685318
C56	C	2.079961	-0.154410	0.758300
C57	C	2.002390	-0.104106	0.785363
C58	C	2.035682	-0.109348	0.527362
C59	C	2.019535	-0.109706	0.454379
C60	C	1.837204	-0.101707	0.447213
C61	C	1.853356	-0.101357	0.520196
C62	C	1.952595	-0.105174	0.560265
C63	C	2.548886	-0.381200	0.217705
C64	C	2.574118	-0.464674	0.217635
C65	C	2.495566	-0.502338	0.214086
C66	C	2.391778	-0.456525	0.210614
C67	C	2.366549	-0.373054	0.210689
C68	C	2.403106	-0.106247	0.336632
C69	C	2.420299	-0.105878	0.414306
C70	C	2.564621	0.037630	0.210454
C71	C	2.527404	0.126465	0.210545
C72	C	2.579785	-0.102679	0.088138
C73	C	2.552211	-0.103044	0.010464
C74	C	2.519540	-0.109703	0.454366
C75	C	2.535706	-0.109345	0.527348
C76	C	2.452631	-0.105169	0.560269
C77	C	2.353381	-0.101341	0.520203
C78	C	2.337215	-0.101693	0.447221
C79	C	2.596118	0.172271	0.207073
C80	C	2.561157	0.255744	0.207147
C81	C	2.457486	0.293408	0.210697
C82	C	2.388767	0.247596	0.214167
C83	C	2.423726	0.164126	0.214088
C84	C	2.453053	-0.107211	-0.022439
C85	C	2.427126	-0.107545	-0.095424
C86	C	2.500360	-0.103717	-0.135503
C87	C	2.599525	-0.099546	-0.102596
C88	C	2.625448	-0.099207	-0.029614
H89	H	1.782044	-0.335750	0.207863
H90	H	2.479243	-0.104004	-0.194929
H91	H	2.216099	-0.110318	1.010181
F92	F	2.350582	0.115383	0.217786
F93	F	2.146354	-0.208298	0.656514
H94	H	2.516123	-0.570306	0.214026
F95	F	2.632505	-0.341131	0.221487
H96	H	2.659144	-0.096427	-0.135240
F97	F	1.864540	-0.094793	1.005413
F98	F	1.808148	-0.496585	0.206800
F99	F	2.706459	0.132202	0.203295
F100	F	2.308187	-0.496622	0.206835
H101	H	2.658632	-0.501963	0.220460
F102	F	2.730991	-0.094782	0.005398
F103	F	1.731592	-0.097638	0.404564
F104	F	2.107970	-0.114147	0.419362
H105	H	2.112857	-0.350546	0.220578
F106	F	2.141300	-0.113411	0.570009
F107	F	1.787954	-0.695495	0.203477
F108	F	2.321586	-0.111989	-0.130432
F109	F	2.375095	-0.111286	0.020204
F110	F	2.256087	-0.324310	0.206987
F111	F	2.207577	-0.111996	0.869553
F112	F	1.840013	-0.867798	0.203303
H113	H	2.587197	-0.113106	0.427572
H114	H	2.465809	-0.104883	0.619696
F115	F	2.216422	-0.884641	0.217789
F116	F	2.264978	-0.096904	0.555251
F117	F	2.164360	-0.712341	0.217937
F118	F	1.764926	-0.096919	0.555214
H119	H	1.816249	-0.013812	0.629089
H120	H	2.617126	0.293033	0.204322
H121	H	1.845536	-0.013190	0.761486
F122	F	1.831209	-0.095500	0.854758
H123	H	2.616527	-0.112465	0.559961
F124	F	2.231589	-0.097630	0.404594
H125	H	2.304355	0.278275	0.217057
F126	F	2.184555	-0.513433	0.221288
F127	F	2.179691	-0.207577	0.807167
F128	F	2.420294	0.382247	0.210780
