data_functionalizedCrystal
_audit_creation_method	'MofGen! by Chris Wilmer'
_symmetry_space_group_name_H-M	'P1'
_symmetry_Int_Tables_number	1
_symmetry_cell_setting	triclinic
loop_
_symmetry_equiv_pos_as_xyz
  x,y,z
_cell_length_a	10.723023
_cell_length_b	12.837943
_cell_length_c	9.798715
_cell_angle_alpha	89.997355
_cell_angle_beta	89.998183
_cell_angle_gamma	89.648244
loop_
_atom_site_label
_atom_site_type_symbol
_atom_site_fract_x
_atom_site_fract_y
_atom_site_fract_z
O1	O	0.324662	1.377761	-0.113459
O2	O	0.308624	1.075841	-0.113467
O3	O	0.135823	1.233766	-0.113459
O4	O	0.497463	1.219836	-0.113468
O5	O	0.135821	1.233754	0.113524
O6	O	0.308622	1.075829	0.113515
O7	O	0.324660	1.377749	0.113523
Zn8	Zn	0.316641	1.226787	0.149557
Zn9	Zn	0.316643	1.226803	-0.149502
O10	O	0.497461	1.219825	0.113514
C11	C	0.303205	1.037176	0.000023
C12	C	0.287047	0.921984	0.000019
C13	C	0.481303	0.682407	0.000034
C14	C	0.466126	0.574173	0.000032
C15	C	0.241518	0.597281	0.000023
C16	C	0.256694	0.705515	0.000025
C17	C	0.376591	0.748073	0.000028
C18	C	0.391766	0.856309	0.000021
C19	C	0.167159	0.879415	0.000022
C20	C	0.151982	0.771181	0.000020
C21	C	0.089212	1.232746	0.000031
C22	C	-0.049671	1.229714	0.000025
C23	C	-0.111597	1.228356	0.117607
C24	C	-0.255140	1.225222	0.117604
C25	C	0.544071	1.220844	0.000022
C26	C	0.682955	1.223876	0.000018
C27	C	0.330079	1.416414	0.000030
C28	C	0.346237	1.531606	0.000024
N29	N	0.316639	1.226784	0.353657
N30	N	0.316636	1.226814	-0.353601
C31	C	0.243734	1.293092	0.421438
C32	C	0.243731	1.293109	0.578600
H33	H	0.054366	0.736515	0.000033
H34	H	0.143903	0.562610	0.000133
C35	C	0.051963	0.951648	0.000018
C36	C	0.031495	1.029231	0.117880
C37	C	-0.083698	1.101463	0.117870
C38	C	-0.178424	1.096112	-0.000002
C39	C	-0.157958	1.018525	-0.117872
C40	C	-0.042765	0.946294	-0.117863
H41	H	0.101619	1.033196	0.205143
H42	H	-0.098848	1.158898	0.205126
H43	H	-0.263696	1.149582	-0.000009
H44	H	-0.228082	1.014561	-0.205136
H45	H	-0.027616	0.888859	-0.205119
C46	C	0.159408	1.369773	0.342666
C47	C	0.159399	1.369551	0.185509
C48	C	0.075069	1.446235	0.106743
C49	C	-0.009252	1.523141	0.185133
C50	C	-0.009246	1.523366	0.342298
C51	C	0.075084	1.446682	0.421064
H52	H	0.221821	1.312618	0.127473
H53	H	0.075065	1.446068	-0.009601
H54	H	-0.071677	1.579907	0.126825
H55	H	-0.071668	1.580299	0.400334
H56	H	0.075087	1.446849	0.537408
C57	C	0.159403	1.369805	0.657333
C58	C	0.059297	1.328301	0.755660
C59	C	-0.025034	1.405000	0.834396
C60	C	-0.009258	1.523204	0.814805
C61	C	0.090853	1.564715	0.716474
C62	C	0.175183	1.488016	0.637738
H63	H	0.047615	1.240793	0.770166
H64	H	-0.099142	1.374270	0.907187
H65	H	-0.071685	1.579981	0.873090
H66	H	0.102535	1.652222	0.701968
H67	H	0.249292	1.518745	0.564947
H68	H	0.379062	1.170046	0.588119
H69	H	-0.058345	1.229519	0.218274
C70	C	-0.327072	1.223644	0.253606
C71	C	-0.413350	1.131749	0.287507
C72	C	-0.485285	1.130172	0.423514
C73	C	-0.470942	1.220489	0.525620
C74	C	-0.384660	1.312390	0.491722
C75	C	-0.312726	1.313968	0.355715
H76	H	-0.423971	1.064885	0.211919
H77	H	-0.549156	1.062140	0.448607
H78	H	-0.524192	1.219321	0.626301
H79	H	-0.374039	1.379255	0.567309
H80	H	-0.248855	1.382000	0.330622
C81	C	-0.121598	1.228151	-0.135979
C82	C	-0.100296	1.138612	-0.238085
C83	C	-0.172220	1.137049	-0.374095
C84	C	-0.265444	1.225024	-0.407998
C85	C	-0.286750	1.314570	-0.305890
C86	C	-0.214827	1.316133	-0.169881
H87	H	-0.031282	1.073481	-0.212990
H88	H	-0.156447	1.070761	-0.449682
H89	H	-0.318686	1.223867	-0.508681
H90	H	-0.355764	1.379700	-0.330986
H91	H	-0.230599	1.382421	-0.094294
H92	H	0.551394	0.520710	0.000040
H93	H	0.489392	0.890958	0.000026
H94	H	0.578927	0.717059	0.000034
H95	H	-0.263798	1.225036	-0.100652
H96	H	0.379050	1.170024	0.411978
