data_functionalizedCrystal
_audit_creation_method	'MofGen! by Chris Wilmer'
_symmetry_space_group_name_H-M	'P1'
_symmetry_Int_Tables_number	1
_symmetry_cell_setting	triclinic
loop_
_symmetry_equiv_pos_as_xyz
  x,y,z
_cell_length_a	19.077241
_cell_length_b	19.077713
_cell_length_c	25.639234
_cell_angle_alpha	87.723951
_cell_angle_beta	92.323673
_cell_angle_gamma	90.117203
loop_
_atom_site_label
_atom_site_type_symbol
_atom_site_fract_x
_atom_site_fract_y
_atom_site_fract_z
Zn1	Zn	-1.085504	0.236730	-0.335166
Zn2	Zn	-1.090123	0.354228	-0.251380
Zn3	Zn	-0.967990	0.241450	-0.244369
Zn4	Zn	-0.972666	0.358905	-0.335409
O5	O	-1.029071	0.297829	-0.291581
O6	O	-1.184452	0.248384	-0.326884
O7	O	-1.073898	0.339286	-0.177285
O8	O	-0.979689	0.142496	-0.253378
O9	O	-1.187846	0.334709	-0.265327
O10	O	-1.066025	0.139028	-0.320086
O11	O	-0.984168	0.256429	-0.172134
O12	O	-0.870275	0.260964	-0.253614
O13	O	-0.987658	0.342680	-0.408543
O14	O	-0.873710	0.347257	-0.320501
O15	O	-1.070560	0.252919	-0.408364
O16	O	-1.078432	0.453177	-0.265562
O17	O	-0.992137	0.456613	-0.327299
C18	C	-0.846495	0.305131	-0.286323
C19	C	-0.768389	0.308271	-0.284087
C20	C	-0.729931	0.264873	-0.315139
C21	C	-0.656542	0.267821	-0.313033
C22	C	-0.621612	0.314171	-0.279877
C23	C	-0.660075	0.357571	-0.248821
C24	C	-0.733463	0.354619	-0.250925
C25	C	-0.402316	0.327807	-0.270141
C26	C	-0.328923	0.330757	-0.268041
C27	C	-0.325395	0.241007	-0.332252
C28	C	-0.398785	0.238062	-0.334354
C29	C	-0.437241	0.281459	-0.303297
N30	N	-0.546597	0.317187	-0.277725
N31	N	-0.512255	0.278439	-0.305447
C32	C	-1.036312	0.480390	-0.297230
C33	C	-1.039475	0.558488	-0.299665
C34	C	-0.212359	0.290495	-0.296856
C35	C	-0.290466	0.287359	-0.299093
C36	C	-1.029115	0.297795	-0.427955
C37	C	-1.029134	0.297780	-0.486069
C38	C	-1.021820	0.114554	-0.285923
C39	C	-1.018731	0.036453	-0.283511
C40	C	-1.062152	0.997893	-0.317120
C41	C	-1.059173	0.924512	-0.314826
C42	C	-1.012769	0.889692	-0.278927
C43	C	-0.969345	0.928257	-0.245315
C44	C	-0.972328	1.001637	-0.247606
C45	C	-0.999034	0.670432	-0.268345
C46	C	-0.996053	0.597047	-0.266057
C47	C	-1.085882	0.593307	-0.335568
C48	C	-1.088858	0.666689	-0.337858
C49	C	-1.045438	0.705247	-0.304245
N50	N	-1.009721	0.814685	-0.276583
N51	N	-1.048489	0.780252	-0.306587
C52	C	-0.982428	0.254552	-0.843753
C53	C	-0.982431	0.254539	-0.898358
O54	O	-0.942688	0.217864	-0.924318
N55	N	-1.029153	0.297669	-0.928349
C56	C	-1.075870	0.340820	-0.903733
O57	O	-1.115610	0.377505	-0.934257
C58	C	-1.075863	0.340836	-0.849130
C59	C	-1.029143	0.297698	-0.819142
C60	C	-0.935711	0.211418	-0.813765
C61	C	-0.935709	0.211430	-0.759165
C62	C	-0.982424	0.254576	-0.734553
C63	C	-1.029140	0.297710	-0.764541
C64	C	-1.122575	0.383990	-0.824516
C65	C	-1.122564	0.384003	-0.769908
C66	C	-1.075844	0.340865	-0.739920
C67	C	-1.075853	0.340868	-0.685329
N68	N	-1.029131	0.297738	-0.655338
C69	C	-0.982416	0.254592	-0.679950
C70	C	-1.075881	0.340784	-1.018403
C71	C	-1.075892	0.340765	-1.073005
C72	C	-0.982452	0.254484	-1.067626
C73	C	-0.982445	0.254500	-1.013023
C74	C	-1.029159	0.297654	-0.988412
C75	C	-0.982416	0.254620	-0.565286
C76	C	-0.982420	0.254634	-0.510681
C77	C	-1.075856	0.340917	-0.516065
C78	C	-1.075855	0.340901	-0.570665
C79	C	-1.029129	0.297750	-0.595274
O80	O	-1.115574	0.377527	-0.659332
O81	O	-0.942676	0.217920	-0.649420
C82	C	-1.029065	0.297810	-0.155738
C83	C	-1.029174	0.297621	-0.097622
H84	H	-0.631630	0.395306	-0.221823
Br85	Br	-0.872296	0.152886	-0.718474
H86	H	-1.126654	0.695033	-0.367086
H87	H	-0.300486	0.368504	-0.241041
H88	H	-0.758366	0.227132	-0.342139
H89	H	-0.764775	0.389958	-0.225639
H90	H	-0.944402	0.219373	-0.988609
Br91	Br	-0.872294	0.152866	-0.847156
H92	H	-1.113906	0.376019	-0.595083
Br93	Br	-0.913402	1.053968	-0.201990
H94	H	-0.963678	0.701817	-0.240975
Br95	Br	-0.919012	0.196083	-0.469985
Br96	Br	-0.604352	0.208921	-0.355178
H97	H	-0.944367	0.219483	-0.585315
H98	H	-0.427219	0.200321	-0.361355
H99	H	-0.433619	0.363145	-0.244852
Br100	Br	-0.919053	0.195928	-1.101038
H101	H	-1.094531	0.893117	-0.342192
H102	H	-0.294076	0.205674	-0.357536
H103	H	-1.099933	1.026239	-0.346358
Br104	Br	-1.144806	0.540975	-0.381184
H105	H	-1.113944	0.375884	-1.097417
Br106	Br	-0.933077	0.549791	-0.217329
Br107	Br	-0.906371	0.881002	-0.196590
H108	H	-1.113929	0.375920	-0.998369
Br109	Br	-1.185981	0.442544	-0.865201
Br110	Br	-1.185962	0.442575	-0.736512
H111	H	-1.113892	0.376043	-0.496016
