data_functionalizedCrystal
_audit_creation_method	'MofGen! by Chris Wilmer'
_symmetry_space_group_name_H-M	'P1'
_symmetry_Int_Tables_number	1
_symmetry_cell_setting	triclinic
loop_
_symmetry_equiv_pos_as_xyz
  x,y,z
_cell_length_a	27.732064
_cell_length_b	15.944551
_cell_length_c	14.421503
_cell_angle_alpha	90.011571
_cell_angle_beta	89.994262
_cell_angle_gamma	96.925919
loop_
_atom_site_label
_atom_site_type_symbol
_atom_site_fract_x
_atom_site_fract_y
_atom_site_fract_z
O1	O	0.062336	-1.113702	0.077006
O2	O	0.395670	-0.780369	0.410340
O3	O	0.729003	-0.447035	0.743673
O4	O	0.070022	-0.869053	0.077028
O5	O	0.403356	-0.535719	0.410362
O6	O	0.736689	-0.202386	0.743695
O7	O	-0.004184	-0.998968	0.077020
O8	O	0.329149	-0.665635	0.410354
O9	O	0.662483	-0.332302	0.743687
O10	O	0.136543	-0.983786	0.077014
O11	O	0.469876	-0.650453	0.410348
O12	O	0.803209	-0.317120	0.743681
O13	O	-0.004179	-0.998984	-0.077203
O14	O	0.329154	-0.665651	0.256130
O15	O	0.662487	-0.332317	0.589464
O16	O	0.070027	-0.869068	-0.077195
O17	O	0.403360	-0.535735	0.256138
O18	O	0.736694	-0.202402	0.589472
O19	O	0.062341	-1.113718	-0.077217
O20	O	0.395674	-0.780384	0.256116
O21	O	0.729008	-0.447051	0.589450
Cu22	Cu	0.066185	-0.991394	-0.091288
Cu23	Cu	0.399518	-0.658061	0.242045
Cu24	Cu	0.732851	-0.324728	0.575379
Cu25	Cu	0.066179	-0.991376	0.091099
Cu26	Cu	0.399512	-0.658043	0.424433
Cu27	Cu	0.732845	-0.324709	0.757766
O28	O	0.136547	-0.983802	-0.077209
O29	O	0.469881	-0.650469	0.256124
O30	O	0.803214	-0.317135	0.589458
C31	C	0.069706	-0.837771	-0.000080
C32	C	0.403039	-0.504437	0.333253
C33	C	0.736372	-0.171104	0.666586
C34	C	0.068749	-0.744537	-0.000072
C35	C	0.402082	-0.411204	0.333262
C36	C	0.735416	-0.077870	0.666595
C37	C	0.062658	-1.145000	-0.000106
C38	C	0.395991	-0.811666	0.333227
C39	C	0.729324	-0.478333	0.666560
C40	C	0.063614	-1.238233	-0.000109
C41	C	0.396948	-0.904900	0.333224
C42	C	0.730281	-0.571567	0.666558
C43	C	-0.022190	-0.998655	-0.000088
C44	C	0.311144	-0.665322	0.333245
C45	C	0.644477	-0.331989	0.666578
C46	C	-0.075848	-0.997689	-0.000080
C47	C	0.257485	-0.664356	0.333254
C48	C	0.590818	-0.331023	0.666587
C49	C	-0.453282	-0.914339	-0.000069
C50	C	-0.119949	-0.581006	0.333265
C51	C	0.213385	-0.247672	0.666598
C52	C	-0.251606	-0.917895	-0.000068
C53	C	0.081727	-0.584561	0.333266
C54	C	0.415060	-0.251228	0.666599
O55	O	-0.220634	-0.853217	-0.000025
O56	O	0.112699	-0.519884	0.333308
O57	O	0.446033	-0.186551	0.666642
N58	N	-0.232145	-0.994932	-0.000075
N59	N	0.101188	-0.661599	0.333259
N60	N	0.434521	-0.328266	0.666592
C61	C	-0.263107	-1.071086	-0.000075
C62	C	0.070227	-0.737753	0.333258
C63	C	0.403560	-0.404420	0.666591
O64	O	-0.241926	-1.136693	-0.000072
O65	O	0.091407	-0.803360	0.333262
O66	O	0.424740	-0.470026	0.666595
C67	C	-0.464781	-1.067530	-0.000070
C68	C	-0.131448	-0.734196	0.333264
C69	C	0.201885	-0.400863	0.666597
C70	C	-0.484239	-0.990487	-0.000072
C71	C	-0.150906	-0.657154	0.333261
C72	C	0.182427	-0.323821	0.666594
C73	C	-0.472741	-0.837303	-0.000070
C74	C	-0.139407	-0.503969	0.333263
C75	C	0.193926	-0.170636	0.666597
C76	C	-0.523157	-0.836414	-0.000075
C77	C	-0.189823	-0.503081	0.333258
C78	C	0.143510	-0.169748	0.666591
C79	C	-0.554114	-0.912563	-0.000079
C80	C	-0.220781	-0.579229	0.333254
C81	C	0.112553	-0.245896	0.666588
C82	C	-0.534655	-0.989599	-0.000078
C83	C	-0.201322	-0.656266	0.333256
C84	C	0.132011	-0.322932	0.666589
C85	C	-0.495742	-1.143683	-0.000064
C86	C	-0.162408	-0.810350	0.333269
C87	C	0.170925	-0.477016	0.666603
C88	C	-0.546163	-1.142787	-0.000060
C89	C	-0.212830	-0.809454	0.333273
C90	C	0.120504	-0.476120	0.666606
C91	C	-0.565621	-1.065744	-0.000063
C92	C	-0.232288	-0.732411	0.333270
C93	C	0.101046	-0.399078	0.666604
C94	C	-0.616029	-1.064859	-0.000087
C95	C	-0.282695	-0.731526	0.333247
C96	C	0.050638	-0.398193	0.666580
N97	N	-0.635490	-0.987822	-0.000080
N98	N	-0.302156	-0.654488	0.333254
N99	N	0.031177	-0.321155	0.666587
C100	C	-0.604532	-0.911673	-0.000076
C101	C	-0.271199	-0.578340	0.333257
C102	C	0.062134	-0.245007	0.666591
C103	C	-0.157224	-1.072948	-0.000080
C104	C	0.176109	-0.739615	0.333253
C105	C	0.509443	-0.406281	0.666586
C106	C	-0.106806	-1.073837	-0.000083
C107	C	0.226528	-0.740504	0.333250
C108	C	0.559861	-0.407171	0.666583
C109	C	-0.095309	-0.920645	-0.000074
C110	C	0.238024	-0.587312	0.333259
C111	C	0.571358	-0.253979	0.666593
C112	C	-0.145728	-0.919757	-0.000077
C113	C	0.187605	-0.586424	0.333256
C114	C	0.520938	-0.253090	0.666589
C115	C	-0.176685	-0.995910	-0.000074
C116	C	0.156648	-0.662577	0.333260
C117	C	0.489981	-0.329244	0.666593
C118	C	-0.710410	-0.909814	-0.000088
C119	C	-0.377077	-0.576481	0.333245
C120	C	-0.043743	-0.243147	0.666579
C121	C	-0.760831	-0.908933	-0.000097
C122	C	-0.427498	-0.575599	0.333236
C123	C	-0.094164	-0.242266	0.666570
C124	C	-0.772323	-1.062124	-0.000102
C125	C	-0.438990	-0.728791	0.333232
C126	C	-0.105657	-0.395458	0.666565
C127	C	-0.721907	-1.063006	-0.000097
C128	C	-0.388573	-0.729673	0.333236
C129	C	-0.055240	-0.396340	0.666569
C130	C	-0.690951	-0.986844	-0.000087
C131	C	-0.357618	-0.653511	0.333246
C132	C	-0.024284	-0.320178	0.666579
O133	O	-0.647030	-1.129502	-0.000119
O134	O	-0.313696	-0.796169	0.333214
O135	O	0.019637	-0.462835	0.666548
O136	O	-0.625722	-0.846076	-0.000059
O137	O	-0.292389	-0.512743	0.333274
O138	O	0.040944	-0.179409	0.666607
C139	C	-0.402866	-0.915227	-0.000063
C140	C	-0.069533	-0.581894	0.333270
C141	C	0.263800	-0.248560	0.666603
C142	C	-0.383408	-0.992263	-0.000062
C143	C	-0.050074	-0.658930	0.333272
C144	C	0.283259	-0.325597	0.666605
C145	C	-0.414365	-1.068412	-0.000066
C146	C	-0.081032	-0.735078	0.333268
C147	C	0.252302	-0.401745	0.666601
C148	C	-0.332989	-0.993153	-0.000065
C149	C	0.000344	-0.659819	0.333268
C150	C	0.333678	-0.326486	0.666602
C151	C	-0.302032	-0.917004	-0.000061
C152	C	0.031302	-0.583671	0.333272
C153	C	0.364635	-0.250338	0.666606
C154	C	-0.321493	-0.839967	-0.000054
C155	C	0.011840	-0.506633	0.333279
C156	C	0.345174	-0.173300	0.666612
C157	C	-0.371909	-0.839079	-0.000060
C158	C	-0.038576	-0.505745	0.333274
C159	C	0.294758	-0.172412	0.666607
C160	C	-0.394904	-1.145449	-0.000072
C161	C	-0.061570	-0.812116	0.333261
C162	C	0.271763	-0.478783	0.666594
C163	C	-0.344487	-1.146331	-0.000068
C164	C	-0.011154	-0.812998	0.333265
C165	C	0.322179	-0.479664	0.666599
C166	C	-0.313530	-1.070183	-0.000064
C167	C	0.019803	-0.736849	0.333269
C168	C	0.353137	-0.403516	0.666602
C169	C	0.154553	-0.984115	-0.000098
C170	C	0.487886	-0.650782	0.333235
C171	C	0.821220	-0.317448	0.666569
C172	C	0.208212	-0.985081	-0.000101
C173	C	0.541545	-0.651748	0.333233
C174	C	0.874878	-0.318414	0.666566
N175	N	0.066188	-0.991413	-0.219569
N176	N	0.399522	-0.658080	0.113764
N177	N	0.732855	-0.324747	0.447098
C178	C	0.020466	-0.530307	-0.000088
C179	C	0.353799	-0.196973	0.333246
C180	C	0.687133	0.136360	0.666579
C181	C	0.042885	-0.468988	0.075952
C182	C	0.376218	-0.135655	0.409285
C183	C	0.709551	0.197679	0.742619
C184	C	0.067018	-0.573834	-0.000082
C185	C	0.400352	-0.240500	0.333251
C186	C	0.733685	0.092833	0.666584
C187	C	0.042900	-0.469026	-0.076100
C188	C	0.376234	-0.135692	0.257233
C189	C	0.709567	0.197641	0.590566
C190	C	0.065343	-0.408943	-0.000097
C191	C	0.398677	-0.075609	0.333236
C192	C	0.732010	0.257724	0.666570
C193	C	0.089450	-0.513743	0.076020
C194	C	0.422783	-0.180410	0.409353
C195	C	0.756116	0.152924	0.742686
C196	C	0.089459	-0.513787	-0.076101
C197	C	0.422792	-0.180453	0.257233
C198	C	0.756126	0.152880	0.590566
C199	C	0.111911	-0.452485	-0.000043
C200	C	0.445245	-0.119152	0.333290
C201	C	0.778578	0.214181	0.666624
C202	C	0.067982	-0.668823	-0.000073
C203	C	0.401315	-0.335490	0.333260
C204	C	0.734649	-0.002157	0.666593
C205	C	0.064383	-0.313954	-0.000100
C206	C	0.397717	0.019379	0.333234
C207	C	0.731050	0.352713	0.666567
C208	C	0.031868	-1.051499	-0.469202
C209	C	0.365201	-0.718166	-0.135868
C210	C	0.698534	-0.384833	0.197465
C211	C	0.022478	-0.975722	-0.530991
C212	C	0.355811	-0.642388	-0.197658
C213	C	0.689145	-0.309055	0.135676
C214	C	0.066182	-0.991395	-0.408731
C215	C	0.399516	-0.658061	-0.075397
C216	C	0.732849	-0.324728	0.257936
C217	C	0.075544	-1.067155	-0.531035
C218	C	0.408877	-0.733822	-0.197702
C219	C	0.742211	-0.400488	0.135632
C220	C	0.066176	-0.991384	-0.591452
C221	C	0.399509	-0.658050	-0.258119
C222	C	0.732842	-0.324717	0.075215
C223	C	0.056771	-0.915579	-0.469159
C224	C	0.390104	-0.582246	-0.135826
C225	C	0.723438	-0.248912	0.197508
C226	C	0.109856	-1.007062	-0.469198
C227	C	0.443189	-0.673729	-0.135864
C228	C	0.776523	-0.340395	0.197469
C229	C	0.100485	-0.931229	-0.530959
C230	C	0.433818	-0.597896	-0.197626
C231	C	0.767151	-0.264563	0.135708
C232	C	0.066185	-0.991402	-0.303469
C233	C	0.399518	-0.658069	0.029864
C234	C	0.732852	-0.324736	0.363197
C235	C	0.066173	-0.991367	-0.696711
C236	C	0.399507	-0.658034	-0.363378
C237	C	0.732840	-0.324701	-0.030044
N238	N	0.066171	-0.991364	0.219380
N239	N	0.399505	-0.658030	0.552714
N240	N	0.732838	-0.324697	0.886047
H241	H	-0.776671	-0.846193	-0.000103
H242	H	-0.443337	-0.512859	0.333230
H243	H	-0.110004	-0.179526	0.666563
Br244	Br	0.043498	-0.808760	-0.424057
Br245	Br	0.376831	-0.475427	-0.090724
Br246	Br	0.710165	-0.142093	0.242610
Br247	Br	0.010067	-0.435887	0.183106
Br248	Br	0.343400	-0.102554	0.516439
Br249	Br	0.676733	0.230779	0.849773
H250	H	-0.685211	-0.847796	-0.000079
H251	H	-0.351878	-0.514462	0.333254
H252	H	-0.018545	-0.181129	0.666587
H253	H	0.146781	-1.020348	-0.442034
H254	H	0.480114	-0.687015	-0.108701
H255	H	0.813448	-0.353682	0.224633
H256	H	0.083465	-1.131229	-0.558214
H257	H	0.416798	-0.797895	-0.224881
H258	H	0.750132	-0.464562	0.108453
H259	H	-0.420105	-1.207460	-0.000074
H260	H	-0.086772	-0.874127	0.333259
H261	H	0.246562	-0.540793	0.666592
H262	H	-0.182426	-1.134965	-0.000079
H263	H	0.150908	-0.801632	0.333255
H264	H	0.484241	-0.468299	0.666588
Br265	Br	0.122241	-0.546614	0.183284
Br266	Br	0.455574	-0.213280	0.516617
Br267	Br	0.788907	0.120053	0.849951
H268	H	-0.447540	-0.775290	-0.000064
H269	H	-0.114206	-0.441957	0.333269
H270	H	0.219127	-0.108623	0.666603
Br271	Br	-0.172130	-0.815196	-0.000081
Br272	Br	0.161203	-0.481863	0.333252
Br273	Br	0.494536	-0.148529	0.666586
Br274	Br	-0.549556	-0.731851	-0.000069
Br275	Br	-0.216223	-0.398518	0.333264
Br276	Br	0.117111	-0.065184	0.666598
Br277	Br	-0.039085	-0.953606	-0.576222
Br278	Br	0.294248	-0.620273	-0.242888
Br279	Br	0.627582	-0.286939	0.090445
H280	H	0.002833	-1.102275	-0.442084
H281	H	0.336166	-0.768942	-0.108751
H282	H	0.669499	-0.435608	0.224582
H283	H	-0.479908	-1.206419	-0.000061
H284	H	-0.146575	-0.873086	0.333272
H285	H	0.186759	-0.539753	0.666605
Br286	Br	0.176370	-0.396378	0.000019
Br287	Br	0.509704	-0.063045	0.333353
Br288	Br	0.843037	0.270288	0.666686
Br289	Br	0.122254	-0.546929	-0.183257
Br290	Br	0.455587	-0.213596	0.150077
Br291	Br	0.788921	0.119738	0.483410
Br292	Br	0.010074	-0.435983	-0.183244
Br293	Br	0.343407	-0.102650	0.150090
Br294	Br	0.676740	0.230683	0.483423
H295	H	0.129502	-0.880341	-0.557904
H296	H	0.462836	-0.547008	-0.224571
H297	H	0.796169	-0.213674	0.108762
H298	H	-0.070095	-0.858642	-0.000075
H299	H	0.263239	-0.525309	0.333258
H300	H	0.596572	-0.191976	0.666592
H301	H	-0.090968	-1.136573	-0.000096
H302	H	0.242366	-0.803240	0.333237
H303	H	0.575699	-0.469907	0.666571
H304	H	-0.706063	-1.125741	-0.000109
H305	H	-0.372730	-0.792407	0.333225
H306	H	-0.039397	-0.459074	0.666558
Br307	Br	-0.814346	-1.165463	-0.000116
Br308	Br	-0.481013	-0.832130	0.333217
Br309	Br	-0.147679	-0.498797	0.666550
Br310	Br	-0.398308	-0.734515	-0.000063
Br311	Br	-0.064975	-0.401182	0.333270
Br312	Br	0.268359	-0.067849	0.666604
Br313	Br	-0.588173	-1.246145	-0.000048
Br314	Br	-0.254840	-0.912811	0.333285
Br315	Br	0.078493	-0.579478	0.666618
Br316	Br	-0.279469	-0.736624	-0.000055
Br317	Br	0.053864	-0.403290	0.333278
Br318	Br	0.387197	-0.069957	0.666611
Br319	Br	-0.318087	-1.250899	-0.000066
Br320	Br	0.015246	-0.917566	0.333268
Br321	Br	0.348580	-0.584233	0.666601
Br322	Br	-0.043937	-0.586657	0.000034
Br323	Br	0.289396	-0.253324	0.333367
Br324	Br	0.622730	0.080009	0.666701
