data_functionalizedCrystal
_audit_creation_method	'MofGen! by Chris Wilmer'
_symmetry_space_group_name_H-M	'P1'
_symmetry_Int_Tables_number	1
_symmetry_cell_setting	triclinic
loop_
_symmetry_equiv_pos_as_xyz
  x,y,z
_cell_length_a	15.712078
_cell_length_b	10.540539
_cell_length_c	14.185569
_cell_angle_alpha	76.712172
_cell_angle_beta	107.170411
_cell_angle_gamma	102.053320
loop_
_atom_site_label
_atom_site_type_symbol
_atom_site_fract_x
_atom_site_fract_y
_atom_site_fract_z
O1	O	1.131673	0.717868	-0.083634
O2	O	0.879430	0.620948	-0.083586
O3	O	1.011306	0.487297	-0.083610
O4	O	0.999796	0.851519	-0.083610
O5	O	1.050264	0.447821	0.083218
O6	O	0.918387	0.581473	0.083241
O7	O	1.170630	0.678392	0.083193
Cu8	Cu	1.048066	0.626328	0.098450
Cu9	Cu	1.001994	0.673013	-0.098843
O10	O	1.038754	0.812044	0.083217
C11	C	0.866609	0.585378	-0.000166
C12	C	0.770367	0.538186	-0.000148
C13	C	0.405728	0.938839	-0.000218
C14	C	0.315286	0.894476	-0.000242
C15	C	0.334529	0.672151	-0.000245
C16	C	0.424973	0.716498	-0.000225
C17	C	0.460565	0.849843	-0.000210
C18	C	0.479811	0.627501	-0.000217
C19	C	0.570248	0.671843	-0.000192
C20	C	0.605847	0.805182	-0.000174
C21	C	0.551002	0.894185	-0.000185
C22	C	0.444219	0.494155	-0.000224
C23	C	0.499056	0.405158	-0.000217
C24	C	0.589493	0.449501	-0.000199
C25	C	0.625093	0.582840	-0.000181
C26	C	0.644338	0.360498	-0.000188
C27	C	0.734775	0.404840	-0.000163
C28	C	0.715530	0.627182	-0.000156
C29	C	1.029922	0.419867	-0.000198
C30	C	1.027338	0.277756	-0.000203
C31	C	0.928298	0.049785	-0.000558
C32	C	0.931004	0.197495	-0.000183
C33	C	1.095945	0.214467	0.095055
C34	C	1.092676	0.066420	0.095136
C35	C	1.050333	0.111677	-0.094578
C36	C	1.050927	0.259357	-0.095838
C37	C	1.183450	0.713963	-0.000229
C38	C	1.279691	0.761157	-0.000253
C39	C	1.020138	0.879474	-0.000197
C40	C	1.022720	1.021587	-0.000199
N41	N	1.080477	0.593495	0.237215
N42	N	0.969590	0.705839	-0.237608
C43	C	0.874367	0.802247	0.604902
C44	C	0.898924	0.777388	0.709919
C45	C	1.015725	0.659115	0.709859
C46	C	0.991175	0.683959	0.604840
C47	C	0.920496	0.755527	0.552370
C48	C	1.037304	0.637239	0.552308
C49	C	1.012759	0.662087	0.447298
C50	C	0.942085	0.733655	0.394820
C51	C	0.895951	0.780375	0.447360
C52	C	1.107987	0.565679	0.604780
C53	C	1.154116	0.518959	0.552247
C54	C	1.129567	0.543799	0.447235
C55	C	1.058893	0.615367	0.394758
C56	C	1.175700	0.497079	0.394696
C57	C	1.151155	0.521927	0.289686
C58	C	1.034347	0.640215	0.289748
H59	H	0.779425	0.332371	-0.000159
H60	H	0.838391	0.838641	0.404637
H61	H	0.270640	0.966957	-0.000244
Cl62	Cl	1.104577	0.569150	0.775829
Cl63	Cl	0.945483	0.730172	0.223781
H64	H	0.878578	0.239803	-0.068467
H65	H	1.119766	0.095988	-0.095232
Cl66	Cl	0.330527	0.438408	-0.000246
Cl67	Cl	1.138844	0.534452	0.736795
Cl68	Cl	0.973579	0.325514	-0.204656
Cl69	Cl	0.840924	0.836137	0.775953
Cl70	Cl	0.911231	0.764901	0.262805
H71	H	0.679488	0.841282	-0.000149
Cl72	Cl	1.242968	0.428994	0.618217
Cl73	Cl	0.289777	0.504522	-0.000260
Cl74	Cl	1.157289	0.347772	-0.104748
H75	H	0.744511	0.735765	-0.000142
Cl76	Cl	0.595750	1.061825	-0.000179
Cl77	Cl	0.450476	1.106480	-0.000212
Cl78	Cl	0.454303	0.237529	-0.000233
Cl79	Cl	0.785503	0.892204	0.538936
Cl80	Cl	1.264559	0.407128	0.460668
Cl81	Cl	1.209151	0.463195	0.223643
Cl82	Cl	0.599586	0.192867	-0.000192
Cl83	Cl	0.844908	0.004087	-0.106025
H84	H	0.906263	-0.013593	0.067383
H85	H	0.910243	0.206495	0.068228
H86	H	1.167518	0.267893	0.098584
H87	H	1.075043	0.005916	0.166356
H88	H	1.162968	0.048679	0.099445
Cl89	Cl	1.071786	0.231902	0.204523
H90	H	1.002293	0.083146	-0.166779
