data_functionalizedCrystal
_audit_creation_method	'MofGen! by Chris Wilmer'
_symmetry_space_group_name_H-M	'P1'
_symmetry_Int_Tables_number	1
_symmetry_cell_setting	triclinic
loop_
_symmetry_equiv_pos_as_xyz
  x,y,z
_cell_length_a	15.500227
_cell_length_b	11.026607
_cell_length_c	11.026607
_cell_angle_alpha	71.413983
_cell_angle_beta	86.545431
_cell_angle_gamma	86.533579
loop_
_atom_site_label
_atom_site_type_symbol
_atom_site_fract_x
_atom_site_fract_y
_atom_site_fract_z
O1	O	0.071942	-1.731369	0.529003
O2	O	0.071943	-1.364789	0.468239
O3	O	0.071940	-1.517697	0.315331
O4	O	0.071946	-1.578461	0.681911
O5	O	-0.071949	-1.508408	0.324563
O6	O	-0.071945	-1.355500	0.477471
O7	O	-0.071946	-1.722080	0.538235
Cu8	Cu	-0.085084	-1.537942	0.508696
Cu9	Cu	0.085081	-1.548927	0.497778
O10	O	-0.071943	-1.569172	0.691143
C11	C	-0.000001	-1.312485	0.461645
C12	C	-0.000000	-1.170471	0.428228
N13	N	-0.204769	-1.530224	0.516377
C14	C	-0.000003	-1.501842	0.272288
C15	C	-0.000000	-1.468426	0.130273
C16	C	-0.250047	-1.595052	0.451621
C17	C	-0.340620	-1.589230	0.457444
C18	C	-0.385912	-1.518586	0.528031
C19	C	-0.340628	-1.453751	0.592788
C20	C	-0.250057	-1.459566	0.586957
C21	C	-0.659379	-1.497632	0.549016
C22	C	-0.749956	-1.491824	0.554845
C23	C	-0.749942	-1.627302	0.419498
C24	C	-0.659369	-1.633118	0.413680
C25	C	-0.614092	-1.568276	0.478432
C26	C	-0.478492	-1.512637	0.533988
C27	C	-0.521514	-1.574219	0.472466
N28	N	0.204766	-1.556652	0.490090
C29	C	-0.000000	-1.774384	0.544829
C30	C	0.000005	-1.916398	0.578245
C31	C	0.000002	-1.116821	0.520498
C32	C	0.000003	-0.970043	0.485962
C33	C	0.000001	-1.560695	0.076624
C34	C	0.000004	-1.526160	-0.070155
C35	C	0.000002	-1.585026	0.734186
C36	C	0.000005	-1.618443	0.876200
H37	H	-0.213175	-1.652584	0.394148
Br38	Br	-0.811420	-1.395949	0.650657
Br39	Br	-0.000001	-1.221368	0.694783
H40	H	-0.484634	-1.631732	0.414989
Br41	Br	-0.402072	-1.677206	0.369555
H42	H	0.000006	-1.363863	0.067540
Br43	Br	0.000017	-1.351869	-0.174698
H44	H	-0.515377	-1.455120	0.591464
Br45	Br	-0.597937	-1.409639	0.636893
H46	H	0.000023	-0.907315	0.381391
H47	H	-0.622493	-1.690641	0.356202
Br48	Br	-0.811391	-1.715294	0.331622
Br49	Br	-0.000013	-1.065923	0.253944
H50	H	0.000069	-1.723017	-0.061077
Br51	Br	-0.402093	-1.357864	0.688576
Br52	Br	-0.000009	-1.020936	0.752539
Br53	Br	-0.188608	-1.371571	0.674834
H54	H	-0.000005	-1.665258	0.139358
