data_functionalizedCrystal
_audit_creation_method	'MofGen! by Chris Wilmer'
_symmetry_space_group_name_H-M	'P1'
_symmetry_Int_Tables_number	1
_symmetry_cell_setting	triclinic
loop_
_symmetry_equiv_pos_as_xyz
  x,y,z
_cell_length_a	14.560438
_cell_length_b	21.606444
_cell_length_c	21.606444
_cell_angle_alpha	89.998123
_cell_angle_beta	60.002254
_cell_angle_gamma	60.004605
loop_
_atom_site_label
_atom_site_type_symbol
_atom_site_fract_x
_atom_site_fract_y
_atom_site_fract_z
Zr1	Zr	1.005215	0.596297	-0.081169
O2	O	1.196794	0.497489	-0.179977
O3	O	0.813634	0.626577	-0.050889
O4	O	1.005221	0.626592	-0.179996
O5	O	1.005204	0.497473	0.050983
O6	O	1.005227	0.728441	-0.180000
O7	O	1.005208	0.497474	-0.050870
O8	O	0.662514	0.728414	0.050949
O9	O	1.347917	0.497500	-0.179966
O10	O	0.892440	0.715512	-0.037966
O11	O	0.892432	0.639502	0.038049
O12	O	1.118000	0.639520	-0.113958
O13	O	1.117993	0.563510	-0.037943
Zr14	Zr	1.005220	0.758734	0.081269
Zr15	Zr	1.005225	0.758735	-0.081175
Zr16	Zr	1.005209	0.596296	0.081275
Zr17	Zr	1.246239	0.596315	-0.081151
Zr18	Zr	0.764196	0.758716	0.081251
O19	O	1.196800	0.728454	0.050989
O20	O	1.196809	0.728456	-0.179985
O21	O	1.196786	0.497488	0.050997
O22	O	0.813641	0.857542	0.180077
O23	O	0.813649	0.857543	-0.050897
O24	O	0.813626	0.626575	0.180086
O25	O	1.005231	0.857558	-0.050883
O26	O	1.005214	0.728439	0.180096
O27	O	1.005208	0.626589	0.180100
O28	O	1.005227	0.857557	0.050970
O29	O	1.347925	0.626617	-0.179970
O30	O	0.662510	0.728414	0.180071
O31	O	0.662518	0.857531	0.180066
O32	O	0.662523	0.857531	0.050945
O33	O	1.347912	0.497499	-0.050844
O34	O	1.347920	0.626616	-0.050849
O35	O	0.892434	0.715511	0.114058
O36	O	0.892442	0.791521	0.038044
O37	O	1.118002	0.715529	-0.037949
O38	O	1.117995	0.639519	0.038066
C39	C	0.703734	0.677493	0.000028
C40	C	0.601413	0.677485	0.000020
C41	C	0.457115	0.637852	0.039743
C42	C	0.553308	0.637824	0.039715
C43	C	0.553310	0.717184	-0.039643
C44	C	0.457112	0.717216	-0.039611
C45	C	0.457118	0.592031	0.085557
C46	C	0.553312	0.592003	0.085529
C47	C	1.005204	0.474330	0.000058
C48	C	1.005200	0.405370	0.000060
C49	C	0.887461	0.412638	0.039725
C50	C	0.887464	0.347841	0.039725
C51	C	1.005209	0.275776	0.000057
C52	C	1.122957	0.268510	-0.039609
C53	C	1.122952	0.333307	-0.039605
C54	C	1.122980	0.007192	-0.039626
C55	C	1.122975	-0.057606	-0.039629
C56	C	0.887492	0.021726	0.039704
C57	C	0.887487	0.086522	0.039708
C58	C	1.005234	0.079251	0.000046
C59	C	1.005229	0.149512	0.000047
C60	C	1.005215	0.205516	0.000051
C61	C	1.306701	0.677538	0.000073
C62	C	1.409022	0.677546	0.000080
C63	C	1.005225	0.677517	-0.203143
C64	C	1.005227	0.677517	-0.272104
C65	C	1.005230	0.880701	0.000043
C66	C	1.005235	0.949661	0.000040
C67	C	1.005233	0.733627	-0.304505
C68	C	1.005224	0.733629	-0.369298
C69	C	1.005218	0.677518	-0.401692
C70	C	1.005208	0.621405	-0.369286
C71	C	1.005208	0.621407	-0.304491
C72	C	1.005207	0.621399	-0.630596
C73	C	1.005211	0.621400	-0.695397
C74	C	1.005223	0.733621	-0.695403
C75	C	1.005223	0.733623	-0.630608
C76	C	1.005206	0.677513	-0.598205
C77	C	1.005213	0.677512	-0.527948
C78	C	1.005220	0.677515	-0.471951
C79	C	1.005210	0.677514	0.203243
C80	C	1.005208	0.677514	0.272205
C81	C	0.703747	0.880679	0.000020
C82	C	0.601430	0.949631	0.000010
C83	C	0.703727	0.677492	0.203220
C84	C	0.601403	0.677484	0.272175
C85	C	0.703740	0.880678	0.203213
C86	C	0.601421	0.949629	0.272165
C87	C	1.306695	0.474353	-0.203113
C88	C	1.409014	0.405402	-0.272064
C89	C	1.306688	0.474352	0.000080
C90	C	1.409004	0.405400	0.000090
C91	C	1.306708	0.677539	-0.203120
C92	C	1.409031	0.677547	-0.272074
C93	C	0.553380	0.942335	-0.039677
C94	C	0.457257	1.007117	-0.039702
C95	C	0.409178	1.079193	-0.000034
C96	C	0.457237	1.086486	0.039655
C97	C	0.553366	1.021706	0.039674
C98	C	0.553352	0.717156	0.344239
C99	C	0.457222	0.717145	0.409035
C100	C	0.409138	0.677467	0.401765
C101	C	0.457199	0.637790	0.329693
C102	C	0.553334	0.637796	0.264899
C103	C	0.553375	1.021692	0.264866
C104	C	0.457249	1.086486	0.329647
C105	C	0.409164	1.079214	0.401726
C106	C	0.457219	1.007143	0.409023
C107	C	0.553350	0.942351	0.344243
C108	C	1.457072	0.333338	-0.264766
C109	C	1.553228	0.268545	-0.329547
C110	C	1.601318	0.275817	-0.401626
C111	C	1.553256	0.347888	-0.408923
C112	C	1.457108	0.412680	-0.344143
C113	C	1.457064	0.412696	0.039771
C114	C	1.553215	0.347914	0.039778
C115	C	1.601297	0.275838	0.000108
C116	C	1.553233	0.268544	-0.039578
C117	C	1.457091	0.333325	-0.039589
C118	C	1.457085	0.717233	-0.264780
C119	C	1.553216	0.717256	-0.329563
C120	C	1.601298	0.677587	-0.401641
C121	C	1.553235	0.637900	-0.408933
C122	C	1.457099	0.637882	-0.344151
H123	H	0.592475	0.749483	-0.071958
Cl124	Cl	0.288309	1.160675	0.483158
H125	H	0.367136	0.617518	0.146230
Cl126	Cl	1.722188	0.194356	-0.483058
H127	H	0.791579	0.471313	0.072031
Cl128	Cl	1.005201	0.550856	-0.736120
H129	H	0.592476	1.027656	0.071997
Cl130	Cl	1.613625	0.767147	-0.320378
Cl131	Cl	0.613807	0.851733	-0.089555
H132	H	0.418055	1.001233	0.467719
H133	H	0.330903	1.131935	-0.000056
H134	H	0.592444	0.605493	0.206223
Cl135	Cl	1.613687	0.177929	-0.089442
Cl136	Cl	0.613731	0.851760	0.353431
Cl137	Cl	1.722160	0.194406	0.000131
H138	H	1.417951	0.749536	-0.206097
Cl139	Cl	0.497682	0.638556	0.176098
H140	H	1.417922	0.327403	-0.206082
Cl141	Cl	1.396675	0.324140	-0.089473
Cl142	Cl	1.613623	0.177951	-0.320356
Cl143	Cl	1.396695	0.503271	-0.353331
H144	H	0.493186	0.533385	0.055343
Cl145	Cl	0.692249	0.498335	0.046171
Cl146	Cl	0.739442	0.356982	0.089600
H147	H	1.592423	0.353800	-0.467617
H148	H	0.418138	1.001163	-0.072021
Cl149	Cl	1.270974	0.324168	-0.089468
Cl150	Cl	1.722160	0.677614	-0.483075
H151	H	0.791607	0.145198	0.072008
Cl152	Cl	0.613777	0.767045	0.353398
Cl153	Cl	0.613813	1.030854	0.174261
H154	H	1.592398	0.605602	-0.467627
H155	H	1.417985	0.605562	-0.350100
H156	H	0.417944	0.749546	-0.071899
Cl157	Cl	1.271009	-0.148205	-0.089501
H158	H	0.791616	0.027641	0.072001
H159	H	1.218826	0.209829	-0.071904
Cl160	Cl	1.271006	-0.001958	-0.089490
Cl161	Cl	1.005250	0.804168	-0.263790
Cl162	Cl	0.288279	0.677468	0.483229
Cl163	Cl	1.005230	0.804169	-0.410030
H164	H	1.005234	0.779311	-0.604236
H165	H	1.005197	0.575711	-0.604220
Cl166	Cl	1.005237	0.804163	-0.736139
H167	H	0.418103	0.749458	0.467713
Cl168	Cl	1.005192	0.550867	-0.410006
Cl169	Cl	1.396645	0.503298	0.089644
Cl170	Cl	0.396733	0.587914	0.320566
Cl171	Cl	1.005193	0.550868	-0.263757
Cl172	Cl	0.396776	1.177102	0.089523
H173	H	0.418132	1.145163	0.323693
Cl174	Cl	1.613612	0.357101	0.089676
