data_functionalizedCrystal
_audit_creation_method	'MofGen! by Chris Wilmer'
_symmetry_space_group_name_H-M	'P1'
_symmetry_Int_Tables_number	1
_symmetry_cell_setting	triclinic
loop_
_symmetry_equiv_pos_as_xyz
  x,y,z
_cell_length_a	10.654556
_cell_length_b	16.109304
_cell_length_c	9.130313
_cell_angle_alpha	89.998292
_cell_angle_beta	89.998135
_cell_angle_gamma	83.975087
loop_
_atom_site_label
_atom_site_type_symbol
_atom_site_fract_x
_atom_site_fract_y
_atom_site_fract_z
O1	O	1.666252	0.116799	-0.121734
O2	O	2.166252	0.616799	0.378266
O3	O	1.300624	0.127919	-0.121748
O4	O	1.800624	0.627919	0.378252
O5	O	1.493480	0.001388	-0.121741
O6	O	1.993480	0.501388	0.378259
O7	O	1.473396	0.243330	-0.121741
O8	O	1.973396	0.743330	0.378259
O9	O	1.493467	0.001384	0.121857
O10	O	1.993467	0.501384	0.621857
O11	O	1.300611	0.127915	0.121851
O12	O	1.800611	0.627915	0.621851
O13	O	1.666239	0.116795	0.121865
O14	O	2.166239	0.616795	0.621865
Cu15	Cu	1.483424	0.122355	0.144100
Cu16	Cu	1.983424	0.622355	0.644100
Cu17	Cu	1.483439	0.122359	-0.143984
Cu18	Cu	1.983439	0.622359	0.356016
O19	O	1.473383	0.243326	0.121858
O20	O	1.973383	0.743326	0.621858
C21	C	1.253831	0.127099	0.000049
C22	C	1.753831	0.627099	0.500049
C23	C	1.114421	0.124653	0.000044
C24	C	1.614421	0.624653	0.500044
C25	C	0.917929	0.121211	-0.132731
C26	C	1.417929	0.621211	0.367269
C27	C	1.048921	0.123505	-0.132740
C28	C	1.548921	0.623505	0.367260
C29	C	1.048925	0.123500	0.132845
C30	C	1.548925	0.623500	0.632845
C31	C	0.917937	0.121201	0.132853
C32	C	1.417937	0.621201	0.632853
C33	C	1.492660	-0.029594	0.000055
C34	C	1.992660	0.470406	0.500055
C35	C	1.490218	-0.121903	0.000045
C36	C	1.990218	0.378097	0.500045
C37	C	1.484586	-0.334272	-0.132736
C38	C	1.984586	0.165728	0.367264
C39	C	1.482281	-0.421006	-0.132735
C40	C	1.982281	0.078994	0.367265
C41	C	1.482273	-0.421007	0.132850
C42	C	1.982273	0.078993	0.632850
C43	C	1.484569	-0.334274	0.132847
C44	C	1.984569	0.165726	0.632847
C45	C	1.485732	-0.290909	0.000050
C46	C	1.985732	0.209091	0.500050
C47	C	1.481131	-0.464376	0.000054
C48	C	1.981131	0.035624	0.500054
C49	C	1.478631	-0.558417	0.000056
C50	C	1.978631	-0.058417	0.500056
C51	C	1.488229	-0.196863	0.000047
C52	C	1.988229	0.303137	0.500047
C53	C	1.713032	0.117615	0.000064
C54	C	2.213032	0.617615	0.500064
C55	C	1.852442	0.120061	0.000060
C56	C	2.352442	0.620061	0.500060
C57	C	1.474203	0.274308	0.000059
C58	C	1.974203	0.774308	0.500059
C59	C	1.476644	0.366617	0.000059
C60	C	1.976644	0.866617	0.500059
N61	N	1.483422	0.122351	0.346723
N62	N	1.983422	0.622351	0.846723
N63	N	1.483451	0.122356	-0.346606
N64	N	1.983451	0.622356	0.153394
C65	C	1.568847	0.066347	0.423378
C66	C	2.068847	0.566347	0.923378
C67	C	1.568859	0.066347	0.576715
C68	C	2.068859	0.566347	1.076715
C69	C	1.398016	0.178363	0.576728
C70	C	1.898016	0.678363	1.076728
C71	C	1.397999	0.178358	0.423394
C72	C	1.897999	0.678358	0.923394
H73	H	0.864607	0.120282	-0.240859
H74	H	1.364607	0.620282	0.259141
Cl75	Cl	1.131269	0.124943	0.299774
Cl76	Cl	1.631269	0.624943	0.799774
Cl77	Cl	1.290638	0.248772	0.673122
Cl78	Cl	1.790638	0.748772	1.173122
H79	H	1.102235	0.124440	-0.240872
H80	H	1.602235	0.624440	0.259128
Cl81	Cl	0.835604	0.119753	0.299804
Cl82	Cl	1.335604	0.619753	0.799804
H83	H	1.485530	-0.298967	-0.240868
H84	H	1.985530	0.201033	0.259132
Cl85	Cl	1.290593	0.248765	0.327019
Cl86	Cl	1.790593	0.748765	0.827019
H87	H	1.638402	0.020742	0.360956
H88	H	2.138402	0.520742	0.860956
H89	H	1.481345	-0.456308	-0.240862
H90	H	1.981345	0.043692	0.259138
H91	H	1.481329	-0.456326	0.240969
H92	H	1.981329	0.043674	0.740969
H93	H	1.485495	-0.298967	0.240984
H94	H	1.985495	0.201033	0.740984
H95	H	1.638419	0.020743	0.639123
H96	H	2.138419	0.520743	1.139123
