data_functionalizedCrystal
_audit_creation_method	'MofGen! by Chris Wilmer'
_symmetry_space_group_name_H-M	'P1'
_symmetry_Int_Tables_number	1
_symmetry_cell_setting	triclinic
loop_
_symmetry_equiv_pos_as_xyz
  x,y,z
_cell_length_a	10.868271
_cell_length_b	11.026607
_cell_length_c	11.026607
_cell_angle_alpha	71.413983
_cell_angle_beta	90.002960
_cell_angle_gamma	89.996513
loop_
_atom_site_label
_atom_site_type_symbol
_atom_site_fract_x
_atom_site_fract_y
_atom_site_fract_z
O1	O	0.102319	-1.726733	0.533624
O2	O	0.102321	-1.360153	0.472861
O3	O	0.102316	-1.513061	0.319952
O4	O	0.102325	-1.573825	0.686532
O5	O	-0.102329	-1.513044	0.319941
O6	O	-0.102323	-1.360135	0.472850
O7	O	-0.102325	-1.726715	0.533613
Zn8	Zn	-0.134816	-1.543423	0.503230
Zn9	Zn	0.134812	-1.543446	0.503244
O10	O	-0.102320	-1.573807	0.686521
C11	C	-0.000001	-1.312485	0.461645
C12	C	-0.000000	-1.170471	0.428228
N13	N	-0.318830	-1.543416	0.503221
C14	C	-0.000005	-1.501843	0.272287
C15	C	-0.000000	-1.468426	0.130273
C16	C	-0.569836	-1.543439	0.503240
C17	C	-0.430159	-1.543423	0.503232
N18	N	0.318826	-1.543461	0.503245
C19	C	-0.000001	-1.774384	0.544828
C20	C	0.000007	-1.916398	0.578245
C21	C	0.000003	-1.116821	0.520498
C22	C	0.000004	-0.970043	0.485962
C23	C	0.000001	-1.560695	0.076624
C24	C	0.000006	-1.526160	-0.070155
C25	C	0.000003	-1.585026	0.734187
C26	C	0.000007	-1.618443	0.876200
H27	H	-0.000002	-1.179555	0.625061
N28	N	0.000024	-0.999464	0.716766
H29	H	-0.075833	-0.980748	0.760649
H30	H	0.000073	-1.092512	0.721707
H31	H	0.000099	-1.723013	-0.061072
H32	H	0.000008	-1.363863	0.067540
N33	N	-0.000015	-0.886966	0.347445
H34	H	-0.000017	-0.793888	0.342408
H35	H	0.075847	-0.905782	0.303641
H36	H	-0.000007	-1.665258	0.139357
N37	N	-0.000018	-1.087390	0.289718
H38	H	-0.000020	-0.994312	0.284681
H39	H	0.075843	-1.106206	0.245914
N40	N	0.000019	-1.387643	-0.153232
H41	H	0.000023	-1.382605	-0.246309
H42	H	-0.075846	-1.343832	-0.134428
