data_functionalizedCrystal
_audit_creation_method	'MofGen! by Chris Wilmer'
_symmetry_space_group_name_H-M	'P1'
_symmetry_Int_Tables_number	1
_symmetry_cell_setting	triclinic
loop_
_symmetry_equiv_pos_as_xyz
  x,y,z
_cell_length_a	15.711784
_cell_length_b	15.538191
_cell_length_c	14.750779
_cell_angle_alpha	97.569385
_cell_angle_beta	73.498376
_cell_angle_gamma	83.430448
loop_
_atom_site_label
_atom_site_type_symbol
_atom_site_fract_x
_atom_site_fract_y
_atom_site_fract_z
O1	O	-0.977930	-0.478855	-0.079827
O2	O	-0.746576	-0.414124	-0.079825
O3	O	-0.907287	-0.324880	-0.079830
O4	O	-0.817220	-0.568100	-0.079821
O5	O	-0.952716	-0.299656	0.079818
O6	O	-0.792006	-0.388900	0.079824
O7	O	-1.023360	-0.453631	0.079822
Zn8	Zn	-0.914896	-0.417261	0.105171
Zn9	Zn	-0.855040	-0.450495	-0.105173
O10	O	-0.862649	-0.542875	0.079828
C11	C	-0.740405	-0.390938	-0.000000
C12	C	-0.654335	-0.359420	0.000000
C13	C	-0.939424	-0.280421	-0.000009
C14	C	-0.967492	-0.185522	-0.000019
C15	C	-1.029531	-0.476818	-0.000004
C16	C	-1.115598	-0.508337	-0.000011
C17	C	-0.566614	-0.240767	-0.000004
C18	C	-0.647486	-0.270391	-0.000004
C19	C	-0.580307	-0.418861	-0.000001
C20	C	-0.499427	-0.389249	-0.000006
C21	C	-0.492589	-0.300201	-0.000006
C22	C	-0.425401	-0.448684	-0.000009
C23	C	-0.344529	-0.419074	-0.000009
C24	C	-0.337684	-0.330029	-0.000006
C25	C	-0.411717	-0.270591	-0.000006
C26	C	-0.432242	-0.537731	-0.000002
C27	C	-0.358217	-0.597166	-0.000005
C28	C	-0.277341	-0.567557	-0.000011
C29	C	-0.270496	-0.478512	-0.000009
C30	C	-0.203308	-0.626995	-0.000011
C31	C	-0.122436	-0.597385	-0.000011
C32	C	-0.189624	-0.448902	-0.000008
C33	C	-0.830511	-0.587335	0.000005
C34	C	-0.802442	-0.682236	0.000008
N35	N	-0.955751	-0.394581	0.248725
C36	C	-0.688629	0.198371	0.000004
C37	C	-0.715026	0.287541	0.000006
C38	C	-0.863495	0.258821	0.000004
C39	C	-0.837110	0.169646	-0.000003
C40	C	-0.749676	0.139429	-0.000002
C41	C	-0.898157	0.110703	-0.000008
C42	C	-0.871775	0.021537	-0.000010
C43	C	-0.784346	-0.008687	-0.000006
C44	C	-0.723294	0.050262	-0.000003
C45	C	-0.985592	0.140923	-0.000002
C46	C	-1.046639	0.081981	-0.000008
C47	C	-1.020256	-0.007189	-0.000016
C48	C	-0.932827	-0.037413	-0.000012
C49	C	-1.081307	-0.066138	-0.000019
C50	C	-1.054925	-0.155304	-0.000020
C51	C	-0.906445	-0.126579	-0.000014
N52	N	-0.814193	-0.473170	-0.248727
C53	C	-0.700101	-0.536474	0.600553
C54	C	-0.728734	-0.520589	0.701051
C55	C	-0.871051	-0.441614	0.701008
C56	C	-0.842428	-0.457488	0.600508
C57	C	-0.756953	-0.504920	0.550288
C58	C	-0.899281	-0.425934	0.550244
C59	C	-0.870662	-0.441812	0.449752
C60	C	-0.785190	-0.489243	0.399525
C61	C	-0.728334	-0.520797	0.449797
C62	C	-0.984758	-0.378508	0.600465
C63	C	-1.041611	-0.346954	0.550201
C64	C	-1.012989	-0.362826	0.449708
C65	C	-0.927518	-0.410258	0.399481
C66	C	-1.069846	-0.331272	0.399436
C67	C	-1.041227	-0.347149	0.298945
C68	C	-0.898899	-0.426135	0.298989
H69	H	-0.184055	-0.376392	-0.000019
Cl70	Cl	-0.796523	-0.164575	-0.000022
H71	H	-0.762869	-0.081292	-0.000002
H72	H	-0.208892	-0.699497	-0.000002
H73	H	-0.271834	-0.305921	0.000003
H74	H	-0.682430	-0.546290	0.741971
H75	H	-0.406148	-0.198081	-0.000016
H76	H	-1.007067	0.213528	-0.000010
Cl77	Cl	-0.588913	-0.530804	-0.000003
Cl78	Cl	-1.149064	-0.287330	0.613341
H79	H	-1.087523	-0.321455	0.258019
H80	H	-0.707760	-0.221986	-0.000005
H81	H	-0.761892	-0.502174	0.317699
Cl82	Cl	-0.558013	-0.128817	-0.000001
Cl83	Cl	-0.638272	0.361641	0.000019
H84	H	-0.498096	-0.561836	0.000002
Cl85	Cl	-0.366823	-0.709109	-0.000007
H86	H	-0.062162	-0.645782	-0.000009
H87	H	-1.117829	0.106597	-0.000005
Cl88	Cl	-0.791436	-0.485754	0.235852
H89	H	-0.652095	0.025657	-0.000010
Cl90	Cl	-0.973410	0.296819	0.000010
Cl91	Cl	-0.620870	-0.580416	0.386659
H92	H	-0.617430	0.173766	-0.000003
Cl93	Cl	-1.191225	-0.028136	-0.000001
Cl94	Cl	-1.131676	-0.229405	-0.000009
H95	H	-0.630494	-0.575090	0.559662
Cl96	Cl	-0.978504	-0.381989	0.764148
Cl97	Cl	-1.020735	-0.358555	0.726799
H98	H	-1.139445	-0.292660	0.440338
