data_functionalizedCrystal
_audit_creation_method	'MofGen! by Chris Wilmer'
_symmetry_space_group_name_H-M	'P1'
_symmetry_Int_Tables_number	1
_symmetry_cell_setting	triclinic
loop_
_symmetry_equiv_pos_as_xyz
  x,y,z
_cell_length_a	19.288864
_cell_length_b	14.519731
_cell_length_c	18.366186
_cell_angle_alpha	89.992785
_cell_angle_beta	89.977106
_cell_angle_gamma	83.412549
loop_
_atom_site_label
_atom_site_type_symbol
_atom_site_fract_x
_atom_site_fract_y
_atom_site_fract_z
O1	O	0.921773	0.115044	-0.060785
O2	O	1.421773	0.615044	0.439215
O3	O	0.719569	0.130563	-0.060735
O4	O	1.219569	0.630563	0.439265
O5	O	0.826025	-0.011468	-0.060755
O6	O	1.326025	0.488532	0.439245
O7	O	0.815318	0.257074	-0.060765
O8	O	1.315318	0.757074	0.439235
O9	O	0.826007	-0.011475	0.060345
O10	O	1.326007	0.488525	0.560345
O11	O	0.719551	0.130556	0.060364
O12	O	1.219551	0.630556	0.560364
O13	O	0.921755	0.115037	0.060315
O14	O	1.421755	0.615037	0.560315
Zn15	Zn	0.820650	0.122795	0.079566
Zn16	Zn	1.320650	0.622795	0.579566
Zn17	Zn	0.820674	0.122804	-0.079987
Zn18	Zn	1.320674	0.622804	0.420013
O19	O	0.815300	0.257067	0.060334
O20	O	1.315300	0.757067	0.560334
C21	C	0.693682	0.130060	-0.000179
C22	C	1.193682	0.630060	0.499821
C23	C	0.616573	0.128561	-0.000160
C24	C	1.116573	0.628561	0.499840
C25	C	0.572182	0.211898	-0.000175
C26	C	1.072182	0.711898	0.499825
C27	C	0.499729	0.210490	-0.000183
C28	C	0.999729	0.710490	0.499817
C29	C	0.471672	0.125740	-0.000191
C30	C	0.971672	0.625740	0.499809
C31	C	0.516073	0.042392	-0.000172
C32	C	1.016073	0.542392	0.499828
C33	C	0.588524	0.043802	-0.000156
C34	C	1.088524	0.543802	0.499844
C35	C	0.363173	0.059119	-0.042639
C36	C	0.863173	0.559119	0.457361
C37	C	0.290723	0.057712	-0.042659
C38	C	0.790723	0.557712	0.457341
C39	C	0.248210	0.121385	-0.000235
C40	C	0.748210	0.621385	0.499765
C41	C	0.278155	0.186482	0.042200
C42	C	0.778155	0.686482	0.542200
C43	C	0.350605	0.187892	0.042215
C44	C	0.850605	0.687892	0.542215
C45	C	0.393112	0.124201	-0.000207
C46	C	0.893112	0.624201	0.499793
C47	C	0.125257	0.203201	-0.000257
C48	C	0.625257	0.703201	0.499743
C49	C	0.052804	0.201790	-0.000260
C50	C	0.552804	0.701790	0.499740
C51	C	0.069150	0.033689	-0.000257
C52	C	0.569150	0.533689	0.499743
C53	C	0.141601	0.035103	-0.000246
C54	C	0.641601	0.535103	0.499754
C55	C	0.169650	0.119862	-0.000249
C56	C	0.669650	0.619862	0.499751
C57	C	0.825514	-0.045827	-0.000205
C58	C	1.325514	0.454173	0.499795
C59	C	0.824011	-0.148198	-0.000204
C60	C	1.324011	0.351802	0.499796
C61	C	0.822789	-0.231335	-0.000205
C62	C	1.322789	0.268665	0.499795
C63	C	0.821263	-0.335634	-0.000211
C64	C	1.321263	0.164366	0.499789
C65	C	0.820052	-0.418765	-0.000215
C66	C	1.320052	0.081235	0.499785
C67	C	0.818525	-0.523071	-0.000219
C68	C	1.318525	-0.023071	0.499781
C69	C	0.947643	0.115540	-0.000243
C70	C	1.447643	0.615540	0.499757
C71	C	1.024752	0.117039	-0.000267
C72	C	1.524752	0.617039	0.499733
C73	C	0.815811	0.291427	-0.000218
C74	C	1.315811	0.791427	0.499782
C75	C	0.817314	0.393798	-0.000223
C76	C	1.317314	0.893798	0.499777
N77	N	0.820639	0.122788	0.188458
N78	N	1.320639	0.622788	0.688458
N79	N	0.820691	0.122804	-0.188878
N80	N	1.320691	0.622804	0.311122
C81	C	0.867793	0.059928	0.226549
C82	C	1.367793	0.559928	0.726549
C83	C	0.867798	0.059924	0.302777
C84	C	1.367798	0.559924	0.802777
C85	C	0.820655	0.122796	0.340910
C86	C	1.320655	0.622796	0.840910
C87	C	0.773492	0.185661	0.302809
C88	C	1.273492	0.685661	0.802809
C89	C	0.773484	0.185657	0.226583
C90	C	1.273484	0.685657	0.726583
C91	C	0.811664	0.206824	0.461669
C92	C	1.311664	0.706824	0.961669
C93	C	0.811676	0.206829	0.537894
C94	C	1.311676	0.706829	1.037894
C95	C	0.820674	0.122808	0.576018
C96	C	1.320674	0.622808	1.076018
C97	C	0.829675	0.038778	0.537908
C98	C	1.329675	0.538778	1.037908
C99	C	0.829667	0.038774	0.461681
C100	C	1.329667	0.538774	0.961681
C101	C	0.820657	0.122807	0.423565
C102	C	1.320657	0.622807	0.923565
C103	C	0.867836	0.059938	0.696765
C104	C	1.367836	0.559938	1.196765
C105	C	0.867835	0.059932	0.772994
C106	C	1.367835	0.559932	1.272994
C107	C	0.773533	0.185678	0.773025
C108	C	1.273533	0.685678	1.273025
C109	C	0.773530	0.185675	0.696797
C110	C	1.273530	0.685675	1.196797
C111	C	0.820685	0.122806	0.658671
C112	C	1.320685	0.622806	1.158671
H113	H	0.148096	0.272217	-0.000249
H114	H	0.648096	0.772217	0.499751
O115	O	0.722626	0.253458	0.185486
O116	O	1.222626	0.753458	0.685486
H117	H	0.731568	0.325324	0.200095
H118	H	1.231568	0.825324	0.700095
O119	O	0.801983	0.297454	0.578997
O120	O	1.301983	0.797454	1.078997
H121	H	0.795716	0.355879	0.539683
H122	H	1.295716	0.855879	1.039683
O123	O	0.722646	0.253481	0.343932
O124	O	1.222646	0.753481	0.843932
H125	H	0.730579	0.242931	0.403337
H126	H	1.230579	0.742931	0.903337
O127	O	0.636406	-0.046090	-0.000145
O128	O	1.136406	0.453910	0.499855
H129	H	0.669774	-0.049471	0.049223
H130	H	1.169774	0.450529	0.549223
O131	O	0.839385	-0.051862	0.579005
O132	O	1.339385	0.448138	1.079005
H133	H	0.792987	-0.057638	0.613752
H134	H	1.292987	0.442362	1.113752
O135	O	0.602437	0.303312	-0.000158
O136	O	1.102437	0.803312	0.499842
H137	H	0.559391	0.361026	-0.000158
H138	H	1.059391	0.861026	0.499842
O139	O	0.918694	-0.007872	0.814086
O140	O	1.418694	0.492128	1.314086
H141	H	0.952491	0.030845	0.848798
H142	H	1.452491	0.530845	1.348798
H143	H	0.906188	0.008734	0.195510
H144	H	1.406188	0.508734	0.695510
O145	O	0.382910	0.258062	0.088011
O146	O	0.882910	0.758062	0.588011
H147	H	0.341183	0.302092	0.117523
H148	H	0.841183	0.802092	0.617523
O149	O	0.451836	0.300377	-0.000206
O150	O	0.951836	0.800377	0.499794
H151	H	0.483512	0.359551	-0.000212
H152	H	0.983512	0.859551	0.499788
O153	O	0.485812	-0.049016	-0.000176
O154	O	0.985812	0.450984	0.499824
H155	H	0.528856	-0.106732	-0.000156
H156	H	1.028856	0.393268	0.499844
O157	O	0.258432	-0.012494	-0.088430
O158	O	0.758432	0.487506	0.411570
H159	H	0.200910	-0.002770	-0.081323
H160	H	0.700910	0.497230	0.418677
H161	H	0.836994	-0.029646	0.430655
H162	H	1.336994	0.470354	0.930655
H163	H	0.397781	0.007267	-0.077190
H164	H	0.897781	0.507267	0.422810
O165	O	0.918665	-0.007868	0.343877
O166	O	1.418665	0.492132	0.843877
H167	H	0.951457	-0.051579	0.304559
H168	H	1.451457	0.448421	0.804559
H169	H	0.243542	0.238330	0.076747
H170	H	0.743542	0.738330	0.576747
H171	H	0.735145	0.236866	0.804072
H172	H	1.235145	0.736866	1.304072
O173	O	0.004918	0.291678	-0.000274
O174	O	0.504918	0.791678	0.499726
H175	H	0.036598	0.350849	-0.000279
H176	H	0.536598	0.850849	0.499721
H177	H	0.046306	-0.035316	-0.000308
H178	H	0.546306	0.464684	0.499692
H179	H	0.177746	-0.032759	-0.000238
H180	H	0.677746	0.467241	0.499762
O181	O	0.918673	-0.007881	0.655625
O182	O	1.418673	0.492119	1.155625
H183	H	0.972839	0.003664	0.670219
H184	H	1.472839	0.503664	1.170219
O185	O	0.722679	0.253485	0.655704
O186	O	1.222679	0.753485	1.155704
H187	H	0.689901	0.297210	0.695024
H188	H	1.189901	0.797210	1.195024
O189	O	0.801963	0.297451	0.420550
O190	O	1.301963	0.797451	0.920550
H191	H	0.795719	0.355881	0.459854
H192	H	1.295719	0.855881	0.959854
