data_functionalizedCrystal
_audit_creation_method	'MofGen! by Chris Wilmer'
_symmetry_space_group_name_H-M	'P1'
_symmetry_Int_Tables_number	1
_symmetry_cell_setting	triclinic
loop_
_symmetry_equiv_pos_as_xyz
  x,y,z
_cell_length_a	10.489741
_cell_length_b	15.944551
_cell_length_c	9.565339
_cell_angle_alpha	89.999279
_cell_angle_beta	89.999100
_cell_angle_gamma	84.018956
loop_
_atom_site_label
_atom_site_type_symbol
_atom_site_fract_x
_atom_site_fract_y
_atom_site_fract_z
O1	O	1.692410	0.118501	-0.116177
O2	O	1.321060	0.129624	-0.116199
O3	O	1.516876	0.001849	-0.116175
O4	O	1.496594	0.246276	-0.116201
O5	O	1.516860	0.001857	0.116345
O6	O	1.321045	0.129632	0.116321
O7	O	1.692395	0.118509	0.116343
Zn8	Zn	1.506717	0.124072	0.153250
Zn9	Zn	1.506738	0.124061	-0.153106
O10	O	1.496579	0.246284	0.116319
C11	C	1.273532	0.128788	0.000058
C12	C	1.131938	0.126275	0.000050
C13	C	1.064925	0.044975	0.000072
C14	C	0.972273	0.083376	-0.114573
C15	C	0.972292	0.083403	0.114673
C16	C	1.041151	0.164709	-0.114690
C17	C	1.041179	0.164725	0.114659
C18	C	0.948554	0.203186	-0.000014
C19	C	1.516026	-0.029446	0.000085
C20	C	1.513502	-0.122708	0.000086
C21	C	1.386093	-0.338330	0.000059
C22	C	1.445250	-0.398988	0.114709
C23	C	1.508935	-0.293461	0.000075
C24	C	1.445294	-0.398979	-0.114537
C25	C	1.504515	-0.458400	0.000058
C26	C	1.568126	-0.352890	0.114820
C27	C	1.568153	-0.352875	-0.114530
C28	C	1.627399	-0.413515	0.000148
C29	C	1.511478	-0.198443	0.000086
C30	C	1.501982	-0.553417	0.000058
C31	C	1.739922	0.119345	0.000083
C32	C	1.881517	0.121858	0.000082
C33	C	1.497429	0.277579	0.000056
C34	C	1.499953	0.370841	0.000046
N35	N	1.506713	0.124078	0.362329
N36	N	1.506752	0.124048	-0.362185
C37	C	1.416127	0.183150	0.453521
C38	C	1.531388	0.200146	0.546705
C39	C	1.391501	0.107089	0.546701
C40	C	1.622032	0.141112	0.453461
C41	C	1.482069	0.048022	0.453449
C42	C	1.597414	0.064986	0.546591
H43	H	1.284128	-0.305636	0.000168
C44	C	0.931363	0.037519	0.243797
C45	C	0.798076	0.036414	0.242724
C46	C	0.760333	-0.005862	0.361632
H47	H	0.955983	0.065806	0.325307
H48	H	0.971541	-0.018707	0.243661
H49	H	0.757912	0.092630	0.242873
H50	H	0.773423	0.008122	0.161240
H51	H	0.800512	-0.062088	0.361496
H52	H	0.784961	0.022429	0.443133
H53	H	0.669897	-0.006624	0.360913
C54	C	1.454013	-0.037613	0.398576
C55	C	1.343237	-0.027986	0.316016
C56	C	1.317346	-0.106852	0.265426
H57	H	1.441323	-0.073893	0.474965
H58	H	1.524286	-0.061357	0.343845
H59	H	1.272980	-0.004254	0.370745
H60	H	1.355899	0.008280	0.239606
H61	H	1.387619	-0.130595	0.210695
H62	H	1.304661	-0.143126	0.341823
H63	H	1.242189	-0.100329	0.209394
C64	C	1.375728	-0.426154	0.243823
C65	C	1.249452	-0.387762	0.243274
C66	C	1.185358	-0.412771	0.362176
H67	H	1.418383	-0.409617	0.325338
H68	H	1.375236	-0.485703	0.243320
H69	H	1.249951	-0.328225	0.243791
H70	H	1.206762	-0.404293	0.161786
H71	H	1.184866	-0.472321	0.361673
H72	H	1.228023	-0.396234	0.443682
H73	H	1.099670	-0.386733	0.361813
C74	C	1.637239	-0.325651	0.244159
C75	C	1.638716	-0.237949	0.242705
C76	C	1.702350	-0.212823	0.361837
H77	H	1.722744	-0.351981	0.244619
H78	H	1.593877	-0.341756	0.325505
H79	H	1.682080	-0.221853	0.161380
H80	H	1.553228	-0.211598	0.242265
H81	H	1.658988	-0.228928	0.443184
H82	H	1.787851	-0.239159	0.362287
H83	H	1.703350	-0.153315	0.360874
C84	C	1.752005	0.160517	0.399334
C85	C	1.777697	0.239890	0.447805
C86	C	1.897420	0.257800	0.398005
H87	H	1.751364	0.160512	0.300031
H88	H	1.816439	0.118833	0.432001
H89	H	1.713279	0.281564	0.415130
H90	H	1.778363	0.239916	0.547102
H91	H	1.961855	0.216116	0.430672
H92	H	1.896769	0.257791	0.298703
H93	H	1.914873	0.311652	0.430895
H94	H	1.294052	0.092733	0.587660
H95	H	1.729454	-0.446060	0.000219
C96	C	1.637181	-0.325478	-0.243811
C97	C	1.553803	-0.269255	-0.321706
C98	C	1.617340	-0.243988	-0.440811
H99	H	1.664261	-0.373480	-0.299240
H100	H	1.709754	-0.298457	-0.216331
H101	H	1.481253	-0.296276	-0.349189
H102	H	1.526718	-0.221240	-0.266319
H103	H	1.689913	-0.216967	-0.413331
H104	H	1.644417	-0.291994	-0.496228
H105	H	1.560781	-0.205832	-0.493671
C106	C	1.376208	-0.426317	-0.243828
C107	C	1.460224	-0.481329	-0.323128
C108	C	1.396613	-0.506534	-0.442222
H109	H	1.347740	-0.378178	-0.298327
H110	H	1.304540	-0.454253	-0.216317
H111	H	1.531868	-0.453392	-0.350641
H112	H	1.488696	-0.529480	-0.268671
H113	H	1.324945	-0.534471	-0.414711
H114	H	1.368147	-0.458391	-0.496709
H115	H	1.453604	-0.543868	-0.496035
H116	H	1.339591	0.233152	0.412657
C117	C	0.931652	0.037350	-0.243682
C118	C	0.991101	-0.045452	-0.243134
C119	C	0.953704	-0.087884	-0.362030
H120	H	0.956370	0.065588	-0.325201
H121	H	0.841229	0.036482	-0.243171
H122	H	1.081504	-0.044580	-0.243658
H123	H	0.966391	-0.073713	-0.161642
H124	H	0.863282	-0.088752	-0.361519
H125	H	0.978424	-0.059639	-0.443540
H126	H	0.994025	-0.144071	-0.361668
H127	H	1.674119	0.015015	0.587199
C128	C	1.132206	-0.044197	0.000143
C129	C	1.095768	-0.087007	0.119066
C130	C	1.157710	-0.169154	0.119159
H131	H	1.222368	-0.042093	0.001039
H132	H	1.108758	-0.072993	-0.081358
H133	H	1.119225	-0.058219	0.200547
H134	H	1.005617	-0.089134	0.118195
H135	H	1.134262	-0.197949	0.037657
H136	H	1.247869	-0.167041	0.120051
H137	H	1.132987	-0.198213	0.199839
C138	C	1.081880	0.210470	-0.244032
C139	C	1.215042	0.212244	-0.242585
C140	C	1.252612	0.254378	-0.361719
H141	H	1.041116	0.266534	-0.244489
H142	H	1.057819	0.181772	-0.325377
H143	H	1.239090	0.240944	-0.161261
H144	H	1.255838	0.156192	-0.242148
H145	H	1.228550	0.225680	-0.443065
H146	H	1.211839	0.310439	-0.362167
H147	H	1.342966	0.255581	-0.360760
H148	H	1.552259	0.264452	0.587666
H149	H	0.898203	0.270090	-0.000084
C150	C	1.081992	0.210703	0.243723
C151	C	1.141303	0.281480	0.202768
C152	C	1.178905	0.323853	0.321634
H153	H	1.140494	0.174012	0.296851
H154	H	1.008751	0.228143	0.298999
H155	H	1.214534	0.264039	0.147515
H156	H	1.082824	0.318190	0.149656
H157	H	1.105664	0.341293	0.376911
H158	H	1.237403	0.287156	0.374755
H159	H	1.219141	0.371884	0.293864
