data_functionalizedCrystal
_audit_creation_method	'MofGen! by Chris Wilmer'
_symmetry_space_group_name_H-M	'P1'
_symmetry_Int_Tables_number	1
_symmetry_cell_setting	triclinic
loop_
_symmetry_equiv_pos_as_xyz
  x,y,z
_cell_length_a	19.120785
_cell_length_b	19.077105
_cell_length_c	19.076919
_cell_angle_alpha	90.076224
_cell_angle_beta	89.729181
_cell_angle_gamma	90.062222
loop_
_atom_site_label
_atom_site_type_symbol
_atom_site_fract_x
_atom_site_fract_y
_atom_site_fract_z
Zn1	Zn	-0.338642	1.044402	-0.425356
Zn2	Zn	-0.451190	1.044433	-0.302844
Zn3	Zn	-0.329265	0.932004	-0.303567
Zn4	Zn	-0.450768	0.922272	-0.415615
O5	O	-0.392466	0.985778	-0.361846
O6	O	-0.357673	1.142570	-0.412879
O7	O	-0.431269	1.033605	-0.204775
O8	O	-0.232557	0.950974	-0.324102
O9	O	-0.440362	1.142593	-0.322870
O10	O	-0.239446	1.033553	-0.413580
O11	O	-0.341691	0.951004	-0.205306
O12	O	-0.341281	0.832549	-0.314656
O13	O	-0.439642	0.934387	-0.515072
O14	O	-0.430549	0.825399	-0.396978
O15	O	-0.357263	1.024116	-0.522229
O16	O	-0.549086	1.024169	-0.313424
O17	O	-0.548776	0.934417	-0.396277
C18	C	-0.384853	0.803522	-0.354839
C19	C	-0.381613	0.725550	-0.351857
C20	C	-0.426633	0.685215	-0.393243
C21	C	-0.423580	0.611953	-0.390445
C22	C	-0.375510	0.579027	-0.346257
C23	C	-0.330485	0.619368	-0.304869
C24	C	-0.333535	0.692629	-0.307671
C25	C	-0.361393	0.360318	-0.333292
C26	C	-0.358348	0.287052	-0.330492
C27	C	-0.451442	0.279642	-0.416069
C28	C	-0.454491	0.352904	-0.418864
C29	C	-0.409464	0.393238	-0.377479
N30	N	-0.372389	0.504141	-0.343395
N31	N	-0.412581	0.468123	-0.380346
C32	C	-0.574330	0.978259	-0.353731
C33	C	-0.652136	0.975105	-0.350285
C34	C	-1.092013	0.955094	-0.328482
C35	C	-1.018906	0.958059	-0.331719
C36	C	-0.985880	1.002504	-0.379958
C37	C	-1.025965	1.043981	-0.424968
C38	C	-1.099070	1.041012	-0.421734
C39	C	-0.765326	1.013613	-0.392060
C40	C	-0.692215	1.016581	-0.395290
C41	C	-0.685161	0.930657	-0.302041
C42	C	-0.758268	0.927696	-0.298808
C43	C	-0.798347	0.969170	-0.343820
C44	C	-0.911154	1.005537	-0.383267
C45	C	-0.873072	0.966133	-0.340514
C46	C	-0.209894	0.993345	-0.370008
C47	C	-0.132092	0.996570	-0.373486
C48	C	-0.399452	0.978163	-0.544815
C49	C	-0.402428	0.974917	-0.622786
C50	C	-0.400110	1.168746	-0.368880
C51	C	-0.403368	1.246716	-0.371878
C52	C	-0.360939	1.020107	-0.663144
C53	C	-0.363732	1.017049	-0.736405
C54	C	-0.408020	0.968805	-0.769307
C55	C	-0.449512	0.923610	-0.728944
C56	C	-0.446714	0.926665	-0.655684
C57	C	-0.420984	0.954656	-0.988012
C58	C	-0.423781	0.951606	-1.061277
C59	C	-0.338000	1.045045	-1.068733
C60	C	-0.335209	1.048098	-0.995472
C61	C	-0.376698	1.002901	-0.955115
N62	N	-0.410879	0.965680	-0.844192
N63	N	-0.373835	1.006023	-0.880231
C64	C	-0.385459	0.993406	-0.179592
C65	C	-0.382291	0.996796	-0.101635
H66	H	-0.324734	0.393149	-0.299588
N67	N	-0.469003	0.902297	-1.094876
N68	N	-0.506026	0.861931	-1.058837
H69	H	-0.537954	0.827100	-1.082566
H70	H	-0.324877	1.059395	-0.636360
H71	H	-0.485569	0.884326	-0.755739
H72	H	-0.291342	0.592554	-0.268894
N73	N	-0.463367	0.908485	-0.946805
N74	N	-0.502908	0.865416	-0.976194
H75	H	-0.532844	0.832806	-0.947090
N76	N	-0.503591	0.386546	-0.463996
N77	N	-0.506312	0.451957	-0.466486
H78	H	-0.540994	0.475718	-0.498356
N79	N	-1.125739	0.909684	-0.279212
N80	N	-1.165630	0.862277	-0.300330
H81	H	-1.189446	0.830202	-0.265533
N82	N	-0.489094	0.880495	-0.614467
N83	N	-0.528633	0.837421	-0.643851
H84	H	-0.558563	0.804809	-0.614743
H85	H	-0.986273	0.924286	-0.295073
N86	N	-0.992248	1.089379	-0.474255
N87	N	-1.002669	1.081650	-0.538439
H88	H	-0.978859	1.113715	-0.573250
N89	N	-0.469585	0.570756	-0.432704
N90	N	-0.511505	0.529065	-0.404390
H91	H	-0.544001	0.499971	-0.434236
H92	H	-0.785152	0.891506	-0.259525
N93	N	-0.289953	1.097367	-0.961869
N94	N	-0.242754	1.076236	-0.922038
H95	H	-0.210791	1.111034	-0.898307
H96	H	-0.329949	1.053849	-0.769262
H97	H	-0.652522	0.896890	-0.265395
H98	H	-0.465779	0.712017	-0.429223
N99	N	-0.287537	0.733822	-0.265399
N100	N	-0.244617	0.704418	-0.225951
H101	H	-0.212125	0.733509	-0.196098
N102	N	-0.295618	1.091194	-1.109969
N103	N	-0.251546	1.066653	-1.151893
H104	H	-0.221610	1.099245	-1.181017
N105	N	-0.497429	0.238431	-0.458334
N106	N	-0.494703	0.173020	-0.455828
H107	H	-0.527182	0.143914	-0.485680
H108	H	-0.319195	0.260246	-0.294513
H109	H	-0.665330	1.052776	-0.434574
N110	N	-0.806248	1.055979	-0.438045
N111	N	-0.776750	1.095657	-0.481111
H112	H	-0.805653	1.125580	-0.513591
H113	H	-1.131703	1.074780	-0.458387
N114	N	-0.906819	0.920749	-0.291239
N115	N	-0.946942	0.945681	-0.245714
H116	H	-0.970784	0.913632	-0.210911
H117	H	-0.884258	1.041726	-0.422544
