data_functionalizedCrystal
_audit_creation_method	'MofGen! by Chris Wilmer'
_symmetry_space_group_name_H-M	'P1'
_symmetry_Int_Tables_number	1
_symmetry_cell_setting	triclinic
loop_
_symmetry_equiv_pos_as_xyz
  x,y,z
_cell_length_a	19.188930
_cell_length_b	18.266242
_cell_length_c	19.188930
_cell_angle_alpha	89.989745
_cell_angle_beta	96.855221
_cell_angle_gamma	90.022820
loop_
_atom_site_label
_atom_site_type_symbol
_atom_site_fract_x
_atom_site_fract_y
_atom_site_fract_z
O1	O	0.926149	0.061124	-0.087167
O2	O	1.259483	0.394458	0.246166
O3	O	1.592816	0.727791	0.579499
O4	O	0.722838	0.061075	-0.098902
O5	O	1.056171	0.394409	0.234432
O6	O	1.389505	0.727742	0.567765
O7	O	0.830361	0.061087	0.008621
O8	O	1.163694	0.394420	0.341954
O9	O	1.497027	0.727754	0.675288
O10	O	0.818627	0.061113	-0.194690
O11	O	1.151960	0.394446	0.138643
O12	O	1.485293	0.727779	0.471976
O13	O	0.830343	-0.060675	0.008624
O14	O	1.163676	0.272658	0.341957
O15	O	1.497009	0.605992	0.675291
O16	O	0.722820	-0.060687	-0.098899
O17	O	1.056153	0.272647	0.234435
O18	O	1.389486	0.605980	0.567768
O19	O	0.926131	-0.060638	-0.087164
O20	O	1.259464	0.272696	0.246169
O21	O	1.592798	0.606029	0.579502
Zn22	Zn	0.824473	-0.079994	-0.093031
Zn23	Zn	1.157806	0.253339	0.240302
Zn24	Zn	1.491139	0.586672	0.573636
Zn25	Zn	0.824497	0.080432	-0.093035
Zn26	Zn	1.157830	0.413766	0.240298
Zn27	Zn	1.491163	0.747099	0.573632
O28	O	0.818608	-0.060649	-0.194687
O29	O	1.151942	0.272684	0.138646
O30	O	1.485275	0.606017	0.471979
C31	C	0.696818	0.000188	-0.098520
C32	C	1.030151	0.333521	0.234813
C33	C	1.363485	0.666855	0.568146
C34	C	0.619313	0.000169	-0.097380
C35	C	0.952647	0.333502	0.235954
C36	C	1.285980	0.666835	0.569287
C37	C	0.574389	0.000188	-0.160470
C38	C	0.907723	0.333521	0.172863
C39	C	1.241056	0.666855	0.506196
C40	C	0.501566	0.000196	-0.159399
C41	C	0.834899	0.333529	0.173935
C42	C	1.168232	0.666863	0.507268
C43	C	0.473669	0.000199	-0.095233
C44	C	0.807002	0.333532	0.238101
C45	C	1.140336	0.666866	0.571434
C46	C	0.518603	0.000175	-0.032133
C47	C	0.851936	0.333509	0.301200
C48	C	1.185270	0.666842	0.634533
C49	C	0.591425	0.000160	-0.033207
C50	C	0.924758	0.333494	0.300126
C51	C	1.258092	0.666827	0.633460
N52	N	0.365695	0.041663	-0.046187
N53	N	0.699028	0.374997	0.287147
N54	N	1.032362	0.708330	0.620480
N55	N	0.296517	0.041679	-0.045171
N56	N	0.629850	0.375013	0.288162
N57	N	0.963183	0.708346	0.621495
C58	C	0.254260	0.000243	-0.091994
C59	C	0.587594	0.333577	0.241339
C60	C	0.920927	0.666910	0.574672
N61	N	0.283795	-0.041200	-0.139882
N62	N	0.617128	0.292133	0.193451
N63	N	0.950462	0.625467	0.526784
N64	N	0.352980	-0.041213	-0.140900
N65	N	0.686313	0.292121	0.192434
N66	N	1.019646	0.625454	0.525767
C67	C	0.394707	0.000215	-0.094062
C68	C	0.728040	0.333548	0.239272
C69	C	1.061373	0.666882	0.572605
C70	C	0.130372	0.000270	-0.153928
C71	C	0.463705	0.333604	0.179406
C72	C	0.797039	0.666937	0.512739
C73	C	0.057547	0.000274	-0.152853
C74	C	0.390881	0.333607	0.180480
C75	C	0.724214	0.666940	0.513813
C76	C	0.074586	0.000261	-0.025586
C77	C	0.407919	0.333594	0.307747
C78	C	0.741253	0.666927	0.641080
C79	C	0.147409	0.000250	-0.026662
C80	C	0.480743	0.333583	0.306671
C81	C	0.814076	0.666917	0.640004
C82	C	0.175298	0.000258	-0.090835
C83	C	0.508631	0.333592	0.242498
C84	C	0.841964	0.666925	0.575832
N85	N	0.824461	-0.189481	-0.093028
N86	N	1.157795	0.143852	0.240305
N87	N	1.491128	0.477185	0.573639
C88	C	0.866670	-0.227768	-0.135273
C89	C	1.200004	0.105566	0.198060
C90	C	1.533337	0.438899	0.531393
C91	C	0.866682	-0.304413	-0.135271
C92	C	1.200015	0.028921	0.198062
C93	C	1.533349	0.362254	0.531395
C94	C	0.824471	-0.342768	-0.093032
C95	C	1.157805	-0.009435	0.240301
C96	C	1.491138	0.323898	0.573635
C97	C	0.782260	-0.304473	-0.050778
C98	C	1.115593	0.028861	0.282555
C99	C	1.448926	0.362194	0.615889
C100	C	0.782254	-0.227829	-0.050776
C101	C	1.115588	0.105504	0.282557
C102	C	1.448921	0.438837	0.615891
N103	N	0.763324	-0.463136	-0.091312
N104	N	1.096657	-0.129803	0.242021
N105	N	1.429990	0.203530	0.575355
N106	N	0.763330	-0.535944	-0.091318
N107	N	1.096664	-0.202611	0.242015
N108	N	1.429997	0.130722	0.575349
C109	C	0.824485	-0.573691	-0.093035
C110	C	1.157819	-0.240357	0.240299
C111	C	1.491152	0.092976	0.573632
N112	N	0.885634	-0.535878	-0.094759
N113	N	1.218967	-0.202545	0.238574
N114	N	1.552301	0.130788	0.571908
N115	N	0.885626	-0.463064	-0.094757
N116	N	1.218960	-0.129730	0.238577
N117	N	1.552293	0.203603	0.571910
C118	C	0.824472	-0.425875	-0.093029
C119	C	1.157806	-0.092542	0.240304
C120	C	1.491139	0.240791	0.573637
C121	C	0.866711	-0.695084	-0.135280
C122	C	1.200044	-0.361751	0.198053
C123	C	1.533377	-0.028417	0.531386
C124	C	0.866724	-0.771730	-0.135273
C125	C	1.200057	-0.438397	0.198060
C126	C	1.533390	-0.105064	0.531393
C127	C	0.782295	-0.771789	-0.050784
C128	C	1.115628	-0.438456	0.282549
C129	C	1.448961	-0.105122	0.615883
C130	C	0.782288	-0.695144	-0.050787
C131	C	1.115622	-0.361811	0.282546
C132	C	1.448955	-0.028478	0.615880
C133	C	0.824495	-0.656796	-0.093039
C134	C	1.157828	-0.323463	0.240294
C135	C	1.491162	0.009870	0.573628
C136	C	0.952151	0.000252	-0.087546
C137	C	1.285485	0.333585	0.245787
C138	C	1.618818	0.666918	0.579121
C139	C	1.029656	0.000276	-0.088687
C140	C	1.362989	0.333609	0.244647
C141	C	1.696322	0.666942	0.577980
C142	C	0.829972	0.000204	0.034634
C143	C	1.163305	0.333537	0.367967
C144	C	1.496638	0.666870	0.701300
C145	C	0.828831	0.000197	0.112138
C146	C	1.162164	0.333531	0.445471
C147	C	1.495498	0.666864	0.778805
N148	N	0.824513	0.189919	-0.093033
N149	N	1.157847	0.523253	0.240301
N150	N	1.491180	0.856586	0.573634
C151	C	0.818997	0.000236	-0.220700
C152	C	1.152331	0.333569	0.112634
C153	C	1.485664	0.666902	0.445967
C154	C	0.820138	0.000247	-0.298204
C155	C	1.153471	0.333580	0.035129
C156	C	1.486805	0.666914	0.368462
C157	C	0.891922	0.000209	0.157062
C158	C	1.225255	0.333542	0.490395
C159	C	1.558589	0.666876	0.823729
C160	C	0.890850	0.000220	0.229886
C161	C	1.224184	0.333554	0.563219
C162	C	1.557517	0.666887	0.896552
C163	C	0.826684	0.000206	0.257782
C164	C	1.160017	0.333539	0.591116
C165	C	1.493351	0.666872	0.924449
C166	C	0.763585	0.000198	0.212849
C167	C	1.096918	0.333531	0.546182
C168	C	1.430252	0.666865	0.879515
C169	C	0.764658	0.000194	0.140026
C170	C	1.097992	0.333527	0.473360
C171	C	1.431325	0.666860	0.806693
N172	N	0.777631	-0.041244	0.365788
N173	N	1.110964	0.292089	0.699122
N174	N	1.444297	0.625422	1.032455
N175	N	0.776615	-0.041242	0.434967
N176	N	1.109948	0.292091	0.768300
N177	N	1.443282	0.625425	1.101634
C178	C	0.823446	0.000220	0.477191
C179	C	1.156779	0.333553	0.810524
C180	C	1.490113	0.666886	1.143858
N181	N	0.871341	0.041669	0.447625
N182	N	1.204675	0.375003	0.780958
N183	N	1.538008	0.708336	1.114291
N184	N	0.872359	0.041664	0.378440
N185	N	1.205692	0.374997	0.711773
N186	N	1.539025	0.708330	1.045106
C187	C	0.825513	0.000210	0.336745
C188	C	1.158846	0.333544	0.670078
C189	C	1.492180	0.666877	1.003412
C190	C	0.885379	0.000245	0.601079
C191	C	1.218712	0.333578	0.934413
C192	C	1.552046	0.666911	1.267746
C193	C	0.884305	0.000261	0.673904
C194	C	1.217638	0.333594	1.007238
C195	C	1.550971	0.666927	1.340571
C196	C	0.757038	0.000231	0.656865
C197	C	1.090371	0.333564	0.990199
C198	C	1.423704	0.666897	1.323532
C199	C	0.758114	0.000222	0.584042
C200	C	1.091447	0.333556	0.917376
C201	C	1.424781	0.666889	1.250709
C202	C	0.822287	0.000226	0.556154
C203	C	1.155620	0.333559	0.889487
C204	C	1.488953	0.666892	1.222821
H205	H	0.464982	0.000210	-0.210776
H206	H	0.798315	0.333543	0.122557
H207	H	1.131648	0.666876	0.455890
H208	H	0.706738	0.000208	0.547464
H209	H	1.040072	0.333542	0.880797
H210	H	1.373405	0.666875	1.214131
O211	O	0.160454	0.000265	-0.223141
O212	O	0.493788	0.333598	0.110193
O213	O	0.827121	0.666932	0.443526
H214	H	0.193246	0.049891	-0.226683
H215	H	0.526579	0.383224	0.106650
H216	H	0.859912	0.716557	0.439984
O217	O	0.961139	0.000225	0.126991
O218	O	1.294472	0.333559	0.460324
O219	O	1.627805	0.666892	0.793657
H220	H	0.964673	-0.049406	0.094234
H221	H	1.298006	0.283928	0.427568
H222	H	1.631339	0.617261	0.760901
H223	H	0.597091	0.000196	-0.212725
H224	H	0.930424	0.333530	0.120609
H225	H	1.263758	0.666863	0.453942
H226	H	0.901054	-0.335591	-0.169675
H227	H	1.234387	-0.002258	0.163659
H228	H	1.567721	0.331075	0.496992
O229	O	0.958901	0.000220	0.278353
O230	O	1.292234	0.333553	0.611686
O231	O	1.625567	0.666887	0.945019
H232	H	0.989641	0.049846	0.268455
H233	H	1.322974	0.383179	0.601788
H234	H	1.656307	0.716513	0.935121
O235	O	0.736744	-0.186533	-0.005188
O236	O	1.070078	0.146800	0.328145
O237	O	1.403411	0.480133	0.661478
H238	H	0.743842	-0.126795	-0.012274
H239	H	1.077175	0.206538	0.321059
H240	H	1.410509	0.539871	0.654393
O241	O	0.912239	-0.653714	-0.180840
O242	O	1.245572	-0.320381	0.152493
O243	O	1.578905	0.012953	0.485827
H244	H	0.941602	-0.693217	-0.210208
H245	H	1.274935	-0.359884	0.123126
H246	H	1.608268	-0.026550	0.456459
O247	O	0.009093	0.000289	-0.220908
O248	O	0.342426	0.333623	0.112426
O249	O	0.675759	0.666956	0.445759
H250	H	-0.046231	0.000288	-0.209382
H251	H	0.287102	0.333621	0.123951
H252	H	0.620435	0.666954	0.457284
O253	O	0.736758	-0.653855	-0.005217
O254	O	1.070091	-0.320522	0.328116
O255	O	1.403425	0.012812	0.661450
H256	H	0.770349	-0.618938	0.032397
H257	H	1.103682	-0.285605	0.365730
H258	H	1.437015	0.047728	0.699063
O259	O	0.044504	0.000255	0.043622
O260	O	0.377837	0.333589	0.376955
O261	O	0.711171	0.666922	0.710288
H262	H	0.087981	0.000235	0.087314
H263	H	0.421314	0.333568	0.420647
H264	H	0.754648	0.666901	0.753981
O265	O	0.954589	0.000263	0.570991
O266	O	1.287922	0.333597	0.904324
O267	O	1.621255	0.666930	1.237657
H268	H	0.998282	0.000287	0.614467
H269	H	1.331615	0.333621	0.947801
H270	H	1.664948	0.666954	1.281134
H271	H	0.747892	-0.335707	-0.016386
H272	H	1.081225	-0.002374	0.316948
H273	H	1.414559	0.330960	0.650281
H274	H	0.901100	-0.802902	-0.169673
H275	H	1.234434	-0.469568	0.163661
H276	H	1.567767	-0.136235	0.496994
H277	H	0.935683	0.000274	0.710481
H278	H	1.269017	0.333608	1.043815
H279	H	1.602350	0.666941	1.377148
H280	H	0.747927	-0.803018	-0.016391
H281	H	1.081260	-0.469684	0.316942
H282	H	1.414594	-0.136351	0.650276
O283	O	0.687830	0.000210	0.686947
O284	O	1.021163	0.333543	1.020280
O285	O	1.354496	0.666877	1.353614
H286	H	0.657531	0.049832	0.668880
H287	H	0.990865	0.383165	1.002213
H288	H	1.324198	0.716499	1.335546
O289	O	0.696604	0.000171	0.091572
O290	O	1.029937	0.333505	0.424905
O291	O	1.363271	0.666838	0.758239
H292	H	0.694051	0.049797	0.057976
H293	H	1.027385	0.383130	0.391310
H294	H	1.360718	0.716464	0.724643
O295	O	0.694375	0.000173	0.242930
O296	O	1.027708	0.333507	0.576264
O297	O	1.361041	0.666840	0.909597
H298	H	0.704227	0.000168	0.301116
H299	H	1.037560	0.333501	0.634449
H300	H	1.370894	0.666835	0.967783
H301	H	0.628003	0.000145	0.018171
H302	H	0.961336	0.333478	0.351504
H303	H	1.294670	0.666811	0.684838
O304	O	0.488521	0.000179	0.037077
O305	O	0.821855	0.333512	0.370410
O306	O	1.155188	0.666846	0.703743
H307	H	0.430335	0.000200	0.027225
H308	H	0.763669	0.333533	0.360558
H309	H	1.097002	0.666867	0.693891
H310	H	0.183988	0.000238	0.024713
H311	H	0.517321	0.333571	0.358046
H312	H	0.850654	0.666905	0.691380
O313	O	0.912193	-0.186405	-0.180841
O314	O	1.245526	0.146929	0.152493
O315	O	1.578860	0.480262	0.485826
H316	H	0.941549	-0.225909	-0.210214
H317	H	1.274882	0.107424	0.123120
H318	H	1.608216	0.440757	0.456453
