data_functionalizedCrystal
_audit_creation_method	'MofGen! by Chris Wilmer'
_symmetry_space_group_name_H-M	'P1'
_symmetry_Int_Tables_number	1
_symmetry_cell_setting	triclinic
loop_
_symmetry_equiv_pos_as_xyz
  x,y,z
_cell_length_a	10.654543
_cell_length_b	10.654550
_cell_length_c	9.130313
_cell_angle_alpha	89.995631
_cell_angle_beta	89.998857
_cell_angle_gamma	95.516448
loop_
_atom_site_label
_atom_site_type_symbol
_atom_site_fract_x
_atom_site_fract_y
_atom_site_fract_z
O1	O	-1.667844	0.176358	-0.121641
O2	O	-1.302365	0.193173	-0.121679
O3	O	-1.493508	0.002026	-0.121650
O4	O	-1.476702	0.367505	-0.121670
O5	O	-1.493494	0.002021	0.121949
O6	O	-1.302352	0.193168	0.121920
O7	O	-1.667831	0.176353	0.121957
Cu8	Cu	-1.485090	0.184760	0.144181
Cu9	Cu	-1.485106	0.184766	-0.143903
O10	O	-1.476688	0.367500	0.121929
C11	C	-1.255560	0.191938	0.000116
C12	C	-1.116116	0.188249	0.000102
C13	C	-1.036631	0.300793	0.000098
C14	C	-0.905609	0.297319	0.000120
C15	C	-0.933573	0.068749	0.000144
C16	C	-1.064591	0.072224	0.000132
C17	C	-1.492267	-0.044774	0.000148
C18	C	-1.488575	-0.184217	0.000146
C19	C	-1.601117	-0.263706	0.000157
C20	C	-1.597641	-0.394726	0.000139
C21	C	-1.369070	-0.366758	0.000105
C22	C	-1.372548	-0.235740	0.000112
C23	C	-0.714635	0.177595	0.000152
C24	C	-0.854077	0.181301	0.000135
C25	C	-1.477929	0.414300	0.000127
C26	C	-1.481621	0.553744	0.000120
N27	N	-1.485088	0.184754	0.346804
N28	N	-1.485117	0.184762	-0.346525
C29	C	-1.569755	0.100150	0.423468
C30	C	-1.569767	0.100151	0.576805
C31	C	-1.400442	0.269370	0.576799
C32	C	-1.400424	0.269363	0.423465
H33	H	-0.840896	0.388964	0.000119
H34	H	-0.891604	-0.025715	0.000177
H35	H	-1.638692	0.031256	0.361054
H36	H	-1.078578	0.395268	0.000084
H37	H	-1.638709	0.031257	0.639221
C38	C	-1.183672	0.341088	0.624043
C39	C	-1.307387	0.362369	0.661077
H40	H	-1.126226	0.398499	0.676080
H41	H	-1.171549	0.353200	0.521764
H42	H	-1.169334	0.257136	0.649194
H43	H	-1.321728	0.446319	0.635917
H44	H	-1.319515	0.350268	0.763379
C45	C	-1.079083	-0.154067	0.000140
C46	C	-1.151973	-0.051494	0.000130
H47	H	-1.133032	-0.230439	0.000134
H48	H	-1.027409	-0.150672	0.085087
H49	H	-1.027390	-0.150662	-0.084810
H50	H	-1.203660	-0.054894	0.085087
H51	H	-1.203669	-0.054890	-0.084825
C52	C	-1.328549	0.486107	0.376213
C53	C	-1.307355	0.362371	0.339184
H54	H	-1.271097	0.543519	0.324173
H55	H	-1.316438	0.498216	0.478491
H56	H	-1.412484	0.500507	0.351064
H57	H	-1.223423	0.347968	0.364343
H58	H	-1.319456	0.350257	0.236883
C59	C	-1.826697	-0.304516	0.000161
C60	C	-1.728652	-0.207071	0.000167
H61	H	-1.905433	-0.269552	0.000153
H62	H	-1.820588	-0.355040	0.085103
H63	H	-1.820575	-0.355031	-0.084794
H64	H	-1.734769	-0.156562	0.085128
H65	H	-1.734764	-0.156527	-0.084784
H66	H	-1.280897	-0.171016	0.000099
C67	C	-1.726349	-0.558262	-0.125087
C68	C	-1.721352	-0.482097	0.000149
H69	H	-1.802732	-0.612193	-0.125085
H70	H	-1.656767	-0.607699	-0.125093
H71	H	-1.722959	-0.506541	-0.210018
H72	H	-1.724734	-0.533818	0.085081
H73	H	-1.790954	-0.432655	0.000169
C74	C	-1.262248	-0.555182	0.000096
C75	C	-1.241538	-0.423396	0.000089
H76	H	-1.183511	-0.590143	0.000100
H77	H	-1.308629	-0.582386	-0.084843
H78	H	-1.308634	-0.582392	0.085054
H79	H	-1.195160	-0.396186	-0.084875
H80	H	-1.195137	-0.396181	0.085037
