data_functionalizedCrystal
_audit_creation_method	'MofGen! by Chris Wilmer'
_symmetry_space_group_name_H-M	'P1'
_symmetry_Int_Tables_number	1
_symmetry_cell_setting	triclinic
loop_
_symmetry_equiv_pos_as_xyz
  x,y,z
_cell_length_a	10.723024
_cell_length_b	16.992694
_cell_length_c	15.455313
_cell_angle_alpha	87.142206
_cell_angle_beta	87.308277
_cell_angle_gamma	92.431954
loop_
_atom_site_label
_atom_site_type_symbol
_atom_site_fract_x
_atom_site_fract_y
_atom_site_fract_z
O1	O	0.259622	-1.045219	0.072018
O2	O	0.759622	-0.545219	0.572018
O3	O	0.256716	-0.816920	0.072044
O4	O	0.756716	-0.316920	0.572044
O5	O	0.077046	-0.936335	0.072027
O6	O	0.577046	-0.436335	0.572027
O7	O	0.439291	-0.925803	0.072035
O8	O	0.939291	-0.425803	0.572035
O9	O	0.087275	-0.929506	-0.072234
O10	O	0.587275	-0.429506	0.427766
O11	O	0.266945	-0.810091	-0.072217
O12	O	0.766945	-0.310091	0.427783
O13	O	0.269851	-1.038390	-0.072243
O14	O	0.769851	-0.538390	0.427757
Cu15	Cu	0.269332	-0.923617	-0.085402
Cu16	Cu	0.769332	-0.423617	0.414598
Cu17	Cu	0.257235	-0.931693	0.085203
Cu18	Cu	0.757235	-0.431693	0.585203
O19	O	0.449520	-0.918974	-0.072226
O20	O	0.949520	-0.418974	0.427774
C21	C	0.258094	-0.784273	-0.000083
C22	C	0.758094	-0.284273	0.499917
C23	C	0.246945	-0.697169	-0.000074
C24	C	0.746945	-0.197169	0.499926
C25	C	0.035595	-0.932154	-0.000102
C26	C	0.535595	-0.432154	0.499898
C27	C	-0.103157	-0.929861	-0.000099
C28	C	0.396843	-0.429861	0.499901
C29	C	0.268473	-1.071037	-0.000114
C30	C	0.768473	-0.571037	0.499886
C31	C	0.279621	-1.158141	-0.000118
C32	C	0.779621	-0.658141	0.499882
C33	C	-0.172386	-0.996680	-0.000105
C34	C	0.327614	-0.496680	0.499895
C35	C	-0.315793	-0.994312	-0.000102
C36	C	0.184207	-0.494312	0.499898
C37	C	0.490971	-0.923155	-0.000095
C38	C	0.990971	-0.423155	0.499905
C39	C	0.629723	-0.925449	-0.000093
C40	C	1.129723	-0.425449	0.499907
N41	N	0.277840	-0.917942	-0.205397
N42	N	0.777840	-0.417942	0.294603
C43	C	0.354505	-0.647507	-0.000072
C44	C	0.854505	-0.147507	0.499928
C45	C	0.344024	-0.565663	-0.000084
C46	C	0.844024	-0.065663	0.499916
C47	C	0.225982	-0.533484	-0.000092
C48	C	0.725982	-0.033484	0.499908
C49	C	0.118414	-0.583152	-0.000096
C50	C	0.618414	-0.083152	0.499904
C51	C	0.128896	-0.664993	-0.000090
C52	C	0.628896	-0.164993	0.499910
C53	C	0.182535	-0.289651	-0.000116
C54	C	0.682535	0.210349	0.499884
C55	C	0.172061	-0.207803	-0.000119
C56	C	0.672061	0.292197	0.499881
C57	C	0.397673	-0.190320	-0.000109
C58	C	0.897673	0.309680	0.499891
C59	C	0.408144	-0.272165	-0.000098
C60	C	0.908144	0.227835	0.499902
C61	C	0.300577	-0.321825	-0.000107
C62	C	0.800577	0.178175	0.499893
N63	N	0.215266	-0.449827	-0.000102
N64	N	0.715266	0.050173	0.499898
N65	N	0.311295	-0.405480	-0.000103
N66	N	0.811295	0.094520	0.499897
C67	C	0.201542	-0.968692	-0.250798
C68	C	0.701542	-0.468692	0.249202
C69	C	0.207989	-0.964408	-0.341605
C70	C	0.707989	-0.464408	0.158395
C71	C	0.290741	-0.909377	-0.387010
C72	C	0.790741	-0.409377	0.112990
C73	C	0.367042	-0.858622	-0.341602
C74	C	0.867042	-0.358622	0.158398
C75	C	0.360588	-0.862903	-0.250797
C76	C	0.860588	-0.362903	0.249203
C77	C	0.318564	-0.890899	-0.658589
C78	C	0.818564	-0.390899	-0.158589
C79	C	0.325015	-0.886624	-0.749401
C80	C	0.825015	-0.386624	-0.249401
C81	C	0.165960	-0.992409	-0.749398
C82	C	0.665960	-0.492409	-0.249398
C83	C	0.159518	-0.996689	-0.658590
C84	C	0.659518	-0.496689	-0.158590
C85	C	0.235815	-0.945931	-0.613191
C86	C	0.735815	-0.445931	-0.113191
N87	N	0.297335	-0.904999	-0.479830
N88	N	0.797335	-0.404999	0.020170
N89	N	0.229213	-0.950306	-0.520373
N90	N	0.729213	-0.450306	-0.020373
N91	N	0.248717	-0.937374	0.205198
N92	N	0.748717	-0.437374	0.705198
H93	H	-0.125486	-1.055640	-0.000117
H94	H	0.374514	-0.555640	0.499883
Cl95	Cl	0.456506	-0.799097	-0.193722
Cl96	Cl	0.956506	-0.299097	0.306278
H97	H	0.075931	-0.181606	-0.000125
H98	H	0.575931	0.318394	0.499875
H99	H	0.431612	-0.525232	-0.000082
H100	H	0.931612	-0.025232	0.499918
Cl101	Cl	-0.407660	-1.082633	-0.000117
Cl102	Cl	0.092340	-0.582633	0.499883
Cl103	Cl	-0.278417	-0.837124	-0.000091
Cl104	Cl	0.221583	-0.337124	0.499909
Cl105	Cl	-0.175555	-0.838828	-0.000080
Cl106	Cl	0.324445	-0.338828	0.499920
H107	H	0.392407	-0.841809	-0.786365
H108	H	0.892407	-0.341809	-0.286365
H109	H	0.434416	-0.813811	-0.378576
H110	H	0.934416	-0.313811	0.121424
H111	H	0.022302	-0.556944	-0.000115
H112	H	0.522302	-0.056944	0.499885
H113	H	0.092135	-1.041499	-0.621624
H114	H	0.592135	-0.541499	-0.121624
H115	H	0.450628	-0.673701	-0.000065
H116	H	0.950628	-0.173701	0.499935
Cl117	Cl	0.556547	-0.312613	-0.000083
Cl118	Cl	1.056547	0.187387	0.499917
Cl119	Cl	-0.006328	-0.727426	-0.000096
Cl120	Cl	0.493672	-0.227426	0.499904
Cl121	Cl	0.047306	-0.352071	-0.000126
Cl122	Cl	0.547306	0.147929	0.499874
H123	H	0.485248	-0.149878	-0.000104
H124	H	0.985248	0.350122	0.499896
H125	H	0.380691	-0.849571	-0.621632
H126	H	0.880691	-0.349571	-0.121632
H127	H	0.134162	-1.013507	-0.213836
H128	H	0.634162	-0.513507	0.286164
H129	H	0.145860	-1.005732	-0.378571
H130	H	0.645860	-0.505732	0.121429
Cl131	Cl	0.070045	-1.056213	-0.806475
Cl132	Cl	0.570045	-0.556213	-0.306475
