data_functionalizedCrystal
_audit_creation_method	'MofGen! by Chris Wilmer'
_symmetry_space_group_name_H-M	'P1'
_symmetry_Int_Tables_number	1
_symmetry_cell_setting	triclinic
loop_
_symmetry_equiv_pos_as_xyz
  x,y,z
_cell_length_a	12.827893
_cell_length_b	25.639240
_cell_length_c	12.827885
_cell_angle_alpha	90.043165
_cell_angle_beta	90.019272
_cell_angle_gamma	90.032728
loop_
_atom_site_label
_atom_site_type_symbol
_atom_site_fract_x
_atom_site_fract_y
_atom_site_fract_z
Zn1	Zn	1.597543	-0.208126	0.590751
Zn2	Zn	1.597385	-0.295571	0.415971
Zn3	Zn	1.422785	-0.208151	0.416025
Zn4	Zn	1.422717	-0.295532	0.590671
O5	O	1.510108	-0.251845	0.503355
O6	O	1.743758	-0.219731	0.567578
O7	O	1.574185	-0.284002	0.269742
O8	O	1.446062	-0.134983	0.439259
O9	O	1.743642	-0.283977	0.439167
O10	O	1.574456	-0.134964	0.567630
O11	O	1.445908	-0.219775	0.269782
O12	O	1.276540	-0.219737	0.439181
O13	O	1.445946	-0.283911	0.736918
O14	O	1.276490	-0.283935	0.567493
O15	O	1.574391	-0.219694	0.736977
O16	O	1.574120	-0.368731	0.439089
O17	O	1.445792	-0.368702	0.567440
C18	C	1.238598	-0.251835	0.503335
C19	C	1.122445	-0.251843	0.503351
C20	C	1.070663	-0.283660	0.566746
C21	C	0.950612	-0.283670	0.566764
C22	C	1.509960	-0.387688	0.503273
C23	C	1.509992	-0.445802	0.503273
C24	C	1.576996	-0.806117	0.570318
C25	C	1.577027	-0.860721	0.570339
O26	O	1.633820	-0.888917	0.627259
N27	N	1.510253	-0.888084	0.503456
C28	C	1.443436	-0.860840	0.436554
O29	O	1.386642	-0.889129	0.379667
C30	C	1.443401	-0.806237	0.436539
C31	C	1.510186	-0.778876	0.503419
C32	C	1.643775	-0.778756	0.637194
C33	C	1.643746	-0.724155	0.637171
C34	C	1.576936	-0.696915	0.570272
C35	C	1.510157	-0.724276	0.503396
C36	C	1.376579	-0.778994	0.369643
C37	C	1.376549	-0.724387	0.369634
C38	C	1.443335	-0.697027	0.436515
C39	C	1.443318	-0.642435	0.436475
N40	N	1.510092	-0.615072	0.503358
C41	C	1.576901	-0.642312	0.570257
C42	C	1.443514	-0.975511	0.436592
C43	C	1.443554	-1.030113	0.436601
C44	C	1.577143	-1.029990	0.570388
C45	C	1.577108	-0.975387	0.570373
C46	C	1.510288	-0.948148	0.503476
C47	C	1.576834	-0.527647	0.570203
C48	C	1.576802	-0.473042	0.570171
C49	C	1.443209	-0.473170	0.436389
C50	C	1.443245	-0.527770	0.436416
C51	C	1.510061	-0.555008	0.503332
O52	O	1.386551	-0.614205	0.379587
O53	O	1.633676	-0.614017	0.627144
C54	C	1.782678	-0.251856	0.503375
C55	C	1.898831	-0.251860	0.503384
C56	C	1.510179	-0.251795	0.775925
C57	C	1.510209	-0.251773	0.892078
C58	C	1.510284	-0.115472	0.503460
C59	C	1.510360	-0.057358	0.503504
C60	C	1.510097	-0.251857	0.231845
C61	C	1.510269	-0.251731	0.115692
C62	C	1.573774	-0.219991	0.943892
C63	C	1.573807	-0.219968	1.063943
H64	H	0.906081	-0.310911	0.621035
H65	H	1.077900	-0.224608	0.449094
H66	H	0.943355	-0.224621	0.449103
H67	H	1.455850	-0.278945	1.071140
H68	H	1.628166	-0.192795	0.899375
O69	O	1.123749	-0.316094	0.631633
C70	C	1.097193	-0.304752	0.735856
H71	H	1.067155	-0.263003	0.741325
H72	H	1.033912	-0.332835	0.763131
C73	C	1.231139	-0.362101	0.798757
C74	C	1.194254	-0.310823	0.805475
H75	H	1.291009	-0.365848	0.841703
H76	H	1.249028	-0.369744	0.728539
H77	H	1.178396	-0.385497	0.821484
H78	H	1.246992	-0.287428	0.782736
H79	H	1.176376	-0.303176	0.875690
H80	H	1.631190	-0.450766	0.624633
H81	H	1.628231	-0.192759	1.108501
H82	H	1.455806	-0.278964	0.936595
H83	H	1.631235	-0.549817	0.624699
H84	H	1.698125	-0.701882	0.691633
H85	H	1.698179	-0.800929	0.691677
O86	O	1.641889	-1.056479	0.635494
C87	C	1.582364	-1.088068	0.702921
H88	H	1.500049	-1.071641	0.709294
H89	H	1.578800	-1.129466	0.670615
C90	C	1.734451	-1.109016	0.803779
C91	C	1.633353	-1.088838	0.811613
H92	H	1.765905	-1.109494	0.870824
H93	H	1.774556	-1.087736	0.758350
H94	H	1.731468	-1.143513	0.776853
H95	H	1.636339	-1.054340	0.838525
H96	H	1.593250	-1.110113	0.857049
H97	H	1.631490	-0.953113	0.624833
O98	O	1.378588	-1.056607	0.371592
C99	C	1.319640	-1.020849	0.312526
H100	H	1.315983	-0.981908	0.355317
H101	H	1.357950	-1.015061	0.233193
C102	C	1.212927	-1.090035	0.244812
C103	C	1.208428	-1.042209	0.297373
H104	H	1.144327	-1.103211	0.235460
H105	H	1.252643	-1.114127	0.284602
H106	H	1.244857	-1.085206	0.178706
H107	H	1.176510	-1.047040	0.363482
H108	H	1.168703	-1.018118	0.257593
H109	H	1.322195	-0.801262	0.315182
O110	O	1.378756	-0.948995	0.371542
C111	C	1.438267	-0.917426	0.304068
H112	H	1.517433	-0.909187	0.340995
H113	H	1.449814	-0.938504	0.226648
C114	C	1.283507	-0.875715	0.239710
C115	C	1.380736	-0.865593	0.285068
H116	H	1.248017	-0.843742	0.227985
H117	H	1.243411	-0.896985	0.285165
H118	H	1.293142	-0.893281	0.175198
H119	H	1.371098	-0.848033	0.349584
H120	H	1.420828	-0.844318	0.239623
H121	H	1.388870	-0.550048	0.381949
H122	H	1.322133	-0.702212	0.315160
O123	O	1.378163	-0.446759	0.371466
C124	C	1.274006	-0.460124	0.394249
H125	H	1.271842	-0.499756	0.434418
H126	H	1.238777	-0.429387	0.447952
C127	C	1.213401	-0.414033	0.242992
C128	C	1.210742	-0.462712	0.292321
H129	H	1.174374	-0.415627	0.180120
H130	H	1.283572	-0.405027	0.227645
H131	H	1.184044	-0.388424	0.287756
H132	H	1.240110	-0.488319	0.247563
H133	H	1.140574	-0.471722	0.307659
