data_functionalizedCrystal
_audit_creation_method	'MofGen! by Chris Wilmer'
_symmetry_space_group_name_H-M	'P1'
_symmetry_Int_Tables_number	1
_symmetry_cell_setting	triclinic
loop_
_symmetry_equiv_pos_as_xyz
  x,y,z
_cell_length_a	23.532407
_cell_length_b	23.532407
_cell_length_c	22.010155
_cell_angle_alpha	90.000423
_cell_angle_beta	89.994271
_cell_angle_gamma	97.151288
loop_
_atom_site_label
_atom_site_type_symbol
_atom_site_fract_x
_atom_site_fract_y
_atom_site_fract_z
O1	O	0.755264	-0.069127	-0.050493
O2	O	1.088597	0.264206	0.282840
O3	O	1.421930	0.597539	0.616174
O4	O	0.589400	-0.079130	-0.050503
O5	O	0.922734	0.254203	0.282830
O6	O	1.256067	0.587536	0.616163
O7	O	0.677334	0.008803	-0.050487
O8	O	1.010667	0.342136	0.282847
O9	O	1.344000	0.675469	0.616180
O10	O	0.667330	-0.157061	-0.050510
O11	O	1.000664	0.176273	0.282824
O12	O	1.333997	0.509606	0.616157
O13	O	0.677318	0.008790	0.050564
O14	O	1.010651	0.342123	0.383897
O15	O	1.343984	0.675456	0.717230
O16	O	0.589384	-0.079144	0.050547
O17	O	0.922718	0.254190	0.383880
O18	O	1.256051	0.587523	0.717214
O19	O	0.755248	-0.069141	0.050557
O20	O	1.088581	0.264193	0.383891
O21	O	1.421914	0.597526	0.717224
Cu22	Cu	0.672315	-0.074143	0.059779
Cu23	Cu	1.005648	0.259190	0.393112
Cu24	Cu	1.338981	0.592523	0.726446
Cu25	Cu	0.672333	-0.074128	-0.059725
Cu26	Cu	1.005667	0.259206	0.273608
Cu27	Cu	1.339000	0.592539	0.606942
O28	O	0.667314	-0.157074	0.050541
O29	O	1.000648	0.176260	0.383874
O30	O	1.333981	0.509593	0.717207
C31	C	0.568176	-0.078882	0.000021
C32	C	0.901510	0.254451	0.333354
C33	C	1.234843	0.587784	0.666687
C34	C	0.504959	-0.078116	0.000017
C35	C	0.838293	0.255217	0.333350
C36	C	1.171626	0.588550	0.666684
C37	C	0.677071	0.030012	0.000040
C38	C	1.010404	0.363346	0.333373
C39	C	1.343738	0.696679	0.666707
C40	C	0.676305	0.093229	0.000045
C41	C	1.009638	0.426563	0.333378
C42	C	1.342972	0.759896	0.666711
N43	N	0.672305	-0.074154	0.143831
N44	N	1.005639	0.259179	0.477165
N45	N	1.338972	0.592513	0.810498
C46	C	0.238792	-0.022921	0.000041
C47	C	0.572125	0.310412	0.333375
C48	C	0.905458	0.643746	0.666708
C49	C	0.298192	-0.023632	0.000041
C50	C	0.631525	0.309701	0.333374
C51	C	0.964859	0.643034	0.666708
O52	O	0.334937	0.020153	0.000068
O53	O	0.668270	0.353487	0.333401
O54	O	1.001603	0.686820	0.666735
N55	N	0.320818	-0.075909	0.000030
N56	N	0.654152	0.257425	0.333363
N57	N	0.987485	0.590758	0.666696
C58	C	0.284041	-0.127477	0.000025
C59	C	0.617374	0.205856	0.333358
C60	C	0.950707	0.539190	0.666691
O61	O	0.308740	-0.172007	0.000016
O62	O	0.642074	0.161326	0.333349
O63	O	0.975407	0.494659	0.666682
C64	C	0.224642	-0.126765	0.000029
C65	C	0.557975	0.206568	0.333363
C66	C	0.891308	0.539902	0.666696
C67	C	0.202019	-0.074485	0.000035
C68	C	0.535352	0.258848	0.333368
C69	C	0.868686	0.592181	0.666701
C70	C	0.216168	0.029354	0.000047
C71	C	0.549502	0.362688	0.333380
C72	C	0.882835	0.696021	0.666714
C73	C	0.156772	0.030066	0.000046
C74	C	0.490106	0.363399	0.333380
C75	C	0.823439	0.696732	0.666713
C76	C	0.119999	-0.021499	0.000039
C77	C	0.453333	0.311835	0.333373
C78	C	0.786666	0.645168	0.666706
C79	C	0.142623	-0.073774	0.000034
C80	C	0.475956	0.259559	0.333367
C81	C	0.809289	0.592893	0.666700
C82	C	0.187865	-0.178333	0.000029
C83	C	0.521199	0.155001	0.333362
C84	C	0.854532	0.488334	0.666695
C85	C	0.128463	-0.177616	0.000034
C86	C	0.461796	0.155717	0.333367
C87	C	0.795129	0.489051	0.666701
C88	C	0.105840	-0.125336	0.000039
C89	C	0.439173	0.207997	0.333372
C90	C	0.772507	0.541330	0.666706
C91	C	0.046454	-0.124627	0.000026
C92	C	0.379787	0.208706	0.333359
C93	C	0.713120	0.542040	0.666693
N94	N	0.023828	-0.072351	0.000037
N95	N	0.357161	0.260983	0.333371
N96	N	0.690494	0.594316	0.666704
C97	C	0.060600	-0.020787	0.000044
C98	C	0.393934	0.312547	0.333377
C99	C	0.727267	0.645880	0.666711
C100	C	0.408783	-0.128968	0.000016
C101	C	0.742117	0.204365	0.333349
C102	C	1.075450	0.537698	0.666683
C103	C	0.468181	-0.129681	0.000007
C104	C	0.801514	0.203652	0.333340
C105	C	1.134848	0.536986	0.666674
C106	C	0.482328	-0.025836	0.000025
C107	C	0.815662	0.307497	0.333358
C108	C	1.148995	0.640830	0.666691
C109	C	0.422929	-0.025124	0.000029
C110	C	0.756263	0.308209	0.333362
C111	C	1.089596	0.641543	0.666696
C112	C	0.386157	-0.076692	0.000027
C113	C	0.719490	0.256641	0.333361
C114	C	1.052824	0.589975	0.666694
C115	C	-0.064136	-0.019297	0.000042
C116	C	0.269197	0.314036	0.333375
C117	C	0.602530	0.647370	0.666708
C118	C	-0.123538	-0.018590	0.000038
C119	C	0.209795	0.314743	0.333372
C120	C	0.543128	0.648076	0.666705
C121	C	-0.137680	-0.122435	0.000024
C122	C	0.195653	0.210899	0.333357
C123	C	0.528986	0.544232	0.666691
C124	C	-0.078284	-0.123142	0.000024
C125	C	0.255050	0.210192	0.333358
C126	C	0.588383	0.543525	0.666691
C127	C	-0.041512	-0.071568	0.000035
C128	C	0.291821	0.261765	0.333369
C129	C	0.625154	0.595099	0.666702
O130	O	0.009675	-0.168390	0.000001
O131	O	0.343008	0.164943	0.333335
O132	O	0.676341	0.498277	0.666668
O133	O	0.035892	0.023737	0.000061
O134	O	0.369226	0.357070	0.333395
O135	O	0.702559	0.690403	0.666728
C136	C	0.776472	-0.069389	0.000032
C137	C	1.109805	0.263945	0.333365
C138	C	1.443138	0.597278	0.666699
C139	C	0.839689	-0.070155	0.000032
C140	C	1.173022	0.263179	0.333365
C141	C	1.506355	0.596512	0.666698
C142	C	0.667577	-0.178283	0.000013
C143	C	1.000910	0.155050	0.333346
C144	C	1.334244	0.488383	0.666679
C145	C	0.668343	-0.241500	0.000004
C146	C	1.001676	0.091833	0.333337
C147	C	1.335010	0.425166	0.666671
C148	C	0.723538	0.492332	0.000014
C149	C	1.056872	0.825666	0.333348
C150	C	1.390205	1.158999	0.666681
C151	C	0.722827	0.551733	0.000010
C152	C	1.056160	0.885066	0.333343
C153	C	1.389494	1.218399	0.666676
O154	O	0.766613	0.588477	-0.000010
O155	O	1.099946	0.921810	0.333323
O156	O	1.433280	1.255144	0.666657
N157	N	0.670551	0.574359	0.000007
N158	N	1.003884	0.907692	0.333340
N159	N	1.337217	1.241025	0.666673
C160	C	0.618982	0.537581	0.000002
C161	C	0.952316	0.870915	0.333336
C162	C	1.285649	1.204248	0.666669
O163	O	0.574452	0.562281	-0.000001
O164	O	0.907785	0.895614	0.333332
O165	O	1.241119	1.228948	0.666666
C166	C	0.619695	0.478182	0.000003
C167	C	0.953028	0.811515	0.333336
C168	C	1.286361	1.144849	0.666669
C169	C	0.671974	0.455559	0.000012
C170	C	1.005308	0.788893	0.333345
C171	C	1.338641	1.122226	0.666678
C172	C	0.775814	0.469709	0.000023
C173	C	1.109147	0.803042	0.333356
C174	C	1.442481	1.136376	0.666689
C175	C	0.776525	0.410313	0.000028
C176	C	1.109858	0.743646	0.333362
C177	C	1.443192	1.076980	0.666695
C178	C	0.724961	0.373540	0.000026
C179	C	1.058294	0.706873	0.333359
C180	C	1.391628	1.040207	0.666693
C181	C	0.672685	0.396163	0.000018
C182	C	1.006019	0.729497	0.333351
C183	C	1.339352	1.062830	0.666684
C184	C	0.568127	0.441406	-0.000006
C185	C	0.901460	0.774739	0.333327
C186	C	1.234794	1.108072	0.666661
C187	C	0.568843	0.382003	-0.000006
C188	C	0.902177	0.715337	0.333327
C189	C	1.235510	1.048670	0.666661
C190	C	0.621123	0.359381	0.000003
C191	C	0.954457	0.692714	0.333336
C192	C	1.287790	1.026047	0.666670
C193	C	0.621832	0.299994	0.000021
C194	C	0.955166	0.633328	0.333354
C195	C	1.288499	0.966661	0.666687
N196	N	0.674109	0.277368	0.000024
N197	N	1.007442	0.610701	0.333357
N198	N	1.340775	0.944035	0.666690
C199	C	0.725673	0.314141	0.000026
C200	C	1.059006	0.647474	0.333360
C201	C	1.392340	0.980808	0.666693
C202	C	0.617491	0.662324	0.000001
C203	C	0.950824	0.995657	0.333334
C204	C	1.284158	1.328990	0.666667
C205	C	0.616778	0.721722	0.000005
C206	C	0.950112	1.055055	0.333338
C207	C	1.283445	1.388388	0.666671
C208	C	0.720623	0.735869	0.000011
C209	C	1.053957	1.069202	0.333344
C210	C	1.387290	1.402536	0.666678
C211	C	0.721335	0.676470	0.000011
C212	C	1.054669	1.009803	0.333344
C213	C	1.388002	1.343137	0.666678
C214	C	0.669767	0.639698	0.000004
C215	C	1.003101	0.973031	0.333337
C216	C	1.336434	1.306364	0.666670
C217	C	0.727163	0.189404	0.000039
C218	C	1.060496	0.522738	0.333372
C219	C	1.393829	0.856071	0.666706
C220	C	0.727869	0.130002	0.000047
C221	C	1.061203	0.463335	0.333381
C222	C	1.394536	0.796669	0.666714
C223	C	0.624025	0.115860	0.000038
C224	C	0.957358	0.449193	0.333371
C225	C	1.290691	0.782527	0.666705
C226	C	0.623318	0.175257	0.000033
C227	C	0.956651	0.508590	0.333366
C228	C	1.289984	0.841924	0.666699
C229	C	0.674891	0.212028	0.000031
C230	C	1.008225	0.545361	0.333365
C231	C	1.341558	0.878695	0.666698
O232	O	0.578069	0.263215	0.000038
O233	O	0.911403	0.596548	0.333371
O234	O	1.244736	0.929882	0.666705
O235	O	0.770196	0.289433	0.000022
O236	O	1.103529	0.622766	0.333355
O237	O	1.436863	0.956100	0.666688
N238	N	0.672347	-0.074113	-0.143777
N239	N	1.005680	0.259221	0.189556
N240	N	1.339014	0.592554	0.522889
C241	C	0.711273	-0.035196	0.563618
C242	C	1.044606	0.298137	0.896951
C243	C	1.377939	0.631470	1.230285
C244	C	0.711275	-0.035192	0.627226
C245	C	1.044609	0.298141	0.960559
C246	C	1.377942	0.631474	1.293892
O247	O	0.744383	-0.002077	0.660123
O248	O	1.077717	0.331257	0.993457
O249	O	1.411050	0.664590	1.326790
N250	N	0.672333	-0.074116	0.659038
N251	N	1.005666	0.259218	0.992372
N252	N	1.339000	0.592551	1.325705
C253	C	0.633382	-0.113042	0.627240
C254	C	0.966715	0.220292	0.960574
C255	C	1.300049	0.553625	1.293907
O256	O	0.600259	-0.146148	0.660140
O257	O	0.933592	0.187185	0.993474
O258	O	1.266925	0.520518	1.326807
C259	C	0.633377	-0.113042	0.563634
C260	C	0.966710	0.220291	0.896967
C261	C	1.300044	0.553624	1.230301
C262	C	0.672326	-0.074120	0.531824
C263	C	1.005659	0.259213	0.865158
C264	C	1.338992	0.592546	1.198491
C265	C	0.750217	0.003723	0.531809
C266	C	1.083551	0.337056	0.865142
C267	C	1.416884	0.670390	1.198475
C268	C	0.750215	0.003718	0.468205
C269	C	1.083549	0.337052	0.801539
C270	C	1.416882	0.670385	1.134872
C271	C	0.711268	-0.035206	0.436412
C272	C	1.044602	0.298127	0.769745
C273	C	1.377935	0.631461	1.103078
C274	C	0.672323	-0.074125	0.468221
C275	C	1.005657	0.259208	0.801555
C276	C	1.338990	0.592541	1.134888
C277	C	0.594424	-0.151965	0.531837
C278	C	0.927757	0.181368	0.865170
C279	C	1.261090	0.514701	1.198504
C280	C	0.594422	-0.151962	0.468226
C281	C	0.927755	0.181371	0.801559
C282	C	1.261089	0.514704	1.134893
C283	C	0.633370	-0.113040	0.436417
C284	C	0.966704	0.220293	0.769750
C285	C	1.300037	0.553626	1.103083
C286	C	0.633374	-0.113054	0.372824
C287	C	0.966708	0.220279	0.706158
C288	C	1.300041	0.553613	1.039491
N289	N	0.672316	-0.074131	0.341012
N290	N	1.005650	0.259203	0.674345
N291	N	1.338983	0.592536	1.007678
C292	C	0.711263	-0.035207	0.372805
C293	C	1.044597	0.298127	0.706139
C294	C	1.377930	0.631460	1.039472
C295	C	0.633395	-0.113037	0.760818
C296	C	0.966728	0.220297	1.094151
C297	C	1.300061	0.553630	1.427485
C298	C	0.633402	-0.113039	0.824423
C299	C	0.966735	0.220294	1.157757
C300	C	1.300069	0.553628	1.491090
C301	C	0.711294	-0.035189	0.824404
C302	C	1.044628	0.298145	1.157738
C303	C	1.377961	0.631478	1.491071
C304	C	0.711290	-0.035189	0.760798
C305	C	1.044623	0.298144	1.094131
C306	C	1.377956	0.631477	1.427465
C307	C	0.672337	-0.074113	0.729005
C308	C	1.005670	0.259220	1.062339
C309	C	1.339003	0.592554	1.395672
C310	C	0.711256	-0.035220	0.239234
C311	C	1.044590	0.298113	0.572567
C312	C	1.377923	0.631447	0.905901
C313	C	0.711252	-0.035230	0.175625
C314	C	1.044586	0.298104	0.508958
C315	C	1.377919	0.631437	0.842292
C316	C	0.633358	-0.113078	0.175650
C317	C	0.966691	0.220256	0.508983
C318	C	1.300025	0.553589	0.842316
C319	C	0.633364	-0.113070	0.239253
C320	C	0.966697	0.220263	0.572586
C321	C	1.300030	0.553597	0.905920
C322	C	0.672315	-0.074137	0.271043
C323	C	1.005648	0.259197	0.604377
C324	C	1.338982	0.592530	0.937710
O325	O	0.600282	-0.146151	0.339886
O326	O	0.933615	0.187182	0.673220
O327	O	1.266948	0.520515	1.006553
O328	O	0.744376	-0.002101	0.339898
O329	O	1.077710	0.331233	0.673231
O330	O	1.411043	0.664566	1.006564
H331	H	-0.034204	0.022699	0.000050
H332	H	0.299130	0.356033	0.333384
H333	H	0.632463	0.689366	0.666717
N334	N	0.753273	0.006765	0.273517
N335	N	1.086607	0.340098	0.606850
N336	N	1.419940	0.673432	0.940184
H337	H	0.731665	0.031880	0.299910
H338	H	1.064999	0.365213	0.633243
H339	H	1.398332	0.698547	0.966577
H340	H	0.777932	0.031375	0.243668
H341	H	1.111266	0.364709	0.577001
H342	H	1.444599	0.698042	0.910335
N343	N	0.753264	0.006750	0.141316
N344	N	1.086597	0.340084	0.474650
N345	N	1.419931	0.673417	0.807983
H346	H	0.777935	0.031409	0.171113
H347	H	1.111268	0.364743	0.504447
H348	H	1.444602	0.698076	0.837780
H349	H	0.731606	0.031817	0.114926
H350	H	1.064940	0.365151	0.448260
H351	H	1.398273	0.698484	0.781593
N352	N	0.560388	0.746113	0.000009
N353	N	0.893722	1.079446	0.333342
N354	N	1.227055	1.412779	0.666676
H355	H	0.537818	0.732677	-0.037450
H356	H	0.871152	1.066011	0.295883
H357	H	1.204485	1.399344	0.629217
H358	H	0.567800	0.789318	0.000031
H359	H	0.901133	1.122652	0.333364
H360	H	1.234466	1.455985	0.666698
N361	N	-0.177350	-0.178047	0.000021
N362	N	0.155983	0.155286	0.333355
N363	N	0.489317	0.488619	0.666688
H364	H	-0.154009	-0.211276	0.000018
H365	H	0.179324	0.122057	0.333351
H366	H	0.512658	0.455391	0.666684
H367	H	-0.202301	-0.180008	-0.037438
H368	H	0.131033	0.153325	0.295895
H369	H	0.464366	0.486659	0.629228
H370	H	0.486595	-0.172252	-0.000006
H371	H	0.819928	0.161081	0.333328
H372	H	1.153261	0.494414	0.666661
H373	H	0.819097	0.391900	0.000033
H374	H	1.152430	0.725233	0.333367
H375	H	1.485763	1.058566	0.666700
H376	H	0.781929	0.035413	0.442310
H377	H	1.115262	0.368747	0.775643
H378	H	1.448595	0.702080	1.108977
H379	H	0.582043	0.085909	0.000038
H380	H	0.915376	0.419242	0.333371
H381	H	1.248709	0.752576	0.666705
H382	H	0.206274	-0.220904	0.000022
H383	H	0.539607	0.112429	0.333355
H384	H	0.872940	0.445762	0.666688
N385	N	0.511734	0.465787	-0.000022
N386	N	0.845067	0.799120	0.333312
N387	N	1.178401	1.132454	0.666645
H388	H	0.509128	0.490113	-0.037484
H389	H	0.842461	0.823446	0.295850
H390	H	1.175794	1.156780	0.629183
H391	H	0.509138	0.490088	0.037460
H392	H	0.842472	0.823421	0.370793
H393	H	1.175805	1.156755	0.704127
N394	N	0.552407	-0.193940	0.566133
N395	N	0.885740	0.139393	0.899466
N396	N	1.219074	0.472727	1.232800
H397	H	0.558311	-0.188039	0.611254
H398	H	0.891644	0.145294	0.944587
H399	H	1.224978	0.478628	1.277921
H400	H	0.558748	-0.234311	0.555013
H401	H	0.892082	0.099022	0.888346
H402	H	1.225415	0.432356	1.221679
H403	H	0.562700	-0.183658	0.442344
H404	H	0.896033	0.149675	0.775677
H405	H	1.229367	0.483008	1.109010
H406	H	0.817806	0.499644	0.000022
H407	H	1.151140	0.832978	0.333356
H408	H	1.484473	1.166311	0.666689
H409	H	0.781933	0.035422	0.557689
H410	H	1.115266	0.368756	0.891023
H411	H	1.448599	0.702089	1.224356
N412	N	0.561868	0.622663	-0.000002
N413	N	0.895201	0.955997	0.333331
N414	N	1.228535	1.289330	0.666665
H415	H	0.528647	0.646015	-0.000003
H416	H	0.861980	0.979348	0.333330
H417	H	1.195314	1.312682	0.666664
H418	H	0.559893	0.597711	0.037459
H419	H	0.893227	0.931044	0.370793
H420	H	1.226560	1.264377	0.704126
H421	H	0.743004	-0.003496	0.734902
H422	H	1.076338	0.329838	1.068236
H423	H	1.409671	0.663171	1.401569
H424	H	0.770443	0.111587	0.000056
H425	H	1.103777	0.444920	0.333389
H426	H	1.437110	0.778253	0.666723
H427	H	-0.141954	0.023984	0.000041
H428	H	0.191379	0.357317	0.333374
H429	H	0.524713	0.690651	0.666708
N430	N	0.513226	0.342337	-0.000001
N431	N	0.846559	0.675670	0.333332
N432	N	1.179892	1.009003	0.666665
H433	H	0.511209	0.317371	-0.037457
H434	H	0.844543	0.650705	0.295877
H435	H	1.177876	0.984038	0.629210
H436	H	0.480032	0.365721	0.000019
H437	H	0.813365	0.699054	0.333352
H438	H	1.146698	1.032388	0.666686
H439	H	0.512280	0.016150	0.000030
H440	H	0.845613	0.349484	0.333363
H441	H	1.178947	0.682817	0.666697
N442	N	0.255821	0.084978	0.000057
N443	N	0.589154	0.418311	0.333390
N444	N	0.922488	0.751645	0.666723
H445	H	0.248571	0.107801	-0.037400
H446	H	0.581905	0.441135	0.295934
H447	H	0.915238	0.774468	0.629267
H448	H	0.296870	0.076561	0.000076
H449	H	0.630204	0.409894	0.333409
H450	H	0.963537	0.743227	0.666742
H451	H	0.743006	-0.003494	0.850302
H452	H	1.076340	0.329840	1.183636
H453	H	1.409673	0.663173	1.516969
N454	N	0.777722	0.652072	0.000021
N455	N	1.111055	0.985405	0.333355
N456	N	1.444388	1.318738	0.666688
H457	H	0.810276	0.684385	0.000025
H458	H	1.143610	1.017719	0.333358
H459	H	1.476943	1.351052	0.666691
H460	H	0.780289	0.627737	-0.037440
H461	H	1.113622	0.961070	0.295894
H462	H	1.446956	1.294403	0.629227
H463	H	0.601692	-0.144739	0.850318
H464	H	0.935026	0.188595	1.183652
H465	H	1.268359	0.521928	1.516985
N466	N	0.566930	0.199657	0.000028
N467	N	0.900264	0.532991	0.333361
N468	N	1.233597	0.866324	0.666694
H469	H	0.564327	0.223982	-0.037436
H470	H	0.897660	0.557315	0.295897
H471	H	1.230993	0.890648	0.629230
H472	H	0.564347	0.223963	0.037507
H473	H	0.897680	0.557297	0.370841
H474	H	1.231014	0.890630	0.704174
N475	N	0.591381	-0.155023	0.726529
N476	N	0.924714	0.178311	1.059863
N477	N	1.258047	0.511644	1.393196
H478	H	0.566715	-0.179677	0.756339
H479	H	0.900048	0.153656	1.089672
H480	H	1.233381	0.486989	1.423005
H481	H	0.613034	-0.180094	0.700135
H482	H	0.946367	0.153240	1.033468
H483	H	1.279701	0.486573	1.366801
N484	N	0.591366	-0.155058	0.273566
N485	N	0.924699	0.178275	0.606900
N486	N	1.258033	0.511609	0.940233
H487	H	0.566696	-0.179719	0.243771
H488	H	0.900029	0.153614	0.577104
H489	H	1.233363	0.486947	0.910437
H490	H	0.566312	-0.133383	0.299958
H491	H	0.899645	0.199951	0.633291
H492	H	1.232979	0.533284	0.966625
N493	N	0.591353	-0.155059	0.141352
N494	N	0.924686	0.178275	0.474685
N495	N	1.258019	0.511608	0.808018
H496	H	0.597262	-0.149150	0.096231
H497	H	0.930596	0.184184	0.429565
H498	H	1.263929	0.517517	0.762898
H499	H	0.550992	-0.148679	0.152475
H500	H	0.884325	0.184654	0.485808
H501	H	1.217659	0.517988	0.819141
H502	H	0.378846	-0.170964	0.000010
H503	H	0.712179	0.162370	0.333344
H504	H	1.045512	0.495703	0.666677
H505	H	0.138359	0.072637	0.000053
H506	H	0.471692	0.405970	0.333386
H507	H	0.805026	0.739304	0.666720
H508	H	0.404515	0.017447	0.000034
H509	H	0.737848	0.350780	0.333367
H510	H	1.071181	0.684113	0.666700
H511	H	0.098525	-0.219610	0.000035
H512	H	0.431858	0.113723	0.333369
H513	H	0.765191	0.447057	0.666702
N514	N	0.776241	0.775537	0.000014
N515	N	1.109574	1.108870	0.333347
N516	N	1.442908	1.442204	0.666680
H517	H	0.767853	0.816598	0.000010
H518	H	1.101186	1.149931	0.333343
H519	H	1.434520	1.483264	0.666677
H520	H	0.799045	0.768246	-0.037446
H521	H	1.132378	1.101579	0.295888
H522	H	1.465712	1.434912	0.629221
H523	H	0.769159	0.219337	0.000035
H524	H	1.102492	0.552670	0.333369
H525	H	1.435825	0.886004	0.666702
N526	N	-0.053879	-0.179527	0.000010
N527	N	0.279454	0.153806	0.333343
N528	N	0.612788	0.487140	0.666677
H529	H	-0.086190	-0.212084	0.000003
H530	H	0.247143	0.121249	0.333337
H531	H	0.580477	0.454582	0.666670
H532	H	-0.029550	-0.182089	0.037473
H533	H	0.303783	0.151244	0.370806
H534	H	0.637117	0.484577	0.704140
