data_functionalizedCrystal
_audit_creation_method	'MofGen! by Chris Wilmer'
_symmetry_space_group_name_H-M	'P1'
_symmetry_Int_Tables_number	1
_symmetry_cell_setting	triclinic
loop_
_symmetry_equiv_pos_as_xyz
  x,y,z
_cell_length_a	12.759401
_cell_length_b	12.759400
_cell_length_c	12.759393
_cell_angle_alpha	90.030652
_cell_angle_beta	90.018238
_cell_angle_gamma	90.012834
loop_
_atom_site_label
_atom_site_type_symbol
_atom_site_fract_x
_atom_site_fract_y
_atom_site_fract_z
Zn1	Zn	-1.606242	0.418266	-0.594011
Zn2	Zn	-1.606140	0.593982	-0.418331
Zn3	Zn	-1.430548	0.418312	-0.418347
Zn4	Zn	-1.430532	0.593897	-0.593969
O5	O	-1.518366	0.506114	-0.506165
O6	O	-1.753249	0.441591	-0.570718
O7	O	-1.582811	0.570733	-0.271312
O8	O	-1.453903	0.271285	-0.441674
O9	O	-1.753175	0.570689	-0.441646
O10	O	-1.582985	0.271251	-0.570733
O11	O	-1.453804	0.441669	-0.271324
O12	O	-1.283525	0.441588	-0.441633
O13	O	-1.453877	0.570545	-0.740996
O14	O	-1.283513	0.570590	-0.570662
O15	O	-1.582970	0.441509	-0.741027
O16	O	-1.582797	0.740992	-0.441606
O17	O	-1.453778	0.740930	-0.570647
C18	C	-1.245398	0.506085	-0.506145
C19	C	-1.128622	0.506098	-0.506162
C20	C	-1.073781	0.573375	-0.573235
C21	C	-0.964057	0.573385	-0.573245
C22	C	-0.964024	0.438837	-0.439099
C23	C	-1.073746	0.438823	-0.439095
C24	C	-1.073800	0.651058	-0.650680
C25	C	-0.964076	0.651068	-0.650690
C26	C	-1.518303	0.779082	-0.506143
C27	C	-1.518373	0.895858	-0.506169
C28	C	-1.518433	0.506013	-0.780198
C29	C	-1.518461	0.505969	-0.896975
C30	C	-0.792399	0.506135	-0.506180
C31	C	-0.909175	0.506122	-0.506175
C32	C	-1.518457	0.232081	-0.506210
C33	C	-1.518496	0.115304	-0.506229
C34	C	-1.585627	0.950717	-0.439051
C35	C	-1.585692	1.060442	-0.439084
C36	C	-1.451238	1.060437	-0.573354
C37	C	-1.451180	0.950715	-0.573326
C38	C	-1.663249	0.950721	-0.361529
C39	C	-1.663314	1.060445	-0.361561
C40	C	-1.451265	0.573127	-0.951823
C41	C	-1.451304	0.573088	-1.061547
C42	C	-1.585738	0.438727	-1.061566
C43	C	-1.585704	0.438771	-0.951844
C44	C	-1.373648	0.650696	-0.951813
C45	C	-1.373686	0.650658	-1.061537
C46	C	-1.518359	0.506140	-0.233197
C47	C	-1.518534	0.505887	-0.116421
H48	H	-1.103606	0.629361	-0.732088
H49	H	-1.634126	0.916771	-0.284202
H50	H	-1.118393	0.384033	-0.384485
H51	H	-1.296354	0.621553	-0.917783
H52	H	-1.640484	0.384016	-1.106253
H53	H	-1.744592	0.920866	-0.383382
H54	H	-1.107815	0.728311	-0.621396
H55	H	-0.930076	0.622024	-0.728041
H56	H	-1.740617	1.094393	-0.390774
H57	H	-0.934281	0.732416	-0.628757
H58	H	-1.641578	1.090305	-0.280180
H59	H	-1.396426	0.906050	-0.627987
H60	H	-1.402812	0.727947	-1.095556
H61	H	-0.919330	0.384063	-0.384496
H62	H	-1.396533	1.105115	-0.628031
H63	H	-1.640432	0.384095	-0.907191
H64	H	-1.395415	0.732078	-0.922026
H65	H	-1.292334	0.628838	-1.091319
