data_functionalizedCrystal
_audit_creation_method	'MofGen! by Chris Wilmer'
_symmetry_space_group_name_H-M	'P1'
_symmetry_Int_Tables_number	1
_symmetry_cell_setting	triclinic
loop_
_symmetry_equiv_pos_as_xyz
  x,y,z
_cell_length_a	18.215407
_cell_length_b	16.120484
_cell_length_c	18.215399
_cell_angle_alpha	92.869789
_cell_angle_beta	89.980167
_cell_angle_gamma	92.926015
loop_
_atom_site_label
_atom_site_type_symbol
_atom_site_fract_x
_atom_site_fract_y
_atom_site_fract_z
Zn1	Zn	1.110213	-0.331906	-0.430960
Zn2	Zn	1.610213	0.168094	0.069040
Zn3	Zn	1.103879	-0.471328	-0.314129
Zn4	Zn	1.603879	0.028672	0.185871
Zn5	Zn	0.987144	-0.331934	-0.307908
Zn6	Zn	1.487144	0.168066	0.192092
Zn7	Zn	0.980871	-0.471282	-0.437152
Zn8	Zn	1.480871	0.028718	0.062848
O9	O	1.045527	-0.401612	-0.372537
O10	O	1.545527	0.098388	0.127463
O11	O	1.212356	-0.350409	-0.415474
O12	O	1.712356	0.149591	0.084526
O13	O	1.088368	-0.452868	-0.210321
O14	O	1.588368	0.047132	0.289679
O15	O	1.008745	-0.215264	-0.319037
O16	O	1.508745	0.284736	0.180963
O17	O	1.207703	-0.452841	-0.329639
O18	O	1.707703	0.047159	0.170361
O19	O	1.099163	-0.215244	-0.409442
O20	O	1.599163	0.284756	0.090558
O21	O	1.002604	-0.350456	-0.205751
O22	O	1.502604	0.149544	0.294249
O23	O	0.883328	-0.350411	-0.325041
O24	O	1.383328	0.149589	0.174959
O25	O	0.998054	-0.452762	-0.539313
O26	O	1.498054	0.047238	-0.039313
O27	O	0.878719	-0.452789	-0.419995
O28	O	1.378719	0.047211	0.080005
O29	O	1.093081	-0.350364	-0.534764
O30	O	1.593081	0.149636	-0.034764
O31	O	1.082286	-0.587988	-0.335643
O32	O	1.582286	-0.087988	0.164357
O33	O	0.991913	-0.587954	-0.426027
O34	O	1.491913	-0.087954	0.073973
C35	C	0.854321	-0.401598	-0.372516
C36	C	1.354321	0.098402	0.127484
C37	C	0.772522	-0.401612	-0.372525
C38	C	1.272522	0.098388	0.127475
C39	C	0.581943	-0.455004	-0.421912
C40	C	1.081943	0.044996	0.078088
C41	C	0.505085	-0.455007	-0.421921
C42	C	1.005085	0.044993	0.078079
C43	C	0.509861	-0.348236	-0.323179
C44	C	1.009861	0.151764	0.176821
C45	C	0.586719	-0.348229	-0.323174
C46	C	1.086719	0.151771	0.176826
C47	C	0.622758	-0.401619	-0.372540
C48	C	1.122758	0.098381	0.127460
C49	C	0.469041	-0.401627	-0.372554
C50	C	0.969041	0.098373	0.127446
C51	C	0.385708	-0.401630	-0.372564
C52	C	0.885708	0.098370	0.127436
C53	C	0.706097	-0.401615	-0.372531
C54	C	1.206097	0.098385	0.127469
C55	C	1.035751	-0.618221	-0.382198
C56	C	1.535751	-0.118221	0.117802
C57	C	1.031637	-0.710887	-0.386356
C58	C	1.531637	-0.210887	0.113644
C59	C	1.024129	-0.880549	-0.393961
C60	C	1.524129	-0.380549	0.106039
C61	C	1.067056	-0.921836	-0.351125
C62	C	1.567056	-0.421836	0.148875
C63	C	1.062879	-1.016241	-0.355357
C64	C	1.562879	-0.516241	0.144643
C65	C	1.028305	-0.786135	-0.389730
C66	C	1.528305	-0.286135	0.110270
C67	C	1.237479	-0.401627	-0.372560
C68	C	1.737479	0.098373	0.127440
C69	C	1.319277	-0.401634	-0.372569
C70	C	1.819277	0.098366	0.127431
C71	C	1.045574	-0.401555	-0.564488
C72	C	1.545574	0.098445	-0.064488
C73	C	1.045594	-0.401530	-0.646286
C74	C	1.545594	0.098470	-0.146286
C75	C	1.055360	-0.184158	-0.362855
C76	C	1.555360	0.315842	0.137145
C77	C	1.059551	-0.091492	-0.358729
C78	C	1.559551	0.408508	0.141271
C79	C	1.095094	-0.348162	-0.832110
C80	C	1.595094	0.151838	-0.332110
C81	C	1.095104	-0.348138	-0.908967
C82	C	1.595104	0.151862	-0.408967
C83	C	0.996153	-0.454770	-0.913694
C84	C	1.496153	0.045230	-0.413694
C85	C	0.996140	-0.454790	-0.836837
C86	C	1.496140	0.045210	-0.336837
C87	C	1.045615	-0.401487	-0.796047
C88	C	1.545615	0.098513	-0.296047
C89	C	1.045637	-0.401443	-0.949761
C90	C	1.545637	0.098557	-0.449761
C91	C	1.045648	-0.401417	-1.033094
C92	C	1.545648	0.098583	-0.533094
C93	C	1.045603	-0.401511	-0.712709
C94	C	1.545603	0.098489	-0.212709
C95	C	1.045524	-0.401610	-0.181331
C96	C	1.545524	0.098390	0.318669
C97	C	1.045657	-0.401399	-0.099523
C98	C	1.545657	0.098601	0.400477
H99	H	0.619951	-0.304751	-0.282969
H100	H	1.119951	0.195249	0.217031
H101	H	1.135393	-0.304714	-0.938326
H102	H	1.635393	0.195286	-0.438326
H103	H	0.480509	-0.304769	-0.282986
H104	H	0.980509	0.195231	0.217014
O105	O	1.114575	-0.879298	-0.303594
O106	O	1.614575	-0.379298	0.196406
C107	C	1.162160	-0.745051	-0.256035
C108	C	1.662160	-0.245051	0.243965
C109	C	1.108307	-0.793125	-0.309885
C110	C	1.608307	-0.293125	0.190115
H111	H	1.157122	-0.675371	-0.261113
H112	H	1.657122	-0.175371	0.238887
H113	H	1.148522	-0.762114	-0.197418
H114	H	1.648522	-0.262114	0.302582
H115	H	1.220750	-0.762086	-0.269746
H116	H	1.720750	-0.262086	0.230254
H117	H	1.049699	-0.776115	-0.296241
H118	H	1.549699	-0.276115	0.203759
H119	H	1.122009	-0.776057	-0.368486
H120	H	1.622009	-0.276057	0.131514
O121	O	0.948169	-0.506523	-0.953431
O122	O	1.448169	-0.006523	-0.453431
C123	C	0.904305	-0.553718	-1.073925
C124	C	1.404305	-0.053718	-0.573925
C125	C	0.958697	-0.495077	-1.029016
C126	C	1.458697	0.004923	-0.529016
H127	H	0.912787	-0.544472	-1.135043
H128	H	1.412787	-0.044472	-0.635043
H129	H	0.914188	-0.620966	-1.061862
H130	H	1.414188	-0.120966	-0.561862
H131	H	0.845631	-0.539087	-1.058108
H132	H	1.345631	-0.039087	-0.558108
H133	H	1.017392	-0.509632	-1.044807
H134	H	1.517392	-0.009632	-0.544807
H135	H	0.948750	-0.427847	-1.041083
H136	H	1.448750	0.072153	-0.541083
O137	O	0.976558	-0.923086	-0.441433
O138	O	1.476558	-0.423086	0.058567
C139	C	0.929023	-1.057339	-0.489028
C140	C	1.429023	-0.557339	0.010972
C141	C	0.982919	-1.009257	-0.435226
C142	C	1.482919	-0.509257	0.064774
H143	H	0.934158	-1.127017	-0.484038
H144	H	1.434158	-0.627017	0.015962
H145	H	0.870408	-1.040413	-0.475298
H146	H	1.370408	-0.540413	0.024702
H147	H	0.942640	-1.040172	-0.547622
H148	H	1.442640	-0.540172	-0.047622
H149	H	0.969369	-1.026397	-0.376613
H150	H	1.469369	-0.526397	0.123387
H151	H	1.041518	-1.026186	-0.449018
H152	H	1.541518	-0.526186	0.050982
H153	H	1.135377	-0.304757	-0.798901
H154	H	1.635377	0.195243	-0.298901
H155	H	0.955843	-0.498213	-0.807474
H156	H	1.455843	0.001787	-0.307474
H157	H	0.471857	-0.498478	-0.462126
H158	H	0.971857	0.001522	0.037874
O159	O	0.616838	-0.506885	-0.469939
O160	O	1.116838	-0.006885	0.030061
C161	C	0.603983	-0.612815	-0.567855
C162	C	1.103983	-0.112815	-0.067855
C163	C	0.564376	-0.554092	-0.513511
C164	C	1.064376	-0.054092	-0.013511
H165	H	0.561585	-0.651010	-0.603087
H166	H	1.061585	-0.151010	-0.103087
H167	H	0.641683	-0.574629	-0.604732
H168	H	1.141683	-0.074629	-0.104732
H169	H	0.638010	-0.656325	-0.535935
H170	H	1.138010	-0.156325	-0.035935
H171	H	0.530309	-0.510571	-0.545371
H172	H	1.030309	-0.010571	-0.045371
H173	H	0.526720	-0.592330	-0.476634
H174	H	1.026720	-0.092330	0.023366
