data_functionalizedCrystal
_audit_creation_method	'MofGen! by Chris Wilmer'
_symmetry_space_group_name_H-M	'P1'
_symmetry_Int_Tables_number	1
_symmetry_cell_setting	triclinic
loop_
_symmetry_equiv_pos_as_xyz
  x,y,z
_cell_length_a	19.188931
_cell_length_b	10.654550
_cell_length_c	9.130313
_cell_angle_alpha	90.000110
_cell_angle_beta	90.001306
_cell_angle_gamma	96.185158
loop_
_atom_site_label
_atom_site_type_symbol
_atom_site_fract_x
_atom_site_fract_y
_atom_site_fract_z
O1	O	0.927166	-0.156774	-0.121743
O2	O	0.723993	-0.177880	-0.121757
O3	O	0.830251	0.015511	-0.121744
O4	O	0.820908	-0.350165	-0.121756
O5	O	0.830250	0.015506	0.121855
O6	O	0.723992	-0.177885	0.121842
O7	O	0.927165	-0.156779	0.121856
Cu8	Cu	0.825578	-0.167333	0.144091
Cu9	Cu	0.825580	-0.167326	-0.143992
O10	O	0.820907	-0.350170	0.121843
C11	C	0.697977	-0.177199	0.000041
C12	C	0.620459	-0.175147	0.000035
C13	C	0.953181	-0.157460	0.000055
C14	C	1.030699	-0.159512	0.000051
C15	C	1.074881	-0.046037	0.000042
C16	C	1.147717	-0.047964	0.000050
C17	C	1.176368	-0.163374	0.000039
C18	C	1.132177	-0.276864	0.000056
C19	C	1.059342	-0.274933	0.000062
N20	N	1.284941	-0.251588	-0.082890
N21	N	1.354131	-0.253414	-0.082898
C22	C	1.395815	-0.169198	0.000024
N23	N	1.365696	-0.083066	0.082937
N24	N	1.296500	-0.081236	0.082940
C25	C	1.255345	-0.165480	0.000033
C26	C	1.518975	-0.057804	0.000027
C27	C	1.591813	-0.059737	0.000044
C28	C	1.576271	-0.288640	0.000035
C29	C	1.503435	-0.286704	0.000032
C30	C	1.474792	-0.171283	0.000021
C31	C	0.829564	0.062292	0.000053
C32	C	0.827512	0.201692	0.000048
C33	C	0.821593	-0.396951	0.000042
C34	C	0.823646	-0.536351	0.000038
N35	N	0.825582	-0.167336	0.346714
C36	C	0.890075	0.282501	0.000057
C37	C	0.888142	0.413481	0.000046
C38	C	0.761078	0.382829	0.000025
C39	C	0.763011	0.251852	0.000025
C40	C	0.954575	0.232341	0.000080
C41	C	1.017143	0.313152	0.000091
C42	C	1.015211	0.444132	0.000080
C43	C	0.950710	0.494301	0.000060
N44	N	0.825581	-0.167313	-0.346615
C45	C	0.872645	-0.081731	0.423372
C46	C	0.872643	-0.081716	0.576708
C47	C	0.778513	-0.252922	0.576717
C48	C	0.778512	-0.252930	0.423382
C49	C	0.919715	0.003862	0.346703
C50	C	0.966783	0.089473	0.423361
C51	C	0.966781	0.089488	0.576698
C52	C	0.919712	0.003892	0.653377
H53	H	1.183697	0.044444	0.000038
N54	N	1.083032	0.261933	0.000126
N55	N	1.138887	0.334103	0.000135
H56	H	1.185423	0.297933	0.000161
H57	H	0.708564	0.423688	0.000010
H58	H	1.023369	-0.367341	0.000071
N59	N	0.730450	-0.340374	0.345046
N60	N	0.730458	-0.340366	0.208142
H61	H	0.696513	-0.402123	0.152813
H62	H	0.949141	0.600955	0.000036
H63	H	1.467461	-0.379108	0.000030
N64	N	1.489700	0.060078	0.000047
N65	N	1.424668	0.061787	0.000048
H66	H	1.403993	0.145042	0.000064
H67	H	1.066157	0.509926	0.000074
H68	H	1.155509	-0.370831	0.000051
N69	N	1.636936	0.056194	0.000051
N70	N	1.611348	0.159232	0.000044
H71	H	1.643217	0.241111	0.000050
H72	H	0.956156	0.125693	0.000093
N73	N	1.605526	-0.406531	0.000060
N74	N	1.644433	-0.433145	0.102749
H75	H	1.665097	-0.516410	0.102776
N76	N	1.045638	0.071873	0.000063
N77	N	1.058987	0.148283	0.102748
H78	H	1.038335	0.231560	0.102768
N79	N	0.699108	0.169294	-0.000018
N80	N	0.656361	0.173657	-0.102718
H81	H	0.611228	0.115347	-0.102760
N82	N	0.919727	0.003829	0.190076
N83	N	0.973764	-0.016730	0.121651
H84	H	0.973773	-0.016760	0.011032
H85	H	1.005102	0.159169	0.360921
H86	H	1.005101	0.159203	0.639111
H87	H	0.919709	0.003920	0.778234
H88	H	0.740191	-0.322612	0.639159
