data_functionalizedCrystal
_audit_creation_method	'MofGen! by Chris Wilmer'
_symmetry_space_group_name_H-M	'P1'
_symmetry_Int_Tables_number	1
_symmetry_cell_setting	triclinic
loop_
_symmetry_equiv_pos_as_xyz
  x,y,z
_cell_length_a	10.540539
_cell_length_b	11.026607
_cell_length_c	10.065875
_cell_angle_alpha	100.697662
_cell_angle_beta	98.880198
_cell_angle_gamma	83.444246
loop_
_atom_site_label
_atom_site_type_symbol
_atom_site_fract_x
_atom_site_fract_y
_atom_site_fract_z
O1	O	0.517971	-1.632406	-0.113482
O2	O	1.017971	-1.132406	0.386518
O3	O	0.457324	-1.278575	-0.113485
O4	O	0.957324	-0.778575	0.386515
O5	O	0.304709	-1.463562	-0.113482
O6	O	0.804709	-0.963562	0.386518
O7	O	0.670585	-1.447418	-0.113485
O8	O	1.170585	-0.947418	0.386515
O9	O	0.333960	-1.428289	0.113506
O10	O	0.833960	-0.928289	0.613506
O11	O	0.486575	-1.243301	0.113503
O12	O	0.986575	-0.743301	0.613503
O13	O	0.547222	-1.597132	0.113506
O14	O	1.047222	-1.097132	0.613506
Zn15	Zn	0.521543	-1.414616	0.149544
Zn16	Zn	1.021543	-0.914616	0.649544
Zn17	Zn	0.483003	-1.461091	-0.149523
Zn18	Zn	0.983003	-0.961091	0.350477
O19	O	0.699836	-1.412145	0.113503
O20	O	1.199836	-0.912145	0.613503
C21	C	0.460761	-1.215630	0.000009
C22	C	0.960761	-0.715630	0.500009
C23	C	0.427408	-1.080627	0.000007
C24	C	0.927408	-0.580627	0.500007
C25	C	0.271766	-1.444715	0.000010
C26	C	0.771766	-0.944715	0.500010
C27	C	0.130024	-1.441094	0.000002
C28	C	0.630024	-0.941094	0.500002
C29	C	0.543784	-1.660077	0.000010
C30	C	1.043784	-1.160077	0.500010
C31	C	0.577136	-1.795082	0.000002
C32	C	1.077136	-1.295082	0.500002
C33	C	-0.083873	-1.302369	-0.000508
C34	C	0.416127	-0.802369	0.499492
C35	C	0.063616	-1.305961	0.000003
C36	C	0.563616	-0.805961	0.500003
C37	C	0.099314	-1.485983	0.129624
C38	C	0.599314	-0.985983	0.629624
C39	C	-0.048226	-1.481354	0.129734
C40	C	0.451774	-0.981354	0.629734
C41	C	-0.081406	-1.524215	-0.128394
C42	C	0.418594	-1.024215	0.371606
C43	C	0.065627	-1.525726	-0.130108
C44	C	0.565627	-1.025726	0.369892
C45	C	0.732779	-1.430992	0.000008
C46	C	1.232779	-0.930992	0.500008
C47	C	0.874520	-1.434615	0.000007
C48	C	1.374520	-0.934615	0.500007
N49	N	0.547846	-1.382908	0.353649
N50	N	1.047846	-0.882908	0.853649
C51	C	0.519500	-1.007620	0.000005
C52	C	1.019500	-0.507620	0.500005
C53	C	0.485031	-0.868087	0.000004
C54	C	0.985031	-0.368087	0.500004
N55	N	0.456692	-1.492809	-0.353628
N56	N	0.956692	-0.992809	0.146372
C57	C	0.492145	-1.450050	0.421429
C58	C	0.992145	-0.950050	0.921429
C59	C	0.512401	-1.425656	0.578596
C60	C	1.012401	-0.925656	1.078596
H61	H	-0.136144	-1.263433	-0.093462
H62	H	0.363856	-0.763433	0.406538
O63	O	0.715390	-0.849100	0.000020
O64	O	1.215390	-0.349100	0.500020
H65	H	0.777606	-0.774391	0.000034
H66	H	1.277606	-0.274391	0.500034
O67	O	0.289161	-1.026608	0.000009
O68	O	0.789161	-0.526608	0.500009
H69	H	0.283781	-0.925491	-0.000001
H70	H	0.783781	-0.425491	0.499999
H71	H	0.083037	-1.269230	-0.092915
H72	H	0.583037	-0.769230	0.407085
H73	H	0.429456	-1.525590	0.363106
H74	H	0.929456	-1.025590	0.863106
H75	H	0.623863	-1.048415	0.000012
H76	H	1.123863	-0.548415	0.500012
H77	H	0.610524	-1.307360	0.411974
H78	H	1.110524	-0.807360	0.911974
O79	O	0.346778	-0.814073	0.000014
O80	O	0.846778	-0.314073	0.500014
H81	H	0.315259	-0.771294	-0.092506
H82	H	0.815259	-0.271294	0.407494
H83	H	0.575083	-1.350104	0.636915
H84	H	1.075083	-0.850104	1.136915
O85	O	0.373640	-1.592874	0.569137
O86	O	0.873640	-1.092874	1.069137
H87	H	0.432213	-1.662650	0.504023
H88	H	0.932213	-1.162650	1.004023
H89	H	-0.135199	-1.495746	-0.226639
H90	H	0.364801	-0.995746	0.273361
O91	O	-0.123504	-1.212913	0.121936
O92	O	0.376496	-0.712913	0.621936
H93	H	-0.172705	-1.262232	0.183160
H94	H	0.327295	-0.762232	0.683160
O95	O	0.119886	-1.218574	0.123301
O96	O	0.619886	-0.718574	0.623301
H97	H	0.041740	-1.173588	0.182802
H98	H	0.541740	-0.673588	0.682802
H99	H	-0.074149	-1.577626	0.135615
H100	H	0.425851	-1.077626	0.635615
O101	O	-0.083006	-1.397744	0.258071
O102	O	0.416994	-0.897744	0.758071
H103	H	-0.054940	-1.303301	0.260334
H104	H	0.445060	-0.803301	0.760334
O105	O	0.158549	-1.616435	0.136038
O106	O	0.658549	-1.116435	0.636038
H107	H	0.210634	-1.650740	0.046695
H108	H	0.710634	-1.150740	0.546695
H109	H	0.144449	-1.425819	0.226084
H110	H	0.644449	-0.925819	0.726084
H111	H	0.110420	-1.625464	-0.137935
H112	H	0.610420	-1.125464	0.362065
O113	O	0.089695	-1.482538	-0.257141
O114	O	0.589695	-0.982538	0.242859
H115	H	0.147287	-1.401141	-0.227751
H116	H	0.647287	-0.901141	0.272249
H117	H	-0.107365	-1.621956	-0.129265
H118	H	0.392635	-1.121956	0.370735
