data_functionalizedCrystal
_audit_creation_method	'MofGen! by Chris Wilmer'
_symmetry_space_group_name_H-M	'P1'
_symmetry_Int_Tables_number	1
_symmetry_cell_setting	triclinic
loop_
_symmetry_equiv_pos_as_xyz
  x,y,z
_cell_length_a	19.077105
_cell_length_b	13.032721
_cell_length_c	19.076919
_cell_angle_alpha	99.138159
_cell_angle_beta	90.076224
_cell_angle_gamma	95.201395
loop_
_atom_site_label
_atom_site_type_symbol
_atom_site_fract_x
_atom_site_fract_y
_atom_site_fract_z
Zn1	Zn	1.013397	-0.505360	-0.481832
Zn2	Zn	1.346731	-0.172026	-0.148499
Zn3	Zn	1.680064	0.161307	0.184834
Zn4	Zn	1.003124	-0.673317	-0.378090
Zn5	Zn	1.336457	-0.339984	-0.044756
Zn6	Zn	1.669790	-0.006651	0.288577
Zn7	Zn	0.901858	-0.491366	-0.358479
Zn8	Zn	1.235191	-0.158033	-0.025145
Zn9	Zn	1.568524	0.175301	0.308188
Zn10	Zn	0.881001	-0.672687	-0.490791
Zn11	Zn	1.214335	-0.339354	-0.157457
Zn12	Zn	1.547668	-0.006021	0.175876
O13	O	0.949845	-0.585683	-0.427298
O14	O	1.283178	-0.252349	-0.093964
O15	O	1.616512	0.080984	0.239369
O16	O	1.109823	-0.533760	-0.472529
O17	O	1.443156	-0.200426	-0.139195
O18	O	1.776490	0.132907	0.194138
O19	O	0.994119	-0.643588	-0.276699
O20	O	1.327453	-0.310255	0.056635
O21	O	1.660786	0.023078	0.389968
O22	O	0.929682	-0.347048	-0.362886
O23	O	1.263015	-0.013714	-0.029552
O24	O	1.596349	0.319619	0.303781
O25	O	1.102275	-0.657157	-0.396309
O26	O	1.435608	-0.323824	-0.062976
O27	O	1.768942	0.009509	0.270357
O28	O	1.011630	-0.357329	-0.453513
O29	O	1.344963	-0.023995	-0.120179
O30	O	1.678296	0.309338	0.213154
O31	O	0.919720	-0.509909	-0.262291
O32	O	1.253053	-0.176576	0.071043
O33	O	1.586386	0.156757	0.404376
O34	O	0.801303	-0.509299	-0.371572
O35	O	1.134636	-0.175965	-0.038239
O36	O	1.467969	0.157368	0.295095
O37	O	0.894135	-0.656084	-0.588392
O38	O	1.227468	-0.322750	-0.255059
O39	O	1.560802	0.010583	0.078275
O40	O	0.785980	-0.642515	-0.468781
O41	O	1.119313	-0.309181	-0.135448
O42	O	1.452646	0.024152	0.197886
O43	O	0.991406	-0.533149	-0.581810
O44	O	1.324739	-0.199815	-0.248477
O45	O	1.658073	0.133518	0.084856
O46	O	0.973896	-0.819408	-0.404996
O47	O	1.307229	-0.486075	-0.071663
O48	O	1.640562	-0.152742	0.261671
O49	O	0.884173	-0.818945	-0.487797
O50	O	1.217506	-0.485612	-0.154464
O51	O	1.550840	-0.152279	0.178870
C52	C	0.768286	-0.574321	-0.419021
C53	C	1.101619	-0.240987	-0.085688
C54	C	1.434952	0.092346	0.247645
C55	C	0.690611	-0.569486	-0.415499
C56	C	1.023944	-0.236153	-0.082166
C57	C	1.357277	0.097181	0.251167
C58	C	0.925675	-0.857080	-0.449513
C59	C	1.259008	-0.523747	-0.116179
C60	C	1.592341	-0.190414	0.217154
C61	C	0.915397	-0.973191	-0.459043
C62	C	1.248731	-0.639857	-0.125710
C63	C	1.582064	-0.306524	0.207624
C64	C	0.646154	-0.636670	-0.464393
C65	C	0.979487	-0.303336	-0.131060
C66	C	1.312820	0.029997	0.202273
C67	C	0.573171	-0.632114	-0.461086
C68	C	0.906504	-0.298780	-0.127753
C69	C	1.239838	0.034553	0.205580
C70	C	0.544646	-0.560378	-0.408881
C71	C	0.877980	-0.227045	-0.075548
C72	C	1.211313	0.106289	0.257785
C73	C	0.589109	-0.493187	-0.359985
C74	C	0.922443	-0.159854	-0.026652
C75	C	1.255776	0.173480	0.306682
C76	C	0.662091	-0.497739	-0.363296
C77	C	0.995424	-0.164405	-0.029962
C78	C	1.328758	0.168928	0.303371
C79	C	0.327230	-0.539312	-0.393562
C80	C	0.660563	-0.205978	-0.060229
C81	C	0.993896	0.127355	0.273104
C82	C	0.254242	-0.534767	-0.390254
C83	C	0.587576	-0.201434	-0.056921
C84	C	0.920909	0.131900	0.276413
C85	C	0.238309	-0.673693	-0.491357
C86	C	0.571642	-0.340359	-0.158023
C87	C	0.904976	-0.007026	0.175310
C88	C	0.311292	-0.678243	-0.494660
C89	C	0.644626	-0.344909	-0.161327
C90	C	0.977959	-0.011576	0.172007
C91	C	0.355749	-0.611048	-0.445766
C92	C	0.689082	-0.277715	-0.112433
C93	C	1.022416	0.055619	0.220901
N94	N	0.470046	-0.555721	-0.405499
N95	N	0.803380	-0.222388	-0.072165
N96	N	1.136713	0.110945	0.261168
N97	N	0.430348	-0.615700	-0.449153
N98	N	0.763681	-0.282367	-0.115819
N99	N	1.097015	0.050966	0.217514
C100	C	0.955245	-1.025155	-0.422357
C101	C	1.288578	-0.691822	-0.089024
C102	C	1.621911	-0.358488	0.244309
C103	C	0.944623	-1.145161	-0.432206
C104	C	1.277957	-0.811828	-0.098873
C105	C	1.611290	-0.478495	0.234460
C106	C	1.132113	-0.597090	-0.435607
C107	C	1.465447	-0.263756	-0.102274
C108	C	1.798780	0.069577	0.231059
C109	C	1.209785	-0.601951	-0.439148
C110	C	1.543118	-0.268617	-0.105815
C111	C	1.876452	0.064716	0.227518
C112	C	0.941590	-0.596107	-0.611432
C113	C	1.274923	-0.262774	-0.278099
C114	C	1.608257	0.070560	0.055234
C115	C	0.938072	-0.600549	-0.689899
C116	C	1.271406	-0.267216	-0.356566
C117	C	1.604739	0.066118	-0.023233
C118	C	0.974128	-0.313227	-0.405012
C119	C	1.307462	0.020106	-0.071679
C120	C	1.640795	0.353440	0.261654
C121	C	0.984476	-0.197123	-0.395516
C122	C	1.317810	0.136211	-0.062182
C123	C	1.651143	0.469544	0.271151
C124	C	0.987061	-0.538633	-0.723338
C125	C	1.320394	-0.205300	-0.390005
C126	C	1.653727	0.128033	-0.056671
C127	C	0.983747	-0.542803	-0.797065
C128	C	1.317080	-0.209469	-0.463732
C129	C	1.650414	0.123864	-0.130399
C130	C	0.931448	-0.608894	-0.837354
C131	C	1.264781	-0.275561	-0.504020
C132	C	1.598114	0.057773	-0.170687
C133	C	0.882454	-0.670812	-0.803910
C134	C	1.215788	-0.337479	-0.470577
C135	C	1.549121	-0.004146	-0.137243
C136	C	0.885765	-0.666637	-0.730183
C137	C	1.219099	-0.333303	-0.396850
C138	C	1.552432	0.000030	-0.063517
C139	C	0.916112	-0.628240	-1.058220
C140	C	1.249445	-0.294907	-0.724887
C141	C	1.582778	0.038426	-0.391554
C142	C	0.912806	-0.632414	-1.131952
C143	C	1.246139	-0.299080	-0.798619
C144	C	1.579472	0.034253	-0.465285
C145	C	1.014098	-0.504402	-1.125102
C146	C	1.347432	-0.171069	-0.791769
C147	C	1.680765	0.162265	-0.458436
C148	C	1.017407	-0.500237	-1.051375
C149	C	1.350741	-0.166904	-0.718042
C150	C	1.684074	0.166430	-0.384708
C151	C	0.968412	-0.562151	-1.017937
C152	C	1.301745	-0.228818	-0.684604
C153	C	1.635078	0.104516	-0.351271
N154	N	0.928061	-0.613160	-0.912715
N155	N	1.261394	-0.279827	-0.579382
N156	N	1.594727	0.053507	-0.246049
N157	N	0.971796	-0.557879	-0.942576
N158	N	1.305129	-0.224546	-0.609243
N159	N	1.638463	0.108788	-0.275910
C160	C	0.958115	-0.575226	-0.243875
C161	C	1.291448	-0.241893	0.089458
C162	C	1.624782	0.091441	0.422791
C163	C	0.961794	-0.570498	-0.165391
C164	C	1.295128	-0.237165	0.167943
C165	C	1.628461	0.096169	0.501276
H166	H	0.669372	-0.695088	-0.506902
H167	H	1.002705	-0.361755	-0.173569
H168	H	1.336039	-0.028422	0.159765
Cl169	Cl	0.218384	-0.444585	-0.324616
Cl170	Cl	0.551717	-0.111252	0.008718
Cl171	Cl	0.885051	0.222081	0.342051
H172	H	0.202105	-0.728397	-0.531164
H173	H	0.535438	-0.395064	-0.197831
H174	H	0.868771	-0.061731	0.135502
Cl175	Cl	0.347146	-0.768431	-0.560290
Cl176	Cl	0.680479	-0.435098	-0.226957
Cl177	Cl	1.013813	-0.101764	0.106377
Cl178	Cl	0.383109	-0.454835	-0.332097
Cl179	Cl	0.716442	-0.121501	0.001237
Cl180	Cl	1.049776	0.211832	0.334570
Cl181	Cl	0.553250	-0.402998	-0.294360
Cl182	Cl	0.886584	-0.069664	0.038974
Cl183	Cl	1.219917	0.263669	0.372307
Cl184	Cl	1.075686	-0.426568	-1.167142
Cl185	Cl	1.409020	-0.093235	-0.833809
Cl186	Cl	1.742353	0.240098	-0.500476
Cl187	Cl	0.717981	-0.413273	-0.301828
Cl188	Cl	1.051314	-0.079940	0.031506
Cl189	Cl	1.384647	0.253394	0.364839
H190	H	0.997225	-0.980802	-0.383660
H191	H	1.330559	-0.647469	-0.050327
H192	H	1.663892	-0.314136	0.283006
Cl193	Cl	0.879811	-1.213630	-0.491964
Cl194	Cl	1.213145	-0.880297	-0.158631
Cl195	Cl	1.546478	-0.546964	0.174702
Cl196	Cl	0.850588	-1.041664	-0.518798
Cl197	Cl	1.183921	-0.708330	-0.185465
Cl198	Cl	1.517255	-0.374997	0.147869
Cl199	Cl	0.517285	-0.716578	-0.522556
Cl200	Cl	0.850618	-0.383244	-0.189223
Cl201	Cl	1.183951	-0.049911	0.144110
H202	H	0.845867	-0.717044	-0.702958
H203	H	1.179201	-0.383711	-0.369624
H204	H	1.512534	-0.050377	-0.036291
H205	H	1.029650	-0.484818	-0.690541
H206	H	1.362984	-0.151484	-0.357207
H207	H	1.696317	0.181849	-0.023874
H208	H	1.026460	-1.152773	-0.356816
H209	H	1.359793	-0.819439	-0.023483
H210	H	1.693126	-0.486106	0.309850
Cl211	Cl	1.045363	-0.465010	-0.839104
Cl212	Cl	1.378696	-0.131676	-0.505771
Cl213	Cl	1.712029	0.201657	-0.172438
H214	H	1.059997	-0.446421	-1.018577
H215	H	1.393330	-0.113088	-0.685244
H216	H	1.726663	0.220245	-0.351911
Cl217	Cl	0.847050	-0.715500	-1.182599
Cl218	Cl	1.180383	-0.382167	-0.849266
Cl219	Cl	1.513716	-0.048834	-0.515932
H220	H	0.876225	-0.678671	-1.031006
H221	H	1.209558	-0.345338	-0.697673
H222	H	1.542892	-0.012005	-0.364339
H223	H	0.839869	-0.724621	-0.836718
H224	H	1.173202	-0.391288	-0.503385
H225	H	1.506535	-0.057955	-0.170051
