data_functionalizedCrystal
_audit_creation_method	'MofGen! by Chris Wilmer'
_symmetry_space_group_name_H-M	'P1'
_symmetry_Int_Tables_number	1
_symmetry_cell_setting	triclinic
loop_
_symmetry_equiv_pos_as_xyz
  x,y,z
_cell_length_a	21.395362
_cell_length_b	12.759394
_cell_length_c	21.395355
_cell_angle_alpha	89.985423
_cell_angle_beta	89.956060
_cell_angle_gamma	90.030716
loop_
_atom_site_label
_atom_site_type_symbol
_atom_site_fract_x
_atom_site_fract_y
_atom_site_fract_z
Zn1	Zn	0.957929	-0.417943	-0.354603
Zn2	Zn	0.957860	-0.593608	-0.249833
Zn3	Zn	0.853143	-0.417992	-0.249804
Zn4	Zn	0.853142	-0.593629	-0.354537
O5	O	0.905518	-0.505793	-0.302194
O6	O	1.045597	-0.441216	-0.340744
O7	O	0.943941	-0.570323	-0.162151
O8	O	0.867073	-0.270964	-0.263721
O9	O	1.045547	-0.570276	-0.263770
O10	O	0.944058	-0.270928	-0.340717
O11	O	0.867006	-0.441299	-0.162130
O12	O	0.765465	-0.441320	-0.263658
O13	O	0.867070	-0.570313	-0.442224
O14	O	0.765464	-0.570360	-0.340605
O15	O	0.944056	-0.441237	-0.442272
O16	O	0.943940	-0.740632	-0.263706
O17	O	0.867003	-0.740647	-0.340632
C18	C	0.742731	-0.505848	-0.302121
C19	C	0.673089	-0.505897	-0.302105
C20	C	0.640392	-0.573178	-0.342112
C21	C	0.574957	-0.573152	-0.342139
C22	C	0.542221	-0.505857	-0.302150
C23	C	0.574927	-0.438564	-0.262141
C24	C	0.640361	-0.438584	-0.262118
C25	C	0.438495	-0.497393	-0.245744
C26	C	0.373062	-0.497380	-0.245766
C27	C	0.340401	-0.505788	-0.302219
C28	C	0.373180	-0.514231	-0.358653
C29	C	0.438614	-0.514252	-0.358631
C30	C	0.471269	-0.505827	-0.302170
C31	C	0.236751	-0.573044	-0.342259
C32	C	0.171314	-0.573011	-0.342288
C33	C	0.171285	-0.438429	-0.262284
C34	C	0.236720	-0.438456	-0.262260
C35	C	0.269449	-0.505770	-0.302247
C36	C	0.905481	-0.778760	-0.302179
C37	C	0.905522	-0.895537	-0.302193
C38	C	0.985696	-0.895467	-0.222150
C39	C	1.025799	-0.950293	-0.182136
C40	C	1.025836	-1.060015	-0.182153
C41	C	0.985766	-1.114913	-0.222190
C42	C	0.945663	-1.060087	-0.262204
C43	C	0.945629	-0.950363	-0.262182
C44	C	0.865493	-1.060157	-0.342250
C45	C	0.865453	-0.950435	-0.342230
C46	C	0.825424	-1.115055	-0.382286
C47	C	0.785317	-1.060229	-0.422298
C48	C	0.785281	-0.950501	-0.422279
C49	C	0.825349	-0.895609	-0.382244
C50	C	1.068942	-0.505738	-0.302267
C51	C	1.138583	-0.505714	-0.302299
C52	C	0.905570	-0.505772	-0.465618
C53	C	0.905593	-0.505762	-0.535259
C54	C	0.905573	-0.231759	-0.302223
C55	C	0.905597	-0.114983	-0.302235
C56	C	0.945678	-0.438550	-0.567998
C57	C	0.945677	-0.438505	-0.633433
C58	C	0.905597	-0.505691	-0.666127
C59	C	0.865505	-0.572908	-0.633380
C60	C	0.865502	-0.572944	-0.567946
C61	C	0.900637	-0.600292	-0.769795
C62	C	0.900644	-0.600258	-0.835228
C63	C	0.905601	-0.505580	-0.867948
C64	C	0.910565	-0.410933	-0.835227
C65	C	0.910563	-0.410968	-0.769793
C66	C	0.905595	-0.505659	-0.737080
C67	C	0.945688	-0.438313	-0.971640
C68	C	0.945682	-0.438266	-1.037076
C69	C	0.865513	-0.572679	-1.037022
C70	C	0.865515	-0.572716	-0.971586
C71	C	0.905606	-0.505535	-0.938899
C72	C	0.905503	-0.505738	-0.139407
C73	C	0.905602	-0.505451	-0.069766
H74	H	0.548269	-0.383770	-0.229582
H75	H	0.346588	-0.521076	-0.404623
H76	H	0.896606	-0.677326	-0.861864
H77	H	0.978324	-0.383527	-1.063732
H78	H	0.914603	-0.333904	-0.743154
C79	C	0.741248	-1.120612	-0.466336
H80	H	0.717359	-1.072248	-0.490166
H81	H	0.713975	-1.163495	-0.442347
H82	H	0.765227	-1.163336	-0.493674
H83	H	0.825320	-0.806268	-0.382221
H84	H	0.985805	-1.204254	-0.222206
C85	C	0.741169	-0.890201	-0.466297
H86	H	0.717311	-0.938614	-0.490139
H87	H	0.765111	-0.847328	-0.493616
H88	H	0.713859	-0.847473	-0.442289
H89	H	0.914603	-0.333837	-0.861866
C90	C	0.538979	-0.647165	-0.386144
H91	H	0.495321	-0.637506	-0.380432
H92	H	0.549662	-0.717734	-0.376896
H93	H	0.549753	-0.631897	-0.428258
C94	C	0.474420	-0.488144	-0.183643
H95	H	0.518084	-0.489355	-0.191712
H96	H	0.463642	-0.545228	-0.157233
H97	H	0.463701	-0.424125	-0.163679
H98	H	0.978328	-0.383603	-0.945025
H99	H	1.058494	-1.104654	-0.149573
C100	C	1.069872	-0.889904	-0.138099
H101	H	1.064104	-0.816705	-0.143814
H102	H	1.111971	-0.907802	-0.147319
H103	H	1.060720	-0.907942	-0.095992
H104	H	0.825459	-1.204396	-0.382300
C105	C	0.676329	-0.364579	-0.218106
H106	H	0.647464	-0.324498	-0.194291
H107	H	0.701905	-0.318873	-0.242111
H108	H	0.701804	-0.404718	-0.190753
C109	C	0.474672	-0.523534	-0.420700
H110	H	0.518319	-0.522350	-0.412599
H111	H	0.464005	-0.466447	-0.447121
H112	H	0.463944	-0.587549	-0.440670
H113	H	0.978322	-0.383844	-0.541388
H114	H	0.985662	-0.806126	-0.222124
C115	C	0.821431	-0.646589	-1.072977
H116	H	0.827176	-0.636949	-1.116637
H117	H	0.779335	-0.631243	-1.062223
H118	H	0.830595	-0.717184	-1.062261
C119	C	0.989777	-0.364576	-0.669454
H120	H	1.013656	-0.324577	-0.640615
H121	H	0.965825	-0.318791	-0.694964
H122	H	1.017068	-0.404762	-0.694998
H123	H	0.263400	-0.627850	-0.374822
H124	H	0.896433	-0.677371	-0.743160
C125	C	0.821426	-0.646659	-0.935572
H126	H	0.797558	-0.686673	-0.964413
H127	H	0.794134	-0.606493	-0.910023
H128	H	0.845387	-0.692446	-0.910066
C129	C	0.337008	-0.488168	-0.183690
H130	H	0.293360	-0.489395	-0.191786
H131	H	0.347719	-0.424177	-0.163692
H132	H	0.347696	-0.545287	-0.157296
C133	C	0.135347	-0.647038	-0.386288
H134	H	0.164213	-0.687138	-0.410091
H135	H	0.109865	-0.606927	-0.413644
H136	H	0.109779	-0.692741	-0.362268
C137	C	0.821421	-0.646816	-0.669340
H138	H	0.827169	-0.637177	-0.713000
H139	H	0.779326	-0.631464	-0.658588
H140	H	0.830582	-0.717412	-0.658624
C141	C	0.821410	-0.646884	-0.531928
H142	H	0.827148	-0.637279	-0.488276
H143	H	0.830563	-0.717465	-0.542663
H144	H	0.779314	-0.631506	-0.542618
C145	C	0.676393	-0.647238	-0.386082
H146	H	0.720047	-0.637630	-0.380332
H147	H	0.665730	-0.631994	-0.428204
H148	H	0.665620	-0.717796	-0.376821
C149	C	0.135287	-0.364400	-0.218297
H150	H	0.164135	-0.324329	-0.194468
H151	H	0.109711	-0.404509	-0.190964
H152	H	0.109811	-0.318670	-0.242326
C153	C	0.272689	-0.364460	-0.218245
H154	H	0.243823	-0.324384	-0.194428
H155	H	0.298264	-0.318750	-0.242248
H156	H	0.298165	-0.404602	-0.190893
