data_functionalizedCrystal
_audit_creation_method	'MofGen! by Chris Wilmer'
_symmetry_space_group_name_H-M	'P1'
_symmetry_Int_Tables_number	1
_symmetry_cell_setting	triclinic
loop_
_symmetry_equiv_pos_as_xyz
  x,y,z
_cell_length_a	9.065215
_cell_length_b	13.596369
_cell_length_c	14.519709
_cell_angle_alpha	90.006934
_cell_angle_beta	84.347421
_cell_angle_gamma	90.004765
loop_
_atom_site_label
_atom_site_type_symbol
_atom_site_fract_x
_atom_site_fract_y
_atom_site_fract_z
O1	O	1.957871	0.081783	0.135215
O2	O	2.207871	0.331783	0.385215
O3	O	2.457871	0.581783	0.635215
O4	O	2.707871	0.831783	0.885215
O5	O	1.528378	0.081787	0.146310
O6	O	1.778378	0.331787	0.396310
O7	O	2.028378	0.581787	0.646310
O8	O	2.278378	0.831787	0.896310
O9	O	1.754512	0.081776	0.006608
O10	O	2.004512	0.331776	0.256608
O11	O	2.254512	0.581776	0.506608
O12	O	2.504512	0.831776	0.756608
O13	O	1.731737	0.081794	0.274918
O14	O	1.981737	0.331794	0.524918
O15	O	2.231737	0.581794	0.774918
O16	O	2.481737	0.831794	1.024918
O17	O	1.754490	-0.081807	0.006600
O18	O	2.004490	0.168193	0.256600
O19	O	2.254490	0.418193	0.506600
O20	O	2.504490	0.668193	0.756600
O21	O	1.528356	-0.081796	0.146302
O22	O	1.778356	0.168204	0.396302
O23	O	2.028356	0.418204	0.646302
O24	O	2.278356	0.668204	0.896302
O25	O	1.957849	-0.081800	0.135208
O26	O	2.207849	0.168200	0.385208
O27	O	2.457849	0.418200	0.635208
O28	O	2.707849	0.668200	0.885208
Zn29	Zn	1.743099	-0.107770	0.140754
Zn30	Zn	1.993099	0.142230	0.390754
Zn31	Zn	2.243099	0.392230	0.640754
Zn32	Zn	2.493099	0.642230	0.890754
Zn33	Zn	1.743128	0.107757	0.140764
Zn34	Zn	1.993128	0.357757	0.390764
Zn35	Zn	2.243128	0.607757	0.640764
Zn36	Zn	2.493128	0.857757	0.890764
O37	O	1.731715	-0.081789	0.274910
O38	O	1.981715	0.168211	0.524910
O39	O	2.231715	0.418211	0.774910
O40	O	2.481715	0.668211	1.024910
C41	C	1.473400	-0.000004	0.145241
C42	C	1.723400	0.249996	0.395241
C43	C	1.973400	0.499996	0.645241
C44	C	2.223400	0.749996	0.895241
C45	C	1.309617	-0.000002	0.142054
C46	C	1.559617	0.249998	0.392054
C47	C	1.809617	0.499998	0.642054
C48	C	2.059617	0.749998	0.892054
N49	N	1.743089	-0.254862	0.140746
N50	N	1.993089	-0.004862	0.390746
N51	N	2.243089	0.245138	0.640746
N52	N	2.493089	0.495138	0.890746
C53	C	1.743126	-0.656153	0.140765
C54	C	1.993126	-0.406153	0.390765
C55	C	2.243126	-0.156153	0.640765
C56	C	2.493126	0.093847	0.890765
C57	C	1.743112	-0.544502	0.140763
C58	C	1.993112	-0.294502	0.390763
C59	C	2.243112	-0.044502	0.640763
C60	C	2.493112	0.205498	0.890763
C61	C	1.743108	-0.455511	0.140756
C62	C	1.993108	-0.205511	0.390756
C63	C	2.243108	0.044489	0.640756
C64	C	2.493108	0.294489	0.890756
C65	C	1.743092	-0.343853	0.140753
C66	C	1.993092	-0.093853	0.390753
C67	C	2.243092	0.156147	0.640753
C68	C	2.493092	0.406147	0.890753
C69	C	2.012827	-0.000007	0.136277
C70	C	2.262827	0.249993	0.386277
C71	C	2.512827	0.499993	0.636277
C72	C	2.762827	0.749993	0.886277
C73	C	2.176610	-0.000002	0.139464
C74	C	2.426610	0.249998	0.389464
C75	C	2.676610	0.499998	0.639464
C76	C	2.926610	0.749998	0.889464
C77	C	1.753439	-0.000016	-0.027764
C78	C	2.003439	0.249984	0.222236
C79	C	2.253439	0.499984	0.472236
C80	C	2.503439	0.749984	0.722236
C81	C	1.750259	-0.000016	-0.130168
C82	C	2.000259	0.249984	0.119832
C83	C	2.250259	0.499984	0.369832
C84	C	2.500259	0.749984	0.619832
N85	N	1.743150	0.254849	0.140764
N86	N	1.993150	0.504849	0.390764
N87	N	2.243150	0.754849	0.640764
N88	N	2.493150	1.004849	0.890764
C89	C	1.738550	0.000009	-0.505150
C90	C	1.988550	0.250009	-0.255150
C91	C	2.238550	0.500009	-0.005150
C92	C	2.488550	0.750009	0.244850
C93	C	1.741801	0.000002	-0.400818
C94	C	1.991801	0.250002	-0.150818
C95	C	2.241801	0.500002	0.099182
C96	C	2.491801	0.750002	0.349182
C97	C	1.744404	-0.000004	-0.317662
C98	C	1.994404	0.249996	-0.067662
C99	C	2.244404	0.499996	0.182338
C100	C	2.494404	0.749996	0.432338
C101	C	1.747656	-0.000010	-0.213324
C102	C	1.997656	0.249990	0.036676
C103	C	2.247656	0.499990	0.286676
C104	C	2.497656	0.749990	0.536676
C105	C	1.732788	0.000005	0.309282
C106	C	1.982788	0.250005	0.559282
C107	C	2.232788	0.500005	0.809282
C108	C	2.482788	0.750005	1.059282
C109	C	1.735968	0.000012	0.411686
C110	C	1.985968	0.250012	0.661686
C111	C	2.235968	0.500012	0.911686
C112	C	2.485968	0.750012	1.161686
