data_functionalizedCrystal
_audit_creation_method	'MofGen! by Chris Wilmer'
_symmetry_space_group_name_H-M	'P1'
_symmetry_Int_Tables_number	1
_symmetry_cell_setting	triclinic
loop_
_symmetry_equiv_pos_as_xyz
  x,y,z
_cell_length_a	16.120490
_cell_length_b	16.120531
_cell_length_c	12.759387
_cell_angle_alpha	87.139919
_cell_angle_beta	87.081216
_cell_angle_gamma	89.829344
loop_
_atom_site_label
_atom_site_type_symbol
_atom_site_fract_x
_atom_site_fract_y
_atom_site_fract_z
Zn1	Zn	1.254461	0.395621	-0.699300
Zn2	Zn	1.247280	0.534692	-0.532020
Zn3	Zn	1.115393	0.388594	-0.514310
Zn4	Zn	1.108298	0.527565	-0.698331
O5	O	1.181358	0.461618	-0.610990
O6	O	1.369874	0.419992	-0.684927
O7	O	1.229749	0.515354	-0.382650
O8	O	1.139815	0.273165	-0.531843
O9	O	1.364598	0.522167	-0.562027
O10	O	1.241988	0.278327	-0.667754
O11	O	1.132852	0.408016	-0.369638
O12	O	0.998086	0.401106	-0.530904
O13	O	1.127723	0.510020	-0.845481
O14	O	0.992874	0.503207	-0.666103
O15	O	1.235108	0.413081	-0.846192
O16	O	1.222869	0.650108	-0.561088
O17	O	1.120759	0.644872	-0.683276
C18	C	0.965308	0.450621	-0.596477
C19	C	0.872879	0.445937	-0.590295
C20	C	0.659907	0.485911	-0.643062
C21	C	0.703656	0.437392	-0.579006
C22	C	0.797821	0.442148	-0.585289
C23	C	0.565734	0.481156	-0.636780
C24	C	1.170288	0.677662	-0.624023
C25	C	1.165628	0.770091	-0.629639
C26	C	1.157125	0.939320	-0.639914
C27	C	1.205622	0.983077	-0.582009
C28	C	1.200891	1.077242	-0.587726
C29	C	1.161855	0.845147	-0.634198
C30	C	1.398252	0.472658	-0.625560
C31	C	1.490679	0.477363	-0.631769
C32	C	1.181425	0.461540	-0.885023
C33	C	1.181454	0.461506	-1.001800
C34	C	1.192465	1.244729	-0.597910
C35	C	1.197122	1.152301	-0.592281
C36	C	1.293281	0.360571	-1.002561
C37	C	1.349207	0.310092	-1.057803
C38	C	1.349229	0.310062	-1.167524
C39	C	1.293317	0.360516	-1.222006
C40	C	1.237391	0.410996	-1.166764
C41	C	1.237377	0.411021	-1.057041
C42	C	1.125561	0.511925	-1.166002
C43	C	1.125542	0.511960	-1.056281
C44	C	1.069649	0.562379	-1.220484
C45	C	1.013725	0.612864	-1.165243
C46	C	1.013706	0.612892	-1.055515
C47	C	1.069615	0.562439	-1.001040
C48	C	1.181342	0.461638	-0.338023
C49	C	1.181487	0.461446	-0.221244
H50	H	0.693170	0.531018	-0.702615
H51	H	0.670392	0.392281	-0.519447
H52	H	1.293276	0.360598	-0.913221
H53	H	1.250694	0.949819	-0.528141
H54	H	1.394728	0.269012	-1.013431
H55	H	1.112055	0.972576	-0.693776
H56	H	1.069667	0.562348	-1.309824
H57	H	1.394764	0.268952	-1.212501
H58	H	1.293333	0.360480	-1.311346
H59	H	0.968202	0.653935	-1.209610
H60	H	0.968156	0.653989	-1.010542
H61	H	1.069609	0.562461	-0.911699
