data_functionalizedCrystal
_audit_creation_method	'MofGen! by Chris Wilmer'
_symmetry_space_group_name_H-M	'P1'
_symmetry_Int_Tables_number	1
_symmetry_cell_setting	triclinic
loop_
_symmetry_equiv_pos_as_xyz
  x,y,z
_cell_length_a	10.654546
_cell_length_b	10.654558
_cell_length_c	9.198806
_cell_angle_alpha	89.997757
_cell_angle_beta	89.995127
_cell_angle_gamma	84.485854
loop_
_atom_site_label
_atom_site_type_symbol
_atom_site_fract_x
_atom_site_fract_y
_atom_site_fract_z
O1	O	1.667848	0.176374	-0.120921
O2	O	1.302370	0.193185	-0.120917
O3	O	1.493507	0.002041	-0.120913
O4	O	1.476711	0.367518	-0.120925
O5	O	1.493491	0.002041	0.120872
O6	O	1.302354	0.193185	0.120868
O7	O	1.667833	0.176374	0.120864
Cu8	Cu	1.485092	0.184779	0.142943
Cu9	Cu	1.485110	0.184780	-0.142996
O10	O	1.476696	0.367518	0.120860
C11	C	1.255564	0.191951	-0.000024
C12	C	1.116120	0.188261	-0.000022
C13	C	1.050634	0.186515	-0.131826
C14	C	0.919613	0.183038	-0.131837
C15	C	0.919577	0.183048	0.131770
C16	C	1.050595	0.186534	0.131780
C17	C	1.116159	0.188243	-0.263628
C18	C	1.050673	0.186495	-0.395442
C19	C	0.919652	0.183018	-0.395454
C20	C	0.854118	0.181288	-0.263651
C21	C	1.492264	-0.044757	-0.000022
C22	C	1.488568	-0.184200	-0.000026
C23	C	1.486820	-0.249713	0.131769
C24	C	1.483358	-0.380736	0.131763
C25	C	1.483386	-0.380719	-0.131845
C26	C	1.486857	-0.249700	-0.131837
C27	C	1.488531	-0.184213	0.263580
C28	C	1.486782	-0.249727	0.395385
C29	C	1.483320	-0.380750	0.395379
C30	C	1.481607	-0.446258	0.263568
C31	C	1.714639	0.177608	-0.000032
C32	C	1.854082	0.181298	-0.000044
C33	C	1.477939	0.414316	-0.000034
C34	C	1.481635	0.553759	-0.000039
N35	N	1.485089	0.184778	0.344057
N36	N	1.485124	0.184771	-0.344110
C37	C	1.565342	0.104168	0.416256
C38	C	1.565361	0.104164	0.583668
H39	H	0.866335	0.181608	-0.502783
C40	C	0.847494	0.181132	0.276744
C41	C	0.744088	0.287594	0.312979
C42	C	0.672006	0.285673	0.457956
C43	C	0.703330	0.177289	0.566697
C44	C	0.806741	0.070818	0.530465
C45	C	0.878823	0.072740	0.385488
H46	H	0.720895	0.367834	0.232480
H47	H	0.595455	0.364490	0.484776
H48	H	0.649971	0.175866	0.674017
H49	H	0.829934	-0.009421	0.610964
H50	H	0.955375	-0.006077	0.358667
C51	C	1.122652	0.188481	0.276753
C52	C	1.091300	0.296889	0.385452
C53	C	1.163363	0.298857	0.530423
C54	C	1.266778	0.192417	0.566695
C55	C	1.298135	0.084000	0.457993
C56	C	1.226072	0.082032	0.313022
H57	H	1.014742	0.375690	0.358604
H58	H	1.140150	0.379114	0.610891
H59	H	1.320123	0.193873	0.674011
H60	H	1.374693	0.005200	0.484842
H61	H	1.249285	0.001775	0.232555
H62	H	1.478799	-0.552947	0.263574
C63	C	1.481488	-0.452774	-0.276828
C64	C	1.590837	-0.448074	-0.385565
C65	C	1.588933	-0.520128	-0.530551
C66	C	1.477680	-0.596882	-0.566800
C67	C	1.368323	-0.601585	-0.458060
C68	C	1.370227	-0.529532	-0.313074
H69	H	1.673200	-0.391253	-0.358734
H70	H	1.669887	-0.516646	-0.611047
H71	H	1.476270	-0.650220	-0.674127
H72	H	1.285959	-0.658406	-0.484891
H73	H	1.289273	-0.533014	-0.232578
H74	H	1.416417	0.253793	0.593812
C75	C	1.488775	-0.177620	-0.276808
C76	C	1.600032	-0.100857	-0.313040
C77	C	1.601956	-0.028776	-0.458013
C78	C	1.492624	-0.033459	-0.566754
C79	C	1.381359	-0.110225	-0.530525
C80	C	1.379434	-0.182306	-0.385552
H81	H	1.680973	-0.097389	-0.232542
H82	H	1.684322	0.028051	-0.484832
H83	H	1.494049	0.019900	-0.674072
H84	H	1.300417	-0.113694	-0.611024
H85	H	1.297068	-0.239133	-0.358733
C86	C	1.658149	0.010933	0.332344
C87	C	1.657881	0.010948	0.164938
C88	C	1.750692	-0.082291	0.081033
C89	C	1.843771	-0.175545	0.164532
C90	C	1.844043	-0.175564	0.331947
C91	C	1.751232	-0.082325	0.415853
H92	H	1.588975	0.079984	0.103119
H93	H	1.750490	-0.082276	-0.042899
H94	H	1.912476	-0.244567	0.102420
H95	H	1.912949	-0.244600	0.393766
H96	H	1.751434	-0.082340	0.539784
H97	H	1.491345	-0.077528	0.263599
H98	H	1.634074	0.035155	0.645756
H99	H	1.104038	0.187915	-0.502751
H100	H	0.747430	0.178470	-0.263671
H101	H	1.222843	0.191071	-0.263633
H102	H	1.488188	-0.196382	0.502701
H103	H	1.481908	-0.434089	0.502702
H104	H	1.416391	0.253784	0.406184
