data_functionalizedCrystal
_audit_creation_method	'MofGen! by Chris Wilmer'
_symmetry_space_group_name_H-M	'P1'
_symmetry_Int_Tables_number	1
_symmetry_cell_setting	triclinic
loop_
_symmetry_equiv_pos_as_xyz
  x,y,z
_cell_length_a	13.032268
_cell_length_b	18.215407
_cell_length_c	18.215405
_cell_angle_alpha	89.974667
_cell_angle_beta	97.142944
_cell_angle_gamma	82.837891
loop_
_atom_site_label
_atom_site_type_symbol
_atom_site_fract_x
_atom_site_fract_y
_atom_site_fract_z
Zn1	Zn	-0.590829	-1.072202	-0.345790
Zn2	Zn	-0.416078	-1.087748	-0.453243
Zn3	Zn	-0.416105	-0.964770	-0.330198
Zn4	Zn	-0.590762	-0.949107	-0.468815
O5	O	-0.503443	-1.018457	-0.399511
O6	O	-0.567664	-1.177247	-0.360053
O7	O	-0.269853	-1.084496	-0.423878
O8	O	-0.439322	-0.979070	-0.229285
O9	O	-0.439275	-1.188669	-0.438997
O10	O	-0.567691	-1.058000	-0.240741
O11	O	-0.269873	-0.994144	-0.333478
O12	O	-0.439257	-0.859709	-0.348577
O13	O	-0.736999	-0.952375	-0.465538
O14	O	-0.567577	-0.848202	-0.450418
O15	O	-0.737048	-1.042812	-0.375152
O16	O	-0.439210	-1.069308	-0.558289
O17	O	-0.567550	-0.967449	-0.569730
C18	C	-0.503413	-0.827253	-0.399496
C19	C	-0.503425	-0.745453	-0.399509
C20	C	-0.775999	-0.994112	-0.423821
C21	C	-0.892147	-0.983738	-0.434181
C22	C	-0.503393	-1.018384	-0.590713
C23	C	-0.503406	-1.018416	-0.672513
C24	C	-0.943953	-1.023860	-0.394078
C25	C	-1.063997	-1.013138	-0.404784
C26	C	-0.231947	-1.042749	-0.375243
C27	C	-0.115801	-1.053266	-0.364676
C28	C	-0.503474	-1.210407	-0.399527
C29	C	-0.503487	-1.292205	-0.399534
C30	C	-0.570158	-0.551294	-0.452605
C31	C	-0.570171	-0.474434	-0.452608
C32	C	-0.436752	-0.486369	-0.346433
C33	C	-0.436745	-0.563227	-0.346427
C34	C	-0.503446	-0.595688	-0.399517
C35	C	-0.503466	-0.441970	-0.399527
C36	C	-0.503480	-0.358635	-0.399530
C37	C	-0.503434	-0.679028	-0.399513
C38	C	-0.436703	-1.071554	-0.854736
C39	C	-0.436728	-1.071585	-0.931597
C40	C	-0.570259	-0.965447	-0.943541
C41	C	-0.570238	-0.965420	-0.866682
C42	C	-0.503454	-1.018473	-0.822281
C43	C	-0.503500	-1.018531	-0.976001
C44	C	-0.503528	-1.018563	-1.059337
C45	C	-0.503427	-1.018441	-0.738940
C46	C	-0.503517	-1.018548	-0.207565
C47	C	-0.503548	-1.018587	-0.125769
H48	H	-1.108512	-0.970844	-0.447041
H49	H	-0.624630	-0.922252	-0.979701
H50	H	-0.899434	-1.066144	-0.351817
H51	H	-1.071287	-1.095552	-0.322410
O52	O	-0.635007	-0.582903	-0.504071
C53	C	-0.776102	-0.657052	-0.526693
C54	C	-0.702704	-0.621313	-0.468331
H55	H	-0.830867	-0.688102	-0.497820
H56	H	-0.728087	-0.697353	-0.560829
H57	H	-0.823738	-0.612107	-0.564648
H58	H	-0.655052	-0.666207	-0.430327
H59	H	-0.750778	-0.580996	-0.434249
O60	O	-0.371936	-1.123263	-0.963025
C61	C	-0.321463	-1.253016	-0.981910
C62	C	-0.394889	-1.194553	-0.946279
H63	H	-0.340009	-1.310667	-0.968397
H64	H	-0.237166	-1.247733	-0.959294
H65	H	-0.332904	-1.243921	-1.044469
H66	H	-0.383541	-1.203611	-0.883719
H67	H	-0.479159	-1.199852	-0.968953
O68	O	-0.945203	-0.933188	-0.484515
C69	C	-0.978727	-0.805018	-0.523233
C70	C	-0.918598	-0.862186	-0.466166
H71	H	-0.957223	-0.747602	-0.508427
H72	H	-1.066093	-0.805296	-0.522881
H73	H	-0.957324	-0.819849	-0.580675
H74	H	-0.939914	-0.847394	-0.408696
H75	H	-0.831246	-0.861897	-0.466582
O76	O	-0.635117	-0.913782	-0.835267
C77	C	-0.767611	-0.808539	-0.855221
C78	C	-0.694173	-0.866960	-0.890893
H79	H	-0.815392	-0.770678	-0.900180
H80	H	-0.719624	-0.774312	-0.815024
H81	H	-0.822239	-0.837417	-0.824047
H82	H	-0.639530	-0.838143	-0.922106
H83	H	-0.742224	-0.901183	-0.931050
O84	O	-0.635117	-0.431378	-0.504156
C85	C	-0.812780	-0.391974	-0.555892
C86	C	-0.739341	-0.440783	-0.497489
H87	H	-0.897062	-0.399549	-0.550512
H88	H	-0.794360	-0.408720	-0.613582
H89	H	-0.801280	-0.331474	-0.546786
H90	H	-0.750801	-0.501297	-0.506526
H91	H	-0.757780	-0.423974	-0.439820
O92	O	-0.371993	-0.454719	-0.294938
C93	C	-0.312924	-0.341601	-0.247860
C94	C	-0.386300	-0.377347	-0.306232
H95	H	-0.324481	-0.279039	-0.256961
H96	H	-0.228606	-0.364172	-0.253169
H97	H	-0.331418	-0.355130	-0.190196
H98	H	-0.367900	-0.363832	-0.363922
H99	H	-0.470596	-0.354774	-0.300858
H100	H	-0.382420	-0.599374	-0.303192
H101	H	-0.382325	-1.114754	-0.818587
