data_functionalizedCrystal
_audit_creation_method	'MofGen! by Chris Wilmer'
_symmetry_space_group_name_H-M	'P1'
_symmetry_Int_Tables_number	1
_symmetry_cell_setting	triclinic
loop_
_symmetry_equiv_pos_as_xyz
  x,y,z
_cell_length_a	13.032721
_cell_length_b	18.215407
_cell_length_c	18.215399
_cell_angle_alpha	89.980167
_cell_angle_beta	97.154738
_cell_angle_gamma	97.205008
loop_
_atom_site_label
_atom_site_type_symbol
_atom_site_fract_x
_atom_site_fract_y
_atom_site_fract_z
Zn1	Zn	-0.416041	1.087881	-0.453320
Zn2	Zn	-0.590804	1.072167	-0.345882
Zn3	Zn	-0.416075	0.964810	-0.330271
Zn4	Zn	-0.590746	0.949162	-0.468902
O5	O	-0.503417	1.018505	-0.399594
O6	O	-0.439234	1.188780	-0.439081
O7	O	-0.567665	1.057898	-0.240831
O8	O	-0.269831	0.994261	-0.333539
O9	O	-0.567632	1.177235	-0.360147
O10	O	-0.269806	1.084681	-0.423943
O11	O	-0.439292	0.979024	-0.229361
O12	O	-0.439236	0.859751	-0.348648
O13	O	-0.567533	0.967591	-0.569816
O14	O	-0.567566	0.848254	-0.450500
O15	O	-0.439177	1.069507	-0.558368
O16	O	-0.737036	1.042724	-0.375256
O17	O	-0.736993	0.952353	-0.465638
C18	C	-0.503399	0.827300	-0.399571
C19	C	-0.503416	0.745500	-0.399581
C20	C	-0.570343	0.551329	-0.452566
C21	C	-0.570346	0.474470	-0.452575
C22	C	-0.436510	0.486431	-0.346640
C23	C	-0.436502	0.563289	-0.346634
C24	C	-0.503424	0.595736	-0.399597
C25	C	-0.503435	0.442019	-0.399612
C26	C	-0.503438	0.358685	-0.399621
C27	C	-0.503420	0.679075	-0.399588
C28	C	-0.774933	0.994156	-0.423847
C29	C	-0.891089	0.983806	-0.434248
C30	C	-0.942861	1.023945	-0.394199
C31	C	-1.062914	1.013250	-0.404947
C32	C	-0.230840	1.042969	-0.375262
C33	C	-0.114684	1.053395	-0.364893
C34	C	-0.503345	1.018556	-0.591540
C35	C	-0.503314	1.018578	-0.673337
C36	C	-0.503435	1.210456	-0.399617
C37	C	-0.503443	1.292254	-0.399627
C38	C	-0.436417	1.071668	-0.855565
C39	C	-0.436386	1.071680	-0.932421
C40	C	-0.570049	0.965554	-0.944331
C41	C	-0.570074	0.965540	-0.867476
C42	C	-0.503259	1.018601	-0.823095
C43	C	-0.503204	1.018627	-0.976807
C44	C	-0.503172	1.018639	-1.060137
C45	C	-0.503290	1.018589	-0.739759
C46	C	-0.503413	1.018503	-0.208387
C47	C	-0.503149	1.018650	-0.126565
H48	H	-0.382002	0.599447	-0.303500
Br49	Br	-0.661163	0.595362	-0.524444
H50	H	-0.898309	1.066232	-0.351957
Br51	Br	-0.660786	0.893509	-0.823404
H52	H	-0.624836	0.438318	-0.495709
H53	H	-1.107465	0.970967	-0.447198
Br54	Br	-0.345739	1.143678	-0.795336
H55	H	-0.382025	0.460003	-0.303519
H56	H	-1.070135	1.095684	-0.322648
H57	H	-0.935643	0.941526	-0.476495
Br58	Br	-0.345676	1.143707	-0.976486
H59	H	-0.624450	0.922355	-0.980476
