data_functionalizedCrystal
_audit_creation_method	'MofGen! by Chris Wilmer'
_symmetry_space_group_name_H-M	'P1'
_symmetry_Int_Tables_number	1
_symmetry_cell_setting	triclinic
loop_
_symmetry_equiv_pos_as_xyz
  x,y,z
_cell_length_a	10.654550
_cell_length_b	17.038272
_cell_length_c	9.730223
_cell_angle_alpha	89.995299
_cell_angle_beta	89.999957
_cell_angle_gamma	87.798243
loop_
_atom_site_label
_atom_site_type_symbol
_atom_site_fract_x
_atom_site_fract_y
_atom_site_fract_z
O1	O	1.678042	0.109878	-0.114188
O2	O	1.313535	0.120346	-0.114214
O3	O	1.493622	0.001285	-0.114190
O4	O	1.497955	0.228940	-0.114212
O5	O	1.493609	0.001281	0.114390
O6	O	1.313523	0.120343	0.114366
O7	O	1.678029	0.109875	0.114392
Zn8	Zn	1.495774	0.115108	0.150671
Zn9	Zn	1.495791	0.115113	-0.150493
O10	O	1.497942	0.228936	0.114368
C11	C	1.266660	0.119576	0.000073
C12	C	1.127003	0.117276	0.000064
C13	C	1.054026	0.187378	0.000061
C14	C	0.922805	0.185213	0.000085
C15	C	0.937548	0.042838	0.000109
C16	C	1.068767	0.045004	0.000095
C17	C	1.489675	-0.027867	0.000099
C18	C	1.477918	-0.114726	0.000098
C19	C	1.585862	-0.164237	0.000107
C20	C	1.574808	-0.245849	0.000093
C21	C	1.455808	-0.277949	0.000080
C22	C	1.347855	-0.228431	0.000067
C23	C	1.358911	-0.146820	0.000071
C24	C	1.416750	-0.523925	0.000059
C25	C	1.405702	-0.605542	0.000059
C26	C	1.632655	-0.622955	0.000082
C27	C	1.643701	-0.541341	0.000094
C28	C	1.535748	-0.491831	0.000074
C29	C	1.444505	-0.361369	0.000070
C30	C	1.547052	-0.408412	0.000074
C31	C	1.724905	0.110645	0.000102
C32	C	1.864561	0.112945	0.000102
C33	C	1.501889	0.258088	0.000076
C34	C	1.513646	0.344947	0.000068
N35	N	1.495771	0.115105	0.356207
N36	N	1.495802	0.115110	-0.356029
C37	C	1.575545	0.062407	0.428144
C38	C	1.575558	0.062407	0.572027
C39	C	1.416020	0.167810	0.572024
C40	C	1.416002	0.167806	0.428144
H41	H	1.128187	-0.012085	0.000101
H42	H	1.643941	-0.382273	0.000054
H43	H	1.662708	-0.286159	0.000103
H44	H	1.740603	-0.515213	0.000105
N45	N	1.661617	0.005580	0.649617
H46	H	1.712151	-0.027800	0.582208
H47	H	1.720360	0.035868	0.709288
N48	N	1.277344	-0.640163	0.000031
H49	H	1.286726	-0.699376	0.000039
H50	H	1.229713	-0.622098	0.084760
N51	N	1.329986	0.224650	0.649613
H52	H	1.342103	0.216659	0.751677
H53	H	1.350418	0.280232	0.624445
N54	N	1.749084	-0.676354	0.000106
H55	H	1.724029	-0.732925	0.000103
H56	H	1.800575	-0.665886	-0.084626
N57	N	1.300321	-0.470531	0.000043
H58	H	1.223261	-0.503252	0.000041
H59	H	1.299958	-0.436294	0.084780
N60	N	1.219503	-0.263048	0.000044
H61	H	1.228877	-0.322261	0.000048
H62	H	1.171878	-0.244983	0.084777
H63	H	1.271011	-0.106509	0.000064
N64	N	1.329945	0.224641	0.350543
H65	H	1.279419	0.258030	0.417944
H66	H	1.381727	0.259503	0.290823
H67	H	0.890116	-0.016004	0.000142
H68	H	1.347615	-0.387514	0.000063
N69	N	1.661576	0.005567	0.350552
H70	H	1.712112	-0.027817	0.417961
H71	H	1.609774	-0.029299	0.290870
H72	H	1.101438	0.246227	0.000046
N73	N	1.714213	-0.129618	0.000134
H74	H	1.780916	-0.173371	0.000135
H75	H	1.723751	-0.096131	-0.084600
H76	H	0.863392	0.242297	0.000086
