data_functionalizedCrystal
_audit_creation_method	'MofGen! by Chris Wilmer'
_symmetry_space_group_name_H-M	'P1'
_symmetry_Int_Tables_number	1
_symmetry_cell_setting	triclinic
loop_
_symmetry_equiv_pos_as_xyz
  x,y,z
_cell_length_a	14.044220
_cell_length_b	19.188930
_cell_length_c	13.101039
_cell_angle_alpha	93.345801
_cell_angle_beta	86.340132
_cell_angle_gamma	88.166830
loop_
_atom_site_label
_atom_site_type_symbol
_atom_site_fract_x
_atom_site_fract_y
_atom_site_fract_z
O1	O	1.262233	0.164759	-0.085127
O2	O	1.762233	0.664759	0.414873
O3	O	0.986290	0.158685	-0.085152
O4	O	1.486290	0.658685	0.414848
O5	O	1.132223	0.060581	-0.085119
O6	O	1.632223	0.560581	0.414881
O7	O	1.116300	0.262863	-0.085160
O8	O	1.616300	0.762863	0.414840
O9	O	1.121753	0.067633	0.085309
O10	O	1.621753	0.567633	0.585309
O11	O	0.975820	0.165737	0.085275
O12	O	1.475820	0.665737	0.585275
O13	O	1.251762	0.171810	0.085300
O14	O	1.751762	0.671810	0.585300
Zn15	Zn	1.112128	0.169893	0.112347
Zn16	Zn	1.612128	0.669893	0.612347
Zn17	Zn	1.125924	0.160602	-0.112199
Zn18	Zn	1.625924	0.660602	0.387801
O19	O	1.105829	0.269914	0.085267
O20	O	1.605829	0.769914	0.585267
C21	C	0.945752	0.159553	0.000059
C22	C	1.445752	0.659553	0.500059
C23	C	0.840559	0.151623	0.000050
C24	C	1.340559	0.651623	0.500050
C25	C	0.647957	0.137129	0.000073
C26	C	1.147957	0.637129	0.500073
C27	C	0.590091	0.193363	0.000066
C28	C	1.090091	0.693363	0.500066
C29	C	0.482920	0.185298	0.000079
C30	C	0.982920	0.685298	0.500079
C31	C	0.755137	0.145193	0.000060
C32	C	1.255137	0.645193	0.500060
C33	C	1.126472	0.038063	0.000098
C34	C	1.626472	0.538063	0.500098
C35	C	1.124923	-0.039541	0.000106
C36	C	1.624923	0.460459	0.500106
C37	C	1.210553	-0.078939	0.000119
C38	C	1.710553	0.421061	0.500119
C39	C	1.209099	-0.151857	0.000103
C40	C	1.709099	0.348143	0.500103
C41	C	1.122010	-0.185374	0.000094
C42	C	1.622010	0.314626	0.500094
C43	C	1.036370	-0.145968	0.000075
C44	C	1.536370	0.354032	0.500075
C45	C	1.037827	-0.073051	0.000082
C46	C	1.537827	0.426949	0.500082
N47	N	1.051878	-0.295275	0.058088
N48	N	1.551878	0.204725	0.558088
N49	N	1.050500	-0.364543	0.058084
N50	N	1.550500	0.135457	0.558084
C51	C	1.117617	-0.405067	0.000073
C52	C	1.617617	0.094933	0.500073
N53	N	1.186177	-0.373707	-0.057921
N54	N	1.686177	0.126293	0.442079
N55	N	1.187558	-0.304433	-0.057913
N56	N	1.687558	0.195567	0.442087
C57	C	1.120421	-0.264440	0.000086
C58	C	1.620421	0.235560	0.500086
C59	C	1.201676	-0.523532	0.000066
C60	C	1.701676	-0.023532	0.500066
C61	C	1.200219	-0.596452	0.000043
C62	C	1.700219	-0.096452	0.500043
C63	C	1.027487	-0.590560	0.000026
C64	C	1.527487	-0.090560	0.500026
C65	C	1.028947	-0.517642	0.000039
C66	C	1.528947	-0.017642	0.500039
C67	C	1.116043	-0.484132	0.000064
C68	C	1.616043	0.015868	0.500064
C69	C	1.292301	0.170943	0.000087
C70	C	1.792301	0.670943	0.500087
C71	C	1.397494	0.178872	0.000089
C72	C	1.897494	0.678872	0.500089
C73	C	1.111580	0.292433	0.000048
C74	C	1.611580	0.792433	0.500048
C75	C	1.113129	0.370037	0.000033
C76	C	1.613129	0.870037	0.500033
N77	N	1.102720	0.176234	0.265593
N78	N	1.602720	0.676234	0.765593
N79	N	1.135340	0.154257	-0.265445
N80	N	1.635340	0.654257	0.234555
C81	C	1.089920	0.184867	0.474633
C82	C	1.589920	0.684867	0.974633
C83	C	1.148137	0.145626	0.525522
C84	C	1.648137	0.645626	1.025522
C85	C	1.141014	0.150429	0.641839
C86	C	1.641014	0.650429	1.141839
C87	C	1.097041	0.180064	0.358306
C88	C	1.597041	0.680064	0.858306
H89	H	0.617011	0.082932	0.000090
H90	H	1.117011	0.582932	0.500090
H91	H	1.281474	-0.051660	0.000136
H92	H	1.781474	0.448340	0.500136
H93	H	1.278831	-0.183941	0.000109
H94	H	1.778831	0.316059	0.500109
C95	C	0.957443	-0.255128	0.000074
C96	C	1.457443	0.244872	0.500074
C97	C	0.940640	-0.182807	0.000070
C98	C	1.440640	0.317193	0.500070
H99	H	0.898339	-0.277868	0.000074
H100	H	1.398339	0.222132	0.500074
H101	H	0.996334	-0.270736	-0.059350
H102	H	1.496334	0.229264	0.440650
H103	H	0.989038	-0.265827	0.059514
H104	H	1.489038	0.234173	0.559514
H105	H	0.909051	-0.172107	-0.059374
H106	H	1.409051	0.327893	0.440626
H107	H	0.901733	-0.167193	0.059501
H108	H	1.401733	0.332807	0.559501
C109	C	0.944643	0.008751	-0.087534
C110	C	1.444643	0.508751	0.412466
C111	C	0.943695	-0.029742	0.000072
C112	C	1.443695	0.470258	0.500072
H113	H	0.886526	0.035485	-0.087540
H114	H	1.386526	0.535485	0.412460
H115	H	0.996711	0.039143	-0.087514
H116	H	1.496711	0.539143	0.412486
H117	H	0.951318	-0.022274	-0.146963
H118	H	1.451318	0.477726	0.353037
H119	H	0.937027	0.001284	0.059501
H120	H	1.437027	0.501284	0.559501
H121	H	0.891611	-0.060137	0.000061
H122	H	1.391611	0.439863	0.500061
H123	H	1.034735	0.222068	0.518417
H124	H	1.534735	0.722068	1.018417
C125	C	1.372268	-0.536677	0.000057
C126	C	1.872268	-0.036677	0.500057
C127	C	1.297411	-0.486693	0.000068
C128	C	1.797411	0.013307	0.500068
H129	H	1.431370	-0.513935	0.000049
H130	H	1.931370	-0.013935	0.500049
H131	H	1.364465	-0.562542	0.059483
H132	H	1.864465	-0.062542	0.559483
H133	H	1.371743	-0.567448	-0.059381
H134	H	1.871743	-0.067448	0.440619
H135	H	1.297931	-0.455926	0.059510
H136	H	1.797931	0.044074	0.559510
H137	H	1.305216	-0.460817	-0.059364
H138	H	1.805216	0.039183	0.440636
H139	H	1.269952	-0.628529	0.000048
H140	H	1.769952	-0.128529	0.500048
H141	H	0.956578	-0.617849	0.000014
H142	H	1.456578	-0.117849	0.500014
H143	H	0.959218	-0.485564	0.000034
H144	H	1.459218	0.014436	0.500034
C145	C	1.175898	0.046844	0.405006
C146	C	1.675898	0.546844	0.905006
C147	C	1.222534	0.095251	0.466542
C148	C	1.722534	0.595251	0.966542
H149	H	1.221796	0.015705	0.368626
H150	H	1.721796	0.515705	0.868626
H151	H	1.133860	0.021166	0.446954
H152	H	1.633860	0.521166	0.946954
H153	H	1.140423	0.070833	0.357693
H154	H	1.640423	0.570833	0.857693
H155	H	1.258004	0.071263	0.513861
H156	H	1.758004	0.571263	1.013861
H157	H	1.264589	0.120932	0.424591
H158	H	1.764589	0.620932	0.924591
C159	C	0.731487	0.260465	-0.000016
C160	C	1.231487	0.760465	0.499984
C161	C	0.631863	0.266533	0.000009
C162	C	1.131863	0.766533	0.500009
H163	H	0.757277	0.305635	-0.000067
H164	H	1.257277	0.805635	0.499933
H165	H	0.748742	0.238306	0.059427
H166	H	1.248742	0.738306	0.559427
H167	H	0.756005	0.233348	-0.059437
H168	H	1.256005	0.733348	0.440563
H169	H	0.607344	0.293646	0.059435
H170	H	1.107344	0.793646	0.559435
H171	H	0.614600	0.288702	-0.059440
H172	H	1.114600	0.788702	0.440560
