data_functionalizedCrystal
_audit_creation_method	'MofGen! by Chris Wilmer'
_symmetry_space_group_name_H-M	'P1'
_symmetry_Int_Tables_number	1
_symmetry_cell_setting	triclinic
loop_
_symmetry_equiv_pos_as_xyz
  x,y,z
_cell_length_a	10.654554
_cell_length_b	10.654558
_cell_length_c	9.730223
_cell_angle_alpha	89.998542
_cell_angle_beta	89.999030
_cell_angle_gamma	84.487501
loop_
_atom_site_label
_atom_site_type_symbol
_atom_site_fract_x
_atom_site_fract_y
_atom_site_fract_z
O1	O	1.667836	0.176421	-0.114315
O2	O	1.302358	0.193221	-0.114312
O3	O	1.493495	0.002082	-0.114304
O4	O	1.476699	0.367559	-0.114323
O5	O	1.493493	0.002087	0.114276
O6	O	1.302356	0.193226	0.114268
O7	O	1.667833	0.176426	0.114265
Zn8	Zn	1.485094	0.184826	0.150558
Zn9	Zn	1.485097	0.184820	-0.150606
O10	O	1.476697	0.367564	0.114257
C11	C	1.255559	0.191988	-0.000022
C12	C	1.116116	0.188294	-0.000021
C13	C	1.492258	-0.044713	-0.000015
C14	C	1.488562	-0.184156	-0.000016
C15	C	0.933551	0.068808	-0.000032
C16	C	1.064573	0.072278	-0.000019
C17	C	1.036630	0.300847	-0.000023
C18	C	0.905611	0.297375	-0.000027
C19	C	0.949684	-0.063154	-0.000036
C20	C	1.080706	-0.059684	-0.000022
C21	C	1.486823	-0.249675	0.124577
C22	C	1.483361	-0.380697	0.124564
C23	C	1.483373	-0.380670	-0.124646
C24	C	1.486844	-0.249651	-0.124632
C25	C	1.552063	-0.568748	0.274243
C26	C	1.550301	-0.634269	0.398843
C27	C	1.477960	-0.582778	0.508859
C28	C	1.407350	-0.465764	0.494279
C29	C	1.409100	-0.400249	0.369677
C30	C	1.481470	-0.451742	0.259667
C31	C	1.418131	-0.061596	-0.274302
C32	C	1.419872	0.003922	-0.398905
C33	C	1.492206	-0.047565	-0.508932
C34	C	1.562797	-0.164581	-0.494367
C35	C	1.561056	-0.230100	-0.369763
C36	C	1.488726	-0.178603	-0.259736
C37	C	1.714632	0.177658	-0.000028
C38	C	1.854075	0.181352	-0.000039
C39	C	1.477933	0.414360	-0.000036
C40	C	1.481629	0.553802	-0.000043
N41	N	1.485102	0.184830	0.356095
N42	N	1.485100	0.184807	-0.356142
C43	C	1.569759	0.100223	0.428024
C44	C	1.569755	0.100208	0.571907
C45	C	1.400434	0.269418	0.571918
C46	C	1.400432	0.269426	0.428038
C47	C	1.667519	0.002534	0.428019
C48	C	1.667516	0.002519	0.571902
H49	H	0.840906	0.389020	-0.000016
F50	F	1.333961	-0.275720	0.354158
F51	F	1.793663	0.030637	0.622948
H52	H	1.618533	-0.325386	-0.357914
F53	F	1.330334	-0.410982	0.611368
F54	F	0.903108	-0.118077	-0.129037
H55	H	1.610987	-0.610677	0.184673
F56	F	1.140362	-0.111798	0.128985
H57	H	1.078607	0.395309	-0.000012
F58	F	1.639488	-0.123637	0.376973
F59	F	1.476080	-0.652519	0.641462
H60	H	1.637000	-0.088704	0.616523
F61	F	0.911295	-0.130609	0.124991
H62	H	1.122463	-0.109401	-0.095682
F63	F	1.625441	-0.758806	0.414350
H64	H	1.488212	-0.196351	0.226047
H65	H	1.481970	-0.434012	-0.226104
H66	H	1.362463	0.099248	-0.410724
F67	F	1.639780	-0.219386	-0.611471
H68	H	1.493561	0.005761	-0.610415
H69	H	1.359235	-0.019657	-0.184709
H70	H	1.331487	0.338309	0.369474
F71	F	1.310326	0.359445	0.648496
H72	H	1.758704	0.033124	0.383391
