data_functionalizedCrystal
_audit_creation_method	'MofGen! by Chris Wilmer'
_symmetry_space_group_name_H-M	'P1'
_symmetry_Int_Tables_number	1
_symmetry_cell_setting	triclinic
loop_
_symmetry_equiv_pos_as_xyz
  x,y,z
_cell_length_a	21.295417
_cell_length_b	16.625548
_cell_length_c	16.625539
_cell_angle_alpha	90.020568
_cell_angle_beta	90.033373
_cell_angle_gamma	90.031575
loop_
_atom_site_label
_atom_site_type_symbol
_atom_site_fract_x
_atom_site_fract_y
_atom_site_fract_z
Zn1	Zn	-0.250590	1.232635	0.455881
Zn2	Zn	0.082743	1.565969	0.789214
Zn3	Zn	0.416077	1.899302	1.122548
Zn4	Zn	-0.355864	1.232520	0.321036
Zn5	Zn	-0.022530	1.565853	0.654370
Zn6	Zn	0.310803	1.899186	0.987703
Zn7	Zn	-0.250614	1.097797	0.321061
Zn8	Zn	0.082719	1.431131	0.654395
Zn9	Zn	0.416053	1.764464	0.987728
Zn10	Zn	-0.355827	1.097749	0.455826
Zn11	Zn	-0.022494	1.431082	0.789159
Zn12	Zn	0.310839	1.764415	1.122493
O13	O	-0.303224	1.165175	0.388451
O14	O	0.030110	1.498509	0.721785
O15	O	0.363443	1.831842	1.055118
O16	O	-0.264560	1.345452	0.438006
O17	O	0.068773	1.678786	0.771339
O18	O	0.402107	2.012119	1.104673
O19	O	-0.341927	1.214620	0.208207
O20	O	-0.008594	1.547954	0.541540
O21	O	0.324740	1.881287	0.874874
O22	O	-0.162522	1.115753	0.338979
O23	O	0.170812	1.449086	0.672312
O24	O	0.504145	1.782419	1.005646
O25	O	-0.341904	1.345367	0.338936
O26	O	-0.008571	1.678701	0.672269
O27	O	0.324763	2.012034	1.005603
O28	O	-0.162504	1.214818	0.438030
O29	O	0.170829	1.548151	0.771364
O30	O	0.504163	1.881484	1.104697
O31	O	-0.264601	1.115640	0.208226
O32	O	0.068732	1.448974	0.541559
O33	O	0.402066	1.782307	0.874892
O34	O	-0.264566	0.984958	0.338926
O35	O	0.068768	1.318292	0.672259
O36	O	0.402101	1.651625	1.005593
O37	O	-0.341842	1.115670	0.568666
O38	O	-0.008509	1.449003	0.901999
O39	O	0.324824	1.782337	1.235332
O40	O	-0.341866	0.984923	0.437937
O41	O	-0.008532	1.318256	0.771270
O42	O	0.324801	1.651589	1.104604
O43	O	-0.264525	1.214771	0.568706
O44	O	0.068808	1.548104	0.902039
O45	O	0.402142	1.881437	1.235373
O46	O	-0.443948	1.214573	0.338883
O47	O	-0.110615	1.547907	0.672216
O48	O	0.222719	1.881240	1.005550
O49	O	-0.443922	1.115558	0.437912
O50	O	-0.110588	1.448891	0.771246
O51	O	0.222745	1.782224	1.104579
C52	C	-0.303215	0.955684	0.388429
C53	C	0.030119	1.289018	0.721762
C54	C	0.363452	1.622351	1.055095
C55	C	-0.303226	0.866063	0.388438
C56	C	0.030107	1.199397	0.721771
C57	C	0.363441	1.532730	1.055105
C58	C	-0.303230	0.537888	0.388473
C59	C	0.030103	0.871221	0.721806
C60	C	0.363436	1.204554	1.055139
C61	C	-0.303227	0.629196	0.388460
C62	C	0.030106	0.962529	0.721794
C63	C	0.363439	1.295863	1.055127
C64	C	-0.303229	0.701973	0.388455
C65	C	0.030105	1.035306	0.721788
C66	C	0.363438	1.368639	1.055121
C67	C	-0.303225	0.793287	0.388444
C68	C	0.030108	1.126620	0.721777
C69	C	0.363442	1.459954	1.055111
C70	C	-0.466775	1.165070	0.388407
C71	C	-0.133442	1.498403	0.721740
C72	C	0.199891	1.831736	1.055073
C73	C	-0.536744	1.165098	0.388414
C74	C	-0.203410	1.498431	0.721748
C75	C	0.129923	1.831765	1.055081
C76	C	-0.569603	1.216701	0.336903
C77	C	-0.236270	1.550035	0.670236
C78	C	0.097064	1.883368	1.003569
C79	C	-0.635346	1.216739	0.336921
C80	C	-0.302012	1.550073	0.670254
C81	C	0.031321	1.883406	1.003587
C82	C	-0.668226	1.165159	0.388442
C83	C	-0.334893	1.498493	0.721776
C84	C	-0.001559	1.831826	1.055109
C85	C	-0.635359	1.113552	0.439964
C86	C	-0.302025	1.446886	0.773297
C87	C	0.031308	1.780219	1.106631
C88	C	-0.569617	1.113522	0.439950
C89	C	-0.236284	1.446855	0.773283
C90	C	0.097049	1.780188	1.106617
N91	N	-0.771493	1.094624	0.394581
N92	N	-0.438159	1.427958	0.727915
N93	N	-0.104826	1.761291	1.061248
N94	N	-0.833944	1.094656	0.394590
N95	N	-0.500611	1.427989	0.727923
N96	N	-0.167277	1.761322	1.061257
C97	C	-0.866301	1.165250	0.388488
C98	C	-0.532967	1.498583	0.721822
C99	C	-0.199634	1.831916	1.055155
N100	N	-0.833847	1.235813	0.382362
N101	N	-0.500513	1.569146	0.715696
N102	N	-0.167180	1.902479	1.049029
N103	N	-0.771389	1.235780	0.382350
N104	N	-0.438056	1.569114	0.715683
N105	N	-0.104723	1.902447	1.049016
C106	C	-0.739511	1.165187	0.388463
C107	C	-0.406178	1.498520	0.721797
C108	C	-0.072845	1.831854	1.055130
C109	C	-0.970446	1.216898	0.336994
C110	C	-0.637112	1.550232	0.670327
C111	C	-0.303779	1.883565	1.003660
C112	C	-1.036189	1.216937	0.337017
C113	C	-0.702856	1.550271	0.670351
C114	C	-0.369523	1.883604	1.003684
C115	C	-1.036201	1.113743	0.440056
C116	C	-0.702868	1.447077	0.773390
C117	C	-0.369534	1.780410	1.106723
C118	C	-0.970459	1.113711	0.440037
C119	C	-0.637125	1.447045	0.773370
C120	C	-0.303792	1.780378	1.106704
C121	C	-0.937585	1.165288	0.388501
C122	C	-0.604252	1.498621	0.721834
C123	C	-0.270918	1.831954	1.055168
C124	C	-0.139033	1.165303	0.388514
C125	C	0.194300	1.498637	0.721847
C126	C	0.527633	1.831970	1.055180
C127	C	-0.069065	1.165358	0.388540
C128	C	0.264268	1.498691	0.721874
C129	C	0.597601	1.832025	1.055207
C130	C	-0.303177	1.165228	0.598760
C131	C	0.030156	1.498561	0.932094
C132	C	0.363490	1.831894	1.265427
C133	C	-0.303157	1.165250	0.688381
C134	C	0.030176	1.498583	1.021715
C135	C	0.363510	1.831917	1.355048
C136	C	-0.303233	1.375484	0.388474
C137	C	0.030100	1.708817	0.721808
C138	C	0.363433	2.042151	1.055141
C139	C	-0.303237	1.465105	0.388484
C140	C	0.030096	1.798439	0.721817
C141	C	0.363429	2.131772	1.055151
C142	C	-0.303225	1.165169	0.178960
C143	C	0.030108	1.498503	0.512294
C144	C	0.363442	1.831836	0.845627
C145	C	-0.303068	1.165303	0.089340
C146	C	0.030266	1.498637	0.422673
C147	C	0.363599	1.831970	0.756006
C148	C	-0.303086	1.165287	1.016557
C149	C	0.030247	1.498621	1.349891
C150	C	0.363580	1.831954	1.683224
C151	C	-0.303108	1.165275	0.925249
C152	C	0.030225	1.498608	1.258582
C153	C	0.363559	1.831941	1.591915
C154	C	-0.303122	1.165269	0.852472
C155	C	0.030211	1.498602	1.185806
C156	C	0.363544	1.831936	1.519139
C157	C	-0.303143	1.165256	0.761158
C158	C	0.030191	1.498589	1.094491
C159	C	0.363524	1.831922	1.427825
H160	H	-0.542839	1.258700	0.294941
H161	H	-0.209506	1.592033	0.628275
H162	H	0.123827	1.925366	0.961608
O163	O	-0.667337	1.266744	0.286820
O164	O	-0.334003	1.600078	0.620154
O165	O	-0.000670	1.933411	0.953487
C166	C	-0.705403	1.220859	0.234703
C167	C	-0.372070	1.554192	0.568036
C168	C	-0.038736	1.887526	0.901369
H169	H	-0.715281	1.159754	0.263109
H170	H	-0.381948	1.493088	0.596443
H171	H	-0.048615	1.826421	0.929776
H172	H	-0.751615	1.253721	0.223908
H173	H	-0.418281	1.587054	0.557241
H174	H	-0.084948	1.920387	0.890575
H175	H	-0.680096	1.211998	0.174948
H176	H	-0.346762	1.545331	0.508282
H177	H	-0.013429	1.878664	0.841615
H178	H	-0.662134	1.071557	0.481915
H179	H	-0.328801	1.404891	0.815248
H180	H	0.004533	1.738224	1.148581
H181	H	-1.062972	1.071750	0.482010
H182	H	-0.729638	1.405083	0.815343
H183	H	-0.396305	1.738416	1.148677
O184	O	-0.537763	1.063429	0.490100
O185	O	-0.204430	1.396762	0.823433
O186	O	0.128903	1.730095	1.156767
C187	C	-0.553752	1.081027	0.570484
C188	C	-0.220419	1.414361	0.903817
C189	C	0.112915	1.747694	1.237150
H190	H	-0.601461	1.112045	0.572197
H191	H	-0.268127	1.445379	0.905531
H192	H	0.065206	1.778712	1.238864
H193	H	-0.556020	1.022817	0.606587
H194	H	-0.222687	1.356150	0.939920
H195	H	0.110646	1.689483	1.273253
H196	H	-0.516704	1.122449	0.597668
H197	H	-0.183371	1.455782	0.931001
H198	H	0.149962	1.789116	1.264335
O199	O	-1.068014	1.267212	0.287018
O200	O	-0.734680	1.600545	0.620352
O201	O	-0.401347	1.933879	0.953685
C202	C	-1.051850	1.347536	0.304755
C203	C	-0.718517	1.680870	0.638088
C204	C	-0.385183	2.014203	0.971422
H205	H	-1.004106	1.349111	0.335765
H206	H	-0.670773	1.682445	0.669098
H207	H	-0.337440	2.015778	1.002432
H208	H	-1.049571	1.383738	0.246608
H209	H	-0.716237	1.717071	0.579941
H210	H	-0.382904	2.050404	0.913275
H211	H	-1.088802	1.374712	0.346233
H212	H	-0.755469	1.708045	0.679566
H213	H	-0.422135	2.041379	1.012900
O214	O	-0.938575	1.266961	0.286828
O215	O	-0.605242	1.600294	0.620161
O216	O	-0.271909	1.933627	0.953495
C217	C	-0.954690	1.249380	0.206453
C218	C	-0.621357	1.582713	0.539786
C219	C	-0.288024	1.916046	0.873119
H220	H	-1.002448	1.218413	0.204765
H221	H	-0.669115	1.551746	0.538098
H222	H	-0.335782	1.885080	0.871431
H223	H	-0.956916	1.307593	0.170352
H224	H	-0.623582	1.640926	0.503685
H225	H	-0.290249	1.974260	0.837018
H226	H	-0.917739	1.207919	0.179248
H227	H	-0.584406	1.541252	0.512582
H228	H	-0.251073	1.874586	0.845915
H229	H	-0.943703	1.071688	0.481979
H230	H	-0.610369	1.405021	0.815313
H231	H	-0.277036	1.738354	1.148646
