data_functionalizedCrystal
_audit_creation_method	'MofGen! by Chris Wilmer'
_symmetry_space_group_name_H-M	'P1'
_symmetry_Int_Tables_number	1
_symmetry_cell_setting	triclinic
loop_
_symmetry_equiv_pos_as_xyz
  x,y,z
_cell_length_a	19.121102
_cell_length_b	21.295417
_cell_length_c	21.295412
_cell_angle_alpha	89.968813
_cell_angle_beta	87.544905
_cell_angle_gamma	87.584620
loop_
_atom_site_label
_atom_site_type_symbol
_atom_site_fract_x
_atom_site_fract_y
_atom_site_fract_z
Zn1	Zn	1.073671	-0.291740	-0.396909
Zn2	Zn	1.573671	0.208260	0.103091
Zn3	Zn	1.073578	-0.397006	-0.291631
Zn4	Zn	1.573578	0.102994	0.208369
Zn5	Zn	0.956227	-0.287261	-0.287170
Zn6	Zn	1.456227	0.212739	0.212830
Zn7	Zn	0.956176	-0.392476	-0.392380
Zn8	Zn	1.456176	0.107524	0.107620
O9	O	1.014913	-0.342121	-0.342022
O10	O	1.514913	0.157879	0.157978
O11	O	1.171942	-0.309475	-0.386706
O12	O	1.671942	0.190525	0.113294
O13	O	1.057994	-0.382469	-0.202949
O14	O	1.557994	0.117531	0.297051
O15	O	0.971866	-0.199768	-0.301755
O16	O	1.471866	0.300232	0.198245
O17	O	1.171874	-0.386813	-0.309359
O18	O	1.671874	0.113187	0.190641
O19	O	1.058151	-0.203059	-0.382380
O20	O	1.558151	0.296941	0.117620
O21	O	0.971777	-0.301840	-0.199671
O22	O	1.471777	0.198160	0.300329
O23	O	0.857936	-0.297447	-0.297363
O24	O	1.357936	0.202553	0.202637
O25	O	0.971779	-0.379092	-0.481071
O26	O	1.471779	0.120908	0.018929
O27	O	0.857899	-0.374748	-0.374661
O28	O	1.357899	0.125252	0.125339
O29	O	1.058102	-0.305082	-0.484398
O30	O	1.558102	0.194918	0.015602
O31	O	1.057945	-0.484492	-0.304967
O32	O	1.557945	0.015508	0.195033
O33	O	0.971690	-0.481164	-0.378987
O34	O	1.471690	0.018836	0.121013
C35	C	0.832434	-0.335120	-0.335037
C36	C	1.332434	0.164880	0.164963
C37	C	0.754369	-0.332141	-0.332063
C38	C	1.254369	0.167859	0.167937
C39	C	0.717692	-0.371048	-0.370848
C40	C	1.217692	0.128952	0.129152
C41	C	0.644342	-0.368240	-0.368057
C42	C	1.144342	0.131760	0.131943
C43	C	0.607668	-0.326527	-0.326478
C44	C	1.107668	0.173473	0.173522
C45	C	0.644350	-0.287616	-0.287692
C46	C	1.144350	0.212384	0.212308
C47	C	0.717699	-0.290421	-0.290486
C48	C	1.217699	0.209579	0.209514
C49	C	0.386201	-0.316038	-0.316033
C50	C	0.886201	0.183962	0.183967
C51	C	0.312846	-0.313237	-0.313240
C52	C	0.812846	0.186763	0.186760
C53	C	0.312843	-0.393861	-0.393606
C54	C	0.812843	0.106139	0.106394
C55	C	0.386194	-0.396665	-0.396394
C56	C	0.886194	0.103335	0.103606
C57	C	0.422869	-0.357751	-0.357610
C58	C	0.922869	0.142249	0.142390
C59	C	0.532692	-0.323657	-0.323623
C60	C	1.032692	0.176343	0.176377
C61	C	0.497844	-0.360618	-0.360469
C62	C	0.997844	0.139382	0.139531
C63	C	1.014821	-0.505669	-0.341984
C64	C	1.514821	-0.005669	0.158016
C65	C	1.014846	-0.575638	-0.341991
C66	C	1.514846	-0.075638	0.158009
C67	C	1.059799	-0.610218	-0.303492
C68	C	1.559799	-0.110218	0.196508
C69	C	1.059832	-0.675962	-0.303507
C70	C	1.559832	-0.175962	0.196493
C71	C	1.014899	-0.707122	-0.342015
C72	C	1.514899	-0.207122	0.157985
C73	C	0.969943	-0.672534	-0.380522
C74	C	1.469943	-0.172534	0.119478
C75	C	0.969917	-0.606792	-0.380510
C76	C	1.469917	-0.106792	0.119490
N77	N	0.953459	-0.808035	-0.344462
N78	N	1.453459	-0.308035	0.155538
N79	N	0.953486	-0.870488	-0.344469
N80	N	1.453486	-0.370488	0.155531
C81	C	1.014978	-0.905200	-0.342054
C82	C	1.514978	-0.405200	0.157946
N83	N	1.076443	-0.875101	-0.339618
N84	N	1.576443	-0.375101	0.160382
N85	N	1.076415	-0.812643	-0.339607
N86	N	1.576415	-0.312643	0.160393
C87	C	1.014923	-0.778409	-0.342032
C88	C	1.514923	-0.278409	0.157968
C89	C	1.059970	-1.011068	-0.303569
C90	C	1.559970	-0.511068	0.196431
C91	C	1.060004	-1.076813	-0.303589
C92	C	1.560004	-0.576813	0.196411
C93	C	0.970110	-1.073383	-0.380600
C94	C	1.470110	-0.573383	0.119400
C95	C	0.970082	-1.007640	-0.380584
C96	C	1.470082	-0.507640	0.119416
C97	C	1.015011	-0.976486	-0.342065
C98	C	1.515011	-0.476486	0.157935
C99	C	1.198105	-0.349149	-0.349036
C100	C	1.698105	0.150851	0.150964
C101	C	1.276170	-0.352144	-0.352024
C102	C	1.776170	0.147856	0.147976
C103	C	1.014945	-0.342081	-0.506214
C104	C	1.514945	0.157919	-0.006214
C105	C	1.014959	-0.342065	-0.576183
C106	C	1.514959	0.157935	-0.076183
C107	C	1.015025	-0.177935	-0.342075
C108	C	1.515025	0.322065	0.157925
C109	C	1.015072	-0.107968	-0.342098
C110	C	1.515072	0.392032	0.157902
C111	C	1.059974	-0.303430	-1.077377
C112	C	1.559974	0.196570	-0.577377
C113	C	1.059969	-0.303445	-1.011634
C114	C	1.559969	0.196555	-0.511634
C115	C	1.015020	-0.341984	-0.977025
C116	C	1.515020	0.158016	-0.477025
C117	C	0.970086	-0.380522	-1.008163
C118	C	1.470086	0.119478	-0.508163
C119	C	0.970098	-0.380510	-1.073905
C120	C	1.470098	0.119490	-0.573905
N121	N	0.953520	-0.344472	-0.871447
N122	N	1.453520	0.155528	-0.371447
N123	N	0.953511	-0.344479	-0.808996
N124	N	1.453511	0.155521	-0.308996
C125	C	1.014983	-0.342022	-0.778948
C126	C	1.514983	0.157978	-0.278948
N127	N	1.076467	-0.339544	-0.813712
N128	N	1.576467	0.160456	-0.313712
N129	N	1.076475	-0.339533	-0.876170
N130	N	1.576475	0.160467	-0.376170
C131	C	1.015003	-0.342001	-0.905738
C132	C	1.515003	0.157999	-0.405738
C133	C	1.059912	-0.303506	-0.676532
C134	C	1.559912	0.196494	-0.176532
C135	C	1.059907	-0.303525	-0.610788
C136	C	1.559907	0.196475	-0.110788
C137	C	0.970019	-0.380598	-0.607318
C138	C	1.470019	0.119402	-0.107318
C139	C	0.970029	-0.380582	-0.673061
C140	C	1.470029	0.119418	-0.173061
C141	C	1.014975	-0.342032	-0.707664
C142	C	1.514975	0.157968	-0.207664
C143	C	1.014921	-0.342116	-0.178471
C144	C	1.514921	0.157884	0.321529
C145	C	1.015044	-0.341961	-0.108508
C146	C	1.515044	0.158039	0.391492
H147	H	0.416048	-0.430633	-0.430251
H148	H	0.916048	0.069367	0.069749
H149	H	0.747560	-0.258735	-0.258907
H150	H	1.247560	0.241265	0.241093
H151	H	1.096615	-1.104967	-0.272240
H152	H	1.596615	-0.604967	0.227760
H153	H	0.527706	-0.394578	-0.394325
H154	H	1.027706	0.105422	0.105675
F155	F	1.107831	-0.262423	-1.114201
F156	F	1.607831	0.237577	-0.614201
H157	H	0.933528	-1.098753	-0.411957
H158	H	1.433528	-0.598753	0.088043
F159	F	0.493656	-0.279265	-0.279372
F160	F	0.993656	0.220735	0.220628
F161	F	0.922233	-0.970835	-0.421558
F162	F	1.422233	-0.470835	0.078442
H163	H	1.096556	-0.272067	-0.986282
H164	H	1.596556	0.227933	-0.486282
F165	F	0.605318	-0.243217	-0.243444
F166	F	1.105318	0.256783	0.256556
H167	H	0.933310	-0.578636	-0.411861
H168	H	1.433310	-0.078636	0.088139
H169	H	0.933490	-0.411901	-0.979980
H170	H	1.433490	0.088099	-0.479980
F171	F	0.922275	-0.421522	-1.107038
F172	F	1.422275	0.078478	-0.607038
H173	H	1.096508	-0.272116	-0.704707
H174	H	1.596508	0.227884	-0.204707
H175	H	0.614483	-0.399923	-0.399639
H176	H	1.114483	0.100077	0.100361
H177	H	1.096500	-0.272151	-0.585442
H178	H	1.596500	0.227849	-0.085442
H179	H	0.282974	-0.425541	-0.425182
H180	H	0.782974	0.074459	0.074818
F181	F	1.107624	-0.577066	-0.262504
F182	F	1.607624	-0.077066	0.237496
F183	F	0.425224	-0.274620	-0.274757
F184	F	0.925224	0.225380	0.225243
F185	F	0.922187	-0.421620	-0.570488
F186	F	1.422187	0.078380	-0.070488
F187	F	0.756716	-0.415448	-0.415099
F188	F	1.256716	0.084552	0.084901
H189	H	0.933439	-0.411955	-0.698408
H190	H	1.433439	0.088045	-0.198408
H191	H	0.282989	-0.279262	-0.279385
H192	H	0.782989	0.220738	0.220615
F193	F	0.922126	-0.705698	-0.421507
F194	F	1.422126	-0.205698	0.078493
H195	H	1.096440	-0.704123	-0.272157
H196	H	1.596440	-0.204123	0.227843
F197	F	1.107787	-0.977909	-0.262574
F198	F	1.607787	-0.477909	0.237426
