data_functionalizedCrystal
_audit_creation_method	'MofGen! by Chris Wilmer'
_symmetry_space_group_name_H-M	'P1'
_symmetry_Int_Tables_number	1
_symmetry_cell_setting	triclinic
loop_
_symmetry_equiv_pos_as_xyz
  x,y,z
_cell_length_a	10.908937
_cell_length_b	12.996460
_cell_length_c	11.026623
_cell_angle_alpha	89.995715
_cell_angle_beta	95.663670
_cell_angle_gamma	90.007756
loop_
_atom_site_label
_atom_site_type_symbol
_atom_site_fract_x
_atom_site_fract_y
_atom_site_fract_z
O1	O	1.662449	0.085597	0.179056
O2	O	1.309517	0.085592	0.088520
O3	O	1.456732	0.085589	0.304538
O4	O	1.515235	0.085600	-0.036962
O5	O	1.456710	-0.085545	0.304544
O6	O	1.309496	-0.085542	0.088526
O7	O	1.662427	-0.085537	0.179062
Cu8	Cu	1.485960	-0.101165	0.133795
Cu9	Cu	1.485985	0.101220	0.133788
O10	O	1.515213	-0.085534	-0.036956
C11	C	1.263621	0.000024	0.080062
C12	C	1.126895	0.000022	0.054865
N13	N	1.485950	-0.243512	0.133802
C14	C	0.915316	0.000039	0.120775
C15	C	1.056630	0.000025	0.146820
C16	C	1.485984	-0.663327	0.133786
C17	C	1.485972	-0.546522	0.133786
C18	C	1.485968	-0.453423	0.133793
C19	C	1.485954	-0.336611	0.133795
C20	C	1.708324	0.000033	0.187520
C21	C	1.845050	0.000041	0.212717
C22	C	1.445928	0.000022	0.347574
C23	C	1.413754	0.000024	0.475796
N24	N	1.486002	0.243567	0.133791
C25	C	1.502588	0.000027	0.567527
C26	C	1.469338	0.000029	0.700052
C27	C	1.526015	0.000033	0.920008
C28	C	1.558184	0.000031	0.791785
H29	H	1.101086	0.000024	0.244824
H30	H	0.870855	0.000053	0.022779
H31	H	0.889512	0.000040	0.310714
H32	H	1.082440	0.000033	-0.043139
O33	O	1.622628	-0.000019	0.543972
C34	C	1.765217	0.000044	0.390412
C35	C	1.629220	0.000071	0.416910
H36	H	1.770591	0.000139	0.287684
H37	H	1.812890	-0.071592	0.431905
H38	H	1.812856	0.071647	0.432044
H39	H	1.581476	-0.071483	0.375280
H40	H	1.581639	0.071755	0.375441
H41	H	1.658862	0.000110	0.772217
O42	O	1.349291	-0.000015	0.723600
C43	C	1.206702	0.000055	0.877161
C44	C	1.342699	0.000080	0.850663
H45	H	1.201328	0.000154	0.979888
H46	H	1.159006	-0.071582	0.835682
H47	H	1.159086	0.071657	0.835513
H48	H	1.390421	-0.071473	0.892306
H49	H	1.390303	0.071764	0.892117
H50	H	1.313084	0.000029	0.495372
