data_functionalizedCrystal
_audit_creation_method	'MofGen! by Chris Wilmer'
_symmetry_space_group_name_H-M	'P1'
_symmetry_Int_Tables_number	1
_symmetry_cell_setting	triclinic
loop_
_symmetry_equiv_pos_as_xyz
  x,y,z
_cell_length_a	10.686220
_cell_length_b	12.759394
_cell_length_c	10.686551
_cell_angle_alpha	85.593446
_cell_angle_beta	90.308082
_cell_angle_gamma	94.396533
loop_
_atom_site_label
_atom_site_type_symbol
_atom_site_fract_x
_atom_site_fract_y
_atom_site_fract_z
Zn1	Zn	1.972288	-0.256139	-0.562381
Zn2	Zn	1.956059	-0.446299	-0.352619
Zn3	Zn	1.746406	-0.283015	-0.368698
Zn4	Zn	1.762489	-0.444170	-0.578397
O5	O	1.859311	-0.357405	-0.465524
O6	O	2.145677	-0.271007	-0.521124
O7	O	1.914725	-0.436778	-0.179206
O8	O	1.776431	-0.132423	-0.394417
O9	O	2.133754	-0.410717	-0.367013
O10	O	1.942386	-0.112677	-0.536715
O11	O	1.760695	-0.316813	-0.191020
O12	O	1.572998	-0.314749	-0.409947
O13	O	1.803842	-0.407088	-0.751818
O14	O	1.584814	-0.433149	-0.564012
O15	O	1.957980	-0.268943	-0.740052
O16	O	1.930320	-0.593043	-0.382543
O17	O	1.788105	-0.591479	-0.548421
C18	C	1.533390	-0.376635	-0.490463
C19	C	1.393962	-0.384885	-0.501162
C20	C	1.859233	-0.630379	-0.465499
C21	C	1.859318	-0.747149	-0.465522
C22	C	2.007536	-0.748709	-0.292904
C23	C	2.081679	-0.804347	-0.206608
C24	C	2.081755	-0.914062	-0.206636
C25	C	2.007683	-0.968141	-0.292973
C26	C	1.933540	-0.912503	-0.379270
C27	C	1.933469	-0.802786	-0.379229
C28	C	1.785331	-0.910942	-0.551891
C29	C	1.785246	-0.801228	-0.551859
C30	C	1.711259	-0.965022	-0.638228
C31	C	1.637107	-0.909384	-0.724521
C32	C	1.637033	-0.799663	-0.724488
C33	C	1.711103	-0.745590	-0.638155
C34	C	2.186504	-0.338102	-0.440489
C35	C	2.325934	-0.329875	-0.429820
C36	C	1.884515	-0.334780	-0.792725
C37	C	1.895256	-0.325138	-0.932158
C38	C	1.859425	-0.083362	-0.465573
C39	C	1.859473	0.033420	-0.465595
C40	C	1.834276	-0.379863	-0.139591
C41	C	1.823778	-0.389194	-0.000139
H42	H	1.374359	-0.276469	-0.360555
H43	H	1.576811	-0.953424	-0.794814
C44	C	2.163155	-0.744857	-0.111643
C45	C	2.101230	-0.679524	-0.017247
C46	C	2.182711	-0.620036	0.077712
C47	C	2.326116	-0.625881	0.078276
C48	C	2.388049	-0.691217	-0.016124
C49	C	2.306568	-0.750704	-0.111083
H50	H	1.995066	-0.675195	-0.017661
H51	H	2.136863	-0.571671	0.147593
H52	H	2.386433	-0.581845	0.148570
H53	H	2.494213	-0.695546	-0.015710
H54	H	2.352416	-0.799070	-0.180964
H55	H	1.345530	-0.438301	-0.570423
H56	H	1.711332	-1.054357	-0.638250
H57	H	1.964678	-0.262921	-0.980633
C58	C	1.730001	-0.473248	-0.934671
C59	C	1.741550	-0.590862	-0.951760
C60	C	1.647771	-0.674918	-0.886283
C61	C	1.542443	-0.641360	-0.803716
C62	C	1.530890	-0.523740	-0.786623
C63	C	1.624669	-0.439684	-0.852101
H64	H	1.819523	-0.615710	-1.012884
H65	H	1.656324	-0.761988	-0.898936
H66	H	1.473022	-0.703583	-0.755246
H67	H	1.452916	-0.498893	-0.725499
H68	H	1.616116	-0.352614	-0.839447
C69	C	2.163307	-0.975271	-0.111709
C70	C	2.244783	-0.915797	-0.016743
C71	C	2.326333	-0.977006	0.078184
C72	C	2.326408	-1.097689	0.078146
C73	C	2.244929	-1.157170	-0.016823
C74	C	2.163379	-1.095960	-0.111751
H75	H	2.244731	-0.826455	-0.016712
H76	H	2.386649	-0.932974	0.148487
H77	H	2.386776	-1.143000	0.148417
H78	H	2.244981	-1.246512	-0.016854
H79	H	2.103063	-1.139992	-0.182053
H80	H	2.007464	-0.659376	-0.292858
H81	H	2.007763	-1.057476	-0.292999
H82	H	1.711041	-0.656256	-0.638113
H83	H	1.576663	-0.754368	-0.794765
