data_functionalizedCrystal
_audit_creation_method	'MofGen! by Chris Wilmer'
_symmetry_space_group_name_H-M	'P1'
_symmetry_Int_Tables_number	1
_symmetry_cell_setting	triclinic
loop_
_symmetry_equiv_pos_as_xyz
  x,y,z
_cell_length_a	16.109301
_cell_length_b	19.188924
_cell_length_c	14.586319
_cell_angle_alpha	89.994381
_cell_angle_beta	89.999035
_cell_angle_gamma	83.301723
loop_
_atom_site_label
_atom_site_type_symbol
_atom_site_fract_x
_atom_site_fract_y
_atom_site_fract_z
O1	O	1.102831	0.089744	-0.076187
O2	O	0.860732	0.100912	-0.076202
O3	O	0.988771	-0.006311	-0.076183
O4	O	0.974792	0.196968	-0.076205
O5	O	0.988761	-0.006312	0.076298
O6	O	0.860722	0.100911	0.076279
O7	O	1.102822	0.089743	0.076294
Cu8	Cu	0.981771	0.095327	0.090209
Cu9	Cu	0.981782	0.095328	-0.090117
O10	O	0.974783	0.196967	0.076275
C11	C	0.829754	0.100460	0.000037
C12	C	0.737463	0.099103	0.000032
C13	C	0.988314	-0.032324	0.000058
C14	C	0.986958	-0.109832	0.000061
C15	C	0.514988	0.159574	0.000035
C16	C	0.428272	0.158294	0.000041
C17	C	0.448572	0.031077	0.000052
C18	C	0.535286	0.032357	0.000052
C19	C	0.568492	0.096608	0.000039
C20	C	0.395061	0.094047	0.000045
C21	C	0.301040	0.092659	0.000051
C22	C	0.662519	0.097996	0.000035
C23	C	0.986331	-0.146232	-0.083057
C24	C	0.985045	-0.219058	-0.083064
C25	C	0.984403	-0.255483	0.000051
C26	C	0.985026	-0.219073	0.083180
C27	C	0.986304	-0.146248	0.083184
N28	N	1.029706	-0.375040	0.061915
N29	N	1.028494	-0.444221	0.061905
C30	C	0.980552	-0.474901	0.000042
N31	N	0.933878	-0.433786	-0.061824
N32	N	0.935094	-0.364599	-0.061816
C33	C	0.983017	-0.334449	0.000055
C34	C	0.978529	-0.590266	-0.083089
C35	C	0.977238	-0.663093	-0.083092
C36	C	0.977228	-0.663108	0.083154
C37	C	0.978511	-0.590282	0.083155
C38	C	0.979165	-0.553866	0.000031
C39	C	1.133800	0.090196	0.000054
C40	C	1.226090	0.091552	0.000053
C41	C	0.975239	0.222979	0.000032
C42	C	0.976595	0.300487	0.000024
N43	N	0.981769	0.095326	0.217041
C44	C	1.038483	0.047864	0.452056
C45	C	1.038485	0.047862	0.548037
C46	C	0.925068	0.142792	0.548030
C47	C	0.925062	0.142789	0.452050
C48	C	0.981775	0.095326	0.404066
C49	C	0.981782	0.095327	0.596027
C50	C	0.981784	0.095326	0.700094
C51	C	0.981772	0.095326	0.299992
N52	N	0.981787	0.095328	0.783051
H53	H	0.384712	0.209568	0.000040
H54	H	0.986812	-0.116611	0.150871
C55	C	0.412043	-0.039597	0.000054
C56	C	0.316661	-0.041009	0.000047
C57	C	0.280135	-0.111684	0.000045
C58	C	0.338990	-0.180946	0.000051
C59	C	0.434378	-0.179536	0.000058
C60	C	0.470904	-0.108861	0.000060
H61	H	0.273088	0.010265	0.000042
H62	H	0.209522	-0.112728	0.000040
H63	H	0.311951	-0.233264	0.000050
H64	H	0.477951	-0.230810	0.000063
H65	H	0.541517	-0.107818	0.000065
H66	H	0.578852	-0.018921	0.000058
H67	H	0.878879	0.181439	0.412974
H68	H	0.986861	-0.116586	-0.150743
H69	H	0.542021	0.211891	0.000032
H70	H	0.878895	0.181436	0.587108
C71	C	0.979213	-0.550240	0.174588
C72	C	0.907913	-0.492231	0.197453
C73	C	0.908613	-0.452190	0.288891
C74	C	0.980614	-0.470159	0.357466
C75	C	1.051920	-0.528171	0.334603
C76	C	1.051220	-0.568212	0.243165
H77	H	0.854609	-0.478927	0.146688
H78	H	0.855827	-0.409246	0.305815
H79	H	0.981132	-0.440518	0.425154
H80	H	1.105224	-0.541475	0.385368
H81	H	1.104006	-0.611156	0.226241
C82	C	0.984359	-0.259112	-0.174497
C83	C	1.056726	-0.257044	-0.243055
C84	C	1.056043	-0.297097	-0.334486
C85	C	0.982992	-0.339217	-0.357359
C86	C	0.910619	-0.341287	-0.288799
C87	C	0.911303	-0.301234	-0.197368
H88	H	1.110808	-0.225862	-0.226124
H89	H	1.109618	-0.295564	-0.385238
H90	H	0.982485	-0.368867	-0.425041
H91	H	0.856537	-0.372468	-0.305729
H92	H	0.857728	-0.302766	-0.146616
C93	C	0.984323	-0.259138	0.174608
C94	C	0.982923	-0.339243	0.174608
C95	C	0.982215	-0.379306	0.266039
C96	C	0.982907	-0.339263	0.357472
C97	C	0.984306	-0.259153	0.357476
C98	C	0.985014	-0.219090	0.266044
H99	H	0.982411	-0.368889	0.106921
H100	H	0.981179	-0.438609	0.266036
H101	H	0.982382	-0.368920	0.425155
H102	H	0.984818	-0.229507	0.425163
H103	H	0.986050	-0.159787	0.266048
H104	H	0.976722	-0.692728	-0.150779
C105	C	0.979242	-0.550202	-0.174521
C106	C	0.978540	-0.590244	-0.265953
C107	C	0.979254	-0.550182	-0.357385
C108	C	0.980670	-0.470078	-0.357385
C109	C	0.981372	-0.430032	-0.265949
C110	C	0.980658	-0.470094	-0.174517
H111	H	0.977492	-0.649545	-0.265956
H112	H	0.978735	-0.579827	-0.425072
H113	H	0.981199	-0.440422	-0.425068
H114	H	0.982420	-0.370730	-0.265945
H115	H	0.981177	-0.440448	-0.106830
C116	C	1.100867	-0.004345	0.600827
C117	C	1.163253	-0.056545	0.548044
C118	C	1.225638	-0.108755	0.600834
C119	C	1.225636	-0.108765	0.706408
C120	C	1.163248	-0.056564	0.759197
C121	C	1.100863	-0.004353	0.706407
H122	H	1.163257	-0.056539	0.469887
H123	H	1.271822	-0.147398	0.561756
H124	H	1.271816	-0.147414	0.745487
H125	H	1.163244	-0.056570	0.837355
H126	H	1.054679	0.034290	0.745486
C127	C	0.976526	-0.703160	0.174588
C128	C	0.903469	-0.745281	0.197454
C129	C	0.902765	-0.785334	0.288893
C130	C	0.975117	-0.783266	0.357468
C131	C	1.048179	-0.741144	0.334604
C132	C	1.048883	-0.701091	0.243164
H133	H	0.849905	-0.746813	0.146689
H134	H	0.848680	-0.816515	0.305818
H135	H	0.974596	-0.812916	0.425157
H136	H	1.101743	-0.739612	0.385368
H137	H	1.102969	-0.669910	0.226239
C138	C	1.100859	-0.004350	0.399272
C139	C	1.099753	-0.083857	0.412484
C140	C	1.162128	-0.136074	0.359704
C141	C	1.225610	-0.108784	0.293712
C142	C	1.226718	-0.029272	0.280497
C143	C	1.164342	0.022945	0.333277
H144	H	1.052758	-0.104063	0.461338
H145	H	1.161307	-0.194934	0.369487
H146	H	1.271784	-0.147438	0.254641
H147	H	1.273713	-0.009066	0.231643
H148	H	1.165163	0.081805	0.323495
