data_functionalizedCrystal
_audit_creation_method	'MofGen! by Chris Wilmer'
_symmetry_space_group_name_H-M	'P1'
_symmetry_Int_Tables_number	1
_symmetry_cell_setting	triclinic
loop_
_symmetry_equiv_pos_as_xyz
  x,y,z
_cell_length_a	16.959455
_cell_length_b	16.959453
_cell_length_c	16.959447
_cell_angle_alpha	90.031571
_cell_angle_beta	90.014322
_cell_angle_gamma	90.019673
loop_
_atom_site_label
_atom_site_type_symbol
_atom_site_fract_x
_atom_site_fract_y
_atom_site_fract_z
Zn1	Zn	1.208369	-0.314730	0.446902
Zn2	Zn	1.541703	0.018603	0.780235
Zn3	Zn	1.875036	0.351936	1.113568
Zn4	Zn	1.208286	-0.446923	0.314720
Zn5	Zn	1.541619	-0.113589	0.648054
Zn6	Zn	1.874952	0.219744	0.981387
Zn7	Zn	1.076198	-0.314755	0.314739
Zn8	Zn	1.409531	0.018578	0.648073
Zn9	Zn	1.742864	0.351912	0.981406
Zn10	Zn	1.076156	-0.446864	0.446859
Zn11	Zn	1.409490	-0.113530	0.780192
Zn12	Zn	1.742823	0.219803	1.113526
O13	O	1.142252	-0.380818	0.380805
O14	O	1.475585	-0.047485	0.714138
O15	O	1.808919	0.285849	1.047472
O16	O	1.318969	-0.332280	0.429378
O17	O	1.652302	0.001053	0.762711
O18	O	1.985636	0.334386	1.096044
O19	O	1.190746	-0.429426	0.204112
O20	O	1.524080	-0.096092	0.537445
O21	O	1.857413	0.237241	0.870779
O22	O	1.093783	-0.204141	0.332297
O23	O	1.427116	0.129192	0.665630
O24	O	1.760449	0.462526	0.998963
O25	O	1.318908	-0.429402	0.332265
O26	O	1.652241	-0.096068	0.665598
O27	O	1.985574	0.237265	0.998931
O28	O	1.190889	-0.204123	0.429396
O29	O	1.524222	0.129211	0.762729
O30	O	1.857555	0.462544	1.096063
O31	O	1.093702	-0.332323	0.204126
O32	O	1.427035	0.001011	0.537459
O33	O	1.760368	0.334344	0.870793
O34	O	0.965581	-0.332265	0.332255
O35	O	1.298915	0.001068	0.665589
O36	O	1.632248	0.334401	0.998922
O37	O	1.093712	-0.429301	0.557476
O38	O	1.427046	-0.095968	0.890809
O39	O	1.760379	0.237366	1.224142
O40	O	0.965551	-0.429325	0.429323
O41	O	1.298884	-0.095992	0.762656
O42	O	1.632218	0.237342	1.095990
O43	O	1.190849	-0.332223	0.557507
O44	O	1.524182	0.001110	0.890840
O45	O	1.857515	0.334444	1.224174
O46	O	1.190706	-0.557526	0.332223
O47	O	1.524039	-0.224193	0.665556
O48	O	1.857373	0.109141	0.998890
O49	O	1.093631	-0.557482	0.429305
O50	O	1.426964	-0.224149	0.762638
O51	O	1.760298	0.109184	1.095971
C52	C	0.936886	-0.380792	0.380787
C53	C	1.270219	-0.047459	0.714120
C54	C	1.603553	0.285875	1.047454
C55	C	0.849029	-0.380800	0.380798
C56	C	1.182363	-0.047466	0.714131
C57	C	1.515696	0.285867	1.047465
C58	C	1.142176	-0.586184	0.380774
C59	C	1.475510	-0.252851	0.714108
C60	C	1.808843	0.080482	1.047441
C61	C	1.142216	-0.674041	0.380788
C62	C	1.475550	-0.340708	0.714121
C63	C	1.808883	-0.007374	1.047454
C64	C	0.477545	-0.330238	0.330367
C65	C	0.810878	0.003096	0.663701
C66	C	1.144212	0.336429	0.997034
C67	C	0.477562	-0.431463	0.431288
C68	C	0.810896	-0.098130	0.764621
C69	C	1.144229	0.235203	1.097955
C70	C	0.560108	-0.431452	0.431283
C71	C	0.893441	-0.098119	0.764616
C72	C	1.226775	0.235215	1.097950
C73	C	0.601376	-0.380834	0.380819
C74	C	0.934710	-0.047500	0.714152
C75	C	1.268043	0.285833	1.047486
C76	C	0.560099	-0.330226	0.330359
C77	C	0.893432	0.003107	0.663693
C78	C	1.226765	0.336440	0.997026
C79	C	0.601392	-0.482064	0.481736
C80	C	0.934725	-0.148731	0.815069
C81	C	1.268059	0.184603	1.148403
C82	C	0.683943	-0.482055	0.481733
C83	C	1.017276	-0.148722	0.815066
C84	C	1.350610	0.184611	1.148399
C85	C	0.725213	-0.431432	0.431272
C86	C	1.058546	-0.098099	0.764605
C87	C	1.391879	0.235234	1.097938
C88	C	0.683930	-0.380822	0.380811
C89	C	1.017263	-0.047489	0.714144
C90	C	1.350597	0.285844	1.047477
C91	C	0.725198	-0.330204	0.330347
C92	C	1.058531	0.003129	0.663680
C93	C	1.391865	0.336463	0.997013
C94	C	0.683917	-0.279589	0.279889
C95	C	1.017250	0.053744	0.613222
C96	C	1.350583	0.387077	0.946556
C97	C	0.601368	-0.279603	0.279899
C98	C	0.934702	0.053730	0.613232
C99	C	1.268035	0.387063	0.946565
C100	C	0.807761	-0.431418	0.431262
C101	C	1.141094	-0.098085	0.764596
C102	C	1.474428	0.235248	1.097929
C103	C	0.807752	-0.330193	0.330339
C104	C	1.141085	0.003141	0.663672
C105	C	1.474418	0.336474	0.997005
C106	C	1.091719	-0.715393	0.330197
C107	C	1.425052	-0.382059	0.663530
C108	C	1.758386	-0.048726	0.996863
C109	C	1.192747	-0.715243	0.431396
C110	C	1.526081	-0.381909	0.764729
C111	C	1.859414	-0.048576	1.098063
C112	C	1.192784	-0.797789	0.431413
C113	C	1.526117	-0.464455	0.764746
C114	C	1.859451	-0.131122	1.098080
C115	C	1.142287	-0.839140	0.380822
C116	C	1.475620	-0.505807	0.714155
C117	C	1.808954	-0.172474	1.047489
C118	C	1.091753	-0.797946	0.330214
C119	C	1.425086	-0.464613	0.663547
C120	C	1.758420	-0.131279	0.996881
C121	C	1.243312	-0.838989	0.482026
C122	C	1.576645	-0.505656	0.815359
C123	C	1.909978	-0.172322	1.148693
C124	C	1.243350	-0.921540	0.482046
C125	C	1.576683	-0.588207	0.815379
C126	C	1.910017	-0.254873	1.148712
C127	C	1.192856	-0.962893	0.431450
C128	C	1.526190	-0.629560	0.764784
C129	C	1.859523	-0.296226	1.098117
C130	C	1.142321	-0.921694	0.380839
C131	C	1.475654	-0.588360	0.714173
C132	C	1.808987	-0.255027	1.047506
C133	C	1.091823	-0.963045	0.330248
C134	C	1.425157	-0.629712	0.663582
C135	C	1.758490	-0.296379	0.996915
C136	C	1.041291	-0.921848	0.279633
C137	C	1.374625	-0.588514	0.612966
C138	C	1.707958	-0.255181	0.946300
C139	C	1.041259	-0.839299	0.279618
C140	C	1.374592	-0.505966	0.612952
C141	C	1.707926	-0.172633	0.946285
C142	C	1.192888	-1.045441	0.431465
C143	C	1.526222	-0.712108	0.764798
C144	C	1.859555	-0.378775	1.098131
C145	C	1.091857	-1.045599	0.330266
C146	C	1.425190	-0.712266	0.663599
C147	C	1.758524	-0.378932	0.996932
C148	C	1.348420	-0.380845	0.380824
C149	C	1.681754	-0.047511	0.714157
C150	C	2.015087	0.285822	1.047490
C151	C	1.436277	-0.380856	0.380832
C152	C	1.769610	-0.047523	0.714165
C153	C	2.102944	0.285811	1.047498
C154	C	1.142285	-0.380753	0.586973
C155	C	1.475618	-0.047419	0.920307
C156	C	1.808952	0.285914	1.253640
C157	C	1.142299	-0.380725	0.674830
C158	C	1.475632	-0.047391	1.008163
C159	C	1.808966	0.285942	1.341497
C160	C	1.142350	-0.174650	0.380853
C161	C	1.475683	0.158684	0.714187
C162	C	1.809016	0.492017	1.047520
C163	C	1.142391	-0.086793	0.380874
C164	C	1.475725	0.246540	0.714207
C165	C	1.809058	0.579874	1.047541
C166	C	1.142265	-0.380826	0.175439
C167	C	1.475598	-0.047493	0.508772
C168	C	1.808932	0.285841	0.842106
C169	C	1.142404	-0.380631	0.087583
C170	C	1.475737	-0.047298	0.420916
C171	C	1.809071	0.286035	0.754249
C172	C	1.091819	-0.431185	1.046292
C173	C	1.425152	-0.097852	1.379625
C174	C	1.758486	0.235481	1.712959
C175	C	1.192968	-0.330097	1.046320
C176	C	1.526301	0.003236	1.379653
C177	C	1.859635	0.336569	1.712986
C178	C	1.192947	-0.330114	0.963774
C179	C	1.526280	0.003219	1.297107
C180	C	1.859614	0.336553	1.630441
C181	C	1.142362	-0.380668	0.922483
C182	C	1.475695	-0.047335	1.255817
C183	C	1.809029	0.285999	1.589150
C184	C	1.091798	-0.431205	0.963738
C185	C	1.425131	-0.097872	1.297072
C186	C	1.758465	0.235461	1.630405
C187	C	1.243516	-0.279584	0.922513
C188	C	1.576849	0.053750	1.255846
C189	C	1.910182	0.387083	1.589179
C190	C	1.243497	-0.279599	0.839962
C191	C	1.576831	0.053734	1.173295
C192	C	1.910164	0.387068	1.506628
C193	C	1.192908	-0.330149	0.798669
C194	C	1.526241	0.003184	1.132003
C195	C	1.859574	0.336517	1.465336
C196	C	1.142341	-0.380688	0.839930
C197	C	1.475674	-0.047355	1.173263
C198	C	1.809008	0.285979	1.506596
C199	C	1.091756	-0.431242	0.798639
C200	C	1.425089	-0.097909	1.131972
C201	C	1.758423	0.235425	1.465306
C202	C	1.041185	-0.481777	0.839898
C203	C	1.374518	-0.148444	1.173231
C204	C	1.707852	0.184890	1.506564
C205	C	1.041209	-0.481756	0.922446
C206	C	1.374542	-0.148422	1.255780
C207	C	1.707875	0.184911	1.589113
C208	C	1.192884	-0.330171	0.716121
C209	C	1.526217	0.003163	1.049454
C210	C	1.859551	0.336496	1.382787
C211	C	1.091735	-0.431262	0.716085
C212	C	1.425068	-0.097929	1.049419
C213	C	1.758402	0.235405	1.382752
H214	H	0.841346	-0.288968	0.289249
H215	H	1.174680	0.044366	0.622582
H216	H	1.508013	0.377699	0.955915
H217	H	1.050643	-0.472328	1.079889
H218	H	1.383976	-0.138994	1.413222
H219	H	1.717310	0.194339	1.746555
H220	H	1.050738	-1.079262	0.289065
H221	H	1.384071	-0.745928	0.622399
H222	H	1.717405	-0.412595	0.955732
H223	H	1.000039	-0.522901	0.956046
H224	H	1.333372	-0.189568	1.289380
H225	H	1.666705	0.143765	1.622713
N226	N	0.728458	-0.536644	0.536155
N227	N	1.061791	-0.203311	0.869488
N228	N	1.395125	0.130022	1.202821
H229	H	0.714110	-0.524439	0.592653
H230	H	1.047443	-0.191105	0.925986
H231	H	1.380776	0.142228	1.259319
H232	H	0.787001	-0.528934	0.528431
H233	H	1.120334	-0.195601	0.861764
H234	H	1.453668	0.137733	1.195098
H235	H	0.567750	-0.238397	0.238818
H236	H	0.901083	0.094937	0.572151
H237	H	1.234417	0.428270	0.905485
N238	N	1.298034	-0.225086	0.795472
N239	N	1.631367	0.108247	1.128805
N240	N	1.964700	0.441581	1.462139
H241	H	1.265917	-0.188459	0.761238
H242	H	1.599250	0.144874	1.094571
H243	H	1.932583	0.478207	1.427904
H244	H	1.334632	-0.257271	0.761254
H245	H	1.667965	0.076062	1.094587
H246	H	2.001298	0.409396	1.427921
H247	H	1.234156	-0.288943	1.079944
H248	H	1.567490	0.044390	1.413277
H249	H	1.900823	0.377724	1.746610
H250	H	1.050579	-0.681847	0.288984
H251	H	1.383912	-0.348514	0.622317
H252	H	1.717245	-0.015181	0.955651
H253	H	0.717528	-0.238379	0.238798
H254	H	1.050862	0.094954	0.572131
H255	H	1.384195	0.428287	0.905464
H256	H	1.284704	-0.238430	0.956137
H257	H	1.618037	0.094903	1.289471
H258	H	1.951371	0.428236	1.622804
H259	H	1.284498	-0.955076	0.523258
H260	H	1.617832	-0.621743	0.856591
H261	H	1.951165	-0.288409	1.189925
N262	N	0.433028	-0.275662	0.275934
N263	N	0.766361	0.057671	0.609267
N264	N	1.099695	0.391005	0.942600
H265	H	0.374471	-0.283350	0.283589
H266	H	0.707804	0.049983	0.616922
H267	H	1.041138	0.383316	0.950256
H268	H	0.447444	-0.287911	0.219465
H269	H	0.780777	0.045423	0.552798
H270	H	1.114110	0.378756	0.886131
N271	N	0.986826	-0.966451	0.225069
N272	N	1.320160	-0.633118	0.558402
N273	N	1.653493	-0.299785	0.891736
H274	H	0.994518	-1.024996	0.232766
H275	H	1.327851	-0.691662	0.566099
H276	H	1.661184	-0.358329	0.899432
H277	H	0.999168	-0.952062	0.168626
H278	H	1.332502	-0.618728	0.501959
H279	H	1.665835	-0.285395	0.835292
H280	H	1.284421	-0.805318	0.523220
H281	H	1.617754	-0.471984	0.856553
H282	H	1.951088	-0.138651	1.189886
N283	N	0.986757	-0.794857	0.225041
N284	N	1.320091	-0.461524	0.558375
N285	N	1.653424	-0.128190	0.891708
H286	H	0.930279	-0.809257	0.237266
H287	H	1.263612	-0.475924	0.570600
H288	H	1.596945	-0.142590	0.903933
H289	H	0.999144	-0.809265	0.168599
H290	H	1.332477	-0.475932	0.501932
H291	H	1.665810	-0.142599	0.835265
H292	H	0.443957	-0.472679	0.472369
H293	H	0.777290	-0.139346	0.805702
H294	H	1.110623	0.193987	1.139036
H295	H	1.234060	-0.289028	0.682532
H296	H	1.567394	0.044305	1.015865
H297	H	1.900727	0.377639	1.349198
H298	H	0.841369	-0.472630	0.472341
H299	H	1.174702	-0.139297	0.805675
H300	H	1.508035	0.194037	1.139008
N301	N	0.556884	-0.536664	0.536154
N302	N	0.890218	-0.203331	0.869488
N303	N	1.223551	0.130003	1.202821
H304	H	0.498327	-0.528988	0.528504
H305	H	0.831660	-0.195655	0.861837
H306	H	1.164993	0.137679	1.195170
H307	H	0.571335	-0.524436	0.592628
H308	H	0.904668	-0.191102	0.925962
H309	H	1.238002	0.142231	1.259295
H310	H	1.000002	-0.522942	0.806268
H311	H	1.333336	-0.189608	1.139601
H312	H	1.666669	0.143725	1.472935
H313	H	1.050535	-0.472422	0.682472
H314	H	1.383868	-0.139089	1.015806
H315	H	1.717202	0.194244	1.349139
H316	H	1.233857	-0.681572	0.472590
H317	H	1.567190	-0.348238	0.805923
H318	H	1.900523	-0.014905	1.139256
N319	N	1.247376	-1.089877	0.486057
N320	N	1.580709	-0.756544	0.819390
N321	N	1.914043	-0.423210	1.152723
H322	H	1.279356	-1.051155	0.518107
H323	H	1.612689	-0.717822	0.851440
H324	H	1.946023	-0.384488	1.184773
H325	H	1.283997	-1.124124	0.453929
H326	H	1.617330	-0.790791	0.787263
H327	H	1.950664	-0.457457	1.120596
