data_functionalizedCrystal
_audit_creation_method	'MofGen! by Chris Wilmer'
_symmetry_space_group_name_H-M	'P1'
_symmetry_Int_Tables_number	1
_symmetry_cell_setting	triclinic
loop_
_symmetry_equiv_pos_as_xyz
  x,y,z
_cell_length_a	10.489716
_cell_length_b	10.489741
_cell_length_c	9.565339
_cell_angle_alpha	89.999484
_cell_angle_beta	89.996780
_cell_angle_gamma	95.465845
loop_
_atom_site_label
_atom_site_type_symbol
_atom_site_fract_x
_atom_site_fract_y
_atom_site_fract_z
O1	O	1.694071	-0.179810	-0.116248
O2	O	1.322871	-0.196735	-0.116253
O3	O	1.516918	-0.002674	-0.116242
O4	O	1.500025	-0.373871	-0.116259
O5	O	1.516902	-0.002686	0.116278
O6	O	1.322856	-0.196747	0.116267
O7	O	1.694056	-0.179822	0.116272
Zn8	Zn	1.508453	-0.188286	0.153187
Zn9	Zn	1.508474	-0.188271	-0.153168
O10	O	1.500009	-0.373883	0.116261
C11	C	1.275332	-0.195470	0.000006
C12	C	1.133701	-0.191665	0.000005
C13	C	1.036027	-0.310669	-0.000004
C14	C	0.958673	-0.247791	0.114650
C15	C	0.958695	-0.247751	-0.114597
C16	C	1.058213	-0.128836	0.114753
C17	C	1.058240	-0.128814	-0.114597
C18	C	0.980935	-0.065848	0.000085
C19	C	1.515634	0.044852	0.000017
C20	C	1.511817	0.186481	0.000015
C21	C	1.741596	-0.181087	0.000010
C22	C	1.883227	-0.184892	0.000002
N23	N	1.508449	-0.188297	0.362267
C24	C	1.501293	-0.421409	-0.000001
C25	C	1.505110	-0.563038	-0.000008
C26	C	1.388351	0.254610	0.000003
C27	C	1.446668	0.346732	0.114648
C28	C	1.446712	0.346718	-0.114599
C29	C	1.570184	0.276737	0.114754
C30	C	1.570212	0.276714	-0.114595
C31	C	1.628618	0.368808	0.000078
N32	N	1.508488	-0.188250	-0.362247
C33	C	1.418681	-0.278013	0.453465
C34	C	1.534180	-0.303814	0.546644
C35	C	1.393001	-0.162506	0.546643
C36	C	1.624006	-0.214155	0.453394
C37	C	1.482750	-0.072797	0.453385
C38	C	1.598332	-0.098549	0.546522
H39	H	0.956505	0.037744	0.000156
H40	H	1.394420	0.377734	0.211571
H41	H	1.295352	-0.140714	0.587606
C42	C	1.765867	0.435602	0.000164
H43	H	1.809506	0.411648	0.081678
H44	H	1.810062	0.410571	-0.080501
H45	H	1.762701	0.525808	-0.000599
H46	H	1.101522	-0.078633	0.211779
H47	H	1.721677	-0.236065	0.412606
C48	C	1.117036	-0.061009	-0.245535
H49	H	1.082807	-0.103434	-0.326919
H50	H	1.097237	0.025489	-0.246357
H51	H	1.207347	-0.063283	-0.244128
H52	H	1.460952	0.024827	0.412389
H53	H	1.622374	0.245905	0.211787
H54	H	1.060696	-0.414185	0.000098
H55	H	1.622415	0.245679	-0.211523
H56	H	1.394461	0.377683	-0.211532
H57	H	1.342838	-0.353954	0.412605
C58	C	1.563573	-0.435728	0.602004
H59	H	1.499699	-0.499397	0.570154
H60	H	1.644982	-0.454658	0.568711
H61	H	1.564138	-0.434517	0.701311
H62	H	1.674346	-0.022655	0.587125
H63	H	0.915184	-0.298033	0.211574
C64	C	0.899967	-0.315626	-0.245530
H65	H	0.857315	-0.256631	-0.299517
H66	H	0.965952	-0.347165	-0.299876
H67	H	0.840379	-0.384956	-0.217962
C68	C	1.251224	0.187513	0.000153
H69	H	1.207560	0.211322	0.081713
H70	H	1.206923	0.212475	-0.080464
H71	H	1.254599	0.097335	-0.000667
