data_functionalizedCrystal
_audit_creation_method	'MofGen! by Chris Wilmer'
_symmetry_space_group_name_H-M	'P1'
_symmetry_Int_Tables_number	1
_symmetry_cell_setting	triclinic
loop_
_symmetry_equiv_pos_as_xyz
  x,y,z
_cell_length_a	12.759401
_cell_length_b	12.594516
_cell_length_c	12.759393
_cell_angle_alpha	89.969150
_cell_angle_beta	89.981425
_cell_angle_gamma	90.012242
loop_
_atom_site_label
_atom_site_type_symbol
_atom_site_fract_x
_atom_site_fract_y
_atom_site_fract_z
Zn1	Zn	1.606276	-0.423667	-0.593990
Zn2	Zn	1.606179	-0.601686	-0.418313
Zn3	Zn	1.430578	-0.423723	-0.418329
Zn4	Zn	1.430575	-0.601605	-0.593954
O5	O	1.518402	-0.512670	-0.506147
O6	O	1.753284	-0.447292	-0.570695
O7	O	1.582846	-0.578137	-0.271294
O8	O	1.453926	-0.274770	-0.441653
O9	O	1.753213	-0.578082	-0.441625
O10	O	1.583011	-0.274728	-0.570711
O11	O	1.453833	-0.447388	-0.271306
O12	O	1.283557	-0.447309	-0.441618
O13	O	1.453922	-0.577943	-0.740980
O14	O	1.283555	-0.577998	-0.570649
O15	O	1.583008	-0.447213	-0.741007
O16	O	1.582844	-0.750621	-0.441590
O17	O	1.453828	-0.750561	-0.570633
C18	C	1.245435	-0.512652	-0.506132
C19	C	1.128658	-0.512670	-0.506150
C20	C	1.073834	-0.444690	-0.573460
C21	C	0.964110	-0.444701	-0.573467
C22	C	0.964044	-0.580680	-0.438851
C23	C	1.073766	-0.580663	-0.438840
C24	C	1.518354	-0.789211	-0.506128
C25	C	1.518429	-0.907517	-0.506156
C26	C	1.588682	-0.976764	-0.436044
C27	C	1.614357	-1.047455	-0.531937
C28	C	1.492885	-1.047624	-0.410324
C29	C	1.544153	-0.976650	-0.602098
C30	C	1.422636	-0.976813	-0.480421
C31	C	1.448275	-1.047472	-0.576380
C32	C	1.792435	-0.512689	-0.506162
C33	C	1.909212	-0.512698	-0.506169
C34	C	1.518476	-0.512563	-0.780180
C35	C	1.518507	-0.512517	-0.896957
C36	C	1.518480	-0.235049	-0.506188
C37	C	1.518513	-0.116744	-0.506206
C38	C	1.451354	-0.444424	-0.951825
C39	C	1.451378	-0.444391	-1.061549
C40	C	1.585718	-0.580547	-1.061528
C41	C	1.585687	-0.580585	-0.951805
C42	C	1.518390	-0.512701	-0.233179
C43	C	1.518562	-0.512447	-0.116403
H44	H	0.919477	-0.389344	-0.628276
H45	H	0.919338	-0.636039	-0.384050
C46	C	1.377445	-0.369556	-0.891495
N47	N	1.321771	-0.313166	-0.846058
H48	H	1.118405	-0.636021	-0.384022
C49	C	1.377510	-0.369477	-1.121898
N50	N	1.321871	-0.313047	-1.167353
C51	C	1.313183	-0.934843	-0.450933
N52	N	1.230744	-0.903226	-0.428710
H53	H	1.640415	-0.635965	-1.106199
C54	C	1.659584	-0.655477	-0.891447
N55	N	1.715246	-0.711878	-0.845985
H56	H	1.695403	-1.078488	-0.553731
C57	C	1.573523	-0.934716	-0.711643
N58	N	1.595649	-0.903129	-0.794149
H59	H	1.118524	-0.389323	-0.628266
C60	C	1.668955	-0.934805	-0.356024
N61	N	1.729419	-0.903196	-0.295760
C62	C	1.463645	-1.089733	-0.300810
N63	N	1.441628	-1.121445	-0.218321
C64	C	1.368060	-1.089152	-0.656598
N65	N	1.307645	-1.120545	-0.717021
