data_functionalizedCrystal
_audit_creation_method	'MofGen! by Chris Wilmer'
_symmetry_space_group_name_H-M	'P1'
_symmetry_Int_Tables_number	1
_symmetry_cell_setting	triclinic
loop_
_symmetry_equiv_pos_as_xyz
  x,y,z
_cell_length_a	13.897449
_cell_length_b	13.897448
_cell_length_c	13.897431
_cell_angle_alpha	90.075904
_cell_angle_beta	90.049745
_cell_angle_gamma	90.018972
loop_
_atom_site_label
_atom_site_type_symbol
_atom_site_fract_x
_atom_site_fract_y
_atom_site_fract_z
Zn1	Zn	-1.474979	0.383520	-0.545382
Zn2	Zn	-1.474791	0.544969	-0.384083
Zn3	Zn	-1.313586	0.383693	-0.384100
Zn4	Zn	-1.313650	0.544778	-0.545336
O5	O	-1.394252	0.464240	-0.464725
O6	O	-1.609936	0.404944	-0.523998
O7	O	-1.453302	0.523728	-0.249104
O8	O	-1.335047	0.248689	-0.405521
O9	O	-1.609798	0.523560	-0.405492
O10	O	-1.453622	0.248561	-0.524014
O11	O	-1.334865	0.405239	-0.249116
O12	O	-1.178613	0.405054	-0.405476
O13	O	-1.335155	0.523234	-0.680324
O14	O	-1.178660	0.523403	-0.523936
O15	O	-1.453683	0.404759	-0.680358
O16	O	-1.453363	0.679925	-0.405447
O17	O	-1.334973	0.679785	-0.523919
C18	C	-1.143637	0.464227	-0.464703
C19	C	-1.036423	0.464245	-0.464717
C20	C	-1.394181	0.714855	-0.464698
C21	C	-1.394239	0.822068	-0.464718
C22	C	-1.394447	0.463956	-0.716319
C23	C	-1.394531	0.463835	-0.823533
C24	C	-1.645844	0.464254	-0.464748
C25	C	-1.753058	0.464260	-0.464758
C26	C	-0.840128	0.464248	-0.464742
C27	C	-0.949361	0.464244	-0.464725
C28	C	-1.394349	0.212647	-0.464775
C29	C	-1.394390	0.105433	-0.464796
C30	C	-1.394341	1.018363	-0.464778
C31	C	-1.394282	0.909131	-0.464748
C32	C	-1.394112	0.464454	-0.214111
C33	C	-1.394215	0.464303	-0.106897
C34	C	-1.394315	0.464166	-0.019828
C35	C	-1.394438	0.463985	0.089404
