data_functionalizedCrystal
_audit_creation_method	'MofGen! by Chris Wilmer'
_symmetry_space_group_name_H-M	'P1'
_symmetry_Int_Tables_number	1
_symmetry_cell_setting	triclinic
loop_
_symmetry_equiv_pos_as_xyz
  x,y,z
_cell_length_a	15.297475
_cell_length_b	15.297510
_cell_length_c	14.908308
_cell_angle_alpha	77.689833
_cell_angle_beta	84.138747
_cell_angle_gamma	88.372274
loop_
_atom_site_label
_atom_site_type_symbol
_atom_site_fract_x
_atom_site_fract_y
_atom_site_fract_z
Zn1	Zn	1.224171	0.619141	-0.828674
Zn2	Zn	1.207217	0.759609	-0.699188
Zn3	Zn	1.089525	0.585457	-0.648745
Zn4	Zn	1.052886	0.739768	-0.819903
O5	O	1.143450	0.675994	-0.749127
O6	O	1.342860	0.660175	-0.836279
O7	O	1.199843	0.730714	-0.566676
O8	O	1.129815	0.466560	-0.655173
O9	O	1.330404	0.763376	-0.741146
O10	O	1.228739	0.491307	-0.787366
O11	O	1.113376	0.602765	-0.529616
O12	O	0.963727	0.583526	-0.646668
O13	O	1.067369	0.729560	-0.946886
O14	O	0.936809	0.696897	-0.772417
O15	O	1.193212	0.640936	-0.953331
O16	O	1.164316	0.880342	-0.732641
O17	O	1.050930	0.865765	-0.821330
C18	C	0.918910	0.634404	-0.703118
C19	C	0.822846	0.616634	-0.683459
C20	C	1.101830	0.905046	-0.781532
C21	C	1.084101	1.003052	-0.795441
C22	C	1.128095	0.686792	-0.983645
C23	C	1.121551	0.691394	-1.083582
C24	C	0.496052	0.803004	-0.889635
C25	C	0.586308	0.819706	-0.908104
C26	C	0.645447	0.768940	-0.851945
C27	C	0.614321	0.701468	-0.777313
C28	C	0.524055	0.684769	-0.758838
C29	C	0.673450	0.650705	-0.721147
C30	C	0.642324	0.583233	-0.646515
C31	C	0.552067	0.566537	-0.628044
C32	C	0.492929	0.617303	-0.684203
C33	C	0.763716	0.667404	-0.739622
C34	C	0.791719	0.549168	-0.608824
C35	C	0.701463	0.532466	-0.590355
C36	C	1.368866	0.717746	-0.795318
C37	C	1.464925	0.735538	-0.815001
C38	C	1.270446	1.309589	-0.650141
C39	C	1.287102	1.217508	-0.637068
C40	C	1.236354	1.163889	-0.676660
C41	C	1.168945	1.202361	-0.729327
C42	C	1.152283	1.294451	-0.742395
C43	C	1.118191	1.148751	-0.768915
C44	C	1.050782	1.187223	-0.821581
C45	C	1.034123	1.279303	-0.834648
C46	C	1.084872	1.332922	-0.795056
C47	C	1.134853	1.056661	-0.755846
C48	C	1.016690	1.041523	-0.848101
C49	C	1.000034	1.133604	-0.861174
C50	C	1.185246	1.446051	-0.716629
C51	C	1.203035	1.348060	-0.702801
C52	C	1.240296	0.607736	-1.278083
C53	C	1.234151	0.612057	-1.371983
C54	C	1.103113	0.704351	-1.365282
C55	C	1.109258	0.700030	-1.271382
C56	C	1.177853	0.651722	-1.227786
C57	C	1.184000	0.647406	-1.133886
C58	C	1.052960	0.739695	-1.127185
C59	C	1.046815	0.744016	-1.221085
C60	C	1.158807	0.665183	-0.515524
C61	C	1.165563	0.660364	-0.415586
H62	H	0.789049	0.722339	-0.800389
C63	C	0.667838	0.459149	-0.509308
C64	C	0.738941	0.418245	-0.464087
C65	C	0.708001	0.350695	-0.389431
H66	H	0.629093	0.484390	-0.467539
H67	H	0.637373	0.415820	-0.531115
H68	H	0.769392	0.461566	-0.442279
H69	H	0.777693	0.392985	-0.505830
H70	H	0.677535	0.307366	-0.411238
H71	H	0.669256	0.375943	-0.347669
H72	H	0.756239	0.322927	-0.358744
C73	C	0.431983	0.858235	-0.950688
C74	C	0.478555	0.920905	-1.019996
C75	C	0.419563	0.971808	-1.076255
H76	H	0.400303	0.819958	-0.978040
H77	H	0.392061	0.888546	-0.914483
H78	H	0.518461	0.890596	-1.056196
H79	H	0.510233	0.959202	-0.992671
H80	H	0.379640	1.002119	-1.040050
H81	H	0.387885	0.933524	-1.103600
H82	H	0.451152	1.014341	-1.123282
C83	C	0.985019	0.787376	-1.072649
C84	C	0.901502	0.753410	-1.075273
C85	C	0.838895	0.797319	-1.025054
H86	H	0.998377	0.777917	-1.010452
H87	H	0.985835	0.849667	-1.099015
H88	H	0.900688	0.691135	-1.048905
H89	H	0.888116	0.762869	-1.137457
H90	H	0.839711	0.859610	-1.051419
H91	H	0.852262	0.787858	-0.962861
H92	H	0.782221	0.774286	-1.026835
H93	H	1.047267	0.743681	-1.400794
H94	H	1.239854	0.608073	-1.098392
H95	H	0.611644	0.874644	-0.968868
H96	H	1.189738	1.025346	-0.712964
C97	C	0.743436	0.787148	-0.871842
C98	C	0.774832	0.811101	-0.795483
C99	C	0.865096	0.827892	-0.813790
H100	H	0.773265	0.734825	-0.883594
H101	H	0.753538	0.834631	-0.924302
H102	H	0.764737	0.763622	-0.743039
H103	H	0.745028	0.863428	-0.783720
H104	H	0.875198	0.875374	-0.866250
H105	H	0.894916	0.775566	-0.825542
H106	H	0.886408	0.844153	-0.761988
C107	C	0.394953	0.599024	-0.664225
C108	C	0.378801	0.510673	-0.669343
C109	C	0.288553	0.493815	-0.650963
H110	H	0.375466	0.607659	-0.604144
H111	H	0.364176	0.638880	-0.708383
H112	H	0.409567	0.470829	-0.625188
H113	H	0.398267	0.502017	-0.729418
H114	H	0.257777	0.533671	-0.695120
H115	H	0.269074	0.502454	-0.590882
H116	H	0.277582	0.433871	-0.654441
H117	H	1.341985	1.186187	-0.594186
C118	C	0.518223	0.493441	-0.546883
C119	C	0.461159	0.531058	-0.485609
C120	C	0.429984	0.463761	-0.410815
H121	H	0.487660	0.450099	-0.568549
H122	H	0.566354	0.465625	-0.516032
H123	H	0.413036	0.558860	-0.516455
H124	H	0.491702	0.574392	-0.463919
H125	H	0.478114	0.435945	-0.379965
H126	H	0.399425	0.420423	-0.432490
H127	H	0.391269	0.489275	-0.369228
H128	H	0.839871	0.507831	-0.563093
C129	C	1.314808	0.555211	-1.230900
C130	C	1.368171	0.517600	-1.295044
C131	C	1.436814	0.469199	-1.251611
H132	H	1.348822	0.594141	-1.206751
H133	H	1.291155	0.508948	-1.182082
H134	H	1.391823	0.563858	-1.343845
H135	H	1.334183	0.478658	-1.319197
H136	H	1.413161	0.422936	-1.202793
H137	H	1.470821	0.508134	-1.227463
H138	H	1.473024	0.443668	-1.295123
C139	C	0.972467	0.796601	-1.268516
C140	C	1.007606	0.864659	-1.340427
C141	C	0.939144	0.913128	-1.384131
H142	H	0.938501	0.757694	-1.292746
H143	H	0.936163	0.822237	-1.225150
H144	H	1.043896	0.839024	-1.383785
H145	H	1.041565	0.903586	-1.316222
H146	H	0.902839	0.938764	-1.340765
H147	H	0.905181	0.874214	-1.408355
H148	H	0.962975	0.959316	-1.432922
C149	C	1.254606	1.063940	-0.662407
C150	C	1.324516	1.041727	-0.607832
C151	C	1.341368	0.949662	-0.594696
H152	H	1.203701	1.032013	-0.632407
H153	H	1.269536	1.048485	-0.720524
H154	H	1.309582	1.057173	-0.549726
H155	H	1.375434	1.073631	-0.637817
H156	H	1.356298	0.934207	-0.652812
H157	H	1.290459	0.917744	-0.564697
H158	H	1.388808	0.934580	-0.557673
H159	H	1.311753	1.353252	-0.617904
H160	H	1.071316	1.407903	-0.805699
C161	C	0.926730	1.175237	-0.918253
C162	C	0.846560	1.136172	-0.877936
C163	C	0.779017	1.174493	-0.930498
H164	H	0.923954	1.237752	-0.920399
H165	H	0.938064	1.165201	-0.979113
H166	H	0.835229	1.146215	-0.817093
H167	H	0.849307	1.073660	-0.875791
H168	H	0.790351	1.164456	-0.991358
H169	H	0.776249	1.237006	-0.932641
H170	H	0.724615	1.147987	-0.903156
C171	C	0.961038	1.321051	-0.891988
C172	C	0.978038	1.306192	-0.981626
C173	C	0.910738	1.344644	-1.034477
H174	H	0.906520	1.294692	-0.864871
H175	H	0.958383	1.383584	-0.894164
H176	H	0.980684	1.243671	-0.979447
H177	H	1.032544	1.332552	-1.008770
H178	H	0.908082	1.407177	-1.036653
H179	H	0.856225	1.318282	-1.007352
H180	H	0.922267	1.334574	-1.095305
H181	H	0.975365	0.997867	-0.880338
H182	H	1.284997	0.576236	-1.412931
