data_functionalizedCrystal
_audit_creation_method	'MofGen! by Chris Wilmer'
_symmetry_space_group_name_H-M	'P1'
_symmetry_Int_Tables_number	1
_symmetry_cell_setting	triclinic
loop_
_symmetry_equiv_pos_as_xyz
  x,y,z
_cell_length_a	13.032831
_cell_length_b	12.645330
_cell_length_c	13.032268
_cell_angle_alpha	82.850170
_cell_angle_beta	89.113023
_cell_angle_gamma	82.817539
loop_
_atom_site_label
_atom_site_type_symbol
_atom_site_fract_x
_atom_site_fract_y
_atom_site_fract_z
Zn1	Zn	1.498542	-0.715935	0.780840
Zn2	Zn	1.998542	-0.215935	1.280840
Zn3	Zn	1.520298	-0.873883	0.608861
Zn4	Zn	2.020298	-0.373883	1.108861
Zn5	Zn	1.348397	-0.671650	0.587081
Zn6	Zn	1.848397	-0.171650	1.087081
Zn7	Zn	1.326546	-0.868151	0.758987
Zn8	Zn	1.826546	-0.368151	1.258987
O9	O	1.423446	-0.782405	0.683942
O10	O	1.923446	-0.282405	1.183942
O11	O	1.645351	-0.757820	0.776288
O12	O	2.145351	-0.257820	1.276288
O13	O	1.515745	-0.830921	0.462055
O14	O	2.015745	-0.330921	0.962055
O15	O	1.368353	-0.529186	0.612814
O16	O	1.868353	-0.029186	1.112814
O17	O	1.661335	-0.873863	0.649936
O18	O	2.161335	-0.373863	1.149936
O19	O	1.478665	-0.561723	0.755168
O20	O	1.978665	-0.061723	1.255168
O21	O	1.389449	-0.682341	0.446053
O22	O	1.889449	-0.182341	0.946053
O23	O	1.201576	-0.676784	0.591623
O24	O	1.701576	-0.176784	1.091623
O25	O	1.331112	-0.864094	0.905802
O26	O	1.831112	-0.364094	1.405802
O27	O	1.185522	-0.821152	0.717922
O28	O	1.685522	-0.321152	1.217922
O29	O	1.457477	-0.752262	0.921858
O30	O	1.957477	-0.252262	1.421858
O31	O	1.494557	-1.021461	0.628745
O32	O	1.994557	-0.521461	1.128745
O33	O	1.352208	-1.017250	0.739042
O34	O	1.852208	-0.517250	1.239042
C35	C	1.156231	-0.743541	0.650038
C36	C	1.656231	-0.243541	1.150038
C37	C	1.041913	-0.726944	0.635559
C38	C	1.541913	-0.226944	1.135559
C39	C	0.983042	-0.791068	0.691499
C40	C	1.483042	-0.291068	1.191499
C41	C	0.864888	-0.773915	0.676535
C42	C	1.364888	-0.273915	1.176535
C43	C	1.423397	-1.057824	0.683911
C44	C	1.923397	-0.557824	1.183911
C45	C	1.423466	-1.175668	0.683945
C46	C	1.923466	-0.675668	1.183945
C47	C	1.512911	-1.345800	0.614380
C48	C	2.012911	-0.845800	1.114380
C49	C	1.513145	-1.223299	0.614607
C50	C	2.013145	-0.723299	1.114607
C51	C	1.439086	-1.236505	0.796075
C52	C	1.939086	-0.736505	1.296075
C53	C	1.439769	-1.359147	0.795732
C54	C	1.939769	-0.859147	1.295732
C55	C	1.318235	-1.324073	0.642444
C56	C	1.818235	-0.824073	1.142444
C57	C	1.319065	-1.201271	0.640079
C58	C	1.819065	-0.701271	1.140079
C59	C	1.691704	-0.821421	0.717979
C60	C	2.191704	-0.321421	1.217979
C61	C	1.806019	-0.838047	0.732484
C62	C	2.306019	-0.338047	1.232484
C63	C	1.389430	-0.812479	0.952190
C64	C	1.889430	-0.312479	1.452190
C65	C	1.374935	-0.825295	1.066501
C66	C	1.874935	-0.325295	1.566501
C67	C	1.423520	-0.505916	0.683999
C68	C	1.923520	-0.005916	1.183999
C69	C	1.423551	-0.388094	0.684024
C70	C	1.923551	0.111906	1.184024
C71	C	1.457388	-0.752380	0.416746
C72	C	1.957388	-0.252380	0.916746
C73	C	1.472083	-0.739295	0.302461
C74	C	1.972083	-0.239295	0.802461
C75	C	1.430995	-0.775676	1.125408
C76	C	1.930995	-0.275676	1.625408
C77	C	1.416015	-0.788920	1.243555
C78	C	1.916015	-0.288920	1.743555
H79	H	0.843084	-0.905645	0.791466
H80	H	1.343084	-0.405645	1.291466
H81	H	1.020114	-0.858662	0.750474
H82	H	1.520114	-0.358662	1.250474
Cl83	Cl	1.283702	-0.906016	1.123669
Cl84	Cl	1.783702	-0.406016	1.623669
H85	H	1.514708	-1.219839	0.829971
H86	H	2.014708	-0.719839	1.329971
Cl87	Cl	0.807665	-0.669535	0.585486
Cl88	Cl	1.307665	-0.169535	1.085486
H89	H	1.504968	-1.181590	0.531896
H90	H	2.004968	-0.681590	1.031896
H91	H	1.004840	-0.659342	0.576591
H92	H	1.504840	-0.159342	1.076591
Cl93	Cl	1.563329	-0.658579	1.245301
Cl94	Cl	2.063329	-0.158579	1.745301
Cl95	Cl	1.500698	-1.373371	0.486359
Cl96	Cl	2.000698	-0.873371	0.986359
H97	H	1.590788	-1.390227	0.642715
H98	H	2.090788	-0.890227	1.142715
Cl99	Cl	1.292203	-1.352472	0.517293
Cl100	Cl	1.792203	-0.852472	1.017293
Cl101	Cl	1.634006	-1.199168	0.658764
Cl102	Cl	2.134006	-0.699168	1.158764
H103	H	1.516339	-1.401869	0.829350
H104	H	2.016339	-0.901869	1.329350
Cl105	Cl	1.342485	-1.403220	0.879710
Cl106	Cl	1.842485	-0.903220	1.379710
H107	H	1.375385	-1.206078	0.849946
H108	H	1.875385	-0.706078	1.349946
Cl109	Cl	1.300488	-1.137679	0.512575
Cl110	Cl	1.800488	-0.637679	1.012575
Cl111	Cl	1.212446	-1.149378	0.710941
Cl112	Cl	1.712446	-0.649378	1.210941
H113	H	1.251824	-1.351023	0.693000
H114	H	1.751824	-0.851023	1.193000
H115	H	1.490077	-0.723386	1.088373
H116	H	1.990077	-0.223386	1.588373
Cl117	Cl	1.324778	-0.869645	1.300719
Cl118	Cl	1.824778	-0.369645	1.800719
