data_functionalizedCrystal
_audit_creation_method	'MofGen! by Chris Wilmer'
_symmetry_space_group_name_H-M	'P1'
_symmetry_Int_Tables_number	1
_symmetry_cell_setting	triclinic
loop_
_symmetry_equiv_pos_as_xyz
  x,y,z
_cell_length_a	12.645331
_cell_length_b	12.645330
_cell_length_c	21.395355
_cell_angle_alpha	89.985534
_cell_angle_beta	89.975263
_cell_angle_gamma	90.011625
loop_
_atom_site_label
_atom_site_type_symbol
_atom_site_fract_x
_atom_site_fract_y
_atom_site_fract_z
Zn1	Zn	1.620790	-0.422191	-0.354282
Zn2	Zn	1.620681	-0.599440	-0.249512
Zn3	Zn	1.443498	-0.422188	-0.249519
Zn4	Zn	1.443502	-0.599410	-0.354252
O5	O	1.532118	-0.510807	-0.301891
O6	O	1.769123	-0.445717	-0.340394
O7	O	1.597130	-0.575939	-0.161835
O8	O	1.467060	-0.273841	-0.263431
O9	O	1.769043	-0.575942	-0.263420
O10	O	1.597316	-0.273843	-0.340400
O11	O	1.466955	-0.445712	-0.161840
O12	O	1.295151	-0.445683	-0.263402
O13	O	1.467067	-0.575890	-0.441934
O14	O	1.295154	-0.575887	-0.340349
O15	O	1.597320	-0.445688	-0.441956
O16	O	1.597134	-0.747783	-0.263391
O17	O	1.466961	-0.747761	-0.340343
C18	C	1.256688	-0.510782	-0.301873
C19	C	1.138858	-0.510797	-0.301880
C20	C	1.532065	-0.786237	-0.301876
C21	C	1.532139	-0.904067	-0.301891
C22	C	0.971257	-0.428509	-0.253740
C23	C	1.093817	-0.428722	-0.253528
C24	C	1.094346	-0.622464	-0.283843
C25	C	0.971748	-0.622015	-0.283514
C26	C	0.971710	-0.482480	-0.368244
C27	C	1.094316	-0.479985	-0.367876
C28	C	1.613899	-1.071601	-0.253382
C29	C	1.614165	-0.949041	-0.253501
C30	C	1.562443	-0.948474	-0.367936
C31	C	1.563092	-1.071072	-0.367678
C32	C	1.420043	-1.071386	-0.285006
C33	C	1.420580	-0.948781	-0.283525
C34	C	1.808623	-0.510833	-0.301910
C35	C	1.926453	-0.510844	-0.301918
C36	C	1.532206	-0.510786	-0.465315
C37	C	1.532243	-0.510777	-0.534956
C38	C	1.532200	-0.234302	-0.301920
C39	C	1.532235	-0.116472	-0.301932
C40	C	1.600063	-0.442978	-0.567681
C41	C	1.600061	-0.442932	-0.633117
C42	C	1.532251	-0.510704	-0.665824
C43	C	1.464419	-0.578508	-0.633091
C44	C	1.464414	-0.578544	-0.567656
C45	C	1.523862	-0.606157	-0.769494
C46	C	1.523874	-0.606122	-0.834927
C47	C	1.532258	-0.510592	-0.867645
C48	C	1.540653	-0.415094	-0.834922
C49	C	1.540649	-0.415130	-0.769488
C50	C	1.532248	-0.510672	-0.736777
C51	C	1.600080	-0.442738	-0.971323
C52	C	1.600071	-0.442691	-1.036760
C53	C	1.464434	-0.578276	-1.036732
C54	C	1.464437	-0.578314	-0.971297
C55	C	1.532266	-0.510547	-0.938596
C56	C	1.532091	-0.510752	-0.139104
C57	C	1.532259	-0.510463	-0.069463
H58	H	1.123911	-0.345915	-0.264834
H59	H	1.547481	-0.337304	-0.861560
N60	N	1.487738	-1.110398	-0.417230
H61	H	1.430762	-1.154847	-0.397092
H62	H	1.454325	-1.048036	-0.439128
N63	N	1.514833	-0.709200	-0.734207
H64	H	1.509532	-0.769690	-0.764864
H65	H	1.579428	-0.719050	-0.707079
H66	H	1.655304	-0.387552	-0.944697
H67	H	1.655293	-0.387795	-0.541061
N68	N	1.486067	-0.909878	-0.417140
H69	H	1.507063	-0.939390	-0.459213
H70	H	1.412251	-0.934320	-0.406324
N71	N	0.932210	-0.318490	-0.268543
H72	H	0.885097	-0.320947	-0.306622
H73	H	0.890856	-0.290185	-0.231783
H74	H	1.643524	-0.917693	-0.382512
N75	N	1.391262	-0.651589	-0.668363
H76	H	1.401553	-0.641277	-0.714782
H77	H	1.407722	-0.727313	-0.656936
N78	N	1.589063	-0.909263	-0.188634
H79	H	1.577724	-0.971370	-0.159705
H80	H	1.649907	-0.864982	-0.172826
H81	H	1.696550	-1.102337	-0.264452
H82	H	1.356451	-0.918178	-0.316293
H83	H	1.123413	-0.397811	-0.381477
H84	H	1.655286	-0.387716	-0.659767
H85	H	1.409183	-0.633753	-0.541011
N86	N	1.383530	-1.112418	-0.222322
H87	H	1.379354	-1.192149	-0.223642
H88	H	1.435405	-1.090021	-0.188974
N89	N	1.514818	-0.709119	-0.870216
H90	H	1.516101	-0.694603	-0.916632
H91	H	1.576103	-0.756529	-0.858792
H92	H	1.125001	-0.646934	-0.235875
H93	H	1.397730	-0.919766	-0.234921
H94	H	1.359196	-1.100406	-0.320367
N95	N	0.930012	-0.452762	-0.189063
H96	H	0.882476	-0.516885	-0.190830
H97	H	0.991341	-0.467332	-0.160092
N98	N	0.930777	-0.376509	-0.389979
H99	H	0.882473	-0.345813	-0.357047
H100	H	0.992277	-0.327013	-0.397191
N101	N	1.549701	-0.312133	-0.734199
H102	H	1.488417	-0.264679	-0.745569
H103	H	1.548460	-0.326741	-0.687794
N104	N	1.132597	-0.453549	-0.188421
H105	H	1.105583	-0.525359	-0.175270
H106	H	1.212462	-0.453730	-0.188054
N107	N	1.724232	-0.910085	-0.268336
H108	H	1.724864	-0.830217	-0.268473
H109	H	1.775173	-0.936986	-0.235652
N110	N	1.671722	-1.108860	-0.386654
H111	H	1.718737	-1.045879	-0.395108
H112	H	1.703068	-1.152710	-0.351825
H113	H	1.655296	-0.387475	-1.063404
N114	N	1.134923	-0.553628	-0.417972
H115	H	1.182981	-0.608253	-0.398509
H116	H	1.073258	-0.590165	-0.438782
H117	H	0.942111	-0.685436	-0.317074
N118	N	0.933342	-0.561913	-0.415797
H119	H	0.886873	-0.616013	-0.394515
H120	H	0.891474	-0.524264	-0.449267
N121	N	1.589098	-1.110704	-0.188320
H122	H	1.524690	-1.157892	-0.189682
H123	H	1.651370	-1.151988	-0.171658
H124	H	1.409211	-0.633447	-1.063362
H125	H	1.123523	-0.685449	-0.317832
H126	H	0.943101	-0.646071	-0.235026
H127	H	1.409217	-0.633530	-0.944651
