data_functionalizedCrystal
_audit_creation_method	'MofGen! by Chris Wilmer'
_symmetry_space_group_name_H-M	'P1'
_symmetry_Int_Tables_number	1
_symmetry_cell_setting	triclinic
loop_
_symmetry_equiv_pos_as_xyz
  x,y,z
_cell_length_a	12.759395
_cell_length_b	18.050589
_cell_length_c	12.759387
_cell_angle_alpha	90.029732
_cell_angle_beta	90.017228
_cell_angle_gamma	90.029758
loop_
_atom_site_label
_atom_site_type_symbol
_atom_site_fract_x
_atom_site_fract_y
_atom_site_fract_z
Zn1	Zn	1.606136	-0.295592	0.594011
Zn2	Zn	1.605995	-0.419800	0.418334
Zn3	Zn	1.430444	-0.295632	0.418348
Zn4	Zn	1.430385	-0.419748	0.593973
O5	O	1.518240	-0.357693	0.506166
O6	O	1.753138	-0.312073	0.570717
O7	O	1.582674	-0.403367	0.271315
O8	O	1.453834	-0.191702	0.441672
O9	O	1.753035	-0.403329	0.441648
O10	O	1.582914	-0.191672	0.570731
O11	O	1.453697	-0.312141	0.271325
O12	O	1.283415	-0.312091	0.441635
O13	O	1.453733	-0.403240	0.740999
O14	O	1.283372	-0.403278	0.570666
O15	O	1.582856	-0.312023	0.741027
O16	O	1.582616	-0.523718	0.441611
O17	O	1.453596	-0.523679	0.570652
C18	C	1.245273	-0.357684	0.506148
C19	C	1.128496	-0.357698	0.506166
C20	C	1.128489	-0.452805	0.640308
C21	C	1.073625	-0.500364	0.707383
C22	C	0.963903	-0.500373	0.707395
C23	C	0.909044	-0.452816	0.640329
C24	C	0.963908	-0.405257	0.573255
C25	C	1.073632	-0.405255	0.573247
C26	C	0.963914	-0.310147	0.439119
C27	C	1.073636	-0.310141	0.439099
C28	C	0.909054	-0.262590	0.372052
C29	C	0.963919	-0.215033	0.304971
C30	C	1.073647	-0.215027	0.304960
C31	C	1.128500	-0.262581	0.372025
C32	C	1.518113	-0.550645	0.506149
C33	C	1.518155	-0.633191	0.506177
C34	C	1.448063	-0.832647	0.576325
C35	C	1.422452	-0.882096	0.480456
C36	C	1.518258	-0.784321	0.506190
C37	C	1.543921	-0.881955	0.602070
C38	C	1.518356	-0.930306	0.506212
C39	C	1.492597	-0.832682	0.410271
C40	C	1.614110	-0.832537	0.531950
C41	C	1.588536	-0.881962	0.436015
C42	C	1.518199	-0.700223	0.506179
C43	C	1.518415	-1.014403	0.506212
C44	C	1.792274	-0.357702	0.506185
C45	C	1.909050	-0.357706	0.506193
C46	C	1.518304	-0.357621	0.780200
C47	C	1.518331	-0.357590	0.896977
C48	C	1.518396	-0.163987	0.506207
C49	C	1.518463	-0.081441	0.506224
C50	C	1.518237	-0.357711	0.233199
C51	C	1.518414	-0.357532	0.116423
C52	C	1.652708	-0.452532	1.116391
C53	C	1.719840	-0.500044	1.061515
C54	C	1.719805	-0.500072	0.951793
C55	C	1.652629	-0.452585	0.896945
C56	C	1.585497	-0.405074	0.951822
C57	C	1.585542	-0.405049	1.061546
C58	C	1.451199	-0.310078	0.951853
C59	C	1.451238	-0.310045	1.061575
C60	C	1.384023	-0.262591	0.897006
C61	C	1.316895	-0.215075	0.951882
C62	C	1.316934	-0.215048	1.061611
C63	C	1.384106	-0.262533	1.116452
H64	H	0.919233	-0.539097	0.762019
H65	H	1.470837	-0.811128	0.329173
H66	H	1.383996	-0.262621	0.807664
C67	C	1.243013	-0.162846	0.891550
H68	H	1.252608	-0.169667	0.818345
H69	H	1.172419	-0.173701	0.909535
H70	H	1.258450	-0.112941	0.909536
H71	H	1.262265	-0.176359	1.106285
C72	C	0.903578	-0.162724	0.231210
H73	H	0.951965	-0.134396	0.191261
H74	H	0.860731	-0.191092	0.185371
H75	H	0.860821	-0.130401	0.271499
H76	H	1.384148	-0.262513	1.205793
H77	H	1.118311	-0.176293	0.250347
H78	H	1.217841	-0.262583	0.372019
H79	H	1.388614	-0.810993	0.635551
C80	C	1.668781	-0.911039	0.355818
H81	H	1.650414	-0.894077	0.287778
H82	H	1.736632	-0.893320	0.373527
H83	H	1.668783	-0.963665	0.356659
C84	C	0.788364	-0.262595	0.372064
H85	H	0.763552	-0.227458	0.322523
H86	H	0.763503	-0.310503	0.353775
H87	H	0.763578	-0.249811	0.439901
H88	H	1.695105	-0.810754	0.553763
H89	H	1.341439	-0.903880	0.458688
C90	C	1.249180	-0.452794	0.640301
H91	H	1.273994	-0.487922	0.689854
H92	H	1.273975	-0.465569	0.572470
H93	H	1.274029	-0.404881	0.658602
C94	C	1.573196	-0.911193	0.711592
H95	H	1.523218	-0.894298	0.761325
H96	H	1.573651	-0.963814	0.710665
H97	H	1.640775	-0.893487	0.730363
C98	C	1.793644	-0.552335	0.891427
H99	H	1.833660	-0.580611	0.939801
H100	H	1.753409	-0.584698	0.848616
H101	H	1.839434	-0.523934	0.848631
C102	C	1.652468	-0.452702	1.237081
H103	H	1.701996	-0.487851	1.261886
H104	H	1.670594	-0.404834	1.262214
H105	H	1.584578	-0.465603	1.261601
H106	H	1.774530	-0.538709	1.106184
C107	C	1.652586	-0.452621	0.776255
H108	H	1.702189	-0.487717	0.751428
H109	H	1.584767	-0.465463	0.751435
H110	H	1.670796	-0.404702	0.751443
H111	H	1.118304	-0.539083	0.761988
H112	H	0.819702	-0.452822	0.640355
