data_functionalizedCrystal
_audit_creation_method	'MofGen! by Chris Wilmer'
_symmetry_space_group_name_H-M	'P1'
_symmetry_Int_Tables_number	1
_symmetry_cell_setting	triclinic
loop_
_symmetry_equiv_pos_as_xyz
  x,y,z
_cell_length_a	10.540535
_cell_length_b	10.540539
_cell_length_c	13.448316
_cell_angle_alpha	89.999954
_cell_angle_beta	89.993855
_cell_angle_gamma	84.524567
loop_
_atom_site_label
_atom_site_type_symbol
_atom_site_fract_x
_atom_site_fract_y
_atom_site_fract_z
O1	O	1.685899	0.178868	-0.082632
O2	O	1.316485	0.195730	-0.082646
O3	O	1.509620	0.002592	-0.082638
O4	O	1.492764	0.372005	-0.082641
O5	O	1.509587	0.002597	0.082746
O6	O	1.316452	0.195734	0.082738
O7	O	1.685866	0.178872	0.082751
Cu8	Cu	1.501156	0.187304	0.097846
Cu9	Cu	1.501195	0.187298	-0.097740
O10	O	1.492731	0.372010	0.082743
C11	C	1.269165	0.194469	0.000044
C12	C	1.128217	0.190689	0.000039
C13	C	1.091546	0.049675	0.000044
C14	C	0.944946	0.045698	0.000429
C15	C	0.918862	0.255062	0.094309
C16	C	1.065628	0.258063	0.094378
C17	C	1.065549	0.260109	-0.093701
C18	C	0.919203	0.253587	-0.094930
C19	C	1.508339	-0.044709	0.000053
C20	C	1.504557	-0.185657	0.000047
C21	C	1.359640	-0.369081	-0.000329
C22	C	1.363474	-0.222463	0.000043
C23	C	1.572434	-0.247313	0.094492
C24	C	1.567619	-0.393857	0.094571
C25	C	1.570526	-0.394381	-0.093501
C26	C	1.571826	-0.247399	-0.094750
C27	C	1.733185	0.180133	0.000059
C28	C	1.874134	0.183913	0.000058
C29	C	1.494011	0.419311	0.000051
C30	C	1.497793	0.560259	0.000050
N31	N	1.501138	0.187307	0.235410
N32	N	1.501223	0.187285	-0.235304
C33	C	1.586756	0.101799	0.712632
C34	C	1.586745	0.101807	0.608529
C35	C	1.501194	0.187297	0.556491
C36	C	1.415658	0.272792	0.608562
C37	C	1.415675	0.272789	0.712664
C38	C	1.415625	0.272791	0.391582
C39	C	1.415605	0.272793	0.287474
C40	C	1.586694	0.101810	0.287447
C41	C	1.586712	0.101806	0.391549
C42	C	1.501173	0.187300	0.443613
H43	H	0.915622	-0.009945	-0.067120
C44	C	1.508854	-0.437003	-0.190207
N45	N	1.462387	-0.469103	-0.263041
H46	H	1.522161	-0.206542	-0.164617
H47	H	1.672430	-0.441608	-0.094132
H48	H	1.656343	0.032198	0.245051
C49	C	1.680866	0.007749	0.769864
N50	N	1.751756	-0.063090	0.812968
C51	C	1.321551	0.366831	0.551317
N52	N	1.250663	0.437659	0.508201
C53	C	0.854875	0.392539	0.098694
N54	N	0.806673	0.496086	0.101996
H55	H	1.133529	-0.004477	-0.067535
H56	H	1.656393	0.032199	0.566139
H57	H	1.345942	0.342409	0.245110
H58	H	1.674687	-0.223179	-0.100449
H59	H	0.916480	-0.009669	0.068393
H60	H	0.870156	0.354460	-0.100915
H61	H	1.108022	0.216105	-0.165165
C62	C	1.321580	0.366827	0.769933
N63	N	1.250705	0.437662	0.813068
H64	H	1.303922	-0.397682	-0.068057
H65	H	1.134991	-0.003567	0.067535
H66	H	1.656367	0.032189	0.433917
C67	C	1.290781	-0.166044	0.091655
N68	N	1.236027	-0.123550	0.160663
H69	H	1.105785	0.210016	0.165103
C70	C	1.712395	-0.217091	0.099257
N71	N	1.817811	-0.194317	0.102849
C72	C	1.284650	-0.409845	0.090671
N73	N	1.228177	-0.440539	0.159221
C74	C	1.096744	0.397715	0.099808
N75	N	1.120176	0.502899	0.103904
C76	C	0.880570	0.183647	-0.189132
N77	N	0.851462	0.130967	-0.260084
H78	H	0.887946	0.206252	0.164722
H79	H	1.517427	-0.422054	0.165167
H80	H	1.087734	0.363860	-0.094613
H81	H	1.345974	0.342414	0.433969
H82	H	1.669084	-0.441827	0.098859
C83	C	1.508693	-0.189770	0.189438
N84	N	1.460674	-0.146432	0.260949
H85	H	1.310063	-0.179861	-0.067659
