data_functionalizedCrystal
_audit_creation_method	'MofGen! by Chris Wilmer'
_symmetry_space_group_name_H-M	'P1'
_symmetry_Int_Tables_number	1
_symmetry_cell_setting	triclinic
loop_
_symmetry_equiv_pos_as_xyz
  x,y,z
_cell_length_a	15.995350
_cell_length_b	16.109301
_cell_length_c	15.186229
_cell_angle_alpha	89.999362
_cell_angle_beta	89.999624
_cell_angle_gamma	96.523072
loop_
_atom_site_label
_atom_site_type_symbol
_atom_site_fract_x
_atom_site_fract_y
_atom_site_fract_z
O1	O	-0.107624	1.103160	-0.073165
O2	O	-0.121018	0.861101	-0.073178
O3	O	0.007569	0.988747	-0.073174
O4	O	-0.236210	0.975514	-0.073168
O5	O	0.007570	0.988739	0.073283
O6	O	-0.121016	0.861093	0.073280
O7	O	-0.107622	1.103151	0.073293
Zn8	Zn	-0.114319	0.982121	0.096539
Zn9	Zn	-0.114321	0.982132	-0.096424
O10	O	-0.236208	0.975505	0.073289
C11	C	-0.120474	0.830122	0.000049
C12	C	-0.118848	0.737826	0.000044
C13	C	-0.191366	0.515573	0.000056
C14	C	-0.189831	0.428853	0.000061
C15	C	-0.037268	0.448686	0.000054
C16	C	-0.038804	0.535405	0.000055
C17	C	-0.115855	0.568846	0.000051
C18	C	-0.112785	0.395406	0.000056
C19	C	-0.111120	0.301380	0.000062
C20	C	-0.117520	0.662879	0.000047
C21	C	-0.267404	0.976056	0.000061
C22	C	-0.360354	0.977697	0.000064
C23	C	-0.698100	0.983587	0.000050
C24	C	-0.650641	1.074494	-0.000272
C25	C	-0.553951	1.072854	0.000063
C26	C	-0.530540	0.980665	0.000057
C27	C	-0.571634	0.935822	0.083685
C28	C	-0.668269	0.938106	0.083751
C29	C	-0.668619	0.936237	-0.082799
C30	C	-0.571674	0.936259	-0.083899
C31	C	-0.435843	0.979009	0.000063
C32	C	-0.792797	0.985240	0.000050
C33	C	0.038764	0.988196	0.000052
C34	C	0.131714	0.986556	0.000043
C35	C	-0.108166	1.134130	0.000064
C36	C	-0.109792	1.226426	0.000063
N37	N	-0.114317	0.982119	0.228232
N38	N	-0.114317	0.982140	-0.228117
C39	C	-0.057398	1.038660	0.453956
C40	C	-0.057396	1.038662	0.546146
C41	C	-0.171238	0.925593	0.546152
C42	C	-0.171236	0.925587	0.453964
C43	C	-0.114316	0.982125	0.407869
C44	C	-0.114317	0.982134	0.592246
C45	C	-0.114315	0.982136	0.692202
C46	C	-0.114317	0.982122	0.307906
H47	H	-0.525516	1.108108	-0.059882
H48	H	-0.217586	0.879546	0.416437
H49	H	-0.251320	0.385481	0.000067
H50	H	0.022690	0.578782	0.000053
H51	H	-0.254106	0.542798	0.000060
O52	O	-0.002075	1.093662	0.590779
C53	C	0.110872	1.205779	0.581038
C54	C	0.048250	1.143549	0.530383
H55	H	0.151589	1.246117	0.532230
H56	H	0.074753	1.247369	0.624172
H57	H	0.152676	1.169874	0.624223
H58	H	0.006431	1.179386	0.487149
H59	H	0.084422	1.101960	0.487304
H60	H	-0.217582	0.879562	0.583692
H61	H	0.025465	0.421447	0.000062
H62	H	-0.011050	1.084695	0.416428
H63	H	-0.669149	1.110828	-0.060253
H64	H	-0.670305	1.110697	0.059312
H65	H	-0.526080	1.108331	0.060122
O66	O	-0.689952	0.977174	0.158351
C67	C	-0.641875	1.045621	0.293172
C68	C	-0.617209	1.001401	0.208717
H69	H	-0.583079	1.065205	0.333925
H70	H	-0.673337	1.103290	0.274879
H71	H	-0.687491	1.001047	0.333265
H72	H	-0.571569	1.045909	0.168584
H73	H	-0.585794	0.943720	0.227071
H74	H	-0.700536	0.871363	0.087548
H75	H	-0.557527	0.868093	0.086790
H76	H	-0.543255	0.966968	0.145927
O77	O	-0.693246	0.971699	-0.158363
C78	C	-0.809496	1.008276	-0.245543
C79	C	-0.781722	0.968100	-0.159929
H80	H	-0.881031	1.005364	-0.246846
H81	H	-0.780663	1.076264	-0.248639
H82	H	-0.787351	0.972887	-0.304561
H83	H	-0.803860	1.003422	-0.100864
H84	H	-0.810547	0.900107	-0.156911
H85	H	-0.544363	0.969003	-0.145767
H86	H	-0.556326	0.869033	-0.088957
O87	O	-0.706431	0.856241	-0.083599
C88	C	-0.722542	0.723762	-0.158980
C89	C	-0.679643	0.814325	-0.158179
H90	H	-0.700914	0.689851	-0.219281
H91	H	-0.704800	0.690245	-0.096759
H92	H	-0.793726	0.724164	-0.161518
H93	H	-0.608452	0.813999	-0.155672
H94	H	-0.697453	0.847804	-0.220397
