data_functionalizedCrystal
_audit_creation_method	'MofGen! by Chris Wilmer'
_symmetry_space_group_name_H-M	'P1'
_symmetry_Int_Tables_number	1
_symmetry_cell_setting	triclinic
loop_
_symmetry_equiv_pos_as_xyz
  x,y,z
_cell_length_a	17.699083
_cell_length_b	14.044220
_cell_length_c	16.176319
_cell_angle_alpha	89.992517
_cell_angle_beta	89.998611
_cell_angle_gamma	88.235946
loop_
_atom_site_label
_atom_site_type_symbol
_atom_site_fract_x
_atom_site_fract_y
_atom_site_fract_z
O1	O	1.012346	0.119850	-0.068632
O2	O	1.512346	0.619850	0.431368
O3	O	0.793044	0.135443	-0.068659
O4	O	1.293044	0.635443	0.431341
O5	O	0.899403	-0.010330	-0.068638
O6	O	1.399403	0.489670	0.431362
O7	O	0.905987	0.265624	-0.068653
O8	O	1.405987	0.765624	0.431347
O9	O	0.899387	-0.010340	0.068855
O10	O	1.399387	0.489660	0.568855
O11	O	0.793027	0.135434	0.068834
O12	O	1.293027	0.635434	0.568834
O13	O	1.012330	0.119841	0.068861
O14	O	1.512330	0.619841	0.568861
Cu15	Cu	0.902677	0.127637	0.081402
Cu16	Cu	1.402677	0.627637	0.581402
Cu17	Cu	0.902696	0.127648	-0.081200
Cu18	Cu	1.402696	0.627648	0.418800
O19	O	0.905970	0.265614	0.068840
O20	O	1.405970	0.765614	0.568840
C21	C	0.764800	0.134880	0.000084
C22	C	1.264800	0.634880	0.500084
C23	C	0.680666	0.133204	0.000074
C24	C	1.180666	0.633204	0.500074
C25	C	0.637948	0.218769	0.000069
C26	C	1.137948	0.718769	0.500069
C27	C	0.558895	0.217189	0.000080
C28	C	1.058895	0.717189	0.500080
C29	C	0.522563	0.130041	0.000089
C30	C	1.022563	0.630041	0.500089
C31	C	0.565287	0.044469	0.000096
C32	C	1.065287	0.544469	0.500096
C33	C	0.644338	0.046050	0.000092
C34	C	1.144338	0.546050	0.500092
C35	C	0.246484	0.038089	0.000117
C36	C	0.746484	0.538089	0.500117
C37	C	0.167427	0.036514	0.000120
C38	C	0.667427	0.536514	0.500120
C39	C	0.161041	0.209227	0.000106
C40	C	0.661041	0.709227	0.500106
C41	C	0.240092	0.210809	0.000101
C42	C	0.740092	0.710809	0.500101
C43	C	0.282809	0.125237	0.000112
C44	C	0.782809	0.625237	0.500112
C45	C	0.368527	0.126952	0.000102
C46	C	0.868527	0.626952	0.500102
C47	C	0.436847	0.128325	0.000094
C48	C	0.936847	0.628325	0.500094
C49	C	0.896513	-0.045643	0.000109
C50	C	1.396513	0.454357	0.500109
C51	C	0.887917	-0.150849	0.000109
C52	C	1.387917	0.349151	0.500109
C53	C	0.872202	-0.343474	0.000095
C54	C	1.372202	0.156526	0.500095
C55	C	0.933168	-0.401248	0.000100
C56	C	1.433168	0.098752	0.500100
C57	C	0.924424	-0.508431	0.000092
C58	C	1.424424	-0.008431	0.500092
C59	C	0.880945	-0.236281	0.000102
C60	C	1.380945	0.263719	0.500102
C61	C	1.040574	0.120404	0.000116
C62	C	1.540574	0.620404	0.500116
C63	C	1.124707	0.122081	0.000121
C64	C	1.624707	0.622081	0.500121
C65	C	0.908860	0.300927	0.000091
C66	C	1.408860	0.800927	0.500091
C67	C	0.917456	0.406133	0.000086
C68	C	1.417456	0.906133	0.500086
N69	N	0.902668	0.127628	0.195767
N70	N	1.402668	0.627628	0.695767
N71	N	0.902710	0.127648	-0.195565
N72	N	1.402710	0.627648	0.304435
C73	C	0.949782	0.063106	0.239041
C74	C	1.449782	0.563106	0.739041
C75	C	0.949786	0.063105	0.325588
C76	C	1.449786	0.563105	0.825588
C77	C	0.902679	0.127632	0.368860
C78	C	1.402679	0.627632	0.868860
C79	C	0.855561	0.192157	0.325580
C80	C	1.355561	0.692157	0.825580
C81	C	0.855554	0.192153	0.239034
C82	C	1.355554	0.692153	0.739034
C83	C	0.855588	0.192175	0.674608
C84	C	1.355588	0.692175	1.174608
C85	C	0.855600	0.192176	0.761160
C86	C	1.355600	0.692176	1.261160
C87	C	0.949820	0.063127	0.761161
C88	C	1.449820	0.563127	1.261161
C89	C	0.949813	0.063123	0.674616
C90	C	1.449813	0.563123	1.174616
C91	C	0.902692	0.127644	0.631344
C92	C	1.402692	0.627644	1.131344
C93	C	0.902687	0.127643	0.537500
C94	C	1.402687	0.627643	1.037500
C95	C	0.902687	0.127638	0.462702
C96	C	1.402687	0.627638	0.962702
H97	H	0.524117	0.286865	0.000075
H98	H	1.024117	0.786865	0.500075
Br99	Br	1.031109	-0.349525	0.000119
Br100	Br	1.531109	0.150475	0.500119
Br101	Br	0.515980	-0.073805	0.000117
Br102	Br	1.015980	0.426195	0.500117
H103	H	0.137848	-0.034456	0.000128
H104	H	0.637848	0.465544	0.500128
H105	H	0.988144	0.010565	0.203814
H106	H	1.488144	0.510565	0.703814
Br107	Br	0.103064	0.325363	0.000091
Br108	Br	0.603064	0.825363	0.500091
Br109	Br	0.289396	0.329084	0.000080
Br110	Br	0.789396	0.829084	0.500080
H111	H	0.813445	-0.374508	0.000085
H112	H	1.313445	0.125492	0.500085
H113	H	0.679119	-0.023626	0.000095
H114	H	1.179119	0.476374	0.500095
Br115	Br	0.304447	-0.078045	0.000135
Br116	Br	0.804447	0.421955	0.500135
H117	H	0.988148	0.010566	0.360821
H118	H	1.488148	0.510566	0.860821
H119	H	0.817222	0.244712	0.639383
H120	H	1.317222	0.744712	1.139383
Br121	Br	1.013748	-0.024446	0.615892
Br122	Br	1.513748	0.475554	1.115892
Br123	Br	1.013771	-0.024441	0.819892
Br124	Br	1.513771	0.475559	1.319892
H125	H	0.817238	0.244723	0.796390
H126	H	1.317238	0.744723	1.296390
Br127	Br	0.791623	0.279724	0.384303
Br128	Br	1.291623	0.779724	0.884303
Br129	Br	0.791606	0.279716	0.180306
Br130	Br	1.291606	0.779716	0.680306
Br131	Br	0.687248	0.337048	0.000048
Br132	Br	1.187248	0.837048	0.500048
