data_functionalizedCrystal
_audit_creation_method	'MofGen! by Chris Wilmer'
_symmetry_space_group_name_H-M	'P1'
_symmetry_Int_Tables_number	1
_symmetry_cell_setting	triclinic
loop_
_symmetry_equiv_pos_as_xyz
  x,y,z
_cell_length_a	10.489741
_cell_length_b	10.654554
_cell_length_c	9.130313
_cell_angle_alpha	90.001106
_cell_angle_beta	89.997727
_cell_angle_gamma	95.487041
loop_
_atom_site_label
_atom_site_type_symbol
_atom_site_fract_x
_atom_site_fract_y
_atom_site_fract_z
O1	O	-0.179184	1.667915	-0.121741
O2	O	-0.196247	1.302445	-0.121753
O3	O	-0.002114	1.493496	-0.121750
O4	O	-0.373317	1.476864	-0.121744
O5	O	-0.002119	1.493494	0.121849
O6	O	-0.196252	1.302443	0.121846
O7	O	-0.179189	1.667912	0.121858
Cu8	Cu	-0.187721	1.485177	0.144094
Cu9	Cu	-0.187715	1.485180	-0.143990
O10	O	-0.373322	1.476861	0.121855
C11	C	-0.194996	1.255645	0.000045
C12	C	-0.191244	1.116201	0.000040
C13	C	-0.302025	0.905744	0.000055
C14	C	-0.305551	1.036767	0.000044
C15	C	-0.073401	1.064605	0.000032
C16	C	-0.069877	0.933584	0.000033
C17	C	-0.416341	0.826316	0.000074
C18	C	-0.534183	0.877903	0.000078
C19	C	-0.537709	1.008926	0.000067
C20	C	-0.423394	1.088362	0.000051
C21	C	-0.420851	1.478119	0.000056
C22	C	-0.562478	1.481877	0.000059
C23	C	-0.630562	1.603437	0.000051
C24	C	-0.722712	1.546012	0.120155
C25	C	-0.722685	1.545986	-0.120014
C26	C	-0.652763	1.424402	0.120262
C27	C	-0.652727	1.424392	-0.120015
C28	C	-0.744849	1.366879	0.000118
C29	C	0.045415	1.492239	0.000045
C30	C	0.187043	1.488480	0.000033
C31	C	-0.180440	1.714712	0.000057
C32	C	-0.184192	1.854157	0.000052
N33	N	-0.187725	1.485184	0.346717
N34	N	-0.187701	1.485183	-0.346612
C35	C	-0.101792	1.569804	0.423370
C36	C	-0.101776	1.569800	0.576707
C37	C	-0.273638	1.400554	0.576724
C38	C	-0.273646	1.400553	0.423390
C39	C	-0.015870	1.654436	0.346697
C40	C	0.070069	1.739063	0.423350
C41	C	0.070084	1.739059	0.576687
C42	C	-0.015840	1.654429	0.653371
H43	H	0.026073	0.891582	0.000028
C44	C	-0.848155	1.533675	0.340567
C45	C	-0.764553	1.615436	0.257237
H46	H	-0.873973	1.576540	0.425195
H47	H	-0.921358	1.506327	0.283615
H48	H	-0.805822	1.462718	0.369423
H49	H	-0.806890	1.686389	0.228371
H50	H	-0.691339	1.642803	0.314200
H51	H	-0.621706	1.373002	-0.221564
H52	H	-0.580867	1.703384	0.000174
H53	H	-0.627254	0.813217	0.000081
C54	C	-0.478012	1.352177	0.256292
C55	C	-0.611187	1.355023	0.257493
H56	H	-0.452345	1.309353	0.341016
H57	H	-0.453508	1.309288	0.171112
H58	H	-0.437866	1.435964	0.255957
H59	H	-0.651333	1.271235	0.257816
H60	H	-0.635703	1.397909	0.342695
C61	C	-0.346472	1.183816	0.623959
C62	C	-0.368083	1.307539	0.661016
H63	H	-0.404777	1.126395	0.676005
H64	H	-0.358784	1.171708	0.521682
H65	H	-0.261202	1.169433	0.649083
H66	H	-0.453351	1.321925	0.635882
H67	H	-0.355781	1.319651	0.763315
C68	C	-0.706220	1.739299	-0.256837
C69	C	-0.764472	1.615441	-0.257093
H70	H	-0.732010	1.782179	-0.341464
H71	H	-0.731351	1.781658	-0.171558
H72	H	-0.615791	1.738057	-0.257342
H73	H	-0.854901	1.616683	-0.256577
H74	H	-0.739349	1.573071	-0.342394
H75	H	-0.015877	1.654449	0.221843
H76	H	-0.413483	0.719629	0.000088
H77	H	-0.794320	1.266843	0.000180
C78	C	0.239955	1.906346	0.438736
C79	C	0.164519	1.832080	0.339068
H80	H	0.298271	1.963765	0.386703
H81	H	0.186434	1.951994	0.498549
H82	H	0.286337	1.853643	0.498534
H83	H	0.118130	1.884783	0.279277
H84	H	0.218047	1.786429	0.279230
H85	H	0.140067	1.807957	0.639097
H86	H	-0.015811	1.654425	0.778228
H87	H	-0.633662	1.050923	0.000058
H88	H	-0.426274	1.195049	0.000012
H89	H	0.019669	1.129292	0.000021
H90	H	-0.343619	1.331647	0.360978
