data_functionalizedCrystal
_audit_creation_method	'MofGen! by Chris Wilmer'
_symmetry_space_group_name_H-M	'P1'
_symmetry_Int_Tables_number	1
_symmetry_cell_setting	triclinic
loop_
_symmetry_equiv_pos_as_xyz
  x,y,z
_cell_length_a	18.050591
_cell_length_b	18.050589
_cell_length_c	18.215399
_cell_angle_alpha	89.973988
_cell_angle_beta	89.978472
_cell_angle_gamma	90.024669
loop_
_atom_site_label
_atom_site_type_symbol
_atom_site_fract_x
_atom_site_fract_y
_atom_site_fract_z
Zn1	Zn	1.135306	-0.295720	-0.416230
Zn2	Zn	1.635306	0.204280	0.083770
Zn3	Zn	1.135212	-0.419920	-0.293173
Zn4	Zn	1.635212	0.080080	0.206827
Zn5	Zn	1.011121	-0.295741	-0.293168
Zn6	Zn	1.511121	0.204259	0.206832
Zn7	Zn	1.011073	-0.419865	-0.416188
Zn8	Zn	1.511073	0.080135	0.083812
O9	O	1.073178	-0.357811	-0.354690
O10	O	1.573178	0.142189	0.145310
O11	O	1.239218	-0.312210	-0.399927
O12	O	1.739218	0.187790	0.100073
O13	O	1.118733	-0.403479	-0.190188
O14	O	1.618733	0.096521	0.309812
O15	O	1.027653	-0.191813	-0.309507
O16	O	1.527653	0.308187	0.190493
O17	O	1.239149	-0.403459	-0.309517
O18	O	1.739149	0.096541	0.190483
O19	O	1.118891	-0.191798	-0.399921
O20	O	1.618891	0.308202	0.100079
O21	O	1.027563	-0.312245	-0.190184
O22	O	1.527563	0.187755	0.309816
O23	O	0.907190	-0.312192	-0.309467
O24	O	1.407190	0.187808	0.190533
O25	O	1.027571	-0.403365	-0.519178
O26	O	1.527571	0.096635	-0.019178
O27	O	0.907155	-0.403385	-0.399849
O28	O	1.407155	0.096615	0.100151
O29	O	1.118845	-0.312156	-0.519209
O30	O	1.618845	0.187844	-0.019209
O31	O	1.118686	-0.523837	-0.309476
O32	O	1.618686	-0.023837	0.190524
O33	O	1.027481	-0.523797	-0.399855
O34	O	1.527481	-0.023797	0.100145
C35	C	0.880226	-0.357785	-0.354653
C36	C	1.380226	0.142215	0.145347
C37	C	0.797680	-0.357792	-0.354655
C38	C	1.297680	0.142208	0.145345
C39	C	0.548852	-0.308149	-0.305621
C40	C	1.048852	0.191851	0.194379
C41	C	0.598286	-0.290059	-0.372783
C42	C	1.098286	0.209941	0.127217
C43	C	0.500560	-0.357830	-0.354715
C44	C	1.000560	0.142170	0.145285
C45	C	0.598207	-0.375866	-0.287528
C46	C	1.098207	0.124134	0.212472
C47	C	0.646545	-0.357809	-0.354682
C48	C	1.146545	0.142191	0.145318
C49	C	0.548906	-0.339705	-0.421912
C50	C	1.048906	0.160295	0.078088
C51	C	0.548823	-0.425543	-0.336612
C52	C	1.048823	0.074457	0.163388
C53	C	0.598235	-0.407479	-0.403820
C54	C	1.098235	0.092521	0.096180
C55	C	0.416461	-0.357840	-0.354733
C56	C	0.916461	0.142160	0.145267
C57	C	0.730641	-0.357799	-0.354671
C58	C	1.230641	0.142201	0.145329
C59	C	1.073088	-0.550763	-0.354678
C60	C	1.573088	-0.050763	0.145322
C61	C	1.073118	-0.633309	-0.354697
C62	C	1.573118	-0.133309	0.145303
C63	C	1.023569	-0.832765	-0.403828
C64	C	1.523569	-0.332765	0.096172
C65	C	1.005469	-0.882207	-0.336672
C66	C	1.505469	-0.382207	0.163328
C67	C	1.073191	-0.784440	-0.354707
C68	C	1.573191	-0.284440	0.145293
C69	C	1.091327	-0.882079	-0.421870
C70	C	1.591327	-0.382079	0.078130
C71	C	1.073260	-0.930425	-0.354722
C72	C	1.573260	-0.430425	0.145278
C73	C	1.055055	-0.832794	-0.287515
C74	C	1.555055	-0.332794	0.212485
C75	C	1.140944	-0.832662	-0.372759
C76	C	1.640944	-0.332662	0.127241
C77	C	1.122870	-0.882082	-0.305557
C78	C	1.622870	-0.382082	0.194443
C79	C	1.073149	-0.700341	-0.354699
C80	C	1.573149	-0.200341	0.145301
C81	C	1.073302	-1.014521	-0.354722
C82	C	1.573302	-0.514521	0.145278
C83	C	1.266883	-0.357838	-0.354727
C84	C	1.766883	0.142162	0.145273
C85	C	1.349429	-0.357850	-0.354743
C86	C	1.849429	0.142150	0.145257
C87	C	1.073213	-0.357752	-0.546643
C88	C	1.573213	0.142248	-0.046643
C89	C	1.073228	-0.357727	-0.628442
C90	C	1.573228	0.142273	-0.128442
C91	C	1.073288	-0.164106	-0.354718
C92	C	1.573288	0.335894	0.145282
C93	C	1.073335	-0.081560	-0.354730
C94	C	1.573335	0.418440	0.145270
C95	C	1.025796	-0.310189	-0.816635
C96	C	1.525796	0.189811	-0.316635
C97	C	1.025809	-0.310174	-0.893493
C98	C	1.525809	0.189826	-0.393493
C99	C	1.120749	-0.405176	-0.893487
C100	C	1.620749	0.094824	-0.393487
C101	C	1.120731	-0.405194	-0.816630
C102	C	1.620731	0.094806	-0.316630
C103	C	1.073256	-0.357696	-0.778205
C104	C	1.573256	0.142304	-0.278205
C105	C	1.073286	-0.357663	-0.931922
C106	C	1.573286	0.142337	-0.431922
C107	C	1.073301	-0.357647	-1.015255
C108	C	1.573301	0.142353	-0.515255
C109	C	1.073241	-0.357713	-0.694866
C110	C	1.573241	0.142287	-0.194866
C111	C	1.073186	-0.357817	-0.163484
C112	C	1.573186	0.142183	0.336516
C113	C	1.073315	-0.357633	-0.081685
C114	C	1.573315	0.142367	0.418315
H115	H	0.619780	-0.449483	-0.445371
H116	H	1.119780	0.050517	0.054629
Cl117	Cl	1.114968	-0.915507	-0.509553
Cl118	Cl	1.614968	-0.415507	-0.009553
Cl119	Cl	0.966110	-0.250481	-0.768332
Cl120	Cl	1.466110	0.249519	-0.268332
H121	H	0.619999	-0.232784	-0.388094
H122	H	1.119999	0.267216	0.111906
Cl123	Cl	0.917053	-0.915805	-0.313100
Cl124	Cl	1.417053	-0.415805	0.186900
Cl125	Cl	1.031313	-0.799513	-0.199806
Cl126	Cl	1.531313	-0.299513	0.300194
Cl127	Cl	0.515615	-0.316033	-0.509642
Cl128	Cl	1.015615	0.183967	-0.009642
Cl129	Cl	0.631646	-0.399434	-0.199826
Cl130	Cl	1.131646	0.100566	0.300174
H131	H	0.987162	-0.271490	-0.924779
H132	H	1.487162	0.228510	-0.424779
Cl133	Cl	1.180430	-0.464881	-0.941797
Cl134	Cl	1.680430	0.035119	-0.441797
H135	H	0.527081	-0.482799	-0.321290
H136	H	1.027081	0.017201	0.178710
H137	H	0.981544	-0.811109	-0.445309
H138	H	1.481544	-0.311109	0.054691
H139	H	1.164863	-0.903600	-0.263975
H140	H	1.664863	-0.403600	0.236025
H141	H	1.159381	-0.443883	-0.785340
H142	H	1.659381	0.056117	-0.285340
H143	H	0.527171	-0.266113	-0.264169
H144	H	1.027171	0.233887	0.235831
Cl145	Cl	1.229337	-0.799037	-0.396361
Cl146	Cl	1.729337	-0.299037	0.103639
