data_functionalizedCrystal
_audit_creation_method	'MofGen! by Chris Wilmer'
_symmetry_space_group_name_H-M	'P1'
_symmetry_Int_Tables_number	1
_symmetry_cell_setting	triclinic
loop_
_symmetry_equiv_pos_as_xyz
  x,y,z
_cell_length_a	33.428889
_cell_length_b	33.428139
_cell_length_c	33.424847
_cell_angle_alpha	60.004234
_cell_angle_beta	60.008465
_cell_angle_gamma	59.994972
loop_
_atom_site_label
_atom_site_type_symbol
_atom_site_fract_x
_atom_site_fract_y
_atom_site_fract_z
O1	O	0.055565	-0.584504	0.488714
O2	O	0.020982	-0.455083	0.393778
O3	O	0.102943	-0.536959	0.393689
O4	O	-0.026396	-0.502628	0.488803
O5	O	0.130140	-0.509767	0.420792
O6	O	0.048179	-0.427891	0.420881
O7	O	0.082762	-0.557312	0.515817
Cu8	Cu	0.067954	-0.490119	0.470823
Cu9	Cu	0.035790	-0.522276	0.438771
O10	O	0.000801	-0.475436	0.515906
N11	N	0.090577	-0.467504	0.493370
N12	N	0.013171	-0.544895	0.416225
C13	C	0.143377	-0.280390	0.546067
C14	C	0.143515	-0.414755	0.680369
C15	C	0.143392	-0.414735	0.546069
C16	C	0.277766	-0.414702	0.545966
C17	C	0.158177	-0.324719	0.560828
C18	C	0.158255	-0.399967	0.636038
C19	C	0.233434	-0.399936	0.560773
C20	C	0.158186	-0.399955	0.560829
C21	C	0.124540	-0.223964	0.527278
C22	C	0.124565	-0.433545	0.527281
C23	C	0.177014	-0.381145	0.579617
C24	C	0.359814	-0.400540	0.502735
C25	C	0.411105	-0.417624	0.485606
C26	C	0.411136	-0.500620	0.517255
C27	C	0.359845	-0.483534	0.534385
C28	C	0.136887	-0.198305	0.476855
C29	C	0.119761	-0.147011	0.459777
C30	C	0.077945	-0.147038	0.543547
C31	C	0.095072	-0.198332	0.560625
C32	C	0.074134	-0.421169	0.539710
C33	C	0.057023	-0.438269	0.522625
C34	C	0.140770	-0.480120	0.480694
C35	C	0.157883	-0.463020	0.497773
C36	C	0.074339	-0.421208	0.762475
C37	C	0.057288	-0.438323	0.813768
C38	C	0.141075	-0.480183	0.813699
C39	C	0.158125	-0.463069	0.762404
C40	C	0.124756	-0.433580	0.736794
C41	C	0.334186	-0.433494	0.527123
C42	C	-0.173769	-0.597444	0.363037
C43	C	-0.039302	-0.597595	0.228856
C44	C	-0.039496	-0.597587	0.363300
C45	C	-0.039512	-0.731889	0.363237
C46	C	-0.129442	-0.612265	0.348329
C47	C	-0.054138	-0.612351	0.273187
C48	C	-0.054257	-0.687554	0.348440
C49	C	-0.054247	-0.612346	0.348477
C50	C	-0.230191	-0.578579	0.381758
C51	C	-0.020722	-0.578803	0.382168
C52	C	-0.073020	-0.631130	0.329609
C53	C	-0.053713	-0.813916	0.406386
C54	C	-0.036654	-0.865210	0.423504
C55	C	0.046338	-0.865293	0.391984
C56	C	0.029278	-0.813999	0.374865
C57	C	-0.255900	-0.590938	0.432169
C58	C	-0.307191	-0.573786	0.449185
C59	C	-0.307060	-0.531922	0.365377
C60	C	-0.255769	-0.549074	0.348360
C61	C	-0.033081	-0.528377	0.369764
C62	C	-0.016014	-0.511306	0.386922
C63	C	0.025770	-0.595083	0.428877
C64	C	0.008703	-0.612156	0.411725
C65	C	-0.032755	-0.528393	0.146761
C66	C	-0.015585	-0.511324	0.095468
C67	C	0.026262	-0.595106	0.095516
C68	C	0.009094	-0.612174	0.146811
C69	C	-0.020417	-0.578816	0.172432
C70	C	-0.020748	-0.788312	0.382068
N71	N	0.436037	-0.467415	0.493101
O72	O	0.592642	-0.471896	0.376066
O73	O	0.592838	-0.567146	0.505347
O74	O	0.592754	-0.566928	0.423360
O75	O	0.592727	-0.472113	0.458053
O76	O	0.511269	-0.539835	0.450606
O77	O	0.511353	-0.540052	0.532594
O78	O	0.511157	-0.444802	0.403312
Cu79	Cu	0.503815	-0.489954	0.470441
Cu80	Cu	0.600180	-0.521995	0.438219
O81	O	0.511242	-0.445020	0.485300
N82	N	0.667959	-0.544533	0.415554
N83	N	0.090544	-0.122107	0.493359
O84	O	-0.026406	0.034587	0.488773
O85	O	0.102877	0.034627	0.393499
O86	O	0.020848	0.034591	0.393771
O87	O	0.055623	0.034623	0.488500
O88	O	0.048051	-0.046899	0.420925
O89	O	0.130080	-0.046864	0.420653
O90	O	0.000796	-0.046903	0.515927
Cu91	Cu	0.067922	-0.054324	0.470769
Cu92	Cu	0.035752	0.042048	0.438656
O93	O	0.082825	-0.046867	0.515655
N94	N	0.013123	0.109830	0.416068
N95	N	0.090892	-0.467554	0.838649
O96	O	0.086330	-0.584488	0.995334
O97	O	-0.008902	-0.455160	0.995379
O98	O	-0.008679	-0.537172	0.995355
O99	O	0.086107	-0.502475	0.995358
O100	O	0.018452	-0.509990	0.913868
O101	O	0.018230	-0.427978	0.913891
O102	O	0.113461	-0.557306	0.913847
Cu103	Cu	0.068323	-0.490160	0.906429
Cu104	Cu	0.036237	-0.522306	1.002797
O105	O	0.113239	-0.475293	0.913870
N106	N	0.013667	-0.544916	1.070577
C107	C	0.031339	-0.425179	0.394250
C108	C	0.132837	-0.526572	0.394139
C109	C	0.072405	-0.587216	0.515344
C110	C	-0.029093	-0.485823	0.515455
C111	C	0.552119	-0.566716	0.535258
C112	C	0.552016	-0.566447	0.433726
C113	C	0.551873	-0.445232	0.373402
C114	C	0.551980	-0.445502	0.474933
C115	C	0.132731	-0.006013	0.393923
C116	C	0.031182	-0.006158	0.394293
C117	C	-0.029092	-0.006163	0.515469
C118	C	0.072491	-0.006119	0.515133
C119	C	-0.008451	-0.425276	0.954641
C120	C	-0.008170	-0.526833	0.954596
C121	C	0.113010	-0.587190	0.954585
C122	C	0.112735	-0.485627	0.954611
H123	H	0.016234	-0.428240	0.834672
H124	H	0.552029	-0.596233	0.426301
C125	C	0.551965	-0.405263	0.484958
H126	H	0.552003	-0.417240	0.517394
H127	H	0.580354	-0.396310	0.462334
H128	H	0.523519	-0.377414	0.481340
H129	H	0.169783	-0.005775	0.363939
H130	H	0.023949	-0.388000	0.364433
C131	C	0.021126	-0.006173	0.354088
H132	H	-0.011316	-0.006189	0.366081
H133	H	0.024757	0.022245	0.326220
H134	H	0.043730	-0.034593	0.345166
C135	C	-0.079247	-0.006178	0.555875
H136	H	-0.099849	-0.006186	0.544058
H137	H	-0.074933	-0.034593	0.583716
H138	H	-0.093906	0.022245	0.564774
C139	C	0.082550	-0.006111	0.555340
H140	H	0.114994	-0.006102	0.543349
H141	H	0.059947	0.022303	0.564270
H142	H	0.078922	-0.034536	0.583205
C143	C	0.183018	-0.536451	0.353790
H144	H	0.203582	-0.568880	0.365669
H145	H	0.178732	-0.532767	0.325955
H146	H	0.197703	-0.513803	0.344860
C147	C	-0.048841	-0.375100	0.954651
H148	H	-0.077282	-0.375053	0.954648
H149	H	-0.056545	-0.369118	0.983069
H150	H	-0.037614	-0.350171	0.926232
H151	H	-0.328125	-0.583847	0.490235
H152	H	0.551811	-0.415327	0.336274
C153	C	-0.048381	-0.536843	0.954549
H154	H	-0.036400	-0.569284	0.954525
H155	H	-0.076253	-0.533194	0.982960
H156	H	-0.057293	-0.514228	0.926123
C157	C	0.153402	-0.637364	0.954565
H158	H	0.141568	-0.657952	0.954563
H159	H	0.181237	-0.633068	0.926146
H160	H	0.162313	-0.652029	0.982982
H161	H	0.129813	-0.126117	0.418717
C162	C	0.552195	-0.607114	0.585415
H163	H	0.552212	-0.595278	0.605997
H164	H	0.523798	-0.616046	0.600098
H165	H	0.580633	-0.634941	0.581094
H166	H	0.079796	-0.624394	0.545162
C167	C	0.058712	-0.631800	0.067335
H168	H	0.063603	-0.664275	0.089970
H169	H	0.043087	-0.626855	0.047281
H170	H	0.089475	-0.626910	0.047373
C171	C	0.152966	-0.475598	0.954602
H172	H	0.140991	-0.443150	0.954606
H173	H	0.161906	-0.498203	0.983010
H174	H	0.180820	-0.479244	0.926173
C175	C	-0.079275	-0.475945	0.555804
H176	H	-0.099838	-0.443514	0.543927
H177	H	-0.093959	-0.498593	0.564737
H178	H	-0.074988	-0.479625	0.583638
H179	H	0.047163	-0.397193	0.741627
H180	H	0.168250	-0.504186	0.834549
H181	H	0.047002	-0.397168	0.563734
C182	C	0.213586	-0.476678	0.734158
H183	H	0.231015	-0.496685	0.756759
H184	H	0.221985	-0.494076	0.714146
H185	H	0.221973	-0.447664	0.714150
H186	H	0.167905	-0.504126	0.456671
C187	C	0.001550	-0.424662	0.536297
H188	H	-0.015843	-0.404666	0.556324
H189	H	-0.006893	-0.407254	0.507311
H190	H	-0.006836	-0.453677	0.553701
H191	H	0.198948	-0.473094	0.487648
H192	H	0.338981	-0.510371	0.554246
H193	H	0.432025	-0.541365	0.523165
H194	H	0.338923	-0.359792	0.496821
C195	C	0.439301	-0.381377	0.458775
H196	H	0.473522	-0.398722	0.449616
H197	H	0.430866	-0.357890	0.430282
H198	H	0.430914	-0.365164	0.479879
C199	C	0.169299	-0.226499	0.440174
H200	H	0.177734	-0.260723	0.457568
H201	H	0.151874	-0.218095	0.420186
H202	H	0.198292	-0.218079	0.420146
C203	C	0.045534	-0.118842	0.580228
H204	H	0.040636	-0.141472	0.612705
H205	H	0.061191	-0.098823	0.575285
H206	H	0.014774	-0.098843	0.575328
H207	H	-0.025639	-0.470264	0.074572
C208	C	0.081509	-0.226554	0.616090
H209	H	0.061513	-0.203941	0.633503
H210	H	0.064115	-0.246581	0.624528
H211	H	0.110538	-0.246549	0.624461
H212	H	0.019144	-0.653235	0.167709
C213	C	-0.065216	-0.491697	0.174940
H214	H	-0.070102	-0.459222	0.152304
H215	H	-0.095974	-0.496589	0.194904
H216	H	-0.049588	-0.496638	0.194992
C217	C	-0.072913	-0.893379	0.450260
H218	H	-0.055586	-0.927607	0.459422
H219	H	-0.096424	-0.884949	0.478747
H220	H	-0.089094	-0.884965	0.429114
H221	H	-0.057039	-0.501216	0.345698
H222	H	0.049734	-0.622248	0.452940
C223	C	-0.029605	-0.455839	0.373282
H224	H	-0.015231	-0.450449	0.387738
H225	H	-0.017758	-0.441451	0.338676
H226	H	-0.064214	-0.441398	0.385026
C227	C	0.022298	-0.667624	0.425366
H228	H	0.042270	-0.685043	0.445423
H229	H	-0.006716	-0.676001	0.442720
H230	H	0.039738	-0.676051	0.396368
H231	H	0.087072	-0.886205	0.386121
C232	C	0.065540	-0.785837	0.348111
H233	H	0.048219	-0.751609	0.338941
H234	H	0.081721	-0.794255	0.369256
H235	H	0.089051	-0.794269	0.319622
C236	C	-0.108742	-0.785658	0.414306
H237	H	-0.114184	-0.751442	0.400634
H238	H	-0.119328	-0.794051	0.398769
H239	H	-0.126661	-0.794045	0.448408
C240	C	-0.227764	-0.623385	0.468904
H241	H	-0.193535	-0.631832	0.451549
H242	H	-0.236194	-0.605974	0.488916
H243	H	-0.236199	-0.652373	0.488904
C244	C	-0.335198	-0.499471	0.328641
H245	H	-0.312539	-0.494569	0.296180
H246	H	-0.355210	-0.515105	0.333530
H247	H	-0.355196	-0.468712	0.333545
H248	H	-0.234840	-0.539009	0.307312
