data_functionalizedCrystal
_audit_creation_method	'MofGen! by Chris Wilmer'
_symmetry_space_group_name_H-M	'P1'
_symmetry_Int_Tables_number	1
_symmetry_cell_setting	triclinic
loop_
_symmetry_equiv_pos_as_xyz
  x,y,z
_cell_length_a	19.188933
_cell_length_b	19.188940
_cell_length_c	9.730217
_cell_angle_alpha	89.996322
_cell_angle_beta	90.000010
_cell_angle_gamma	83.147142
loop_
_atom_site_label
_atom_site_type_symbol
_atom_site_fract_x
_atom_site_fract_y
_atom_site_fract_z
O1	O	0.926144	0.087172	-0.114245
O2	O	1.426144	0.587172	0.385755
O3	O	0.722833	0.098905	-0.114258
O4	O	1.222833	0.598905	0.385742
O5	O	0.830352	-0.008616	-0.114241
O6	O	1.330352	0.491384	0.385759
O7	O	0.818625	0.194694	-0.114263
O8	O	1.318625	0.694694	0.385737
O9	O	0.830349	-0.008617	0.114339
O10	O	1.330349	0.491383	0.614339
O11	O	0.722830	0.098904	0.114322
O12	O	1.222830	0.598904	0.614322
O13	O	0.926141	0.087172	0.114335
O14	O	1.426141	0.587172	0.614335
Zn15	Zn	0.824485	0.093038	0.150620
Zn16	Zn	1.324485	0.593038	0.650620
Zn17	Zn	0.824489	0.093039	-0.150544
Zn18	Zn	1.324489	0.593039	0.349456
O19	O	0.818622	0.194693	0.114317
O20	O	1.318622	0.694693	0.614317
C21	C	0.696821	0.098525	0.000030
C22	C	1.196821	0.598525	0.500030
C23	C	0.619316	0.097383	0.000025
C24	C	1.119316	0.597383	0.500025
C25	C	0.066062	0.089239	-0.124558
C26	C	0.566062	0.589239	0.375442
C27	C	0.138887	0.090307	-0.124563
C28	C	0.638887	0.590307	0.375437
C29	C	0.175302	0.090844	0.000035
C30	C	0.675302	0.590844	0.500035
C31	C	0.138889	0.090294	0.124648
C32	C	0.638889	0.590294	0.624648
C33	C	0.066067	0.089219	0.124650
C34	C	0.566067	0.589219	0.624650
N35	N	0.284322	0.132262	0.092775
N36	N	0.784322	0.632262	0.592775
N37	N	0.353499	0.133284	0.092765
N38	N	0.853499	0.633284	0.592765
C39	C	0.394711	0.094081	0.000037
C40	C	0.894711	0.594081	0.500037
N41	N	0.364129	0.053826	-0.092701
N42	N	0.864129	0.553826	0.407299
N43	N	0.294945	0.052806	-0.092695
N44	N	0.794945	0.552806	0.407305
C45	C	0.254265	0.092009	0.000047
C46	C	0.754265	0.592009	0.500047
C47	C	0.510080	0.095784	-0.124574
C48	C	1.010080	0.595784	0.375426
C49	C	0.582906	0.096848	-0.124574
C50	C	1.082906	0.596848	0.375426
C51	C	0.582906	0.096842	0.124641
C52	C	1.082906	0.596842	0.624641
C53	C	0.510082	0.095771	0.124638
C54	C	1.010082	0.595771	0.624638
C55	C	0.473673	0.095246	0.000026
C56	C	0.973673	0.595246	0.500026
C57	C	0.829970	-0.034628	0.000049
C58	C	1.329970	0.465372	0.500049
C59	C	0.828826	-0.112132	0.000048
C60	C	1.328826	0.387868	0.500048
C61	C	0.820690	-0.665392	0.124614
C62	C	1.320690	-0.165392	0.624614
C63	C	0.821757	-0.592567	0.124622
C64	C	1.321757	-0.092567	0.624622
C65	C	0.822295	-0.556147	0.000024
C66	C	1.322295	-0.056147	0.500024
C67	C	0.821749	-0.592555	-0.124590
C68	C	1.321749	-0.092555	0.375410
C69	C	0.820675	-0.665377	-0.124594
C70	C	1.320675	-0.165377	0.375406
N71	N	0.863713	-0.447123	-0.092714
N72	N	1.363713	0.052877	0.407286
N73	N	0.864734	-0.377945	-0.092701
N74	N	1.364734	0.122055	0.407299
C75	C	0.825529	-0.336738	0.000029
C76	C	1.325529	0.163262	0.500029
N77	N	0.785272	-0.367323	0.092768
N78	N	1.285272	0.132677	0.592768
N79	N	0.784254	-0.436508	0.092759
N80	N	1.284254	0.063492	0.592759
C81	C	0.823459	-0.477184	0.000015
C82	C	1.323459	0.022816	0.500015
C83	C	0.827227	-0.221373	0.124644
C84	C	1.327227	0.278627	0.624644
C85	C	0.828289	-0.148547	0.124647
C86	C	1.328289	0.351453	0.624647
C87	C	0.828288	-0.148537	-0.124569
C88	C	1.328288	0.351463	0.375431
C89	C	0.827219	-0.221361	-0.124568
C90	C	1.327219	0.278639	0.375432
C91	C	0.826691	-0.257775	0.000043
C92	C	1.326691	0.242225	0.500043
C93	C	0.952153	0.087552	0.000043
C94	C	1.452153	0.587552	0.500043
C95	C	1.029658	0.088693	0.000039
C96	C	1.529658	0.588693	0.500039
C97	C	0.819004	0.220704	0.000024
C98	C	1.319004	0.720704	0.500024
C99	C	0.820148	0.298209	0.000016
C100	C	1.320148	0.798209	0.500016
N101	N	0.824487	0.093036	0.356157
N102	N	1.324487	0.593036	0.856157
N103	N	0.824492	0.093035	-0.356081
N104	N	1.324492	0.593035	0.143919
C105	C	0.919733	-0.002147	0.356163
C106	C	1.419733	0.497853	0.856163
C107	C	0.967361	-0.049736	0.428106
C108	C	1.467361	0.450264	0.928106
C109	C	0.967368	-0.049737	0.571985
C110	C	1.467368	0.450263	1.071985
C111	C	0.919741	-0.002144	0.643926
C112	C	1.419741	0.497856	1.143926
C113	C	0.872113	0.045446	0.571983
C114	C	1.372113	0.545446	1.071983
C115	C	0.872113	0.045442	0.428100
C116	C	1.372113	0.545442	0.928100
C117	C	0.776865	0.140624	0.571977
C118	C	1.276865	0.640624	1.071977
C119	C	0.776860	0.140629	0.428097
C120	C	1.276860	0.640629	0.928097
C121	C	0.729237	0.188217	0.643917
C122	C	1.229237	0.688217	1.143917
C123	C	0.681612	0.235811	0.571974
C124	C	1.181612	0.735811	1.071974
C125	C	0.681607	0.235810	0.428085
C126	C	1.181607	0.735810	0.928085
C127	C	0.729232	0.188219	0.356154
C128	C	1.229232	0.688219	0.856154
H129	H	0.612555	0.097277	0.226091
H130	H	1.112555	0.597277	0.726091
Br131	Br	0.460663	0.095067	-0.293685
Br132	Br	0.960663	0.595067	0.206315
Br133	Br	0.819938	-0.714781	-0.293705
Br134	Br	1.319938	-0.214781	0.206295
H135	H	0.822185	-0.562923	0.226087
H136	H	1.322185	-0.062923	0.726087
Br137	Br	0.460671	0.095041	0.293743
Br138	Br	0.960671	0.595041	0.793743
Br139	Br	0.616975	0.300389	0.669609
Br140	Br	1.116975	0.800389	1.169609
H141	H	0.642820	0.274561	0.369517
H142	H	1.142820	0.774561	0.869517
Br143	Br	0.919739	-0.002155	0.839192
Br144	Br	1.419739	0.497845	1.339192
Br145	Br	0.919740	-0.002140	0.160896
Br146	Br	1.419740	0.497860	0.660896
Br147	Br	0.826509	-0.270797	0.293753
Br148	Br	1.326509	0.229203	0.793753
Br149	Br	0.729239	0.188214	0.839184
Br150	Br	1.229239	0.688214	1.339184
H151	H	1.006149	-0.088491	0.630561
H152	H	1.506149	0.411509	1.130561
H153	H	0.828729	-0.118911	0.226113
H154	H	1.328729	0.381089	0.726113
Br155	Br	0.828985	-0.099114	-0.293669
Br156	Br	1.328985	0.400886	0.206331
H157	H	0.820260	-0.695036	0.226082
H158	H	1.320260	-0.195036	0.726082
Br159	Br	0.822481	-0.543130	-0.293688
Br160	Br	1.322481	-0.043130	0.206312
H161	H	0.168543	0.090730	0.226097
H162	H	0.668543	0.590730	0.726097
Br163	Br	0.729234	0.188218	0.160887
Br164	Br	1.229234	0.688218	0.660887
Br165	Br	0.016653	0.088521	-0.293672
Br166	Br	0.516653	0.588521	0.206328
Br167	Br	0.016657	0.088480	0.293759
Br168	Br	0.516657	0.588480	0.793759
H169	H	0.168532	0.090755	-0.226028
H170	H	0.668532	0.590755	0.273972
H171	H	0.826782	-0.250999	-0.226029
H172	H	1.326782	0.249001	0.273971
Br173	Br	0.632315	0.097577	-0.293686
Br174	Br	1.132315	0.597577	0.206314
H175	H	1.006138	-0.088487	0.369519
H176	H	1.506138	0.411513	0.869519
