data_functionalizedCrystal
_audit_creation_method	'MofGen! by Chris Wilmer'
_symmetry_space_group_name_H-M	'P1'
_symmetry_Int_Tables_number	1
_symmetry_cell_setting	triclinic
loop_
_symmetry_equiv_pos_as_xyz
  x,y,z
_cell_length_a	14.044220
_cell_length_b	15.995350
_cell_length_c	12.503572
_cell_angle_alpha	93.525550
_cell_angle_beta	86.164750
_cell_angle_gamma	88.340626
loop_
_atom_site_label
_atom_site_type_symbol
_atom_site_fract_x
_atom_site_fract_y
_atom_site_fract_z
O1	O	1.263165	0.197434	-0.089196
O2	O	1.763165	0.697434	0.410804
O3	O	0.987198	0.190148	-0.089224
O4	O	1.487198	0.690148	0.410776
O5	O	1.132725	0.072467	-0.089208
O6	O	1.632725	0.572467	0.410792
O7	O	1.117638	0.315115	-0.089212
O8	O	1.617638	0.815115	0.410788
O9	O	1.121781	0.081333	0.089432
O10	O	1.621781	0.581333	0.589432
O11	O	0.976253	0.199014	0.089417
O12	O	1.476253	0.699014	0.589417
O13	O	1.252221	0.206300	0.089445
O14	O	1.752221	0.706300	0.589445
Cu15	Cu	1.113237	0.203467	0.105742
Cu16	Cu	1.613237	0.703467	0.605742
Cu17	Cu	1.126181	0.192981	-0.105521
Cu18	Cu	1.626181	0.692981	0.394479
O19	O	1.106693	0.323981	0.089429
O20	O	1.606693	0.823981	0.589429
C21	C	0.946411	0.191392	0.000093
C22	C	1.446411	0.691392	0.500093
C23	C	0.841186	0.181881	0.000082
C24	C	1.341186	0.681881	0.500082
C25	C	0.648523	0.164494	0.000104
C26	C	1.148523	0.664494	0.500104
C27	C	0.590890	0.231950	0.000107
C28	C	1.090890	0.731950	0.500107
C29	C	0.483686	0.222276	0.000119
C30	C	0.983686	0.722276	0.500119
C31	C	0.755737	0.174167	0.000092
C32	C	1.255737	0.674167	0.500092
C33	C	1.126629	0.045658	0.000110
C34	C	1.626629	0.545658	0.500110
C35	C	1.124760	-0.047432	0.000104
C36	C	1.624760	0.452568	0.500104
C37	C	1.118044	-0.385681	0.000107
C38	C	1.618044	0.114319	0.500107
C39	C	1.014426	-0.346008	-0.000304
C40	C	1.514426	0.153992	0.499696
C41	C	1.016272	-0.249158	0.000099
C42	C	1.516272	0.250842	0.500099
C43	C	1.121375	-0.217872	0.000105
C44	C	1.621375	0.282128	0.500105
C45	C	1.166245	-0.250068	0.102120
C46	C	1.666245	0.249932	0.602120
C47	C	1.163636	-0.346894	0.102206
C48	C	1.663636	0.153106	0.602206
C49	C	1.178223	-0.357175	-0.100942
C50	C	1.678223	0.142825	0.399058
C51	C	1.178281	-0.260298	-0.102290
C52	C	1.678281	0.239702	0.397710
C53	C	1.123263	-0.123033	0.000107
C54	C	1.623263	0.376967	0.500107
C55	C	1.116158	-0.480519	0.000111
C56	C	1.616158	0.019481	0.500111
C57	C	1.293007	0.205055	0.000125
C58	C	1.793007	0.705055	0.500125
C59	C	1.398233	0.214567	0.000129
C60	C	1.898233	0.714567	0.500129
C61	C	1.112789	0.350789	0.000108
C62	C	1.612789	0.850789	0.500108
C63	C	1.114659	0.443879	0.000108
C64	C	1.614659	0.943879	0.500108
N65	N	1.104141	0.210842	0.254333
N66	N	1.604141	0.710842	0.754333
N67	N	1.135285	0.185600	-0.254113
N68	N	1.635285	0.685600	0.245887
C69	C	1.090759	0.221698	0.473447
C70	C	1.590759	0.721698	0.973447
C71	C	1.148663	0.174747	0.526780
C72	C	1.648663	0.674747	1.026780
C73	C	1.141218	0.180787	0.648703
C74	C	1.641218	0.680787	1.148703
C75	C	1.098204	0.215658	0.351514
C76	C	1.598204	0.715658	0.851514
H77	H	0.617354	0.099482	0.000111
H78	H	1.117354	0.599482	0.500111
C79	C	0.632994	0.319781	0.000082
C80	C	1.132994	0.819781	0.500082
H81	H	0.700570	0.314847	0.000062
H82	H	1.200570	0.814847	0.500062
H83	H	0.608398	0.352442	0.062372
H84	H	1.108398	0.852442	0.562372
H85	H	0.616005	0.346233	-0.062228
H86	H	1.116005	0.846233	0.437772
C87	C	0.968027	-0.219714	-0.098680
C88	C	1.468027	0.280286	0.401320
H89	H	0.947117	-0.266972	-0.139415
H90	H	1.447117	0.233028	0.360585
H91	H	1.012436	-0.190446	-0.141841
H92	H	1.512436	0.309554	0.358159
H93	H	0.914740	-0.183571	-0.075717
H94	H	1.414740	0.316429	0.424283
C95	C	0.964508	-0.380135	-0.099122
C96	C	1.464508	0.119865	0.400878
H97	H	1.006407	-0.418888	-0.141014
H98	H	1.506407	0.081112	0.358986
H99	H	0.948020	-0.335068	-0.141134
H100	H	1.448020	0.164932	0.358866
H101	H	0.908303	-0.407524	-0.076178
H102	H	1.408303	0.092476	0.423822
H103	H	1.203829	0.130016	0.480873
H104	H	1.703829	0.630016	0.980873
H105	H	1.035599	0.266427	0.519349
H106	H	1.535599	0.766427	1.019349
C107	C	1.106957	-0.370271	0.205207
C108	C	1.606957	0.129729	0.705207
H109	H	1.085736	-0.320619	0.246602
H110	H	1.585736	0.179381	0.746602
H111	H	1.146804	-0.403054	0.245998
H112	H	1.646804	0.096946	0.745998
H113	H	1.053346	-0.401548	0.186561
H114	H	1.553346	0.098452	0.686561
H115	H	0.968729	-0.365072	0.072438
H116	H	1.468729	0.134928	0.572438
C117	C	1.266040	-0.382473	0.108485
C118	C	1.766040	0.117527	0.608485
H119	H	1.309049	-0.337742	0.110982
H120	H	1.809049	0.162258	0.610982
H121	H	1.282885	-0.419068	0.046975
H122	H	1.782885	0.080932	0.546975
H123	H	1.269363	-0.412548	0.171396
H124	H	1.769363	0.087452	0.671396
C125	C	0.955574	-0.210680	0.099054
C126	C	1.455574	0.289320	0.599054
H127	H	0.929698	-0.254247	0.139170
H128	H	1.429698	0.245753	0.639170
H129	H	0.905095	-0.176712	0.076309
H130	H	1.405095	0.323288	0.576309
H131	H	0.994496	-0.177352	0.142751
H132	H	1.494496	0.322648	0.642751
H133	H	1.243229	-0.229986	0.105919
H134	H	1.743229	0.270014	0.605919
H135	H	1.126089	-0.220570	0.178033
H136	H	1.626089	0.279430	0.678033
H137	H	1.149075	-0.384083	-0.178264
H138	H	1.649075	0.115917	0.321736
C139	C	1.134112	-0.232243	-0.204247
C140	C	1.634112	0.267757	0.295753
H141	H	1.081215	-0.194827	-0.184507
H142	H	1.581215	0.305173	0.315493
H143	H	1.113284	-0.279870	-0.244305
H144	H	1.613284	0.220130	0.255695
H145	H	1.180589	-0.204704	-0.246823
H146	H	1.680589	0.295296	0.253177
H147	H	1.255304	-0.239517	-0.108445
H148	H	1.755304	0.260483	0.391555
H149	H	1.254680	-0.383262	-0.101623
H150	H	1.754680	0.116738	0.398377
