data_functionalizedCrystal
_audit_creation_method	'MofGen! by Chris Wilmer'
_symmetry_space_group_name_H-M	'P1'
_symmetry_Int_Tables_number	1
_symmetry_cell_setting	triclinic
loop_
_symmetry_equiv_pos_as_xyz
  x,y,z
_cell_length_a	6.394989
_cell_length_b	11.026607
_cell_length_c	10.065875
_cell_angle_alpha	100.697662
_cell_angle_beta	80.951547
_cell_angle_gamma	97.541864
loop_
_atom_site_label
_atom_site_type_symbol
_atom_site_fract_x
_atom_site_fract_y
_atom_site_fract_z
O1	O	-0.855566	-1.641000	-0.113474
O2	O	-0.755391	-1.286163	-0.113478
O3	O	-0.503308	-1.468618	-0.113477
O4	O	-1.107649	-1.458545	-0.113475
O5	O	-0.551624	-1.433830	0.113511
O6	O	-0.803707	-1.251375	0.113510
O7	O	-0.903882	-1.606212	0.113514
Zn8	Zn	-0.861465	-1.423270	0.149552
Zn9	Zn	-0.797807	-1.469105	-0.149516
O10	O	-1.155965	-1.423757	0.113513
C11	C	-0.761068	-1.223275	0.000015
C12	C	-0.705977	-1.087719	0.000013
C13	C	-0.898204	-1.669100	0.000018
C14	C	-0.953293	-1.804658	0.000011
N15	N	-0.904912	-1.391998	0.353657
C16	C	-0.448894	-1.449233	0.000012
C17	C	-0.210370	-1.443147	0.000011
N18	N	-0.754347	-1.500386	-0.353621
C19	C	-0.858092	-1.016240	0.000013
C20	C	-0.801156	-0.876135	0.000011
C21	C	-0.812908	-1.458216	0.421436
C22	C	-0.846365	-1.434158	0.578603
H23	H	-1.030475	-1.058766	0.000021
O24	O	-0.595583	-0.825228	-0.000052
C25	C	-0.351440	-0.639147	0.000027
C26	C	-0.584322	-0.696644	0.000067
H27	H	-0.342265	-0.535175	0.000152
H28	H	-0.249566	-0.684325	-0.094992
H29	H	-0.290095	-0.655372	0.094997
H30	H	-0.645861	-0.680436	-0.094839
H31	H	-0.686051	-0.651460	0.095149
H32	H	-1.125689	-0.847177	0.000020
O33	O	-0.969609	-1.345106	0.648108
C34	C	-1.023127	-1.128221	0.692080
C35	C	-0.883348	-1.228942	0.613304
H36	H	-0.953465	-1.034284	0.663948
H37	H	-1.028065	-1.124545	0.806456
H38	H	-1.191443	-1.151296	0.664083
H39	H	-0.714967	-1.205940	0.641186
H40	H	-0.878591	-1.232596	0.498947
O41	O	-0.689097	-1.546971	0.351897
C42	C	-0.341069	-1.619125	0.307860
C43	C	-0.481012	-1.518505	0.386687
H44	H	-0.172815	-1.596160	0.335980
H45	H	-0.335958	-1.622667	0.193492
H46	H	-0.410894	-1.713100	0.335822
H47	H	-0.411293	-1.424479	0.358839
H48	H	-0.486120	-1.515072	0.501036
O49	O	-1.028149	-1.302950	0.423167
C50	C	-1.081667	-1.086066	0.467139
C51	C	-0.941888	-1.186787	0.388363
H52	H	-1.012005	-0.992129	0.439006
H53	H	-1.086605	-1.082390	0.581515
H54	H	-1.249983	-1.109140	0.439142
H55	H	-0.773507	-1.163784	0.416245
H56	H	-0.937131	-1.190441	0.274006
O57	O	-0.630336	-1.589115	0.577017
C58	C	-0.282124	-1.661001	0.533534
C59	C	-0.422416	-1.560436	0.612053
H60	H	-0.114004	-1.637865	0.561853
H61	H	-0.276707	-1.664688	0.419118
H62	H	-0.351865	-1.754961	0.561573
H63	H	-0.352782	-1.466425	0.584129
H64	H	-0.427831	-1.556859	0.726450
H65	H	-0.533588	-1.045197	-0.000022
