data_functionalizedCrystal
_audit_creation_method	'MofGen! by Chris Wilmer'
_symmetry_space_group_name_H-M	'P1'
_symmetry_Int_Tables_number	1
_symmetry_cell_setting	triclinic
loop_
_symmetry_equiv_pos_as_xyz
  x,y,z
_cell_length_a	29.999520
_cell_length_b	29.998686
_cell_length_c	29.995014
_cell_angle_alpha	60.005185
_cell_angle_beta	60.010401
_cell_angle_gamma	59.993433
loop_
_atom_site_label
_atom_site_type_symbol
_atom_site_fract_x
_atom_site_fract_y
_atom_site_fract_z
O1	O	0.061772	-0.651300	0.544623
O2	O	0.561772	-0.151300	1.044623
O3	O	0.023267	-0.507084	0.438819
O4	O	0.523267	-0.007084	0.938819
O5	O	0.114589	-0.598332	0.438743
O6	O	0.614589	-0.098332	0.938743
O7	O	-0.029550	-0.560051	0.544699
O8	O	0.470450	-0.060051	1.044699
O9	O	0.144886	-0.568039	0.468961
O10	O	0.644886	-0.068039	0.968961
O11	O	0.053564	-0.476791	0.469038
O12	O	0.553564	0.023209	0.969038
O13	O	0.092069	-0.621007	0.574841
O14	O	0.592069	-0.121007	1.074841
Zn15	Zn	0.077627	-0.544089	0.526737
Zn16	Zn	0.577627	-0.044089	1.026737
Zn17	Zn	0.037709	-0.584002	0.486923
Zn18	Zn	0.537709	-0.084002	0.986923
O19	O	0.000748	-0.529758	0.574918
O20	O	0.500748	-0.029758	1.074918
N21	N	0.104871	-0.516854	0.553912
N22	N	0.604871	-0.016854	1.053912
N23	N	0.010470	-0.611242	0.459748
N24	N	0.510470	-0.111242	0.959748
C25	C	0.143162	-0.478782	0.827124
C26	C	0.643162	0.021218	1.327124
C27	C	0.378203	-0.478734	0.591892
C28	C	0.878203	0.021266	1.091892
C29	C	0.143005	-0.478752	0.591997
C30	C	0.643005	0.021248	1.091997
C31	C	0.142986	-0.243586	0.592008
C32	C	0.642986	0.256414	1.092008
C33	C	0.180857	-0.357087	0.629814
C34	C	0.680857	0.142913	1.129814
C35	C	0.180866	-0.440920	0.629807
C36	C	0.680866	0.059080	1.129807
C37	C	0.201840	-0.419964	0.650755
C38	C	0.701840	0.080036	1.150755
C39	C	0.293272	-0.404201	0.602606
C40	C	0.793272	0.095799	1.102606
C41	C	0.350426	-0.423248	0.583534
C42	C	0.850426	0.076752	1.083534
C43	C	0.350451	-0.515727	0.618798
C44	C	0.850451	-0.015727	1.118798
C45	C	0.293297	-0.496678	0.637872
C46	C	0.793297	0.003322	1.137872
C47	C	0.194628	-0.328499	0.573626
C48	C	0.694628	0.171501	1.073626
C49	C	0.175551	-0.271340	0.554591
C50	C	0.675551	0.228660	1.054591
C51	C	0.128936	-0.271362	0.647935
C52	C	0.628936	0.228638	1.147935
C53	C	0.148014	-0.328521	0.666970
C54	C	0.648014	0.171479	1.166970
C55	C	0.124672	-0.427119	0.643641
C56	C	0.624672	0.072881	1.143641
C57	C	0.105611	-0.446170	0.624592
C58	C	0.605611	0.053830	1.124592
C59	C	0.198934	-0.492820	0.577889
C60	C	0.698934	0.007180	1.077889
C61	C	0.217998	-0.473770	0.596931
C62	C	0.717998	0.026230	1.096931
C63	C	0.124740	-0.427136	0.742229
C64	C	0.624740	0.072864	1.242229
C65	C	0.105728	-0.446202	0.799386
C66	C	0.605728	0.053798	1.299386
C67	C	0.199085	-0.492863	0.799337
C68	C	0.699085	0.007137	1.299337
C69	C	0.218096	-0.473798	0.742178
C70	C	0.718096	0.026202	1.242178
C71	C	0.180923	-0.440933	0.713626
C72	C	0.680923	0.059067	1.213626
C73	C	0.264710	-0.440915	0.629773
C74	C	0.764710	0.059085	1.129773
C75	C	0.121509	-0.499370	0.889991
C76	C	0.621509	0.000630	1.389991
C77	C	0.441068	-0.498953	0.570621
C78	C	0.941068	0.001047	1.070621
C79	C	0.121297	-0.499349	0.571429
C80	C	0.621297	0.000651	1.071429
C81	C	0.121653	-0.180715	0.571802
C82	C	0.621653	0.319285	1.071802
C83	C	-0.111071	-0.648912	0.421584
C84	C	0.388929	-0.148912	0.921584
C85	C	-0.027286	-0.649018	0.421777
C86	C	0.472714	-0.149018	0.921777
C87	C	-0.048200	-0.669944	0.400740
C88	C	0.451800	-0.169944	0.900740
C89	C	-0.064036	-0.761340	0.448814
C90	C	0.435964	-0.261340	0.948814
C91	C	-0.045033	-0.818500	0.467893
C92	C	0.454967	-0.318500	0.967893
C93	C	0.047447	-0.818609	0.432797
C94	C	0.547447	-0.318609	0.932797
C95	C	0.028444	-0.761451	0.413717
C96	C	0.528444	-0.261451	0.913717
C97	C	-0.139731	-0.662677	0.477755
C98	C	0.360269	-0.162677	0.977755
C99	C	-0.196885	-0.643554	0.496701
C100	C	0.303115	-0.143554	0.996701
C101	C	-0.196717	-0.596907	0.403303
C102	C	0.303283	-0.096907	0.903303
C103	C	-0.139562	-0.616030	0.384357
C104	C	0.360438	-0.116030	0.884357
C105	C	-0.041053	-0.592827	0.407952
C106	C	0.458947	-0.092827	0.907952
C107	C	-0.022041	-0.573809	0.427083
C108	C	0.477959	-0.073809	0.927083
C109	C	0.024504	-0.667167	0.473848
C110	C	0.524504	-0.167167	0.973848
C111	C	0.005492	-0.686188	0.454725
C112	C	0.505492	-0.186188	0.954725
C113	C	-0.040886	-0.592836	0.309259
C114	C	0.459114	-0.092836	0.809259
C115	C	-0.021740	-0.573821	0.252102
C116	C	0.478260	-0.073821	0.752102
C117	C	0.024886	-0.667185	0.252163
C118	C	0.524886	-0.167185	0.752163
C119	C	0.005743	-0.686199	0.309322
C120	C	0.505743	-0.186199	0.809322
C121	C	-0.027145	-0.649023	0.337868
C122	C	0.472855	-0.149023	0.837868
C123	C	-0.027299	-0.732818	0.421728
C124	C	0.472701	-0.232818	0.921728
N125	N	0.492511	-0.516826	0.553742
N126	N	0.992511	-0.016826	1.053742
O127	O	0.679283	-0.525926	0.419277
O128	O	1.179283	-0.025926	0.919277
O129	O	0.679465	-0.632059	0.563349
O130	O	1.179465	-0.132059	1.063349
O131	O	0.679393	-0.631817	0.471975
O132	O	1.179393	-0.131817	0.971975
O133	O	0.679355	-0.526168	0.510650
O134	O	1.179355	-0.026168	1.010650
O135	O	0.588593	-0.601610	0.502313
O136	O	1.088593	-0.101610	1.002313
O137	O	0.588665	-0.601852	0.593686
O138	O	1.088665	-0.101852	1.093686
O139	O	0.588483	-0.495720	0.449614
O140	O	1.088483	0.004280	0.949614
Zn141	Zn	0.574158	-0.543990	0.526467
Zn142	Zn	1.074158	-0.043990	1.026467
Zn143	Zn	0.693790	-0.583788	0.486496
Zn144	Zn	1.193790	-0.083788	0.986496
O145	O	0.588555	-0.495962	0.540987
O146	O	1.088555	0.004038	1.040987
N147	N	0.775436	-0.610952	0.459215
N148	N	1.275436	-0.110952	0.959215
N149	N	0.104844	-0.129269	0.553931
N150	N	0.604844	0.370731	1.053931
O151	O	-0.029548	0.057600	0.544709
O152	O	0.470452	0.557600	1.044709
O153	O	0.114530	0.057617	0.438578
O154	O	0.614530	0.557617	0.938578
O155	O	0.023130	0.057594	0.438850
O156	O	0.523130	0.557594	0.938850
O157	O	0.061852	0.057623	0.544437
O158	O	0.561852	0.557623	1.044437
O159	O	0.053431	-0.033213	0.469115
O160	O	0.553431	0.466787	0.969115
O161	O	0.144831	-0.033190	0.468843
O162	O	0.644831	0.466810	0.968843
O163	O	0.000753	-0.033207	0.574974
O164	O	0.500753	0.466793	1.074974
Zn165	Zn	0.077603	-0.047616	0.526714
Zn166	Zn	0.577603	0.452384	1.026714
Zn167	Zn	0.037680	0.072026	0.486838
Zn168	Zn	0.537680	0.572026	0.986838
O169	O	0.092153	-0.033184	0.574702
O170	O	0.592153	0.466816	1.074702
N171	N	0.010432	0.153679	0.459622
N172	N	0.510432	0.653679	0.959622
N173	N	0.105130	-0.516904	0.941437
N174	N	0.605130	-0.016904	1.441437
O175	O	0.095923	-0.651280	1.128292
O176	O	0.595923	-0.151280	1.628292
O177	O	-0.010184	-0.507155	1.128318
O178	O	0.489816	-0.007155	1.628318
O179	O	-0.009938	-0.598539	1.128284
O180	O	0.490062	-0.098539	1.628284
O181	O	0.095677	-0.559897	1.128326
O182	O	0.595677	-0.059897	1.628326
O183	O	0.020315	-0.568257	1.037481
O184	O	0.520315	-0.068257	1.537481
O185	O	0.020068	-0.476874	1.037515
O186	O	0.520068	0.023126	1.537515
O187	O	0.126176	-0.620999	1.037489
O188	O	0.626176	-0.120999	1.537489
Zn189	Zn	0.077925	-0.544128	1.023085
Zn190	Zn	0.577925	-0.044128	1.523085
Zn191	Zn	0.038066	-0.584026	1.142722
Zn192	Zn	0.538066	-0.084026	1.642722
O193	O	0.125929	-0.529616	1.037523
O194	O	0.625929	-0.029616	1.537523
N195	N	0.010860	-0.611256	1.224371
N196	N	0.510860	-0.111256	1.724371
C197	C	0.034807	-0.473765	0.439352
C198	C	0.534807	0.026235	0.939352
C199	C	0.147897	-0.586765	0.439257
C200	C	0.647897	-0.086765	0.939257
C201	C	0.080529	-0.654326	0.574308
C202	C	0.580529	-0.154326	1.074308
C203	C	-0.032561	-0.541326	0.574403
C204	C	0.467439	-0.041326	1.074403
C205	C	0.634087	-0.631571	0.596668
C206	C	1.134087	-0.131571	1.096668
C207	C	0.633999	-0.631272	0.483513
C208	C	1.133999	-0.131272	0.983513
C209	C	0.633858	-0.496206	0.416295
C210	C	1.133858	0.003794	0.916295
C211	C	0.633949	-0.496507	0.529449
C212	C	1.133949	0.003493	1.029449
C213	C	0.147793	0.012327	0.439058
C214	C	0.647793	0.512327	0.939058
C215	C	0.034644	0.012187	0.439432
C216	C	0.534644	0.512187	0.939432
C217	C	-0.032548	0.012195	0.574457
C218	C	0.467452	0.512195	1.074457
C219	C	0.080639	0.012222	0.574120
C220	C	0.580639	0.512222	1.074120
C221	C	-0.009670	-0.473857	1.082920
C222	C	0.490330	0.026143	1.582920
C223	C	-0.009359	-0.587018	1.082860
C224	C	0.490641	-0.087018	1.582860
C225	C	0.125662	-0.654297	1.082887
C226	C	0.625662	-0.154297	1.582887
C227	C	0.125358	-0.541129	1.082927
C228	C	0.625358	-0.041129	1.582927
H229	H	0.059977	-0.434960	0.822668
H230	H	0.559977	0.065040	1.322668
O231	O	0.197100	0.012561	0.399276
O232	O	0.697100	0.512561	0.899276
C233	C	0.294303	-0.034044	0.372557
C234	C	0.794303	0.465956	0.872557
C235	C	0.238498	-0.034368	0.417659
C236	C	0.738498	0.465632	0.917659
H237	H	0.327787	-0.071988	0.387399
H238	H	0.827787	0.428012	0.887399
H239	H	0.302124	0.004022	0.362365
H240	H	0.802124	0.504022	0.862365
H241	H	0.294304	-0.033940	0.334497
H242	H	0.794304	0.466060	0.834497
H243	H	0.238456	-0.034492	0.455747
H244	H	0.738456	0.465508	0.955747
H245	H	0.230700	-0.072430	0.427804
H246	H	0.730700	0.427570	0.927804
H247	H	0.634133	-0.664888	0.638048
H248	H	1.134133	-0.164888	1.138048
O249	O	0.024899	-0.424323	0.399757
O250	O	0.524899	0.075677	0.899757
C251	C	-0.039878	-0.334430	0.374653
C252	C	0.460122	0.165570	0.874653
C253	C	-0.028735	-0.390402	0.419538
C254	C	0.471265	0.109598	0.919538
H255	H	-0.083236	-0.306985	0.390633
H256	H	0.416764	0.193015	0.890633
H257	H	-0.035025	-0.340076	0.337411
H258	H	0.464975	0.159924	0.837411
H259	H	-0.009602	-0.314778	0.362696
H260	H	0.490398	0.185222	0.862696
H261	H	-0.059001	-0.410084	0.431541
H262	H	0.440999	0.089916	0.931541
H263	H	-0.033569	-0.384720	0.456750
H264	H	0.466431	0.115280	0.956750
O265	O	-0.081911	0.012266	0.614228
O266	O	0.418089	0.512266	1.114228
C267	C	-0.162029	0.059333	0.673909
C268	C	0.337971	0.559333	1.173909
C269	C	-0.106131	0.059312	0.628878
C270	C	0.393869	0.559312	1.128878
H271	H	-0.181632	0.097371	0.685758
H272	H	0.318368	0.597371	1.185758
H273	H	-0.156297	0.021361	0.711173
H274	H	0.343703	0.521361	1.211173
H275	H	-0.189558	0.059297	0.658102
H276	H	0.310442	0.559297	1.158102
H277	H	-0.078572	0.059367	0.644633
H278	H	0.421428	0.559367	1.144633
H279	H	-0.111903	0.097281	0.591622
H280	H	0.388097	0.597281	1.091622
H281	H	0.633941	-0.463320	0.537725
H282	H	1.133941	0.036680	1.037725
H283	H	0.088930	0.012231	0.607291
H284	H	0.588930	0.512231	1.107291
H285	H	-0.042983	-0.432464	1.082928
H286	H	0.457017	0.067536	1.582928
H287	H	0.088756	-0.695753	0.607538
H288	H	0.588756	-0.195753	1.107538
H289	H	-0.042525	-0.595273	1.082811
H290	H	0.457475	-0.095273	1.582811
O291	O	0.634039	-0.670936	0.473727
O292	O	1.134039	-0.170936	0.973727
C293	C	0.634089	-0.762940	0.509438
C294	C	1.134089	-0.262940	1.009438
C295	C	0.634057	-0.718074	0.520589
C296	C	1.134057	-0.218074	1.020589
H297	H	0.634092	-0.801058	0.547322
H298	H	1.134092	-0.301058	1.047322
H299	H	0.672078	-0.773157	0.473700
H300	H	1.172078	-0.273157	0.973700
H301	H	0.596078	-0.747803	0.499043
H302	H	1.096078	-0.247803	0.999043
H303	H	0.672042	-0.733174	0.531007
H304	H	1.172042	-0.233174	1.031007
H305	H	0.596043	-0.707864	0.556312
H306	H	1.096043	-0.207864	1.056312
O307	O	0.056428	-0.703255	0.505772
O308	O	0.556428	-0.203255	1.005772
C309	C	0.143351	-0.735995	0.516164
C310	C	0.643351	-0.235995	1.016164
C311	C	0.107260	-0.695103	0.479950
C312	C	0.607260	-0.195103	0.979950
H313	H	0.184452	-0.729411	0.495307
H314	H	0.684452	-0.229411	0.995307
H315	H	0.149970	-0.779433	0.522742
H316	H	0.649970	-0.279433	1.022742
H317	H	0.122328	-0.729388	0.557277
H318	H	0.622328	-0.229388	1.057277
H319	H	0.128253	-0.701660	0.438817
H320	H	0.628253	-0.201660	0.938817
H321	H	0.100639	-0.651679	0.473417
H322	H	0.600639	-0.151679	0.973417
O323	O	0.165340	-0.703714	1.082900
O324	O	0.665340	-0.203714	1.582900
C325	C	0.190737	-0.793644	1.082832
C326	C	0.690737	-0.293644	1.582832
C327	C	0.145750	-0.737709	1.082832
C328	C	0.645750	-0.237709	1.582832
H329	H	0.174920	-0.821140	1.082765
H330	H	0.674920	-0.321140	1.582765
H331	H	0.202646	-0.813297	1.120844
H332	H	0.702646	-0.313297	1.620844
H333	H	0.227969	-0.787887	1.044843
H334	H	0.727969	-0.287887	1.544843
H335	H	0.108489	-0.743418	1.120795
H336	H	0.608489	-0.243418	1.620795
H337	H	0.133888	-0.718075	1.044794
H338	H	0.633888	-0.218075	1.544794
O339	O	0.164892	-0.531171	1.082910
O340	O	0.664892	-0.031171	1.582910
C341	C	0.189851	-0.466321	1.082964
C342	C	0.689851	0.033679	1.582964
C343	C	0.145034	-0.477521	1.082971
C344	C	0.645034	0.022479	1.582971
H345	H	0.173808	-0.422950	1.083025
H346	H	0.673808	0.077050	1.583025
H347	H	0.227110	-0.471167	1.044952
H348	H	0.727110	0.028833	1.544952
H349	H	0.201803	-0.496576	1.120953
H350	H	0.701803	0.003424	1.620953
H351	H	0.133036	-0.447277	1.045008
H352	H	0.633036	0.052723	1.545008
H353	H	0.107804	-0.472694	1.121009
H354	H	0.607804	0.027306	1.621009
H355	H	0.026351	0.012184	0.406260
H356	H	0.526351	0.512184	0.906260
O357	O	0.088553	-0.395236	0.714578
O358	O	0.588553	0.104764	1.214578
C359	C	-0.006052	-0.350937	0.720660
C360	C	0.493948	0.149063	1.220660
C361	C	0.034867	-0.387076	0.752043
C362	C	0.534867	0.112924	1.252043
H363	H	-0.049466	-0.344319	0.750937
H364	H	0.450534	0.155681	1.250937
H365	H	0.000476	-0.371868	0.693917
H366	H	0.500476	0.128132	1.193917
H367	H	0.000548	-0.309834	0.693888
H368	H	0.500548	0.190166	1.193888
H369	H	0.028292	-0.428184	0.778844
H370	H	0.528292	0.071816	1.278844
H371	H	0.028329	-0.366102	0.778752
H372	H	0.528329	0.133898	1.278752
O373	O	0.235271	-0.524793	0.826984
O374	O	0.735271	-0.024793	1.326984
C375	C	0.329877	-0.569020	0.820895
C376	C	0.829877	-0.069020	1.320895
C377	C	0.288956	-0.532866	0.789517
C378	C	0.788956	-0.032866	1.289517
H379	H	0.373290	-0.575548	0.790616
H380	H	0.873290	-0.075548	1.290616
H381	H	0.323361	-0.610163	0.847636
H382	H	0.823361	-0.110163	1.347636
H383	H	0.323271	-0.548078	0.847668
H384	H	0.823271	-0.048078	1.347668
H385	H	0.295537	-0.553759	0.762713
H386	H	0.795537	-0.053759	1.262713
H387	H	0.295483	-0.491724	0.762809
H388	H	0.795483	0.008276	1.262809
H389	H	-0.109425	-0.738032	0.455342
H390	H	0.390575	-0.238032	0.955342
H391	H	0.094434	-0.400372	0.670409
H392	H	0.594434	0.099628	1.170409
O393	O	0.051019	-0.432836	0.638122
O394	O	0.551019	0.067164	1.138122
C395	C	-0.034551	-0.437199	0.710619
C396	C	0.465449	0.062801	1.210619
C397	C	0.027267	-0.452342	0.695372
C398	C	0.527267	0.047658	1.195372
H399	H	-0.053774	-0.452953	0.756906
H400	H	0.446226	0.047047	1.256906
H401	H	-0.041824	-0.456476	0.691399
H402	H	0.458176	0.043524	1.191399
H403	H	-0.053825	-0.390916	0.694836
H404	H	0.446175	0.109084	1.194836
H405	H	0.046583	-0.498617	0.711152
H406	H	0.546583	0.001383	1.211152
H407	H	0.034502	-0.433027	0.714584
H408	H	0.534502	0.066973	1.214584
O409	O	0.235079	-0.524709	0.545943
O410	O	0.735079	-0.024709	1.045943
C411	C	0.329659	-0.568999	0.501661
C412	C	0.829659	-0.068999	1.001661
C413	C	0.288783	-0.532871	0.537835
C414	C	0.788783	-0.032871	1.037835
H415	H	0.373088	-0.575619	0.495103
H416	H	0.873088	-0.075619	0.995103
H417	H	0.323087	-0.548057	0.460534
H418	H	0.823087	-0.048057	0.960534
H419	H	0.323057	-0.610101	0.522600
H420	H	0.823057	-0.110101	1.022600
H421	H	0.295361	-0.491763	0.516944
H422	H	0.795361	0.008237	1.016944
H423	H	0.295365	-0.553856	0.578960
H424	H	0.795365	-0.053856	1.078960
O425	O	0.633694	-0.456401	0.366978
O426	O	1.133694	0.043599	0.866978
C427	C	0.586566	-0.365340	0.318286
C428	C	1.086566	0.134660	0.818286
C429	C	0.586678	-0.410377	0.374171
C430	C	1.086678	0.089623	0.874171
H431	H	0.548563	-0.328114	0.324083
H432	H	1.048563	0.171886	0.824083
H433	H	0.586518	-0.381122	0.290741
H434	H	1.086518	0.118878	0.790741
H435	H	0.624561	-0.353430	0.298661
H436	H	1.124561	0.146570	0.798661
H437	H	0.548689	-0.422306	0.393843
H438	H	1.048689	0.077694	0.893843
H439	H	0.586754	-0.394570	0.401676
H440	H	1.086754	0.105430	0.901676
H441	H	0.189295	-0.594927	0.405983
H442	H	0.689295	-0.094927	0.905983
H443	H	-0.073962	-0.533167	0.607674
H444	H	0.426038	-0.033167	1.107674
H445	H	0.263847	-0.485039	0.718893
H446	H	0.763847	0.014961	1.218893
H447	H	0.270043	-0.526578	0.659994
H448	H	0.770043	-0.026578	1.159994
O449	O	0.378140	-0.569916	0.626724
O450	O	0.878140	-0.069916	1.126724
C451	C	0.372137	-0.659629	0.663676
C452	C	0.872137	-0.159629	1.163676
C453	C	0.340712	-0.598277	0.654749
C454	C	0.840712	-0.098277	1.154749
H455	H	0.341890	-0.682575	0.686324
H456	H	0.841890	-0.182575	1.186324
H457	H	0.398905	-0.675758	0.688819
H458	H	0.898905	-0.175758	1.188819
H459	H	0.398888	-0.665967	0.622451
H460	H	0.898888	-0.165967	1.122451
H461	H	0.313932	-0.591892	0.695948
H462	H	0.813932	-0.091892	1.195948
H463	H	0.313979	-0.582178	0.629580
H464	H	0.813979	-0.082178	1.129580
H465	H	0.373680	-0.393351	0.561411
H466	H	0.873680	0.106649	1.061411
O467	O	0.265589	-0.350018	0.594715
O468	O	0.765589	0.149982	1.094715
C469	C	0.271600	-0.260299	0.557690
C470	C	0.771600	0.239701	1.057690
C471	C	0.303020	-0.321649	0.566603
C472	C	0.803020	0.178351	1.066603
H473	H	0.301850	-0.237343	0.534951
H474	H	0.801850	0.262657	1.034951
H475	H	0.244878	-0.253902	0.598893
H476	H	0.744878	0.246098	1.098893
H477	H	0.244805	-0.244229	0.532595
H478	H	0.744805	0.255771	1.032595
H479	H	0.329845	-0.337760	0.591679
H480	H	0.829845	0.162240	1.091679
H481	H	0.329708	-0.328010	0.525381
H482	H	0.829708	0.171990	1.025381
H483	H	0.263756	-0.485001	0.585661
H484	H	0.763756	0.014999	1.085661
H485	H	0.186762	-0.248063	0.508836
H486	H	0.686762	0.251937	1.008836
O487	O	0.226448	-0.356227	0.537514
O488	O	0.726448	0.143773	1.037514
C489	C	0.233712	-0.373681	0.463558
C490	C	0.733712	0.126319	0.963558
C491	C	0.197614	-0.342255	0.504434
C492	C	0.697614	0.157745	1.004434
H493	H	0.210418	-0.362387	0.436794
H494	H	0.710418	0.137613	0.936794
H495	H	0.244970	-0.419451	0.486788
H496	H	0.744970	0.080549	0.986788
H497	H	0.272492	-0.362440	0.436805
H498	H	0.772492	0.137560	0.936805
H499	H	0.158811	-0.353450	0.531197
H500	H	0.658811	0.146550	1.031197
H501	H	0.186400	-0.296493	0.481170
H502	H	0.686400	0.203507	0.981170
O503	O	0.097099	-0.243664	0.684076
O504	O	0.597099	0.256336	1.184076
C505	C	0.089855	-0.226145	0.757981
C506	C	0.589855	0.273855	1.257981
C507	C	0.125965	-0.257556	0.717092
C508	C	0.625965	0.242444	1.217092
H509	H	0.113183	-0.237357	0.784678
H510	H	0.613183	0.262643	1.284678
H511	H	0.051088	-0.237404	0.784799
H512	H	0.551088	0.262596	1.284799
H513	H	0.078570	-0.180386	0.734707
H514	H	0.578570	0.319614	1.234707
H515	H	0.137292	-0.303323	0.740322
H516	H	0.637292	0.196677	1.240322
H517	H	0.164706	-0.246252	0.690275
H518	H	0.664706	0.253748	1.190275
O519	O	-0.035169	-0.519219	0.224401
O520	O	0.464831	-0.019219	0.724401
C521	C	-0.083421	-0.428624	0.230378
C522	C	0.416579	0.071376	0.730378
C523	C	-0.068266	-0.490444	0.261819
C524	C	0.431734	0.009556	0.761819
H525	H	-0.110173	-0.405341	0.260617
H526	H	0.389827	0.094659	0.760617
H527	H	-0.106665	-0.417322	0.203563
H528	H	0.393335	0.082678	0.703563
H529	H	-0.044606	-0.417443	0.203673
H530	H	0.455394	0.082557	0.703673
H531	H	-0.107053	-0.501669	0.288554
H532	H	0.392947	-0.001669	0.788554
H533	H	-0.045001	-0.501712	0.288599
H534	H	0.454999	-0.001712	0.788599
H535	H	0.136793	-0.351798	0.712725
H536	H	0.636793	0.148202	1.212725
H537	H	0.051655	-0.697459	0.228927
H538	H	0.551655	-0.197459	0.728927
O539	O	0.019122	-0.740800	0.337027
O540	O	0.519122	-0.240800	0.837027
C541	C	0.067412	-0.831397	0.331052
C542	C	0.567412	-0.331397	0.831052
C543	C	0.052292	-0.769577	0.299610
C544	C	0.552292	-0.269577	0.799610
H545	H	0.094241	-0.854681	0.300815
H546	H	0.594241	-0.354681	0.800815
H547	H	0.028619	-0.842623	0.357725
H548	H	0.528619	-0.342623	0.857725
H549	H	0.090600	-0.842651	0.357900
H550	H	0.590600	-0.342651	0.857900
H551	H	0.029118	-0.758278	0.272733
H552	H	0.529118	-0.258278	0.772733
H553	H	0.091105	-0.758384	0.272972
H554	H	0.591105	-0.258384	0.772972
O555	O	-0.072910	-0.556646	0.375976
O556	O	0.427090	-0.056646	0.875976
C557	C	-0.117046	-0.462038	0.331584
C558	C	0.382954	0.037962	0.831584
C559	C	-0.080976	-0.502953	0.367815
C560	C	0.419024	-0.002953	0.867815
H561	H	-0.123569	-0.418618	0.324965
H562	H	0.376431	0.081382	0.824965
H563	H	-0.158194	-0.468529	0.352439
H564	H	0.341806	0.031471	0.852439
H565	H	-0.096045	-0.468681	0.290491
H566	H	0.403955	0.031319	0.790491
H567	H	-0.101929	-0.496335	0.408914
H568	H	0.398071	0.003665	0.908914
H569	H	-0.039830	-0.496452	0.346917
H570	H	0.460170	0.003548	0.846917
O571	O	-0.035307	-0.519240	0.413635
O572	O	0.464693	-0.019240	0.913635
C573	C	-0.002377	-0.443646	0.369709
C574	C	0.497623	0.056354	0.869709
C575	C	0.012720	-0.505453	0.384914
C576	C	0.512720	-0.005453	0.884914
H577	H	0.036443	-0.432478	0.346475
H578	H	0.536443	0.067522	0.846475
H579	H	-0.025671	-0.432348	0.408467
H580	H	0.474329	0.067652	0.908467
H581	H	-0.029088	-0.420350	0.342893
H582	H	0.470912	0.079650	0.842893
H583	H	0.039448	-0.528792	0.411715
H584	H	0.539448	-0.028792	0.911715
H585	H	0.035986	-0.516709	0.346133
H586	H	0.535986	-0.016709	0.846133
H587	H	-0.067667	-0.562559	0.332499
H588	H	0.432333	-0.062559	0.832499
O589	O	0.018935	-0.740789	0.468179
O590	O	0.518935	-0.240789	0.968179
C591	C	0.067083	-0.831385	0.516606
C592	C	0.567083	-0.331385	1.016606
C593	C	0.051908	-0.769566	0.501403
C594	C	0.551908	-0.269566	1.001403
H595	H	0.093735	-0.854669	0.543480
H596	H	0.593735	-0.354669	1.043480
H597	H	0.090439	-0.842692	0.477849
H598	H	0.590439	-0.342692	0.977849
H599	H	0.028270	-0.842560	0.539778
H600	H	0.528270	-0.342560	1.039778
H601	H	0.090693	-0.758346	0.478245
H602	H	0.590693	-0.258346	0.978245
H603	H	0.028531	-0.758293	0.540180
H604	H	0.528531	-0.258293	1.040180
H605	H	0.058362	-0.738230	0.391661
H606	H	0.558362	-0.238230	0.891661
H607	H	-0.074948	-0.841721	0.489940
H608	H	0.425052	-0.341721	0.989940
O609	O	0.101617	-0.846342	0.424951
O610	O	0.601617	-0.346342	0.924951
C611	C	0.191338	-0.840424	0.388153
C612	C	0.691338	-0.340424	0.888153
C613	C	0.130008	-0.808949	0.396993
C614	C	0.630008	-0.308949	0.896993
H615	H	0.214308	-0.810205	0.365559
H616	H	0.714308	-0.310205	0.865559
H617	H	0.207488	-0.867178	0.362991
H618	H	0.707488	-0.367178	0.862991
H619	H	0.197613	-0.867196	0.429407
H620	H	0.697613	-0.367196	0.929407
H621	H	0.123686	-0.782147	0.355765
H622	H	0.623686	-0.282147	0.855765
H623	H	0.113888	-0.782230	0.422181
H624	H	0.613888	-0.282230	0.922181
H625	H	-0.220220	-0.654760	0.542443
H626	H	0.279780	-0.154760	1.042443
O627	O	-0.112112	-0.694672	0.513966
O628	O	0.387888	-0.194672	1.013966
C629	C	-0.094750	-0.778798	0.587956
C630	C	0.405250	-0.278798	1.087956
C631	C	-0.126071	-0.742611	0.546984
C632	C	0.373929	-0.242611	1.046984
H633	H	-0.106015	-0.817570	0.614654
H634	H	0.393985	-0.317570	1.114654
H635	H	-0.106031	-0.755556	0.614764
H636	H	0.393969	-0.255556	1.114764
H637	H	-0.048980	-0.790072	0.564752
H638	H	0.451020	-0.290072	1.064752
H639	H	-0.171848	-0.731326	0.570143
H640	H	0.328152	-0.231326	1.070143
H641	H	-0.114744	-0.765873	0.520177
H642	H	0.385256	-0.265873	1.020177
O643	O	-0.224339	-0.565033	0.367093
O644	O	0.275661	-0.065033	0.867093
C645	C	-0.241731	-0.557732	0.293077
C646	C	0.258269	-0.057732	0.793077
C647	C	-0.210405	-0.593883	0.334045
C648	C	0.289595	-0.093883	0.834045
H649	H	-0.230486	-0.581046	0.266355
H650	H	0.269514	-0.081046	0.766355
H651	H	-0.230434	-0.518981	0.266293
H652	H	0.269566	-0.018981	0.766293
H653	H	-0.287500	-0.546414	0.316284
H654	H	0.212500	-0.046414	0.816284
H655	H	-0.164629	-0.605243	0.310882
H656	H	0.335371	-0.105243	0.810882
H657	H	-0.221748	-0.632608	0.360828
H658	H	0.278252	-0.132608	0.860828
H659	H	-0.116227	-0.604815	0.338615
H660	H	0.383773	-0.104815	0.838615
