data_functionalizedCrystal
_audit_creation_method	'MofGen! by Chris Wilmer'
_symmetry_space_group_name_H-M	'P1'
_symmetry_Int_Tables_number	1
_symmetry_cell_setting	triclinic
loop_
_symmetry_equiv_pos_as_xyz
  x,y,z
_cell_length_a	17.077404
_cell_length_b	18.101395
_cell_length_c	17.077395
_cell_angle_alpha	89.973793
_cell_angle_beta	89.984359
_cell_angle_gamma	90.031329
loop_
_atom_site_label
_atom_site_type_symbol
_atom_site_fract_x
_atom_site_fract_y
_atom_site_fract_z
Zn1	Zn	1.199980	-0.294834	-0.443848
Zn2	Zn	1.199877	-0.418680	-0.312585
Zn3	Zn	1.068721	-0.294858	-0.312596
Zn4	Zn	1.068661	-0.418639	-0.443808
O5	O	1.134310	-0.356753	-0.378209
O6	O	1.309813	-0.311270	-0.426448
O7	O	1.182461	-0.402282	-0.202739
O8	O	1.086200	-0.191222	-0.330029
O9	O	1.309738	-0.402259	-0.330009
O10	O	1.182636	-0.191205	-0.426459
O11	O	1.086101	-0.311310	-0.202748
O12	O	0.958866	-0.311270	-0.329990
O13	O	1.086099	-0.402189	-0.553660
O14	O	0.958822	-0.402212	-0.426391
O15	O	1.182578	-0.311230	-0.553690
O16	O	1.182403	-0.522308	-0.329970
O17	O	1.085999	-0.522277	-0.426379
C18	C	0.930362	-0.356739	-0.378188
C19	C	0.843112	-0.356752	-0.378197
C20	C	0.802119	-0.404176	-0.428312
C21	C	0.720139	-0.404178	-0.428325
C22	C	0.679153	-0.356758	-0.378218
C23	C	0.720151	-0.309328	-0.328100
C24	C	0.802130	-0.309323	-0.328092
C25	C	0.549281	-0.309343	-0.328119
C26	C	0.467296	-0.309348	-0.328126
C27	C	0.467290	-0.404197	-0.428352
C28	C	0.549269	-0.404193	-0.428344
C29	C	0.590262	-0.356763	-0.378225
C30	C	1.134205	-0.549163	-0.378186
C31	C	1.134231	-0.631478	-0.378203
C32	C	1.134404	-0.930568	-0.378245
C33	C	1.073890	-0.899255	-0.439054
C34	C	1.073602	-0.813637	-0.438863
C35	C	1.134318	-0.782186	-0.378225
C36	C	1.111927	-0.813336	-0.295495
C37	C	1.111537	-0.898981	-0.295859
C38	C	1.217442	-0.898912	-0.399437
C39	C	1.216953	-0.813261	-0.401252
C40	C	1.134271	-0.698326	-0.378208
C41	C	1.134449	-1.014428	-0.378256
C42	C	1.339054	-0.356767	-0.378231
C43	C	1.426304	-0.356773	-0.378241
C44	C	1.134343	-0.356703	-0.582954
C45	C	1.134358	-0.356681	-0.670203
C46	C	1.134436	-0.163591	-0.378250
C47	C	1.134490	-0.081277	-0.378267
C48	C	1.184682	-0.309218	-1.046035
C49	C	1.184666	-0.309244	-0.964054
C50	C	1.134422	-0.356611	-0.923053
C51	C	1.084197	-0.403960	-0.964036
C52	C	1.084218	-0.403938	-1.046015
C53	C	1.084157	-0.404003	-0.793166
C54	C	1.084135	-0.404025	-0.711181
C55	C	1.184604	-0.309310	-0.711205
C56	C	1.184625	-0.309287	-0.793184
C57	C	1.134399	-0.356636	-0.834161
C58	C	1.134321	-0.356750	-0.174261
C59	C	1.134459	-0.356562	-0.087012
H60	H	0.835485	-0.442794	-0.469113
H61	H	1.225534	-0.270714	-0.826565
H62	H	1.043292	-0.442530	-0.930646
H63	H	1.225499	-0.270756	-0.677837
Cl64	Cl	1.247806	-0.249724	-0.912543
H65	H	1.012714	-0.920841	-0.425192
H66	H	0.686767	-0.442797	-0.469133
H67	H	1.043204	-0.442578	-0.677799
Cl68	Cl	1.247840	-0.249660	-1.097572
Cl69	Cl	0.600794	-0.463812	-0.491332
H70	H	0.433910	-0.442814	-0.469163
H71	H	1.087611	-0.792574	-0.500206
Cl72	Cl	0.853663	-0.249699	-0.265089
H73	H	0.433927	-0.270726	-0.287333
Cl74	Cl	1.021080	-0.463460	-1.097529
Cl75	Cl	0.600813	-0.249716	-0.265111
Cl76	Cl	0.668625	-0.249709	-0.265112
H77	H	1.237857	-0.920461	-0.458736
Cl78	Cl	1.290250	-0.780196	-0.337861
H79	H	1.087759	-0.919804	-0.500595
Cl80	Cl	0.978573	-0.782100	-0.417193
Cl81	Cl	1.243027	-0.781825	-0.495253
H82	H	1.262527	-0.919161	-0.355148
H83	H	1.050836	-0.919024	-0.277907
Cl84	Cl	1.176624	-0.930969	-0.223517
H85	H	1.051870	-0.791951	-0.277221
Cl86	Cl	1.177833	-0.781887	-0.223633
Cl87	Cl	1.021014	-0.463527	-0.844679
