data_functionalizedCrystal
_audit_creation_method	'MofGen! by Chris Wilmer'
_symmetry_space_group_name_H-M	'P1'
_symmetry_Int_Tables_number	1
_symmetry_cell_setting	triclinic
loop_
_symmetry_equiv_pos_as_xyz
  x,y,z
_cell_length_a	11.792241
_cell_length_b	10.967926
_cell_length_c	9.482900
_cell_angle_alpha	92.549900
_cell_angle_beta	80.596456
_cell_angle_gamma	95.543052
loop_
_atom_site_label
_atom_site_type_symbol
_atom_site_fract_x
_atom_site_fract_y
_atom_site_fract_z
O1	O	-0.200408	1.611508	0.282862
O2	O	-0.202898	1.262310	0.195374
O3	O	-0.036810	1.445384	0.241233
O4	O	-0.366496	1.428434	0.237003
O5	O	-0.070688	1.408199	0.473711
O6	O	-0.236776	1.225125	0.427852
O7	O	-0.234286	1.574322	0.515340
Cu8	Cu	-0.238625	1.396328	0.492823
Cu9	Cu	-0.198560	1.440304	0.217891
O10	O	-0.400374	1.391248	0.469481
C11	C	-0.217096	1.199013	0.300412
C12	C	-0.208915	1.065806	0.267038
C13	C	-0.222817	0.987155	0.372589
C14	C	-0.214362	0.849479	0.338098
C15	C	-0.425768	1.410905	0.353511
C16	C	-0.551906	1.414091	0.354316
C17	C	-0.782840	1.419956	0.355748
C18	C	-0.654331	1.416697	0.354952
C19	C	-0.011416	1.425728	0.357200
C20	C	0.114724	1.422544	0.356386
C21	C	-0.220088	1.637620	0.410299
C22	C	-0.228267	1.770828	0.443664
N23	N	-0.266804	1.365406	0.686198
N24	N	-0.170372	1.471236	0.024519
C25	C	-0.206865	1.431175	0.774871
C26	C	-0.230320	1.405457	0.935846
H27	H	-0.196196	0.814895	0.222189
H28	H	-0.190750	1.031217	0.151137
C29	C	-0.321911	1.304885	0.993215
C30	C	-0.372643	1.249172	0.880206
C31	C	-0.457006	1.156511	0.932998
H32	H	-0.379375	1.339282	1.061215
H33	H	-0.287250	1.245406	1.037668
H34	H	-0.407304	1.308640	0.835776
H35	H	-0.315208	1.214749	0.812197
H36	H	-0.422346	1.097032	0.977450
H37	H	-0.514463	1.190919	1.000997
H38	H	-0.491431	1.118691	0.856328
C39	C	-0.252530	0.817159	0.598126
C40	C	-0.256129	0.944497	0.601633
C41	C	-0.278490	0.987217	0.743894
H42	H	-0.193152	0.797212	0.647419
H43	H	-0.324655	0.779717	0.642952
H44	H	-0.184014	0.981926	0.556827
H45	H	-0.315508	0.964476	0.552370
H46	H	-0.350614	0.949775	0.788720
H47	H	-0.219109	0.967262	0.793175
H48	H	-0.280945	1.073618	0.746293
H49	H	-0.138180	1.506519	0.731616
H50	H	-0.101683	1.546584	0.981269
H51	H	-0.240973	1.021746	0.488490
H52	H	-0.335480	1.290054	0.729452
