data_functionalizedCrystal
_audit_creation_method	'MofGen! by Chris Wilmer'
_symmetry_space_group_name_H-M	'P1'
_symmetry_Int_Tables_number	1
_symmetry_cell_setting	triclinic
loop_
_symmetry_equiv_pos_as_xyz
  x,y,z
_cell_length_a	18.760492
_cell_length_b	14.560432
_cell_length_c	14.560432
_cell_angle_alpha	90.001356
_cell_angle_beta	59.998313
_cell_angle_gamma	60.000060
loop_
_atom_site_label
_atom_site_type_symbol
_atom_site_fract_x
_atom_site_fract_y
_atom_site_fract_z
Zr1	Zr	0.780273	0.884710	-0.120566
O2	O	0.928986	0.738054	-0.267222
O3	O	0.631560	0.929673	-0.075603
O4	O	0.780277	0.929661	-0.267215
O5	O	0.780266	0.738069	0.075532
O6	O	0.780280	1.080799	-0.267215
O7	O	0.780269	0.738066	-0.075609
O8	O	0.514253	1.080820	0.075544
O9	O	1.046293	0.738048	-0.267227
O10	O	0.692730	1.061635	-0.056433
O11	O	0.692726	0.948846	0.056363
O12	O	0.867820	0.948832	-0.169236
O13	O	0.867816	0.836043	-0.056441
Zr14	Zr	0.780273	1.125763	0.120487
Zr15	Zr	0.780278	1.125757	-0.120566
Zr16	Zr	0.780268	0.884716	0.120488
Zr17	Zr	0.967364	0.884701	-0.120575
Zr18	Zr	0.593182	1.125772	0.120496
O19	O	0.928986	1.080801	0.075524
O20	O	0.928992	1.080792	-0.267222
O21	O	0.928979	0.738063	0.075525
O22	O	0.631560	1.272419	0.267143
O23	O	0.631567	1.272411	-0.075603
O24	O	0.631554	0.929682	0.267144
O25	O	0.780280	1.272404	-0.075611
O26	O	0.780269	1.080812	0.267137
O27	O	0.780266	0.929675	0.267137
O28	O	0.780277	1.272408	0.075531
O29	O	1.046296	0.929649	-0.267228
O30	O	0.514250	1.080825	0.267149
O31	O	0.514253	1.272425	0.267149
O32	O	0.514257	1.272420	0.075544
O33	O	1.046289	0.738053	-0.075622
O34	O	1.046293	0.929654	-0.075623
O35	O	0.692726	1.061641	0.169158
O36	O	0.692730	1.174431	0.056362
O37	O	0.867820	1.061627	-0.056441
O38	O	0.867816	0.948838	0.056354
C39	C	0.780267	0.703723	-0.000039
C40	C	0.780265	0.601393	-0.000038
C41	C	0.546250	1.005247	-0.000028
C42	C	0.466825	1.005251	-0.000024
C43	C	0.597469	0.719143	0.117718
C44	C	0.506075	0.729942	0.176591
C45	C	0.506079	0.633789	0.176588
C46	C	0.597488	0.526830	0.117709
C47	C	0.688882	0.516031	0.058836
C48	C	0.688868	0.612192	0.058843
C49	C	0.871676	0.398282	-0.058913
C50	C	0.871674	0.494433	-0.058918
C51	C	0.963085	0.291323	-0.117793
C52	C	1.054481	0.280523	-0.176673
C53	C	1.054473	0.376684	-0.176669
C54	C	0.963068	0.483635	-0.117791
C55	C	0.131028	0.946347	0.058829
C56	C	0.131038	1.064101	-0.058932
C57	C	0.205653	1.064110	-0.058925
C58	C	0.242961	1.005235	-0.000042
C59	C	0.205653	0.946351	0.058835
C60	C	0.242974	1.122983	-0.117810
C61	C	0.317595	1.122993	-0.117807
C62	C	0.354899	1.064123	-0.058916
C63	C	0.317585	1.005239	-0.000036
C64	C	0.354893	0.946364	0.058847
C65	C	0.317576	0.887485	0.117734
C66	C	0.242957	0.887482	0.117725
C67	C	0.429518	1.064126	-0.058907
C68	C	0.429517	0.946368	0.058852
C69	C	1.014296	1.005226	-0.000050
C70	C	1.093721	1.005222	-0.000054
C71	C	0.780279	1.005229	-0.301560
C72	C	0.780281	1.005226	-0.403894
C73	C	0.780279	1.306750	-0.000040
C74	C	0.780281	1.409081	-0.000040
C75	C	0.963077	0.887447	-0.521679
C76	C	1.054471	0.828557	-0.628644
C77	C	1.054467	0.828560	-0.724791
C78	C	0.963058	0.887463	-0.713969
C79	C	0.871664	0.946353	-0.607003
C80	C	0.871678	0.946341	-0.510860
C81	C	0.688870	1.064137	-0.489219
C82	C	0.688872	1.064129	-0.393071
C83	C	0.597461	1.123040	-0.478397
C84	C	0.506065	1.181926	-0.371430
C85	C	0.506073	1.181919	-0.275280
C86	C	0.597478	1.123020	-0.286106
C87	C	0.780267	1.005244	0.301482
C88	C	0.780265	1.005247	0.403815
C89	C	0.546256	1.306761	-0.000029
C90	C	0.466833	1.409095	-0.000025
C91	C	0.546244	1.005255	0.301493
C92	C	0.466817	1.005261	0.403830
C93	C	0.546250	1.306768	0.301492
C94	C	0.466825	1.409105	0.403829
C95	C	1.014296	0.703705	-0.301571
C96	C	1.093721	0.601368	-0.403908
C97	C	1.014289	0.703713	-0.000050
C98	C	1.093713	0.601378	-0.000053
C99	C	1.014302	1.005218	-0.301571
C100	C	1.093729	1.005212	-0.403909
C101	C	0.429535	1.398274	-0.058911
C102	C	0.354919	1.494419	-0.058930
C103	C	0.317598	1.601384	-0.000056
C104	C	0.354903	1.612202	0.058832
C105	C	0.429523	1.516058	0.058844
C106	C	0.429517	1.064142	0.510777
C107	C	0.354898	1.064144	0.606943
C108	C	0.317574	1.005271	0.596160
C109	C	0.354881	0.946382	0.489202
C110	C	0.429505	0.946375	0.393038
C111	C	0.429529	1.516049	0.393010
C112	C	0.354911	1.612215	0.489157
C113	C	0.317586	1.601434	0.596123
C114	C	0.354890	1.494480	0.606940
C115	C	0.429511	1.398316	0.510794
C116	C	1.131026	0.494424	-0.393088
C117	C	1.205667	0.398259	-0.489236
C118	C	1.242996	0.409039	-0.596201
C119	C	1.205688	0.515994	-0.607019
C120	C	1.131053	0.612157	-0.510872
C121	C	1.131018	0.612199	0.058823
C122	C	1.205655	0.516054	0.058815
C123	C	1.242979	0.409090	-0.000062
C124	C	1.205671	0.398271	-0.058946
C125	C	1.131040	0.494415	-0.058944
C126	C	1.131029	1.064097	-0.393089
C127	C	1.205649	1.064113	-0.489237
C128	C	1.242973	1.005237	-0.596203
C129	C	1.205666	0.946350	-0.607020
C130	C	1.131042	0.946341	-0.510873
H131	H	0.597456	0.797442	0.117718
H132	H	1.236091	0.524758	-0.694122
F133	F	1.245406	0.883686	-0.720870
H134	H	1.100637	0.485625	-0.306000
H135	H	1.236072	0.311168	-0.106882
H136	H	1.100680	0.699233	-0.519695
F137	F	0.408792	1.244612	-0.359924
H138	H	0.597464	1.123044	-0.556689
H139	H	1.128889	0.780610	-0.811887
H140	H	0.431648	1.229878	-0.188187
H141	H	1.303768	0.330727	-0.674481
H142	H	0.324531	1.112102	0.694023
F143	F	0.203229	0.824835	0.180401
H144	H	1.128899	0.193434	-0.224603
F145	F	0.238165	1.703791	0.698442
H146	H	1.236017	1.112063	-0.480408
H147	H	1.100680	0.898385	-0.519698
H148	H	0.597493	1.123002	-0.207825
F149	F	1.091319	1.126766	-0.279257
F150	F	1.091311	0.726029	0.121490
H151	H	0.256811	1.005286	0.674471
H152	H	1.236019	0.524884	0.106770
H153	H	1.303748	0.330812	-0.000054
F154	F	1.091339	0.482881	-0.121605
F155	F	1.245358	0.284440	-0.477699
H156	H	1.303737	1.005253	-0.674482
H157	H	0.431657	0.642586	0.224532
F158	F	0.408795	0.843778	0.239270
F159	F	1.151750	0.765875	-0.640153
F160	F	0.597487	0.424499	0.117726
F161	F	0.963059	0.887477	-0.816300
H162	H	0.963082	0.213035	-0.117785
H163	H	0.100639	0.898413	0.106777
H164	H	1.128898	0.367879	-0.224596
H165	H	0.459868	1.311242	0.519619
F166	F	0.315169	1.726051	0.121489
F167	F	0.315227	1.482882	-0.121606
F168	F	0.469212	0.883710	0.121532
F169	F	0.357296	0.824820	0.180392
F170	F	0.963052	0.585977	-0.117786
F171	F	0.469244	1.527548	0.279178
H172	H	0.100665	1.112029	-0.106879
F173	F	0.315147	0.883730	0.477743
H174	H	0.459922	1.311187	-0.106868
H175	H	0.459864	0.898431	0.305961
H176	H	0.324546	1.699293	0.480330
H177	H	0.212601	1.170911	-0.165758
H178	H	0.459903	1.112058	-0.106859
F179	F	0.357303	1.185657	-0.180478
H180	H	0.963089	0.887425	-0.443397
F181	F	0.469205	1.527592	0.121529
H182	H	0.256836	1.679661	-0.000074
H183	H	0.459898	1.112084	0.519578
F184	F	0.315155	1.483024	0.720790
