data_functionalizedCrystal
_audit_creation_method	'MofGen! by Chris Wilmer'
_symmetry_space_group_name_H-M	'P1'
_symmetry_Int_Tables_number	1
_symmetry_cell_setting	triclinic
loop_
_symmetry_equiv_pos_as_xyz
  x,y,z
_cell_length_a	14.446369
_cell_length_b	14.446369
_cell_length_c	14.446369
_cell_angle_alpha	60.000250
_cell_angle_beta	89.999999
_cell_angle_gamma	60.002158
loop_
_atom_site_label
_atom_site_type_symbol
_atom_site_fract_x
_atom_site_fract_y
_atom_site_fract_z
Zr1	Zr	0.891731	1.013284	-0.121568
O2	O	0.743932	1.206387	-0.269370
O3	O	0.937038	0.820170	-0.076252
O4	O	0.937040	1.013278	-0.269371
O5	O	0.743930	1.013287	0.076078
O6	O	1.089369	1.013287	-0.269379
O7	O	0.743930	1.013278	-0.076251
O8	O	1.089365	0.667851	0.076075
O9	O	0.743933	1.358723	-0.269377
O10	O	1.070044	0.899611	-0.056939
O11	O	0.956363	0.899611	0.056748
O12	O	0.956365	1.126971	-0.170625
O13	O	0.842684	1.126971	-0.056937
Zr14	Zr	1.134678	1.013311	0.121366
Zr15	Zr	1.134678	1.013297	-0.121581
Zr16	Zr	0.891731	1.013297	0.121379
Zr17	Zr	0.891733	1.256242	-0.121579
Zr18	Zr	1.134675	0.770353	0.121377
O19	O	1.089370	1.206425	0.076051
O20	O	1.089371	1.206406	-0.269388
O21	O	0.743931	1.206406	0.076069
O22	O	1.282477	0.820208	0.269168
O23	O	1.282477	0.820189	-0.076271
O24	O	0.937038	0.820189	0.269187
O25	O	1.282479	1.013308	-0.076279
O26	O	1.089368	1.013316	0.269170
O27	O	0.937040	1.013308	0.269178
O28	O	1.282479	1.013316	0.076049
O29	O	0.937043	1.358733	-0.269387
O30	O	1.089365	0.667861	0.269186
O31	O	1.282476	0.667872	0.269175
O32	O	1.282476	0.667861	0.076065
O33	O	0.743933	1.358733	-0.076267
O34	O	0.937043	1.358744	-0.076277
O35	O	1.070044	0.899623	0.170423
O36	O	1.183725	0.899623	0.056736
O37	O	1.070046	1.126984	-0.056950
O38	O	0.956365	1.126984	0.056738
C39	C	1.013202	0.709394	-0.000087
C40	C	1.013201	0.606252	-0.000082
C41	C	0.941845	0.459242	0.071949
C42	C	0.941457	0.566862	0.071658
C43	C	0.960897	0.655238	-0.123614
C44	C	0.960361	0.548006	-0.123240
C45	C	1.136910	0.372804	0.050356
C46	C	1.136728	0.478954	0.052877
C47	C	0.709315	1.013281	-0.000084
C48	C	0.606178	1.013275	-0.000079
C49	C	0.531194	0.869894	0.071251
C50	C	0.638522	0.869797	0.071659
C51	C	0.531618	1.084506	0.052217
C52	C	0.424760	1.083595	0.052732
C53	C	0.423186	1.086539	-0.123819
C54	C	0.531858	1.083836	-0.123616
C55	C	1.317094	1.013314	-0.000117
C56	C	1.420231	1.013320	-0.000122
C57	C	1.013205	1.013281	-0.303990
C58	C	1.013205	1.013275	-0.407127
C59	C	1.013207	1.317201	-0.000115
C60	C	1.013208	1.420343	-0.000119
C61	C	1.085259	0.869894	-0.482107
C62	C	1.084947	0.869797	-0.374778
C63	C	0.889682	1.084496	-0.481684
C64	C	0.890077	1.083586	-0.588543
C65	C	1.063675	1.086548	-0.590126
C66	C	1.066175	1.083846	-0.481454
C67	C	1.013204	1.013314	0.303789
C68	C	1.013204	1.013320	0.406926
C69	C	1.317091	0.709411	-0.000103
C70	C	1.420227	0.606274	-0.000104
C71	C	1.013201	0.709411	0.303803
C72	C	1.013200	0.606274	0.406945
C73	C	1.317091	0.709427	0.303786
C74	C	1.420227	0.606297	0.406923
C75	C	0.709318	1.317167	-0.303988
C76	C	0.606182	1.420298	-0.407124
C77	C	0.709318	1.317184	-0.000098
C78	C	0.606181	1.420320	-0.000098
C79	C	1.013207	1.317184	-0.304004
C80	C	1.013209	1.420320	-0.407146
C81	C	1.638583	0.459977	0.071215
C82	C	1.531358	0.566894	0.071627
C83	C	1.423554	0.479419	0.052198
C84	C	1.531316	0.372047	0.052711
C85	C	1.529945	0.547017	-0.123848
C86	C	1.423983	0.655483	-0.123643
C87	C	0.941154	0.459956	0.481938
C88	C	0.941459	0.566877	0.374604
C89	C	1.136725	0.479428	0.481498
C90	C	1.136337	0.372053	0.588361
C91	C	0.962741	0.547016	0.589949
C92	C	0.960234	0.655486	0.481272
C93	C	1.495208	0.459970	0.625283
C94	C	1.387880	0.566903	0.518057
C95	C	1.494765	0.479452	0.410236
C96	C	1.601623	0.372065	0.517998
C97	C	1.603239	0.547010	0.516651
C98	C	1.494568	0.655491	0.410689
H99	H	1.175802	0.439361	0.143884
H100	H	1.194378	0.500457	0.005845
C101	C	1.425122	0.777750	0.411360
H102	H	1.470553	0.807044	0.413637
H103	H	1.360341	0.845079	0.344701
H104	H	1.401637	0.756551	0.476163
C105	C	0.425113	1.015219	0.175692
H106	H	0.359936	1.014068	0.177090
H107	H	0.491441	0.927973	0.220690
H108	H	0.424162	1.061455	0.205150
C109	C	1.597500	0.600488	-0.182881
H110	H	1.549983	0.676891	-0.257401
H111	H	1.623724	0.621569	-0.140981
H112	H	1.660469	0.535986	-0.186690
C113	C	0.711857	0.794287	0.024294
H114	H	0.777700	0.794127	0.024480
H115	H	0.733601	0.706728	0.070255
H116	H	0.669513	0.835436	-0.051087
C117	C	0.987998	0.338839	0.480528
H118	H	0.943977	0.363618	0.413210
H119	H	1.064560	0.302950	0.482866
H120	H	0.984337	0.275232	0.544638
C121	C	1.531036	0.509633	0.304208
H122	H	1.575857	0.431643	0.307856
H123	H	1.465476	0.572632	0.238373
H124	H	1.574021	0.543266	0.300908
H125	H	1.153261	1.040655	-0.594245
H126	H	1.424504	0.745969	-0.162713
C127	C	0.835482	1.015217	-0.588187
H128	H	0.813279	0.988251	-0.522861
H129	H	0.770781	1.074345	-0.654368
H130	H	0.888715	0.940858	-0.587088
H131	H	1.334082	0.529449	0.520507
C132	C	1.191699	0.427321	0.411796
H133	H	1.266436	0.350544	0.457651
H134	H	1.148053	0.407173	0.386726
H135	H	1.194536	0.492099	0.348015
H136	H	1.502498	0.522223	-0.177271
C137	C	1.314568	0.687588	0.520255
H138	H	1.350260	0.671552	0.586841
H139	H	1.306154	0.761450	0.455347
H140	H	1.242058	0.704197	0.519962
H141	H	1.421421	0.440864	0.142363
H142	H	1.601340	0.281319	0.568332
C143	C	1.493781	0.338861	0.699534
H144	H	1.560513	0.264271	0.710829
H145	H	1.490863	0.324919	0.770761
H146	H	1.429088	0.352672	0.662801
H147	H	0.849961	0.497190	0.479606
H148	H	0.692384	0.813401	0.162920
H149	H	0.850499	0.656219	0.320337
C150	C	0.318605	1.225743	-0.012933
H151	H	0.340919	1.283789	-0.039799
H152	H	0.272624	1.244633	-0.075392
H153	H	0.276796	1.236503	0.035903
H154	H	1.180609	0.279064	0.139920
H155	H	1.680201	0.342107	0.491342
C156	C	0.834702	1.017668	-0.411981
H157	H	0.759965	1.061479	-0.457838
H158	H	0.878345	0.928804	-0.386902
H159	H	0.831863	1.021512	-0.348205
C160	C	1.038407	0.794215	-0.480696
H161	H	0.975122	0.849648	-0.547438
H162	H	1.095697	0.720073	-0.477775
H163	H	1.015474	0.766258	-0.416010
H164	H	0.873155	0.586584	0.594068
H165	H	1.190330	0.346829	-0.001886
C166	C	1.037640	0.793831	-0.302117
H167	H	1.018528	0.762921	-0.338160
H168	H	1.093338	0.721630	-0.229507
H169	H	0.971846	0.850095	-0.293876
C170	C	0.417630	1.024537	-0.182844
H171	H	0.419520	1.070165	-0.257364
H172	H	0.480608	0.935336	-0.140940
H173	H	0.349319	1.029874	-0.186652
C174	C	0.819334	0.507429	0.025150
H175	H	0.776809	0.530698	0.069191
H176	H	0.785737	0.581651	-0.051418
H177	H	0.819882	0.439622	0.028838
H178	H	0.869334	0.588696	-0.163648
H179	H	0.976470	0.529410	0.320818
C180	C	1.189109	1.013702	-0.411997
H181	H	1.208083	0.941712	-0.338006
H182	H	1.238989	0.982989	-0.448217
H183	H	1.196089	1.073130	-0.406895
H184	H	0.833468	1.188815	-0.667124
H185	H	1.692537	0.497219	0.036308
C186	C	1.425046	0.427364	0.407361
H187	H	1.350529	0.482719	0.404147
H188	H	1.421440	0.426080	0.342391
H189	H	1.460151	0.341156	0.473796
H190	H	1.176453	0.813606	-0.479770
C191	C	1.190909	0.249458	0.587994
H192	H	1.213101	0.265619	0.522662
H193	H	1.255614	0.177695	0.654170
H194	H	1.137662	0.229445	0.586897
C195	C	0.839118	0.779950	-0.178594
H196	H	0.819963	0.802339	-0.126458
H197	H	0.834276	0.849778	-0.244836
H198	H	0.787982	0.764666	-0.198390
H199	H	1.681454	0.522217	0.489204
H200	H	1.192743	0.501680	0.508724
C201	C	1.317455	0.697938	-0.201302
H202	H	1.269032	0.686265	-0.159236
H203	H	1.278434	0.787491	-0.262827
H204	H	1.339298	0.645946	-0.229671
C205	C	1.026027	0.518334	-0.199727
H206	H	1.052905	0.571817	-0.230898
H207	H	1.088476	0.428784	-0.156162
H208	H	0.977192	0.536129	-0.259330
H209	H	1.533815	0.529431	0.162880
C210	C	0.993110	1.229285	-0.695778
H211	H	0.933190	1.244231	-0.741492
H212	H	0.962394	1.286842	-0.672947
H213	H	1.040209	1.244829	-0.738088
C214	C	0.813998	1.227006	-0.518470
H215	H	0.857162	1.244375	-0.488609
H216	H	0.785935	1.284775	-0.598875
H217	H	0.752212	1.239780	-0.490597
H218	H	1.693565	0.370317	0.161912
C219	C	0.534356	0.793833	0.024113
H220	H	0.468030	0.848858	-0.039513
H221	H	0.599436	0.766361	0.001654
H222	H	0.537527	0.719360	0.081119
H223	H	1.019149	1.188520	-0.506972
H224	H	1.532972	0.656242	0.036548
C225	C	1.608808	0.600459	0.584223
H226	H	1.612974	0.546035	0.659524
H227	H	1.674076	0.601367	0.585797
H228	H	1.542787	0.686948	0.549045
C229	C	0.532595	0.794222	0.193776
H230	H	0.465852	0.849658	0.201625
H231	H	0.535514	0.720080	0.210626
H232	H	0.597277	0.766265	0.244669
H233	H	0.869233	0.745973	0.429853
H234	H	0.976541	0.530159	0.162623
H235	H	0.976744	0.370381	0.163140
C236	C	0.494830	1.227018	-0.014611
H237	H	0.449839	1.268261	0.018436
H238	H	0.560102	1.227875	-0.012396
H239	H	0.451832	1.272850	-0.091106
C240	C	0.601317	1.017678	0.174023
H241	H	0.675838	0.946378	0.193191
H242	H	0.604914	1.079048	0.178911
H243	H	0.566205	0.986349	0.225121
H244	H	1.520094	0.687615	0.331534
C245	C	1.599341	0.249461	0.175674
H246	H	1.560988	0.265622	0.224845
H247	H	1.606406	0.177687	0.181272
H248	H	1.672594	0.229463	0.196775
H249	H	1.007264	0.687616	0.506790
H250	H	0.583280	1.031900	-0.162684
H251	H	1.014976	0.522233	0.668161
C252	C	1.317827	0.509454	-0.014621
H253	H	1.270601	0.599843	-0.075151
H254	H	1.340456	0.458754	-0.044327
H255	H	1.277181	0.488314	0.034394
C256	C	0.317540	1.229277	-0.195992
H257	H	0.271824	1.244229	-0.151022
H258	H	0.340376	1.286831	-0.222832
H259	H	0.275232	1.244819	-0.258634
C260	C	1.492053	0.510268	0.698182
H261	H	1.424426	0.533660	0.716863
H262	H	1.555831	0.443418	0.765778
H263	H	1.493938	0.584779	0.656863
H264	H	0.850212	0.655656	0.036665
H265	H	1.192944	0.342104	0.666939
H266	H	1.504664	0.342089	0.004086
H267	H	1.010378	0.684023	-0.179632
H268	H	1.175905	0.813918	-0.320507
H269	H	0.506338	1.188512	-0.181264
