data_functionalizedCrystal
_audit_creation_method	'MofGen! by Chris Wilmer'
_symmetry_space_group_name_H-M	'P1'
_symmetry_Int_Tables_number	1
_symmetry_cell_setting	triclinic
loop_
_symmetry_equiv_pos_as_xyz
  x,y,z
_cell_length_a	12.759401
_cell_length_b	12.759400
_cell_length_c	12.759393
_cell_angle_alpha	90.031564
_cell_angle_beta	90.019322
_cell_angle_gamma	90.012598
loop_
_atom_site_label
_atom_site_type_symbol
_atom_site_fract_x
_atom_site_fract_y
_atom_site_fract_z
Zn1	Zn	-1.606255	0.418263	-0.594004
Zn2	Zn	-1.606150	0.593982	-0.418325
Zn3	Zn	-1.430557	0.418311	-0.418341
Zn4	Zn	-1.430546	0.593894	-0.593964
O5	O	-1.518377	0.506112	-0.506158
O6	O	-1.753262	0.441589	-0.570710
O7	O	-1.582818	0.570735	-0.271306
O8	O	-1.453913	0.271284	-0.441668
O9	O	-1.753185	0.570689	-0.441639
O10	O	-1.582998	0.271248	-0.570727
O11	O	-1.453811	0.441671	-0.271318
O12	O	-1.283535	0.441586	-0.441628
O13	O	-1.453894	0.570539	-0.740990
O14	O	-1.283527	0.570586	-0.570657
O15	O	-1.582987	0.441504	-0.741020
O16	O	-1.582807	0.740991	-0.441599
O17	O	-1.453791	0.740927	-0.570641
C18	C	-1.245410	0.506082	-0.506140
C19	C	-1.128633	0.506095	-0.506157
C20	C	-1.518315	0.779080	-0.506137
C21	C	-1.518384	0.895856	-0.506162
C22	C	-1.073794	0.573370	-0.573231
C23	C	-0.964070	0.573379	-0.573241
C24	C	-0.964034	0.438834	-0.439095
C25	C	-1.073756	0.438821	-0.439091
C26	C	-1.128672	0.640645	-0.640297
C27	C	-1.073833	0.707927	-0.707375
C28	C	-0.964109	0.707936	-0.707385
C29	C	-0.909224	0.640663	-0.640317
C30	C	-1.518451	0.506006	-0.780192
C31	C	-1.518482	0.505961	-0.896969
C32	C	-0.792410	0.506133	-0.506174
C33	C	-0.909187	0.506117	-0.506171
C34	C	-1.518468	0.232079	-0.506203
C35	C	-1.518507	0.115302	-0.506223
C36	C	-1.585637	0.950717	-0.439045
C37	C	-1.585702	1.060441	-0.439077
C38	C	-1.451252	1.060434	-0.573348
C39	C	-1.451193	0.950712	-0.573320
C40	C	-1.652828	0.895861	-0.371888
C41	C	-1.720086	0.950722	-0.304764
C42	C	-1.720150	1.060446	-0.304796
C43	C	-1.652957	1.115309	-0.371952
C44	C	-1.585710	0.438766	-0.951848
C45	C	-1.585735	0.438728	-1.061572
C46	C	-1.451301	0.573089	-1.061528
C47	C	-1.451272	0.573121	-0.951806
C48	C	-1.652920	0.371606	-0.897011
C49	C	-1.720155	0.304406	-0.951891
C50	C	-1.720180	0.304368	-1.061615
C51	C	-1.652970	0.371530	-1.116459
C52	C	-1.518364	0.506142	-0.233191
C53	C	-1.518537	0.505891	-0.116415
H54	H	-1.118528	0.762691	-0.761986
H55	H	-0.919462	0.762712	-0.762011
H56	H	-1.118407	0.384031	-0.384482
H57	H	-1.653024	1.204654	-0.371982
H58	H	-1.774798	0.906047	-0.250093
C59	C	-1.377336	1.120781	-0.647207
C60	C	-1.257897	1.105792	-0.638526
C61	C	-1.183977	1.166138	-0.712383
C62	C	-1.229497	1.241474	-0.794922
C63	C	-1.348943	1.256468	-0.803607
C64	C	-1.422862	1.196121	-0.729749
H65	H	-1.224195	1.050020	-0.577423
H66	H	-1.095556	1.155039	-0.705954
H67	H	-1.174777	1.286146	-0.849596
H68	H	-1.382645	1.312239	-0.864710
H69	H	-1.511284	1.207220	-0.736179
C70	C	-1.794135	1.120793	-0.230968
C71	C	-1.785610	1.105813	-0.111521
C72	C	-1.859595	1.166157	-0.037686
C73	C	-1.942104	1.241482	-0.083299
C74	C	-1.950633	1.256465	-0.202753
C75	C	-1.876648	1.196121	-0.276587
H76	H	-1.724529	1.050051	-0.077750
H77	H	-1.853281	1.155065	0.050741
H78	H	-1.996872	1.286152	-0.028643
H79	H	-2.011714	1.312227	-0.236524
H80	H	-1.882962	1.207213	-0.365015
H81	H	-1.218015	0.640647	-0.640295
C82	C	-1.377210	0.890353	-0.647140
C83	C	-1.257786	0.905527	-0.638463
C84	C	-1.183804	0.845166	-0.712286
C85	C	-1.229247	0.769631	-0.794787
C86	C	-1.348677	0.754454	-0.803468
C87	C	-1.422659	0.814815	-0.729645
H88	H	-1.224141	0.961446	-0.577387
H89	H	-1.095394	0.856402	-0.705859
H90	H	-1.174481	0.724948	-0.849435
H91	H	-1.382322	0.698535	-0.864543
H92	H	-1.511070	0.803579	-0.736072
C93	C	-1.794079	0.230529	-0.891566
C94	C	-1.748568	0.148065	-0.816145
C95	C	-1.822493	0.074186	-0.755823
C96	C	-1.941929	0.082770	-0.770923
C97	C	-1.987446	0.165237	-0.846348
C98	C	-1.913521	0.239116	-0.906669
H99	H	-1.660148	0.141708	-0.804964
H100	H	-1.788798	0.013138	-0.699989
H101	H	-1.996653	0.028080	-0.726269
H102	H	-2.075866	0.171594	-0.857528
H103	H	-1.947217	0.300164	-0.962504
C104	C	-1.377383	0.646971	-1.121854
C105	C	-1.377418	0.646941	-1.242544
C106	C	-1.303502	0.720828	-1.302868
C107	C	-1.229550	0.794743	-1.242503
C108	C	-1.229512	0.794776	-1.121806
C109	C	-1.303429	0.720890	-1.061481
H110	H	-1.432164	0.592222	-1.287236
H111	H	-1.303531	0.720803	-1.392216
H112	H	-1.174833	0.849438	-1.287159
H113	H	-1.174766	0.849495	-1.077114
H114	H	-1.303400	0.720914	-0.972133
H115	H	-1.652910	0.371632	-0.807668
H116	H	-0.819879	0.640666	-0.640339
H117	H	-1.396513	0.627821	-0.907122
H118	H	-1.774917	0.249643	-1.106295
H119	H	-0.919337	0.384064	-0.384490
H120	H	-1.652780	0.806519	-0.371851
H121	H	-1.652984	0.371481	-1.205804
