data_functionalizedCrystal
_audit_creation_method	'MofGen! by Chris Wilmer'
_symmetry_space_group_name_H-M	'P1'
_symmetry_Int_Tables_number	1
_symmetry_cell_setting	triclinic
loop_
_symmetry_equiv_pos_as_xyz
  x,y,z
_cell_length_a	17.038272
_cell_length_b	15.500215
_cell_length_c	17.699083
_cell_angle_alpha	93.188936
_cell_angle_beta	87.197286
_cell_angle_gamma	92.981713
loop_
_atom_site_label
_atom_site_type_symbol
_atom_site_fract_x
_atom_site_fract_y
_atom_site_fract_z
O1	O	1.040330	0.071839	0.167677
O2	O	1.540330	0.571839	0.667677
O3	O	0.812705	0.071865	0.165069
O4	O	1.312705	0.571865	0.665069
O5	O	0.932948	0.071844	0.056609
O6	O	1.432948	0.571844	0.556609
O7	O	0.920087	0.071860	0.276137
O8	O	1.420087	0.571860	0.776137
O9	O	0.926466	-0.072045	0.049912
O10	O	1.426466	0.427955	0.549912
O11	O	0.806223	-0.072024	0.158371
O12	O	1.306223	0.427976	0.658371
O13	O	1.033848	-0.072050	0.160980
O14	O	1.533848	0.427950	0.660980
Cu15	Cu	0.919444	-0.085175	0.159064
Cu16	Cu	1.419444	0.414825	0.659064
Cu17	Cu	0.927110	0.084990	0.166984
Cu18	Cu	1.427110	0.584990	0.666984
O19	O	0.913605	-0.072028	0.269440
O20	O	1.413605	0.427972	0.769440
C21	C	0.780340	-0.000076	0.159347
C22	C	1.280340	0.499924	0.659347
C23	C	0.693559	-0.000067	0.152266
C24	C	1.193559	0.499933	0.652266
N25	N	0.914058	-0.204860	0.153493
N26	N	1.414058	0.295140	0.653493
C27	C	0.643339	-0.000063	0.217277
C28	C	1.143339	0.499937	0.717277
C29	C	0.561799	-0.000075	0.210619
C30	C	1.061799	0.499925	0.710619
C31	C	0.530480	-0.000086	0.138949
C32	C	1.030480	0.499914	0.638949
C33	C	0.580706	-0.000093	0.073934
C34	C	1.080706	0.499907	0.573934
C35	C	0.662245	-0.000086	0.080593
C36	C	1.162245	0.499914	0.580593
C37	C	0.284759	-0.000111	0.115425
C38	C	0.784759	0.499889	0.615425
C39	C	0.203215	-0.000114	0.108772
C40	C	0.703215	0.499886	0.608772
C41	C	0.184312	-0.000099	0.245457
C42	C	0.684312	0.499901	0.745457
C43	C	0.265854	-0.000087	0.252110
C44	C	0.765854	0.499913	0.752110
C45	C	0.316072	-0.000099	0.187094
C46	C	0.816072	0.499901	0.687094
C47	C	0.447133	-0.000096	0.132142
C48	C	0.947133	0.499904	0.632142
C49	C	0.399417	-0.000095	0.193902
C50	C	0.899417	0.499905	0.693902
C51	C	0.959344	-0.250135	0.200366
C52	C	1.459344	0.249865	0.700366
C53	C	0.955281	-0.340708	0.196149
C54	C	1.455281	0.159292	0.696149
C55	C	0.905927	-0.386005	0.145062
C56	C	1.405927	0.113995	0.645062
C57	C	0.860639	-0.340723	0.098184
C58	C	1.360639	0.159277	0.598184
C59	C	0.864706	-0.250152	0.102398
C60	C	1.364706	0.249848	0.602398
C61	C	0.891281	-0.659472	0.129885
C62	C	1.391281	-0.159472	0.629885
C63	C	0.887215	-0.750050	0.125676
C64	C	1.387215	-0.250050	0.625676
C65	C	0.981859	-0.750028	0.223641
C66	C	1.481859	-0.250028	0.723641
C67	C	0.985919	-0.659455	0.227853
C68	C	1.485919	-0.159455	0.727853
C69	C	0.940634	-0.614182	0.180973
C70	C	1.440634	-0.114182	0.680973
C71	C	0.901771	-0.478585	0.140752
C72	C	1.401771	0.021415	0.640752
C73	C	0.944795	-0.521603	0.185279
C74	C	1.444795	-0.021603	0.685279
C75	C	1.066214	-0.000106	0.166702
C76	C	1.566214	0.499894	0.666702
C77	C	1.152995	-0.000110	0.173782
C78	C	1.652995	0.499890	0.673782
C79	C	0.929246	-0.000101	0.025033
C80	C	1.429246	0.499899	0.525033
C81	C	0.927864	-0.000101	-0.059077
C82	C	1.427864	0.499899	0.440923
N83	N	0.932502	0.204675	0.172549
N84	N	1.432502	0.704675	0.672549
C85	C	0.998444	-0.000110	-0.103028
C86	C	1.498444	0.499890	0.396972
C87	C	0.997141	-0.000102	-0.182057
C88	C	1.497141	0.499898	0.317943
C89	C	0.925256	-0.000092	-0.217134
C90	C	1.425256	0.499908	0.282866
C91	C	0.854670	-0.000080	-0.173177
C92	C	1.354670	0.499920	0.326823
C93	C	0.855975	-0.000081	-0.094149
C94	C	1.355975	0.499919	0.405851
C95	C	0.849407	-0.000072	-0.491888
C96	C	1.349407	0.499928	0.008112
C97	C	0.848108	-0.000073	-0.570922
C98	C	1.348108	0.499927	-0.070922
C99	C	0.990574	-0.000093	-0.579796
C100	C	1.490574	0.499907	-0.079796
C101	C	0.991878	-0.000095	-0.500768
C102	C	1.491878	0.499905	-0.000768
C103	C	0.921293	-0.000078	-0.456818
C104	C	1.421293	0.499922	0.043182
C105	C	0.922707	-0.000085	-0.371125
C106	C	1.422707	0.499915	0.128875
C107	C	0.923840	-0.000091	-0.302825
C108	C	1.423840	0.499909	0.197175
C109	C	0.917307	-0.000082	0.301016
C110	C	1.417307	0.499918	0.801016
C111	C	0.918690	-0.000076	0.385126
C112	C	1.418690	0.499924	0.885126
H113	H	0.668831	-0.000054	0.275638
H114	H	1.168831	0.499946	0.775638
Cl115	Cl	0.760672	-0.000050	-0.436646
Cl116	Cl	1.260672	0.499950	0.063354
H117	H	0.789567	-0.000066	-0.599479
H118	H	1.289567	0.499934	-0.099479
H119	H	0.827829	-0.213290	0.064229
H120	H	1.327829	0.286710	0.564229
Cl121	Cl	0.541334	-0.000111	-0.016165
Cl122	Cl	1.041334	0.499889	0.483835
Cl123	Cl	0.764300	-0.000056	-0.217273
Cl124	Cl	1.264300	0.499944	0.282727
H125	H	0.798501	-0.000074	-0.058365
H126	H	1.298501	0.499926	0.441635
H127	H	1.018728	-0.786899	0.261808
H128	H	1.518728	-0.286899	0.761808
H129	H	0.520912	-0.000071	0.263558
H130	H	1.020912	0.499929	0.763558
H131	H	0.291347	-0.000069	0.310471
H132	H	0.791347	0.499931	0.810471
H133	H	0.854407	-0.622621	0.091711
H134	H	1.354407	-0.122621	0.591711
Cl135	Cl	0.725379	-0.000096	-0.001139
Cl136	Cl	1.225379	0.499904	0.498861
H137	H	1.048048	-0.000102	-0.615590
H138	H	1.548048	0.499898	-0.115590
H139	H	1.056981	-0.000124	-0.074475
H140	H	1.556981	0.499876	0.425525
H141	H	1.054614	-0.000112	-0.217839
H142	H	1.554614	0.499888	0.282161
H143	H	1.050414	-0.000108	-0.472213
H144	H	1.550414	0.499892	0.027787
Cl145	Cl	0.347881	-0.000124	0.033690
Cl146	Cl	0.847881	0.499876	0.533690
Cl147	Cl	0.121176	-0.000088	0.327185
Cl148	Cl	0.621176	0.499912	0.827185
Cl149	Cl	0.438791	-0.000084	0.283997
Cl150	Cl	0.938791	0.499916	0.783997
Cl151	Cl	0.163844	-0.000147	0.018666
Cl152	Cl	0.663844	0.499853	0.518666
Cl153	Cl	1.021392	-0.193200	0.264594
Cl154	Cl	1.521392	0.306800	0.764594
Cl155	Cl	0.407754	-0.000105	0.042046
Cl156	Cl	0.907754	0.499895	0.542046
H157	H	0.847021	-0.786928	0.084075
H158	H	1.347021	-0.286928	0.584075
Cl159	Cl	1.012214	-0.397621	0.255080
Cl160	Cl	1.512214	0.102379	0.755080
H161	H	0.820457	-0.377611	0.056584
H162	H	1.320457	0.122389	0.556584
H163	H	1.026111	-0.622581	0.269452
H164	H	1.526111	-0.122581	0.769452
H165	H	0.984982	-0.484719	0.226872
H166	H	1.484982	0.015281	0.726872
Cl167	Cl	0.839721	-0.535536	0.076536
Cl168	Cl	1.339721	-0.035536	0.576536
