data_functionalizedCrystal
_audit_creation_method	'MofGen! by Chris Wilmer'
_symmetry_space_group_name_H-M	'P1'
_symmetry_Int_Tables_number	1
_symmetry_cell_setting	triclinic
loop_
_symmetry_equiv_pos_as_xyz
  x,y,z
_cell_length_a	10.723024
_cell_length_b	10.723022
_cell_length_c	8.140239
_cell_angle_alpha	89.997644
_cell_angle_beta	89.997577
_cell_angle_gamma	84.467548
loop_
_atom_site_label
_atom_site_type_symbol
_atom_site_fract_x
_atom_site_fract_y
_atom_site_fract_z
O1	O	1.657184	0.175025	-0.136598
O2	O	1.294032	0.191779	-0.136603
O3	O	1.483986	0.001826	-0.136595
O4	O	1.467231	0.364978	-0.136607
O5	O	1.483975	0.001824	0.136632
O6	O	1.294021	0.191777	0.136624
O7	O	1.657174	0.175023	0.136629
Zn8	Zn	1.475596	0.183400	0.180007
Zn9	Zn	1.475610	0.183402	-0.179982
O10	O	1.467220	0.364976	0.136620
C11	C	1.247527	0.190558	0.000009
C12	C	1.108973	0.186911	0.000007
C13	C	1.033990	0.293199	0.000003
C14	C	0.890786	0.289431	0.000001
C15	C	1.482762	-0.044675	0.000017
C16	C	1.479115	-0.183229	0.000011
C17	C	1.581631	-0.401408	0.000004
C18	C	1.585403	-0.258205	0.000010
C19	C	1.703679	0.176243	0.000012
C20	C	1.842233	0.179891	0.000004
C21	C	1.468444	0.411477	0.000005
C22	C	1.472091	0.550031	-0.000000
N23	N	1.475596	0.183397	0.425689
N24	N	1.475620	0.183395	-0.425664
H25	H	0.826353	0.380421	-0.000010
H26	H	1.381103	-0.385526	0.000012
O27	O	1.367140	-0.232944	0.000223
C28	C	1.298858	-0.192792	0.141751
H29	H	1.333513	-0.102171	0.188937
H30	H	1.195083	-0.175748	0.109922
H31	H	1.312760	-0.267988	0.240833
H32	H	1.075811	0.386984	0.000009
O33	O	0.919211	0.071412	-0.000212
C34	C	0.995325	0.066682	-0.141741
H35	H	1.002631	0.165811	-0.188922
H36	H	1.092800	0.021149	-0.109916
H37	H	0.952093	0.009261	-0.240826
H38	H	1.067151	0.093125	-0.000031
H39	H	1.672620	-0.465850	0.000013
O40	O	1.697189	-0.208129	0.000085
C41	C	1.676069	-0.076297	0.000044
H42	H	1.578917	-0.046690	0.051771
H43	H	1.749831	-0.035602	0.079370
H44	H	1.682382	-0.039996	-0.131037
