data_functionalizedCrystal
_audit_creation_method	'MofGen! by Chris Wilmer'
_symmetry_space_group_name_H-M	'P1'
_symmetry_Int_Tables_number	1
_symmetry_cell_setting	triclinic
loop_
_symmetry_equiv_pos_as_xyz
  x,y,z
_cell_length_a	19.805407
_cell_length_b	19.805405
_cell_length_c	19.805407
_cell_angle_alpha	90.015038
_cell_angle_beta	90.007450
_cell_angle_gamma	90.023727
loop_
_atom_site_label
_atom_site_type_symbol
_atom_site_fract_x
_atom_site_fract_y
_atom_site_fract_z
Zn1	Zn	1.034666	-0.269623	0.382679
Zn2	Zn	1.368000	0.063711	0.716013
Zn3	Zn	1.701333	0.397044	1.049346
Zn4	Zn	1.034602	-0.382783	0.269488
Zn5	Zn	1.367935	-0.049449	0.602821
Zn6	Zn	1.701268	0.283884	0.936154
Zn7	Zn	0.921502	-0.269608	0.269507
Zn8	Zn	1.254835	0.063726	0.602841
Zn9	Zn	1.588168	0.397059	0.936174
Zn10	Zn	0.921445	-0.382770	0.382638
Zn11	Zn	1.254778	-0.049436	0.715971
Zn12	Zn	1.588111	0.283897	1.049305
O13	O	0.978054	-0.326196	0.326078
O14	O	1.311387	0.007138	0.659411
O15	O	1.644720	0.340471	0.992745
O16	O	1.129374	-0.284645	0.367673
O17	O	1.462708	0.048688	0.701007
O18	O	1.796041	0.382021	1.034340
O19	O	1.019596	-0.367769	0.174774
O20	O	1.352929	-0.034436	0.508107
O21	O	1.686262	0.298897	0.841440
O22	O	0.936564	-0.174893	0.284546
O23	O	1.269897	0.158440	0.617879
O24	O	1.603231	0.491773	0.951212
O25	O	1.129327	-0.367784	0.284512
O26	O	1.462660	-0.034450	0.617845
O27	O	1.795994	0.298883	0.951179
O28	O	1.019706	-0.174904	0.367692
O29	O	1.353039	0.158429	0.701026
O30	O	1.686372	0.491763	1.034359
O31	O	0.936501	-0.284620	0.174788
O32	O	1.269835	0.048713	0.508122
O33	O	1.603168	0.382047	0.841455
O34	O	0.826777	-0.284607	0.284505
O35	O	1.160111	0.048726	0.617839
O36	O	1.493444	0.382059	0.951172
O37	O	0.936467	-0.367761	0.477360
O38	O	1.269800	-0.034428	0.810693
O39	O	1.603134	0.298905	1.144027
O40	O	0.826736	-0.367747	0.367622
O41	O	1.160069	-0.034414	0.700955
O42	O	1.493402	0.298920	1.034289
O43	O	1.019651	-0.284633	0.477390
O44	O	1.352984	0.048701	0.810724
O45	O	1.686317	0.382034	1.144057
O46	O	1.019540	-0.477498	0.284472
O47	O	1.352874	-0.144164	0.617805
O48	O	1.686207	0.189169	0.951138
O49	O	0.936404	-0.477488	0.367603
O50	O	1.269738	-0.144155	0.700936
O51	O	1.603071	0.189179	1.034269
C52	C	0.802198	-0.326175	0.326062
C53	C	1.135531	0.007159	0.659395
C54	C	1.468864	0.340492	0.992728
C55	C	0.726966	-0.326182	0.326071
C56	C	1.060299	0.007152	0.659404
C57	C	1.393632	0.340485	0.992737
C58	C	0.691647	-0.282968	0.369439
C59	C	1.024980	0.050365	0.702772
C60	C	1.358313	0.383698	1.036105
C61	C	0.620958	-0.282972	0.369441
C62	C	0.954292	0.050362	0.702775
C63	C	1.287625	0.383695	1.036108
C64	C	0.585590	-0.326193	0.326079
C65	C	0.918923	0.007141	0.659412
C66	C	1.252257	0.340474	0.992746
C67	C	0.620914	-0.369408	0.282706
C68	C	0.954247	-0.036075	0.616039
C69	C	1.287580	0.297258	0.949373
C70	C	0.691601	-0.369401	0.282701
C71	C	1.024934	-0.036067	0.616034
C72	C	1.358268	0.297266	0.949367
C73	C	0.335840	-0.369439	0.282727
C74	C	0.669174	-0.036105	0.616060
C75	C	1.002507	0.297228	0.949394
C76	C	0.265148	-0.369444	0.282737
C77	C	0.598482	-0.036111	0.616071
C78	C	0.931815	0.297222	0.949404
C79	C	0.265198	-0.283010	0.369468
C80	C	0.598531	0.050324	0.702801
C81	C	0.931865	0.383657	1.036134
C82	C	0.335885	-0.283002	0.369462
C83	C	0.669218	0.050331	0.702795
C84	C	1.002552	0.383664	1.036129
C85	C	0.371203	-0.326215	0.326087
C86	C	0.704536	0.007118	0.659420
C87	C	1.037869	0.340452	0.992754
C88	C	0.447851	-0.326210	0.326084
C89	C	0.781184	0.007124	0.659417
C90	C	1.114518	0.340457	0.992751
C91	C	0.508943	-0.326202	0.326085
C92	C	0.842276	0.007131	0.659418
C93	C	1.175610	0.340465	0.992752
C94	C	0.977977	-0.502052	0.326045
C95	C	1.311311	-0.168718	0.659379
C96	C	1.644644	0.164615	0.992712
C97	C	0.978007	-0.577284	0.326054
C98	C	1.311340	-0.243950	0.659387
C99	C	1.644673	0.089383	0.992721
C100	C	1.021338	-0.612610	0.282813
C101	C	1.354671	-0.279277	0.616146
C102	C	1.688004	0.054056	0.949480
C103	C	1.021366	-0.683299	0.282828
C104	C	1.354700	-0.349966	0.616161
C105	C	1.688033	-0.016632	0.949495
C106	C	0.978060	-0.718659	0.326081
C107	C	1.311394	-0.385326	0.659414
C108	C	1.644727	-0.051993	0.992748
C109	C	0.934727	-0.683328	0.369327
C110	C	1.268061	-0.349994	0.702660
C111	C	1.601394	-0.016661	1.035993
C112	C	0.934703	-0.612641	0.369315
C113	C	1.268036	-0.279307	0.702648
C114	C	1.601369	0.054026	1.035981
C115	C	0.934827	-0.968401	0.369377
C116	C	1.268161	-0.635068	0.702710
C117	C	1.601494	-0.301734	1.036044
C118	C	0.934854	-1.039093	0.369384
C119	C	1.268187	-0.705760	0.702718
C120	C	1.601521	-0.372426	1.036051
C121	C	1.021491	-1.039059	0.282890
C122	C	1.354824	-0.705726	0.616224
C123	C	1.688158	-0.372393	0.949557
C124	C	1.021466	-0.968372	0.282878
C125	C	1.354800	-0.635039	0.616212
C126	C	1.688133	-0.301705	0.949545
C127	C	0.978136	-0.933047	0.326126
C128	C	1.311470	-0.599713	0.659459
C129	C	1.644803	-0.266380	0.992793
C130	C	0.978107	-0.856398	0.326110
C131	C	1.311440	-0.523065	0.659444
C132	C	1.644773	-0.189732	0.992777
C133	C	0.978086	-0.795306	0.326094
C134	C	1.311420	-0.461973	0.659427
C135	C	1.644753	-0.128640	0.992761
C136	C	1.154596	-0.326218	0.326095
C137	C	1.487930	0.007116	0.659428
C138	C	1.821263	0.340449	0.992762
C139	C	1.229828	-0.326227	0.326102
C140	C	1.563162	0.007107	0.659436
C141	C	1.896495	0.340440	0.992769
C142	C	0.978060	-0.326197	0.502621
C143	C	1.311393	0.007136	0.835954
C144	C	1.644726	0.340470	1.169288
C145	C	0.978062	-0.326198	0.577853
C146	C	1.311396	0.007136	0.911186
C147	C	1.644729	0.340469	1.244519
C148	C	0.978148	-0.149653	0.326126
C149	C	1.311482	0.183680	0.659459
C150	C	1.644815	0.517014	0.992792
C151	C	0.978189	-0.074421	0.326146
C152	C	1.311522	0.258912	0.659479
C153	C	1.644856	0.592246	0.992813
C154	C	1.021370	-0.282919	0.613214
C155	C	1.354704	0.050414	0.946547
C156	C	1.688037	0.383747	1.279881
C157	C	1.021365	-0.282917	0.683902
C158	C	1.354698	0.050416	1.017236
C159	C	1.688031	0.383749	1.350569
C160	C	0.978053	-0.326198	0.719228
C161	C	1.311387	0.007136	1.052562
C162	C	1.644720	0.340469	1.385895
C163	C	0.934740	-0.369478	0.683862
C164	C	1.268074	-0.036145	1.017196
C165	C	1.601407	0.297189	1.350529
C166	C	0.934743	-0.369476	0.613175
C167	C	1.268077	-0.036143	0.946509
C168	C	1.601410	0.297191	1.279842
C169	C	0.934727	-0.369486	0.968936
C170	C	1.268060	-0.036152	1.302269
C171	C	1.601394	0.297181	1.635602
C172	C	0.934729	-0.369486	1.039628
C173	C	1.268062	-0.036152	1.372961
C174	C	1.601396	0.297181	1.706294
C175	C	1.021348	-0.282927	1.039663
C176	C	1.354682	0.050406	1.372996
C177	C	1.688015	0.383740	1.706329
C178	C	1.021351	-0.282925	0.968976
C179	C	1.354685	0.050408	1.302309
C180	C	1.688018	0.383742	1.635642
C181	C	0.978036	-0.326203	0.933616
C182	C	1.311369	0.007131	1.266949
C183	C	1.644703	0.340464	1.600282
C184	C	0.978042	-0.326203	0.856967
C185	C	1.311375	0.007130	1.190301
C186	C	1.644709	0.340463	1.523634
C187	C	0.978050	-0.326201	0.795876
C188	C	1.311384	0.007133	1.129209
C189	C	1.644717	0.340466	1.462542
C190	C	0.978041	-0.326208	1.150222
C191	C	1.311374	0.007125	1.483555
C192	C	1.644708	0.340459	1.816889
C193	C	0.978034	-0.326203	1.074990
C194	C	1.311368	0.007130	1.408323
C195	C	1.644701	0.340463	1.741657
H196	H	0.720439	-0.247774	0.404751
H197	H	1.053772	0.085559	0.738085
H198	H	1.387105	0.418892	1.071418
H199	H	0.364587	-0.404626	0.247409
H200	H	0.697921	-0.071292	0.580742
H201	H	1.031254	0.262041	0.914076
H202	H	1.056642	-0.247677	0.584456
H203	H	1.389975	0.085656	0.917790
H204	H	1.723308	0.418989	1.251123
Cl205	Cl	0.880276	-0.423899	1.084037
Cl206	Cl	1.213609	-0.090566	1.417370
Cl207	Cl	1.546942	0.242768	1.750704
Cl208	Cl	0.576450	-0.423740	0.228189
Cl209	Cl	0.909784	-0.090407	0.561523
Cl210	Cl	1.243117	0.242927	0.894856
H211	H	0.236434	-0.247822	0.404783
H212	H	0.569767	0.085512	0.738117
H213	H	0.903101	0.418845	1.071450
H214	H	0.899473	-0.404715	0.712631
H215	H	1.232807	-0.071382	1.045964
H216	H	1.566140	0.261952	1.379297
Cl217	Cl	0.880294	-0.423883	0.568721
Cl218	Cl	1.213628	-0.090550	0.902054
Cl219	Cl	1.546961	0.242783	1.235388
Cl220	Cl	1.075779	-0.568164	0.228430
Cl221	Cl	1.409112	-0.234831	0.561763
Cl222	Cl	1.742445	0.098502	0.895097
Cl223	Cl	0.880229	-0.568230	0.423679
Cl224	Cl	1.213563	-0.234896	0.757013
Cl225	Cl	1.546896	0.098437	1.090346
Cl226	Cl	0.576561	-0.228646	0.423966
Cl227	Cl	0.909894	0.104688	0.757299
Cl228	Cl	1.243227	0.438021	1.090632
Cl229	Cl	0.736002	-0.423729	0.228179
Cl230	Cl	1.069335	-0.090396	0.561512
Cl231	Cl	1.402669	0.242937	0.894846
Cl232	Cl	0.220686	-0.423782	0.228218
Cl233	Cl	0.554019	-0.090448	0.561552
Cl234	Cl	0.887353	0.242885	0.894885
H235	H	1.056650	-0.712059	0.247616
H236	H	1.389984	-0.378725	0.580950
H237	H	1.723317	-0.045392	0.914283
Cl238	Cl	1.075842	-0.228537	0.728353
Cl239	Cl	1.409175	0.104796	1.061687
Cl240	Cl	1.742509	0.438129	1.395020
Cl241	Cl	1.075804	-0.228515	0.924570
Cl242	Cl	1.409137	0.104818	1.257903
Cl243	Cl	1.742470	0.438151	1.591236
Cl244	Cl	0.380344	-0.228668	0.423980
Cl245	Cl	0.713678	0.104665	0.757313
Cl246	Cl	1.047011	0.437999	1.090646
H247	H	1.056775	-1.067830	0.247678
H248	H	1.390109	-0.734496	0.581012
H249	H	1.723442	-0.401163	0.914345
Cl250	Cl	1.075911	-0.923923	0.228501
Cl251	Cl	1.409244	-0.590590	0.561834
Cl252	Cl	1.742577	-0.257256	0.895168
Cl253	Cl	0.880409	-1.083545	0.423765
Cl254	Cl	1.213742	-0.750212	0.757098
Cl255	Cl	1.547076	-0.416879	1.090432
Cl256	Cl	0.880354	-0.924001	0.423745
Cl257	Cl	1.213687	-0.590668	0.757078
Cl258	Cl	1.547020	-0.257334	1.090411
Cl259	Cl	0.880289	-0.727781	0.423706
Cl260	Cl	1.213622	-0.394448	0.757040
Cl261	Cl	1.546956	-0.061114	1.090373
H262	H	0.899467	-0.404735	0.940154
H263	H	1.232800	-0.071402	1.273488
H264	H	1.566134	0.261932	1.606821
Cl265	Cl	1.075800	-0.228517	1.084119
Cl266	Cl	1.409134	0.104816	1.417453
Cl267	Cl	1.742467	0.438149	1.750786
