data_functionalizedCrystal
_audit_creation_method	'MofGen! by Chris Wilmer'
_symmetry_space_group_name_H-M	'P1'
_symmetry_Int_Tables_number	1
_symmetry_cell_setting	triclinic
loop_
_symmetry_equiv_pos_as_xyz
  x,y,z
_cell_length_a	10.686220
_cell_length_b	29.839131
_cell_length_c	10.686551
_cell_angle_alpha	85.589901
_cell_angle_beta	90.308082
_cell_angle_gamma	94.423467
loop_
_atom_site_label
_atom_site_type_symbol
_atom_site_fract_x
_atom_site_fract_y
_atom_site_fract_z
Zn1	Zn	1.972144	-0.109531	-0.562362
Zn2	Zn	1.955808	-0.190848	-0.352586
Zn3	Zn	1.746247	-0.121024	-0.368677
Zn4	Zn	1.762239	-0.189937	-0.578364
O5	O	1.859109	-0.152835	-0.465497
O6	O	2.145524	-0.115889	-0.521104
O7	O	1.914480	-0.186776	-0.179174
O8	O	1.776357	-0.056627	-0.394408
O9	O	2.133522	-0.175632	-0.366982
O10	O	1.942322	-0.048183	-0.536707
O11	O	1.760516	-0.135477	-0.190996
O12	O	1.572821	-0.134594	-0.409924
O13	O	1.803613	-0.174081	-0.751788
O14	O	1.584570	-0.185225	-0.563980
O15	O	1.957829	-0.115006	-0.740032
O16	O	1.929986	-0.253599	-0.382499
O17	O	1.787772	-0.252930	-0.548377
C18	C	1.533178	-0.161058	-0.490435
C19	C	1.393745	-0.164586	-0.501133
C20	C	1.858878	-0.269565	-0.465453
C21	C	1.858897	-0.319499	-0.465467
C22	C	1.933315	-0.629464	-0.379231
C23	C	1.933474	-0.817132	-0.379268
O24	O	1.996563	-0.841676	-0.305913
N25	N	1.859377	-0.840268	-0.465572
C26	C	1.785241	-0.816484	-0.551879
O27	O	1.722231	-0.840468	-0.625295
C28	C	1.785090	-0.628816	-0.551847
C29	C	1.859182	-0.605683	-0.465528
C30	C	2.007402	-0.606331	-0.292920
C31	C	2.007357	-0.559417	-0.292908
C32	C	1.933224	-0.535636	-0.379205
C33	C	1.859137	-0.558769	-0.465516
C34	C	1.710962	-0.605033	-0.638159
C35	C	1.710934	-0.558113	-0.638145
C36	C	1.785026	-0.534980	-0.551827
C37	C	1.784958	-0.488075	-0.551801
N38	N	1.859055	-0.464939	-0.465496
C39	C	1.933188	-0.488720	-0.379198
C40	C	1.785324	-0.915012	-0.551888
C41	C	1.785360	-0.961928	-0.551895
C42	C	1.933594	-0.962573	-0.379285
C43	C	1.933551	-0.915656	-0.379273
C44	C	1.859421	-0.891876	-0.465583
C45	C	1.933086	-0.390197	-0.379177
C46	C	1.933030	-0.343279	-0.379169
C47	C	1.784801	-0.342638	-0.551783
C48	C	1.784851	-0.389552	-0.551787
C49	C	1.859004	-0.413330	-0.465480
O50	O	1.721913	-0.463501	-0.625126
O51	O	1.996210	-0.464726	-0.305811
C52	C	1.933361	-0.676378	-0.379244
C53	C	1.859273	-0.699511	-0.465554
C54	C	1.785141	-0.675730	-0.551852
C55	C	1.859309	-0.746428	-0.465561
C56	C	1.933442	-0.770208	-0.379263
C57	C	2.007539	-0.747072	-0.292959
C58	C	2.007493	-0.700158	-0.292946
C59	C	1.711044	-0.698867	-0.638156
C60	C	1.711094	-0.745781	-0.638161
C61	C	1.785227	-0.769561	-0.551863
C62	C	2.186314	-0.144580	-0.440463
C63	C	2.325749	-0.141063	-0.429795
C64	C	1.884327	-0.143160	-0.792700
C65	C	1.895073	-0.139037	-0.932134
C66	C	1.859378	-0.035647	-0.465567
C67	C	1.859492	0.014291	-0.465597
C68	C	1.834062	-0.162438	-0.139563
C69	C	1.823559	-0.166429	-0.000111
H70	H	1.345283	-0.187428	-0.570390
H71	H	2.067693	-0.540584	-0.222623
O72	O	2.005124	-0.320876	-0.295268
C73	C	2.152097	-0.326478	-0.124014
C74	C	2.070534	-0.351903	-0.218976
H75	H	2.204982	-0.351554	-0.062289
H76	H	2.222148	-0.301132	-0.176570
H77	H	2.089462	-0.307926	-0.062821
H78	H	2.133069	-0.370482	-0.280194
H79	H	2.000473	-0.377223	-0.166341
O80	O	1.977860	-0.107237	-0.989823
C81	C	2.041952	-0.028095	-1.025598
C82	C	1.948134	-0.064061	-0.960171
H83	H	2.017937	0.006821	-1.001670
H84	H	2.141149	-0.034146	-0.992133
H85	H	2.036176	-0.030334	-1.131513
H86	H	1.953797	-0.061843	-0.854248
H87	H	1.848978	-0.057999	-0.993738
H88	H	1.754116	-0.193035	-0.951637
H89	H	1.374204	-0.118225	-0.360535
H90	H	1.993471	-0.409551	-0.308900
H91	H	2.067826	-0.681327	-0.222658
O92	O	2.079448	-0.629360	-0.208959
C93	C	2.226509	-0.625030	-0.037789
C94	C	2.144958	-0.598899	-0.132803
H95	H	2.279515	-0.600413	0.023791
H96	H	2.163981	-0.650405	0.023542
H97	H	2.296476	-0.643619	-0.090430
H98	H	2.074981	-0.580283	-0.080264
H99	H	2.207565	-0.573551	-0.194131
H100	H	1.993883	-0.896824	-0.308986
O101	O	2.005826	-0.985607	-0.295506
C102	C	2.214651	-0.996280	-0.218591
C103	C	2.132970	-0.970160	-0.313502
H104	H	2.317466	-0.983807	-0.233124
H105	H	2.185034	-0.990608	-0.119061
H106	H	2.201922	-1.033789	-0.233381
H107	H	2.145658	-0.932643	-0.298827
H108	H	2.162607	-0.975869	-0.412998
O109	O	1.713345	-0.984326	-0.635857
C110	C	1.566264	-0.978724	-0.807016
C111	C	1.647778	-0.953305	-0.712008
H112	H	1.513211	-0.953656	-0.868592
H113	H	1.628824	-0.997252	-0.868352
H114	H	1.496337	-1.004092	-0.754370
H115	H	1.717714	-0.927916	-0.764552
H116	H	1.585139	-0.934807	-0.650675
H117	H	1.724955	-0.895653	-0.622174
H118	H	1.650622	-0.623860	-0.708443
H119	H	1.650570	-0.538753	-0.708433
H120	H	1.724524	-0.408388	-0.622078
H121	H	1.724438	-0.323269	-0.622042
O122	O	2.079732	-0.770181	-0.209312
C123	C	2.247864	-0.819315	-0.179711
C124	C	2.166195	-0.793159	-0.274553
H125	H	2.317771	-0.837907	-0.232420
H126	H	2.300916	-0.794736	-0.118050
H127	H	2.185293	-0.844692	-0.118435
H128	H	2.228675	-0.767781	-0.335911
H129	H	2.113132	-0.817766	-0.336126
O130	O	1.639083	-0.768177	-0.722138
C131	C	1.492014	-0.762575	-0.893309
C132	C	1.573515	-0.737157	-0.798288
H133	H	1.438961	-0.737507	-0.954883
H134	H	1.554586	-0.781099	-0.954644
H135	H	1.422090	-0.787946	-0.840673
H136	H	1.643449	-0.711764	-0.850821
H137	H	1.510865	-0.718663	-0.736955
H138	H	1.650678	-0.679508	-0.708432
