data_functionalizedCrystal
_audit_creation_method	'MofGen! by Chris Wilmer'
_symmetry_space_group_name_H-M	'P1'
_symmetry_Int_Tables_number	1
_symmetry_cell_setting	triclinic
loop_
_symmetry_equiv_pos_as_xyz
  x,y,z
_cell_length_a	12.759393
_cell_length_b	17.077404
_cell_length_c	17.077402
_cell_angle_alpha	89.974547
_cell_angle_beta	89.965806
_cell_angle_gamma	90.021267
loop_
_atom_site_label
_atom_site_type_symbol
_atom_site_fract_x
_atom_site_fract_y
_atom_site_fract_z
Zn1	Zn	-0.594043	-1.200056	-0.312463
Zn2	Zn	-0.094043	-0.700056	0.187537
Zn3	Zn	-0.418352	-1.199953	-0.443750
Zn4	Zn	0.081648	-0.699953	0.056250
Zn5	Zn	-0.418373	-1.068783	-0.312503
Zn6	Zn	0.081627	-0.568783	0.187497
Zn7	Zn	-0.593984	-1.068750	-0.443692
Zn8	Zn	-0.093984	-0.568750	0.056308
O9	O	-0.506188	-1.134386	-0.378102
O10	O	-0.006188	-0.634386	0.121898
O11	O	-0.570753	-1.309889	-0.329887
O12	O	-0.070753	-0.809889	0.170113
O13	O	-0.271334	-1.182524	-0.426381
O14	O	0.228666	-0.682524	0.073619
O15	O	-0.441709	-1.086254	-0.202651
O16	O	0.058291	-0.586254	0.297349
O17	O	-0.441674	-1.309814	-0.426343
O18	O	0.058326	-0.809814	0.073657
O19	O	-0.570773	-1.182699	-0.202622
O20	O	-0.070773	-0.682699	0.297378
O21	O	-0.271349	-1.086154	-0.329954
O22	O	0.228651	-0.586154	0.170046
O23	O	-0.441652	-0.958932	-0.329897
O24	O	0.058348	-0.458932	0.170103
O25	O	-0.741013	-1.086197	-0.426243
O26	O	-0.241013	-0.586197	0.073757
O27	O	-0.570673	-0.958907	-0.426281
O28	O	-0.070673	-0.458907	0.073719
O29	O	-0.741056	-1.182666	-0.329830
O30	O	-0.241056	-0.682666	0.170170
O31	O	-0.441617	-1.182492	-0.553589
O32	O	0.058383	-0.682492	-0.053589
O33	O	-0.570653	-1.086098	-0.553546
O34	O	-0.070653	-0.586098	-0.053546
C35	C	-0.506150	-1.134301	-0.582050
C36	C	-0.006150	-0.634301	-0.082050
C37	C	-0.506168	-1.134337	-0.669300
C38	C	-0.006168	-0.634337	-0.169300
C39	C	-0.506159	-0.930438	-0.378088
C40	C	-0.006159	-0.430438	0.121912
C41	C	-0.506172	-0.843188	-0.378101
C42	C	-0.006172	-0.343188	0.121899
C43	C	-0.780222	-1.134439	-0.378026
C44	C	-0.280222	-0.634439	0.121974
C45	C	-0.896998	-1.134462	-0.377993
C46	C	-0.396998	-0.634462	0.122007
C47	C	-1.061565	-1.084271	-0.428146
C48	C	-0.561565	-0.584271	0.071854
C49	C	-0.951840	-1.084247	-0.428175
C50	C	-0.451840	-0.584247	0.071825
C51	C	-0.951886	-1.184700	-0.327775
C52	C	-0.451886	-0.684700	0.172225
C53	C	-1.061608	-1.184720	-0.327743
C54	C	-0.561608	-0.684720	0.172257
C55	C	-1.116401	-1.034058	-0.478336
C56	C	-0.616401	-0.534058	0.021664
C57	C	-1.061521	-0.983819	-0.528554
C58	C	-0.561521	-0.483819	-0.028554
C59	C	-0.951797	-0.983795	-0.528583
C60	C	-0.451797	-0.483795	-0.028583
C61	C	-0.896953	-1.034009	-0.478393
C62	C	-0.396953	-0.534009	0.021607
C63	C	-0.233221	-1.134377	-0.378121
C64	C	0.266779	-0.634377	0.121879
C65	C	-0.116445	-1.134506	-0.377933
C66	C	0.383555	-0.634506	0.122067
C67	C	-0.506218	-1.339130	-0.378117
C68	C	-0.006218	-0.839130	0.121883
C69	C	-0.506230	-1.426380	-0.378123
C70	C	-0.006230	-0.926380	0.121877
C71	C	-0.573245	-0.802205	-0.428364
C72	C	-0.073245	-0.302205	0.071636
C73	C	-0.573262	-0.720225	-0.428365
C74	C	-0.073262	-0.220225	0.071635
C75	C	-0.506199	-0.679228	-0.378107
C76	C	-0.006199	-0.179228	0.121893
C77	C	-0.439123	-0.720217	-0.327839
C78	C	0.060877	-0.220217	0.172161
C79	C	-0.439112	-0.802196	-0.327834
C80	C	0.060888	-0.302196	0.172166
C81	C	-0.439148	-0.549347	-0.327855
C82	C	0.060852	-0.049347	0.172145
C83	C	-0.439157	-0.467362	-0.327860
C84	C	0.060843	0.032638	0.172140
C85	C	-0.573298	-0.467376	-0.428386
C86	C	-0.073298	0.032624	0.071614
C87	C	-0.573287	-0.549355	-0.428381
C88	C	-0.073287	-0.049355	0.071619
C89	C	-0.506209	-0.590337	-0.378113
C90	C	-0.006209	-0.090337	0.121887
C91	C	-0.573514	-1.184691	-1.045035
C92	C	-0.073514	-0.684691	-0.545035
C93	C	-0.573490	-1.184655	-0.963055
C94	C	-0.073490	-0.684655	-0.463055
C95	C	-0.506231	-1.134461	-0.922149
C96	C	-0.006231	-0.634461	-0.422149
C97	C	-0.438985	-1.084305	-0.963227
C98	C	0.061015	-0.584305	-0.463227
C99	C	-0.439005	-1.084345	-1.045206
C100	C	0.060995	-0.584345	-0.545206
C101	C	-0.438949	-1.084224	-0.792357
C102	C	0.061051	-0.584224	-0.292357
C103	C	-0.438930	-1.084183	-0.710372
C104	C	0.061070	-0.584183	-0.210372
C105	C	-0.573434	-1.184535	-0.710206
C106	C	-0.073434	-0.684535	-0.210206
C107	C	-0.573454	-1.184575	-0.792185
C108	C	-0.073454	-0.684575	-0.292185
C109	C	-0.506209	-1.134417	-0.833258
C110	C	-0.006209	-0.634417	-0.333258
C111	C	-0.506250	-1.134491	-0.173358
C112	C	-0.006250	-0.634491	0.326642
C113	C	-0.506276	-1.134536	-0.086108
C114	C	-0.006276	-0.634536	0.413892
H115	H	-1.205744	-1.034073	-0.478320
H116	H	-0.705744	-0.534073	0.021680
F117	F	-0.645106	-1.238112	-1.088564
F118	F	-0.145106	-0.738112	-0.588564
H119	H	-0.628186	-1.225375	-0.676760
H120	H	-0.128186	-0.725375	-0.176760
H121	H	-0.384216	-1.043439	-0.929916
H122	H	0.115784	-0.543439	-0.429916
F123	F	-0.644619	-0.845830	-0.481860
F124	F	-0.144619	-0.345830	0.018140
H125	H	-0.628225	-1.225445	-0.825489
H126	H	-0.128225	-0.725445	-0.325489
F127	F	-0.367333	-1.030771	-0.666838
F128	F	0.132667	-0.530771	-0.166838
F129	F	-0.367375	-1.030843	-0.836068
F130	F	0.132625	-0.530843	-0.336068
F131	F	-0.367437	-1.030966	-1.088918
F132	F	0.132563	-0.530966	-0.588918
H133	H	-1.106182	-0.942930	-0.569411
H134	H	-0.606182	-0.442930	-0.069411
H135	H	-0.627918	-0.434004	-0.469313
H136	H	-0.127918	0.065996	0.030687
H137	H	-1.106293	-1.225622	-0.286851
H138	H	-0.606293	-0.725622	0.213149
H139	H	-0.807608	-1.033983	-0.478419
H140	H	-0.307608	-0.533983	0.021581
F141	F	-0.893392	-0.930321	-0.582021
F142	F	-0.393392	-0.430321	-0.082021
H143	H	-0.628240	-1.225495	-0.929614
H144	H	-0.128240	-0.725495	-0.429614
F145	F	-0.644651	-0.676612	-0.481862
F146	F	-0.144651	-0.176612	0.018138
F147	F	-0.367725	-0.845812	-0.274336
F148	F	0.132275	-0.345812	0.225664
H149	H	-0.907223	-1.225582	-0.286913
H150	H	-0.407223	-0.725582	0.213087
H151	H	-0.384561	-0.433985	-0.286927
H152	H	0.115439	0.066015	0.213073
F153	F	-0.367757	-0.592961	-0.274353
F154	F	0.132243	-0.092961	0.225647
F155	F	-0.644656	-0.592985	-0.481876
F156	F	-0.144656	-0.092985	0.018124
H157	H	-0.384524	-0.686831	-0.286915
H158	H	0.115476	-0.186831	0.213085
