data_functionalizedCrystal
_audit_creation_method	'MofGen! by Chris Wilmer'
_symmetry_space_group_name_H-M	'P1'
_symmetry_Int_Tables_number	1
_symmetry_cell_setting	triclinic
loop_
_symmetry_equiv_pos_as_xyz
  x,y,z
_cell_length_a	21.395361
_cell_length_b	12.645331
_cell_length_c	21.395355
_cell_angle_alpha	90.029653
_cell_angle_beta	89.978489
_cell_angle_gamma	89.972747
loop_
_atom_site_label
_atom_site_type_symbol
_atom_site_fract_x
_atom_site_fract_y
_atom_site_fract_z
Zn1	Zn	-0.249569	-1.620657	-0.354334
Zn2	Zn	0.250431	-1.120657	0.145666
Zn3	Zn	-0.354329	-1.620492	-0.249551
Zn4	Zn	0.145671	-1.120492	0.250449
Zn5	Zn	-0.249563	-1.443365	-0.249561
Zn6	Zn	0.250437	-0.943365	0.250439
Zn7	Zn	-0.354306	-1.443313	-0.354282
Zn8	Zn	0.145694	-0.943313	0.145718
O9	O	-0.301942	-1.531957	-0.301932
O10	O	0.198058	-1.031957	0.198068
O11	O	-0.263477	-1.768982	-0.340451
O12	O	0.236523	-1.268982	0.159549
O13	O	-0.340438	-1.596948	-0.161874
O14	O	0.159562	-1.096948	0.338126
O15	O	-0.161886	-1.466974	-0.263485
O16	O	0.338114	-0.966974	0.236515
O17	O	-0.340444	-1.768861	-0.263468
O18	O	0.159556	-1.268861	0.236532
O19	O	-0.161890	-1.597230	-0.340461
O20	O	0.338110	-1.097230	0.159539
O21	O	-0.263467	-1.466814	-0.161882
O22	O	0.236533	-0.966814	0.338118
O23	O	-0.263445	-1.295011	-0.263435
O24	O	0.236555	-0.795011	0.236565
O25	O	-0.340406	-1.466885	-0.441966
O26	O	0.159594	-0.966885	0.058034
O27	O	-0.340400	-1.294973	-0.340373
O28	O	0.159600	-0.794973	0.159627
O29	O	-0.263456	-1.597179	-0.442005
O30	O	0.236544	-1.097179	0.057995
O31	O	-0.442004	-1.596898	-0.263417
O32	O	0.057996	-1.096898	0.236583
O33	O	-0.441987	-1.466725	-0.340363
O34	O	0.058013	-0.966725	0.159637
C35	C	-0.301920	-1.256527	-0.301900
C36	C	0.198080	-0.756527	0.198100
C37	C	-0.301926	-1.138697	-0.301901
C38	C	0.198074	-0.638697	0.198099
C39	C	-0.253436	-1.093804	-0.253576
C40	C	0.246564	-0.593804	0.246424
C41	C	-0.253253	-0.971244	-0.253736
C42	C	0.246747	-0.471244	0.246264
C43	C	-0.284326	-0.970878	-0.368036
C44	C	0.215674	-0.470878	0.131964
C45	C	-0.283968	-1.093476	-0.367740
C46	C	0.216032	-0.593476	0.132260
C47	C	-0.368150	-1.093455	-0.284702
C48	C	0.131850	-0.593455	0.215298
C49	C	-0.367799	-0.970848	-0.283262
C50	C	0.132201	-0.470848	0.216738
C51	C	-0.464729	-1.531817	-0.301897
C52	C	0.035271	-1.031817	0.198103
C53	C	-0.534370	-1.531854	-0.301903
C54	C	-0.034370	-1.031854	0.198097
C55	C	-0.567071	-1.599695	-0.261878
C56	C	-0.067071	-1.099695	0.238122
C57	C	-0.632507	-1.599744	-0.261893
C58	C	-0.132507	-1.099744	0.238107
C59	C	-0.665239	-1.531934	-0.301924
C60	C	-0.165239	-1.031934	0.198076
C61	C	-0.632530	-1.464088	-0.341957
C62	C	-0.132530	-0.964088	0.158043
C63	C	-0.567096	-1.464048	-0.341946
C64	C	-0.067096	-0.964048	0.158054
C65	C	-0.768951	-1.436482	-0.306829
C66	C	-0.268951	-0.936482	0.193171
C67	C	-0.834383	-1.436520	-0.306836
C68	C	-0.334383	-0.936520	0.193164
C69	C	-0.867059	-1.532057	-0.301961
C70	C	-0.367059	-1.032057	0.198039
C71	C	-0.834294	-1.627559	-0.297067
C72	C	-0.334294	-1.127559	0.202933
C73	C	-0.768860	-1.627519	-0.297056
C74	C	-0.268860	-1.127519	0.202944
C75	C	-0.736191	-1.531970	-0.301941
C76	C	-0.236191	-1.031970	0.198059
C77	C	-0.970713	-1.599957	-0.261950
C78	C	-0.470713	-1.099957	0.238050
C79	C	-1.036150	-1.600008	-0.261968
C80	C	-0.536150	-1.100008	0.238032
C81	C	-1.036171	-1.464343	-0.342029
C82	C	-0.536171	-0.964343	0.157971
C83	C	-0.970736	-1.464301	-0.342014
C84	C	-0.470736	-0.964301	0.157986
C85	C	-0.938011	-1.532107	-0.301971
C86	C	-0.438011	-1.032107	0.198029
C87	C	-0.138518	-1.532126	-0.301980
C88	C	0.361482	-1.032126	0.198020
C89	C	-0.068877	-1.532198	-0.302001
C90	C	0.431123	-1.032198	0.197999
C91	C	-0.301929	-1.532045	-0.465355
C92	C	0.198071	-1.032045	0.034645
C93	C	-0.301923	-1.532082	-0.534996
C94	C	0.198077	-1.032082	-0.034996
C95	C	-0.301954	-0.808462	-0.301952
C96	C	0.198046	-0.308462	0.198048
C97	C	-0.301936	-0.926292	-0.301929
C98	C	0.198064	-0.426292	0.198071
C99	C	-0.261854	-1.599923	-0.567730
C100	C	0.238146	-1.099923	-0.067730
C101	C	-0.261827	-1.599922	-0.633166
C102	C	0.238173	-1.099922	-0.133166
C103	C	-0.301881	-1.532090	-0.665865
C104	C	0.198119	-1.032090	-0.165865
C105	C	-0.341953	-1.464236	-0.633123
C106	C	0.158047	-0.964236	-0.133123
C107	C	-0.341975	-1.464232	-0.567689
C108	C	0.158025	-0.964232	-0.067689
C109	C	-0.358296	-1.523671	-0.769527
C110	C	0.141704	-1.023671	-0.269527
C111	C	-0.358276	-1.523683	-0.834960
C112	C	0.141724	-1.023683	-0.334960
C113	C	-0.301815	-1.532097	-0.867686
C114	C	0.198185	-1.032097	-0.367686
C115	C	-0.245372	-1.540522	-0.834970
C116	C	0.254628	-1.040522	-0.334970
C117	C	-0.245394	-1.540518	-0.769536
C118	C	0.254606	-1.040518	-0.269536
C119	C	-0.301862	-1.532087	-0.736817
C120	C	0.198138	-1.032087	-0.236817
C121	C	-0.261712	-1.599940	-0.971372
C122	C	0.238288	-1.099940	-0.471372
C123	C	-0.261684	-1.599931	-1.036809
C124	C	0.238316	-1.099931	-0.536809
C125	C	-0.341816	-1.464251	-1.036765
C126	C	0.158184	-0.964251	-0.536765
C127	C	-0.341839	-1.464255	-0.971329
C128	C	0.158161	-0.964255	-0.471329
C129	C	-0.301788	-1.532105	-0.938637
C130	C	0.198212	-1.032105	-0.438637
C131	C	-0.301909	-1.531930	-0.139144
C132	C	0.198091	-1.031930	0.360856
C133	C	-0.301738	-1.532098	-0.069503
C134	C	0.198262	-1.032098	0.430497
H135	H	-0.405840	-0.940237	-0.315869
H136	H	0.094160	-0.440237	0.184131
H137	H	-0.229240	-1.655171	-0.541116
H138	H	0.270760	-1.155171	-0.041116
C139	C	-0.420412	-1.514435	-0.733535
C140	C	0.079588	-1.014435	-0.233535
N141	N	-0.467198	-1.507486	-0.706427
N142	N	0.032802	-1.007486	-0.206427
H143	H	-0.374563	-1.409004	-0.659750
H144	H	0.125437	-0.909004	-0.159750
C145	C	-0.268081	-0.930509	-0.187523
C146	C	0.231919	-0.430509	0.312477
N147	N	-0.279244	-0.899833	-0.137648
N148	N	0.220756	-0.399833	0.362352
H149	H	-0.318567	-0.941768	-0.405040
H150	H	0.181433	-0.441768	0.094960
H151	H	-0.229097	-1.655182	-0.944753
H152	H	0.270903	-1.155182	-0.444753
H153	H	-0.204183	-0.941954	-0.265156
H154	H	0.295817	-0.441954	0.234844
H155	H	-0.404234	-1.516829	-0.861592
H156	H	0.095766	-1.016829	-0.361592
H157	H	-0.199396	-1.547375	-0.861614
H158	H	0.300604	-1.047375	-0.361614
H159	H	-0.374423	-1.409011	-1.063387
H160	H	0.125577	-0.909011	-0.563387
H161	H	-0.404273	-1.122483	-0.319899
H162	H	0.095727	-0.622483	0.180101
C163	C	-0.733014	-1.331375	-0.312177
C164	C	-0.233014	-0.831375	0.187823
N165	N	-0.705947	-1.252210	-0.316199
N166	N	-0.205947	-0.752210	0.183801
H167	H	-1.062774	-1.655259	-0.229377
H168	H	-0.562774	-1.155259	0.270623
C169	C	-0.217749	-1.674562	-0.669181
C170	C	0.282251	-1.174562	-0.169181
N171	N	-0.184552	-1.730783	-0.696305
N172	N	0.315448	-1.230783	-0.196305
C173	C	-0.668485	-1.674372	-0.217857
C174	C	-0.168485	-1.174372	0.282143
N175	N	-0.695582	-1.730579	-0.184689
N176	N	-0.195582	-1.230579	0.315311
C177	C	-0.531077	-1.674272	-0.217823
C178	C	-0.031077	-1.174272	0.282177
N179	N	-0.503966	-1.730440	-0.184638
N180	N	-0.003966	-1.230440	0.315362
H181	H	-0.374603	-1.408983	-0.541037
H182	H	0.125397	-0.908983	-0.041037
H183	H	-0.264297	-1.123200	-0.204403
H184	H	0.235703	-0.623200	0.295597
H185	H	-0.236461	-0.940218	-0.382830
H186	H	0.263539	-0.440218	0.117170
C187	C	-0.668536	-1.389492	-0.385989
C188	C	-0.168536	-0.889492	0.114011
N189	N	-0.695656	-1.333306	-0.419157
N190	N	-0.195656	-0.833306	0.080843
C191	C	-0.183308	-1.549770	-0.733552
C192	C	0.316692	-1.049770	-0.233552
N193	N	-0.136543	-1.556732	-0.706448
N194	N	0.363457	-1.056732	-0.206448
C195	C	-0.187516	-1.135460	-0.268810
C196	C	0.312484	-0.635460	0.231190
N197	N	-0.137864	-1.166832	-0.280288
N198	N	0.362136	-0.666832	0.219712
H199	H	-0.229051	-1.655174	-1.063460
H200	H	0.270949	-1.155174	-0.563460
H201	H	-1.062821	-1.409135	-0.374626
H202	H	-0.562821	-0.909135	0.125374
H203	H	-0.944109	-1.409054	-0.374603
H204	H	-0.444109	-0.909054	0.125397
H205	H	-0.384235	-1.124312	-0.237300
H206	H	0.115765	-0.624312	0.262700
H207	H	-0.540470	-1.408803	-0.374539
H208	H	-0.040470	-0.908803	0.125461
C209	C	-0.218581	-1.132167	-0.387375
C210	C	0.281419	-0.632167	0.112625
N211	N	-0.169329	-1.161304	-0.402161
N212	N	0.330671	-0.661304	0.097839
H213	H	-0.317765	-1.123180	-0.404993
H214	H	0.182235	-0.623180	0.095007
C215	C	-0.385750	-0.931463	-0.217537
C216	C	0.114250	-0.431463	0.282463
N217	N	-0.399269	-0.901790	-0.168033
N218	N	0.100731	-0.401790	0.331967
H219	H	-0.374471	-1.409017	-0.944677
H220	H	0.125529	-0.909017	-0.444677
C221	C	-0.732821	-1.732568	-0.291673
C222	C	-0.232821	-1.232568	0.208327
N223	N	-0.705677	-1.811693	-0.287619
N224	N	-0.205677	-1.311693	0.212381
H225	H	-0.860898	-1.705354	-0.293098
H226	H	-0.360898	-1.205354	0.206902
C227	C	-0.934713	-1.674560	-0.217911
C228	C	-0.434713	-1.174560	0.282089
N229	N	-0.907599	-1.730755	-0.184744
N230	N	-0.407599	-1.230755	0.315256
H231	H	-0.861056	-1.358757	-0.310814
H232	H	-0.361056	-0.858757	0.189186
