data_functionalizedCrystal
_audit_creation_method	'MofGen! by Chris Wilmer'
_symmetry_space_group_name_H-M	'P1'
_symmetry_Int_Tables_number	1
_symmetry_cell_setting	triclinic
loop_
_symmetry_equiv_pos_as_xyz
  x,y,z
_cell_length_a	17.038272
_cell_length_b	16.109301
_cell_length_c	14.586319
_cell_angle_alpha	90.000787
_cell_angle_beta	89.995924
_cell_angle_gamma	92.713482
loop_
_atom_site_label
_atom_site_type_symbol
_atom_site_fract_x
_atom_site_fract_y
_atom_site_fract_z
O1	O	0.100495	-1.110268	-0.076183
O2	O	0.113001	-0.869094	-0.076198
O3	O	-0.007067	-0.988248	-0.076183
O4	O	0.220564	-0.991114	-0.076198
O5	O	-0.007069	-0.988239	0.076298
O6	O	0.113000	-0.869085	0.076283
O7	O	0.100493	-1.110259	0.076298
Cu8	Cu	0.106746	-0.989671	0.090213
Cu9	Cu	0.106748	-0.989682	-0.090113
O10	O	0.220562	-0.991105	0.076283
C11	C	0.112494	-0.838079	0.000041
C12	C	0.110975	-0.745676	0.000035
C13	C	-0.036196	-0.985636	0.000057
C14	C	-0.122989	-0.977857	0.000056
N15	N	0.106744	-0.989670	0.217045
C16	C	-0.173104	-1.049277	0.000062
C17	C	-0.254654	-1.041963	0.000052
C18	C	-0.286089	-0.963228	0.000044
C19	C	-0.235967	-0.891802	0.000036
C20	C	-0.154418	-0.899116	0.000039
C21	C	-0.531846	-0.937385	0.000030
C22	C	-0.613402	-0.930076	0.000031
C23	C	-0.632083	-1.080238	0.000045
C24	C	-0.550532	-1.087546	0.000053
C25	C	-0.500418	-1.016120	0.000040
C26	C	-0.369446	-0.955749	0.000038
C27	C	-0.417062	-1.023599	0.000040
C28	C	0.249691	-0.993717	0.000041
C29	C	0.336484	-1.001496	0.000036
C30	C	0.101001	-1.141274	0.000057
C31	C	0.102519	-1.233677	0.000057
C32	C	0.178690	-0.528212	0.000042
C33	C	0.177257	-0.441390	0.000048
C34	C	0.034799	-0.451147	0.000053
C35	C	0.036233	-0.537968	0.000054
C36	C	0.108181	-0.576498	0.000043
C37	C	0.105314	-0.402855	0.000049
C38	C	0.103759	-0.308719	0.000055
C39	C	0.109736	-0.670640	0.000039
N40	N	0.106744	-0.989689	-0.216945
C41	C	0.053596	-1.042451	0.452058
C42	C	0.053594	-1.042453	0.548039
C43	C	0.159895	-0.936902	0.548036
C44	C	0.159893	-0.936896	0.452056
C45	C	0.106744	-0.989675	0.404070
C46	C	0.106744	-0.989684	0.596030
C47	C	0.106743	-0.989686	0.700098
C48	C	0.106744	-0.989672	0.299996
H49	H	-0.147517	-1.113392	0.000074
H50	H	0.203173	-0.893916	0.412982
N51	N	-0.003727	-1.099372	0.400299
H52	H	-0.037397	-1.132804	0.445267
H53	H	-0.038301	-1.065098	0.360483
N54	N	0.217218	-0.879979	0.599792
H55	H	0.209157	-0.887991	0.667877
H56	H	0.272685	-0.893503	0.583007
H57	H	-0.023778	-0.419765	0.000067
H58	H	-0.295455	-1.100122	0.000059
N59	N	-0.039819	-0.590055	0.000066
H60	H	-0.085615	-0.552474	0.000067
H61	H	-0.042327	-0.626295	-0.056457
N62	N	0.256291	-0.569763	0.000042
H63	H	0.260058	-0.605568	0.056566
H64	H	0.260021	-0.605522	-0.056521
N65	N	-0.516629	-1.172468	0.000067
H66	H	-0.560752	-1.216604	0.000069
H67	H	-0.483195	-1.178779	-0.056457
H68	H	-0.638991	-0.865956	0.000039
H69	H	0.010315	-1.085426	0.587108
H70	H	-0.491053	-0.879224	0.000020
N71	N	-0.686133	-1.157272	0.000060
H72	H	-0.742564	-1.140695	0.000058
H73	H	-0.675954	-1.191341	-0.056463
N74	N	-0.269866	-0.806878	0.000022
H75	H	-0.329132	-0.813080	0.000024
H76	H	-0.251534	-0.775367	0.056546
H77	H	-0.113615	-0.840958	0.000035
N78	N	-0.383164	-1.108520	0.000056
H79	H	-0.349738	-1.114909	-0.056464
H80	H	-0.349790	-1.114830	0.056623
H81	H	-0.395049	-0.891642	0.000034
H82	H	0.234672	-0.402079	0.000048
