data_functionalizedCrystal
_audit_creation_method	'MofGen! by Chris Wilmer'
_symmetry_space_group_name_H-M	'P1'
_symmetry_Int_Tables_number	1
_symmetry_cell_setting	triclinic
loop_
_symmetry_equiv_pos_as_xyz
  x,y,z
_cell_length_a	17.640112
_cell_length_b	12.645330
_cell_length_c	17.639309
_cell_angle_alpha	78.760269
_cell_angle_beta	114.276544
_cell_angle_gamma	101.241872
loop_
_atom_site_label
_atom_site_type_symbol
_atom_site_fract_x
_atom_site_fract_y
_atom_site_fract_z
Zn1	Zn	1.165548	-0.048261	-0.211680
Zn2	Zn	1.193317	-0.255381	-0.073902
Zn3	Zn	1.055608	-0.107968	-0.101705
Zn4	Zn	1.027740	-0.255351	-0.239466
O5	O	1.110553	-0.166740	-0.156688
O6	O	1.284537	-0.050761	-0.170139
O7	O	1.198334	-0.260826	0.037724
O8	O	1.070233	0.048312	-0.116300
O9	O	1.304939	-0.202930	-0.068914
O10	O	1.151005	0.092179	-0.197098
O11	O	1.097160	-0.152523	0.017297
O12	O	0.936606	-0.152494	-0.143243
O13	O	1.022736	-0.202880	-0.351094
O14	O	0.916131	-0.260776	-0.244456
O15	O	1.123983	-0.050732	-0.330679
O16	O	1.171312	-0.403737	-0.095858
O17	O	1.049663	-0.403715	-0.217497
C18	C	0.896471	-0.213112	-0.199882
C19	C	0.804882	-0.232971	-0.218380
C20	C	0.556760	-0.015853	-0.016166
C21	C	0.470696	-0.034532	-0.033559
C22	C	0.449467	-0.147512	-0.138770
C23	C	0.535530	-0.128837	-0.121389
C24	C	0.589171	-0.063008	-0.060085
C25	C	0.567941	-0.175992	-0.165308
C26	C	0.653998	-0.157324	-0.147925
C27	C	0.707644	-0.091500	-0.086622
C28	C	0.675227	-0.044339	-0.042702
C29	C	0.514300	-0.241828	-0.226607
C30	C	0.546711	-0.288983	-0.270526
C31	C	0.632768	-0.270308	-0.253147
C32	C	0.686414	-0.204484	-0.191845
C33	C	0.665185	-0.317469	-0.297067
C34	C	0.751241	-0.298800	-0.279684
C35	C	0.772471	-0.185816	-0.174461
C36	C	1.110495	-0.442186	-0.156689
C37	C	1.110541	-0.560000	-0.156701
C38	C	1.034234	-0.727495	-0.233368
C39	C	1.033951	-0.605050	-0.233228
C40	C	1.104592	-0.628477	-0.074598
C41	C	1.104126	-0.751076	-0.075064
C42	C	1.193326	-0.703357	-0.161356
C43	C	1.192408	-0.580455	-0.163363
C44	C	1.325471	-0.120189	-0.113326
C45	C	1.417057	-0.100351	-0.094847
C46	C	1.067153	-0.120142	-0.371622
C47	C	1.048659	-0.100285	-0.463214
C48	C	1.110630	0.109789	-0.156701
C49	C	1.110663	0.227630	-0.156707
C50	C	0.969920	-0.015916	-0.602945
C51	C	0.987304	-0.034581	-0.516879
C52	C	1.092650	-0.147355	-0.495602
C53	C	1.075271	-0.128704	-0.581669
C54	C	1.013906	-0.062982	-0.635334
C55	C	1.119258	-0.175770	-0.614057
C56	C	1.101883	-0.157115	-0.700116
C57	C	1.040522	-0.091394	-0.753786
C58	C	0.996531	-0.044328	-0.721392
C59	C	1.180627	-0.241485	-0.560390
C60	C	1.224613	-0.288552	-0.592779
C61	C	1.207235	-0.269903	-0.678840
C62	C	1.145874	-0.204182	-0.732510
C63	C	1.251226	-0.316970	-0.711233
C64	C	1.233851	-0.298316	-0.797292
C65	C	1.128499	-0.185528	-0.818568
C66	C	1.153832	-0.213070	0.057419
C67	C	1.172486	-0.232594	0.149043
H68	H	0.718903	0.009284	0.007205
H69	H	1.197213	-0.533635	-0.223700
H70	H	1.026380	-0.076202	-0.823859
O71	O	0.439316	0.011225	0.009230
C72	C	0.476888	-0.025052	0.095633
H73	H	0.539728	-0.052624	0.110026
H74	H	0.487258	0.044179	0.133072
H75	H	0.434061	-0.096043	0.113668
O76	O	0.910210	0.047825	-0.655017
C77	C	0.832318	0.002296	-0.650583
H78	H	0.843208	-0.052369	-0.588439
H79	H	0.795982	0.070172	-0.655109
H80	H	0.794778	-0.047728	-0.704612
O81	O	1.068790	-0.121786	-0.870641
C82	C	0.990897	-0.167315	-0.866206
H83	H	1.001787	-0.221981	-0.804062
H84	H	0.954562	-0.099440	-0.870732
H85	H	0.953358	-0.217340	-0.920235
O86	O	1.284168	-0.352403	-0.540535
C87	C	1.290089	-0.358752	-0.457628
H88	H	1.228886	-0.340341	-0.458707
H89	H	1.302254	-0.444047	-0.423788
H90	H	1.343915	-0.297007	-0.423349
O91	O	1.260989	-0.737871	-0.094561
C92	C	1.263475	-0.848369	-0.095482
H93	H	1.227265	-0.869810	-0.162033
H94	H	1.331412	-0.863528	-0.073056
H95	H	1.233762	-0.901119	-0.052102
H96	H	0.946559	0.009186	-0.765090
O97	O	1.310724	-0.380951	-0.659084
C98	C	1.273848	-0.470357	-0.618744
H99	H	1.203713	-0.485342	-0.657772
H100	H	1.303824	-0.545707	-0.611741
H101	H	1.284187	-0.452318	-0.554100
H102	H	0.951484	0.003756	-0.490512
O103	O	0.397414	-0.211609	-0.198229
C104	C	0.422106	-0.316598	-0.175863
H105	H	0.459035	-0.330983	-0.105249
H106	H	0.364090	-0.379735	-0.194338
H107	H	0.463159	-0.323972	-0.209913
H108	H	1.269671	-0.336640	-0.823662
H109	H	1.045419	-0.615678	-0.068142
H110	H	1.142616	-0.200862	-0.451897
H111	H	0.816146	-0.132192	-0.124554
O112	O	0.430688	-0.259787	-0.243571
C113	C	0.397639	-0.159854	-0.270661
H114	H	0.439975	-0.097532	-0.296623
H115	H	0.332102	-0.171460	-0.321794
H116	H	0.394116	-0.129761	-0.215473
H117	H	0.503026	-0.342585	-0.320437
H118	H	1.250943	-0.548337	-0.110195
O119	O	0.608882	0.048245	0.043273
C120	C	0.649204	0.137597	0.006331
H121	H	0.610181	0.152465	-0.063815
H122	H	0.656175	0.213014	0.036223
H123	H	0.713858	0.119566	0.016711
H124	H	0.777717	-0.076304	-0.072468
H125	H	1.194773	-0.256669	-0.490316
H126	H	1.044221	-0.797649	-0.069082
H127	H	0.621499	-0.371076	-0.346974
O128	O	0.961119	-0.784800	-0.231597
C129	C	0.917513	-0.834441	-0.305414
H130	H	0.963631	-0.843686	-0.333084
H131	H	0.884982	-0.918004	-0.290006
H132	H	0.868664	-0.781775	-0.352841
O133	O	1.204009	-0.718646	-0.230370
C134	C	1.280048	-0.761316	-0.205380
H135	H	1.298457	-0.803419	-0.138159
H136	H	1.271858	-0.822561	-0.248659
H137	H	1.331316	-0.692475	-0.209116
O138	O	0.782587	-0.344643	-0.322452
C139	C	0.716792	-0.406767	-0.380275
H140	H	0.654862	-0.376031	-0.395576
H141	H	0.728568	-0.398727	-0.440159
H142	H	0.713744	-0.495774	-0.351848
H143	H	1.035639	-0.557777	-0.294657
H144	H	1.035744	-0.739771	-0.295035
H145	H	1.158330	-0.781785	-0.016943
O146	O	0.960345	-0.590792	-0.231311
C147	C	0.893031	-0.627315	-0.302554
H148	H	0.913598	-0.688556	-0.327535
H149	H	0.837974	-0.667711	-0.284660
H150	H	0.873089	-0.555213	-0.353073
O151	O	1.169805	-0.594926	-0.005426
C152	C	1.162510	-0.658066	0.067104
H153	H	1.122604	-0.739071	0.050128
H154	H	1.227514	-0.673391	0.115598
H155	H	1.131515	-0.612793	0.094233
