data_functionalizedCrystal
_audit_creation_method	'MofGen! by Chris Wilmer'
_symmetry_space_group_name_H-M	'P1'
_symmetry_Int_Tables_number	1
_symmetry_cell_setting	triclinic
loop_
_symmetry_equiv_pos_as_xyz
  x,y,z
_cell_length_a	17.699077
_cell_length_b	15.625429
_cell_length_c	16.176319
_cell_angle_alpha	108.080593
_cell_angle_beta	90.005422
_cell_angle_gamma	83.780415
loop_
_atom_site_label
_atom_site_type_symbol
_atom_site_fract_x
_atom_site_fract_y
_atom_site_fract_z
O1	O	1.004376	0.113976	0.102898
O2	O	0.784036	0.128814	0.107349
O3	O	0.900092	-0.009854	0.065779
O4	O	0.888320	0.252644	0.144468
O5	O	0.900078	-0.009854	-0.071715
O6	O	0.784022	0.128814	-0.030144
O7	O	1.004363	0.113976	-0.034596
Cu8	Cu	0.894191	0.121395	-0.044924
Cu9	Cu	0.894207	0.121395	0.117678
O10	O	0.888307	0.252644	0.006975
C11	C	0.755830	0.128283	0.038444
C12	C	0.671808	0.126691	0.037968
C13	C	0.899551	-0.043440	-0.013034
C14	C	0.897953	-0.143516	-0.043029
C15	C	0.632331	0.125941	-0.037205
C16	C	0.553385	0.124430	-0.037659
C17	C	0.513916	0.123676	0.037063
C18	C	0.553398	0.124424	0.112242
C19	C	0.632344	0.125928	0.112693
C20	C	0.235019	0.118357	0.110425
C21	C	0.156068	0.116856	0.109969
C22	C	0.156060	0.116859	-0.039927
C23	C	0.235006	0.118363	-0.039476
C24	C	0.274482	0.119106	0.035700
C25	C	0.360085	0.120742	0.036191
C26	C	0.428314	0.122047	0.036576
C27	C	0.892712	-0.472653	0.233030
C28	C	0.891207	-0.566689	0.204820
C29	C	0.891192	-0.566675	0.054934
C30	C	0.892701	-0.472638	0.083132
C31	C	0.893460	-0.425634	0.172181
C32	C	0.893449	-0.425619	0.022282
C33	C	0.894954	-0.331590	0.050478
C34	C	0.895711	-0.284579	0.139523
C35	C	0.894965	-0.331604	0.200376
C36	C	0.892685	-0.472624	-0.066766
C37	C	0.893433	-0.425606	-0.127615
C38	C	0.894943	-0.331575	-0.099420
C39	C	0.895700	-0.284564	-0.010375
C40	C	0.895689	-0.284549	-0.160274
C41	C	0.897194	-0.190520	-0.132078
C42	C	0.897205	-0.190534	0.017820
C43	C	1.032568	0.114507	0.034311
C44	C	1.116590	0.116099	0.034793
C45	C	0.888847	0.286230	0.085790
C46	C	0.890445	0.386306	0.115790
N47	N	0.894185	0.121394	-0.159290
C48	C	0.940142	0.176004	-0.186180
C49	C	0.940150	0.176001	-0.272728
C50	C	0.894197	0.121391	-0.332383
C51	C	0.848238	0.066775	-0.305488
C52	C	0.848235	0.066774	-0.218943
C53	C	0.848252	0.066776	-0.654516
C54	C	0.848258	0.066783	-0.741065
C55	C	0.940168	0.176003	-0.708302
C56	C	0.940164	0.176002	-0.621756
C57	C	0.894209	0.121382	-0.594870
C58	C	0.894202	0.121385	-0.501025
C59	C	0.894200	0.121392	-0.426225
N60	N	0.894219	0.121389	0.232041
H61	H	0.664460	0.126562	-0.098051
H62	H	0.891452	-0.549188	-0.089720
H63	H	0.664485	0.126541	0.173907
Cl64	Cl	0.997926	0.244668	-0.546762
Cl65	Cl	0.890262	-0.625794	0.281327
H66	H	0.977558	0.220479	-0.137612
H67	H	0.521248	0.123804	-0.098877
H68	H	0.977574	0.220468	-0.294618
H69	H	0.810812	0.022305	-0.197051
H70	H	0.897830	-0.152262	0.090332
H71	H	0.810826	0.022306	-0.354067
H72	H	0.267137	0.118981	-0.100322
Cl73	Cl	0.893678	-0.413556	0.344979
Cl74	Cl	0.997943	0.244666	-0.742107
H75	H	0.896928	-0.208012	0.162479
Cl76	Cl	0.890232	-0.625773	-0.057008
H77	H	0.123909	0.116250	-0.101141
Cl78	Cl	0.284636	0.119293	0.204933
H79	H	0.810835	0.022310	-0.789637
H80	H	0.521257	0.123804	0.173080
H81	H	0.123935	0.116242	0.170820
Cl82	Cl	0.895931	-0.272508	0.312325
H83	H	0.892812	-0.463889	-0.200119
Cl84	Cl	0.894720	-0.343649	-0.272215
H85	H	0.810833	0.022301	-0.632637
H86	H	0.897787	-0.152234	-0.181627
