data_functionalizedCrystal
_audit_creation_method	'MofGen! by Chris Wilmer'
_symmetry_space_group_name_H-M	'P1'
_symmetry_Int_Tables_number	1
_symmetry_cell_setting	triclinic
loop_
_symmetry_equiv_pos_as_xyz
  x,y,z
_cell_length_a	14.519731
_cell_length_b	14.519731
_cell_length_c	12.996460
_cell_angle_alpha	90.007128
_cell_angle_beta	90.006690
_cell_angle_gamma	83.688853
loop_
_atom_site_label
_atom_site_type_symbol
_atom_site_fract_x
_atom_site_fract_y
_atom_site_fract_z
O1	O	-1.223866	-0.120985	-0.085596
O2	O	-0.973866	0.129015	0.164404
O3	O	-0.723866	0.379015	0.414404
O4	O	-0.473866	0.629015	0.664404
O5	O	-0.955393	-0.135201	-0.085592
O6	O	-0.705393	0.114799	0.164408
O7	O	-0.455393	0.364799	0.414408
O8	O	-0.205393	0.614799	0.664408
O9	O	-1.096737	0.006143	-0.085585
O10	O	-0.846737	0.256143	0.164415
O11	O	-0.596737	0.506143	0.414415
O12	O	-0.346737	0.756143	0.664415
O13	O	-1.082521	-0.262330	-0.085603
O14	O	-0.832521	-0.012330	0.164397
O15	O	-0.582521	0.237670	0.414397
O16	O	-0.332521	0.487670	0.664397
O17	O	-1.096723	0.006151	0.085549
O18	O	-0.846723	0.256151	0.335549
O19	O	-0.596723	0.506151	0.585549
O20	O	-0.346723	0.756151	0.835549
O21	O	-0.955378	-0.135193	0.085542
O22	O	-0.705378	0.114807	0.335542
O23	O	-0.455378	0.364807	0.585542
O24	O	-0.205378	0.614807	0.835542
O25	O	-1.223851	-0.120977	0.085538
O26	O	-0.973851	0.129023	0.335538
O27	O	-0.723851	0.379023	0.585538
O28	O	-0.473851	0.629023	0.835538
Cu29	Cu	-1.089613	-0.128085	0.101166
Cu30	Cu	-0.839613	0.121915	0.351166
Cu31	Cu	-0.589613	0.371915	0.601166
Cu32	Cu	-0.339613	0.621915	0.851166
Cu33	Cu	-1.089631	-0.128094	-0.101220
Cu34	Cu	-0.839631	0.121906	0.148780
Cu35	Cu	-0.589631	0.371906	0.398780
Cu36	Cu	-0.339631	0.621906	0.648780
O37	O	-1.082507	-0.262322	0.085531
O38	O	-0.832507	-0.012322	0.335531
O39	O	-0.582507	0.237678	0.585531
O40	O	-0.332507	0.487678	0.835531
C41	C	-0.921026	-0.134531	-0.000025
C42	C	-0.671026	0.115469	0.249975
C43	C	-0.421026	0.365469	0.499975
C44	C	-0.171026	0.615469	0.749975
C45	C	-0.818645	-0.132535	-0.000023
C46	C	-0.568645	0.117465	0.249977
C47	C	-0.318645	0.367465	0.499977
C48	C	-0.068645	0.617465	0.749977
C49	C	-0.735501	-0.130913	-0.000026
C50	C	-0.485501	0.119087	0.249974
C51	C	-0.235501	0.369087	0.499974
C52	C	0.014499	0.619087	0.749974
C53	C	-0.631192	-0.128887	-0.000024
C54	C	-0.381192	0.121113	0.249976
C55	C	-0.131192	0.371113	0.499976
C56	C	0.118808	0.621113	0.749976
C57	C	-0.548053	-0.127278	-0.000022
C58	C	-0.298053	0.122722	0.249978
C59	C	-0.048053	0.372722	0.499978
C60	C	0.201947	0.622722	0.749978
C61	C	-0.443738	-0.125252	-0.000022
C62	C	-0.193738	0.124748	0.249978
C63	C	0.056262	0.374748	0.499978
C64	C	0.306262	0.624748	0.749978
C65	C	-1.096064	0.040507	-0.000018
C66	C	-0.846064	0.290507	0.249982
C67	C	-0.596064	0.540507	0.499982
C68	C	-0.346064	0.790507	0.749982
C69	C	-1.094068	0.142887	-0.000017
C70	C	-0.844068	0.392887	0.249983
C71	C	-0.594068	0.642887	0.499983
C72	C	-0.344068	0.892887	0.749983
C73	C	-0.258218	-0.121648	-0.000027
C74	C	-0.008218	0.128352	0.249973
C75	C	0.241782	0.378352	0.499973
C76	C	0.491782	0.628352	0.749973
C77	C	-0.360598	-0.123644	-0.000020
C78	C	-0.110598	0.126356	0.249980
C79	C	0.139402	0.376356	0.499980
C80	C	0.389402	0.626356	0.749980
C81	C	-1.083180	-0.296685	-0.000039
C82	C	-0.833180	-0.046685	0.249961
C83	C	-0.583180	0.203315	0.499961
C84	C	-0.333180	0.453315	0.749961
C85	C	-1.085176	-0.399066	-0.000046
C86	C	-0.835176	-0.149066	0.249954
C87	C	-0.585176	0.100934	0.499954
C88	C	-0.335176	0.350934	0.749954
C89	C	-1.092446	0.226031	-0.000019
C90	C	-0.842446	0.476031	0.249981
C91	C	-0.592446	0.726031	0.499981
C92	C	-0.342446	0.976031	0.749981
C93	C	-1.090419	0.330340	-0.000027
C94	C	-0.840419	0.580340	0.249973
C95	C	-0.590419	0.830340	0.499973
C96	C	-0.340419	1.080340	0.749973
C97	C	-1.088811	0.413479	-0.000034
C98	C	-0.838811	0.663479	0.249966
C99	C	-0.588811	0.913479	0.499966
C100	C	-0.338811	1.163479	0.749966
C101	C	-1.086785	0.517795	-0.000040
C102	C	-0.836785	0.767795	0.249960
C103	C	-0.586785	1.017795	0.499960
C104	C	-0.336785	1.267795	0.749960
N105	N	-1.089608	-0.128078	0.243513
N106	N	-0.839608	0.121922	0.493513
N107	N	-0.589608	0.371922	0.743513
N108	N	-0.339608	0.621922	0.993513
N109	N	-1.089644	-0.128094	-0.243567
N110	N	-0.839644	0.121906	0.006433
N111	N	-0.589644	0.371906	0.256433
N112	N	-0.339644	0.621906	0.506433
C113	C	-1.089629	-0.128095	0.663327
C114	C	-0.839629	0.121905	0.913327
C115	C	-0.589629	0.371905	1.163327
C116	C	-0.339629	0.621905	1.413327
C117	C	-1.089621	-0.128093	0.546522
C118	C	-0.839621	0.121907	0.796522
C119	C	-0.589621	0.371907	1.046522
C120	C	-0.339621	0.621907	1.296522
C121	C	-1.089619	-0.128087	0.453424
C122	C	-0.839619	0.121913	0.703424
C123	C	-0.589619	0.371913	0.953424
C124	C	-0.339619	0.621913	1.203424
C125	C	-1.089609	-0.128084	0.336611
C126	C	-0.839609	0.121916	0.586611
C127	C	-0.589609	0.371916	0.836611
C128	C	-0.339609	0.621916	1.086611
