data_functionalizedCrystal
_audit_creation_method	'MofGen! by Chris Wilmer'
_symmetry_space_group_name_H-M	'P1'
_symmetry_Int_Tables_number	1
_symmetry_cell_setting	triclinic
loop_
_symmetry_equiv_pos_as_xyz
  x,y,z
_cell_length_a	16.109301
_cell_length_b	16.109301
_cell_length_c	14.586319
_cell_angle_alpha	90.005214
_cell_angle_beta	89.996501
_cell_angle_gamma	96.538519
loop_
_atom_site_label
_atom_site_type_symbol
_atom_site_fract_x
_atom_site_fract_y
_atom_site_fract_z
O1	O	1.103131	-0.106866	-0.076243
O2	O	1.436464	0.226467	0.257090
O3	O	1.769797	0.559801	0.590424
O4	O	0.861069	-0.120165	-0.076245
O5	O	1.194402	0.213168	0.257088
O6	O	1.527735	0.546501	0.590421
O7	O	0.988749	0.007515	-0.076235
O8	O	1.322083	0.340849	0.257099
O9	O	1.655416	0.674182	0.590432
O10	O	0.975450	-0.234547	-0.076254
O11	O	1.308783	0.098787	0.257080
O12	O	1.642117	0.432120	0.590413
O13	O	0.988741	0.007517	0.076246
O14	O	1.322074	0.340850	0.409579
O15	O	1.655407	0.674184	0.742913
O16	O	0.861060	-0.120164	0.076236
O17	O	1.194393	0.213170	0.409569
O18	O	1.527727	0.546503	0.742902
O19	O	1.103122	-0.106864	0.076238
O20	O	1.436455	0.226469	0.409571
O21	O	1.769789	0.559802	0.742904
Cu22	Cu	0.982090	-0.113514	0.090159
Cu23	Cu	1.315423	0.219820	0.423493
Cu24	Cu	1.648757	0.553153	0.756826
Cu25	Cu	0.982101	-0.113516	-0.090167
Cu26	Cu	1.315434	0.219817	0.243167
Cu27	Cu	1.648767	0.553151	0.576500
O28	O	0.975441	-0.234545	0.076227
O29	O	1.308775	0.098788	0.409561
O30	O	1.642108	0.432122	0.742894
C31	C	0.830090	-0.119626	-0.000005
C32	C	1.163423	0.213708	0.333328
C33	C	1.496756	0.547041	0.666662
C34	C	0.737794	-0.118011	-0.000006
C35	C	1.071128	0.215323	0.333328
C36	C	1.404461	0.548656	0.666661
C37	C	1.134101	-0.107404	-0.000004
C38	C	1.467435	0.225929	0.333329
C39	C	1.800768	0.559263	0.666662
C40	C	1.226397	-0.109019	-0.000010
C41	C	1.559730	0.224314	0.333323
C42	C	1.893063	0.557648	0.666657
C43	C	0.988206	0.038491	0.000006
C44	C	1.321540	0.371824	0.333339
C45	C	1.654873	0.705158	0.666673
C46	C	0.986591	0.130786	0.000007
C47	C	1.319925	0.464120	0.333341
C48	C	1.653258	0.797453	0.666674
C49	C	0.975984	-0.265521	-0.000016
C50	C	1.309318	0.067813	0.333318
C51	C	1.642651	0.401146	0.666651
C52	C	0.977600	-0.357816	-0.000023
C53	C	1.310933	-0.024483	0.333310
C54	C	1.644266	0.308851	0.666644
C55	C	1.448669	-0.037011	0.000000
C56	C	1.782002	0.296322	0.333334
C57	C	2.115336	0.629655	0.666667
C58	C	1.535389	-0.038535	0.000003
C59	C	1.868723	0.294798	0.333337
C60	C	2.202056	0.628131	0.666670
C61	C	1.515515	-0.190024	-0.000013
C62	C	1.848848	0.143309	0.333320
C63	C	2.182182	0.476643	0.666654
C64	C	1.428796	-0.188499	-0.000010
C65	C	1.762130	0.144834	0.333324
C66	C	2.095463	0.478168	0.666657
C67	C	1.395376	-0.111990	-0.000008
C68	C	1.728709	0.221343	0.333326
C69	C	2.062042	0.554676	0.666659
C70	C	1.568815	-0.115039	-0.000008
C71	C	1.902148	0.218294	0.333325
C72	C	2.235482	0.551627	0.666659
C73	C	1.662841	-0.116692	-0.000005
C74	C	1.996174	0.216641	0.333329
C75	C	2.329508	0.549974	0.666662
C76	C	1.301344	-0.110337	-0.000009
C77	C	1.634677	0.222996	0.333324
C78	C	1.968011	0.556330	0.666657
N79	N	0.982089	-0.113512	0.216991
N80	N	1.315422	0.219822	0.550324
N81	N	1.648755	0.553155	0.883658
C82	C	1.058599	0.353059	-0.000006
C83	C	1.391932	0.686392	0.333327
C84	C	1.725266	1.019725	0.666660
C85	C	1.057075	0.439779	-0.000014
C86	C	1.390408	0.773112	0.333319
C87	C	1.723742	1.106446	0.666653
C88	C	0.905586	0.419905	-0.000012
C89	C	1.238919	0.753238	0.333322
C90	C	1.572253	1.086571	0.666655
C91	C	0.907111	0.333186	-0.000011
C92	C	1.240444	0.666519	0.333323
C93	C	1.573778	0.999853	0.666656
C94	C	0.983620	0.299766	-0.000003
C95	C	1.316953	0.633099	0.333330
C96	C	1.650287	0.966432	0.666663
C97	C	0.980571	0.473205	-0.000012
C98	C	1.313904	0.806538	0.333321
C99	C	1.647238	1.139871	0.666655
C100	C	0.978918	0.567231	-0.000020
C101	C	1.312251	0.900564	0.333313
C102	C	1.645585	1.233897	0.666646
C103	C	0.985273	0.205734	0.000003
C104	C	1.318607	0.539067	0.333336
C105	C	1.651940	0.872400	0.666670
N106	N	0.982109	-0.113511	-0.216999
N107	N	1.315442	0.219822	0.116335
N108	N	1.648775	0.553155	0.449668
C109	C	1.038645	-0.056994	0.452002
C110	C	1.371978	0.276340	0.785336
C111	C	1.705311	0.609673	1.118669
C112	C	1.038647	-0.056992	0.547983
C113	C	1.371980	0.276342	0.881317
C114	C	1.705314	0.609675	1.214650
C115	C	0.925547	-0.170032	0.547984
C116	C	1.258880	0.163301	0.881317
C117	C	1.592213	0.496634	1.214650
C118	C	0.925541	-0.170030	0.452004
C119	C	1.258874	0.163304	0.785337
C120	C	1.592208	0.496637	1.118671
C121	C	0.982095	-0.113511	0.404016
C122	C	1.315428	0.219822	0.737349
C123	C	1.648761	0.553155	1.070683
C124	C	0.982103	-0.113512	0.595977
C125	C	1.315436	0.219822	0.929310
C126	C	1.648769	0.553155	1.262643
C127	C	0.982105	-0.113510	0.700044
C128	C	1.315438	0.219823	1.033377
C129	C	1.648772	0.553157	1.366710
C130	C	0.982092	-0.113512	0.299942
C131	C	1.315425	0.219822	0.633275
C132	C	1.648758	0.553155	0.966609
H133	H	1.421461	0.025287	0.000004
H134	H	1.754795	0.358620	0.333337
H135	H	2.088128	0.691954	0.666670
H136	H	1.542737	-0.252315	-0.000017
H137	H	1.876070	0.081018	0.333317
H138	H	2.209403	0.414352	0.666650
O139	O	0.834327	0.281326	0.000114
O140	O	1.167660	0.614659	0.333447
O141	O	1.500994	0.947993	0.666781
C142	C	0.830665	0.230588	0.079095
C143	C	1.163999	0.563922	0.412428
C144	C	1.497332	0.897255	0.745761
H145	H	0.896656	0.226231	0.105424
H146	H	1.229989	0.559564	0.438758
H147	H	1.563322	0.892898	0.772091
H148	H	0.799687	0.165399	0.061331
H149	H	1.133020	0.498732	0.394664
H150	H	1.466353	0.832066	0.727998
H151	H	0.792693	0.259105	0.134394
H152	H	1.126027	0.592438	0.467727
H153	H	1.459360	0.925772	0.801060
O154	O	1.587242	0.034245	-0.000116
O155	O	1.920575	0.367578	0.333217
O156	O	2.253908	0.700912	0.666551
C157	C	1.637988	0.037905	-0.079099
C158	C	1.971321	0.371238	0.254235
C159	C	2.304654	0.704571	0.587568
H160	H	1.642355	-0.028087	-0.105431
H161	H	1.975689	0.305246	0.227903
H162	H	2.309022	0.638580	0.561236
H163	H	1.703172	0.068892	-0.061336
H164	H	2.036506	0.402225	0.271997
H165	H	2.369839	0.735559	0.605331
H166	H	1.609472	0.075867	-0.134395
H167	H	1.942805	0.409201	0.198938
H168	H	2.276138	0.742534	0.532272
O169	O	1.129854	0.491633	0.000106
O170	O	1.463188	0.824966	0.333440
O171	O	1.796521	1.158300	0.666773
C172	C	1.133512	0.542387	0.079085
C173	C	1.466846	0.875720	0.412418
C174	C	1.800179	1.209053	0.745751
H175	H	1.067520	0.546755	0.105413
H176	H	1.400854	0.880088	0.438747
H177	H	1.734187	1.213421	0.772080
H178	H	1.164498	0.607570	0.061318
H179	H	1.497831	0.940904	0.394651
H180	H	1.831164	1.274237	0.727984
H181	H	1.171476	0.513877	0.134385
H182	H	1.504810	0.847211	0.467719
H183	H	1.838143	1.180544	0.801052
O184	O	0.831342	0.452510	0.000030
O185	O	1.164675	0.785843	0.333364
O186	O	1.498008	1.119176	0.666697
C187	C	0.846072	0.540478	0.000009
C188	C	1.179405	0.873811	0.333342
C189	C	1.512738	1.207145	0.666676
H190	H	0.910958	0.560864	0.028874
H191	H	1.244291	0.894198	0.362207
H192	H	1.577625	1.227531	0.695540
H193	H	0.797119	0.567092	0.044282
H194	H	1.130452	0.900425	0.377615
H195	H	1.463785	1.233759	0.710948
H196	H	0.842049	0.564612	-0.073143
H197	H	1.175382	0.897945	0.260190
H198	H	1.508715	1.231278	0.593524
O199	O	1.093604	-0.002009	0.405528
O200	O	1.426938	0.331325	0.738861
O201	O	1.760271	0.664658	1.072194
C202	C	1.143529	0.047862	0.468469
C203	C	1.476863	0.381195	0.801802
C204	C	1.810196	0.714529	1.135135
H205	H	1.109447	0.048806	0.536891
H206	H	1.442780	0.382140	0.870224
H207	H	1.776114	0.715473	1.203557
H208	H	1.156228	0.114257	0.440746
H209	H	1.489562	0.447591	0.774079
H210	H	1.822895	0.780924	1.107413
H211	H	1.205282	0.020851	0.478664
H212	H	1.538616	0.354184	0.811998
H213	H	1.871949	0.687517	1.145331
O214	O	0.870721	-0.224972	0.405285
O215	O	1.204054	0.108361	0.738618
O216	O	1.537388	0.441694	1.071951
C217	C	0.915229	-0.276287	0.349770
C218	C	1.248562	0.057046	0.683103
C219	C	1.581896	0.390379	1.016437
H220	H	0.980292	-0.243190	0.335389
H221	H	1.313625	0.090144	0.668722
H222	H	1.646959	0.423477	1.002056
H223	H	0.880522	-0.289428	0.282279
H224	H	1.213856	0.043905	0.615612
H225	H	1.547189	0.377239	0.948946
H226	H	0.920862	-0.337738	0.386749
H227	H	1.254195	-0.004405	0.720083
H228	H	1.587529	0.328929	1.053416
H229	H	1.084694	-0.010969	0.587051
H230	H	1.418027	0.322365	0.920385
H231	H	1.751361	0.655698	1.253718
H232	H	0.879503	-0.216049	0.587065
H233	H	1.212837	0.117284	0.920399
H234	H	1.546170	0.450617	1.253732
O235	O	1.377140	-0.261415	-0.000059
O236	O	1.710473	0.071918	0.333275
O237	O	2.043806	0.405251	0.666608
C238	C	1.425231	-0.329271	-0.000046
C239	C	1.758564	0.004062	0.333287
C240	C	2.091897	0.337396	0.666620
H241	H	1.489961	-0.308157	-0.028916
H242	H	1.823294	0.025176	0.304417
H243	H	2.156628	0.358510	0.637751
H244	H	1.393222	-0.381803	-0.044319
H245	H	1.726555	-0.048470	0.289014
H246	H	2.059889	0.284864	0.622348
H247	H	1.431396	-0.352723	0.073104
H248	H	1.764730	-0.019390	0.406437
H249	H	2.098063	0.313943	0.739770
O250	O	1.132989	0.320731	-0.000051
O251	O	1.466322	0.654064	0.333282
O252	O	1.799655	0.987398	0.666615
C253	C	1.198839	0.386369	-0.000036
C254	C	1.532173	0.719703	0.333298
C255	C	1.865506	1.053036	0.666631
H256	H	1.175544	0.445269	-0.028900
H257	H	1.508878	0.778603	0.304433
H258	H	1.842211	1.111936	0.637766
H259	H	1.252252	0.368261	-0.044311
H260	H	1.585586	0.701595	0.289022
H261	H	1.918919	1.034928	0.622355
H262	H	1.221970	0.398654	0.073114
H263	H	1.555303	0.731987	0.406448
H264	H	1.888637	1.065321	0.739781
