data_functionalizedCrystal
_audit_creation_method	'MofGen! by Chris Wilmer'
_symmetry_space_group_name_H-M	'P1'
_symmetry_Int_Tables_number	1
_symmetry_cell_setting	triclinic
loop_
_symmetry_equiv_pos_as_xyz
  x,y,z
_cell_length_a	16.959455
_cell_length_b	18.215405
_cell_length_c	16.959455
_cell_angle_alpha	90.016495
_cell_angle_beta	90.007639
_cell_angle_gamma	90.021832
loop_
_atom_site_label
_atom_site_type_symbol
_atom_site_fract_x
_atom_site_fract_y
_atom_site_fract_z
Zn1	Zn	1.208305	-0.293154	0.446890
Zn2	Zn	1.208232	-0.416195	0.314704
Zn3	Zn	1.076149	-0.293140	0.314728
Zn4	Zn	1.076087	-0.416177	0.446843
O5	O	1.142193	-0.354666	0.380791
O6	O	1.318906	-0.309489	0.429366
O7	O	1.190706	-0.399873	0.204097
O8	O	1.093736	-0.190158	0.332289
O9	O	1.318853	-0.399887	0.332249
O10	O	1.190831	-0.190168	0.429389
O11	O	1.093665	-0.309466	0.204114
O12	O	0.965530	-0.309448	0.332243
O13	O	1.093631	-0.399855	0.557460
O14	O	0.965485	-0.399842	0.429308
O15	O	1.190771	-0.309471	0.557495
O16	O	1.190646	-0.519177	0.332203
O17	O	1.093560	-0.519163	0.429285
C18	C	1.142110	-0.545873	0.380753
C19	C	1.142146	-0.627672	0.380764
C20	C	0.936827	-0.354642	0.380773
C21	C	0.848970	-0.354650	0.380784
C22	C	1.192818	-0.815848	0.330306
C23	C	1.192853	-0.892707	0.330325
C24	C	1.091670	-0.892733	0.431333
C25	C	1.091639	-0.815875	0.431318
C26	C	1.142212	-0.777435	0.380800
C27	C	1.142278	-0.931151	0.380834
C28	C	1.142316	-1.014485	0.380856
C29	C	1.142175	-0.694096	0.380779
C30	C	0.477494	-0.307560	0.330356
C31	C	0.477496	-0.401834	0.431272
C32	C	0.560042	-0.401823	0.431268
C33	C	0.601318	-0.354681	0.380805
C34	C	0.560048	-0.307549	0.330348
C35	C	0.601318	-0.448960	0.481719
C36	C	0.683869	-0.448951	0.481715
C37	C	0.725146	-0.401805	0.431256
C38	C	0.683871	-0.354671	0.380797
C39	C	0.725147	-0.307528	0.330335
C40	C	0.683874	-0.260390	0.279879
C41	C	0.601325	-0.260402	0.279889
C42	C	0.807694	-0.401792	0.431247
C43	C	0.807701	-0.307518	0.330327
C44	C	1.348362	-0.354691	0.380810
C45	C	1.436218	-0.354702	0.380818
C46	C	1.142202	-0.354663	0.586960
C47	C	1.142206	-0.354661	0.674816
C48	C	1.142299	-0.162714	0.380847
C49	C	1.142344	-0.080915	0.380871
C50	C	1.192733	-0.401731	0.716083
C51	C	1.091677	-0.307594	0.716103
C52	C	1.091676	-0.307594	0.798649
C53	C	1.142203	-0.354664	0.839916
C54	C	1.192732	-0.401733	0.798636
C55	C	1.041143	-0.260530	0.839935
C56	C	1.041139	-0.260529	0.922485
C57	C	1.091671	-0.307595	0.963754
C58	C	1.142202	-0.354666	0.922469
C59	C	1.192729	-0.401736	0.963736
C60	C	1.243265	-0.448804	0.922453
C61	C	1.243264	-0.448800	0.839904
C62	C	1.091672	-0.307599	1.046302
C63	C	1.192728	-0.401738	1.046289
C64	C	1.142185	-0.354682	1.175425
C65	C	1.142199	-0.354668	1.087569
H66	H	1.233999	-0.784552	0.289172
Cl67	Cl	0.425610	-0.248299	0.266933
H68	H	1.233880	-0.440050	0.682467
Cl69	Cl	1.256256	-0.460911	1.098161
Cl70	Cl	1.028094	-0.941063	0.494836
Cl71	Cl	0.735773	-0.201132	0.216438
Cl72	Cl	1.256477	-0.940994	0.266847
H73	H	1.284401	-0.487130	0.956063
Cl74	Cl	1.028019	-0.767581	0.494805
H75	H	1.050536	-0.269277	0.682499
H76	H	0.567713	-0.222026	0.238809
H77	H	1.000001	-0.222214	0.806329
H78	H	0.841302	-0.269124	0.289238
H79	H	0.443884	-0.440219	0.472352
H80	H	0.567705	-0.487345	0.522797
Cl81	Cl	0.735748	-0.508208	0.545146
Cl82	Cl	0.859577	-0.461051	0.494666
H83	H	1.284406	-0.487121	0.806285
H84	H	0.999990	-0.222203	0.956091
Cl85	Cl	1.028155	-0.248426	1.098197
