data_functionalizedCrystal
_audit_creation_method	'MofGen! by Chris Wilmer'
_symmetry_space_group_name_H-M	'P1'
_symmetry_Int_Tables_number	1
_symmetry_cell_setting	triclinic
loop_
_symmetry_equiv_pos_as_xyz
  x,y,z
_cell_length_a	16.992694
_cell_length_b	13.262508
_cell_length_c	16.053934
_cell_angle_alpha	103.311106
_cell_angle_beta	92.746741
_cell_angle_gamma	87.430197
loop_
_atom_site_label
_atom_site_type_symbol
_atom_site_fract_x
_atom_site_fract_y
_atom_site_fract_z
O1	O	1.040238	0.223717	-0.018519
O2	O	1.540238	0.723717	0.481481
O3	O	0.811918	0.221309	-0.019091
O4	O	1.311918	0.721309	0.480909
O5	O	0.930208	0.072243	-0.052924
O6	O	1.430208	0.572243	0.447076
O7	O	0.921948	0.372784	0.015315
O8	O	1.421948	0.872784	0.515315
O9	O	0.936683	0.064065	0.084076
O10	O	1.436683	0.564065	0.584076
O11	O	0.818393	0.213131	0.117909
O12	O	1.318393	0.713131	0.617909
O13	O	1.046713	0.215540	0.118481
O14	O	1.546713	0.715540	0.618481
Zn15	Zn	0.933581	0.213037	0.139947
Zn16	Zn	1.433581	0.713037	0.639947
Zn17	Zn	0.925050	0.223812	-0.040557
Zn18	Zn	1.425050	0.723812	0.459443
O19	O	0.928423	0.364606	0.152315
O20	O	1.428423	0.864606	0.652315
C21	C	0.785899	0.214121	0.048702
C22	C	1.285899	0.714121	0.548702
C23	C	0.698725	0.204872	0.046593
C24	C	1.198725	0.704872	0.546593
C25	C	0.932387	0.029520	0.006802
C26	C	1.432387	0.529520	0.506802
C27	C	0.929223	-0.085597	-0.019342
C28	C	1.429223	0.414403	0.480658
C29	C	0.649737	0.294111	0.066856
C30	C	1.149737	0.794111	0.566856
C31	C	0.567829	0.285414	0.064892
C32	C	1.067829	0.785414	0.564892
C33	C	0.534910	0.187478	0.042660
C34	C	1.034910	0.687478	0.542660
C35	C	0.583903	0.098232	0.022399
C36	C	1.083903	0.598232	0.522399
C37	C	0.665810	0.106930	0.024368
C38	C	1.165810	0.606930	0.524368
C39	C	0.290807	0.151429	0.034498
C40	C	0.790807	0.651429	0.534498
C41	C	0.208893	0.142738	0.032528
C42	C	0.708893	0.642738	0.532528
C43	C	0.192825	0.329921	0.075023
C44	C	0.692825	0.829921	0.575023
C45	C	0.274734	0.338610	0.076985
C46	C	0.774734	0.838610	0.576985
C47	C	0.323721	0.249365	0.056728
C48	C	0.823721	0.749365	0.556728
N49	N	0.451186	0.178586	0.040651
N50	N	0.951186	0.678586	0.540651
N51	N	0.407443	0.258257	0.058744
N52	N	0.907443	0.758257	0.558744
C53	C	0.934421	-0.427936	0.205688
C54	C	1.434421	0.072064	0.705688
C55	C	0.937387	-0.319778	0.230252
C56	C	1.437387	0.180222	0.730252
C57	C	0.935347	-0.261227	0.167856
C58	C	1.435347	0.238773	0.667856
C59	C	0.930339	-0.310846	0.080891
C60	C	1.430339	0.189154	0.580891
C61	C	0.927366	-0.419014	0.056324
C62	C	1.427366	0.080986	0.556324
C63	C	0.928292	-0.252305	0.018492
C64	C	1.428292	0.247695	0.518492
C65	C	0.923284	-0.301923	-0.068473
C66	C	1.423284	0.198077	0.431527
C67	C	0.920312	-0.410081	-0.093035
C68	C	1.420312	0.089919	0.406965
C69	C	0.922353	-0.468632	-0.030639
C70	C	1.422353	0.031368	0.469361
C71	C	0.931265	-0.144137	0.043059
C72	C	1.431265	0.355863	0.543059
C73	C	0.924210	-0.135214	-0.106305
C74	C	1.424210	0.364786	0.393695
C75	C	0.921244	-0.243373	-0.130869
C76	C	1.421244	0.256627	0.369131
C77	C	1.072732	0.222728	0.050686
C78	C	1.572732	0.722728	0.550686
C79	C	1.159906	0.231977	0.052790
C80	C	1.659906	0.731977	0.552790
C81	C	0.926244	0.407329	0.092587
C82	C	1.426244	0.907329	0.592587
C83	C	0.929407	0.522446	0.118725
C84	C	1.429407	1.022446	0.618725
N85	N	0.939410	0.205684	0.263136
N86	N	1.439410	0.705684	0.763136
N87	N	0.919228	0.231158	-0.163747
N88	N	1.419228	0.731158	0.336253
C89	C	0.889067	0.269086	0.321241
C90	C	1.389067	0.769086	0.821241
C91	C	0.893167	0.263939	0.407478
C92	C	1.393167	0.763939	0.907478
C93	C	0.947606	0.195385	0.435607
C94	C	1.447606	0.695385	0.935607
C95	C	0.997954	0.131980	0.377495
C96	C	1.497954	0.631980	0.877495
C97	C	0.993858	0.137132	0.291261
C98	C	1.493858	0.637132	0.791261
C99	C	0.965479	0.172905	0.691907
C100	C	1.465479	0.672905	1.191907
C101	C	0.969571	0.167755	0.778148
C102	C	1.469571	0.667755	1.278148
C103	C	0.864783	0.299717	0.808125
C104	C	1.364783	0.799717	1.308125
C105	C	0.860688	0.304859	0.721887
C106	C	1.360688	0.804859	1.221887
C107	C	0.911039	0.241458	0.663783
C108	C	1.411039	0.741458	1.163783
N109	N	0.951796	0.190120	0.523754
N110	N	1.451796	0.690120	1.023754
N111	N	0.906852	0.246728	0.575639
N112	N	1.406852	0.746728	1.075639
H113	H	0.676534	0.373861	0.084958
H114	H	1.176534	0.873861	0.584958
C115	C	0.138934	0.428084	0.097314
C116	C	0.638934	0.928084	0.597314
N117	N	0.098343	0.502023	0.114110
N118	N	0.598343	1.002023	0.614110
H119	H	0.844733	0.324906	0.298344
H120	H	1.344733	0.824906	0.798344
H121	H	0.935335	-0.103748	0.113866
H122	H	1.435335	0.396252	0.613866
C123	C	0.513947	0.383584	0.087198
C124	C	1.013947	0.883584	0.587198
N125	N	0.473363	0.457529	0.104005
N126	N	0.973363	0.957529	0.604005
H127	H	0.182094	0.062983	0.014422
H128	H	0.682094	0.562983	0.514422
C129	C	0.938618	-0.142251	0.194880
C130	C	1.438618	0.357749	0.694880
N131	N	0.941087	-0.052633	0.215238
N132	N	1.441087	0.447367	0.715238
H133	H	0.919942	-0.556704	-0.050635
H134	H	1.419942	-0.056704	0.449365
C135	C	0.800915	0.380431	0.690988
C136	C	1.300915	0.880431	1.190988
N137	N	0.755932	0.437407	0.667728
N138	N	1.255932	0.937407	1.167728
C139	C	0.942896	-0.265206	0.325910
C140	C	1.442896	0.234794	0.825910
N141	N	0.947046	-0.224102	0.397965
N142	N	1.447046	0.275898	0.897965
C143	C	0.809401	0.369454	0.872044
C144	C	1.309401	0.869454	1.372044
N145	N	0.767686	0.421983	0.920190
N146	N	1.267686	0.921983	1.420190
H147	H	0.936076	-0.475617	0.256482
H148	H	1.436076	0.024383	0.756482
C149	C	1.057838	0.056568	0.408440
C150	C	1.557838	0.556568	0.908440
N151	N	1.102941	-0.000238	0.431746
N152	N	1.602941	0.499762	0.931746
C153	C	1.029475	0.092357	0.809091
C154	C	1.529475	0.592357	1.309091
N155	N	1.074598	0.035575	0.832399
N156	N	1.574598	0.535575	1.332399
H157	H	0.705695	0.034262	0.007868
H158	H	1.205695	0.534262	0.507868
C159	C	0.914845	-0.464662	-0.188700
C160	C	1.414845	0.035338	0.311300
N161	N	0.910746	-0.505772	-0.260755
N162	N	1.410746	-0.005772	0.239245
C163	C	0.915729	-0.297967	-0.226529
C164	C	1.415729	0.202033	0.273471
N165	N	0.911573	-0.339088	-0.298580
N166	N	1.411573	0.160912	0.201420
H167	H	0.922543	-0.087542	-0.157113
H168	H	1.422543	0.412458	0.342887
C169	C	0.837781	0.333682	0.471389
C170	C	1.337781	0.833682	0.971389
N171	N	0.796060	0.386213	0.519527
N172	N	1.296060	0.886213	1.019527
C173	C	1.049237	0.067382	0.227344
C174	C	1.549237	0.567382	0.727344
N175	N	1.090953	0.014846	0.179203
N176	N	1.590953	0.514846	0.679203
H177	H	0.301530	0.418361	0.095079
H178	H	0.801530	0.918361	0.595079
C179	C	0.344682	0.053255	0.012208
C180	C	0.844682	0.553255	0.512208
N181	N	0.385263	-0.020694	-0.004582
N182	N	0.885263	0.479306	0.495418
H183	H	1.006476	0.121280	0.644605
H184	H	1.506476	0.621280	1.144605
H185	H	0.557094	0.018490	0.004309
H186	H	1.057094	0.518490	0.504309
