data_functionalizedCrystal
_audit_creation_method	'MofGen! by Chris Wilmer'
_symmetry_space_group_name_H-M	'P1'
_symmetry_Int_Tables_number	1
_symmetry_cell_setting	triclinic
loop_
_symmetry_equiv_pos_as_xyz
  x,y,z
_cell_length_a	8.559649
_cell_length_b	12.996460
_cell_length_c	8.597304
_cell_angle_alpha	97.705996
_cell_angle_beta	77.624695
_cell_angle_gamma	90.005498
loop_
_atom_site_label
_atom_site_type_symbol
_atom_site_fract_x
_atom_site_fract_y
_atom_site_fract_z
O1	O	2.119300	0.080839	-0.053140
O2	O	2.619300	0.580839	0.446860
O3	O	1.655360	0.088016	0.027760
O4	O	2.155360	0.588016	0.527760
O5	O	1.896459	0.064074	-0.242258
O6	O	2.396459	0.564074	0.257742
O7	O	1.878201	0.104782	0.216878
O8	O	2.378201	0.604782	0.716878
O9	O	1.896433	-0.107061	-0.242268
O10	O	2.396433	0.392939	0.257732
O11	O	1.655334	-0.083119	0.027750
O12	O	2.155334	0.416881	0.527750
O13	O	2.119274	-0.090295	-0.053150
O14	O	2.619274	0.409705	0.446850
Cu15	Cu	1.887302	-0.102333	-0.012701
Cu16	Cu	2.387302	0.397667	0.487299
Cu17	Cu	1.887332	0.100054	-0.012689
Cu18	Cu	2.387332	0.600054	0.487311
O19	O	1.878175	-0.066353	0.216868
O20	O	2.378175	0.433647	0.716868
C21	C	1.595913	0.002993	0.033886
C22	C	2.095913	0.502993	0.533886
C23	C	1.418818	0.004612	0.052136
C24	C	1.918818	0.504612	0.552136
N25	N	1.887292	-0.244681	-0.012712
N26	N	2.387292	0.255319	0.487288
C27	C	1.887330	-0.664493	-0.012687
C28	C	2.387330	-0.164493	0.487313
C29	C	1.887315	-0.547688	-0.012688
C30	C	2.387315	-0.047688	0.487312
C31	C	1.887312	-0.454591	-0.012698
C32	C	2.387312	0.045409	0.487302
C33	C	1.887295	-0.337778	-0.012702
C34	C	2.387295	0.162222	0.487298
C35	C	2.178721	-0.005270	-0.059276
C36	C	2.678721	0.494730	0.440724
C37	C	2.355816	-0.006883	-0.077525
C38	C	2.855816	0.493117	0.422475
C39	C	1.894484	-0.026655	-0.300499
C40	C	2.394484	0.473345	0.199501
C41	C	1.888620	-0.042033	-0.474020
C42	C	2.388620	0.457967	0.025980
N43	N	1.887354	0.242400	-0.012692
N44	N	2.387354	0.742400	0.487308
C45	C	1.880150	0.024378	0.275109
C46	C	2.380150	0.524378	0.775109
C47	C	1.886014	0.039763	0.448630
C48	C	2.386014	0.539763	0.948630
H49	H	1.337266	0.015699	0.177114
H50	H	1.837266	0.515699	0.677114
C51	C	1.885557	-0.152548	-0.563875
C52	C	2.385557	0.347452	-0.063875
H53	H	1.887968	-0.201798	-0.492078
H54	H	2.387968	0.298202	0.007922
H55	H	1.976156	-0.164071	-0.650640
H56	H	2.476156	0.335929	-0.150640
H57	H	1.790630	-0.159957	-0.604318
H58	H	2.290630	0.340043	-0.104318
C59	C	1.889070	0.150272	-0.461520
C60	C	2.389070	0.650272	0.038480
H61	H	1.886637	0.199525	-0.533309
H62	H	2.386637	0.699525	-0.033309
H63	H	1.983979	0.157684	-0.421060
H64	H	2.483979	0.657684	0.078940
H65	H	1.798452	0.161789	-0.374761
H66	H	2.298452	0.661789	0.125239
C67	C	1.465965	-0.021854	-0.246353
C68	C	1.965965	0.478146	0.253647
H69	H	1.574535	-0.021024	-0.236884
H70	H	2.074535	0.478976	0.263116
H71	H	1.445679	0.032785	-0.303164
H72	H	1.945679	0.532785	0.196836
H73	H	1.445658	-0.086578	-0.303160
H74	H	1.945658	0.413422	0.196840
