data_functionalizedCrystal
_audit_creation_method	'MofGen! by Chris Wilmer'
_symmetry_space_group_name_H-M	'P1'
_symmetry_Int_Tables_number	1
_symmetry_cell_setting	triclinic
loop_
_symmetry_equiv_pos_as_xyz
  x,y,z
_cell_length_a	16.109301
_cell_length_b	16.109304
_cell_length_c	8.140239
_cell_angle_alpha	90.000707
_cell_angle_beta	90.000002
_cell_angle_gamma	83.462059
loop_
_atom_site_label
_atom_site_type_symbol
_atom_site_fract_x
_atom_site_fract_y
_atom_site_fract_z
O1	O	1.103131	0.106866	0.136499
O2	O	0.861069	0.120165	0.136524
O3	O	0.988748	-0.007515	0.136512
O4	O	0.975452	0.234546	0.136511
O5	O	0.988741	-0.007517	-0.136715
O6	O	0.861062	0.120164	-0.136703
O7	O	1.103124	0.106864	-0.136728
Zn8	Zn	0.982092	0.113514	-0.180096
Zn9	Zn	0.982101	0.113516	0.179892
O10	O	0.975445	0.234545	-0.136716
C11	C	0.830091	0.119626	-0.000086
C12	C	0.737795	0.118010	-0.000076
C13	C	0.988206	-0.038491	-0.000098
C14	C	0.986590	-0.130786	-0.000087
C15	C	0.515524	0.190018	-0.000095
C16	C	0.428803	0.188494	-0.000106
C17	C	0.448676	0.037005	-0.000099
C18	C	0.535395	0.038530	-0.000100
C19	C	0.568816	0.115039	-0.000090
C20	C	0.395377	0.111990	-0.000099
C21	C	0.301351	0.110337	-0.000111
C22	C	0.662848	0.116693	-0.000082
C23	C	0.982860	-0.343123	0.148844
C24	C	0.981334	-0.429843	0.148842
C25	C	0.981331	-0.429841	-0.149045
C26	C	0.982851	-0.343122	-0.149042
C27	C	0.983620	-0.299766	-0.000093
C28	C	0.980573	-0.473205	-0.000097
C29	C	0.978919	-0.567231	-0.000100
C30	C	0.985273	-0.205734	-0.000089
C31	C	1.134102	0.107404	-0.000114
C32	C	1.226398	0.109019	-0.000113
C33	C	0.975987	0.265520	-0.000102
C34	C	0.977603	0.357816	-0.000103
N35	N	0.982092	0.113512	-0.425779
N36	N	0.982108	0.113511	0.425575
H37	H	0.542732	0.252316	-0.000100
Br38	Br	0.980284	-0.488687	-0.351180
H39	H	0.385416	0.249550	-0.000114
Br40	Br	0.980298	-0.488681	0.350979
Br41	Br	0.983868	-0.284273	-0.351185
H42	H	0.578788	-0.022530	-0.000100
Br43	Br	0.403313	-0.066823	-0.000106
H44	H	0.983484	-0.307824	0.270128
