data_functionalizedCrystal
_audit_creation_method	'MofGen! by Chris Wilmer'
_symmetry_space_group_name_H-M	'P1'
_symmetry_Int_Tables_number	1
_symmetry_cell_setting	triclinic
loop_
_symmetry_equiv_pos_as_xyz
  x,y,z
_cell_length_a	29.999520
_cell_length_b	29.998686
_cell_length_c	29.995014
_cell_angle_alpha	60.005185
_cell_angle_beta	60.010401
_cell_angle_gamma	59.993433
loop_
_atom_site_label
_atom_site_type_symbol
_atom_site_fract_x
_atom_site_fract_y
_atom_site_fract_z
O1	O	0.061772	-0.651300	0.544623
O2	O	0.023267	-0.507084	0.438819
O3	O	0.114589	-0.598332	0.438743
O4	O	-0.029550	-0.560051	0.544699
O5	O	0.144886	-0.568039	0.468961
O6	O	0.053564	-0.476791	0.469038
O7	O	0.092069	-0.621007	0.574841
Zn8	Zn	0.077627	-0.544089	0.526737
Zn9	Zn	0.037709	-0.584002	0.486923
O10	O	0.000748	-0.529758	0.574918
N11	N	0.104871	-0.516854	0.553912
N12	N	0.010470	-0.611242	0.459748
C13	C	0.143162	-0.478782	0.827124
C14	C	0.378203	-0.478734	0.591892
C15	C	0.143005	-0.478752	0.591997
C16	C	0.142986	-0.243586	0.592008
C17	C	0.180857	-0.357087	0.629814
C18	C	0.180866	-0.440920	0.629807
C19	C	0.201840	-0.419964	0.650755
C20	C	0.293272	-0.404201	0.602606
C21	C	0.350426	-0.423248	0.583534
C22	C	0.350451	-0.515727	0.618798
C23	C	0.293297	-0.496678	0.637872
C24	C	0.194628	-0.328499	0.573626
C25	C	0.175551	-0.271340	0.554591
C26	C	0.128936	-0.271362	0.647935
C27	C	0.148014	-0.328521	0.666970
C28	C	0.124672	-0.427119	0.643641
C29	C	0.105611	-0.446170	0.624592
C30	C	0.198934	-0.492820	0.577889
C31	C	0.217998	-0.473770	0.596931
C32	C	0.124740	-0.427136	0.742229
C33	C	0.105728	-0.446202	0.799386
C34	C	0.199085	-0.492863	0.799337
C35	C	0.218096	-0.473798	0.742178
C36	C	0.180923	-0.440933	0.713626
C37	C	0.264710	-0.440915	0.629773
C38	C	0.121509	-0.499370	0.889991
C39	C	0.441068	-0.498953	0.570621
C40	C	0.121297	-0.499349	0.571429
C41	C	0.121653	-0.180715	0.571802
C42	C	-0.111071	-0.648912	0.421584
C43	C	-0.027286	-0.649018	0.421777
C44	C	-0.048200	-0.669944	0.400740
C45	C	-0.064036	-0.761340	0.448814
C46	C	-0.045033	-0.818500	0.467893
C47	C	0.047447	-0.818609	0.432797
C48	C	0.028444	-0.761451	0.413717
C49	C	-0.139731	-0.662677	0.477755
C50	C	-0.196885	-0.643554	0.496701
C51	C	-0.196717	-0.596907	0.403303
C52	C	-0.139562	-0.616030	0.384357
C53	C	-0.041053	-0.592827	0.407952
C54	C	-0.022041	-0.573809	0.427083
C55	C	0.024504	-0.667167	0.473848
C56	C	0.005492	-0.686188	0.454725
C57	C	-0.040886	-0.592836	0.309259
C58	C	-0.021740	-0.573821	0.252102
C59	C	0.024886	-0.667185	0.252163
C60	C	0.005743	-0.686199	0.309322
C61	C	-0.027145	-0.649023	0.337868
C62	C	-0.027299	-0.732818	0.421728
N63	N	0.492511	-0.516826	0.553742
O64	O	0.679283	-0.525926	0.419277
O65	O	0.679465	-0.632059	0.563349
O66	O	0.679393	-0.631817	0.471975
O67	O	0.679355	-0.526168	0.510650
O68	O	0.588593	-0.601610	0.502313
O69	O	0.588665	-0.601852	0.593686
O70	O	0.588483	-0.495720	0.449614
Zn71	Zn	0.574158	-0.543990	0.526467
Zn72	Zn	0.693790	-0.583788	0.486496
O73	O	0.588555	-0.495962	0.540987
N74	N	0.775436	-0.610952	0.459215
N75	N	0.104844	-0.129269	0.553931
O76	O	-0.029548	0.057600	0.544709
O77	O	0.114530	0.057617	0.438578
O78	O	0.023130	0.057594	0.438850
O79	O	0.061852	0.057623	0.544437
O80	O	0.053431	-0.033213	0.469115
O81	O	0.144831	-0.033190	0.468843
O82	O	0.000753	-0.033207	0.574974
Zn83	Zn	0.077603	-0.047616	0.526714
Zn84	Zn	0.037680	0.072026	0.486838
O85	O	0.092153	-0.033184	0.574702
N86	N	0.010432	0.153679	0.459622
N87	N	0.105130	-0.516904	0.941437
O88	O	0.095923	-0.651280	1.128292
O89	O	-0.010184	-0.507155	1.128318
O90	O	-0.009938	-0.598539	1.128284
O91	O	0.095677	-0.559897	1.128326
O92	O	0.020315	-0.568257	1.037481
O93	O	0.020068	-0.476874	1.037515
O94	O	0.126176	-0.620999	1.037489
Zn95	Zn	0.077925	-0.544128	1.023085
Zn96	Zn	0.038066	-0.584026	1.142722
O97	O	0.125929	-0.529616	1.037523
N98	N	0.010860	-0.611256	1.224371
C99	C	0.034807	-0.473765	0.439352
C100	C	0.147897	-0.586765	0.439257
C101	C	0.080529	-0.654326	0.574308
C102	C	-0.032561	-0.541326	0.574403
C103	C	0.634087	-0.631571	0.596668
C104	C	0.633999	-0.631272	0.483513
C105	C	0.633858	-0.496206	0.416295
C106	C	0.633949	-0.496507	0.529449
C107	C	0.147793	0.012327	0.439058
C108	C	0.034644	0.012187	0.439432
C109	C	-0.032548	0.012195	0.574457
C110	C	0.080639	0.012222	0.574120
C111	C	-0.009670	-0.473857	1.082920
C112	C	-0.009359	-0.587018	1.082860
C113	C	0.125662	-0.654297	1.082887
C114	C	0.125358	-0.541129	1.082927
H115	H	0.059977	-0.434960	0.822668
O116	O	0.197243	-0.596502	0.399510
C117	C	0.190061	-0.590371	0.353509
H118	H	0.150065	-0.596372	0.366658
H119	H	0.188851	-0.547691	0.322641
C120	C	0.287001	-0.625850	0.311043
C121	C	0.237880	-0.633226	0.327194
H122	H	0.316499	-0.652283	0.294809
H123	H	0.291840	-0.629979	0.342034
H124	H	0.285985	-0.590282	0.285323
H125	H	0.238894	-0.668790	0.352919
H126	H	0.233042	-0.629104	0.296207
O127	O	0.024774	0.012070	0.399906
C128	C	0.011927	-0.034965	0.418736
H129	H	0.029560	-0.067820	0.452640
H130	H	-0.034307	-0.024342	0.435208
C131	C	0.014872	-0.015961	0.329616
C132	C	0.036533	-0.056315	0.371254
H133	H	0.030047	-0.029129	0.300327
H134	H	0.023525	0.015729	0.316930
H135	H	-0.023656	-0.007111	0.343350
H136	H	0.075059	-0.065159	0.357522
H137	H	0.027886	-0.088007	0.383938
O138	O	0.633910	-0.456963	0.539416
C139	C	0.633982	-0.476859	0.593069
H140	H	0.616832	-0.511927	0.618903
H141	H	0.677555	-0.492064	0.592232
C142	C	0.619428	-0.387611	0.586180
C143	C	0.598360	-0.430679	0.617911
H144	H	0.597457	-0.359126	0.601503
H145	H	0.619382	-0.374207	0.550032
H146	H	0.655738	-0.400289	0.585485
H147	H	0.562053	-0.418003	0.618600
H148	H	0.598399	-0.444081	0.654059
O149	O	0.197006	0.012701	0.399138
C150	C	0.189528	0.059834	0.353287
H151	H	0.145939	0.075333	0.354036
H152	H	0.197191	0.092825	0.354347
C153	C	0.283423	0.026783	0.299838
C154	C	0.229888	0.045816	0.300755
H155	H	0.308320	0.018137	0.267433
H156	H	0.288462	-0.004971	0.330729
H157	H	0.289801	0.054278	0.300723
H158	H	0.223508	0.018318	0.299876
H159	H	0.224848	0.077565	0.269862
H160	H	-0.033252	-0.528055	0.415829
H161	H	-0.073925	0.012190	0.607776
H162	H	-0.042983	-0.432464	1.082928
H163	H	0.088930	0.012231	0.607291
O164	O	0.634170	-0.671271	0.646053
C165	C	0.634167	-0.651607	0.680034
H166	H	0.651318	-0.616539	0.653783
H167	H	0.590615	-0.636472	0.707631
C168	C	0.648766	-0.741015	0.747578
C169	C	0.669834	-0.697946	0.715335
H170	H	0.670765	-0.769599	0.769355
H171	H	0.648766	-0.754263	0.724685
H172	H	0.612472	-0.728395	0.770570
H173	H	0.706125	-0.710565	0.692339
H174	H	0.669842	-0.684701	0.738225
H175	H	0.088756	-0.695753	0.607538
H176	H	0.633799	-0.462884	0.374920
O177	O	0.272688	-0.487299	0.714455
C178	C	0.296439	-0.544548	0.728395
H179	H	0.269363	-0.564557	0.769900
H180	H	0.300671	-0.557473	0.696228
C181	C	0.386498	-0.538020	0.680030
C182	C	0.353245	-0.562596	0.731009
H183	H	0.421539	-0.549153	0.681640
H184	H	0.370497	-0.499450	0.670636
H185	H	0.390019	-0.548793	0.653230
H186	H	0.349719	-0.551817	0.757807
H187	H	0.369247	-0.601165	0.740408
H188	H	-0.042525	-0.595273	1.082811
H189	H	0.158977	-0.695688	1.082873
H190	H	0.158538	-0.532861	1.082933
H191	H	0.094465	-0.400370	0.718985
H192	H	0.229358	-0.519614	0.822579
H193	H	0.059853	-0.434921	0.635844
O194	O	0.088529	-0.395193	0.675549
C195	C	0.034843	-0.387107	0.683680
H196	H	0.034923	-0.393485	0.649223
H197	H	0.018494	-0.417537	0.724395
C198	C	-0.001922	-0.320720	0.726428
C199	C	-0.001824	-0.328549	0.684104
H200	H	-0.024541	-0.284600	0.726692
H201	H	0.034247	-0.326169	0.720952
H202	H	-0.015545	-0.346082	0.760353
H203	H	0.011805	-0.303192	0.650180
H204	H	-0.037992	-0.323095	0.689575
O205	O	-0.035169	-0.519219	0.224401
C206	C	-0.068290	-0.490489	0.261857
H207	H	-0.089125	-0.517716	0.302576
H208	H	-0.041948	-0.478197	0.268007
C209	C	-0.086319	-0.405493	0.189446
C210	C	-0.111913	-0.438932	0.239457
H211	H	-0.113226	-0.373689	0.175628
H212	H	-0.064003	-0.424848	0.164211
H213	H	-0.064369	-0.395255	0.194577
H214	H	-0.133857	-0.449175	0.234324
H215	H	-0.134234	-0.419577	0.264691
O216	O	-0.081971	-0.531498	0.614048
C217	C	-0.115904	-0.477854	0.594308
H218	H	-0.089615	-0.451926	0.559242
H219	H	-0.143480	-0.478685	0.579149
C220	C	-0.183522	-0.485002	0.683658
C221	C	-0.151233	-0.453156	0.640592
H222	H	-0.205317	-0.469768	0.712208
H223	H	-0.160662	-0.521144	0.696957
H224	H	-0.206497	-0.485692	0.671018
H225	H	-0.128254	-0.452473	0.653230
H226	H	-0.174091	-0.417014	0.627296
H227	H	0.229173	-0.519573	0.551126
H228	H	0.634015	-0.664461	0.475235
H229	H	0.270043	-0.526578	0.659994
O230	O	0.272603	-0.487229	0.583450
C231	C	0.301290	-0.520288	0.550329
H232	H	0.274044	-0.541088	0.557642
H233	H	0.313560	-0.493899	0.505563
C234	C	0.386321	-0.538406	0.555759
C235	C	0.352858	-0.563955	0.564745
H236	H	0.418132	-0.565340	0.564649
H237	H	0.366995	-0.516131	0.578072
H238	H	0.396541	-0.516416	0.518454
H239	H	0.342634	-0.585939	0.602050
H240	H	0.372184	-0.586235	0.542438
H241	H	0.373680	-0.393351	0.561411
O242	O	0.265589	-0.350018	0.594715
C243	C	0.303058	-0.321699	0.566632
H244	H	0.343813	-0.351034	0.573211
H245	H	0.309109	-0.303933	0.521161
C246	C	0.230707	-0.239105	0.580414
C247	C	0.280761	-0.275134	0.588497
H248	H	0.216953	-0.210380	0.593899
H249	H	0.205462	-0.258183	0.599332
H250	H	0.235756	-0.224306	0.542521
H251	H	0.275710	-0.289938	0.626390
H252	H	0.306005	-0.256057	0.569586
O253	O	0.226503	-0.356166	0.537461
C254	C	0.234571	-0.318674	0.483784
H255	H	0.200103	-0.277934	0.483905
H256	H	0.275283	-0.312588	0.467388
C257	C	0.277282	-0.391013	0.446986
C258	C	0.234946	-0.340976	0.447134
H259	H	0.277516	-0.404770	0.424378
H260	H	0.271849	-0.416272	0.483149
H261	H	0.311205	-0.385934	0.433324
H262	H	0.201024	-0.346057	0.460803
H263	H	0.240374	-0.315718	0.410973
O264	O	0.378309	-0.569876	0.626595
C265	C	0.434880	-0.578817	0.603947
H266	H	0.442664	-0.539479	0.571185
H267	H	0.451124	-0.591989	0.637391
C268	C	0.454657	-0.672244	0.618526
C269	C	0.464217	-0.623930	0.578283
H270	H	0.472754	-0.700074	0.602697
H271	H	0.416544	-0.666222	0.633786
H272	H	0.468193	-0.683214	0.646393
H273	H	0.450675	-0.612957	0.550421
H274	H	0.502329	-0.629951	0.563018
H275	H	0.186762	-0.248063	0.508836
H276	H	0.136793	-0.351798	0.712725
O277	O	0.097024	-0.243692	0.684101
C278	C	0.088982	-0.281182	0.737778
H279	H	0.095372	-0.321928	0.737676
H280	H	0.119423	-0.287256	0.754129
C281	C	0.022593	-0.208845	0.774588
C282	C	0.030437	-0.258888	0.774463
H283	H	-0.013519	-0.195093	0.797218
H284	H	0.028012	-0.183587	0.738425
H285	H	0.047965	-0.213914	0.788212
H286	H	0.005071	-0.253818	0.760833
H287	H	0.025012	-0.284145	0.810625
H288	H	-0.067667	-0.562559	0.332499
H289	H	0.016937	-0.731954	0.332612
O290	O	0.056838	-0.703372	0.224522
C291	C	0.064844	-0.757041	0.262033
H292	H	0.058394	-0.756926	0.302798
H293	H	0.034422	-0.773368	0.268041
C294	C	0.131319	-0.793907	0.189757
C295	C	0.123401	-0.793767	0.239824
H296	H	0.167439	-0.816562	0.176057
H297	H	0.125924	-0.757749	0.164485
H298	H	0.105964	-0.807512	0.194771
H299	H	0.148751	-0.780156	0.234809
H300	H	0.128802	-0.829923	0.265095
H301	H	-0.067739	-0.562558	0.381123
H302	H	0.051198	-0.697438	0.500669
H303	H	0.016700	-0.731943	0.465981
H304	H	0.092838	-0.841923	0.426277
O305	O	0.064203	-0.733828	0.387437
C306	C	0.117478	-0.771360	0.384450
H307	H	0.115246	-0.812084	0.418211
H308	H	0.139349	-0.777466	0.343035
C309	C	0.151885	-0.699077	0.350060
C310	C	0.149144	-0.749095	0.391529
H311	H	0.171420	-0.685343	0.354424
H312	H	0.115993	-0.673791	0.352070
H313	H	0.170110	-0.704173	0.315552
H314	H	0.130913	-0.743998	0.426036
H315	H	0.185034	-0.774380	0.389525
H316	H	-0.109425	-0.738032	0.455342
O317	O	-0.080792	-0.846120	0.494179
C318	C	-0.107527	-0.832149	0.459162
H319	H	-0.106125	-0.790690	0.426585
H320	H	-0.086224	-0.864362	0.438754
C321	C	-0.169127	-0.880295	0.532500
C322	C	-0.167408	-0.829373	0.492490
H323	H	-0.206064	-0.878585	0.553058
H324	H	-0.151114	-0.889710	0.556091
H325	H	-0.151372	-0.907135	0.515487
H326	H	-0.185158	-0.802536	0.509504
H327	H	-0.185426	-0.819953	0.468902
O328	O	-0.112112	-0.694672	0.513966
C329	C	-0.126127	-0.742578	0.546980
H330	H	-0.167605	-0.734861	0.547455
H331	H	-0.093955	-0.776985	0.529829
C332	C	-0.077924	-0.768329	0.604986
C333	C	-0.128870	-0.758850	0.605573
H334	H	-0.079613	-0.778369	0.641128
H335	H	-0.068480	-0.736055	0.582743
H336	H	-0.051119	-0.797000	0.590691
H337	H	-0.155672	-0.730175	0.619861
H338	H	-0.138318	-0.791120	0.627820
O339	O	-0.224312	-0.564958	0.367069
C340	C	-0.186760	-0.556930	0.313426
H341	H	-0.146039	-0.563364	0.313612
H342	H	-0.180667	-0.587355	0.297042
C343	C	-0.258995	-0.490471	0.276481
C344	C	-0.208981	-0.498368	0.276709
H345	H	-0.272702	-0.454348	0.253831
H346	H	-0.284295	-0.495880	0.312621
H347	H	-0.253910	-0.515828	0.262829
H348	H	-0.214068	-0.473016	0.290367
H349	H	-0.183682	-0.492954	0.240570
O350	O	0.024899	-0.424323	0.399757
C351	C	-0.028752	-0.390452	0.419571
H352	H	-0.054623	-0.416799	0.454635
H353	H	-0.027928	-0.362893	0.434754
C354	C	-0.021747	-0.322734	0.330273
C355	C	-0.053523	-0.355093	0.373336
H356	H	-0.037027	-0.300921	0.301754
H357	H	0.014399	-0.345552	0.316924
H358	H	-0.021063	-0.299773	0.342933
H359	H	-0.054201	-0.378059	0.360678
H360	H	-0.089670	-0.332278	0.386682
O361	O	-0.224751	-0.656832	0.551264
C362	C	-0.257821	-0.608787	0.565043
H363	H	-0.240547	-0.574483	0.532850
H364	H	-0.301116	-0.596710	0.566853
C365	C	-0.280013	-0.661089	0.660677
C366	C	-0.258793	-0.618958	0.621140
H367	H	-0.280615	-0.667363	0.695281
H368	H	-0.257734	-0.693459	0.651395
H369	H	-0.316090	-0.651020	0.662178
H370	H	-0.222715	-0.629031	0.619634
H371	H	-0.281066	-0.586590	0.630423
H372	H	-0.116227	-0.604815	0.338615
