data_functionalizedCrystal
_audit_creation_method	'MofGen! by Chris Wilmer'
_symmetry_space_group_name_H-M	'P1'
_symmetry_Int_Tables_number	1
_symmetry_cell_setting	triclinic
loop_
_symmetry_equiv_pos_as_xyz
  x,y,z
_cell_length_a	14.971486
_cell_length_b	17.699083
_cell_length_c	13.448316
_cell_angle_alpha	89.992503
_cell_angle_beta	89.998199
_cell_angle_gamma	83.448572
loop_
_atom_site_label
_atom_site_type_symbol
_atom_site_fract_x
_atom_site_fract_y
_atom_site_fract_z
O1	O	1.186608	0.098633	-0.082580
O2	O	1.686608	0.598633	0.417420
O3	O	0.926168	0.110445	-0.082607
O4	O	1.426168	0.610445	0.417393
O5	O	1.063746	-0.005632	-0.082584
O6	O	1.563746	0.494368	0.417416
O7	O	1.049030	0.214710	-0.082603
O8	O	1.549030	0.714710	0.417397
O9	O	1.063729	-0.005639	0.082800
O10	O	1.563729	0.494361	0.582800
O11	O	0.926150	0.110438	0.082777
O12	O	1.426150	0.610438	0.582777
O13	O	1.186591	0.098626	0.082804
O14	O	1.686591	0.598626	0.582804
Cu15	Cu	1.056369	0.104531	0.097891
Cu16	Cu	1.556369	0.604531	0.597891
Cu17	Cu	1.056390	0.104540	-0.097694
Cu18	Cu	1.556390	0.604540	0.402306
O19	O	1.049013	0.214703	0.082781
O20	O	1.549013	0.714703	0.582781
C21	C	0.892836	0.109913	0.000082
C22	C	1.392836	0.609913	0.500082
C23	C	0.793544	0.108330	0.000071
C24	C	1.293544	0.608330	0.500071
C25	C	0.736085	0.176522	0.000067
C26	C	1.236085	0.676522	0.500067
C27	C	0.642790	0.175030	0.000082
C28	C	1.142790	0.675030	0.500082
C29	C	0.606958	0.105346	0.000094
C30	C	1.106958	0.605346	0.500094
C31	C	0.664425	0.037148	0.000102
C32	C	1.164425	0.537148	0.500102
C33	C	0.757717	0.038641	0.000094
C34	C	1.257717	0.538641	0.500094
C35	C	0.469973	0.034042	0.000116
C36	C	0.969973	0.534042	0.500116
C37	C	0.376674	0.032549	0.000122
C38	C	0.876674	0.532549	0.500122
C39	C	0.355046	0.170431	0.000104
C40	C	0.855046	0.670431	0.500104
C41	C	0.448339	0.171924	0.000096
C42	C	0.948339	0.671924	0.500096
C43	C	0.505799	0.103726	0.000102
C44	C	1.005799	0.603726	0.500102
C45	C	1.063210	-0.033834	0.000108
C46	C	1.563210	0.466166	0.500108
C47	C	1.061628	-0.117856	0.000109
C48	C	1.561628	0.382144	0.500109
C49	C	1.142384	-0.166278	0.000118
C50	C	1.642384	0.333722	0.500118
C51	C	1.140892	-0.245225	0.000110
C52	C	1.640892	0.254775	0.500110
C53	C	1.058644	-0.275748	0.000098
C54	C	1.558644	0.224252	0.500098
C55	C	0.977882	-0.227320	0.000085
C56	C	1.477882	0.272680	0.500085
C57	C	0.979375	-0.148374	0.000087
C58	C	1.479375	0.351626	0.500087
C59	C	0.971860	-0.545698	0.000076
C60	C	1.471860	-0.045698	0.500076
C61	C	0.970374	-0.624649	0.000077
C62	C	1.470374	-0.124649	0.500077
C63	C	1.133378	-0.642548	0.000099
C64	C	1.633378	-0.142548	0.500099
C65	C	1.134871	-0.563603	0.000101
C66	C	1.634871	-0.063603	0.500101
C67	C	1.054109	-0.515181	0.000083
C68	C	1.554109	-0.015181	0.500083
C69	C	1.055728	-0.429578	0.000090
C70	C	1.555728	0.070422	0.500090
C71	C	1.057024	-0.361350	0.000097
C72	C	1.557024	0.138650	0.500097
C73	C	1.219923	0.099158	0.000114
C74	C	1.719923	0.599158	0.500114
C75	C	1.319214	0.100741	0.000117
C76	C	1.819214	0.600741	0.500117
C77	C	1.049549	0.242905	0.000087
C78	C	1.549549	0.742905	0.500087
C79	C	1.051131	0.326927	0.000080
C80	C	1.551131	0.826927	0.500080
N81	N	1.056361	0.104525	0.235456
N82	N	1.556361	0.604525	0.735456
N83	N	1.056404	0.104540	-0.235258
N84	N	1.556404	0.604540	0.264742
C85	C	1.117300	0.053147	0.287506
C86	C	1.617300	0.553147	0.787506
C87	C	1.117306	0.053147	0.391610
C88	C	1.617306	0.553147	0.891610
C89	C	1.056376	0.104528	0.443660
C90	C	1.556376	0.604528	0.943660
C91	C	0.995431	0.155908	0.391602
C92	C	1.495431	0.655908	0.891602
C93	C	0.995422	0.155904	0.287501
C94	C	1.495422	0.655904	0.787501
C95	C	0.995456	0.155913	0.608582
C96	C	1.495456	0.655913	1.108582
C97	C	0.995466	0.155918	0.712691
C98	C	1.495466	0.655918	1.212691
C99	C	1.117339	0.053155	0.712691
C100	C	1.617339	0.553155	1.212691
C101	C	1.117330	0.053152	0.608590
C102	C	1.617330	0.553152	1.108590
C103	C	1.056386	0.104533	0.556539
C104	C	1.556386	0.604533	1.056539
H105	H	0.635242	-0.019590	0.000126
H106	H	1.135242	0.480410	0.500126
H107	H	0.804501	-0.016888	0.000097
H108	H	1.304501	0.483112	0.500097
H109	H	0.308257	0.225960	0.000104
H110	H	0.808257	0.725960	0.500104
C111	C	0.879890	-0.658222	0.000056
C112	C	1.379890	-0.158222	0.500056
N113	N	0.811741	-0.683510	0.000040
N114	N	1.311741	-0.183510	0.500040
H115	H	0.910914	-0.252178	0.000069
H116	H	1.410914	0.247822	0.500069
C117	C	1.184356	-0.003370	0.551336
C118	C	1.684356	0.496630	1.051336
N119	N	1.234838	-0.045946	0.508213
N120	N	1.734838	0.454054	1.008213
H121	H	0.765252	0.233267	0.000056
H122	H	1.265252	0.733267	0.500056
H123	H	0.906099	-0.506282	0.000062
H124	H	1.406099	-0.006282	0.500062
H125	H	0.913615	-0.108949	0.000079
H126	H	1.413615	0.391051	0.500079
H127	H	0.596010	0.230559	0.000077
H128	H	1.096010	0.730559	0.500077
H129	H	1.209360	-0.141433	0.000134
H130	H	1.709360	0.358567	0.500134
C131	C	1.229730	-0.298487	0.000137
C132	C	1.729730	0.201513	0.500137
N133	N	1.296647	-0.338603	0.000162
N134	N	1.796647	0.161397	0.500162
H135	H	0.347502	-0.024194	0.000133
H136	H	0.847502	0.475806	0.500133
H137	H	0.516756	-0.021492	0.000122
H138	H	1.016756	0.478508	0.500122
H139	H	0.945799	0.197740	0.245122
H140	H	1.445799	0.697740	0.745122
H141	H	1.166962	0.011319	0.755077
H142	H	1.666962	0.511319	1.255077
C143	C	1.184328	-0.003378	0.230260
C144	C	1.684328	0.496622	0.730260
N145	N	1.234813	-0.045956	0.187145
N146	N	1.734813	0.454044	0.687145
C147	C	1.225350	-0.530032	0.000114
C148	C	1.725350	-0.030032	0.500114
N149	N	1.293501	-0.504748	0.000119
N150	N	1.793501	-0.004748	0.500119
C151	C	0.928435	0.212435	0.769945
C152	C	1.428435	0.712435	1.269945
N153	N	0.877946	0.255004	0.813068
N154	N	1.377946	0.755004	1.313068
C155	C	0.928404	0.212428	0.551329
C156	C	1.428404	0.712428	1.051329
N157	N	0.877902	0.254993	0.508206
N158	N	1.377902	0.754993	1.008206
H159	H	0.945817	0.197741	0.433988
H160	H	1.445817	0.697741	0.933988
H161	H	0.477510	0.228667	0.000076
H162	H	0.977510	0.728667	0.500076
H163	H	1.199138	-0.681983	0.000109
H164	H	1.699138	-0.181983	0.500109
H165	H	1.166926	0.011311	0.433989
H166	H	1.666926	0.511311	0.933989
