data_functionalizedCrystal
_audit_creation_method	'MofGen! by Chris Wilmer'
_symmetry_space_group_name_H-M	'P1'
_symmetry_Int_Tables_number	1
_symmetry_cell_setting	triclinic
loop_
_symmetry_equiv_pos_as_xyz
  x,y,z
_cell_length_a	17.000371
_cell_length_b	16.098524
_cell_length_c	17.019294
_cell_angle_alpha	96.942147
_cell_angle_beta	79.505866
_cell_angle_gamma	93.245953
loop_
_atom_site_label
_atom_site_type_symbol
_atom_site_fract_x
_atom_site_fract_y
_atom_site_fract_z
O1	O	1.059348	0.071515	0.031451
O2	O	0.827677	0.073576	0.060170
O3	O	0.949598	0.064249	-0.069822
O4	O	0.937427	0.080842	0.161443
O5	O	0.943220	-0.074686	-0.075699
O6	O	0.821299	-0.065360	0.054293
O7	O	1.052970	-0.067420	0.025573
Zn8	Zn	0.936122	-0.088449	0.039000
Zn9	Zn	0.944525	0.094604	0.046744
O10	O	0.931050	-0.058093	0.155565
C11	C	0.794838	0.004219	0.058774
C12	C	0.706489	0.004548	0.063361
C13	C	0.674311	-0.000518	-0.007227
C14	C	0.591298	-0.000203	-0.002912
C15	C	0.540463	0.005173	0.071991
C16	C	0.572646	0.010242	0.142585
C17	C	0.655659	0.009932	0.138269
C18	C	0.289354	0.006375	0.088661
C19	C	0.206336	0.006682	0.092971
C20	C	0.224993	-0.003762	-0.052526
C21	C	0.308006	-0.004076	-0.056835
C22	C	0.340182	0.000997	0.013758
C23	C	0.455610	0.005493	0.076404
C24	C	0.425034	0.000683	0.009345
N25	N	0.930393	-0.213377	0.033714
C26	C	0.976757	-0.253887	0.076529
C27	C	0.972760	-0.341342	0.072826
C28	C	0.922395	-0.388286	0.026311
C29	C	0.876030	-0.347770	-0.016509
C30	C	0.880032	-0.260317	-0.012810
C31	C	0.907897	-0.652499	0.012902
C32	C	0.903897	-0.739958	0.009208
C33	C	1.000628	-0.733523	0.098542
C34	C	1.004622	-0.646069	0.102241
C35	C	0.958260	-0.605561	0.059417
C36	C	0.918306	-0.477679	0.022526
C37	C	0.962353	-0.516170	0.063198
C38	C	1.085809	0.001939	0.026970
C39	C	1.174158	0.001615	0.022383
C40	C	0.945822	-0.007330	-0.102205
C41	C	0.944062	-0.013619	-0.189939
N42	N	0.950260	0.219533	0.052023
C43	C	0.946714	0.059159	-0.227949
C44	C	0.945056	0.053246	-0.310384
C45	C	0.940752	-0.025445	-0.354808
C46	C	0.938097	-0.098228	-0.316793
C47	C	0.939750	-0.092315	-0.234358
C48	C	0.935583	-0.047088	-0.603867
C49	C	0.933933	-0.052996	-0.686307
C50	C	0.940890	0.098480	-0.679892
C51	C	0.942547	0.104386	-0.597457
C52	C	0.939889	0.031603	-0.559448
C53	C	0.939059	-0.031490	-0.439071
C54	C	0.941576	0.037649	-0.475186
C55	C	0.934826	0.013487	0.187948
C56	C	0.936585	0.019782	0.275683
H57	H	0.414211	0.009869	0.137390
O58	O	0.517815	0.016036	0.223372
H59	H	0.531865	0.075111	0.259822
H60	H	0.935557	-0.095561	-0.475251
O61	O	0.947191	0.189259	-0.549540
H62	H	0.893922	0.196347	-0.500999
H63	H	0.715695	-0.004899	-0.068222
O64	O	0.863985	-0.528316	-0.027641
H65	H	0.832417	-0.485460	-0.056798
O66	O	1.022768	-0.385033	0.119005
H67	H	0.982883	-0.421650	0.162474
O68	O	0.821707	-0.398392	-0.066685
H69	H	0.777186	-0.435301	-0.027485
H70	H	0.937579	-0.151579	-0.203410
H71	H	0.862879	-0.778177	-0.028670
H72	H	0.198787	-0.007883	-0.109999
O73	O	1.050636	-0.777211	0.144724
H74	H	1.114970	-0.761955	0.123828
H75	H	0.164947	0.011055	0.153969
O76	O	1.016674	-0.465542	0.113367
H77	H	0.998721	-0.477707	0.177098
H78	H	0.930424	-0.117079	-0.722476
H79	H	0.934588	-0.162301	-0.352969
O80	O	0.556596	-0.005682	-0.079051
H81	H	0.579609	0.048373	-0.112378
O82	O	0.946214	0.122523	-0.427277
H83	H	1.001327	0.128061	-0.400394
O84	O	0.951348	0.144036	-0.180036
H85	H	1.006884	0.178448	-0.205148
O86	O	0.932736	-0.125586	-0.562879
H87	H	0.929480	-0.181296	-0.607625
H88	H	0.349391	-0.008457	-0.117830
H89	H	0.681856	0.014054	0.195749
H90	H	0.870146	-0.619528	-0.021968
H91	H	0.315541	0.010511	0.146143
H92	H	0.466427	-0.003689	-0.051640
H93	H	0.947219	0.112510	-0.341328
O94	O	1.031079	-0.203255	0.126699
H95	H	1.062651	-0.246121	0.155842
O96	O	1.058939	-0.595435	0.152415
H97	H	1.090510	-0.638297	0.181564
H98	H	0.842277	-0.227336	-0.047674
H99	H	0.943053	0.157736	-0.710848
