data_functionalizedCrystal
_audit_creation_method	'MofGen! by Chris Wilmer'
_symmetry_space_group_name_H-M	'P1'
_symmetry_Int_Tables_number	1
_symmetry_cell_setting	triclinic
loop_
_symmetry_equiv_pos_as_xyz
  x,y,z
_cell_length_a	19.077236
_cell_length_b	19.121063
_cell_length_c	19.077271
_cell_angle_alpha	85.379098
_cell_angle_beta	90.102669
_cell_angle_gamma	94.855924
loop_
_atom_site_label
_atom_site_type_symbol
_atom_site_fract_x
_atom_site_fract_y
_atom_site_fract_z
Zn1	Zn	1.046830	-0.255950	0.451003
Zn2	Zn	1.546830	0.244050	0.951003
Zn3	Zn	1.046472	-0.368862	0.338114
Zn4	Zn	1.546472	0.131138	0.838114
Zn5	Zn	0.934087	-0.255548	0.328768
Zn6	Zn	1.434087	0.244452	0.828768
Zn7	Zn	0.923851	-0.378295	0.451237
Zn8	Zn	1.423851	0.121705	0.951237
O9	O	0.987810	-0.314664	0.392281
O10	O	1.487810	0.185336	0.892281
O11	O	1.145284	-0.267149	0.439842
O12	O	1.645284	0.232851	0.939842
O13	O	1.035698	-0.349714	0.238376
O14	O	1.535698	0.150286	0.738376
O15	O	0.953476	-0.156977	0.340973
O16	O	1.453476	0.343023	0.840973
O17	O	1.145021	-0.350105	0.356903
O18	O	1.645021	0.149895	0.856903
O19	O	1.036308	-0.157273	0.430779
O20	O	1.536308	0.342727	0.930779
O21	O	0.953128	-0.266463	0.231509
O22	O	1.453128	0.233537	0.731509
O23	O	0.834228	-0.275610	0.341200
O24	O	1.334228	0.224390	0.841200
O25	O	0.936031	-0.366182	0.549704
O26	O	1.436031	0.133818	1.049704
O27	O	0.826708	-0.365791	0.431178
O28	O	1.326708	0.134209	0.931178
O29	O	1.026383	-0.276296	0.549533
O30	O	1.526383	0.223704	1.049533
O31	O	1.025773	-0.468737	0.357130
O32	O	1.525773	0.031263	0.857130
O33	O	0.935684	-0.475667	0.440241
O34	O	1.435684	0.024333	0.940241
C35	C	0.804928	-0.321681	0.385201
C36	C	1.304928	0.178319	0.885201
C37	C	0.726688	-0.324701	0.382189
C38	C	1.226688	0.175299	0.882189
C39	C	0.690063	-0.283003	0.424028
C40	C	1.190063	0.216997	0.924028
C41	C	0.616549	-0.285837	0.421192
C42	C	1.116549	0.214163	0.921192
C43	C	0.579662	-0.330372	0.376521
C44	C	1.079662	0.169628	0.876521
C45	C	0.616293	-0.372071	0.334677
C46	C	1.116293	0.127929	0.834677
C47	C	0.689805	-0.369233	0.337510
C48	C	1.189805	0.130767	0.837510
C49	C	0.359788	-0.343479	0.363407
C50	C	0.859788	0.156521	0.863407
C51	C	0.286270	-0.346315	0.360579
C52	C	0.786270	0.153685	0.860579
C53	C	0.286532	-0.260080	0.447093
C54	C	0.786532	0.239920	0.947093
C55	C	0.360046	-0.257249	0.449925
C56	C	0.860046	0.242751	0.949925
C57	C	0.396670	-0.298945	0.408079
C58	C	0.896670	0.201055	0.908079
N59	N	0.504519	-0.333271	0.373622
N60	N	1.004519	0.166729	0.873622
N61	N	0.471812	-0.296042	0.410974
N62	N	0.971812	0.203958	0.910974
C63	C	0.979598	-0.497774	0.399741
C64	C	1.479598	0.002226	0.899741
C65	C	0.976148	-0.576108	0.402958
C66	C	1.476148	-0.076108	0.902958
C67	C	1.021465	-0.609278	0.361237
C68	C	1.521465	-0.109278	0.861237
C69	C	1.018224	-0.682882	0.364267
C70	C	1.518224	-0.182882	0.864267
C71	C	0.969662	-0.723313	0.409016
C72	C	1.469662	-0.223313	0.909016
C73	C	0.924343	-0.690138	0.450741
C74	C	1.424343	-0.190138	0.950741
C75	C	0.927588	-0.616536	0.447714
C76	C	1.427588	-0.116536	0.947714
C77	C	0.957520	-0.945726	0.420322
C78	C	1.457520	-0.445726	0.920322
C79	C	0.954278	-1.019332	0.423344
C80	C	1.454278	-0.519332	0.923344
C81	C	1.048160	-1.012071	0.336871
C82	C	1.548160	-0.512071	0.836871
C83	C	1.051397	-0.938467	0.333844
C84	C	1.551397	-0.438467	0.833844
C85	C	1.006081	-0.905299	0.375573
C86	C	1.506081	-0.405299	0.875573
C87	C	0.966347	-0.798548	0.412113
C88	C	1.466347	-0.298548	0.912113
C89	C	1.009400	-0.830066	0.372479
C90	C	1.509400	-0.330066	0.872479
C91	C	1.171407	-0.307620	0.399389
C92	C	1.671407	0.192380	0.899389
C93	C	1.249645	-0.304618	0.402418
C94	C	1.749645	0.195382	0.902418
C95	C	0.980106	-0.322336	0.575872
C96	C	1.480106	0.177664	1.075872
C97	C	0.976822	-0.325605	0.654108
C98	C	1.476822	0.174395	1.154108
C99	C	0.996073	-0.130838	0.384808
C100	C	1.496073	0.369162	0.884808
C101	C	0.999595	-0.052503	0.381623
C102	C	1.499595	0.447497	0.881623
C103	C	1.022319	-0.280345	0.690775
C104	C	1.522319	0.219655	1.190775
C105	C	1.019225	-0.283414	0.764285
C106	C	1.519225	0.216586	1.264285
C107	C	0.970638	-0.331749	0.801128
C108	C	1.470638	0.168251	1.301128
C109	C	0.925137	-0.377011	0.764455
C110	C	1.425137	0.122989	1.264455
C111	C	0.928227	-0.373938	0.690946
C112	C	1.428227	0.126062	1.190946
C113	C	0.956348	-0.345956	1.020986
C114	C	1.456348	0.154044	1.520986
C115	C	0.953262	-0.349027	1.094501
C116	C	1.453262	0.150973	1.594501
C117	C	1.047350	-0.255429	1.094326
C118	C	1.547350	0.244571	1.594326
C119	C	1.050439	-0.252363	1.020815
C120	C	1.550439	0.247637	1.520815
C121	C	1.004935	-0.297623	0.984149
C122	C	1.504935	0.202377	1.484149
N123	N	0.967477	-0.334889	0.876267
N124	N	1.467477	0.165111	1.376267
N125	N	1.008094	-0.294479	0.909011
N126	N	1.508094	0.205521	1.409011
C127	C	0.995478	-0.307037	1.209404
C128	C	1.495478	0.192963	1.709404
C129	C	0.998759	-0.303767	1.131168
C130	C	1.498759	0.196233	1.631168
H131	H	0.256238	-0.382585	0.324202
H132	H	0.756238	0.117415	0.824202
Cl133	Cl	0.863297	-0.740967	0.507001
Cl134	Cl	1.363297	-0.240967	1.007001
H135	H	0.389599	-0.377432	0.329334
H136	H	0.889599	0.122568	0.829334
Cl137	Cl	0.905299	-0.849383	0.468365
Cl138	Cl	1.405299	-0.349383	0.968365
H139	H	0.390074	-0.220986	0.486304
H140	H	0.890074	0.279014	0.986304
Cl141	Cl	0.892172	-0.409791	1.140816
Cl142	Cl	1.392172	0.090209	1.640816
Cl143	Cl	0.569920	-0.428055	0.278514
Cl144	Cl	1.069920	0.071945	0.778514
Cl145	Cl	1.111523	-0.191598	0.974504
Cl146	Cl	1.611523	0.308402	1.474504
Cl147	Cl	1.070449	-0.779236	0.316229
Cl148	Cl	1.570449	-0.279236	0.816229
Cl149	Cl	0.870617	-0.574837	0.500169
Cl150	Cl	1.370617	-0.074837	1.000169
H151	H	0.914741	-1.052251	0.459796
H152	H	1.414741	-0.552251	0.959796
H153	H	1.055126	-0.709885	0.330293
H154	H	1.555126	-0.209885	0.830293
H155	H	0.920620	-0.918726	0.454298
H156	H	1.420620	-0.418726	0.954298
Cl157	Cl	0.735849	-0.421656	0.284911
Cl158	Cl	1.235849	0.078344	0.784911
H159	H	1.061006	-0.576363	0.324795
H160	H	1.561006	-0.076363	0.824795
Cl161	Cl	0.864053	-0.437772	0.810771
Cl162	Cl	1.364053	0.062228	1.310771
Cl163	Cl	0.736428	-0.227016	0.480192
Cl164	Cl	1.236428	0.272984	0.980192
H165	H	0.891172	-0.410787	0.661092
H166	H	1.391172	0.089213	1.161092
Cl167	Cl	0.570508	-0.233417	0.473794
Cl168	Cl	1.070508	0.266583	0.973794
H169	H	1.084396	-0.218580	1.124187
H170	H	1.584396	0.281420	1.624187
Cl171	Cl	0.240486	-0.207663	0.499695
Cl172	Cl	0.740486	0.292337	0.999695
H173	H	1.061886	-0.240988	0.660783
H174	H	1.561886	0.259012	1.160783
Cl175	Cl	1.076454	-0.226542	0.810380
Cl176	Cl	1.576454	0.273458	1.310380
H177	H	1.090940	-0.905549	0.297407
H178	H	1.590940	-0.405549	0.797407
H179	H	0.919305	-0.382820	0.991142
H180	H	1.419305	0.117180	1.491142
Cl181	Cl	1.105130	-1.053773	0.284420
Cl182	Cl	1.605130	-0.553773	0.784420
