data_functionalizedCrystal
_audit_creation_method	'MofGen! by Chris Wilmer'
_symmetry_space_group_name_H-M	'P1'
_symmetry_Int_Tables_number	1
_symmetry_cell_setting	triclinic
loop_
_symmetry_equiv_pos_as_xyz
  x,y,z
_cell_length_a	10.686220
_cell_length_b	13.032721
_cell_length_c	10.686551
_cell_angle_alpha	93.335252
_cell_angle_beta	90.308082
_cell_angle_gamma	100.973619
loop_
_atom_site_label
_atom_site_type_symbol
_atom_site_fract_x
_atom_site_fract_y
_atom_site_fract_z
Zn1	Zn	1.936448	-0.254400	-0.604121
Zn2	Zn	1.893610	-0.443269	-0.425347
Zn3	Zn	1.706806	-0.281093	-0.414818
Zn4	Zn	1.700338	-0.441154	-0.650778
O5	O	1.809301	-0.354979	-0.523766
O6	O	2.107756	-0.269167	-0.565287
O7	O	1.853609	-0.433812	-0.250383
O8	O	1.757902	-0.131524	-0.415997
O9	O	2.076284	-0.407929	-0.433943
O10	O	1.926619	-0.111912	-0.555077
O11	O	1.716365	-0.314662	-0.242647
O12	O	1.528957	-0.312612	-0.461238
O13	O	1.746880	-0.404324	-0.818156
O14	O	1.524205	-0.430208	-0.634597
O15	O	1.920348	-0.267117	-0.783878
O16	O	1.847338	-0.589017	-0.479184
O17	O	1.705342	-0.587463	-0.644807
C18	C	1.480689	-0.374078	-0.551838
C19	C	1.340107	-0.382271	-0.563881
C20	C	1.771027	-0.626100	-0.568225
C21	C	1.754773	-0.742077	-0.587276
C22	C	1.817856	-0.794509	-0.513873
C23	C	1.801058	-0.914377	-0.533562
C24	C	2.139195	-0.335806	-0.495585
C25	C	2.279776	-0.327636	-0.483576
C26	C	1.837671	-0.332507	-0.847280
C27	C	1.849761	-0.322931	-0.985142
C28	C	1.847760	-0.082796	-0.479158
C29	C	1.864150	0.033193	-0.460149
C30	C	1.781124	-0.377284	-0.201492
C31	C	1.769320	-0.386552	-0.063562
H32	H	1.884306	-0.750658	-0.436458
C33	C	1.355283	-0.255969	-0.378246
C34	C	1.323674	-0.275136	-0.240123
C35	C	1.399190	-0.203468	-0.134792
C36	C	1.506314	-0.112632	-0.167584
C37	C	1.537928	-0.093460	-0.305714
C38	C	1.462413	-0.165129	-0.411045
H39	H	1.244369	-0.342382	-0.215843
H40	H	1.375786	-0.217661	-0.032540
H41	H	1.562215	-0.059579	-0.089612
H42	H	1.617233	-0.026214	-0.329994
H43	H	1.485816	-0.150936	-0.513297
C44	C	1.955305	-0.239443	-1.036917
C45	C	2.055940	-0.272772	-1.124951
C46	C	2.161482	-0.189286	-1.176726
C47	C	2.166389	-0.072471	-1.140468
C48	C	2.065751	-0.039136	-1.052430
C49	C	1.960209	-0.122622	-1.000654
H50	H	2.052310	-0.359250	-1.151796
H51	H	2.235980	-0.213963	-1.241898
H52	H	2.244518	-0.010669	-1.178796
H53	H	2.069381	0.047342	-1.025585
H54	H	1.885711	-0.097945	-0.935483
H55	H	1.734615	-0.958225	-0.610990
C56	C	1.953921	-0.907586	-0.355548
C57	C	1.929271	-0.932915	-0.217847
C58	C	2.019040	-0.873695	-0.113249
C59	C	2.133459	-0.789147	-0.146350
C60	C	2.158114	-0.763814	-0.284058
C61	C	2.068345	-0.823034	-0.388657
H62	H	1.844566	-0.995506	-0.193338
H63	H	2.000788	-0.892449	-0.011308
H64	H	2.199911	-0.745309	-0.068920
H65	H	2.242818	-0.701223	-0.308567
H66	H	2.086597	-0.804280	-0.490597
C67	C	1.264595	-0.453942	-0.669216
C68	C	1.119304	-0.462322	-0.681523
C69	C	1.043793	-0.533991	-0.786856
C70	C	1.113572	-0.597281	-0.879881
C71	C	1.258870	-0.588903	-0.867578
C72	C	1.334382	-0.517234	-0.762245
H73	H	1.067643	-0.415469	-0.612657
H74	H	0.936233	-0.540193	-0.795963
H75	H	1.057673	-0.650335	-0.957855
H76	H	1.310532	-0.635756	-0.936444
H77	H	1.441942	-0.511033	-0.753138
C78	C	1.665007	-0.801307	-0.691868
C79	C	1.550593	-0.885857	-0.658761
C80	C	1.460825	-0.945084	-0.763356
C81	C	1.485472	-0.919761	-0.901059
C82	C	1.599892	-0.835207	-0.934173
C83	C	1.689660	-0.775980	-0.829578
H84	H	1.532343	-0.904606	-0.556819
H85	H	1.376123	-1.007677	-0.738842
H86	H	1.419020	-0.963605	-0.978487
H87	H	1.618142	-0.816458	-1.036115
H88	H	1.774361	-0.713388	-0.854092
H89	H	1.691206	-0.448349	-1.025232
