data_functionalizedCrystal
_audit_creation_method	'MofGen! by Chris Wilmer'
_symmetry_space_group_name_H-M	'P1'
_symmetry_Int_Tables_number	1
_symmetry_cell_setting	triclinic
loop_
_symmetry_equiv_pos_as_xyz
  x,y,z
_cell_length_a	16.109301
_cell_length_b	16.109318
_cell_length_c	15.186229
_cell_angle_alpha	89.999617
_cell_angle_beta	89.994299
_cell_angle_gamma	83.465022
loop_
_atom_site_label
_atom_site_type_symbol
_atom_site_fract_x
_atom_site_fract_y
_atom_site_fract_z
O1	O	0.106935	1.103122	-0.073158
O2	O	0.120220	0.861062	-0.073176
O3	O	-0.007453	0.988742	-0.073158
O4	O	0.234608	0.975443	-0.073177
O5	O	-0.007456	0.988732	0.073300
O6	O	0.120217	0.861052	0.073281
O7	O	0.106932	1.103112	0.073299
Zn8	Zn	0.113574	0.982081	0.096543
Zn9	Zn	0.113578	0.982094	-0.096420
O10	O	0.234605	0.975433	0.073281
C11	C	0.119677	0.830083	0.000050
C12	C	0.118057	0.737788	0.000043
C13	C	0.112823	0.438720	-0.079774
C14	C	0.114341	0.525441	-0.079780
C15	C	0.114326	0.525449	0.079896
C16	C	0.112803	0.438730	0.079900
C17	C	0.112056	0.395367	0.000063
C18	C	0.115096	0.568807	0.000052
C19	C	0.116742	0.662835	0.000047
C20	C	0.110409	0.301334	0.000068
C21	C	-0.038430	0.988198	0.000071
C22	C	-0.130725	0.986583	0.000072
C23	C	-0.352993	1.058590	0.000064
C24	C	-0.439713	1.057066	0.000057
C25	C	-0.419848	0.905579	0.000049
C26	C	-0.333130	0.907104	0.000050
C27	C	-0.299704	0.983612	0.000062
C28	C	-0.473144	0.980563	0.000053
C29	C	-0.567170	0.978910	0.000045
C30	C	-0.205672	0.985265	0.000068
C31	C	0.265581	0.975976	0.000050
C32	C	0.357877	0.977592	0.000043
C33	C	0.107474	1.134092	0.000071
C34	C	0.109095	1.226387	0.000072
N35	N	0.113571	0.982078	0.228236
N36	N	0.113574	0.982103	-0.228113
C37	C	0.057056	1.038638	0.546163
C38	C	0.057056	1.038635	0.453973
C39	C	0.170095	0.925541	0.453967
C40	C	0.170098	0.925548	0.546155
C41	C	0.113574	0.982095	0.592250
C42	C	0.113571	0.982086	0.407873
C43	C	0.113572	0.982083	0.307916
C44	C	0.113574	0.982099	0.692213
H45	H	0.114965	0.560735	-0.144791
F46	F	0.230258	0.865368	0.595208
F47	F	0.115128	0.571606	0.164860
F48	F	-0.496424	1.136869	0.000057
H49	H	0.112214	0.403416	-0.144784
H50	H	0.011036	1.084678	0.416451
F51	F	0.230247	0.865360	0.404903
H52	H	-0.447074	0.843288	0.000040
F53	F	0.111984	0.392589	0.164879
F54	F	-0.317422	1.140017	0.000076
H55	H	-0.289740	0.846043	0.000045
H56	H	0.011032	1.084683	0.583691
