data_functionalizedCrystal
_audit_creation_method	'MofGen! by Chris Wilmer'
_symmetry_space_group_name_H-M	'P1'
_symmetry_Int_Tables_number	1
_symmetry_cell_setting	triclinic
loop_
_symmetry_equiv_pos_as_xyz
  x,y,z
_cell_length_a	25.639233
_cell_length_b	18.215407
_cell_length_c	18.215405
_cell_angle_alpha	89.974667
_cell_angle_beta	89.980739
_cell_angle_gamma	90.013543
loop_
_atom_site_label
_atom_site_type_symbol
_atom_site_fract_x
_atom_site_fract_y
_atom_site_fract_z
Zn1	Zn	-0.295620	-1.125026	-0.293065
Zn2	Zn	0.204380	-0.625026	0.206935
Zn3	Zn	-0.208184	-1.124948	-0.416112
Zn4	Zn	0.291816	-0.624948	0.083888
Zn5	Zn	-0.208197	-1.001972	-0.293065
Zn6	Zn	0.291803	-0.501972	0.206935
Zn7	Zn	-0.295587	-1.001925	-0.416095
Zn8	Zn	0.204413	-0.501925	0.083905
O9	O	-0.251897	-1.063468	-0.354584
O10	O	0.248103	-0.563468	0.145416
O11	O	-0.284030	-1.228000	-0.309395
O12	O	0.215970	-0.728000	0.190605
O13	O	-0.135020	-1.108622	-0.399796
O14	O	0.364980	-0.608622	0.100204
O15	O	-0.219814	-1.018348	-0.190081
O16	O	0.280186	-0.518348	0.309919
O17	O	-0.219791	-1.227943	-0.399797
O18	O	0.280209	-0.727943	0.100203
O19	O	-0.284043	-1.108755	-0.190081
O20	O	0.215957	-0.608755	0.309919
O21	O	-0.135030	-1.018273	-0.309394
O22	O	0.364970	-0.518273	0.190606
O23	O	-0.219782	-0.898982	-0.309378
O24	O	0.280218	-0.398982	0.190622
O25	O	-0.368756	-1.018267	-0.399768
O26	O	0.131244	-0.518267	0.100232
O27	O	-0.283986	-0.898947	-0.399768
O28	O	0.216014	-0.398947	0.100232
O29	O	-0.368781	-1.108709	-0.309378
O30	O	0.131219	-0.608709	0.190622
O31	O	-0.219758	-1.108576	-0.519094
O32	O	0.280242	-0.608576	-0.019094
O33	O	-0.283973	-1.018191	-0.519082
O34	O	0.216027	-0.518191	-0.019082
C35	C	-0.251872	-1.063390	-0.545791
C36	C	0.248128	-0.563390	-0.045791
C37	C	-0.251879	-1.063424	-0.627590
C38	C	0.248121	-0.563424	-0.127590
C39	C	-0.388270	-1.063492	-0.354571
C40	C	0.111730	-0.563492	0.145429
C41	C	-0.446384	-1.063502	-0.354566
C42	C	0.053616	-0.563502	0.145434
C43	C	-0.251882	-0.872262	-0.354572
C44	C	0.248118	-0.372262	0.145428
C45	C	-0.251888	-0.790463	-0.354584
C46	C	0.248112	-0.290463	0.145416
C47	C	-0.806766	-1.110655	-0.307360
C48	C	-0.306766	-0.610655	0.192640
C49	C	-0.861370	-1.110664	-0.307340
C50	C	-0.361370	-0.610664	0.192660
O51	O	-0.889622	-1.150695	-0.267290
O52	O	-0.389622	-0.650695	0.232710
N53	N	-0.888667	-1.063583	-0.354393
N54	N	-0.388667	-0.563583	0.145607
C55	C	-0.861356	-1.016484	-0.401465
C56	C	-0.361356	-0.516484	0.098535
O57	O	-0.889588	-0.976439	-0.441486
O58	O	-0.389588	-0.476439	0.058514
C59	C	-0.806753	-1.016472	-0.401481
C60	C	-0.306753	-0.516472	0.098519
C61	C	-0.779459	-1.063561	-0.354430
C62	C	-0.279459	-0.563561	0.145570
C63	C	-0.779472	-1.157739	-0.260312
C64	C	-0.279472	-0.657739	0.239688
C65	C	-0.724871	-1.157731	-0.260333
C66	C	-0.224871	-0.657731	0.239667
C67	C	-0.697565	-1.110638	-0.307403
C68	C	-0.197565	-0.610638	0.192597
C69	C	-0.724859	-1.063553	-0.354451
C70	C	-0.224859	-0.563553	0.145549
C71	C	-0.779444	-0.969371	-0.448549
C72	C	-0.279444	-0.469371	0.051451
C73	C	-0.724836	-0.969362	-0.448560
C74	C	-0.224836	-0.469362	0.051440
C75	C	-0.697543	-1.016451	-0.401509
C76	C	-0.197543	-0.516451	0.098491
C77	C	-0.642951	-1.016452	-0.401543
C78	C	-0.142951	-0.516452	0.098457
N79	N	-0.615655	-1.063533	-0.354489
N80	N	-0.115655	-0.563533	0.145511
C81	C	-0.642961	-1.110626	-0.307419
C82	C	-0.142961	-0.610626	0.192581
C83	C	-0.976027	-1.016513	-0.401427
C84	C	-0.476027	-0.516513	0.098573
C85	C	-1.030629	-1.016528	-0.401415
C86	C	-0.530629	-0.516528	0.098585
C87	C	-1.030639	-1.110707	-0.307288
C88	C	-0.530639	-0.610707	0.192712
C89	C	-0.976036	-1.110695	-0.307305
C90	C	-0.476036	-0.610695	0.192695
C91	C	-0.948730	-1.063594	-0.354373
C92	C	-0.448730	-0.563594	0.145627
C93	C	-0.528296	-1.110605	-0.307468
C94	C	-0.028296	-0.610605	0.192532
C95	C	-0.473691	-1.110595	-0.307496
C96	C	0.026309	-0.610595	0.192504
C97	C	-0.473686	-1.016414	-0.401620
C98	C	0.026314	-0.516414	0.098380
C99	C	-0.528286	-1.016427	-0.401595
C100	C	-0.028286	-0.516427	0.098405
C101	C	-0.555590	-1.063525	-0.354513
C102	C	-0.055590	-0.563525	0.145487
O103	O	-0.614664	-0.976438	-0.441569
O104	O	-0.114664	-0.476438	0.058431
O105	O	-0.614723	-1.150658	-0.267399
O106	O	-0.114723	-0.650658	0.232601
C107	C	-0.116054	-1.063487	-0.354544
C108	C	0.383946	-0.563487	0.145456
C109	C	-0.057941	-1.063619	-0.354342
C110	C	0.442059	-0.563619	0.145658
C111	C	-0.251912	-1.255421	-0.354598
C112	C	0.248088	-0.755421	0.145402
C113	C	-0.251919	-1.337220	-0.354603
C114	C	0.248081	-0.837220	0.145397
C115	C	-0.285277	-0.602270	-0.401724
C116	C	0.214723	-0.102270	0.098276
C117	C	-0.285284	-0.525411	-0.401726
C118	C	0.214716	-0.025411	0.098274
C119	C	-0.218528	-0.525418	-0.307458
C120	C	0.281472	-0.025418	0.192542
C121	C	-0.218525	-0.602275	-0.307452
C122	C	0.281475	-0.102275	0.192548
C123	C	-0.251898	-0.640699	-0.354590
C124	C	0.248102	-0.140699	0.145410
C125	C	-0.251908	-0.486983	-0.354597
C126	C	0.248092	0.013017	0.145403
C127	C	-0.251915	-0.403649	-0.354600
C128	C	0.248085	0.096351	0.145400
C129	C	-0.251892	-0.724038	-0.354587
C130	C	0.248108	-0.224038	0.145413
C131	C	-0.218504	-1.110598	-0.815765
C132	C	0.281496	-0.610598	-0.315765
C133	C	-0.218516	-1.110631	-0.892624
C134	C	0.281484	-0.610631	-0.392624
C135	C	-0.285328	-1.016432	-0.892651
C136	C	0.214672	-0.516432	-0.392651
C137	C	-0.285318	-1.016403	-0.815794
C138	C	0.214682	-0.516403	-0.315794
C139	C	-0.251902	-1.063485	-0.777353
C140	C	0.248098	-0.563485	-0.277353
C141	C	-0.251925	-1.063547	-0.931069
C142	C	0.248075	-0.563547	-0.431069
C143	C	-0.251939	-1.063582	-1.014403
C144	C	0.248061	-0.563582	-0.514403
C145	C	-0.251889	-1.063451	-0.694014
C146	C	0.248111	-0.563451	-0.194014
C147	C	-0.251934	-1.063566	-0.162631
C148	C	0.248066	-0.563566	0.337369
C149	C	-0.251949	-1.063608	-0.080832
C150	C	0.248051	-0.563608	0.419168
H151	H	-0.550521	-1.148955	-0.269128
H152	H	-0.050521	-0.648955	0.230872
C153	C	-0.181775	-1.162452	-0.934875
C154	C	0.318225	-0.662452	-0.434875
H155	H	-0.161871	-1.190482	-0.900971
H156	H	0.338129	-0.690482	-0.400971
H157	H	-0.201799	-1.194510	-0.964815
H158	H	0.298201	-0.694510	-0.464815
H159	H	-0.158978	-1.134329	-0.964896
H160	H	0.341022	-0.634329	-0.464896
C161	C	-1.060681	-1.162506	-0.255507
C162	C	-0.560681	-0.662506	0.244493
H163	H	-1.036608	-1.190553	-0.227487
H164	H	-0.536608	-0.690553	0.272513
H165	H	-1.081982	-1.134371	-0.223437
H166	H	-0.581982	-0.634371	0.276563
H167	H	-1.081982	-1.194563	-0.283659
H168	H	-0.581982	-0.694563	0.216341
C169	C	-0.321999	-0.483138	-0.453574
C170	C	0.178001	0.016862	0.046426
H171	H	-0.317227	-0.431861	-0.446822
H172	H	0.182773	0.068139	0.053178
H173	H	-0.314284	-0.495711	-0.503004
H174	H	0.185716	0.004289	-0.003004
H175	H	-0.357143	-0.495756	-0.442870
H176	H	0.142857	0.004244	0.057130
H177	H	-0.550510	-0.978090	-0.439915
H178	H	-0.050510	-0.478090	0.060085
H179	H	-0.312533	-0.978098	-0.923959
H180	H	0.187467	-0.478098	-0.423959
C181	C	-0.809501	-1.209551	-0.208535
C182	C	-0.309501	-0.709551	0.291465
H183	H	-0.785418	-1.237590	-0.180526
H184	H	-0.285418	-0.737590	0.319474
H185	H	-0.830805	-1.181432	-0.176455
H186	H	-0.330805	-0.681432	0.323545
H187	H	-0.830797	-1.241612	-0.236688
H188	H	-0.330797	-0.741612	0.263312
H189	H	-0.191343	-0.633565	-0.269065
H190	H	0.308657	-0.133565	0.230935
H191	H	-0.191355	-0.494124	-0.269082
H192	H	0.308645	0.005876	0.230918
C193	C	-0.443668	-1.162392	-0.255737
C194	C	0.056332	-0.662392	0.244263
H195	H	-0.407237	-1.155650	-0.262492
H196	H	0.092763	-0.655650	0.237508
H197	H	-0.452619	-1.151648	-0.206287
H198	H	0.047381	-0.651648	0.293713
H199	H	-0.452622	-1.211836	-0.266513
H200	H	0.047378	-0.711836	0.233487
H201	H	-0.312454	-0.633552	-0.440104
H202	H	0.187546	-0.133552	0.059896
C203	C	-0.443641	-0.964612	-0.453389
C204	C	0.056359	-0.464612	0.046611
H205	H	-0.407213	-0.971349	-0.446652
H206	H	0.092787	-0.471349	0.053348
H207	H	-0.452583	-0.975349	-0.502836
H208	H	0.047417	-0.475349	-0.002836
H209	H	-0.452586	-0.915171	-0.442601
H210	H	0.047414	-0.415171	0.057399
C211	C	-0.181754	-1.162393	-0.773483
C212	C	0.318246	-0.662393	-0.273483
H213	H	-0.161868	-1.190461	-0.807370
H214	H	0.338132	-0.690461	-0.307370
H215	H	-0.158948	-1.134257	-0.743539
H216	H	0.341052	-0.634257	-0.243539
H217	H	-0.201777	-1.194428	-0.743462
H218	H	0.298223	-0.694428	-0.243462
H219	H	-0.702607	-0.930998	-0.486882
H220	H	-0.202607	-0.430998	0.013118
H221	H	-0.702653	-1.196075	-0.222018
H222	H	-0.202653	-0.696075	0.277982
C223	C	-0.946017	-1.162484	-0.255541
C224	C	-0.446017	-0.662484	0.244459
H225	H	-0.970105	-1.190527	-0.227504
H226	H	-0.470105	-0.690527	0.272496
H227	H	-0.924713	-1.194533	-0.283693
H228	H	-0.424713	-0.694533	0.216307
H229	H	-0.924722	-1.134338	-0.223474
H230	H	-0.424722	-0.634338	0.276526
C231	C	-1.060647	-0.964735	-0.453176
C232	C	-0.560647	-0.464735	0.046824
H233	H	-1.036559	-0.936686	-0.481206
H234	H	-0.536559	-0.436686	0.018794
H235	H	-1.081950	-0.992869	-0.485238
H236	H	-0.581950	-0.492869	0.014762
H237	H	-1.081944	-0.932682	-0.425011
H238	H	-0.581944	-0.432682	0.074989
H239	H	-0.312517	-0.978038	-0.784516
H240	H	0.187483	-0.478038	-0.284516
C241	C	-0.945995	-0.964715	-0.453222
C242	C	-0.445995	-0.464715	0.046778
H243	H	-0.970076	-0.936688	-0.481247
H244	H	-0.470076	-0.436688	0.018753
H245	H	-0.924691	-0.932653	-0.425089
H246	H	-0.424691	-0.432653	0.074911
H247	H	-0.924699	-0.992858	-0.485299
H248	H	-0.424699	-0.492858	0.014701
H249	H	-0.801657	-0.931025	-0.486863
H250	H	-0.301657	-0.431025	0.013137
