data_functionalizedCrystal
_audit_creation_method	'MofGen! by Chris Wilmer'
_symmetry_space_group_name_H-M	'P1'
_symmetry_Int_Tables_number	1
_symmetry_cell_setting	triclinic
loop_
_symmetry_equiv_pos_as_xyz
  x,y,z
_cell_length_a	17.699097
_cell_length_b	17.019294
_cell_length_c	16.176319
_cell_angle_alpha	86.114226
_cell_angle_beta	89.988988
_cell_angle_gamma	83.341215
loop_
_atom_site_label
_atom_site_type_symbol
_atom_site_fract_x
_atom_site_fract_y
_atom_site_fract_z
O1	O	1.004141	0.099807	-0.075919
O2	O	0.783773	0.112775	-0.076828
O3	O	0.900104	-0.008554	-0.068195
O4	O	0.887810	0.221135	-0.084553
O5	O	0.900088	-0.008561	0.069299
O6	O	0.783757	0.112767	0.060665
O7	O	1.004125	0.099799	0.061575
Cu8	Cu	0.893940	0.106282	0.073674
Cu9	Cu	0.893959	0.106291	-0.088928
O10	O	0.887794	0.221128	0.052941
C11	C	0.755568	0.112304	-0.008047
C12	C	0.671549	0.110905	-0.007942
C13	C	0.155834	0.102332	-0.082312
C14	C	0.234779	0.103641	-0.082401
C15	C	0.274237	0.104293	-0.007497
C16	C	0.234746	0.103628	0.067502
C17	C	0.155803	0.102313	0.067591
C18	C	0.553114	0.108930	0.067146
C19	C	0.632062	0.110247	0.067052
C20	C	0.632090	0.110259	-0.082846
C21	C	0.553147	0.108944	-0.082757
C22	C	0.513664	0.108274	-0.007758
C23	C	0.428063	0.106853	-0.007662
C24	C	0.359835	0.105720	-0.007592
C25	C	0.899630	-0.037946	0.002644
C26	C	0.898231	-0.125514	0.008875
C27	C	0.897584	-0.166645	-0.063144
C28	C	0.896265	-0.248924	-0.057287
C29	C	0.895598	-0.290071	0.020592
C30	C	0.896242	-0.248934	0.092617
C31	C	0.897556	-0.166656	0.086758
C32	C	0.891626	-0.538497	0.042030
C33	C	0.890314	-0.620781	0.047884
C34	C	0.890335	-0.620765	-0.102020
C35	C	0.891654	-0.538486	-0.107872
C36	C	0.892294	-0.497356	-0.035847
C37	C	0.894252	-0.374173	0.026581
C38	C	0.893635	-0.413254	-0.041838
C39	C	1.032330	0.100270	-0.007209
C40	C	1.116349	0.101669	-0.007319
C41	C	0.888268	0.250520	-0.017899
C42	C	0.889667	0.338088	-0.024136
N43	N	0.893932	0.106275	0.188040
N44	N	0.893972	0.106292	-0.203293
C45	C	0.945459	0.052573	0.235126
C46	C	0.945463	0.052572	0.321673
C47	C	0.893943	0.106278	0.361132
C48	C	0.842410	0.159983	0.314041
C49	C	0.842403	0.159979	0.227495
C50	C	0.842436	0.159998	0.663068
C51	C	0.842448	0.159999	0.749619
C52	C	0.945495	0.052591	0.757245
C53	C	0.945489	0.052587	0.670700
C54	C	0.893954	0.106289	0.623616
C55	C	0.893949	0.106288	0.529772
C56	C	0.893950	0.106283	0.454975
H57	H	0.266925	0.104177	-0.143468
O58	O	0.792353	0.212242	0.617460
C59	C	0.746874	0.259631	0.670851
H60	H	0.777911	0.260483	0.732470
H61	H	0.690683	0.234087	0.681899
C62	C	0.693053	0.343703	0.555327
C63	C	0.731176	0.344756	0.631007
H64	H	0.683366	0.396211	0.530748
H65	H	0.723690	0.311775	0.519356
H66	H	0.646231	0.322413	0.564544
H67	H	0.778001	0.366036	0.621787
H68	H	0.700546	0.376690	0.666975
H69	H	0.894173	-0.379748	-0.105246
O70	O	0.514940	0.108277	-0.155591
C71	C	0.566718	0.109161	-0.221804
H72	H	0.626147	0.085135	-0.198119
H73	H	0.567109	0.172563	-0.249367
C74	C	0.469477	0.086448	-0.317988
C75	C	0.542468	0.056932	-0.288897
H76	H	0.454517	0.054234	-0.359376
H77	H	0.434592	0.085855	-0.273379
H78	H	0.469812	0.139282	-0.340950
H79	H	0.542129	0.004103	-0.265926
H80	H	0.577352	0.057515	-0.333504
H81	H	0.800444	0.203708	0.189159
O82	O	0.117348	0.101774	0.140379
C83	C	0.063049	0.169313	0.140064
H84	H	0.048355	0.191891	0.073383
H85	H	0.087410	0.217638	0.173614
C86	C	0.008728	0.119582	0.266375
C87	C	-0.009325	0.147308	0.184475
H88	H	-0.035915	0.106010	0.293773
H89	H	0.045312	0.074081	0.266590
H90	H	0.029030	0.159857	0.294323
H91	H	-0.029618	0.107029	0.156526
H92	H	-0.045914	0.192802	0.184257
O93	O	0.792257	0.212072	0.352340
C94	C	0.717352	0.199350	0.332109
H95	H	0.717055	0.136192	0.312823
H96	H	0.695066	0.243101	0.278760
C97	C	0.666403	0.289243	0.431816
C98	C	0.666037	0.211668	0.408135
H99	H	0.634747	0.296844	0.478711
H100	H	0.716867	0.297817	0.445444
H101	H	0.647833	0.325693	0.387352
H102	H	0.684615	0.175220	0.452595
H103	H	0.615574	0.203089	0.394517
H104	H	0.123712	0.101807	-0.143309
H105	H	0.987415	0.008843	0.203004
H106	H	0.898131	-0.133150	-0.126561
H107	H	0.520978	0.108373	0.128216
O108	O	0.995598	0.000385	0.367285
C109	C	1.041063	-0.047023	0.313899
H110	H	1.041865	-0.014684	0.249898
H111	H	1.016569	-0.105602	0.308886
C112	C	1.121745	-0.103082	0.427419
C113	C	1.122736	-0.063359	0.348813
H114	H	1.172125	-0.113162	0.448956
H115	H	1.091113	-0.071144	0.463387
H116	H	1.101330	-0.151893	0.423230
H117	H	1.143142	-0.014545	0.353004
H118	H	1.153374	-0.095289	0.312846
O119	O	0.995459	0.000251	0.632487
C120	C	0.983184	-0.077778	0.659320
H121	H	0.922570	-0.078006	0.683105
H122	H	1.025113	-0.100963	0.711258
C123	C	1.069462	-0.131103	0.557129
C124	C	0.995013	-0.131384	0.586335
H125	H	1.076762	-0.164172	0.512110
H126	H	1.077734	-0.078534	0.539052
H127	H	1.104394	-0.150423	0.600417
H128	H	0.960083	-0.112056	0.543050
H129	H	0.986735	-0.183952	0.604403
H130	H	0.664247	0.110801	-0.143913
O131	O	0.995655	0.000491	0.802940
C132	C	1.070557	0.013208	0.780847
H133	H	1.070855	0.076367	0.752557
H134	H	1.092829	-0.030541	0.733720
C135	C	1.121522	-0.076696	0.893336
C136	C	1.121888	0.000880	0.858596
H137	H	1.153187	-0.084304	0.941293
H138	H	1.071059	-0.085266	0.908219
H139	H	1.140080	-0.113145	0.854055
H140	H	1.103322	0.037326	0.897873
H141	H	1.172349	0.009456	0.843721
H142	H	0.664186	0.110778	0.128052
H143	H	0.266880	0.104153	0.128491
O144	O	0.895705	-0.288765	-0.127329
C145	C	0.896579	-0.234805	-0.197321
H146	H	0.921435	-0.179456	-0.179274
H147	H	0.836041	-0.217683	-0.221622
C148	C	0.915203	-0.341740	-0.287497
C149	C	0.945738	-0.273762	-0.265332
H150	H	0.945524	-0.365770	-0.329451
H151	H	0.914612	-0.378094	-0.240342
H152	H	0.864756	-0.327461	-0.307742
H153	H	0.996181	-0.288042	-0.245078
H154	H	0.946339	-0.237411	-0.312485
O155	O	0.792363	0.212059	0.788051
C156	C	0.745722	0.169863	0.841125
H157	H	0.775944	0.108100	0.858482
H158	H	0.689790	0.164567	0.808171
C159	C	0.692386	0.290217	0.898849
C160	C	0.729508	0.214360	0.920173
H161	H	0.682381	0.317665	0.947609
H162	H	0.723807	0.318646	0.863090
H163	H	0.645780	0.285792	0.871386
H164	H	0.776116	0.218786	0.947626
H165	H	0.698094	0.185933	0.955939
O166	O	0.892122	-0.498591	-0.183577
C167	C	0.826275	-0.509738	-0.228306
H168	H	0.780153	-0.525996	-0.183224
H169	H	0.840318	-0.559594	-0.271432
C170	C	0.854329	-0.412634	-0.335177
C171	C	0.797679	-0.432597	-0.279806
H172	H	0.836691	-0.365052	-0.366948
H173	H	0.898693	-0.405126	-0.305045
H174	H	0.866026	-0.454187	-0.371108
H175	H	0.785989	-0.391048	-0.243871
H176	H	0.753312	-0.440096	-0.309934
O177	O	0.889826	-0.660692	-0.172009
C178	C	0.955650	-0.649624	-0.218424
H179	H	1.001816	-0.633357	-0.175742
H180	H	0.941600	-0.599801	-0.268688
C181	C	0.927470	-0.746787	-0.311307
C182	C	0.984173	-0.726815	-0.258883
H183	H	0.945063	-0.794400	-0.336267
H184	H	0.883121	-0.754242	-0.280039
H185	H	0.915767	-0.705262	-0.353187
H186	H	0.995868	-0.768335	-0.216998
H187	H	1.028525	-0.719368	-0.290145
H188	H	0.889767	-0.654280	0.111305
H189	H	0.892162	-0.505021	0.100679
O190	O	0.895494	-0.288976	0.168220
C191	C	0.829210	-0.327503	0.175464
H192	H	0.807176	-0.336805	0.111054
H193	H	0.783834	-0.289459	0.209748
C194	C	0.874929	-0.396989	0.303180
C195	C	0.847870	-0.408419	0.224071
H196	H	0.886437	-0.446900	0.333167
H197	H	0.919585	-0.371030	0.298302
H198	H	0.837111	-0.365283	0.331740
H199	H	0.885691	-0.440116	0.195509
H200	H	0.803221	-0.434385	0.228946
O201	O	0.898208	-0.126824	0.156801
C202	C	0.897314	-0.180779	0.226795
H203	H	0.920342	-0.242737	0.209239
H204	H	0.836477	-0.181151	0.249856
C205	C	0.919127	-0.079422	0.317379
C206	C	0.947416	-0.155519	0.295818
H207	H	0.950029	-0.063839	0.359958
H208	H	0.919726	-0.043070	0.270223
H209	H	0.868430	-0.079742	0.336592
H210	H	0.998108	-0.155196	0.276596
H211	H	0.946826	-0.191870	0.342973
O212	O	0.893516	-0.414224	0.102181
C213	C	0.827232	-0.452751	0.109427
H214	H	0.805188	-0.462040	0.045018
H215	H	0.781861	-0.414714	0.143726
C216	C	0.872968	-0.522261	0.237125
C217	C	0.845897	-0.533676	0.158016
H218	H	0.884480	-0.572178	0.267100
H219	H	0.917624	-0.496303	0.232245
H220	H	0.835155	-0.490562	0.265696
H221	H	0.883713	-0.565366	0.129442
H222	H	0.801248	-0.559642	0.162892
