data_functionalizedCrystal
_audit_creation_method	'MofGen! by Chris Wilmer'
_symmetry_space_group_name_H-M	'P1'
_symmetry_Int_Tables_number	1
_symmetry_cell_setting	triclinic
loop_
_symmetry_equiv_pos_as_xyz
  x,y,z
_cell_length_a	15.297327
_cell_length_b	12.594517
_cell_length_c	15.296721
_cell_angle_alpha	99.660900
_cell_angle_beta	107.319336
_cell_angle_gamma	99.706787
loop_
_atom_site_label
_atom_site_type_symbol
_atom_site_fract_x
_atom_site_fract_y
_atom_site_fract_z
Zn1	Zn	-0.461231	1.412482	-0.589842
Zn2	Zn	-0.589853	1.412361	-0.461236
Zn3	Zn	-0.434358	1.271746	-0.434359
Zn4	Zn	-0.616694	1.197210	-0.616679
O5	O	-0.525534	1.323450	-0.525529
O6	O	-0.478306	1.561406	-0.572799
O7	O	-0.546746	1.424851	-0.327547
O8	O	-0.307786	1.321660	-0.432504
O9	O	-0.572804	1.561316	-0.478313
O10	O	-0.327530	1.425057	-0.546737
O11	O	-0.432505	1.321542	-0.307800
O12	O	-0.458533	1.112919	-0.458527
O13	O	-0.618552	1.194623	-0.743243
O14	O	-0.592494	1.058158	-0.592477
O15	O	-0.504333	1.352783	-0.723526
O16	O	-0.723550	1.352576	-0.504336
O17	O	-0.743270	1.194506	-0.618539
C18	C	-0.767157	1.265464	-0.567286
C19	C	-0.870529	1.240747	-0.585182
C20	C	-0.525511	1.046920	-0.525498
C21	C	-0.525527	0.928608	-0.525511
C22	C	-1.120752	1.500467	-0.397947
C23	C	-1.023628	1.523690	-0.381129
C24	C	-0.985348	1.452957	-0.432141
C25	C	-1.044203	1.358995	-0.499973
C26	C	-1.141336	1.335765	-0.516788
C27	C	-1.005932	1.288255	-0.550982
C28	C	-1.064787	1.194293	-0.618814
C29	C	-1.161910	1.171068	-0.635626
C30	C	-1.200190	1.241801	-0.584614
C31	C	-0.908799	1.311485	-0.534167
C32	C	-0.929383	1.146783	-0.653008
C33	C	-1.026507	1.123560	-0.669826
C34	C	-0.452601	0.889101	-0.452760
C35	C	-0.533473	0.803438	-0.444553
C36	C	-0.444700	0.803459	-0.533741
C37	C	-0.606435	0.844503	-0.517268
C38	C	-0.517612	0.844535	-0.606485
C39	C	-0.598548	0.758882	-0.598321
C40	C	-0.282971	1.381686	-0.483629
C41	C	-0.179606	1.406503	-0.465774
C42	C	-0.567434	1.265402	-0.768067
C43	C	-0.585290	1.240666	-0.871423
C44	C	-0.525558	1.601059	-0.525560
C45	C	-0.525569	1.719360	-0.525574
C46	C	-0.653144	1.146695	-0.930242
C47	C	-0.669926	1.123454	-1.027351
C48	C	-0.618849	1.194177	-1.065648
C49	C	-0.550988	1.288145	-1.006828
C50	C	-0.534210	1.311393	-0.909711
C51	C	-0.499914	1.358875	-1.045117
C52	C	-0.432053	1.452843	-0.986297
C53	C	-0.415278	1.476087	-0.889189
C54	C	-0.466355	1.405364	-0.850892
C55	C	-0.516692	1.335627	-1.142234
C56	C	-0.397758	1.500325	-1.121703
C57	C	-0.380976	1.523566	-1.024595
C58	C	-0.483730	1.381349	-0.283923
C59	C	-0.465613	1.406354	-0.180522
H60	H	-0.860888	1.387989	-0.478937
H61	H	-0.510862	0.863119	-0.674909
H62	H	-0.325723	1.600076	-0.976690
H63	H	-0.540193	0.784891	-0.376103
H64	H	-0.452690	1.424277	-0.771818
H65	H	-0.360029	1.552609	-0.841301
H66	H	-0.571945	1.259117	-1.190117
H67	H	-0.694729	1.089128	-0.899051
H68	H	-0.975711	1.600192	-0.325900
H69	H	-0.660297	0.702857	-0.659882
H70	H	-0.725180	1.046946	-1.075236
H71	H	-1.279276	1.222900	-0.598306
H72	H	-0.356168	1.557914	-1.152884
H73	H	-1.074440	1.047055	-0.725056
H74	H	-0.906264	1.471870	-0.418443
H75	H	-0.376332	0.784895	-0.540646
H76	H	-0.674815	0.862902	-0.510256
H77	H	-1.209826	1.094549	-0.690849
H78	H	-0.632516	1.175248	-1.144719
H79	H	-1.151928	1.558043	-0.356415
H80	H	-0.898217	1.089184	-0.694544
H81	H	-0.390970	0.945300	-0.391180
