data_functionalizedCrystal
_audit_creation_method	'MofGen! by Chris Wilmer'
_symmetry_space_group_name_H-M	'P1'
_symmetry_Int_Tables_number	1
_symmetry_cell_setting	triclinic
loop_
_symmetry_equiv_pos_as_xyz
  x,y,z
_cell_length_a	13.635800
_cell_length_b	27.923497
_cell_length_c	17.982968
_cell_angle_alpha	83.135867
_cell_angle_beta	102.451960
_cell_angle_gamma	81.035752
loop_
_atom_site_label
_atom_site_type_symbol
_atom_site_fract_x
_atom_site_fract_y
_atom_site_fract_z
V1	V	1.996407	-0.067583	0.238054
O2	O	2.001869	0.002780	0.233006
O3	O	1.961335	-0.133556	0.236922
O4	O	1.969798	-0.066749	0.341651
O5	O	1.993347	-0.064490	0.127552
V6	V	2.239942	-0.059142	0.224777
O7	O	2.123146	-0.086098	0.267178
O8	O	2.338302	-0.040628	0.195652
O9	O	2.163411	0.006830	0.225908
O10	O	2.293178	-0.129505	0.229825
O11	O	2.301701	-0.062236	0.335278
O12	O	2.154948	-0.059977	0.121180
V13	V	2.496407	-0.067583	0.238054
O14	O	2.501869	0.002780	0.233006
O15	O	2.461335	-0.133556	0.236922
O16	O	2.469798	-0.066749	0.341651
O17	O	2.493347	-0.064490	0.127552
V18	V	2.739942	-0.059142	0.224777
O19	O	2.623146	-0.086098	0.267178
O20	O	2.838302	-0.040628	0.195652
O21	O	2.663411	0.006830	0.225908
O22	O	2.793178	-0.129505	0.229825
O23	O	2.801701	-0.062236	0.335278
O24	O	2.654948	-0.059977	0.121180
C25	C	1.881268	-0.149632	0.233295
C26	C	1.893220	-0.203567	0.233061
C27	C	1.950169	-0.530953	0.161700
C28	C	1.995121	-0.733659	0.160777
O29	O	1.986311	-0.753865	0.101278
N30	N	2.017984	-0.766066	0.230487
C31	C	2.029615	-0.747795	0.300432
O32	O	2.050102	-0.780010	0.359704
C33	C	1.984669	-0.545090	0.301354
C34	C	1.961796	-0.512685	0.231640
C35	C	1.927298	-0.498548	0.091991
C36	C	1.916056	-0.447875	0.092222
C37	C	1.927683	-0.429606	0.162162
C38	C	1.950554	-0.462011	0.231871
C39	C	1.996307	-0.526820	0.371299
C40	C	1.985071	-0.476140	0.371524
C41	C	1.962198	-0.443734	0.301809
C42	C	1.950938	-0.393069	0.302042
N43	N	1.928076	-0.360662	0.232333
C44	C	1.916449	-0.378930	0.162393
C45	C	2.053209	-0.854217	0.299943
C46	C	2.064443	-0.904893	0.299713
C47	C	2.029951	-0.890753	0.160057
C48	C	2.018709	-0.840077	0.160288
C49	C	2.030346	-0.821810	0.230233
C50	C	1.892838	-0.272513	0.162883
C51	C	1.881592	-0.221836	0.163121
C52	C	1.916090	-0.235979	0.302775
C53	C	1.927331	-0.286652	0.302539
C54	C	1.915706	-0.304917	0.232586
O55	O	1.959745	-0.372829	0.361510
O56	O	1.895984	-0.346707	0.103131
C57	C	1.961412	-0.581627	0.161469
C58	C	1.984282	-0.614032	0.231178
C59	C	1.995909	-0.595763	0.301118
C60	C	1.995516	-0.664707	0.230947
C61	C	1.983889	-0.682976	0.161007
C62	C	1.961027	-0.650569	0.091298
C63	C	1.949784	-0.599895	0.091529
C64	C	2.018772	-0.628170	0.370827
C65	C	2.030012	-0.678843	0.370590
C66	C	2.018384	-0.697112	0.300650
C67	C	1.892064	-0.064412	0.366885
C68	C	1.910878	-0.064167	0.451580
C69	C	2.075148	0.022904	0.229533
C70	C	2.052816	0.076839	0.229773
C71	C	2.064353	-0.062315	0.095941
C72	C	2.035158	-0.062558	0.011246
C73	C	2.381268	-0.149632	0.233295
C74	C	2.393220	-0.203567	0.233061
C75	C	2.392064	-0.064412	0.366885
C76	C	2.410878	-0.064167	0.451580
C77	C	2.010276	-0.066482	0.495269
C78	C	2.027948	-0.066251	0.574848
C79	C	1.946221	-0.063708	0.610737
C80	C	1.846814	-0.061390	0.567042
C81	C	1.829143	-0.061618	0.487463
C82	C	1.918079	-0.060471	0.887972
C83	C	1.935760	-0.060245	0.967556
C84	C	2.116885	-0.065105	0.975356
C85	C	2.099213	-0.065333	0.895778
C86	C	1.999808	-0.063012	0.852089
C87	C	1.980647	-0.063262	0.765800
C88	C	1.965382	-0.063462	0.697025
C89	C	2.575148	0.022904	0.229533
C90	C	2.552816	0.076839	0.229773
C91	C	2.564353	-0.062315	0.095941
C92	C	2.535158	-0.062558	0.011246
C93	C	2.489396	-0.231377	0.236776
C94	C	2.500643	-0.282056	0.236567
C95	C	2.415710	-0.304924	0.232638
C96	C	2.319527	-0.277111	0.228925
C97	C	2.308283	-0.226433	0.229139
C98	C	2.510282	-0.066478	0.495255
C99	C	2.527972	-0.066240	0.574833
C100	C	2.446258	-0.063696	0.610735
C101	C	2.346845	-0.061383	0.567054
C102	C	2.329155	-0.061617	0.487477
C103	C	2.629133	0.104648	0.226060
C104	C	2.608158	0.155327	0.226272
C105	C	2.510867	0.178195	0.230203
C106	C	2.434544	0.150382	0.233914
C107	C	2.455517	0.099705	0.233696
C108	C	2.434643	-0.065097	-0.024637
C109	C	2.407195	-0.065320	-0.104218
C110	C	2.480266	-0.063007	-0.147914
C111	C	2.580789	-0.060466	-0.112026
C112	C	2.608234	-0.060240	-0.032447
H113	H	1.862963	-0.195452	0.106348
H114	H	2.558562	-0.212764	0.239970
H115	H	2.640276	-0.058581	-0.147615
O116	O	2.682265	0.182378	0.222779
C117	C	2.700968	0.205122	0.289026
H118	H	2.630995	0.208337	0.314486
H119	H	2.717210	0.243311	0.272644
H120	H	2.769823	0.182111	0.333518
O121	O	2.426810	-0.354154	0.232399
C122	C	2.529920	-0.373792	0.236538
H123	H	2.568724	-0.343531	0.214579
H124	H	2.533769	-0.404084	0.199433
H125	H	2.570646	-0.389642	0.298946
H126	H	2.000084	-0.813695	0.103521
O127	O	2.214794	-0.199428	0.225382
C128	C	2.146078	-0.203619	0.156670
H129	H	2.190718	-0.214308	0.112485
H130	H	2.092098	-0.166922	0.132800
H131	H	2.099853	-0.233014	0.169160
H132	H	2.020481	-0.905636	0.103109
H133	H	2.576831	-0.068551	0.466034
O134	O	2.340041	0.172533	0.237843
C135	C	2.318003	0.151946	0.306468
H136	H	2.366448	0.113614	0.327334
H137	H	2.233543	0.149465	0.295044
H138	H	2.336196	0.176110	0.352517
H139	H	2.608925	-0.068126	0.610388
H140	H	2.083051	-0.931273	0.356481
H141	H	2.460676	-0.063506	0.675533
O142	O	2.267597	-0.058939	0.602064
C143	C	2.304539	-0.059219	0.681662
H144	H	2.389134	-0.076709	0.699756
H145	H	2.260105	-0.081262	0.715404
H146	H	2.294251	-0.019916	0.694193
O147	O	2.453593	-0.063319	-0.225191
C148	C	2.417910	-0.106957	-0.238973
H149	H	2.450029	-0.136300	-0.185736
H150	H	2.444026	-0.120244	-0.290320
H151	H	2.330825	-0.099614	-0.252009
H152	H	2.248209	-0.059736	0.451922
O153	O	1.821553	-0.058188	0.845460
C154	C	1.793960	-0.015972	0.788482
H155	H	1.842245	0.012290	0.807214
H156	H	1.709631	0.000295	0.780496
H157	H	1.807690	-0.026361	0.731662
H158	H	2.708358	0.086036	0.222859
H159	H	2.250379	-0.295738	0.225726
H160	H	2.578967	-0.304694	0.239588
H161	H	2.493803	0.219460	0.230379
O162	O	2.309536	-0.067729	-0.139138
C163	C	2.267302	-0.025790	-0.195617
H164	H	2.309994	0.005200	-0.181302
H165	H	2.183120	-0.013795	-0.196658
H166	H	2.274639	-0.034862	-0.254559
H167	H	2.393368	0.077065	0.236726
H168	H	2.375131	-0.066981	0.010930
O169	O	2.064496	-0.836557	0.367959
C170	C	2.087105	-0.876033	0.429429
H171	H	2.058607	-0.909222	0.407455
H172	H	2.047687	-0.865022	0.476298
H173	H	2.173300	-0.885775	0.454240
H174	H	2.690086	-0.058175	-0.003237
H175	H	1.883371	-0.287378	0.105922
H176	H	2.014932	-0.553196	0.428069
O177	O	1.893887	-0.416469	0.024434
C178	C	1.886013	-0.443469	-0.037339
H179	H	1.930533	-0.482522	-0.015695
H180	H	1.918934	-0.425206	-0.084077
H181	H	1.802209	-0.444511	-0.062194
O182	O	1.767488	-0.058855	0.601973
C183	C	1.760394	-0.016338	0.637107
H184	H	1.837711	-0.004332	0.648865
H185	H	1.737166	-0.024650	0.693811
H186	H	1.700569	0.014348	0.597057
H187	H	1.945939	-0.313038	0.359305
O188	O	1.732592	-0.059457	0.445079
C189	C	1.693690	-0.100152	0.472814
H190	H	1.759845	-0.131031	0.504415
H191	H	1.644974	-0.113376	0.422286
H192	H	1.644794	-0.088957	0.514167
H193	H	1.917831	-0.513416	0.035035
H194	H	1.994560	-0.461271	0.428483
H195	H	1.931160	-0.573514	0.034760
O196	O	1.927394	-0.218147	0.370645
C197	C	1.912544	-0.166470	0.355890
H198	H	1.927631	-0.154338	0.297235
H199	H	1.967519	-0.153037	0.402600
H200	H	1.830475	-0.150248	0.355905
H201	H	1.951555	-0.665451	0.034350
H202	H	2.048629	-0.705224	0.427364
O203	O	2.030222	-0.610492	0.438826
C204	C	2.129504	-0.629518	0.484872
H205	H	2.161448	-0.665081	0.466049
H206	H	2.126311	-0.637198	0.547924
H207	H	2.181032	-0.601660	0.477877
O208	O	2.089659	-0.069040	0.460396
C209	C	2.096728	-0.111546	0.425233
H210	H	2.058967	-0.139619	0.454444
H211	H	2.180617	-0.127873	0.431358
H212	H	2.056319	-0.101517	0.361465
O213	O	2.124548	-0.068584	0.617269
C214	C	2.187220	-0.112346	0.610835
H215	H	2.137684	-0.140512	0.594134
H216	H	2.243923	-0.127468	0.668511
H217	H	2.230733	-0.104445	0.564660
O218	O	2.178595	-0.067890	0.860904
C219	C	2.185661	-0.110396	0.825740
H220	H	2.147901	-0.138469	0.854951
H221	H	2.269550	-0.126723	0.831863
H222	H	2.145250	-0.100367	0.761973
O223	O	2.213422	-0.067418	1.017896
C224	C	2.240949	-0.109672	1.074800
H225	H	2.168924	-0.121607	1.086883
H226	H	2.289034	-0.101042	1.130016
H227	H	2.287150	-0.140535	1.053516
H228	H	1.869201	-0.058173	0.996774
