data_functionalizedCrystal
_audit_creation_method	'MofGen! by Chris Wilmer'
_symmetry_space_group_name_H-M	'P1'
_symmetry_Int_Tables_number	1
_symmetry_cell_setting	triclinic
loop_
_symmetry_equiv_pos_as_xyz
  x,y,z
_cell_length_a	14.446369
_cell_length_b	23.196402
_cell_length_c	23.196401
_cell_angle_alpha	60.007332
_cell_angle_beta	90.011772
_cell_angle_gamma	60.005344
loop_
_atom_site_label
_atom_site_type_symbol
_atom_site_fract_x
_atom_site_fract_y
_atom_site_fract_z
Zr1	Zr	0.891795	0.631008	-0.075661
O2	O	0.743978	0.751266	-0.167703
O3	O	0.937095	0.510748	-0.047448
O4	O	0.937069	0.631011	-0.167714
O5	O	0.744041	0.631001	0.047435
O6	O	1.089397	0.631016	-0.167719
O7	O	0.744005	0.631002	-0.047437
O8	O	1.089445	0.415888	0.047415
O9	O	0.743993	0.846130	-0.167699
O10	O	1.070113	0.560217	-0.035415
O11	O	0.956459	0.560212	0.035390
O12	O	0.956428	0.701807	-0.106208
O13	O	0.842774	0.701802	-0.035403
Zr14	Zr	1.134800	0.631014	0.075640
Zr15	Zr	1.134742	0.631016	-0.075669
Zr16	Zr	0.891853	0.631006	0.075648
Zr17	Zr	0.891820	0.782305	-0.075655
Zr18	Zr	1.134775	0.479717	0.075635
O19	O	1.089500	0.751274	0.047428
O20	O	1.089417	0.751277	-0.167714
O21	O	0.744061	0.751262	0.047439
O22	O	1.282617	0.510756	0.167683
O23	O	1.282534	0.510760	-0.047459
O24	O	0.937178	0.510745	0.167694
O25	O	1.282554	0.631021	-0.047455
O26	O	1.089526	0.631011	0.167693
O27	O	0.937198	0.631006	0.167699
O28	O	1.282590	0.631019	0.047417
O29	O	0.937104	0.846136	-0.167706
O30	O	1.089491	0.415886	0.167685
O31	O	1.282602	0.415892	0.167679
O32	O	1.282556	0.415894	0.047409
O33	O	0.744039	0.846128	-0.047429
O34	O	0.937150	0.846134	-0.047435
O35	O	1.070167	0.560215	0.106188
O36	O	1.183821	0.560220	0.035382
O37	O	1.070136	0.701809	-0.035410
O38	O	0.956482	0.701804	0.035395
C39	C	1.013267	0.441761	-0.000017
C40	C	1.013256	0.377531	-0.000020
C41	C	1.097197	0.295105	0.052238
C42	C	1.097204	0.234745	0.052245
C43	C	1.013280	0.256816	-0.000018
C44	C	0.929325	0.339256	-0.052280
C45	C	0.929313	0.399614	-0.052281
C46	C	0.987126	0.201228	-0.063809
C47	C	0.987146	0.140869	-0.063808
C48	C	1.013311	0.070654	-0.000015
C49	C	1.039480	0.060795	0.063782
C50	C	1.039468	0.121153	0.063781
C51	C	1.013284	0.191373	-0.000022
C52	C	1.097264	-0.077226	0.052254
C53	C	1.097265	-0.137585	0.052261
C54	C	0.929390	-0.033071	-0.052269
C55	C	0.929385	0.027286	-0.052270
C56	C	1.013328	0.005203	-0.000009
C57	C	0.709408	0.631001	-0.000000
C58	C	0.606271	0.630997	0.000003
C59	C	0.531291	0.541706	0.044420
C60	C	0.638620	0.541646	0.044675
C61	C	0.531731	0.675352	0.032577
C62	C	0.424872	0.674785	0.032898
C63	C	0.423256	0.676626	-0.077059
C64	C	0.531928	0.674943	-0.076933
C65	C	1.317187	0.631021	-0.000020
C66	C	1.420324	0.631025	-0.000024
C67	C	1.013225	0.631014	-0.189275
C68	C	1.013200	0.631015	-0.253509
C69	C	1.013328	0.820261	-0.000003
C70	C	1.013339	0.884490	-0.000001
C71	C	0.953863	0.704921	-0.320635
C72	C	0.953892	0.704922	-0.380990
C73	C	1.013242	0.631013	-0.374215
C74	C	1.072592	0.557097	-0.307077
C75	C	1.072571	0.557098	-0.246724
C76	C	1.004804	0.574387	-0.441534
C77	C	1.004817	0.574389	-0.501888
C78	C	1.013314	0.631007	-0.560363
C79	C	1.021775	0.687636	-0.558484
C80	C	1.021754	0.687637	-0.498131
C81	C	1.013272	0.631003	-0.439654
C82	C	0.954005	0.704919	-0.692936
C83	C	0.954042	0.704917	-0.753291
C84	C	1.072735	0.557090	-0.679375
C85	C	1.072706	0.557094	-0.619023
C86	C	1.013335	0.631011	-0.625808
C87	C	1.013370	0.631008	0.189254
C88	C	1.013395	0.631007	0.253489
C89	C	1.317156	0.441772	-0.000027
C90	C	1.420283	0.377545	-0.000033
C91	C	1.013340	0.441758	0.189247
C92	C	1.013354	0.377528	0.253479
C93	C	1.317229	0.441769	0.189237
C94	C	1.420380	0.377541	0.253466
C95	C	0.709366	0.820253	-0.189257
C96	C	0.606215	0.884480	-0.253486
C97	C	0.709439	0.820250	0.000007
C98	C	0.606312	0.884477	0.000013
C99	C	1.013255	0.820264	-0.189267
C100	C	1.013241	0.884494	-0.253500
C101	C	1.409358	0.347383	-0.036998
C102	C	1.506247	0.287044	-0.037018
C103	C	1.614061	0.256865	-0.000068
C104	C	1.624984	0.287033	0.036898
C105	C	1.528095	0.347375	0.036913
C106	C	1.072715	0.347366	0.320606
C107	C	1.072724	0.287023	0.380964
C108	C	1.013378	0.256838	0.374195
C109	C	0.954009	0.287006	0.307062
C110	C	0.953994	0.347352	0.246705
C111	C	1.528158	0.347382	0.246669
C112	C	1.625089	0.287043	0.307013
C113	C	1.614240	0.256859	0.374153
C114	C	1.506451	0.287024	0.380949
C115	C	1.409523	0.347367	0.320606
C116	C	0.498437	0.914647	-0.246689
C117	C	0.401506	0.975005	-0.307033
C118	C	0.412355	1.005192	-0.374173
C119	C	0.520144	0.975023	-0.380969
C120	C	0.617072	0.914670	-0.320626
C121	C	0.617237	0.914646	0.036971
C122	C	0.520348	0.975001	0.036974
C123	C	0.412534	1.005182	0.000023
C124	C	0.401611	0.975011	-0.036941
C125	C	0.498500	0.914661	-0.036947
C126	C	1.072599	0.914659	-0.246708
C127	C	1.072608	0.975003	-0.307055
C128	C	1.013251	1.005184	-0.374193
C129	C	0.953892	0.975013	-0.380984
C130	C	0.953890	0.914667	-0.320637
H131	H	1.165548	0.277118	0.094794
C132	C	0.888749	0.253789	0.299626
H133	H	0.897280	0.213522	0.345189
H134	H	0.810671	0.297098	0.274553
H135	H	0.918060	0.230233	0.274556
C136	C	1.494212	0.253861	-0.077673
H137	H	1.416124	0.280469	-0.099663
H138	H	1.529518	0.263756	-0.112657
H139	H	1.529553	0.196881	-0.045771
C140	C	1.540114	0.380576	0.172822
H141	H	1.618191	0.353972	0.177427
H142	H	1.504774	0.370682	0.147740
H143	H	1.504773	0.437556	0.147747
H144	H	1.120934	0.890095	-0.192046
H145	H	0.489582	0.890072	-0.192025
H146	H	1.165560	0.167621	0.094801
H147	H	1.121073	0.262467	0.435621
C148	C	0.888595	1.008225	-0.454837
H149	H	0.897092	1.048492	-0.489799
H150	H	0.917872	0.964914	-0.460149
H151	H	0.810518	1.031780	-0.460130
C152	C	0.711301	0.494341	0.121443
H153	H	0.777225	0.494137	0.121862
H154	H	0.668590	0.519847	0.142746
H155	H	0.732944	0.439846	0.147082
H156	H	0.905659	0.371902	0.192050
H157	H	0.528964	0.999609	-0.435642
H158	H	1.013261	1.054323	-0.423326
C159	C	1.540121	0.380550	0.077576
H160	H	1.466983	0.420816	0.072293
H161	H	1.580408	0.337220	0.126193
H162	H	1.580383	0.404097	0.059316
C163	C	0.283016	1.008208	-0.077579
H164	H	0.290374	0.981603	-0.099598
H165	H	0.242769	0.998315	-0.045670
H166	H	0.242745	1.065187	-0.112551
H167	H	1.712847	0.262488	0.301467
H168	H	0.529264	0.999557	0.067077
H169	H	0.345040	0.742425	-0.110328
H170	H	0.905727	0.765102	-0.807949
H171	H	1.693175	0.207724	0.423283
H172	H	1.013399	0.207701	0.423348
C173	C	0.888577	0.881501	-0.328116
H174	H	0.853221	0.908130	-0.376746
H175	H	0.939775	0.824526	-0.306116
H176	H	0.832418	0.891406	-0.306114
H177	H	0.861038	0.094403	-0.094828
H178	H	0.333651	1.054324	0.000034
C179	C	0.735822	0.881457	0.077617
H180	H	0.791971	0.841188	0.072330
H181	H	0.744320	0.924784	0.059363
H182	H	0.744336	0.857914	0.126242
H183	H	0.313749	0.999559	-0.301486
C184	C	1.494532	0.253809	0.454805
H185	H	1.567701	0.213545	0.489764
H186	H	1.454278	0.297120	0.460118
H187	H	1.454280	0.230250	0.460102
C188	C	1.189587	-0.101506	0.109740
H189	H	1.177568	-0.053754	0.102250
H190	H	1.186124	-0.132872	0.154860
H191	H	1.262031	-0.132864	0.107565
C192	C	0.486468	0.881471	-0.077594
H193	H	0.408380	0.908087	-0.099591
H194	H	0.521787	0.891354	-0.112572
H195	H	0.521795	0.824493	-0.045689
H196	H	1.060773	0.113123	0.115727
H197	H	1.321769	0.371915	0.326150
C198	C	0.995450	0.512106	-0.377217
H199	H	0.990395	0.478389	-0.386984
H200	H	1.060615	0.479360	-0.337288
H201	H	0.929549	0.540152	-0.367710
C202	C	1.137984	0.380568	0.328065
H203	H	1.173320	0.353964	0.376692
H204	H	1.194137	0.370682	0.306061
H205	H	1.086745	0.437546	0.306058
C206	C	1.743579	0.253820	0.077553
H207	H	1.736221	0.280423	0.099573
H208	H	1.783831	0.196844	0.112514
H209	H	1.783845	0.263713	0.045652
H210	H	0.333420	1.054336	-0.423303
H211	H	1.120944	0.999562	-0.301513
C212	C	1.031148	0.749908	-0.622794
H213	H	1.029970	0.741790	-0.659004
H214	H	0.969108	0.803569	-0.639745
H215	H	1.100172	0.742766	-0.609309
H216	H	1.060778	0.003626	0.115729
H217	H	0.704827	0.890109	-0.326169
C218	C	0.888607	0.786221	-0.454837
H219	H	0.853238	0.830242	-0.450233
H220	H	0.939823	0.789304	-0.479912
H221	H	0.832460	0.789279	-0.479920
C222	C	1.720628	0.190483	-0.000083
H223	H	1.698670	0.176839	-0.027385
H224	H	1.764474	0.210255	-0.019870
H225	H	1.764473	0.143389	0.047003
H226	H	1.165618	-0.204704	0.094820
H227	H	0.861056	-0.015099	-0.094821
H228	H	0.965842	0.148902	-0.115755
H229	H	0.965808	0.258404	-0.115761
C230	C	0.318711	0.763307	-0.008000
H231	H	0.252745	0.763561	-0.008085
H232	H	0.321029	0.787963	0.014075
H233	H	0.316860	0.793006	-0.055228
C234	C	0.425257	0.632195	0.109476
H235	H	0.490594	0.615398	0.140098
H236	H	0.359086	0.669007	0.112960
H237	H	0.426356	0.585889	0.122621
H238	H	0.860993	0.357223	-0.094832
H239	H	0.692869	0.506858	0.022816
C240	C	0.836981	0.490287	-0.109771
H241	H	0.787001	0.494791	-0.140899
H242	H	0.795536	0.516003	-0.088301
H243	H	0.871451	0.516005	-0.135591
H244	H	0.533611	0.506649	0.022684
C245	C	0.494947	0.764100	-0.009036
H246	H	0.524799	0.774915	-0.046734
H247	H	0.414542	0.800077	-0.027535
H248	H	0.522832	0.772055	0.021489
C249	C	1.031068	0.749919	-0.496058
H250	H	1.029829	0.741812	-0.451740
H251	H	1.100084	0.742797	-0.502369
H252	H	0.969017	0.803577	-0.532781
C253	C	0.601452	0.633731	0.108436
H254	H	0.675971	0.589330	0.120370
H255	H	0.605056	0.671948	0.111483
H256	H	0.566349	0.614220	0.140258
H257	H	0.419122	0.648046	-0.104271
C258	C	0.601375	0.631267	-0.109815
H259	H	0.675370	0.586438	-0.076801
H260	H	0.565158	0.612137	-0.121758
H261	H	0.606464	0.668282	-0.151169
C262	C	0.497429	0.763010	-0.125429
H263	H	0.528044	0.774181	-0.099272
H264	H	0.525834	0.769366	-0.163550
H265	H	0.417112	0.799820	-0.143372
H266	H	0.997921	0.528280	-0.503413
C267	C	0.888723	0.786222	-0.700394
H268	H	0.853404	0.830239	-0.749019
H269	H	0.832556	0.789301	-0.678402
H270	H	0.939950	0.789288	-0.678371
H271	H	0.532339	0.506823	0.100905
C272	C	1.138019	0.475791	-0.671916
H273	H	1.129529	0.486374	-0.717474
H274	H	1.216086	0.445423	-0.646826
H275	H	1.108701	0.445424	-0.646856
H276	H	1.121020	0.496912	-0.564365
C277	C	0.888573	0.786223	-0.328096
H278	H	0.897052	0.775642	-0.282538
H279	H	0.917879	0.816593	-0.353161
H280	H	0.810499	0.816588	-0.353182
H281	H	1.120892	0.496913	-0.192065
C282	C	1.137872	0.475800	-0.299623
H283	H	1.129376	0.486383	-0.345182
H284	H	1.215940	0.445431	-0.274536
H285	H	1.108556	0.445432	-0.274560
H286	H	1.321580	0.371954	-0.067095
