data_functionalizedCrystal
_audit_creation_method	'MofGen! by Chris Wilmer'
_symmetry_space_group_name_H-M	'P1'
_symmetry_Int_Tables_number	1
_symmetry_cell_setting	triclinic
loop_
_symmetry_equiv_pos_as_xyz
  x,y,z
_cell_length_a	21.395362
_cell_length_b	13.897448
_cell_length_c	21.395355
_cell_angle_alpha	89.984371
_cell_angle_beta	89.956060
_cell_angle_gamma	90.033571
loop_
_atom_site_label
_atom_site_type_symbol
_atom_site_fract_x
_atom_site_fract_y
_atom_site_fract_z
Zn1	Zn	0.957916	-0.383718	-0.354598
Zn2	Zn	1.457916	0.116282	0.145402
Zn3	Zn	0.957842	-0.544997	-0.249826
Zn4	Zn	1.457842	-0.044997	0.250174
Zn5	Zn	0.853131	-0.383763	-0.249799
Zn6	Zn	1.353131	0.116237	0.250201
Zn7	Zn	0.853124	-0.545017	-0.354531
Zn8	Zn	1.353124	-0.045017	0.145469
O9	O	0.905503	-0.464374	-0.302189
O10	O	1.405503	0.035626	0.197811
O11	O	1.045584	-0.405085	-0.340739
O12	O	1.545584	0.094915	0.159261
O13	O	0.943924	-0.523620	-0.162145
O14	O	1.443924	-0.023620	0.337855
O15	O	0.867065	-0.248775	-0.263718
O16	O	1.367065	0.251225	0.236282
O17	O	1.045530	-0.523576	-0.263764
O18	O	1.545530	-0.023576	0.236236
O19	O	0.944050	-0.248742	-0.340714
O20	O	1.444050	0.251258	0.159286
O21	O	0.866993	-0.405161	-0.162125
O22	O	1.366993	0.094839	0.337875
O23	O	0.765452	-0.405181	-0.263653
O24	O	1.265452	0.094819	0.236347
O25	O	0.867053	-0.523610	-0.442218
O26	O	1.367053	-0.023610	0.057782
O27	O	0.765447	-0.523654	-0.340599
O28	O	1.265447	-0.023654	0.159401
O29	O	0.944043	-0.405104	-0.442267
O30	O	1.444043	0.094896	0.057733
O31	O	0.943918	-0.679982	-0.263698
O32	O	1.443918	-0.179982	0.236302
O33	O	0.866981	-0.679996	-0.340624
O34	O	1.366981	-0.179996	0.159376
C35	C	0.742716	-0.464425	-0.302116
C36	C	1.242716	0.035575	0.197884
C37	C	0.673074	-0.464470	-0.302100
C38	C	1.173074	0.035530	0.197900
C39	C	0.640375	-0.526240	-0.342105
C40	C	1.140375	-0.026240	0.157895
C41	C	0.574940	-0.526217	-0.342133
C42	C	1.074940	-0.026217	0.157867
C43	C	0.542206	-0.464433	-0.302144
C44	C	1.042206	0.035567	0.197856
C45	C	0.574913	-0.402650	-0.262136
C46	C	1.074913	0.097350	0.237864
C47	C	0.640348	-0.402669	-0.262114
C48	C	1.140348	0.097331	0.237886
C49	C	0.438480	-0.456662	-0.245739
C50	C	0.938480	0.043338	0.254261
C51	C	0.373047	-0.456650	-0.245760
C52	C	0.873047	0.043350	0.254240
C53	C	0.340385	-0.464370	-0.302214
C54	C	0.840385	0.035630	0.197786
C55	C	0.373165	-0.472121	-0.358647
C56	C	0.873165	0.027879	0.141353
C57	C	0.438599	-0.472140	-0.358625
C58	C	0.938599	0.027860	0.141375
C59	C	0.471254	-0.464405	-0.302164
C60	C	0.971254	0.035595	0.197836
C61	C	0.236734	-0.526118	-0.342253
C62	C	0.736734	-0.026118	0.157747
C63	C	0.171297	-0.526088	-0.342282
C64	C	0.671297	-0.026088	0.157718
C65	C	0.171272	-0.402526	-0.262279
C66	C	0.671272	0.097474	0.237721
C67	C	0.236707	-0.402551	-0.262255
C68	C	0.736707	0.097449	0.237745
C69	C	0.269434	-0.464352	-0.302242
C70	C	0.769434	0.035648	0.197758
C71	C	0.905458	-0.714988	-0.302170
C72	C	1.405458	-0.214988	0.197830
C73	C	0.905495	-0.822202	-0.302184
C74	C	1.405495	-0.322202	0.197816
C75	C	0.905561	-1.018497	-0.302223
C76	C	1.405561	-0.518497	0.197777
C77	C	0.905523	-0.909265	-0.302203
C78	C	1.405523	-0.409265	0.197797
C79	C	1.068927	-0.464323	-0.302262
C80	C	1.568927	0.035677	0.197738
C81	C	1.138568	-0.464302	-0.302293
C82	C	1.638568	0.035698	0.197707
C83	C	0.905555	-0.464354	-0.465612
C84	C	1.405555	0.035646	0.034388
C85	C	0.905578	-0.464346	-0.535253
C86	C	1.405578	0.035654	-0.035253
C87	C	0.905566	-0.212781	-0.302221
C88	C	1.405566	0.287219	0.197779
C89	C	0.905593	-0.105567	-0.302234
C90	C	1.405593	0.394433	0.197766
C91	C	0.945665	-0.402637	-0.567993
C92	C	1.445665	0.097363	-0.067993
C93	C	0.945664	-0.402596	-0.633429
C94	C	1.445664	0.097404	-0.133429
C95	C	0.905582	-0.464280	-0.666122
C96	C	1.405582	0.035720	-0.166122
C97	C	0.865488	-0.525993	-0.633374
C98	C	1.365488	-0.025993	-0.133374
C99	C	0.865485	-0.526026	-0.567940
C100	C	1.365485	-0.026026	-0.067940
C101	C	0.900619	-0.551135	-0.769788
C102	C	1.400619	-0.051135	-0.269788
C103	C	0.900626	-0.551103	-0.835221
C104	C	1.400626	-0.051103	-0.335221
C105	C	0.905586	-0.464178	-0.867942
C106	C	1.405586	0.035822	-0.367942
C107	C	0.910553	-0.377282	-0.835223
C108	C	1.410553	0.122718	-0.335223
C109	C	0.910550	-0.377315	-0.769788
C110	C	1.410550	0.122685	-0.269788
C111	C	0.905580	-0.464251	-0.737074
C112	C	1.405580	0.035749	-0.237074
C113	C	0.945675	-0.402419	-0.971635
C114	C	1.445675	0.097581	-0.471635
C115	C	0.945669	-0.402376	-1.037072
C116	C	1.445669	0.097624	-0.537072
C117	C	0.865496	-0.525782	-1.037016
C118	C	1.365496	-0.025782	-0.537016
C119	C	0.865498	-0.525817	-0.971580
C120	C	1.365498	-0.025817	-0.471580
C121	C	0.905591	-0.464137	-0.938894
C122	C	1.405591	0.035863	-0.438894
C123	C	0.905488	-0.464324	-0.139401
C124	C	1.405488	0.035676	0.360599
C125	C	0.905587	-0.464060	-0.069760
C126	C	1.405587	0.035940	0.430240
H127	H	0.465285	-0.478449	-0.404575
H128	H	0.965285	0.021551	0.095425
N129	N	0.986613	-0.339546	-0.666871
N130	N	1.486613	0.160454	-0.166871
N131	N	1.022402	-0.284476	-0.637680
N132	N	1.522402	0.215524	-0.137680
H133	H	1.051322	-0.239945	-0.661296
H134	H	1.551322	0.260055	-0.161296
N135	N	0.673762	-0.339586	-0.221243
N136	N	1.173762	0.160414	0.278757
N137	N	0.732185	-0.339618	-0.221225
N138	N	1.232185	0.160382	0.278775
H139	H	0.755786	-0.295068	-0.192359
H140	H	1.255786	0.204932	0.307641
H141	H	0.896586	-0.621860	-0.861857
H142	H	1.396586	-0.121860	-0.361857
H143	H	0.832851	-0.576214	-0.659997
H144	H	1.332851	-0.076214	-0.159997
H145	H	0.896413	-0.621902	-0.743152
H146	H	1.396413	-0.121902	-0.243152
N147	N	0.824545	-0.588846	-0.938135
N148	N	1.324545	-0.088846	-0.438135
N149	N	0.766732	-0.582457	-0.945402
N150	N	1.266732	-0.082457	-0.445402
H151	H	0.737804	-0.626972	-0.921782
H152	H	1.237804	-0.126972	-0.421782
N153	N	0.339580	-0.448724	-0.188111
N154	N	0.839580	0.051276	0.311889
N155	N	0.346889	-0.376346	-0.154218
N156	N	0.846889	0.123654	0.345782
H157	H	0.323256	-0.370746	-0.113501
H158	H	0.823256	0.129254	0.386499
H159	H	0.978312	-0.352120	-1.063727
H160	H	1.478312	0.147880	-0.563727
N161	N	0.824528	-0.589053	-0.534494
N162	N	1.324528	-0.089053	-0.034494
N163	N	0.766715	-0.582662	-0.541757
N164	N	1.266715	-0.082662	-0.041757
H165	H	0.737788	-0.627176	-0.518135
H166	H	1.237788	-0.127176	-0.018135
N167	N	0.915624	-0.288551	-0.736375
N168	N	1.415624	0.211449	-0.236375
N169	N	0.920055	-0.210942	-0.765591
N170	N	1.420055	0.289058	-0.265591
H171	H	0.923636	-0.148251	-0.741994
H172	H	1.423636	0.351749	-0.241994
N173	N	0.471830	-0.448758	-0.188064
N174	N	0.971830	0.051242	0.311936
N175	N	0.442559	-0.441841	-0.137684
N176	N	0.942559	0.058159	0.362316
H177	H	0.466111	-0.436254	-0.096952
H178	H	0.966111	0.063746	0.403048
H179	H	0.667017	-0.576562	-0.374666
H180	H	1.167017	-0.076562	0.125334
H181	H	0.548311	-0.576517	-0.374713
H182	H	1.048311	-0.076517	0.125287
N183	N	0.915624	-0.288475	-0.868629
N184	N	1.415624	0.211525	-0.368629
N185	N	0.962597	-0.236153	-0.861357
N186	N	1.462597	0.263847	-0.361357
H187	H	0.966180	-0.173436	-0.884952
H188	H	1.466180	0.326564	-0.384952
N189	N	0.270179	-0.589232	-0.383093
N190	N	0.770179	-0.089232	0.116907
N191	N	0.306636	-0.650659	-0.360965
N192	N	0.806636	-0.150659	0.139035
H193	H	0.330258	-0.695233	-0.389809
H194	H	0.830258	-0.195233	0.110191
N195	N	0.541471	-0.339538	-0.221296
N196	N	1.041471	0.160462	0.278704
N197	N	0.483048	-0.339530	-0.221321
N198	N	0.983048	0.160470	0.278679
H199	H	0.459428	-0.294952	-0.192479
H200	H	0.959428	0.205048	0.307521
H201	H	0.144621	-0.352216	-0.229722
H202	H	0.644621	0.147784	0.270278
N203	N	0.339801	-0.480036	-0.416311
N204	N	0.839801	0.019964	0.083689
N205	N	0.281378	-0.480029	-0.416325
N206	N	0.781378	0.019971	0.083675
H207	H	0.257812	-0.485630	-0.457048
H208	H	0.757812	0.014370	0.042952
H209	H	0.263332	-0.352256	-0.229675
H210	H	0.763332	0.147744	0.270325
N211	N	0.137903	-0.589186	-0.383159
N212	N	0.637903	-0.089186	0.116841
N213	N	0.167134	-0.644354	-0.418856
N214	N	0.667134	-0.144354	0.081144
H215	H	0.143549	-0.688918	-0.447727
H216	H	0.643549	-0.188918	0.052273
N217	N	0.824551	-0.588777	-1.070412
N218	N	1.324551	-0.088777	-0.570412
N219	N	0.824555	-0.588736	-1.128835
N220	N	1.324555	-0.088736	-0.628835
H221	H	0.795634	-0.633224	-1.152425
H222	H	1.295634	-0.133224	-0.652425
H223	H	0.978317	-0.352190	-0.945020
H224	H	1.478317	0.147810	-0.445020
N225	N	0.986622	-0.339631	-0.534616
N226	N	1.486622	0.160369	-0.034616
N227	N	1.022413	-0.284538	-0.563861
N228	N	1.522413	0.215462	-0.063861
H229	H	1.051340	-0.240038	-0.540288
H230	H	1.551340	0.259962	-0.040288
