data_functionalizedCrystal
_audit_creation_method	'MofGen! by Chris Wilmer'
_symmetry_space_group_name_H-M	'P1'
_symmetry_Int_Tables_number	1
_symmetry_cell_setting	triclinic
loop_
_symmetry_equiv_pos_as_xyz
  x,y,z
_cell_length_a	13.032721
_cell_length_b	19.805407
_cell_length_c	19.805399
_cell_angle_alpha	89.980427
_cell_angle_beta	82.844098
_cell_angle_gamma	82.795335
loop_
_atom_site_label
_atom_site_type_symbol
_atom_site_fract_x
_atom_site_fract_y
_atom_site_fract_z
Zn1	Zn	-0.416068	-1.000535	0.416943
Zn2	Zn	-0.590828	-0.986084	0.318130
Zn3	Zn	-0.416097	-0.887347	0.303770
Zn4	Zn	-0.590772	-0.872952	0.431272
O5	O	-0.503441	-0.936729	0.367529
O6	O	-0.439261	-1.093333	0.403849
O7	O	-0.567684	-0.972963	0.221512
O8	O	-0.269853	-0.914433	0.306777
O9	O	-0.567656	-1.082717	0.331251
O10	O	-0.269832	-0.997592	0.389925
O11	O	-0.439310	-0.900421	0.210962
O12	O	-0.439257	-0.790722	0.320671
O13	O	-0.567562	-0.889899	0.524085
O14	O	-0.567590	-0.780146	0.414346
O15	O	-0.439207	-0.983634	0.513558
O16	O	-0.737060	-0.959005	0.345145
O17	O	-0.737019	-0.875887	0.428270
C18	C	-0.503421	-0.760875	0.367506
C19	C	-0.503438	-0.685642	0.367514
C20	C	-0.774958	-0.914334	0.389835
C21	C	-0.891114	-0.904816	0.399401
C22	C	-0.503375	-0.936773	0.544066
C23	C	-0.503347	-0.936791	0.619296
C24	C	-0.942886	-0.941733	0.362567
C25	C	-1.062939	-0.931896	0.372453
C26	C	-0.230864	-0.959230	0.345151
C27	C	-0.114708	-0.968819	0.335614
C28	C	-0.503462	-1.113270	0.367553
C29	C	-0.503471	-1.188502	0.367563
C30	C	-0.570361	-0.644800	0.416228
C31	C	-0.570363	-0.574112	0.416238
C32	C	-0.503446	-0.544265	0.367529
C33	C	-0.436515	-0.585113	0.318812
C34	C	-0.436508	-0.655800	0.318806
C35	C	-0.436538	-0.300037	0.318836
C36	C	-0.436551	-0.229344	0.318845
C37	C	-0.570393	-0.218349	0.416269
C38	C	-0.570386	-0.289036	0.416262
C39	C	-0.503452	-0.329878	0.367548
C40	C	-0.503449	-0.406526	0.367538
C41	C	-0.503453	-0.467618	0.367535
C42	C	-0.503431	-0.936731	0.191672
C43	C	-0.503165	-0.936868	0.116419
C44	C	-0.436510	-0.985600	0.649160
C45	C	-0.436479	-0.985609	0.719846
C46	C	-0.503293	-0.936813	0.760667
C47	C	-0.570133	-0.887999	0.730799
C48	C	-0.570157	-0.887987	0.660114
C49	C	-0.570036	-0.888045	1.015865
C50	C	-0.570008	-0.888062	1.086555
C51	C	-0.436358	-0.985668	1.075596
C52	C	-0.436382	-0.985656	1.004911
C53	C	-0.503218	-0.936840	0.975049
C54	C	-0.503249	-0.936830	0.898403
C55	C	-0.503268	-0.936825	0.837312
H56	H	-0.898333	-0.980626	0.323717
H57	H	-1.107490	-0.893007	0.411311
H58	H	-0.624881	-0.313333	0.455924
H59	H	-0.381979	-1.025393	0.971677
H60	H	-1.070157	-1.007714	0.296761
H61	H	-0.624890	-0.185087	0.455937
O62	O	-0.642741	-0.530112	0.468725
H63	H	-0.625081	-0.545150	0.520438
H64	H	-0.624418	-0.848322	1.119791
O65	O	-0.364381	-0.197154	0.266298
H66	H	-0.375648	-0.141138	0.274481
O67	O	-0.364235	-1.038305	1.107800
H68	H	-0.375422	-1.030110	1.163809
H69	H	-0.624473	-0.848305	0.991561
H70	H	-0.935669	-0.865929	0.438256
O71	O	-0.364336	-0.552921	0.266278
H72	H	-0.317791	-0.593200	0.232407
H73	H	-0.382044	-0.333282	0.279165
O74	O	-0.364339	-0.699855	0.266257
H75	H	-0.317818	-0.667226	0.232382
H76	H	-0.624857	-0.669095	0.455891
H77	H	-0.382056	-1.025356	0.744157
O78	O	-0.364447	-1.038231	0.605131
H79	H	-0.317959	-1.072168	0.637775
H80	H	-0.624573	-0.848236	0.635800
H81	H	-0.624530	-0.848265	0.764042
