data_functionalizedCrystal
_audit_creation_method	'MofGen! by Chris Wilmer'
_symmetry_space_group_name_H-M	'P1'
_symmetry_Int_Tables_number	1
_symmetry_cell_setting	triclinic
loop_
_symmetry_equiv_pos_as_xyz
  x,y,z
_cell_length_a	19.805407
_cell_length_b	12.759387
_cell_length_c	19.805405
_cell_angle_alpha	89.961850
_cell_angle_beta	90.023727
_cell_angle_gamma	89.979621
loop_
_atom_site_label
_atom_site_type_symbol
_atom_site_fract_x
_atom_site_fract_y
_atom_site_fract_z
Zn1	Zn	1.034753	-0.594004	-0.269468
Zn2	Zn	1.534753	-0.094004	0.230532
Zn3	Zn	1.034663	-0.418305	-0.382674
Zn4	Zn	1.534663	0.081695	0.117326
Zn5	Zn	0.921562	-0.418336	-0.269499
Zn6	Zn	1.421562	0.081664	0.230501
Zn7	Zn	0.921531	-0.593939	-0.382615
Zn8	Zn	1.421531	-0.093939	0.117385
O9	O	0.978127	-0.506146	-0.326064
O10	O	1.478127	-0.006146	0.173936
O11	O	1.129457	-0.570711	-0.284497
O12	O	1.629457	-0.070711	0.215503
O13	O	1.019635	-0.271288	-0.367699
O14	O	1.519635	0.228712	0.132301
O15	O	0.936628	-0.441678	-0.174778
O16	O	1.436628	0.058322	0.325222
O17	O	1.129391	-0.441626	-0.367669
O18	O	1.629391	0.058374	0.132331
O19	O	1.019789	-0.570741	-0.174756
O20	O	1.519789	-0.070741	0.325244
O21	O	0.936541	-0.271310	-0.284549
O22	O	1.436541	0.228690	0.215451
O23	O	0.826842	-0.441616	-0.284493
O24	O	1.326842	0.058384	0.215507
O25	O	0.936575	-0.740969	-0.367569
O26	O	1.436575	-0.240969	0.132431
O27	O	0.826819	-0.570631	-0.367599
O28	O	1.326819	-0.070631	0.132401
O29	O	1.019758	-0.741016	-0.284440
O30	O	1.519758	-0.241016	0.215560
O31	O	1.019605	-0.441564	-0.477383
O32	O	1.519605	0.058436	0.022617
O33	O	0.936487	-0.570601	-0.477340
O34	O	1.436487	-0.070601	0.022660
C35	C	0.802271	-0.506120	-0.326043
C36	C	1.302271	-0.006120	0.173957
C37	C	0.727039	-0.506134	-0.326050
C38	C	1.227039	-0.006134	0.173950
C39	C	0.691730	-0.573451	-0.282819
C40	C	1.191730	-0.073451	0.217181
C41	C	0.621042	-0.573455	-0.282823
C42	C	1.121042	-0.073455	0.217177
C43	C	0.585664	-0.506147	-0.326061
C44	C	1.085664	-0.006147	0.173939
C45	C	0.620978	-0.438823	-0.369294
C46	C	1.120978	0.061177	0.130706
C47	C	0.691665	-0.438814	-0.369287
C48	C	1.191665	0.061186	0.130713
C49	C	0.335904	-0.438855	-0.369325
C50	C	0.835904	0.061145	0.130675
C51	C	0.265212	-0.438871	-0.369330
C52	C	0.765212	0.061129	0.130670
C53	C	0.265281	-0.573496	-0.282861
C54	C	0.765281	-0.073496	0.217139
C55	C	0.335969	-0.573487	-0.282853
C56	C	0.835969	-0.073487	0.217147
C57	C	0.371276	-0.506160	-0.326083
C58	C	0.871276	-0.006160	0.173917
C59	C	0.447925	-0.506155	-0.326078
C60	C	0.947925	-0.006155	0.173922
C61	C	0.509017	-0.506157	-0.326070
C62	C	1.009017	-0.006157	0.173930
C63	C	0.978173	-0.780180	-0.325994
C64	C	1.478173	-0.280180	0.174006
C65	C	0.978193	-0.896956	-0.325965
C66	C	1.478193	-0.396956	0.174035
C67	C	0.891672	-0.896999	-0.239375
C68	C	1.391672	-0.396999	0.260625
C69	C	0.848425	-0.951881	-0.196067
C70	C	1.348425	-0.451881	0.303933
C71	C	0.848445	-1.061602	-0.196043
C72	C	1.348445	-0.561602	0.303957
C73	C	0.891716	-1.116445	-0.239333
C74	C	1.391716	-0.616445	0.260667
C75	C	0.934964	-1.061563	-0.282641
C76	C	1.434964	-0.561563	0.217359
C77	C	0.934940	-0.951838	-0.282659
C78	C	1.434940	-0.451838	0.217341
C79	C	1.021480	-1.061520	-0.369232
C80	C	1.521480	-0.561520	0.130768
C81	C	1.021464	-0.951799	-0.369254
C82	C	1.521464	-0.451799	0.130746
C83	C	1.064751	-1.116362	-0.412522
C84	C	1.564751	-0.616362	0.087478
C85	C	1.108003	-1.061480	-0.455827
C86	C	1.608003	-0.561480	0.044173
C87	C	1.107982	-0.951752	-0.455849
C88	C	1.607982	-0.451752	0.044151
C89	C	1.064712	-0.896917	-0.412562
C90	C	1.564712	-0.396917	0.087438
C91	C	1.154670	-0.506172	-0.326086
C92	C	1.654670	-0.006172	0.173914
C93	C	1.229902	-0.506183	-0.326095
C94	C	1.729902	-0.006183	0.173905
C95	C	0.978051	-0.506095	-0.501920
C96	C	1.478051	-0.006095	-0.001920
C97	C	0.978080	-0.506108	-0.577152
C98	C	1.478080	-0.006108	-0.077152
C99	C	0.978120	-0.233178	-0.326085
C100	C	1.478120	0.266822	0.173915
C101	C	0.978232	-0.116402	-0.325924
C102	C	1.478232	0.383598	0.174076
C103	C	1.021402	-0.438989	-0.612496
C104	C	1.521402	0.061011	-0.112496
C105	C	1.021430	-0.439012	-0.683185
C106	C	1.521430	0.060988	-0.183185
C107	C	0.978134	-0.506150	-0.718528
C108	C	1.478134	-0.006150	-0.218528
C109	C	0.934811	-0.573277	-0.683179
C110	C	1.434811	-0.073277	-0.183179
C111	C	0.934786	-0.573259	-0.612492
C112	C	1.434786	-0.073259	-0.112492
C113	C	0.934911	-0.573355	-0.968252
C114	C	1.434911	-0.073355	-0.468252
C115	C	0.934937	-0.573367	-1.038944
C116	C	1.434937	-0.073367	-0.538944
C117	C	1.021555	-0.439109	-1.038945
C118	C	1.521555	0.060891	-0.538945
C119	C	1.021530	-0.439090	-0.968258
C120	C	1.521530	0.060910	-0.468258
C121	C	0.978210	-0.506220	-0.932915
C122	C	1.478210	-0.006220	-0.432915
C123	C	0.978180	-0.506196	-0.856267
C124	C	1.478180	-0.006196	-0.356267
C125	C	0.978160	-0.506170	-0.795175
C126	C	1.478160	-0.006170	-0.295175
C127	C	0.978222	-0.506220	-0.149521
C128	C	1.478222	-0.006220	0.350479
C129	C	0.978263	-0.506251	-0.074289
C130	C	1.478263	-0.006251	0.425711
H131	H	0.236525	-0.628314	-0.247658
H132	H	0.736525	-0.128314	0.252342
O133	O	0.888184	-0.645756	-0.930141
O134	O	1.388184	-0.145756	-0.430141
H135	H	0.895443	-0.634479	-0.875049
H136	H	1.395443	-0.134479	-0.375049
O137	O	1.068232	-0.366684	-0.930136
O138	O	1.568232	0.133316	-0.430136
H139	H	1.098367	-0.320022	-0.966589
H140	H	1.598367	0.179978	-0.466589
H141	H	0.891657	-0.807657	-0.239386
H142	H	1.391657	-0.307657	0.260614
O143	O	0.888103	-0.645682	-0.721293
O144	O	1.388103	-0.145682	-0.221293
H145	H	0.895389	-0.634409	-0.776385
H146	H	1.395389	-0.134409	-0.276385
H147	H	0.236409	-0.384057	-0.404542
H148	H	0.736409	0.115943	0.095458
H149	H	0.592296	-0.628273	-0.247621
H150	H	1.092296	-0.128273	0.252379
O151	O	1.068301	-0.366728	-1.077063
O152	O	1.568301	0.133272	-0.577063
H153	H	1.061058	-0.378032	-1.132155
H154	H	1.561058	0.121968	-0.632155
H155	H	1.064692	-0.807575	-0.412574
H156	H	1.564692	-0.307575	0.087426
H157	H	0.899681	-0.628047	-1.067718
H158	H	1.399681	-0.128047	-0.567718
H159	H	0.364770	-0.628300	-0.247646
H160	H	0.864770	-0.128300	0.252354
H161	H	0.813192	-0.907216	-0.160823
H162	H	1.313192	-0.407216	0.339177
H163	H	0.364643	-0.384034	-0.404526
H164	H	0.864643	0.115966	0.095474
O165	O	0.582825	-0.366220	-0.415930
O166	O	1.082825	0.133780	0.084070
H167	H	0.527739	-0.377540	-0.408678
H168	H	1.027739	0.122460	0.091322
O169	O	0.729754	-0.366211	-0.415915
O170	O	1.229754	0.133789	0.084085
H171	H	0.693279	-0.319414	-0.445987
H172	H	1.193279	0.180586	0.054013
H173	H	0.899510	-0.627916	-0.583715
H174	H	1.399510	-0.127916	-0.083715
H175	H	0.813228	-1.106287	-0.160779
H176	H	1.313228	-0.606287	0.339221
O177	O	0.891739	-1.234787	-0.239311
O178	O	1.391739	-0.734787	0.260689
H179	H	0.854398	-1.263737	-0.201923
H180	H	1.354398	-0.763737	0.298077
H181	H	0.720530	-0.628264	-0.247611
H182	H	1.220530	-0.128264	0.252389
H183	H	1.143229	-1.106142	-0.491073
H184	H	1.643229	-0.606142	0.008927
O185	O	1.064802	-1.234705	-0.412500
O186	O	1.564802	-0.734705	0.087500
H187	H	1.013756	-1.263667	-0.426156
H188	H	1.513756	-0.763667	0.073844
O189	O	1.068110	-0.366579	-0.574385
O190	O	1.568110	0.133421	-0.074385
H191	H	1.102513	-0.413653	-0.542129
H192	H	1.602513	0.086347	-0.042129
H193	H	1.143202	-0.907074	-0.491114
H194	H	1.643202	-0.407074	0.008886
H195	H	1.056706	-0.384356	-0.711959
H196	H	1.556706	0.115644	-0.211959
