data_functionalizedCrystal
_audit_creation_method	'MofGen! by Chris Wilmer'
_symmetry_space_group_name_H-M	'P1'
_symmetry_Int_Tables_number	1
_symmetry_cell_setting	triclinic
loop_
_symmetry_equiv_pos_as_xyz
  x,y,z
_cell_length_a	14.044220
_cell_length_b	27.732048
_cell_length_c	12.503572
_cell_angle_alpha	93.489054
_cell_angle_beta	86.164750
_cell_angle_gamma	87.915767
loop_
_atom_site_label
_atom_site_type_symbol
_atom_site_fract_x
_atom_site_fract_y
_atom_site_fract_z
O1	O	1.261499	0.113903	-0.089228
O2	O	1.594832	0.447236	0.244105
O3	O	1.928165	0.780570	0.577439
O4	O	0.985593	0.109700	-0.089254
O5	O	1.318926	0.443033	0.244079
O6	O	1.652259	0.776366	0.577412
O7	O	1.132113	0.041807	-0.089220
O8	O	1.465447	0.375141	0.244113
O9	O	1.798780	0.708474	0.577447
O10	O	1.114978	0.181795	-0.089262
O11	O	1.448311	0.515129	0.244071
O12	O	1.781644	0.848462	0.577404
O13	O	1.121094	0.046922	0.089419
O14	O	1.454427	0.380256	0.422753
O15	O	1.787761	0.713589	0.756086
O16	O	0.974573	0.114815	0.089385
O17	O	1.307907	0.448148	0.422718
O18	O	1.641240	0.781482	0.756052
O19	O	1.250479	0.119018	0.089411
O20	O	1.583813	0.452351	0.422745
O21	O	1.917146	0.785685	0.756078
Cu22	Cu	1.111520	0.117384	0.105709
Cu23	Cu	1.444853	0.450717	0.439043
Cu24	Cu	1.778187	0.784050	0.772376
Cu25	Cu	1.124552	0.111334	-0.105552
Cu26	Cu	1.457885	0.444668	0.227781
Cu27	Cu	1.791218	0.778001	0.561114
O28	O	1.103958	0.186910	0.089377
O29	O	1.437292	0.520244	0.422710
O30	O	1.770625	0.853577	0.756044
C31	C	0.944796	0.110418	0.000062
C32	C	1.278129	0.443751	0.333396
C33	C	1.611462	0.777084	0.666729
C34	C	0.839651	0.104930	0.000053
C35	C	1.172984	0.438264	0.333386
C36	C	1.506317	0.771597	0.666720
C37	C	0.647135	0.094899	0.000077
C38	C	0.980468	0.428233	0.333411
C39	C	1.313801	0.761566	0.666744
C40	C	0.588932	0.133816	0.000070
C41	C	0.922265	0.467149	0.333403
C42	C	1.255599	0.800483	0.666737
C43	C	0.481809	0.128235	0.000084
C44	C	0.815143	0.461568	0.333417
C45	C	1.148476	0.794901	0.666750
C46	C	0.754267	0.100480	0.000064
C47	C	1.087601	0.433813	0.333397
C48	C	1.420934	0.767147	0.666731
C49	C	1.126244	0.026341	0.000103
C50	C	1.459577	0.359675	0.333436
C51	C	1.792910	0.693008	0.666769
C52	C	1.125160	-0.027364	0.000111
C53	C	1.458493	0.305969	0.333445
C54	C	1.791827	0.639302	0.666778
C55	C	1.204929	-0.362437	0.000064
C56	C	1.538262	-0.029104	0.333397
C57	C	1.871595	0.304229	0.666731
C58	C	1.200910	-0.564286	0.000049
C59	C	1.534244	-0.230953	0.333382
C60	C	1.867577	0.102381	0.666715
O61	O	1.273853	-0.592120	0.000008
O62	O	1.607186	-0.258787	0.333342
O63	O	1.940519	0.074547	0.666675
N64	N	1.114029	-0.587487	0.000041
N65	N	1.447362	-0.254154	0.333375
N66	N	1.780695	0.079179	0.666708
C67	C	1.028146	-0.560223	0.000031
C68	C	1.361479	-0.226890	0.333364
C69	C	1.694813	0.106443	0.666697
O70	O	0.954156	-0.584589	0.000013
O71	O	1.287490	-0.251256	0.333346
O72	O	1.620823	0.082077	0.666680
C73	C	1.032166	-0.358376	0.000038
C74	C	1.365499	-0.025042	0.333372
C75	C	1.698832	0.308291	0.666705
C76	C	1.119052	-0.335177	0.000057
C77	C	1.452386	-0.001844	0.333390
C78	C	1.785719	0.331490	0.666723
C79	C	1.291808	-0.339238	0.000081
C80	C	1.625141	-0.005905	0.333414
C81	C	1.958475	0.327428	0.666747
C82	C	1.292811	-0.288779	0.000091
C83	C	1.626145	0.044554	0.333424
C84	C	1.959478	0.377888	0.666757
C85	C	1.206935	-0.261519	0.000083
C86	C	1.540268	0.071815	0.333417
C87	C	1.873602	0.405148	0.666750
C88	C	1.120056	-0.284718	0.000066
C89	C	1.453389	0.048616	0.333400
C90	C	1.786722	0.381949	0.666733
C91	C	0.946285	-0.331113	0.000020
C92	C	1.279618	0.002220	0.333354
C93	C	1.612951	0.335554	0.666687
C94	C	0.947297	-0.280648	0.000019
C95	C	1.280631	0.052685	0.333353
C96	C	1.613964	0.386018	0.666686
C97	C	1.034184	-0.257449	0.000038
C98	C	1.367517	0.075884	0.333371
C99	C	1.700851	0.409217	0.666704
C100	C	1.035183	-0.206998	0.000069
C101	C	1.368516	0.126335	0.333402
C102	C	1.701849	0.459669	0.666735
N103	N	1.122064	-0.183797	0.000076
N104	N	1.455397	0.149537	0.333409
N105	N	1.788731	0.482870	0.666743
C106	C	1.207940	-0.211057	0.000083
C107	C	1.541274	0.122276	0.333417
C108	C	1.874607	0.455609	0.666750
C109	C	1.026041	-0.666196	0.000029
C110	C	1.359375	-0.332863	0.333362
C111	C	1.692708	0.000470	0.666695
C112	C	1.025036	-0.716658	0.000029
C113	C	1.358369	-0.383325	0.333362
C114	C	1.691703	-0.049991	0.666695
C115	C	1.197801	-0.720717	0.000045
C116	C	1.531134	-0.387384	0.333378
C117	C	1.864468	-0.054051	0.666711
C118	C	1.198805	-0.670254	0.000052
C119	C	1.532138	-0.336921	0.333386
C120	C	1.865471	-0.003588	0.666719
C121	C	1.112923	-0.642995	0.000036
C122	C	1.446256	-0.309662	0.333369
C123	C	1.779590	0.023672	0.666703
C124	C	1.210041	-0.105089	0.000105
C125	C	1.543374	0.228245	0.333438
C126	C	1.876707	0.561578	0.666771
C127	C	1.211036	-0.054625	0.000119
C128	C	1.544370	0.278709	0.333452
C129	C	1.877703	0.612042	0.666785
C130	C	1.038272	-0.050570	0.000097
C131	C	1.371606	0.282763	0.333431
C132	C	1.704939	0.616097	0.666764
C133	C	1.037276	-0.101029	0.000089
C134	C	1.370609	0.232304	0.333422
C135	C	1.703943	0.565637	0.666755
C136	C	1.123168	-0.128288	0.000089
C137	C	1.456502	0.205045	0.333422
C138	C	1.789835	0.538379	0.666755
O139	O	0.962280	-0.179134	0.000097
O140	O	1.295613	0.154199	0.333430
O141	O	1.628947	0.487532	0.666763
O142	O	1.281921	-0.186683	0.000077
O143	O	1.615254	0.146650	0.333410
O144	O	1.948587	0.479984	0.666744
C145	C	1.203925	-0.412897	0.000054
C146	C	1.537259	-0.079563	0.333387
C147	C	1.870592	0.253770	0.666721
C148	C	1.117046	-0.436096	0.000037
C149	C	1.450379	-0.102762	0.333371
C150	C	1.783712	0.230571	0.666704
C151	C	1.031169	-0.408835	0.000030
C152	C	1.364503	-0.075502	0.333363
C153	C	1.697836	0.257831	0.666697
C154	C	1.116040	-0.486557	0.000037
C155	C	1.449374	-0.153224	0.333371
C156	C	1.782707	0.180109	0.666704
C157	C	1.201917	-0.513818	0.000044
C158	C	1.535250	-0.180484	0.333378
C159	C	1.868583	0.152849	0.666711
C160	C	1.288798	-0.490616	0.000052
C161	C	1.622132	-0.157283	0.333385
C162	C	1.955465	0.176050	0.666718
C163	C	1.289801	-0.440157	0.000061
C164	C	1.623135	-0.106824	0.333395
C165	C	1.956468	0.226510	0.666728
C166	C	0.944288	-0.432037	0.000023
C167	C	1.277621	-0.098703	0.333356
C168	C	1.610954	0.234630	0.666689
C169	C	0.943291	-0.482496	0.000014
C170	C	1.276625	-0.149163	0.333347
C171	C	1.609958	0.184171	0.666681
C172	C	1.029168	-0.509756	0.000021
C173	C	1.362501	-0.176423	0.333355
C174	C	1.695834	0.156910	0.666688
C175	C	1.291276	0.118300	0.000092
C176	C	1.624610	0.451633	0.333426
C177	C	1.957943	0.784967	0.666759
C178	C	1.396422	0.123787	0.000094
C179	C	1.729755	0.457121	0.333428
C180	C	2.063088	0.790454	0.666761
C181	C	1.109828	0.202377	0.000052
C182	C	1.443161	0.535710	0.333385
C183	C	1.776495	0.869043	0.666719
C184	C	1.110912	0.256082	0.000036
C185	C	1.444246	0.589415	0.333369
C186	C	1.777579	0.922748	0.666703
N187	N	1.102361	0.121638	0.254299
N188	N	1.435694	0.454972	0.587633
N189	N	1.769028	0.788305	0.920966
N190	N	1.133718	0.107076	-0.254143
N191	N	1.467052	0.440409	0.079191
N192	N	1.800385	0.773743	0.412524
C193	C	1.088888	0.127901	0.473411
C194	C	1.422221	0.461234	0.806745
C195	C	1.755555	0.794568	1.140078
C196	C	1.147188	0.100815	0.526752
C197	C	1.480522	0.434148	0.860086
C198	C	1.813855	0.767481	1.193419
C199	C	1.139692	0.104299	0.648674
C200	C	1.473025	0.437633	0.982007
C201	C	1.806358	0.770966	1.315340
C202	C	1.096383	0.124417	0.351479
C203	C	1.429717	0.457750	0.684812
C204	C	1.763050	0.791084	1.018146
H205	H	1.281792	-0.035739	0.000136
H206	H	1.615126	0.297595	0.333470
H207	H	1.948459	0.630928	0.666803
H208	H	1.361743	-0.361429	0.000083
H209	H	1.695077	-0.028096	0.333416
H210	H	2.028410	0.305238	0.666749
H211	H	0.619555	0.171325	0.000054
H212	H	0.952888	0.504659	0.333387
H213	H	1.286221	0.837992	0.666720
H214	H	1.033350	0.153706	0.519306
H215	H	1.366683	0.487040	0.852639
H216	H	1.700016	0.820373	1.185973
H217	H	1.279983	-0.127277	0.000100
H218	H	1.613316	0.206056	0.333434
H219	H	1.946649	0.539390	0.666767
F220	F	0.607112	0.045875	0.000095
F221	F	0.940445	0.379208	0.333429
F222	F	1.273778	0.712542	0.666762
H223	H	1.363564	-0.269896	0.000101
H224	H	1.696897	0.063438	0.333434
H225	H	2.030230	0.396771	0.666768
H226	H	1.269555	-0.651370	0.000066
H227	H	1.602889	-0.318036	0.333400
H228	H	1.936222	0.015297	0.666733
F229	F	0.934628	-0.637191	0.000011
F230	F	1.267961	-0.303857	0.333345
F231	F	1.601295	0.029476	0.666678
H232	H	1.202731	0.075008	0.480853
H233	H	1.536065	0.408342	0.814186
H234	H	1.869398	0.741675	1.147519
H235	H	1.267725	-0.742921	0.000051
H236	H	1.601058	-0.409588	0.333384
H237	H	1.934391	-0.076255	0.666718
F238	F	0.850808	-0.507180	0.000002
F239	F	1.184141	-0.173847	0.333335
F240	F	1.517474	0.159487	0.666668
F241	F	0.932559	-0.741342	0.000029
F242	F	1.265892	-0.408008	0.333362
F243	F	1.599225	-0.074675	0.666695
H244	H	0.875533	-0.349993	-0.000001
H245	H	1.208866	-0.016659	0.333332
H246	H	1.542199	0.316674	0.666666
H247	H	0.877360	-0.258456	0.000005
H248	H	1.210694	0.074877	0.333338
H249	H	1.544027	0.408211	0.666671
H250	H	0.966524	-0.119918	0.000104
H251	H	1.299857	0.213415	0.333437
H252	H	1.633191	0.546749	0.666770
H253	H	0.968354	-0.028365	0.000095
H254	H	1.301687	0.304968	0.333428
H255	H	1.635021	0.638301	0.666762
F256	F	1.382279	-0.415474	0.000074
F257	F	1.715612	-0.082141	0.333408
F258	F	2.048946	0.251193	0.666741
H259	H	1.358721	-0.512821	0.000062
H260	H	1.692055	-0.179487	0.333396
H261	H	2.025388	0.153846	0.666729
F262	F	0.852881	-0.403031	0.000012
F263	F	1.186215	-0.069697	0.333345
F264	F	1.519548	0.263636	0.666678
