data_functionalizedCrystal
_audit_creation_method	'MofGen! by Chris Wilmer'
_symmetry_space_group_name_H-M	'P1'
_symmetry_Int_Tables_number	1
_symmetry_cell_setting	triclinic
loop_
_symmetry_equiv_pos_as_xyz
  x,y,z
_cell_length_a	18.215407
_cell_length_b	14.908520
_cell_length_c	18.215398
_cell_angle_alpha	93.271864
_cell_angle_beta	89.980536
_cell_angle_gamma	93.321174
loop_
_atom_site_label
_atom_site_type_symbol
_atom_site_fract_x
_atom_site_fract_y
_atom_site_fract_z
Zn1	Zn	1.108174	-0.359182	-0.433018
Zn2	Zn	1.608174	0.140818	0.066982
Zn3	Zn	1.100987	-0.510045	-0.317051
Zn4	Zn	1.600987	-0.010045	0.182949
Zn5	Zn	0.985106	-0.359205	-0.309967
Zn6	Zn	1.485106	0.140795	0.190033
Zn7	Zn	0.977978	-0.510001	-0.440074
Zn8	Zn	1.477978	-0.010001	0.059926
O9	O	1.043061	-0.434608	-0.375028
O10	O	1.543061	0.065392	0.124972
O11	O	1.210204	-0.379203	-0.417647
O12	O	1.710204	0.120797	0.082353
O13	O	1.085590	-0.490063	-0.213129
O14	O	1.585590	0.009937	0.286871
O15	O	1.007422	-0.232956	-0.320372
O16	O	1.507422	0.267044	0.179628
O17	O	1.204924	-0.490041	-0.332447
O18	O	1.704924	0.009959	0.167553
O19	O	1.097840	-0.232939	-0.410777
O20	O	1.597840	0.267061	0.089223
O21	O	1.000453	-0.379242	-0.207924
O22	O	1.500453	0.120758	0.292076
O23	O	0.881177	-0.379199	-0.327214
O24	O	1.381177	0.120801	0.172786
O25	O	0.995273	-0.489967	-0.542121
O26	O	1.495273	0.010033	-0.042121
O27	O	0.875940	-0.489989	-0.422803
O28	O	1.375940	0.010011	0.077197
O29	O	1.090928	-0.379160	-0.536937
O30	O	1.590928	0.120840	-0.036937
O31	O	1.078678	-0.636284	-0.339289
O32	O	1.578678	-0.136284	0.160711
O33	O	0.988304	-0.636252	-0.429673
O34	O	1.488304	-0.136252	0.070327
C35	C	0.851855	-0.434593	-0.375006
C36	C	1.351855	0.065407	0.124994
C37	C	0.770056	-0.434608	-0.375015
C38	C	1.270056	0.065392	0.124985
C39	C	0.579150	-0.492386	-0.424734
C40	C	1.079150	0.007614	0.075266
C41	C	0.502291	-0.492389	-0.424743
C42	C	1.002291	0.007611	0.075257
C43	C	0.507723	-0.376846	-0.325339
C44	C	1.007723	0.123154	0.174661
C45	C	0.584581	-0.376839	-0.325333
C46	C	1.084581	0.123161	0.174667
C47	C	0.620292	-0.434615	-0.375030
C48	C	1.120292	0.065385	0.124970
C49	C	0.466576	-0.434624	-0.375045
C50	C	0.966576	0.065376	0.124955
C51	C	0.383242	-0.434627	-0.375054
C52	C	0.883242	0.065373	0.124946
C53	C	0.703631	-0.434611	-0.375021
C54	C	1.203631	0.065389	0.124979
C55	C	1.031958	-0.669002	-0.386031
C56	C	1.531958	-0.169002	0.113969
C57	C	1.027275	-0.769277	-0.390763
C58	C	1.527275	-0.269277	0.109237
C59	C	1.112679	-0.957676	-0.305614
C60	C	1.612679	-0.457676	0.194386
C61	C	1.108281	-1.051893	-0.310057
C62	C	1.608281	-0.551893	0.189943
C63	C	1.014087	-1.051930	-0.404098
C64	C	1.514087	-0.551930	0.095902
C65	C	1.018484	-0.957713	-0.399654
C66	C	1.518484	-0.457713	0.100346
C67	C	1.067781	-0.910589	-0.350409
C68	C	1.567781	-0.410589	0.149591
C69	C	1.072174	-0.816371	-0.345963
C70	C	1.572174	-0.316371	0.154037
C71	C	0.977984	-0.816409	-0.440006
C72	C	1.477984	-0.316409	0.059994
C73	C	0.973587	-0.910626	-0.444450
C74	C	1.473587	-0.410626	0.055550
C75	C	1.235013	-0.434624	-0.375050
C76	C	1.735013	0.065376	0.124950
C77	C	1.316812	-0.434631	-0.375060
C78	C	1.816812	0.065369	0.124940
C79	C	1.043107	-0.434556	-0.566978
C80	C	1.543107	0.065444	-0.066978
C81	C	1.043127	-0.434534	-0.648776
C82	C	1.543127	0.065466	-0.148776
C83	C	1.054228	-0.199299	-0.363997
C84	C	1.554228	0.300701	0.136003
C85	C	1.058986	-0.099024	-0.359297
C86	C	1.558986	0.400976	0.140703
C87	C	1.087496	-0.492127	-0.916543
C88	C	1.587496	0.007873	-0.416543
C89	C	1.087484	-0.492159	-0.839686
C90	C	1.587484	0.007841	-0.339686
C91	C	0.998821	-0.376767	-0.834250
C92	C	1.498821	0.123233	-0.334250
C93	C	0.998830	-0.376740	-0.911106
C94	C	1.498830	0.123260	-0.411106
C95	C	1.043172	-0.434420	-0.952251
C96	C	1.543172	0.065580	-0.452251
C97	C	1.043150	-0.434477	-0.798537
C98	C	1.543150	0.065523	-0.298537
C99	C	1.043136	-0.434510	-0.715205
C100	C	1.543136	0.065490	-0.215205
C101	C	1.043185	-0.434388	-1.035588
C102	C	1.543185	0.065612	-0.535588
C103	C	1.043061	-0.434595	-0.183821
C104	C	1.543061	0.065405	0.316179
C105	C	1.043196	-0.434362	-0.102011
C106	C	1.543196	0.065638	0.397989
H107	H	0.478638	-0.329809	-0.284876
H108	H	0.978638	0.170191	0.215124
Cl109	Cl	0.943097	-0.304239	-0.782519
Cl110	Cl	1.443097	0.195761	-0.282519
H111	H	0.973957	-1.090314	-0.444195
H112	H	1.473957	-0.590314	0.055805
H113	H	0.618080	-0.329789	-0.284858
H114	H	1.118080	0.170211	0.215142
Cl115	Cl	0.943092	-0.304201	-0.955999
Cl116	Cl	1.443092	0.195799	-0.455999
Cl117	Cl	0.921528	-0.757209	-0.496314
Cl118	Cl	1.421528	-0.257209	0.003686
H119	H	1.123602	-0.539094	-0.950041
H120	H	1.623602	-0.039094	-0.450041
H121	H	0.608224	-0.539429	-0.465202
H122	H	1.108224	-0.039429	0.034798
Cl123	Cl	0.450573	-0.565018	-0.487232
Cl124	Cl	0.950573	-0.065018	0.012768
Cl125	Cl	1.143207	-0.564710	-0.794800
Cl126	Cl	1.643207	-0.064710	-0.294800
Cl127	Cl	0.911620	-0.969876	-0.506355
Cl128	Cl	1.411620	-0.469876	-0.006355
H129	H	1.112312	-0.778003	-0.305863
H130	H	1.612312	-0.278003	0.194137
H131	H	1.144843	-1.090228	-0.273581
H132	H	1.644843	-0.590228	0.226419
Cl133	Cl	1.174639	-0.898432	-0.243698
Cl134	Cl	1.674639	-0.398432	0.256302
