data_functionalizedCrystal
_audit_creation_method	'MofGen! by Chris Wilmer'
_symmetry_space_group_name_H-M	'P1'
_symmetry_Int_Tables_number	1
_symmetry_cell_setting	triclinic
loop_
_symmetry_equiv_pos_as_xyz
  x,y,z
_cell_length_a	10.686220
_cell_length_b	13.897448
_cell_length_c	10.685314
_cell_angle_alpha	94.334330
_cell_angle_beta	98.357559
_cell_angle_gamma	94.399460
loop_
_atom_site_label
_atom_site_type_symbol
_atom_site_fract_x
_atom_site_fract_y
_atom_site_fract_z
Zn1	Zn	1.885474	-0.306580	-0.569001
Zn2	Zn	1.901609	-0.454532	-0.356765
Zn3	Zn	1.689484	-0.306660	-0.373036
Zn4	Zn	1.673193	-0.481248	-0.585202
O5	O	1.787440	-0.387255	-0.471001
O6	O	2.065230	-0.314992	-0.527258
O7	O	1.887041	-0.423768	-0.181310
O8	O	1.715549	-0.171666	-0.399061
O9	O	2.077084	-0.423691	-0.371329
O10	O	1.859542	-0.171607	-0.543035
O11	O	1.731194	-0.315128	-0.193264
O12	O	1.509708	-0.341034	-0.414770
O13	O	1.687781	-0.469226	-0.760667
O14	O	1.497738	-0.469303	-0.570648
O15	O	1.843744	-0.340898	-0.748764
O16	O	1.871243	-0.593059	-0.387038
O17	O	1.703427	-0.612688	-0.554870
C18	C	1.457669	-0.408077	-0.496233
C19	C	1.316589	-0.417009	-0.507058
C20	C	1.787350	-0.637873	-0.470972
C21	C	1.787425	-0.745084	-0.470992
C22	C	1.787552	-0.941375	-0.471062
C23	C	1.787477	-0.832145	-0.471027
C24	C	2.118499	-0.366353	-0.445671
C25	C	2.259576	-0.357445	-0.434877
C26	C	1.762146	-0.408033	-0.802056
C27	C	1.751367	-0.416887	-0.943132
C28	C	1.787563	-0.135658	-0.471056
C29	C	1.787615	-0.028442	-0.471079
C30	C	1.812709	-0.366483	-0.141228
C31	C	1.823734	-0.357342	-0.000134
H32	H	1.893925	-0.299580	-0.941010
O33	O	1.667439	-0.485705	-1.013624
C34	C	1.448445	-0.548735	-1.070886
C35	C	1.543347	-0.470733	-0.991009
H36	H	1.348099	-0.536669	-1.052610
H37	H	1.454275	-0.543849	-1.175936
H38	H	1.472726	-0.623484	-1.043177
H39	H	1.519129	-0.395948	-1.018607
H40	H	1.537499	-0.475704	-0.885978
H41	H	1.318695	-0.299617	-0.364797
O42	O	1.246134	-0.486133	-0.590530
C43	C	1.200697	-0.656678	-0.654921
C44	C	1.280549	-0.578500	-0.560287
H45	H	1.228511	-0.731373	-0.630521
H46	H	1.095649	-0.651923	-0.649049
H47	H	1.218876	-0.644601	-0.755323
H48	H	1.262478	-0.590526	-0.459844
H49	H	1.385571	-0.583275	-0.566271
