data_functionalizedCrystal
_audit_creation_method	'MofGen! by Chris Wilmer'
_symmetry_space_group_name_H-M	'P1'
_symmetry_Int_Tables_number	1
_symmetry_cell_setting	triclinic
loop_
_symmetry_equiv_pos_as_xyz
  x,y,z
_cell_length_a	23.532407
_cell_length_b	23.532357
_cell_length_c	16.776229
_cell_angle_alpha	89.987808
_cell_angle_beta	89.998190
_cell_angle_gamma	82.838485
loop_
_atom_site_label
_atom_site_type_symbol
_atom_site_fract_x
_atom_site_fract_y
_atom_site_fract_z
O1	O	0.755249	0.069138	-0.066198
O2	O	1.255249	0.569138	0.433802
O3	O	0.589384	0.079141	-0.066223
O4	O	1.089384	0.579141	0.433777
O5	O	0.677333	-0.008794	-0.066193
O6	O	1.177333	0.491206	0.433807
O7	O	0.667300	0.157073	-0.066228
O8	O	1.167300	0.657073	0.433772
O9	O	0.677321	-0.008799	0.066383
O10	O	1.177321	0.491201	0.566383
O11	O	0.589372	0.079136	0.066354
O12	O	1.089372	0.579136	0.566354
O13	O	0.755238	0.069132	0.066378
O14	O	1.255238	0.569132	0.566378
Zn15	Zn	0.672303	0.074133	0.087415
Zn16	Zn	1.172303	0.574133	0.587415
Zn17	Zn	0.672318	0.074140	-0.087260
Zn18	Zn	1.172318	0.574140	0.412740
O19	O	0.667288	0.157068	0.066349
O20	O	1.167288	0.657068	0.566349
C21	C	0.568162	0.078884	0.000062
C22	C	1.068162	0.578884	0.500062
C23	C	0.504945	0.078118	0.000054
C24	C	1.004945	0.578118	0.500054
C25	C	0.105834	0.125353	0.000080
C26	C	0.605834	0.625353	0.500080
C27	C	0.046434	0.124641	0.000085
C28	C	0.546434	0.624641	0.500085
O29	O	0.009681	0.168428	0.000105
O30	O	0.509681	0.668428	0.500105
N31	N	0.023817	0.072364	0.000094
N32	N	0.523817	0.572364	0.500094
C33	C	0.060604	0.020794	0.000107
C34	C	0.560604	0.520794	0.500107
O35	O	0.035912	-0.023737	0.000116
O36	O	0.535912	0.476263	0.500116
C37	C	0.120003	0.021506	0.000108
C38	C	0.620003	0.521506	0.500108
C39	C	0.142616	0.073787	0.000090
C40	C	0.642616	0.573787	0.500090
C41	C	0.128448	0.177629	0.000063
C42	C	0.628448	0.677629	0.500063
C43	C	0.187844	0.178341	0.000057
C44	C	0.687844	0.678341	0.500057
C45	C	0.224626	0.126775	0.000067
C46	C	0.724626	0.626775	0.500067
C47	C	0.202012	0.074498	0.000084
C48	C	0.702012	0.574498	0.500084
C49	C	0.156788	-0.030063	0.000126
C50	C	0.656788	0.469937	0.500126
C51	C	0.216191	-0.029346	0.000127
C52	C	0.716191	0.470654	0.500127
C53	C	0.238804	0.022935	0.000110
C54	C	0.738804	0.522935	0.500110
C55	C	0.298190	0.023644	0.000087
C56	C	0.798190	0.523644	0.500087
N57	N	0.320807	0.075922	0.000078
N58	N	0.820807	0.575922	0.500078
C59	C	0.284025	0.127487	0.000068
C60	C	0.784025	0.627487	0.500068
C61	C	-0.064139	0.019303	0.000107
C62	C	0.435861	0.519303	0.500107
C63	C	-0.123536	0.018590	0.000101
C64	C	0.376464	0.518590	0.500101
C65	C	-0.137702	0.122437	0.000080
C66	C	0.362298	0.622437	0.500080
C67	C	-0.078303	0.123149	0.000081
C68	C	0.421697	0.623149	0.500081
C69	C	-0.041522	0.071580	0.000098
C70	C	0.458478	0.571580	0.500098
C71	C	0.408761	0.128977	0.000053
C72	C	0.908761	0.628977	0.500053
C73	C	0.468163	0.129684	0.000043
C74	C	0.968163	0.629684	0.500043
C75	C	0.482324	0.025836	0.000068
C76	C	0.982324	0.525836	0.500068
C77	C	0.422927	0.025130	0.000074
C78	C	0.922927	0.525130	0.500074
C79	C	0.386147	0.076704	0.000069
C80	C	0.886147	0.576704	0.500069
O81	O	0.334977	-0.020120	0.000071
O82	O	0.834977	0.479880	0.500071
O83	O	0.308725	0.172011	0.000069
O84	O	0.808725	0.672011	0.500069
C85	C	0.677076	-0.030013	0.000097
C86	C	1.177076	0.469987	0.500097
C87	C	0.676322	-0.093232	0.000105
C88	C	1.176322	0.406768	0.500105
C89	C	0.671591	-0.485240	-0.072207
C90	C	1.171591	0.014760	0.427793
C91	C	0.670874	-0.544640	-0.072211
C92	C	1.170874	-0.044640	0.427789
O93	O	0.670489	-0.575354	-0.133672
O94	O	1.170489	-0.075354	0.366328
N95	N	0.670512	-0.574354	0.000055
N96	N	1.170512	-0.074354	0.500055
C97	C	0.670862	-0.544665	0.072331
C98	C	1.170862	-0.044665	0.572331
O99	O	0.670487	-0.575393	0.133799
O100	O	1.170487	-0.075393	0.633799
C101	C	0.671575	-0.485266	0.072335
C102	C	1.171575	0.014734	0.572335
C103	C	0.671943	-0.455556	0.000064
C104	C	1.171943	0.044444	0.500064
C105	C	0.671958	-0.455530	-0.144472
C106	C	1.171958	0.044470	0.355528
C107	C	0.672677	-0.396135	-0.144467
C108	C	1.172677	0.103865	0.355533
C109	C	0.673028	-0.366450	-0.072197
C110	C	1.173028	0.133550	0.427803
C111	C	0.672661	-0.396160	0.000069
C112	C	1.172661	0.103840	0.500069
C113	C	0.671920	-0.455577	0.144610
C114	C	1.171920	0.044423	0.644610
C115	C	0.672633	-0.396174	0.144607
C116	C	1.172633	0.103826	0.644607
C117	C	0.673001	-0.366464	0.072336
C118	C	1.173001	0.133536	0.572336
C119	C	0.673730	-0.307080	0.072344
C120	C	1.173730	0.192920	0.572344
N121	N	0.674092	-0.277366	0.000077
N122	N	1.174092	0.222634	0.500077
C123	C	0.673741	-0.307051	-0.072193
C124	C	1.173741	0.192949	0.427807
C125	C	0.669363	-0.669406	0.072317
C126	C	1.169363	-0.169406	0.572317
C127	C	0.668654	-0.728805	0.072314
C128	C	1.168654	-0.228805	0.572314
C129	C	0.668665	-0.728776	-0.072228
C130	C	1.168665	-0.228776	0.427772
C131	C	0.669379	-0.669377	-0.072224
C132	C	1.169379	-0.169377	0.427776
C133	C	0.669725	-0.639692	0.000051
C134	C	1.169725	-0.139692	0.500051
C135	C	0.675250	-0.182317	-0.072177
C136	C	1.175250	0.317683	0.427823
C137	C	0.675971	-0.122917	-0.072166
C138	C	1.175971	0.377083	0.427834
C139	C	0.675956	-0.122951	0.072376
C140	C	1.175956	0.377049	0.572376
C141	C	0.675238	-0.182346	0.072365
C142	C	1.175238	0.317654	0.572365
C143	C	0.674883	-0.212027	0.000082
C144	C	1.174883	0.287973	0.500082
O145	O	0.674113	-0.276328	0.133773
O146	O	1.174113	0.223672	0.633773
O147	O	0.674108	-0.276314	-0.133650
O148	O	1.174108	0.223686	0.366350
C149	C	0.776459	0.069390	0.000091
C150	C	1.276459	0.569390	0.500091
C151	C	0.839676	0.070156	0.000095
C152	C	1.339676	0.570156	0.500095
C153	C	0.667545	0.178287	0.000056
C154	C	1.167545	0.678287	0.500056
C155	C	0.668300	0.241506	0.000044
C156	C	1.168300	0.741506	0.500044
N157	N	0.672297	0.074128	0.206626
N158	N	1.172297	0.574128	0.706626
N159	N	0.672329	0.074141	-0.206471
N160	N	1.172329	0.574141	0.293529
C161	C	0.711252	0.035206	0.248357
C162	C	1.211252	0.535206	0.748357
C163	C	0.711256	0.035206	0.331809
C164	C	1.211256	0.535206	0.831809
C165	C	0.672305	0.074130	0.373529
C166	C	1.172305	0.574130	0.873529
C167	C	0.633346	0.113054	0.331793
C168	C	1.133346	0.613054	0.831793
C169	C	0.633340	0.113052	0.248343
C170	C	1.133340	0.613052	0.748343
C171	C	0.633366	0.113065	0.668341
C172	C	1.133366	0.613065	1.168341
C173	C	0.633376	0.113066	0.751797
C174	C	1.133376	0.613066	1.251797
C175	C	0.711282	0.035220	0.751807
C176	C	1.211282	0.535220	1.251807
C177	C	0.711276	0.035217	0.668356
C178	C	1.211276	0.535217	1.168356
C179	C	0.672315	0.074138	0.626627
C180	C	1.172315	0.574138	1.126627
C181	C	0.672311	0.074138	0.536139
C182	C	1.172311	0.574138	1.036139
C183	C	0.672311	0.074134	0.464016
C184	C	1.172311	0.574134	0.964016
H185	H	-0.034193	-0.022694	0.000114
H186	H	0.465807	0.477306	0.500114
O187	O	0.092803	0.227777	0.000015
O188	O	0.592803	0.727777	0.500015
C189	C	0.125513	0.274063	0.000022
C190	C	0.625513	0.774063	0.500022
H191	H	0.169931	0.259338	-0.025068
H192	H	0.669931	0.759338	0.474932
H193	H	0.103406	0.310174	-0.038483
H194	H	0.603406	0.810174	0.461517
H195	H	0.129651	0.290104	0.063621
H196	H	0.629651	0.790104	0.563621
H197	H	0.742976	0.003512	0.365785
H198	H	1.242976	0.503512	0.865785
O199	O	-0.056408	0.173971	-0.000037
O200	O	0.443592	0.673971	0.499963
C201	C	-0.075222	0.205378	-0.068718
C202	C	0.424778	0.705378	0.431282
H203	H	-0.116331	0.190091	-0.091609
H204	H	0.383669	0.690091	0.408391
H205	H	-0.083743	0.252853	-0.053287
H206	H	0.416257	0.752853	0.446713
H207	H	-0.040806	0.198587	-0.116795
H208	H	0.459194	0.698587	0.383205
O209	O	0.134901	-0.080886	0.000043
O210	O	0.634901	0.419114	0.500043
C211	C	0.153720	-0.112295	-0.068617
C212	C	0.653720	0.387705	0.431383
H213	H	0.194826	-0.097005	-0.091521
H214	H	0.694826	0.402995	0.408479
H215	H	0.162246	-0.159769	-0.053153
H216	H	0.662246	0.340231	0.446847
H217	H	0.119305	-0.105511	-0.116696
H218	H	0.619305	0.394489	0.383304
H219	H	0.742995	0.003523	0.634390
H220	H	1.242995	0.503523	1.134390
H221	H	0.669677	-0.645190	-0.131074
H222	H	1.169677	-0.145190	0.368926
O223	O	-0.173520	0.172478	0.000109
O224	O	0.326480	0.672478	0.500109
C225	C	-0.230794	0.160632	0.000094
C226	C	0.269206	0.660632	0.500094
H227	H	-0.232811	0.115910	0.025202
H228	H	0.267189	0.615910	0.525202
H229	H	-0.257897	0.193517	0.038579
H230	H	0.242103	0.693517	0.538579
H231	H	-0.247986	0.162893	-0.063509
H232	H	0.252014	0.662893	0.436491
O233	O	-0.145404	-0.032246	0.000143
O234	O	0.354596	0.467754	0.500143
C235	C	-0.100195	-0.077602	0.000129
C236	C	0.399805	0.422398	0.500129
H237	H	-0.059932	-0.061869	0.025221
H238	H	0.440068	0.438131	0.525221
H239	H	-0.112397	-0.114126	0.038628
H240	H	0.387603	0.385874	0.538628
H241	H	-0.091700	-0.093487	-0.063472
H242	H	0.408300	0.406513	0.436528
O243	O	0.749203	-0.002541	0.792306
O244	O	1.249203	0.497459	1.292306
C245	C	0.805521	0.006422	0.771886
C246	C	1.305521	0.506422	1.271886
H247	H	0.805530	0.052021	0.748937
H248	H	1.305530	0.552021	1.248937
H249	H	0.834145	-0.000278	0.826763
H250	H	1.334145	0.499722	1.326763
H251	H	0.822429	-0.025229	0.723450
H252	H	1.322429	0.474771	1.223450
O253	O	0.209828	0.229115	-0.000106
O254	O	0.709828	0.729115	0.499894
C255	C	0.243768	0.232636	-0.068765
C256	C	0.743768	0.732636	0.431235
H257	H	0.229897	0.202948	-0.116741
H258	H	0.729897	0.702948	0.383259
H259	H	0.238159	0.278565	-0.091831
H260	H	0.738159	0.778565	0.408169
H261	H	0.290692	0.219243	-0.053243
H262	H	0.790692	0.719243	0.446757
H263	H	0.601618	0.144745	0.214367
H264	H	1.101618	0.644745	0.714367
O265	O	0.251978	-0.079405	0.000034
O266	O	0.751978	0.420595	0.500034
C267	C	0.286749	-0.082108	-0.068641
C268	C	0.786749	0.417892	0.431359
H269	H	0.289498	-0.036921	-0.091546
H270	H	0.789498	0.463079	0.408454
H271	H	0.331516	-0.103586	-0.053197
H272	H	0.831516	0.396414	0.446803
H273	H	0.267349	-0.108003	-0.116712
H274	H	0.767349	0.391997	0.383288
O275	O	0.595479	0.150898	0.792202
O276	O	1.095479	0.650898	1.292202
C277	C	0.561097	0.185259	0.737478
C278	C	1.061097	0.685259	1.237478
H279	H	0.560587	0.161911	0.677999
H280	H	1.060587	0.661911	1.177999
H281	H	0.515568	0.194172	0.761600
H282	H	1.015568	0.694172	1.261600
H283	H	0.579331	0.227478	0.728584
H284	H	1.079331	0.727478	1.228584
O285	O	0.595604	0.150904	0.627729
O286	O	1.095604	0.650904	1.127729
C287	C	0.625895	0.185895	0.579458
C288	C	1.125895	0.685895	1.079458
H289	H	0.670587	0.162980	0.566947
H290	H	1.170587	0.662980	1.066947
H291	H	0.602065	0.195034	0.520781
H292	H	1.102065	0.695034	1.020781
H293	H	0.629527	0.227964	0.611612
H294	H	1.129527	0.727964	1.111612
H295	H	0.672906	-0.372007	0.203464
H296	H	1.172906	0.127993	0.703464
H297	H	0.486571	0.172259	0.000029
H298	H	0.986571	0.672259	0.500029
H299	H	0.601629	0.144746	0.365767
H300	H	1.101629	0.644746	0.865767
H301	H	0.378821	0.170974	0.000052
H302	H	0.878821	0.670974	0.500052
H303	H	0.676245	-0.098771	0.131217
H304	H	1.176245	0.401229	0.631217
O305	O	0.401052	-0.025705	0.000115
O306	O	0.901052	0.474295	0.500115
C307	C	0.446257	-0.071065	0.000095
C308	C	0.946257	0.428935	0.500095
H309	H	0.486524	-0.055336	0.025185
H310	H	0.986524	0.444664	0.525185
H311	H	0.434054	-0.107588	0.038595
H312	H	0.934054	0.392412	0.538595
H313	H	0.454748	-0.086949	-0.063507
H314	H	0.954748	0.413051	0.436493
H315	H	0.676271	-0.098730	-0.131020
H316	H	1.176271	0.401270	0.368980
O317	O	0.518141	-0.024200	0.000116
O318	O	1.018141	0.475800	0.500116
C319	C	0.575415	-0.012354	0.000092
C320	C	1.075415	0.487646	0.500092
H321	H	0.577432	0.032368	0.025173
H322	H	1.077432	0.532368	0.525173
H323	H	0.602517	-0.045239	0.038595
H324	H	1.102517	0.454761	0.538595
H325	H	0.592609	-0.014615	-0.063511
H326	H	1.092609	0.485385	0.436489
H327	H	0.668378	-0.752955	-0.131075
H328	H	1.168378	-0.252955	0.368925
O329	O	0.674922	-0.211058	-0.142463
O330	O	1.174922	0.288942	0.357537
C331	C	0.675380	-0.172085	-0.206237
C332	C	1.175380	0.327915	0.293763
H333	H	0.693931	-0.132217	-0.185038
H334	H	1.193931	0.367783	0.314962
H335	H	0.702820	-0.193010	-0.256791
H336	H	1.202820	0.306990	0.243209
H337	H	0.629759	-0.159515	-0.228450
H338	H	1.129759	0.340485	0.271550
H339	H	0.668363	-0.752991	0.131165
H340	H	1.168363	-0.252991	0.631165
O341	O	0.672906	-0.367315	-0.214715
O342	O	1.172906	0.132685	0.285285
C343	C	0.623399	-0.375146	-0.258640
C344	C	1.123399	0.124854	0.241360
H345	H	0.588740	-0.386757	-0.216311
H346	H	1.088740	0.113243	0.283689
H347	H	0.607288	-0.333843	-0.291468
H348	H	1.107288	0.166157	0.208532
H349	H	0.634133	-0.411169	-0.303659
H350	H	1.134133	0.088831	0.196341
O351	O	0.671518	-0.484372	-0.214661
O352	O	1.171518	0.015628	0.285339
C353	C	0.621785	-0.512012	-0.219006
C354	C	1.121785	-0.012012	0.280994
H355	H	0.587512	-0.489422	-0.177999
H356	H	1.087512	0.010578	0.322001
H357	H	0.605229	-0.510407	-0.282930
H358	H	1.105229	-0.010407	0.217070
H359	H	0.632397	-0.558558	-0.199604
H360	H	1.132397	-0.058558	0.300396
H361	H	0.669647	-0.645241	0.131176
H362	H	1.169647	-0.145241	0.631176
O363	O	0.749111	-0.002661	0.207956
O364	O	1.249111	0.497339	0.707956
C365	C	0.783504	-0.037005	0.262688
C366	C	1.283504	0.462995	0.762688
H367	H	0.760162	-0.037527	0.322178
H368	H	1.260162	0.462473	0.822178
H369	H	0.792458	-0.082534	0.238593
H370	H	1.292458	0.417466	0.738593
H371	H	0.825701	-0.018727	0.271549
H372	H	1.325701	0.481273	0.771549
O373	O	0.671535	-0.484336	0.214886
O374	O	1.171535	0.015664	0.714886
C375	C	0.672008	-0.445388	0.278664
C376	C	1.172008	0.054612	0.778664
H377	H	0.654491	-0.400584	0.257461
H378	H	1.154491	0.099416	0.757461
H379	H	0.644136	-0.458774	0.329203
H380	H	1.144136	0.041226	0.829203
H381	H	0.717776	-0.445311	0.300901
H382	H	1.217776	0.054689	0.800901
H383	H	0.674944	-0.206538	0.131215
H384	H	1.174944	0.293462	0.631215
