data_functionalizedCrystal
_audit_creation_method	'MofGen! by Chris Wilmer'
_symmetry_space_group_name_H-M	'P1'
_symmetry_Int_Tables_number	1
_symmetry_cell_setting	triclinic
loop_
_symmetry_equiv_pos_as_xyz
  x,y,z
_cell_length_a	14.971486
_cell_length_b	11.892110
_cell_length_c	14.971486
_cell_angle_alpha	86.105906
_cell_angle_beta	96.385871
_cell_angle_gamma	86.100762
loop_
_atom_site_label
_atom_site_type_symbol
_atom_site_fract_x
_atom_site_fract_y
_atom_site_fract_z
O1	O	1.192650	-0.093873	-0.110858
O2	O	0.932252	-0.093904	-0.124815
O3	O	1.069430	-0.093880	0.012363
O4	O	1.055472	-0.093898	-0.248036
O5	O	1.057991	0.094126	0.000942
O6	O	0.920813	0.094101	-0.136236
O7	O	1.181211	0.094132	-0.122279
Zn8	Zn	1.049196	0.123967	-0.131071
Zn9	Zn	1.064267	-0.123739	-0.116023
O10	O	1.044033	0.094108	-0.259457
C11	C	0.893208	0.000095	-0.129901
C12	C	0.793912	0.000083	-0.128029
N13	N	1.038917	0.293019	-0.141340
C14	C	0.736687	0.000079	-0.208618
C15	C	0.643386	0.000096	-0.206856
C16	C	0.607313	0.000109	-0.124504
C17	C	0.664545	0.000116	-0.043909
C18	C	0.757843	0.000107	-0.045672
C19	C	0.470082	0.000132	-0.040239
C20	C	0.376777	0.000139	-0.038475
C21	C	0.355625	0.000121	-0.201423
C22	C	0.448923	0.000112	-0.203186
C23	C	0.506149	0.000117	-0.122591
C24	C	1.146067	0.529686	-0.034250
C25	C	1.138889	0.648026	-0.041435
C26	C	1.017377	0.648043	-0.162890
C27	C	1.024556	0.529702	-0.155705
C28	C	1.088904	0.470528	-0.091384
C29	C	1.096086	0.352185	-0.084204
C30	C	0.974571	0.352204	-0.205654
C31	C	0.967392	0.470544	-0.212839
C32	C	1.220256	0.000131	-0.117193
C33	C	1.319552	0.000135	-0.119064
C34	C	1.063086	0.000123	0.039977
C35	C	1.061216	0.000121	0.139275
N36	N	1.074547	0.707209	-0.105753
C37	C	1.050377	0.000103	-0.287071
C38	C	1.052248	0.000097	-0.386368
C39	C	1.141804	0.000132	0.196499
C40	C	1.140042	0.000120	0.289799
C41	C	1.057690	0.000106	0.325873
C42	C	0.977095	0.000092	0.268641
C43	C	0.978859	0.000096	0.175343
C44	C	0.973424	0.000088	0.463103
C45	C	0.971660	0.000087	0.556408
C46	C	1.134607	0.000112	0.577560
C47	C	1.136371	0.000116	0.484262
C48	C	1.055776	0.000104	0.427037
H49	H	0.766050	0.000068	-0.275679
O50	O	0.341879	0.000204	0.041595
C51	C	0.372704	0.000160	0.203036
C52	C	0.412343	0.000116	0.112418
H53	H	0.429656	0.000065	0.260321
H54	H	0.324802	0.078859	0.203208
H55	H	0.334302	-0.078501	0.212665
H56	H	0.450789	0.078723	0.102731
H57	H	0.460197	-0.078636	0.112287
O58	O	0.483815	0.000148	-0.283262
C59	C	0.452998	0.000066	-0.444695
C60	C	0.413362	0.000048	-0.354073
H61	H	0.396058	-0.000039	-0.501968
H62	H	0.491338	0.078760	-0.454434
H63	H	0.500956	-0.078600	-0.444762
H64	H	0.365366	0.078661	-0.353942
H65	H	0.375076	-0.078698	-0.344370
H66	H	0.928027	0.304024	-0.252179
O67	O	1.208470	0.472059	0.028251
C68	C	1.235526	0.338457	0.158492
C69	C	1.164754	0.403634	0.087764
H70	H	1.200208	0.283137	0.206638
H71	H	1.283582	0.282980	0.123186
H72	H	1.275185	0.401074	0.198052
H73	H	1.125031	0.341098	0.048183
H74	H	1.116760	0.459127	0.123124
O75	O	0.891591	0.000005	0.591307
C76	C	0.730153	0.000006	0.560485
C77	C	0.820769	0.000078	0.520844
H78	H	0.672869	0.000089	0.503534
H79	H	0.729999	-0.078697	0.608380
H80	H	0.720506	0.078663	0.598894
H81	H	0.830475	-0.078525	0.482391
H82	H	0.820881	0.078834	0.472997
O83	O	0.525774	-0.000016	0.038000
C84	C	0.649269	-0.097463	0.136514
C85	C	0.586271	-0.097414	0.047878
H86	H	0.698184	-0.176213	0.144538
H87	H	0.688768	-0.018842	0.134999
H88	H	0.607443	-0.097402	0.195661
H89	H	0.628028	-0.097514	-0.011316
H90	H	0.546768	-0.176028	0.049471
H91	H	0.804436	0.000110	0.019952
H92	H	0.913235	0.000087	0.128751
H93	H	0.635166	0.000143	0.023143
O94	O	0.895172	-0.000122	0.407487
C95	C	0.808543	-0.097487	0.295738
C96	C	0.897193	-0.097411	0.358696
H97	H	0.810156	-0.176125	0.256260
H98	H	0.749348	-0.097565	0.337502
H99	H	0.800522	-0.018769	0.246795
H100	H	0.905301	-0.176116	0.407652
H101	H	0.956343	-0.097274	0.316875
H102	H	1.185436	0.696190	0.005090
H103	H	1.148484	0.304006	-0.031833
O104	O	0.954747	0.705491	-0.225264
C105	C	0.797082	0.741690	-0.279631
C106	C	0.867917	0.676576	-0.208931
H107	H	0.726866	0.718319	-0.266463
H108	H	0.801696	0.836444	-0.274939
H109	H	0.810258	0.718453	-0.349881
H110	H	0.854788	0.699719	-0.138650
H111	H	0.863287	0.581839	-0.213703
O112	O	0.904767	0.527983	-0.275223
C113	C	0.747108	0.564167	-0.329620
C114	C	0.817934	0.499069	-0.258902
H115	H	0.676889	0.540796	-0.316461
H116	H	0.751717	0.658923	-0.324940
H117	H	0.760298	0.540914	-0.399862
H118	H	0.804790	0.522228	-0.188628
H119	H	0.813309	0.404329	-0.263661
O120	O	1.218396	-0.000015	0.345302
C121	C	1.363039	-0.097420	0.397868
C122	C	1.274349	-0.097393	0.334956
H123	H	1.408294	-0.176153	0.389539
H124	H	1.398834	-0.018782	0.379956
H125	H	1.347617	-0.097375	0.470738
H126	H	1.289692	-0.097477	0.262066
H127	H	1.238580	-0.176023	0.352945
H128	H	0.596797	0.000092	-0.272480
O129	O	1.216331	0.000329	0.449162
C130	C	1.306932	0.097706	0.350140
C131	C	1.216347	0.097623	0.389839
H132	H	1.306968	0.176348	0.302154
H133	H	1.364267	0.097783	0.407023
H134	H	1.316602	0.018991	0.311804
H135	H	1.206590	0.176324	0.428165
H136	H	1.159059	0.097487	0.332916
H137	H	1.208865	0.000150	0.167136
H138	H	0.309026	0.000122	-0.267047
O139	O	0.897032	0.000226	0.303563
C140	C	0.751313	0.097636	0.308150
C141	C	0.841939	0.097609	0.268521
H142	H	0.706752	0.176373	0.279850
H143	H	0.716209	0.019003	0.289336
H144	H	0.763917	0.097583	0.384664
H145	H	0.829414	0.097702	0.192004
H146	H	0.877015	0.176235	0.287407
H147	H	1.200231	0.000118	0.624158
