data_functionalizedCrystal
_audit_creation_method	'MofGen! by Chris Wilmer'
_symmetry_space_group_name_H-M	'P1'
_symmetry_Int_Tables_number	1
_symmetry_cell_setting	triclinic
loop_
_symmetry_equiv_pos_as_xyz
  x,y,z
_cell_length_a	18.101395
_cell_length_b	21.395364
_cell_length_c	21.395356
_cell_angle_alpha	90.024718
_cell_angle_beta	89.975103
_cell_angle_gamma	89.974863
loop_
_atom_site_label
_atom_site_type_symbol
_atom_site_fract_x
_atom_site_fract_y
_atom_site_fract_z
Zn1	Zn	-0.294966	-0.957851	-0.354292
Zn2	Zn	-0.418809	-0.957755	-0.249520
Zn3	Zn	-0.294973	-0.853068	-0.249527
Zn4	Zn	-0.418758	-0.853035	-0.354258
O5	O	-0.356877	-0.905427	-0.301899
O6	O	-0.311413	-1.045516	-0.340405
O7	O	-0.402407	-0.943842	-0.161843
O8	O	-0.191339	-0.867022	-0.263442
O9	O	-0.402400	-1.045446	-0.263430
O10	O	-0.191334	-0.944006	-0.340412
O11	O	-0.311425	-0.866929	-0.161848
O12	O	-0.311375	-0.765386	-0.263408
O13	O	-0.402312	-0.866965	-0.441941
O14	O	-0.402319	-0.765361	-0.340354
O15	O	-0.311363	-0.943974	-0.441966
O16	O	-0.522435	-0.943809	-0.263396
O17	O	-0.522397	-0.866872	-0.340347
C18	C	-0.356842	-0.742640	-0.301879
C19	C	-0.356846	-0.672998	-0.301885
C20	C	-0.309585	-0.171239	-0.342040
C21	C	-0.309582	-0.236674	-0.342041
C22	C	-0.356877	-0.269360	-0.301901
C23	C	-0.404191	-0.236605	-0.261767
C24	C	-0.404198	-0.171171	-0.261772
C25	C	-0.362626	-0.372998	-0.245436
C26	C	-0.362613	-0.438430	-0.245430
C27	C	-0.356859	-0.471181	-0.301887
C28	C	-0.351102	-0.438490	-0.358352
C29	C	-0.351109	-0.373056	-0.358356
C30	C	-0.356875	-0.340312	-0.301892
C31	C	-0.309548	-0.574880	-0.342023
C32	C	-0.309550	-0.640317	-0.342025
C33	C	-0.404155	-0.640247	-0.261745
C34	C	-0.404157	-0.574812	-0.261749
C35	C	-0.356849	-0.542132	-0.301886
C36	C	-0.549287	-0.905343	-0.301881
C37	C	-0.631601	-0.905365	-0.301894
C38	C	-0.930692	-0.905502	-0.301928
C39	C	-0.899374	-0.857208	-0.350463
C40	C	-0.813756	-0.856978	-0.350311
C41	C	-0.782310	-0.905434	-0.301912
C42	C	-0.813456	-0.887553	-0.235878
C43	C	-0.899101	-0.887241	-0.236168
C44	C	-0.899045	-0.971784	-0.318845
C45	C	-0.813394	-0.971395	-0.320293
C46	C	-0.698450	-0.905397	-0.301898
C47	C	-1.014552	-0.905538	-0.301937
C48	C	-0.163715	-0.905529	-0.301932
C49	C	-0.081401	-0.905572	-0.301945
C50	C	-0.356831	-0.905477	-0.465323
C51	C	-0.356811	-0.905498	-0.534964
C52	C	-0.356903	-0.068851	-0.301915
C53	C	-0.356891	-0.138492	-0.301909
C54	C	-0.309432	-0.865460	-0.567670
C55	C	-0.309418	-0.865458	-0.633105
C56	C	-0.356776	-0.905505	-0.665832
C57	C	-0.404165	-0.945545	-0.633118
C58	C	-0.404182	-0.945542	-0.567684
C59	C	-0.362605	-0.961956	-0.769520
C60	C	-0.362582	-0.961961	-0.834953
C61	C	-0.356726	-0.905515	-0.867653
C62	C	-0.350877	-0.849062	-0.834912
C63	C	-0.350894	-0.849059	-0.769478
C64	C	-0.356762	-0.905512	-0.736785
C65	C	-0.309329	-0.865471	-0.971312
C66	C	-0.309320	-0.865468	-1.036748
C67	C	-0.404063	-0.945561	-1.036760
C68	C	-0.404076	-0.945559	-0.971325
C69	C	-0.356705	-0.905515	-0.938605
C70	C	-0.356869	-0.905414	-0.139112
C71	C	-0.356680	-0.905515	-0.069471
H72	H	-0.346422	-0.346442	-0.404331
H73	H	-0.271067	-0.144635	-0.374726
H74	H	-0.270741	-0.832860	-1.063376
H75	H	-0.367297	-0.465042	-0.199454
H76	H	-0.442669	-0.666859	-0.229067
N77	N	-0.455167	-0.988749	-0.936040
H78	H	-0.489486	-0.963266	-0.908875
H79	H	-0.485119	-1.014113	-0.966735
H80	H	-0.793326	-0.807849	-0.339106
N81	N	-0.344885	-0.473803	-0.419250
H82	H	-0.345756	-0.520215	-0.410682
H83	H	-0.387751	-0.462365	-0.447203
N84	N	-0.786418	-0.989275	-0.384657
H85	H	-0.830136	-0.995781	-0.413242
H86	H	-0.754183	-0.954780	-0.401794
N87	N	-0.344577	-0.788178	-0.734164
H88	H	-0.340860	-0.752418	-0.764803
H89	H	-0.389702	-0.782331	-0.707001
H90	H	-0.442701	-0.263223	-0.229086
N91	N	-0.785034	-1.021584	-0.276887
H92	H	-0.751488	-1.002189	-0.244545
H93	H	-0.828117	-1.042457	-0.255353
N94	N	-0.258520	-0.675633	-0.385312
H95	H	-0.224164	-0.702781	-0.359895
H96	H	-0.288703	-0.702749	-0.414300
H97	H	-0.792064	-0.839614	-0.221291
N98	N	-0.455243	-0.988744	-0.668409
H99	H	-0.508157	-0.978982	-0.657009
H100	H	-0.447980	-0.982655	-0.714814
H101	H	-0.270832	-0.832855	-0.659740
H102	H	-0.919297	-1.007765	-0.283494
H103	H	-0.919137	-0.838790	-0.221838
N104	N	-0.785851	-0.871793	-0.415167
H105	H	-0.829186	-0.878532	-0.444113
H106	H	-0.754964	-0.835808	-0.430965
H107	H	-0.271027	-0.548271	-0.374705
H108	H	-0.442675	-0.548149	-0.229067
H109	H	-0.367342	-1.007928	-0.861606
N110	N	-0.926554	-0.931809	-0.186634
H111	H	-0.883018	-0.951568	-0.164704
H112	H	-0.957534	-0.908167	-0.155261
H113	H	-0.346103	-0.803099	-0.861535
H114	H	-0.442764	-0.978148	-0.541055
H115	H	-0.367314	-0.346338	-0.199458
H116	H	-0.442622	-0.978170	-1.063406
H117	H	-0.442721	-0.144509	-0.229092
H118	H	-0.270757	-0.832865	-0.944669
N119	N	-0.927591	-0.993392	-0.381535
H120	H	-0.912016	-0.962741	-0.414918
H121	H	-0.906587	-1.036011	-0.391400
H122	H	-0.793088	-0.921621	-0.198729
N123	N	-0.258333	-0.822278	-0.532379
H124	H	-0.228313	-0.796916	-0.563031
H125	H	-0.288467	-0.793261	-0.505209
H126	H	-0.919925	-0.868285	-0.399585
N127	N	-0.368936	-1.022840	-0.734253
H128	H	-0.372635	-1.058602	-0.764922
H129	H	-0.323826	-1.028685	-0.707111
H130	H	-0.271057	-0.263342	-0.374719
H131	H	-0.920954	-0.808377	-0.339398
