data_functionalizedCrystal
_audit_creation_method	'MofGen! by Chris Wilmer'
_symmetry_space_group_name_H-M	'P1'
_symmetry_Int_Tables_number	1
_symmetry_cell_setting	triclinic
loop_
_symmetry_equiv_pos_as_xyz
  x,y,z
_cell_length_a	17.699083
_cell_length_b	11.792241
_cell_length_c	16.776229
_cell_angle_alpha	89.993219
_cell_angle_beta	89.998886
_cell_angle_gamma	83.738215
loop_
_atom_site_label
_atom_site_type_symbol
_atom_site_fract_x
_atom_site_fract_y
_atom_site_fract_z
O1	O	1.004843	0.143527	-0.066177
O2	O	0.784565	0.162200	-0.066203
O3	O	0.900050	-0.012371	-0.066184
O4	O	0.889358	0.318098	-0.066196
O5	O	0.900034	-0.012382	0.066393
O6	O	0.784549	0.162189	0.066374
O7	O	1.004828	0.143516	0.066400
Zn8	Zn	0.894686	0.152851	0.087436
Zn9	Zn	0.894706	0.152865	-0.087239
O10	O	0.889343	0.318087	0.066381
C11	C	0.756356	0.161525	0.000082
C12	C	0.672328	0.159518	0.000072
C13	C	0.624253	0.261988	0.000069
C14	C	0.545299	0.260095	0.000079
C15	C	0.514422	0.155731	0.000087
C16	C	0.562503	0.053254	0.000093
C17	C	0.641455	0.055148	0.000089
C18	C	0.244099	0.045613	0.000113
C19	C	0.165141	0.043727	0.000116
C20	C	0.147944	0.250560	0.000104
C21	C	0.226896	0.252454	0.000099
C22	C	0.274970	0.149977	0.000109
C23	C	0.360580	0.152031	0.000099
C24	C	0.428814	0.153676	0.000091
C25	C	0.899370	-0.054660	0.000104
C26	C	0.897360	-0.180649	0.000103
C27	C	0.893664	-0.411317	0.000090
C28	C	0.895718	-0.282956	0.000097
C29	C	1.033036	0.144190	0.000113
C30	C	1.117065	0.146198	0.000118
C31	C	0.890022	0.360375	0.000091
C32	C	0.892032	0.486365	0.000087
N33	N	0.894678	0.152841	0.206647
N34	N	0.894721	0.152866	-0.206450
C35	C	0.945830	0.075572	0.248373
C36	C	0.945834	0.075571	0.331825
C37	C	0.894689	0.152845	0.373550
C38	C	0.843531	0.230117	0.331819
C39	C	0.843524	0.230112	0.248368
C40	C	0.843559	0.230139	0.668366
C41	C	0.843571	0.230141	0.751822
C42	C	0.945869	0.075599	0.751823
C43	C	0.945862	0.075593	0.668372
C44	C	0.894702	0.152861	0.626648
C45	C	0.894697	0.152860	0.536160
C46	C	0.894697	0.152853	0.464037
H47	H	0.987482	0.012652	0.214406
H48	H	0.987512	0.012674	0.634402
H49	H	0.252031	0.337438	0.000089
C50	C	0.493064	0.371311	0.000230
C51	C	0.447250	0.376286	0.068450
C52	C	0.399127	0.478731	0.068620
H53	H	0.461835	0.374972	-0.045947
H54	H	0.522731	0.433773	0.000261
H55	H	0.417585	0.313842	0.068411
H56	H	0.478458	0.372644	0.114638
H57	H	0.428794	0.541193	0.068651
H58	H	0.367903	0.482383	0.022440
H59	H	0.368041	0.482125	0.114909
C60	C	0.296161	-0.065767	0.000080
C61	C	0.252218	-0.157564	0.000065
C62	C	0.300154	-0.260189	0.000024
H63	H	0.327333	-0.069495	0.046300
H64	H	0.327307	-0.069392	-0.046171
H65	H	0.221085	-0.153941	0.046311
H66	H	0.221047	-0.153874	-0.046152
H67	H	0.331301	-0.263814	-0.046226
H68	H	0.331325	-0.263906	0.046245
H69	H	0.270347	-0.322486	0.000007
H70	H	0.108792	0.334002	0.000100
C71	C	0.788155	0.314167	0.797168
C72	C	0.828753	0.383598	0.845046
C73	C	0.777734	0.461021	0.886821
H74	H	0.756475	0.273525	0.829798
H75	H	0.757694	0.360247	0.760392
H76	H	0.859201	0.337523	0.881818
H77	H	0.860431	0.424265	0.812436
H78	H	0.747272	0.507101	0.850045
H79	H	0.746056	0.420369	0.919446
H80	H	0.805272	0.508146	0.919306
C81	C	0.787986	0.314162	0.623216
C82	C	0.743215	0.381855	0.677622
C83	C	0.692018	0.459283	0.636056
H84	H	0.756239	0.273526	0.590670
H85	H	0.815379	0.361419	0.590669
H86	H	0.715824	0.334604	0.710156
H87	H	0.774942	0.422516	0.710170
H88	H	0.719412	0.506541	0.603509
H89	H	0.660276	0.418638	0.603511
H90	H	0.661640	0.505230	0.672964
C91	C	1.001491	-0.008362	0.796981
C92	C	1.046293	-0.076013	0.742577
C93	C	1.097545	-0.153356	0.784145
H94	H	0.974164	-0.055666	0.829543
H95	H	1.033207	0.032375	0.829513
H96	H	1.014581	-0.116746	0.710059
H97	H	1.073637	-0.028740	0.710013
H98	H	1.129261	-0.112620	0.816676
H99	H	1.070211	-0.200652	0.816705
H100	H	1.127954	-0.199260	0.747238
C101	C	0.529026	-0.060093	0.000265
C102	C	0.553405	-0.122020	0.068484
C103	C	0.522576	-0.226436	0.068671
H104	H	0.545480	-0.102407	-0.045912
H105	H	0.475117	-0.046597	0.000307
H106	H	0.607304	-0.135519	0.068435
H107	H	0.536953	-0.079740	0.114672
H108	H	0.468667	-0.212940	0.068713
H109	H	0.539032	-0.268740	0.022491
H110	H	0.539108	-0.268462	0.114960
H111	H	0.801884	0.293031	0.365796
H112	H	0.801869	0.293030	0.214396
C113	C	0.693618	-0.056141	-0.000076
C114	C	0.679615	-0.118978	-0.068290
C115	C	0.727660	-0.221498	-0.068471
H116	H	0.684259	-0.099085	0.046104
H117	H	0.745071	-0.040114	-0.000122
H118	H	0.628174	-0.135008	-0.068237
H119	H	0.688979	-0.076069	-0.114482
H120	H	0.779113	-0.205470	-0.068517
H121	H	0.718297	-0.264431	-0.022288
H122	H	0.718171	-0.264141	-0.114757
C123	C	0.657877	0.375217	0.000181
C124	C	0.702721	0.382332	0.068374
C125	C	0.733714	0.486618	0.068500
H126	H	0.618015	0.436072	0.000222
H127	H	0.688359	0.380268	-0.046031
H128	H	0.672241	0.377293	0.114573
H129	H	0.742596	0.321502	0.068347
H130	H	0.764196	0.491669	0.022288
H131	H	0.693847	0.547464	0.068539
H132	H	0.764149	0.491455	0.114764
H133	H	0.987486	0.012653	0.365798
C134	C	0.131574	-0.069556	-0.000034
C135	C	0.086767	-0.076697	-0.068251
C136	C	0.055840	-0.181036	-0.068423
H137	H	0.101078	-0.074700	0.046145
H138	H	0.171492	-0.130351	-0.000070
H139	H	0.046855	-0.015920	-0.068208
H140	H	0.117245	-0.071573	-0.114441
H141	H	0.095758	-0.241831	-0.068459
H142	H	0.025348	-0.186171	-0.022241
H143	H	0.025441	-0.185900	-0.114710
