data_functionalizedCrystal
_audit_creation_method	'MofGen! by Chris Wilmer'
_symmetry_space_group_name_H-M	'P1'
_symmetry_Int_Tables_number	1
_symmetry_cell_setting	triclinic
loop_
_symmetry_equiv_pos_as_xyz
  x,y,z
_cell_length_a	19.805407
_cell_length_b	17.077402
_cell_length_c	17.077396
_cell_angle_alpha	89.970216
_cell_angle_beta	89.979457
_cell_angle_gamma	90.022883
loop_
_atom_site_label
_atom_site_type_symbol
_atom_site_fract_x
_atom_site_fract_y
_atom_site_fract_z
Zn1	Zn	-1.034759	0.312508	0.443857
Zn2	Zn	-0.701425	0.645841	0.777191
Zn3	Zn	-0.368092	0.979175	1.110524
Zn4	Zn	-1.034679	0.443783	0.312588
Zn5	Zn	-0.701345	0.777116	0.645922
Zn6	Zn	-0.368012	1.110450	0.979255
Zn7	Zn	-0.921571	0.312535	0.312603
Zn8	Zn	-0.588238	0.645868	0.645936
Zn9	Zn	-0.254905	0.979202	0.979270
Zn10	Zn	-0.921544	0.443736	0.443810
Zn11	Zn	-0.588211	0.777069	0.777143
Zn12	Zn	-0.254877	1.110403	1.110476
O13	O	-0.978138	0.378141	0.378215
O14	O	-0.644805	0.711474	0.711548
O15	O	-0.311472	1.044807	1.044881
O16	O	-1.129465	0.329930	0.426458
O17	O	-0.796131	0.663264	0.759792
O18	O	-0.462798	0.996597	1.093125
O19	O	-1.019653	0.426404	0.202743
O20	O	-0.686319	0.759737	0.536077
O21	O	-0.352986	1.093070	0.869410
O22	O	-0.936631	0.202685	0.330040
O23	O	-0.603298	0.536018	0.663374
O24	O	-0.269964	0.869351	0.996707
O25	O	-1.129406	0.426377	0.330015
O26	O	-0.796072	0.759711	0.663349
O27	O	-0.462739	1.093044	0.996682
O28	O	-1.019789	0.202665	0.426472
O29	O	-0.686456	0.535998	0.759806
O30	O	-0.353123	0.869331	1.093139
O31	O	-0.936553	0.329976	0.202754
O32	O	-0.603220	0.663310	0.536087
O33	O	-0.269887	0.996643	0.869421
O34	O	-0.826851	0.329931	0.329994
O35	O	-0.493518	0.663264	0.663327
O36	O	-0.160185	0.996597	0.996661
O37	O	-0.936584	0.426297	0.553663
O38	O	-0.603251	0.759631	0.886996
O39	O	-0.269917	1.092964	1.220330
O40	O	-0.826831	0.426323	0.426391
O41	O	-0.493498	0.759657	0.759724
O42	O	-0.160164	1.092990	1.093058
O43	O	-1.019763	0.329885	0.553698
O44	O	-0.686429	0.663218	0.887031
O45	O	-0.353096	0.996551	1.220365
O46	O	-1.019626	0.553624	0.329969
O47	O	-0.686293	0.886957	0.663302
O48	O	-0.352959	1.220290	0.996636
O49	O	-0.936506	0.553589	0.426377
O50	O	-0.603173	0.886922	0.759710
O51	O	-0.269840	1.220256	1.093043
C52	C	-0.802282	0.378126	0.378189
C53	C	-0.468949	0.711459	0.711523
C54	C	-0.135615	1.044792	1.044856
C55	C	-0.727050	0.378138	0.378197
C56	C	-0.393717	0.711471	0.711530
C57	C	-0.060384	1.044805	1.044864
C58	C	-0.978073	0.582088	0.378183
C59	C	-0.644740	0.915422	0.711517
C60	C	-0.311406	1.248755	1.044850
C61	C	-0.978107	0.669338	0.378196
C62	C	-0.644773	1.002672	0.711529
C63	C	-0.311440	1.336005	1.044863
C64	C	-1.154681	0.378156	0.378241
C65	C	-0.821348	0.711490	0.711574
C66	C	-0.488014	1.044823	1.044907
C67	C	-1.229913	0.378163	0.378252
C68	C	-0.896580	0.711496	0.711585
C69	C	-0.563246	1.044830	1.044918
C70	C	-0.691713	0.428405	0.428310
C71	C	-0.358380	0.761739	0.761643
C72	C	-0.025047	1.095072	1.094976
C73	C	-0.621025	0.428407	0.428321
C74	C	-0.287691	0.761740	0.761654
C75	C	0.045642	1.095073	1.094987
C76	C	-0.585675	0.378144	0.378215
C77	C	-0.252341	0.711477	0.711548
C78	C	0.080992	1.044811	1.044881
C79	C	-0.621017	0.327871	0.328100
C80	C	-0.287683	0.661205	0.661433
C81	C	0.045650	0.994538	0.994766
C82	C	-0.691704	0.327867	0.328093
C83	C	-0.358370	0.661200	0.661427
C84	C	-0.025037	0.994533	0.994760
C85	C	-0.335943	0.327889	0.328126
C86	C	-0.002610	0.661222	0.661459
C87	C	0.330723	0.994555	0.994792
C88	C	-0.265251	0.327899	0.328134
C89	C	0.068082	0.661232	0.661468
C90	C	0.401416	0.994566	0.994801
C91	C	-0.265264	0.428429	0.428353
C92	C	0.068069	0.761762	0.761686
C93	C	0.401402	1.095095	1.095020
C94	C	-0.335951	0.428424	0.428347
C95	C	-0.002618	0.761757	0.761680
C96	C	0.330715	1.095091	1.095013
C97	C	-0.371287	0.378149	0.378235
C98	C	-0.037954	0.711482	0.711568
C99	C	0.295379	1.044815	1.044902
C100	C	-0.447936	0.378147	0.378225
C101	C	-0.114602	0.711480	0.711558
C102	C	0.218731	1.044813	1.044891
C103	C	-0.509027	0.378149	0.378220
C104	C	-0.175694	0.711483	0.711554
C105	C	0.157639	1.044816	1.044887
C106	C	-0.978179	0.378083	0.582959
C107	C	-0.644846	0.711416	0.916292
C108	C	-0.311512	1.044749	1.249626
C109	C	-0.978197	0.378058	0.670209
C110	C	-0.644863	0.711391	1.003542
C111	C	-0.311530	1.044725	1.336876
C112	C	-0.978222	0.173396	0.378263
C113	C	-0.644889	0.506730	0.711597
C114	C	-0.311556	0.840063	1.044930
C115	C	-0.978258	0.086146	0.378284
C116	C	-0.644925	0.419480	0.711617
C117	C	-0.311591	0.752813	1.044951
C118	C	-1.021431	0.710320	0.328051
C119	C	-0.688098	1.043654	0.661384
C120	C	-0.354765	1.376987	0.994717
C121	C	-1.021465	0.792301	0.328071
C122	C	-0.688131	1.125634	0.661404
C123	C	-0.354798	1.458967	0.994737
C124	C	-0.978169	0.833298	0.378233
C125	C	-0.644836	1.166631	0.711566
C126	C	-0.311502	1.499964	1.044899
C127	C	-0.934843	0.792310	0.428384
C128	C	-0.601509	1.125643	0.761717
C129	C	-0.268176	1.458976	1.095051
C130	C	-0.934813	0.710331	0.428367
C131	C	-0.601480	1.043664	0.761701
C132	C	-0.268147	1.376997	1.095034
C133	C	-0.934905	0.963180	0.428414
C134	C	-0.601572	1.296513	0.761747
C135	C	-0.268239	1.629846	1.095080
C136	C	-0.934933	1.045164	0.428430
C137	C	-0.601600	1.378498	0.761763
C138	C	-0.268267	1.711831	1.095096
C139	C	-1.021556	1.045150	0.328117
C140	C	-0.688223	1.378483	0.661450
C141	C	-0.354890	1.711816	0.994784
C142	C	-1.021527	0.963171	0.328100
C143	C	-0.688194	1.296504	0.661434
C144	C	-0.354861	1.629837	0.994767
C145	C	-0.978200	0.922189	0.378251
C146	C	-0.644866	1.255522	0.711584
C147	C	-0.311533	1.588855	1.044917
C148	C	-0.978136	0.378142	0.174267
C149	C	-0.644803	0.711475	0.507600
C150	C	-0.311470	1.044808	0.840933
C151	C	-0.978250	0.377945	0.087017
C152	C	-0.644917	0.711278	0.420351
C153	C	-0.311583	1.044612	0.753684
C154	C	-1.021509	0.327852	0.711219
C155	C	-0.688176	0.661185	1.044552
C156	C	-0.354843	0.994519	1.377885
C157	C	-1.021517	0.327826	0.793199
C158	C	-0.688184	0.661159	1.126532
C159	C	-0.354851	0.994492	1.459866
C160	C	-0.978216	0.378010	0.834168
C161	C	-0.644882	0.711344	1.167502
C162	C	-0.311549	1.044677	1.500835
C163	C	-0.934898	0.428219	0.793153
C164	C	-0.601565	0.761552	1.126486
C165	C	-0.268232	1.094885	1.459820
C166	C	-0.934887	0.428240	0.711174
C167	C	-0.601554	0.761574	1.044507
C168	C	-0.268221	1.094907	1.377841
C169	C	-0.934926	0.428172	0.964023
C170	C	-0.601592	0.761505	1.297356
C171	C	-0.268259	1.094838	1.630690
C172	C	-0.934937	0.428151	1.046008
C173	C	-0.601604	0.761484	1.379341
C174	C	-0.268271	1.094818	1.712674
C175	C	-1.021556	0.327757	1.046048
C176	C	-0.688222	0.661090	1.379382
C177	C	-0.354889	0.994424	1.712715
C178	C	-1.021545	0.327779	0.964069
C179	C	-0.688211	0.661112	1.297403
C180	C	-0.354878	0.994445	1.630736
C181	C	-0.978228	0.377988	0.923059
C182	C	-0.644895	0.711322	1.256393
C183	C	-0.311561	1.044655	1.589726
H184	H	-0.720490	0.469337	0.469109
H185	H	-0.387157	0.802671	0.802443
H186	H	-0.053824	1.136004	1.135776
F187	F	-0.373541	0.274379	0.274794
F188	F	-0.040208	0.607713	0.608128
F189	F	0.293125	0.941046	0.941461
F190	F	-1.067606	0.919540	0.274711
F191	F	-0.734273	1.252874	0.608045
F192	F	-0.400940	1.586207	0.941378
F193	F	-1.067640	0.274416	0.836841
F194	F	-0.734307	0.607750	1.170174
F195	F	-0.400973	0.941083	1.503508
F196	F	-0.583420	0.481908	0.481658
F197	F	-0.250086	0.815241	0.814991
F198	F	0.083247	1.148574	1.148324
F199	F	-0.888846	0.481557	1.089609
F200	F	-0.555512	0.814890	1.422942
F201	F	-0.222179	1.148223	1.756275
F202	F	-0.729312	0.274364	0.274758
F203	F	-0.395978	0.607697	0.608091
F204	F	-0.062645	0.941030	0.941425
F205	F	-0.888848	1.088795	0.481811
F206	F	-0.555514	1.422128	0.815144
F207	F	-0.222181	1.755461	1.148477
H208	H	-1.056743	0.825665	0.287236
H209	H	-0.723410	1.158998	0.620570
H210	H	-0.390077	1.492331	0.953903
F211	F	-0.888821	0.481609	0.920379
F212	F	-0.555488	0.814942	1.253713
F213	F	-0.222155	1.148276	1.587046
F214	F	-0.888768	0.835944	0.481775
F215	F	-0.555435	1.169277	0.815108
F216	F	-0.222101	1.502610	1.148442
F217	F	-0.888811	0.481626	0.836758
F218	F	-0.555477	0.814959	1.170091
F219	F	-0.222144	1.148293	1.503424
H220	H	-0.236471	0.286964	0.287332
H221	H	0.096862	0.620298	0.620665
H222	H	0.430196	0.953631	0.953999
F223	F	-0.888793	0.919565	0.481792
F224	F	-0.555459	1.252899	0.815125
F225	F	-0.222126	1.586232	1.148458
F226	F	-1.067664	1.088767	0.274737
F227	F	-0.734331	1.422100	0.608071
F228	F	-0.400998	1.755433	0.941404
H229	H	-0.592229	0.286943	0.287306
H230	H	-0.258896	0.620277	0.620639
H231	H	0.074438	0.953610	0.953973
H232	H	-0.899535	0.676964	0.469202
H233	H	-0.566202	1.010297	0.802535
H234	H	-0.232868	1.343631	1.135869
H235	H	-0.364730	0.469355	0.469146
H236	H	-0.031397	0.802689	0.802479
H237	H	0.301937	1.136022	1.135812
F238	F	-1.067601	0.274442	0.667623
F239	F	-0.734268	0.607775	1.000957
F240	F	-0.400934	0.941108	1.334290
H241	H	-1.056808	0.286918	0.930714
H242	H	-0.723475	0.620252	1.264048
H243	H	-0.390142	0.953585	1.597381
F244	F	-1.067657	0.274320	1.089694
F245	F	-0.734324	0.607654	1.423028
F246	F	-0.400991	0.940987	1.756361
F247	F	-0.227652	0.481936	0.481688
F248	F	0.105681	0.815269	0.815021
F249	F	0.439015	1.148603	1.148354
H250	H	-1.056685	0.676946	0.287199
H251	H	-0.723351	1.010279	0.620533
H252	H	-0.390018	1.343613	0.953866
F253	F	-0.888786	0.481675	0.667529
F254	F	-0.555453	0.815008	1.000862
F255	F	-0.222120	1.148341	1.334195
