data_functionalizedCrystal
_audit_creation_method	'MofGen! by Chris Wilmer'
_symmetry_space_group_name_H-M	'P1'
_symmetry_Int_Tables_number	1
_symmetry_cell_setting	triclinic
loop_
_symmetry_equiv_pos_as_xyz
  x,y,z
_cell_length_a	13.897448
_cell_length_b	18.215407
_cell_length_c	13.897441
_cell_angle_alpha	89.982568
_cell_angle_beta	89.970373
_cell_angle_gamma	90.015136
loop_
_atom_site_label
_atom_site_type_symbol
_atom_site_fract_x
_atom_site_fract_y
_atom_site_fract_z
Zn1	Zn	-0.384059	1.125109	-0.545351
Zn2	Zn	0.115941	1.625109	-0.045351
Zn3	Zn	-0.545378	1.125033	-0.384053
Zn4	Zn	-0.045378	1.625033	0.115947
Zn5	Zn	-0.384092	1.002042	-0.384073
Zn6	Zn	0.115908	1.502042	0.115927
Zn7	Zn	-0.545307	1.002023	-0.545308
Zn8	Zn	-0.045307	1.502023	-0.045308
O9	O	-0.464709	1.063552	-0.464696
O10	O	0.035291	1.563552	0.035304
O11	O	-0.405475	1.228083	-0.523964
O12	O	0.094525	1.728083	-0.023964
O13	O	-0.524027	1.108694	-0.249074
O14	O	-0.024027	1.608694	0.250926
O15	O	-0.249106	1.018406	-0.405493
O16	O	0.250894	1.518406	0.094507
O17	O	-0.523995	1.228027	-0.405459
O18	O	-0.023995	1.728027	0.094541
O19	O	-0.249082	1.108824	-0.523984
O20	O	0.250918	1.608824	-0.023984
O21	O	-0.405530	1.018332	-0.249088
O22	O	0.094470	1.518332	0.250912
O23	O	-0.405461	0.899055	-0.405452
O24	O	0.094539	1.399055	0.094548
O25	O	-0.523873	1.018375	-0.680296
O26	O	-0.023873	1.518375	-0.180296
O27	O	-0.523905	0.899041	-0.523911
O28	O	-0.023905	1.399041	-0.023911
O29	O	-0.405406	1.108806	-0.680327
O30	O	0.094594	1.608806	-0.180327
O31	O	-0.680350	1.108676	-0.405417
O32	O	-0.180350	1.608676	0.094583
O33	O	-0.680298	1.018301	-0.523891
O34	O	-0.180298	1.518301	-0.023891
C35	C	-0.464679	0.872345	-0.464679
C36	C	0.035321	1.372345	0.035321
C37	C	-0.464690	0.790547	-0.464695
C38	C	0.035310	1.290547	0.035305
C39	C	-0.403103	0.602381	-0.526498
C40	C	0.096897	1.102381	-0.026498
C41	C	-0.403112	0.525522	-0.526501
C42	C	0.096888	1.025522	-0.026501
C43	C	-0.526342	0.525475	-0.402911
C44	C	-0.026342	1.025475	0.097089
C45	C	-0.526328	0.602332	-0.402904
C46	C	-0.026328	1.102332	0.097096
C47	C	-0.464710	0.640783	-0.464703
C48	C	0.035290	1.140783	0.035297
C49	C	-0.464732	0.487067	-0.464713
C50	C	0.035268	0.987067	0.035287
C51	C	-0.464742	0.403733	-0.464716
C52	C	0.035258	0.903733	0.035284
C53	C	-0.464699	0.724122	-0.464699
C54	C	0.035301	1.224122	0.035301
C55	C	-0.715323	1.063498	-0.464668
C56	C	-0.215323	1.563498	0.035332
C57	C	-0.822537	1.063542	-0.464689
C58	C	-0.322537	1.563542	0.035311
C59	C	-1.018832	1.063620	-0.464749
C60	C	-0.518832	1.563620	0.035251
C61	C	-0.909600	1.063575	-0.464718
C62	C	-0.409600	1.563575	0.035282
C63	C	-0.213116	1.063626	-0.464745
C64	C	0.286884	1.563626	0.035255
C65	C	-0.105902	1.063657	-0.464766
C66	C	0.394098	1.563657	0.035234
C67	C	-0.464739	1.255505	-0.464714
C68	C	0.035261	1.755505	0.035286
C69	C	-0.464752	1.337303	-0.464721
C70	C	0.035248	1.837303	0.035279
C71	C	-0.464628	1.063597	-0.716289
C72	C	0.035372	1.563597	-0.216289
C73	C	-0.464593	1.063616	-0.823503
C74	C	0.035407	1.563616	-0.323503
C75	C	-0.464566	1.063631	-0.910573
C76	C	0.035434	1.563631	-0.410573
C77	C	-0.464523	1.063652	-1.019806
C78	C	0.035477	1.563652	-0.519806
C79	C	-0.464720	1.063549	-0.214082
C80	C	0.035280	1.563549	0.285918
C81	C	-0.464483	1.063673	-0.106868
C82	C	0.035517	1.563673	0.393132
H83	H	-0.576509	0.494158	-0.352598
H84	H	-0.076509	0.994158	0.147402
H85	H	-0.576496	0.633600	-0.352577
H86	H	-0.076496	1.133600	0.147423
H87	H	-0.352927	0.633685	-0.576816
H88	H	0.147073	1.133685	-0.076816
H89	H	-0.352944	0.494258	-0.576820
H90	H	0.147056	0.994258	-0.076820
