data_functionalizedCrystal
_audit_creation_method	'MofGen! by Chris Wilmer'
_symmetry_space_group_name_H-M	'P1'
_symmetry_Int_Tables_number	1
_symmetry_cell_setting	triclinic
loop_
_symmetry_equiv_pos_as_xyz
  x,y,z
_cell_length_a	15.944551
_cell_length_b	14.421503
_cell_length_c	15.944551
_cell_angle_alpha	89.996660
_cell_angle_beta	96.501262
_cell_angle_gamma	89.996859
loop_
_atom_site_label
_atom_site_type_symbol
_atom_site_fract_x
_atom_site_fract_y
_atom_site_fract_z
O1	O	1.114529	-0.077017	-0.108320
O2	O	1.614529	0.422983	0.391680
O3	O	0.869980	-0.077040	-0.121677
O4	O	1.369980	0.422960	0.378323
O5	O	0.998933	-0.077020	0.007276
O6	O	1.498933	0.422980	0.507276
O7	O	0.985576	-0.077038	-0.237273
O8	O	1.485576	0.422962	0.262727
O9	O	0.998911	0.077204	0.007257
O10	O	1.498911	0.577204	0.507257
O11	O	0.869958	0.077183	-0.121696
O12	O	1.369958	0.577183	0.378304
O13	O	1.114508	0.077206	-0.108340
O14	O	1.614508	0.577206	0.391660
Cu15	Cu	0.992231	0.091277	-0.115020
Cu16	Cu	1.492231	0.591277	0.384980
Cu17	Cu	0.992256	-0.091110	-0.114997
Cu18	Cu	1.492256	0.408890	0.385003
O19	O	0.985555	0.077186	-0.237293
O20	O	1.485555	0.577186	0.262707
C21	C	0.838675	0.000069	-0.121132
C22	C	1.338675	0.500069	0.378868
C23	C	0.745429	0.000060	-0.119470
C24	C	1.245429	0.500060	0.380530
N25	N	0.992219	0.219558	-0.115035
N26	N	1.492219	0.719558	0.384965
N27	N	0.992275	-0.219392	-0.114975
N28	N	1.492275	0.280608	0.385025
C29	C	0.530572	0.000084	-0.035565
C30	C	1.030572	0.500084	0.464435
C31	C	0.469563	-0.075959	-0.074518
C32	C	0.969563	0.424041	0.425482
C33	C	0.574703	0.000071	-0.116462
C34	C	1.074703	0.500071	0.383538
C35	C	0.469564	0.076093	-0.074556
C36	C	0.969564	0.576093	0.425444
C37	C	0.409790	0.000086	-0.113551
C38	C	0.909790	0.500086	0.386449
C39	C	0.514922	-0.076035	-0.155437
C40	C	1.014922	0.423965	0.344563
C41	C	0.514929	0.076086	-0.155464
C42	C	1.014929	0.576086	0.344536
C43	C	0.453937	0.000024	-0.194476
C44	C	0.953937	0.500024	0.305524
C45	C	0.669705	0.000062	-0.118137
C46	C	1.169705	0.500062	0.381863
C47	C	0.314789	0.000089	-0.111883
C48	C	0.814789	0.500089	0.388117
C49	C	1.145813	0.000096	-0.108885
C50	C	1.645813	0.500096	0.391115
C51	C	1.239059	0.000098	-0.110547
C52	C	1.739059	0.500098	0.389453
C53	C	0.998367	0.000092	0.038561
C54	C	1.498367	0.500092	0.538561
C55	C	0.996705	0.000093	0.131807
C56	C	1.496705	0.500093	0.631807
C57	C	0.932581	0.469202	-0.174636
C58	C	1.432581	0.969202	0.325364
C59	C	1.008481	0.531011	-0.190943
C60	C	1.508481	1.031011	0.309057
C61	C	0.992240	0.408719	-0.115015
C62	C	1.492240	0.908719	0.384985
C63	C	0.916359	0.531005	-0.098727
C64	C	1.416359	1.031005	0.401273
C65	C	0.992253	0.591441	-0.114997
C66	C	1.492253	1.091441	0.385003
C67	C	1.068178	0.469167	-0.131360
C68	C	1.568178	0.969167	0.368640
C69	C	0.976007	0.469156	-0.039111
C70	C	1.476007	0.969156	0.460889
C71	C	1.051961	0.530936	-0.055386
C72	C	1.551961	1.030936	0.444614
C73	C	0.992231	0.303458	-0.115027
C74	C	1.492231	0.803458	0.384973
C75	C	0.992270	0.696700	-0.114985
C76	C	1.492270	1.196700	0.385015
C77	C	0.986120	0.000072	-0.268577
C78	C	1.486120	0.500072	0.231423
C79	C	0.987782	0.000066	-0.361823
C80	C	1.487782	0.500066	0.138177
C81	C	0.912801	0.000072	0.346663
C82	C	1.412801	0.500072	0.846663
C83	C	0.951753	0.076117	0.407671
C84	C	1.451753	0.576117	0.907671
C85	C	0.993698	0.000085	0.302533
C86	C	1.493698	0.500085	0.802533
C87	C	0.951793	-0.075935	0.407674
C88	C	1.451793	0.424065	0.907674
C89	C	0.990787	0.000074	0.467445
C90	C	1.490787	0.500074	0.967445
C91	C	1.032672	0.076193	0.362312
C92	C	1.532672	0.576193	0.862312
C93	C	1.032701	-0.075927	0.362308
C94	C	1.532701	0.424073	0.862308
C95	C	1.071711	0.000136	0.423298
C96	C	1.571711	0.500136	0.923298
C97	C	0.995372	0.000092	0.207530
C98	C	1.495372	0.500092	0.707530
C99	C	0.989119	0.000073	0.562446
C100	C	1.489119	0.500073	1.062446
H101	H	0.449461	-0.140243	-0.040294
H102	H	0.949461	0.359757	0.459706
N103	N	0.865820	0.433301	-0.241475
N104	N	1.365820	0.933301	0.258525
H105	H	0.893216	0.393798	-0.283038
H106	H	1.393216	0.893798	0.216962
H107	H	0.823637	0.394800	-0.213958
H108	H	1.323637	0.894800	0.286042
N109	N	0.541601	0.161238	-0.200754
N110	N	1.041601	0.661238	0.299246
H111	H	0.569821	0.141862	-0.251588
H112	H	1.069821	0.641862	0.248412
H113	H	0.490295	0.200207	-0.219667
H114	H	0.990295	0.700207	0.280333
H115	H	0.852183	0.558170	-0.084959
H116	H	1.352183	1.058170	0.415041
N117	N	1.026693	0.567002	-0.275956
N118	N	1.526693	1.067002	0.224044
H119	H	0.981593	0.544552	-0.320963
H120	H	1.481593	1.044552	0.179037
H121	H	1.027127	0.637025	-0.275073
H122	H	1.527127	1.137025	0.224927
H123	H	1.132368	0.442119	-0.145205
H124	H	1.632368	0.942119	0.354795
H125	H	1.066897	-0.140214	0.342186
H126	H	1.566897	0.359786	0.842186
H127	H	0.534918	-0.140394	-0.189620
H128	H	1.034918	0.359606	0.310380
N129	N	0.409999	-0.000035	-0.283492
N130	N	0.909999	0.499965	0.216508
H131	H	0.427224	0.056838	-0.314306
H132	H	0.927224	0.556838	0.185694
H133	H	0.426493	-0.057537	-0.313852
H134	H	0.926493	0.442463	0.186148
N135	N	1.118863	0.566625	0.011416
N136	N	1.618863	1.066625	0.511416
H137	H	1.176128	0.544009	-0.000992
H138	H	1.676128	1.044009	0.499008
H139	H	1.118101	0.636652	0.011354
H140	H	1.618101	1.136652	0.511354
H141	H	0.449469	0.140379	-0.040333
H142	H	0.949469	0.640379	0.459667
H143	H	1.138919	0.000186	0.456457
H144	H	1.638919	0.500186	0.956457
N145	N	0.957781	0.433137	0.045882
N146	N	1.457781	0.933137	0.545882
H147	H	0.900413	0.455591	0.058127
H148	H	1.400413	0.955591	0.558127
H149	H	0.958510	0.363113	0.045349
H150	H	1.458510	0.863113	0.545349
N151	N	0.906468	-0.161089	0.434301
N152	N	1.406468	0.338911	0.934301
H153	H	0.846452	-0.161023	0.406136
H154	H	1.346452	0.338977	0.906136
H155	H	0.936488	-0.218474	0.416995
H156	H	1.436488	0.281526	0.916995
N157	N	0.823857	0.000152	0.302542
N158	N	1.323857	0.500152	0.802542
H159	H	0.793400	0.057644	0.318913
H160	H	1.293400	0.557644	0.818913
H161	H	0.825673	-0.000472	0.239434
H162	H	1.325673	0.499528	0.739434
H163	H	1.066850	0.140554	0.342314
H164	H	1.566850	0.640554	0.842314
N165	N	0.574686	0.000007	0.053381
N166	N	1.074686	0.500007	0.553381
H167	H	0.558311	-0.057484	0.083839
H168	H	1.058311	0.442516	0.583839
H169	H	0.637795	0.000631	0.051574
H170	H	1.137795	0.500631	0.551574
N171	N	0.906429	0.161277	0.434291
N172	N	1.406429	0.661277	0.934291
H173	H	0.846412	0.161219	0.406128
H174	H	1.346412	0.661219	0.906128
H175	H	0.906186	0.160912	0.497604
H176	H	1.406186	0.660912	0.997604
