data_functionalizedCrystal
_audit_creation_method	'MofGen! by Chris Wilmer'
_symmetry_space_group_name_H-M	'P1'
_symmetry_Int_Tables_number	1
_symmetry_cell_setting	triclinic
loop_
_symmetry_equiv_pos_as_xyz
  x,y,z
_cell_length_a	15.995292
_cell_length_b	14.472310
_cell_length_c	19.288865
_cell_angle_alpha	90.006324
_cell_angle_beta	83.302432
_cell_angle_gamma	90.014199
loop_
_atom_site_label
_atom_site_type_symbol
_atom_site_fract_x
_atom_site_fract_y
_atom_site_fract_z
O1	O	1.110690	0.076877	0.089334
O2	O	0.866866	0.076875	0.100432
O3	O	0.995823	0.076857	-0.006231
O4	O	0.981733	0.076894	0.195996
O5	O	0.995790	-0.076825	-0.006224
O6	O	0.866833	-0.076808	0.100438
O7	O	1.110657	-0.076805	0.089340
Cu8	Cu	0.988742	-0.090839	0.094889
Cu9	Cu	0.988781	0.090908	0.094882
O10	O	0.981700	-0.076788	0.196002
C11	C	0.835656	0.000033	0.099983
C12	C	0.742708	0.000031	0.098629
C13	C	0.404988	0.000041	0.093651
C14	C	0.428010	0.000398	0.170637
C15	C	0.524680	0.000048	0.172100
C16	C	0.572535	0.000037	0.096121
C17	C	0.543559	-0.087727	0.057635
C18	C	0.446772	-0.087797	0.056708
C19	C	0.446960	0.086968	0.055129
C20	C	0.543442	0.088124	0.057982
C21	C	0.667226	0.000031	0.097513
C22	C	0.310298	0.000040	0.092256
N23	N	0.988720	-0.218670	0.094894
C24	C	0.988780	-0.592761	0.094879
C25	C	0.919547	-0.553586	0.151761
C26	C	0.919706	-0.446498	0.151968
C27	C	0.988750	-0.407170	0.094887
C28	C	1.076057	-0.446003	0.110701
C29	C	1.075668	-0.553124	0.111105
C30	C	0.971485	-0.553304	0.022015
C31	C	0.969480	-0.446176	0.022501
C32	C	0.988738	-0.302282	0.094889
C33	C	0.988797	-0.697649	0.094878
C34	C	1.141867	0.000038	0.089788
C35	C	1.234815	0.000046	0.091143
C36	C	0.995353	0.000014	-0.032105
C37	C	0.993992	0.000005	-0.109212
N38	N	0.988809	0.218739	0.094872
C39	C	1.069659	0.000002	-0.153725
C40	C	1.068380	0.000016	-0.226175
C41	C	0.991431	0.000016	-0.254109
C42	C	0.915755	0.000025	-0.209586
C43	C	0.917035	0.000020	-0.137138
C44	C	0.930928	-0.053816	-0.362541
C45	C	0.929651	-0.053816	-0.434988
C46	C	0.987477	0.000037	-0.477564
C47	C	1.046596	0.053878	-0.447685
C48	C	1.047877	0.053873	-0.375237
C49	C	0.990033	0.000023	-0.332666
C50	C	1.061762	0.000050	-0.600637
C51	C	1.060480	0.000070	-0.673088
C52	C	0.907853	0.000070	-0.656497
C53	C	0.909137	0.000059	-0.584048
C54	C	0.986094	0.000045	-0.556122
C55	C	0.982170	0.000058	0.221877
C56	C	0.983531	0.000072	0.298983
H57	H	0.419840	-0.153394	0.083367
H58	H	0.399916	0.063338	0.200308
O59	O	0.835416	0.000011	-0.089126
H60	H	0.832357	0.062648	-0.055716
H61	H	1.090950	-0.578090	0.164244
O62	O	0.427767	-0.093102	-0.018056
H63	H	0.487683	-0.095614	-0.053390
H64	H	1.096011	0.097714	-0.350912
H65	H	0.881509	-0.097652	-0.459310
H66	H	0.398867	-0.062178	0.200148
H67	H	0.542956	-0.062962	0.202428
O68	O	0.567904	0.174135	0.095099
H69	H	0.600652	0.154240	0.140518
H70	H	1.122100	0.000072	-0.709330
H71	H	0.543606	0.062963	0.202237
H72	H	1.128795	-0.420526	0.070373
H73	H	1.129998	0.000017	-0.262425
O74	O	1.108969	0.111976	-0.493593
H75	H	1.098142	0.102948	-0.548990
O76	O	0.868558	-0.111908	-0.316621
H77	H	0.827246	-0.149358	-0.349568
O78	O	0.833727	-0.411718	0.139505
H79	H	0.807125	-0.369257	0.184695
H80	H	0.433181	0.087553	-0.001538
H81	H	0.854431	-0.579377	0.142496
O82	O	1.144764	0.000048	-0.570514
H83	H	1.132943	0.000032	-0.512657
O84	O	0.824854	0.000066	-0.686613
H85	H	0.836673	0.000063	-0.744470
O86	O	0.933930	-0.589203	0.222987
H87	H	0.990175	-0.634684	0.218051
O88	O	0.586051	-0.092067	-0.016424
H89	H	0.564502	-0.154678	-0.042449
O90	O	0.827525	0.000040	-0.536030
H91	H	0.773801	0.000031	-0.567623
O92	O	0.832760	0.000024	-0.239714
H93	H	0.780357	0.000032	-0.196586
H94	H	0.563503	-0.153033	0.084366
O95	O	0.934302	-0.412515	0.223589
H96	H	0.941284	-0.472594	0.258209
O97	O	1.145942	-0.587461	0.058322
H98	H	1.180057	-0.527551	0.032624
O99	O	0.409440	0.175089	0.087069
H100	H	0.360453	0.157908	0.130761
O101	O	1.096798	-0.410459	0.180291
H102	H	1.045064	-0.365148	0.203720
H103	H	0.909218	-0.580375	0.006805
O104	O	0.587378	0.095138	-0.015483
H105	H	0.630826	0.035680	-0.026008
H106	H	1.016651	-0.419409	-0.021810
O107	O	0.884404	-0.412577	0.006600
H108	H	0.855959	-0.368274	0.050062
H109	H	1.021976	-0.578637	-0.020314
H110	H	1.132323	-0.000007	-0.130993
