data_functionalizedCrystal
_audit_creation_method	'MofGen! by Chris Wilmer'
_symmetry_space_group_name_H-M	'P1'
_symmetry_Int_Tables_number	1
_symmetry_cell_setting	triclinic
loop_
_symmetry_equiv_pos_as_xyz
  x,y,z
_cell_length_a	12.837942
_cell_length_b	16.109302
_cell_length_c	14.586319
_cell_angle_alpha	89.994552
_cell_angle_beta	89.996741
_cell_angle_gamma	89.145360
loop_
_atom_site_label
_atom_site_type_symbol
_atom_site_fract_x
_atom_site_fract_y
_atom_site_fract_z
O1	O	0.133244	1.113716	-0.076281
O2	O	0.633244	1.613716	0.423719
O3	O	0.149825	0.872971	-0.076274
O4	O	0.649825	1.372971	0.423726
O5	O	-0.009367	0.988005	-0.076272
O6	O	0.490633	1.488005	0.423728
O7	O	0.292435	0.998681	-0.076284
O8	O	0.792435	1.498681	0.423716
O9	O	-0.009369	0.987996	0.076209
O10	O	0.490631	1.487996	0.576209
O11	O	0.149822	0.872962	0.076207
O12	O	0.649822	1.372962	0.576207
O13	O	0.133242	1.113707	0.076199
O14	O	0.633242	1.613707	0.576199
Cu15	Cu	0.141532	0.993333	0.090126
Cu16	Cu	0.641532	1.493333	0.590126
Cu17	Cu	0.141535	0.993344	-0.090201
Cu18	Cu	0.641535	1.493344	0.409799
O19	O	0.292433	0.998672	0.076197
O20	O	0.792433	1.498672	0.576197
C21	C	0.149152	0.841938	-0.000033
C22	C	0.649152	1.341938	0.499967
C23	C	0.147138	0.749483	-0.000030
C24	C	0.647138	1.249483	0.499970
C25	C	0.142479	0.536767	0.083078
C26	C	0.642479	1.036767	0.583078
C27	C	0.140576	0.449896	0.083075
C28	C	0.640576	0.949896	0.583075
C29	C	0.140584	0.449917	-0.083168
C30	C	0.640584	0.949917	0.416832
C31	C	0.142480	0.536786	-0.083164
C32	C	0.642480	1.036786	0.416836
C33	C	0.143433	0.580209	-0.000038
C34	C	0.643433	1.080209	0.499962
C35	C	0.139633	0.406468	-0.000045
C36	C	0.639633	0.906468	0.499955
C37	C	0.137569	0.312278	-0.000049
C38	C	0.637569	0.812278	0.499951
C39	C	0.145495	0.674405	-0.000034
C40	C	0.645495	1.174405	0.499966
C41	C	-0.047987	0.984394	-0.000032
C42	C	0.452013	1.484394	0.499968
C43	C	-0.163061	0.973637	-0.000033
C44	C	0.336939	1.473637	0.499967
C45	C	-0.404062	1.102954	-0.000056
C46	C	0.095938	1.602954	0.499944
C47	C	-0.512185	1.092851	-0.000057
C48	C	-0.012185	1.592851	0.499943
C49	C	-0.487430	0.943328	-0.000044
C50	C	0.012570	1.443328	0.499956
C51	C	-0.379308	0.953431	-0.000042
C52	C	0.120692	1.453431	0.499958
C53	C	-0.337628	1.033247	-0.000047
C54	C	0.162372	1.533247	0.499953
C55	C	-0.229504	1.043349	-0.000039
C56	C	0.270496	1.543349	0.499961
C57	C	-0.204751	0.893827	-0.000032
C58	C	0.295249	1.393827	0.499968
C59	C	-0.312873	0.883724	-0.000033
C60	C	0.187127	1.383724	0.499967
C61	C	0.331054	1.002284	-0.000045
C62	C	0.831054	1.502284	0.499955
C63	C	0.446127	1.013040	-0.000050
C64	C	0.946127	1.513040	0.499950
C65	C	0.133914	1.144739	-0.000044
C66	C	0.633914	1.644739	0.499956
C67	C	0.135929	1.237195	-0.000053
C68	C	0.635929	1.737195	0.499947
N69	N	0.141529	0.993332	0.216957
N70	N	0.641529	1.493332	0.716957
N71	N	0.141529	0.993352	-0.217032
N72	N	0.641529	1.493352	0.282968
C73	C	0.071063	1.044290	0.451965
C74	C	0.571063	1.544290	0.951965
C75	C	0.071060	1.044292	0.547946
C76	C	0.571060	1.544292	1.047946
C77	C	0.211999	0.942388	0.547954
C78	C	0.711999	1.442388	1.047954
C79	C	0.211995	0.942382	0.451974
C80	C	0.711995	1.442382	0.951974
C81	C	0.141529	0.993338	0.403982
C82	C	0.641529	1.493338	0.903982
C83	C	0.141529	0.993346	0.595943
C84	C	0.641529	1.493346	1.095943
C85	C	0.141527	0.993348	0.700010
C86	C	0.641527	1.493348	1.200010
C87	C	0.141529	0.993335	0.299908
C88	C	0.641529	1.493335	0.799908
H89	H	0.139800	0.414529	0.150757
H90	H	0.639800	0.914529	0.650757
F91	F	0.139549	0.403696	-0.171631
F92	F	0.639549	0.903696	0.328369
H93	H	0.013683	1.085779	0.412892
H94	H	0.513683	1.585779	0.912892
F95	F	0.286994	0.888146	0.400903
F96	F	0.786994	1.388146	0.900903
F97	F	-0.185146	1.128294	-0.000039
F98	F	0.314854	1.628294	0.499961
H99	H	0.143253	0.572158	-0.150851
H100	H	0.643253	1.072158	0.349149
H101	H	0.013679	1.085780	0.587011
H102	H	0.513679	1.585780	1.087011
F103	F	-0.582886	1.167043	-0.000070
F104	F	-0.082886	1.667043	0.499930
F105	F	-0.359701	1.187898	-0.000042
F106	F	0.140299	1.687898	0.499958
F107	F	0.143489	0.582978	0.171548
F108	F	0.643489	1.082978	0.671548
F109	F	-0.531807	0.858390	-0.000061
F110	F	-0.031807	1.358390	0.499939
H111	H	-0.150648	0.837067	-0.000017
H112	H	0.349352	1.337067	0.499983
H113	H	-0.346824	0.818741	-0.000033
H114	H	0.153176	1.318741	0.499967
F115	F	0.286993	0.888162	0.599036
F116	F	0.786993	1.388162	1.099036
