data_functionalizedCrystal
_audit_creation_method	'MofGen! by Chris Wilmer'
_symmetry_space_group_name_H-M	'P1'
_symmetry_Int_Tables_number	1
_symmetry_cell_setting	triclinic
loop_
_symmetry_equiv_pos_as_xyz
  x,y,z
_cell_length_a	19.188925
_cell_length_b	19.188930
_cell_length_c	15.455313
_cell_angle_alpha	92.650876
_cell_angle_beta	87.326905
_cell_angle_gamma	83.143665
loop_
_atom_site_label
_atom_site_type_symbol
_atom_site_fract_x
_atom_site_fract_y
_atom_site_fract_z
O1	O	0.929218	0.084085	-0.072159
O2	O	0.725906	0.095823	-0.072158
O3	O	0.833429	-0.011701	-0.072141
O4	O	0.821696	0.191609	-0.072175
O5	O	0.827280	-0.005578	0.072120
O6	O	0.719758	0.101947	0.072103
O7	O	0.923070	0.090208	0.072102
Cu8	Cu	0.820852	0.096637	0.085275
Cu9	Cu	0.828124	0.089395	-0.085331
O10	O	0.815547	0.197733	0.072086
C11	C	0.696821	0.098505	-0.000027
C12	C	0.619316	0.097366	-0.000026
C13	C	0.057546	0.152830	-0.000037
C14	C	0.130370	0.153906	-0.000042
C15	C	0.175304	0.090814	-0.000030
C16	C	0.147410	0.026641	-0.000035
C17	C	0.074588	0.025566	-0.000039
N18	N	0.293887	0.047223	0.049085
N19	N	0.363065	0.048249	0.049091
C20	C	0.394712	0.094049	-0.000020
N21	N	0.354568	0.138796	-0.049126
N22	N	0.285384	0.137773	-0.049127
C23	C	0.254268	0.091973	-0.000026
C24	C	0.501562	0.159385	-0.000026
C25	C	0.574387	0.160459	-0.000036
C26	C	0.591426	0.033192	-0.000021
C27	C	0.518602	0.032120	-0.000019
C28	C	0.473674	0.095219	-0.000018
C29	C	0.829974	-0.034650	-0.000008
C30	C	0.828833	-0.112154	-0.000001
C31	C	0.891924	-0.157079	0.000003
C32	C	0.890853	-0.229904	-0.000011
C33	C	0.826687	-0.257799	-0.000011
C34	C	0.763588	-0.212864	-0.000020
C35	C	0.764661	-0.140042	-0.000015
N36	N	0.775547	-0.363719	0.049084
N37	N	0.774531	-0.432898	0.049081
C38	C	0.823449	-0.477208	-0.000029
N39	N	0.873431	-0.449728	-0.049124
N40	N	0.874448	-0.380543	-0.049117
C41	C	0.825516	-0.336762	-0.000017
C42	C	0.885383	-0.601099	-0.000041
C43	C	0.884310	-0.673924	-0.000061
C44	C	0.757042	-0.656883	-0.000061
C45	C	0.758118	-0.584059	-0.000050
C46	C	0.822290	-0.556172	-0.000036
C47	C	0.952155	0.087526	-0.000031
C48	C	1.029660	0.088665	-0.000037
C49	C	0.819002	0.220682	-0.000049
C50	C	0.820143	0.298186	-0.000062
N51	N	0.815743	0.101730	0.205270
N52	N	0.833238	0.084296	-0.205325
C53	C	0.861438	0.056066	0.250671
C54	C	0.857581	0.059924	0.341478
C55	C	0.808031	0.109449	0.386883
C56	C	0.762331	0.155115	0.341475
C57	C	0.766186	0.151253	0.250670
C58	C	0.791393	0.126100	0.658462
C59	C	0.787543	0.129960	0.749274
C60	C	0.882792	0.034768	0.749270
C61	C	0.886645	0.030913	0.658463
C62	C	0.840943	0.076576	0.613063
N63	N	0.804088	0.113396	0.479702
N64	N	0.844883	0.072626	0.520245
H65	H	0.495897	-0.020130	-0.000015
H66	H	0.728975	0.188436	0.213705
F67	F	0.709592	0.207821	0.389799
H68	H	0.920000	-0.002410	0.786243
H69	H	0.051884	-0.026686	-0.000040
H70	H	0.153079	0.206159	-0.000033
F71	F	0.951464	-0.721738	-0.000062
F72	F	0.009735	0.219985	-0.000044
H73	H	0.597090	0.212711	-0.000043
H74	H	0.628010	-0.018179	-0.000018
H75	H	0.894789	0.022741	0.378443
F76	F	0.195233	-0.040506	-0.000025
H77	H	0.926993	-0.009414	0.621496
F78	F	0.695298	-0.242554	-0.000026
F79	F	0.734803	0.182676	0.797591
H80	H	0.464979	0.210764	-0.000027
F81	F	0.742756	0.174699	0.610151
F82	F	0.697508	-0.092227	-0.000019
F83	F	0.958006	-0.277725	-0.000008
F84	F	0.960223	-0.127404	-0.000001
F85	F	0.688751	-0.686566	-0.000066
F86	F	0.953680	-0.571416	-0.000022
H87	H	0.706742	-0.547480	-0.000048
F88	F	0.914180	0.003357	0.202356
