data_functionalizedCrystal
_audit_creation_method	'MofGen! by Chris Wilmer'
_symmetry_space_group_name_H-M	'P1'
_symmetry_Int_Tables_number	1
_symmetry_cell_setting	triclinic
loop_
_symmetry_equiv_pos_as_xyz
  x,y,z
_cell_length_a	11.295483
_cell_length_b	19.288864
_cell_length_c	19.288865
_cell_angle_alpha	83.136245
_cell_angle_beta	94.075585
_cell_angle_gamma	85.895140
loop_
_atom_site_label
_atom_site_type_symbol
_atom_site_fract_x
_atom_site_fract_y
_atom_site_fract_z
O1	O	0.099422	-0.926060	-0.081937
O2	O	0.099342	-0.723796	-0.093629
O3	O	0.099360	-0.830772	0.013346
O4	O	0.099403	-0.819085	-0.188912
O5	O	-0.098692	-0.821376	0.003965
O6	O	-0.098710	-0.714400	-0.103011
O7	O	-0.098631	-0.916665	-0.091318
Cu8	Cu	-0.116754	-0.814674	-0.098021
Cu9	Cu	0.117466	-0.825786	-0.086926
O10	O	-0.098649	-0.809689	-0.198294
C11	C	0.000305	-0.693221	-0.097944
C12	C	0.000274	-0.616116	-0.096817
N13	N	-0.281492	-0.806864	-0.105824
C14	C	0.000331	-0.825697	0.034532
C15	C	0.000320	-0.824568	0.111635
C16	C	-0.530767	-0.889825	-0.022909
C17	C	-0.655432	-0.883927	-0.028811
C18	C	-0.655488	-0.789169	-0.123525
C19	C	-0.530824	-0.795066	-0.117623
C20	C	-0.468467	-0.845397	-0.067314
C21	C	-0.343801	-0.851297	-0.061417
C22	C	-0.343859	-0.756536	-0.156127
C23	C	-0.468524	-0.750638	-0.162029
N24	N	0.282203	-0.833602	-0.079118
C25	C	0.000409	-0.947240	-0.087003
C26	C	0.000448	-1.024345	-0.088130
C27	C	0.000306	-0.571421	-0.159583
C28	C	0.000319	-0.498975	-0.158522
C29	C	0.000324	-0.471227	-0.094689
C30	C	0.000285	-0.515932	-0.031915
C31	C	0.000260	-0.588376	-0.032979
C32	C	0.069740	-0.366259	-0.041222
C33	C	0.069772	-0.293816	-0.040161
C34	C	0.000395	-0.247785	-0.091406
C35	C	-0.068999	-0.274206	-0.143724
C36	C	-0.069024	-0.346650	-0.144788
C37	C	0.000350	-0.392675	-0.093529
C38	C	0.000439	-0.124535	-0.153026
C39	C	0.000445	-0.052087	-0.151963
C40	C	0.000423	-0.069046	-0.025354
C41	C	0.000405	-0.141492	-0.026420
C42	C	0.000419	-0.169232	-0.090258
C43	C	0.000383	-0.814763	-0.219479
C44	C	0.000402	-0.815893	-0.296582
C45	C	0.000339	-0.887337	0.156332
C46	C	0.000357	-0.886277	0.228780
C47	C	0.000333	-0.822443	0.256527
C48	C	0.000320	-0.759667	0.211820
C49	C	0.000314	-0.760729	0.139374
C50	C	-0.069061	-0.768972	0.361527
C51	C	-0.069062	-0.767912	0.433971
C52	C	0.000358	-0.819165	0.479973
C53	C	0.069763	-0.871489	0.453523
C54	C	0.069756	-0.872551	0.381077
C55	C	0.000340	-0.821285	0.335081
C56	C	0.000398	-0.880789	0.603228
C57	C	0.000424	-0.879727	0.675677
C58	C	0.000376	-0.753115	0.658714
C59	C	0.000362	-0.754179	0.586267
C60	C	0.000368	-0.818018	0.558528
H61	H	-0.293031	-0.892280	-0.020454
H62	H	-0.293121	-0.720361	-0.192287
F63	F	0.143584	-0.415242	0.013325
H64	H	-0.706153	-0.920104	0.007350
F65	F	0.000285	-0.486400	0.036020
H66	H	0.000341	-0.462577	-0.209635
H67	H	0.000464	-0.015696	-0.203077
H68	H	0.000386	-0.177884	0.024692
H69	H	-0.125568	-0.725304	0.455501
F70	F	0.000445	-0.154060	-0.220968
F71	F	-0.721866	-0.735601	-0.177058
H72	H	-0.479996	-0.930810	0.018050
F73	F	0.000452	-0.946538	0.723248
F74	F	-0.142840	-0.225222	-0.198269
F75	F	-0.534898	-0.697074	-0.215567
F76	F	0.000370	-0.955281	0.126816
F77	F	0.000317	-0.600940	-0.227526
F78	F	0.143625	-0.928234	0.352929
F79	F	-0.142879	-0.374767	-0.200465
F80	F	0.000417	-0.039520	0.042582
H81	H	0.126281	-0.272310	0.002437
H82	H	0.000235	-0.624767	0.018135
H83	H	-0.125597	-0.727233	0.324076
H84	H	0.000377	-0.937392	0.265180
F85	F	0.143651	-0.926040	0.502476
H86	H	0.000409	-0.932771	0.580642
H87	H	0.000362	-0.701140	0.681305
H88	H	0.000340	-0.703065	0.549873
H89	H	0.000303	-0.707693	0.234416
H90	H	0.000298	-0.709613	0.102981
