data_functionalizedCrystal
_audit_creation_method	'MofGen! by Chris Wilmer'
_symmetry_space_group_name_H-M	'P1'
_symmetry_Int_Tables_number	1
_symmetry_cell_setting	triclinic
loop_
_symmetry_equiv_pos_as_xyz
  x,y,z
_cell_length_a	19.188925
_cell_length_b	19.188924
_cell_length_c	14.586319
_cell_angle_alpha	89.994146
_cell_angle_beta	89.995548
_cell_angle_gamma	83.142256
loop_
_atom_site_label
_atom_site_type_symbol
_atom_site_fract_x
_atom_site_fract_y
_atom_site_fract_z
O1	O	0.926144	0.087149	-0.076264
O2	O	1.259477	0.420482	0.257069
O3	O	1.592811	0.753816	0.590402
O4	O	0.722832	0.098887	-0.076262
O5	O	1.056165	0.432220	0.257071
O6	O	1.389499	0.765554	0.590404
O7	O	0.830358	-0.008638	-0.076253
O8	O	1.163691	0.324695	0.257081
O9	O	1.497024	0.658029	0.590414
O10	O	0.818618	0.194674	-0.076274
O11	O	1.151952	0.528007	0.257059
O12	O	1.485285	0.861341	0.590393
O13	O	0.830350	-0.008640	0.076228
O14	O	1.163684	0.324694	0.409562
O15	O	1.497017	0.658027	0.742895
O16	O	0.722825	0.098886	0.076219
O17	O	1.056158	0.432219	0.409552
O18	O	1.389491	0.765552	0.742885
O19	O	0.926137	0.087147	0.076217
O20	O	1.259470	0.420481	0.409550
O21	O	1.592803	0.753814	0.742883
Cu22	Cu	0.824480	0.093016	0.090140
Cu23	Cu	1.157813	0.426350	0.423474
Cu24	Cu	1.491147	0.759683	0.756807
Cu25	Cu	0.824489	0.093018	-0.090186
Cu26	Cu	1.157822	0.426351	0.243147
Cu27	Cu	1.491155	0.759685	0.576481
O28	O	0.818611	0.194673	0.076207
O29	O	1.151944	0.528006	0.409540
O30	O	1.485278	0.861339	0.742873
C31	C	0.696817	0.098507	-0.000022
C32	C	1.030151	0.431840	0.333312
C33	C	1.363484	0.765174	0.666645
C34	C	0.619313	0.097368	-0.000020
C35	C	0.952646	0.430701	0.333313
C36	C	1.285979	0.764034	0.666646
C37	C	0.057541	0.152832	-0.000028
C38	C	0.390874	0.486165	0.333305
C39	C	0.724208	0.819499	0.666638
C40	C	0.130364	0.153908	-0.000033
C41	C	0.463697	0.487242	0.333300
C42	C	0.797031	0.820575	0.666633
C43	C	0.175300	0.090816	-0.000025
C44	C	0.508633	0.424149	0.333308
C45	C	0.841967	0.757483	0.666642
C46	C	0.147408	0.026642	-0.000035
C47	C	0.480741	0.359976	0.333298
C48	C	0.814074	0.693309	0.666631
C49	C	0.074586	0.025568	-0.000039
C50	C	0.407919	0.358901	0.333294
C51	C	0.741252	0.692234	0.666627
N52	N	0.295976	0.045139	0.051885
N53	N	0.629309	0.378473	0.385219
N54	N	0.962643	0.711806	0.718552
N55	N	0.365153	0.046164	0.051891
N56	N	0.698487	0.379498	0.385224
N57	N	1.031820	0.712831	0.718558
C58	C	0.394709	0.094050	-0.000015
C59	C	0.728043	0.427383	0.333319
C60	C	1.061376	0.760717	0.666652
N61	N	0.352473	0.140883	-0.051915
N62	N	0.685807	0.474216	0.281418
N63	N	1.019140	0.807549	0.614752
N64	N	0.283289	0.139859	-0.051917
N65	N	0.616623	0.473193	0.281417
N66	N	0.949956	0.806526	0.614750
C67	C	0.254264	0.091974	-0.000021
C68	C	0.587598	0.425308	0.333312
C69	C	0.920931	0.758641	0.666645
C70	C	0.501557	0.159387	-0.000016
C71	C	0.834890	0.492720	0.333317
C72	C	1.168223	0.826054	0.666650
C73	C	0.574381	0.160461	-0.000027
C74	C	0.907715	0.493794	0.333306
C75	C	1.241048	0.827127	0.666639
C76	C	0.591424	0.033193	-0.000020
C77	C	0.924757	0.366526	0.333314
C78	C	1.258091	0.699860	0.666647
C79	C	0.518600	0.032121	-0.000018
C80	C	0.851933	0.365454	0.333315
C81	C	1.185267	0.698788	0.666648
C82	C	0.473671	0.095220	-0.000012
C83	C	0.807004	0.428553	0.333321
C84	C	1.140337	0.761887	0.666654
C85	C	0.829975	-0.034650	-0.000011
C86	C	1.163308	0.298683	0.333322
C87	C	1.496641	0.632017	0.666655
C88	C	0.828836	-0.112155	-0.000009
C89	C	1.162169	0.221179	0.333325
C90	C	1.495503	0.554512	0.666658
C91	C	0.828308	-0.148553	-0.083126
C92	C	1.161642	0.184781	0.250207
C93	C	1.494975	0.518114	0.583540
C94	C	0.827229	-0.221375	-0.083133
C95	C	1.160562	0.111958	0.250200
C96	C	1.493895	0.445291	0.583533
C97	C	0.826690	-0.257799	-0.000018
C98	C	1.160023	0.075534	0.333315
C99	C	1.493357	0.408867	0.666649
C100	C	0.827214	-0.221392	0.083110
C101	C	1.160547	0.111942	0.416444
C102	C	1.493880	0.445275	0.749777
C103	C	0.828287	-0.148570	0.083115
C104	C	1.161620	0.184764	0.416448
C105	C	1.494953	0.518097	0.749782
N106	N	0.864735	-0.377464	0.061842
N107	N	1.198068	-0.044130	0.395176
N108	N	1.531402	0.289203	0.728509
N109	N	0.863717	-0.446642	0.061832
N110	N	1.197051	-0.113309	0.395166
N111	N	1.530384	0.220025	0.728499
C112	C	0.823456	-0.477208	-0.000027
C113	C	1.156789	-0.143875	0.333307
C114	C	1.490123	0.189458	0.666640
N115	N	0.784260	-0.435984	-0.061890
N116	N	1.117593	-0.102651	0.271444
N117	N	1.450926	0.230683	0.604777
N118	N	0.785281	-0.366800	-0.061882
N119	N	1.118614	-0.033466	0.271451
N120	N	1.451947	0.299867	0.604785
C121	C	0.825526	-0.336763	-0.000014
C122	C	1.158860	-0.003429	0.333320
C123	C	1.492193	0.329904	0.666653
C124	C	0.821757	-0.592569	-0.083158
C125	C	1.155090	-0.259236	0.250176
C126	C	1.488423	0.074098	0.583509
C127	C	0.820672	-0.665392	-0.083161
C128	C	1.154006	-0.332059	0.250172
C129	C	1.487339	0.001274	0.583506
C130	C	0.820665	-0.665408	0.083085
C131	C	1.153998	-0.332075	0.416418
C132	C	1.487331	0.001258	0.749752
C133	C	0.821742	-0.592585	0.083086
C134	C	1.155075	-0.259252	0.416420
C135	C	1.488408	0.074081	0.749753
C136	C	0.822291	-0.556170	-0.000038
C137	C	1.155624	-0.222837	0.333296
C138	C	1.488958	0.110496	0.666629
C139	C	0.952151	0.087528	-0.000026
C140	C	1.285485	0.420861	0.333307
C141	C	1.618818	0.754194	0.666640
C142	C	1.029656	0.088667	-0.000033
C143	C	1.362990	0.422000	0.333300
C144	C	1.696323	0.755333	0.666633
C145	C	0.818994	0.220684	-0.000036
C146	C	1.152327	0.554018	0.333297
C147	C	1.485661	0.887351	0.666630
C148	C	0.820133	0.298189	-0.000045
C149	C	1.153466	0.631522	0.333288
C150	C	1.486800	0.964856	0.666622
N151	N	0.824479	0.093015	0.216972
N152	N	1.157812	0.426348	0.550305
N153	N	1.491146	0.759681	0.883639
N154	N	0.824495	0.093014	-0.217018
N155	N	1.157829	0.426348	0.116316
N156	N	1.491162	0.759681	0.449649
C157	C	0.872107	0.045418	0.451983
C158	C	1.205440	0.378752	0.785316
C159	C	1.538774	0.712085	1.118649
C160	C	0.872109	0.045417	0.547964
C161	C	1.205442	0.378750	0.881297
C162	C	1.538776	0.712083	1.214631
C163	C	0.776862	0.140613	0.547965
C164	C	1.110196	0.473946	0.881298
C165	C	1.443529	0.807280	1.214631
C166	C	0.776857	0.140611	0.451985
C167	C	1.110191	0.473944	0.785319
C168	C	1.443524	0.807277	1.118652
C169	C	0.824484	0.093014	0.403997
C170	C	1.157817	0.426348	0.737330
C171	C	1.491150	0.759681	1.070663
C172	C	0.824491	0.093015	0.595958
C173	C	1.157824	0.426348	0.929291
C174	C	1.491157	0.759681	1.262624
C175	C	0.824492	0.093013	0.700025
C176	C	1.157826	0.426347	1.033358
C177	C	1.491159	0.759680	1.366691
C178	C	0.824481	0.093015	0.299923
C179	C	1.157815	0.426348	0.633256
C180	C	1.491148	0.759681	0.966590
H181	H	0.153073	0.206161	-0.000021
H182	H	0.486406	0.539494	0.333313
H183	H	0.819739	0.872828	0.666646
C184	C	0.640844	-0.036208	-0.000013
C185	C	0.974178	0.297126	0.333320
C186	C	1.307511	0.630459	0.666654
H187	H	0.688209	-0.026379	-0.000006
H188	H	1.021542	0.306954	0.333328
H189	H	1.354876	0.640288	0.666661
H190	H	0.632414	-0.062527	-0.053185
H191	H	0.965748	0.270806	0.280148
H192	H	1.299081	0.604140	0.613482
H193	H	0.632408	-0.062530	0.053169
H194	H	0.965741	0.270803	0.386502
H195	H	1.299075	0.604137	0.719835
H196	H	0.051883	-0.026685	-0.000044
H197	H	0.385217	0.306649	0.333290
H198	H	0.718550	0.639982	0.666623
H199	H	0.826773	-0.251052	0.150783
H200	H	1.160107	0.082281	0.484117
H201	H	1.493440	0.415614	0.817450
H202	H	0.828754	-0.118908	-0.150812
H203	H	1.162087	0.214425	0.182521
H204	H	1.495420	0.547759	0.515854
C205	C	0.487925	-0.038462	-0.000008
C206	C	0.821258	0.294872	0.333325
C207	C	1.154592	0.628205	0.666658
H208	H	0.525115	-0.075884	0.000004
H209	H	0.858448	0.257449	0.333337
H210	H	1.191782	0.590782	0.666671
H211	H	0.459874	-0.041527	-0.053181
H212	H	0.793207	0.291807	0.280153
H213	H	1.126541	0.625140	0.613486
H214	H	0.459869	-0.041525	0.053173
H215	H	0.793203	0.291808	0.386506
H216	H	1.126536	0.625142	0.719839
H217	H	0.597083	0.212714	-0.000031
H218	H	0.930416	0.546047	0.333303
H219	H	1.263749	0.879380	0.666636
H220	H	0.183999	-0.024728	-0.000031
H221	H	0.517333	0.308606	0.333302
H222	H	0.850666	0.641939	0.666636
H223	H	0.910886	0.006661	0.412913
H224	H	1.244219	0.339995	0.746246
H225	H	1.577553	0.673328	1.079579
H226	H	0.020963	0.204212	-0.000028
H227	H	0.354297	0.537545	0.333305
H228	H	0.687630	0.870879	0.666639
H229	H	0.820221	-0.695063	0.150759
H230	H	1.153554	-0.361730	0.484093
H231	H	1.486887	-0.028396	0.817426
H232	H	0.826795	-0.251016	-0.150820
H233	H	1.160128	0.082317	0.182514
H234	H	1.493461	0.415651	0.515847
C235	C	0.724476	0.192972	0.399193
C236	C	1.057809	0.526306	0.732526
C237	C	1.391142	0.859639	1.065859
H238	H	0.731291	0.186149	0.335158
H239	H	1.064625	0.519483	0.668492
H240	H	1.397958	0.852816	1.001825
H241	H	0.731916	0.239552	0.414912
H242	H	1.065250	0.572885	0.748245
H243	H	1.398583	0.906218	1.081579
H244	H	0.677900	0.185507	0.414929
H245	H	1.011233	0.518840	0.748262
H246	H	1.344567	0.852173	1.081595
C247	C	0.452132	0.228791	-0.000030
C248	C	0.785465	0.562124	0.333304
C249	C	1.118799	0.895458	0.666637
H250	H	0.479172	0.267161	-0.000044
H251	H	0.812505	0.600495	0.333290
H252	H	1.145838	0.933828	0.666623
H253	H	0.423364	0.231021	0.053141
H254	H	0.756697	0.564354	0.386474
H255	H	1.090030	0.897688	0.719808
H256	H	0.423377	0.231013	-0.053213
H257	H	0.756710	0.564347	0.280121
H258	H	1.090043	0.897680	0.613454
C259	C	0.828873	-0.108531	0.174548
C260	C	1.162207	0.224802	0.507881
C261	C	1.495540	0.558136	0.841215
H262	H	0.828401	-0.140651	0.224050
H263	H	1.161735	0.192682	0.557383
H264	H	1.495068	0.526016	0.890717
H265	H	0.788588	-0.074669	0.178006
H266	H	1.121922	0.258664	0.511339
H267	H	1.455255	0.591998	0.844673
H268	H	0.870006	-0.085580	0.178003
H269	H	1.203339	0.247754	0.511336
H270	H	1.536673	0.581087	0.844669
H271	H	0.910887	0.006659	0.587032
H272	H	1.244220	0.339992	0.920365
H273	H	1.577554	0.673325	1.253698
H274	H	0.738087	0.179366	0.587047
H275	H	1.071420	0.512699	0.920380
H276	H	1.404754	0.846033	1.253713
C277	C	0.822353	-0.552508	-0.174588
C278	C	1.155686	-0.219175	0.158746
C279	C	1.489019	0.114158	0.492079
H280	H	0.821873	-0.584617	-0.224092
H281	H	1.155207	-0.251284	0.109241
H282	H	1.488540	0.082049	0.442574
H283	H	0.863479	-0.529553	-0.178043
H284	H	1.196812	-0.196219	0.155290
H285	H	1.530145	0.137114	0.488623
H286	H	0.782061	-0.518648	-0.178039
H287	H	1.115394	-0.185314	0.155294
H288	H	1.448728	0.148019	0.488628
C289	C	0.820089	-0.705430	-0.174595
C290	C	1.153422	-0.372097	0.158738
C291	C	1.486756	-0.038763	0.492072
H292	H	0.820575	-0.673311	-0.224096
H293	H	1.153909	-0.339977	0.109237
H294	H	1.487242	-0.006644	0.442571
H295	H	0.778963	-0.728384	-0.178057
H296	H	1.112296	-0.395051	0.155277
H297	H	1.445629	-0.061718	0.488610
H298	H	0.860380	-0.739291	-0.178048
H299	H	1.193714	-0.405957	0.155285
H300	H	1.527047	-0.072624	0.488619
H301	H	0.822177	-0.562950	0.150770
H302	H	1.155510	-0.229617	0.484103
H303	H	1.488844	0.103716	0.817436
