data_functionalizedCrystal
_audit_creation_method	'MofGen! by Chris Wilmer'
_symmetry_space_group_name_H-M	'P1'
_symmetry_Int_Tables_number	1
_symmetry_cell_setting	triclinic
loop_
_symmetry_equiv_pos_as_xyz
  x,y,z
_cell_length_a	12.759401
_cell_length_b	14.908520
_cell_length_c	14.908294
_cell_angle_alpha	83.639163
_cell_angle_beta	86.719911
_cell_angle_gamma	93.322137
loop_
_atom_site_label
_atom_site_type_symbol
_atom_site_fract_x
_atom_site_fract_y
_atom_site_fract_z
Zn1	Zn	1.544170	-0.389839	0.532531
Zn2	Zn	1.544052	-0.532484	0.389901
Zn3	Zn	1.379239	-0.381145	0.381192
Zn4	Zn	1.357684	-0.541162	0.541214
O5	O	1.456286	-0.461158	0.461209
O6	O	1.691174	-0.408768	0.513621
O7	O	1.531161	-0.505139	0.262085
O8	O	1.410188	-0.255634	0.393989
O9	O	1.691087	-0.513569	0.408831
O10	O	1.531362	-0.262021	0.505176
O11	O	1.410073	-0.393951	0.255686
O12	O	1.229360	-0.402365	0.402409
O13	O	1.373450	-0.528359	0.666723
O14	O	1.213523	-0.519928	0.519977
O15	O	1.510461	-0.417183	0.660343
O16	O	1.510259	-0.660300	0.417252
O17	O	1.373335	-0.666676	0.528421
C18	C	1.183321	-0.461146	0.461191
C19	C	1.066542	-0.461163	0.461206
C20	C	1.439473	-0.696332	0.474743
C21	C	1.432374	-0.796942	0.480564
C22	C	1.003462	-0.522461	0.522337
C23	C	0.893736	-0.522466	0.522355
C24	C	0.910182	-0.399871	0.400103
C25	C	1.019905	-0.399863	0.400089
C26	C	1.561744	-0.979305	0.375833
C27	C	1.555078	-1.073837	0.381298
C28	C	1.412380	-1.080540	0.496964
C29	C	1.419047	-0.986008	0.491499
C30	C	1.493730	-0.935394	0.430930
C31	C	1.500391	-0.840860	0.425460
C32	C	1.357699	-0.847565	0.541130
C33	C	1.351032	-0.942097	0.546596
C34	C	1.730317	-0.461170	0.461229
C35	C	1.847093	-0.461176	0.461237
C36	C	1.439564	-0.474708	0.697294
C37	C	1.432438	-0.480483	0.797898
C38	C	1.473193	-0.225066	0.447643
C39	C	1.480397	-0.124458	0.441861
C40	C	1.473008	-0.447594	0.226040
C41	C	1.480356	-0.441565	0.125421
C42	C	1.351064	-0.546494	0.943019
C43	C	1.357757	-0.541075	0.848492
C44	C	1.500429	-0.425304	0.841838
C45	C	1.493736	-0.430723	0.936365
C46	C	1.419052	-0.491321	0.986952
C47	C	1.412365	-0.496744	1.081481
C48	C	1.555032	-0.380969	1.074826
C49	C	1.561725	-0.375550	0.980299
H50	H	1.041430	-0.572374	0.572104
N51	N	1.642279	-0.924706	0.310501
H52	H	1.684352	-0.966869	0.276421
H53	H	1.691023	-0.887549	0.345110
N54	N	1.270511	-0.611834	0.997598
H55	H	1.307423	-0.656027	1.039239
H56	H	1.228469	-0.645906	0.955371
H57	H	0.872196	-0.349964	0.350343
H58	H	1.071268	-0.349941	0.350308
H59	H	0.842380	-0.572380	0.572136
H60	H	1.561199	-0.799650	0.376140
N61	N	1.270476	-0.996687	0.611914
H62	H	1.283302	-0.983914	0.675647
H63	H	1.276610	-1.063216	0.606940
N64	N	1.580979	-0.359968	0.787249
H65	H	1.568149	-0.296228	0.799957
H66	H	1.574838	-0.365008	0.720728
H67	H	1.302387	-0.585997	0.812725
H68	H	1.302314	-0.811802	0.585992
N69	N	1.642297	-0.310215	0.925736
H70	H	1.636230	-0.315160	0.859187
H71	H	1.715138	-0.325284	0.943089
N72	N	1.628437	-1.121201	0.321875
H73	H	1.676758	-1.074790	0.282679
H74	H	1.585915	-1.158065	0.282223
H75	H	1.351583	-1.121767	0.546282
H76	H	1.351555	-0.546088	1.122668
H77	H	1.610395	-0.336044	1.110606
