data_functionalizedCrystal
_audit_creation_method	'MofGen! by Chris Wilmer'
_symmetry_space_group_name_H-M	'P1'
_symmetry_Int_Tables_number	1
_symmetry_cell_setting	triclinic
loop_
_symmetry_equiv_pos_as_xyz
  x,y,z
_cell_length_a	10.654550
_cell_length_b	8.965430
_cell_length_c	10.654551
_cell_angle_alpha	89.996746
_cell_angle_beta	84.485132
_cell_angle_gamma	90.007371
loop_
_atom_site_label
_atom_site_type_symbol
_atom_site_fract_x
_atom_site_fract_y
_atom_site_fract_z
O1	O	1.667842	0.124152	0.176389
O2	O	1.302363	0.124127	0.193195
O3	O	1.493505	0.124141	0.002053
O4	O	1.476700	0.124138	0.367531
O5	O	1.493489	-0.123938	0.002066
O6	O	1.302347	-0.123952	0.193208
O7	O	1.667826	-0.123927	0.176402
Cu8	Cu	1.485085	-0.146591	0.184806
Cu9	Cu	1.485104	0.146791	0.184791
O10	O	1.476684	-0.123941	0.367544
C11	C	1.255557	0.000085	0.191968
C12	C	1.116114	0.000075	0.188276
N13	N	1.485081	-0.352940	0.184816
C14	C	1.036629	0.000096	0.300817
C15	C	0.905608	0.000122	0.297341
C16	C	0.933570	0.000112	0.068771
C17	C	1.064589	0.000076	0.072249
C18	C	1.088154	0.000096	0.416844
C19	C	1.008667	0.000118	0.529395
C20	C	0.877647	0.000144	0.525918
C21	C	0.826112	0.000148	0.409891
C22	C	1.396656	-0.450252	0.273183
C23	C	1.510360	-0.549659	0.298542
C24	C	1.371425	-0.549661	0.159468
C25	C	1.598841	-0.450157	0.210231
C26	C	1.459832	-0.450151	0.071108
C27	C	1.573617	-0.549513	0.096419
C28	C	1.714632	0.000119	0.177629
C29	C	1.854075	0.000138	0.181321
C30	C	1.492263	0.000105	-0.044739
C31	C	1.488570	0.000114	-0.184182
N32	N	1.485118	0.353140	0.184771
C33	C	1.486847	0.135339	-0.249701
C34	C	1.483366	0.135332	-0.380721
C35	C	1.483338	-0.135137	-0.380693
C36	C	1.486810	-0.135128	-0.249674
C37	C	1.488607	0.270582	-0.184209
C38	C	1.486885	0.405818	-0.249728
C39	C	1.483405	0.405811	-0.380748
C40	C	1.481647	0.270568	-0.446249
C41	C	1.477926	0.000099	0.414336
C42	C	1.481619	0.000099	0.553779
H43	H	1.050636	0.000103	0.623860
H44	H	0.812931	0.000148	0.617562
C45	C	1.152035	0.000056	-0.051544
C46	C	1.145520	-0.128762	-0.146296
C47	C	1.232969	-0.128790	-0.270090
C48	C	1.326933	-0.000000	-0.299132
C49	C	1.333452	0.128827	-0.204378
C50	C	1.246003	0.128856	-0.080583
H51	H	1.075959	-0.224108	-0.124799
H52	H	1.228143	-0.224157	-0.340234
H53	H	1.391668	-0.000021	-0.390772
H54	H	1.403013	0.224174	-0.225874
H55	H	1.250829	0.224223	-0.010440
C56	C	1.674759	-0.608044	-0.004566
C57	C	1.668648	-0.566404	-0.144070
C58	C	1.769792	-0.624941	-0.245047
C59	C	1.877047	-0.725119	-0.206521
C60	C	1.883162	-0.766764	-0.067010
C61	C	1.782018	-0.708226	0.033967
H62	H	1.589248	-0.492242	-0.172595
H63	H	1.765265	-0.594112	-0.348322
H64	H	1.951919	-0.768451	-0.281270
H65	H	1.962562	-0.840925	-0.038485
H66	H	1.786545	-0.739055	0.137242
C67	C	1.295733	-0.391354	0.374223
C68	C	1.303208	-0.430678	0.514003
C69	C	1.202293	-0.371776	0.615044
C70	C	1.093903	-0.273551	0.576304
C71	C	1.086424	-0.234222	0.436517
C72	C	1.187339	-0.293124	0.335476
H73	H	1.383449	-0.503394	0.542687
H74	H	1.207830	-0.400891	0.718523
H75	H	1.019200	-0.229949	0.651100
H76	H	1.006183	-0.161506	0.407833
H77	H	1.181802	-0.264009	0.231997
H78	H	1.194836	0.000082	0.419687
H79	H	0.719425	0.000145	0.407069
C80	C	1.728741	-0.391378	0.239332
C81	C	1.806524	-0.292012	0.142936
C82	C	1.936419	-0.233231	0.172041
C83	C	1.988532	-0.273817	0.297542
C84	C	1.910749	-0.373189	0.393946
C85	C	1.780854	-0.431969	0.364841
H86	H	1.767947	-0.261963	0.050025
H87	H	1.993999	-0.159669	0.100675
H88	H	2.084689	-0.230304	0.319087
H89	H	1.949326	-0.403238	0.486857
H90	H	1.723274	-0.505531	0.436207
H91	H	1.531741	-0.593366	0.394683
C92	C	1.488704	-0.283872	-0.177589
C93	C	1.379350	-0.395439	-0.182275
C94	C	1.381235	-0.544185	-0.110186
C95	C	1.492475	-0.581363	-0.033411
C96	C	1.601839	-0.469794	-0.028722
C97	C	1.599953	-0.321048	-0.100811
H98	H	1.296995	-0.367919	-0.239111
H99	H	1.300277	-0.626775	-0.113658
H100	H	1.493871	-0.691474	0.019953
H101	H	1.684193	-0.497313	0.028114
H102	H	1.680912	-0.238457	-0.097339
H103	H	0.891600	0.000140	-0.025693
H104	H	1.438415	-0.406409	-0.025003
C105	C	1.241557	-0.608693	0.130517
C106	C	1.188768	-0.567208	0.005551
C107	C	1.058896	-0.626228	-0.023388
C108	C	0.981813	-0.726733	0.072638
C109	C	1.034602	-0.768222	0.197612
C110	C	1.164474	-0.709203	0.226552
H111	H	1.245830	-0.492804	-0.065541
H112	H	1.019818	-0.595514	-0.115903
H113	H	0.885674	-0.770423	0.051216
H114	H	0.977540	-0.842627	0.268704
H115	H	1.203551	-0.739917	0.319066
H116	H	1.491444	0.270603	-0.077526
H117	H	1.488305	0.515928	-0.196387
H118	H	1.481990	0.515926	-0.434089
H119	H	1.478794	0.270573	-0.552933
H120	H	1.481908	-0.245245	-0.434034
