data_functionalizedCrystal
_audit_creation_method	'MofGen! by Chris Wilmer'
_symmetry_space_group_name_H-M	'P1'
_symmetry_Int_Tables_number	1
_symmetry_cell_setting	triclinic
loop_
_symmetry_equiv_pos_as_xyz
  x,y,z
_cell_length_a	14.519709
_cell_length_b	10.540539
_cell_length_c	12.996460
_cell_angle_alpha	89.996006
_cell_angle_beta	90.000034
_cell_angle_gamma	84.102818
loop_
_atom_site_label
_atom_site_type_symbol
_atom_site_fract_x
_atom_site_fract_y
_atom_site_fract_z
O1	O	1.224765	0.166400	-0.085428
O2	O	1.724765	0.666400	0.414572
O3	O	0.956394	0.185995	-0.085459
O4	O	1.456394	0.685995	0.414541
O5	O	1.096702	-0.008571	-0.085441
O6	O	1.596702	0.491429	0.414559
O7	O	1.084457	0.360967	-0.085445
O8	O	1.584457	0.860967	0.414555
O9	O	1.096688	-0.008582	0.085693
O10	O	1.596688	0.491418	0.585693
O11	O	0.956379	0.185985	0.085675
O12	O	1.456379	0.685985	0.585675
O13	O	1.224751	0.166389	0.085706
O14	O	1.724751	0.666389	0.585706
Cu15	Cu	1.090563	0.176186	0.101316
Cu16	Cu	1.590563	0.676186	0.601316
Cu17	Cu	1.090581	0.176199	-0.101069
Cu18	Cu	1.590581	0.676199	0.398931
O19	O	1.084442	0.360956	0.085689
O20	O	1.584442	0.860956	0.585689
C21	C	0.922022	0.185077	0.000104
C22	C	1.422022	0.685077	0.500104
C23	C	0.819626	0.182340	0.000092
C24	C	1.319626	0.682340	0.500092
C25	C	0.444676	0.172265	0.000139
C26	C	0.944676	0.672265	0.500139
C27	C	0.548999	0.175063	0.000126
C28	C	1.048999	0.675063	0.500126
C29	C	0.632148	0.177303	0.000115
C30	C	1.132148	0.677303	0.500115
C31	C	0.736477	0.180101	0.000103
C32	C	1.236477	0.680101	0.500103
C33	C	1.095777	-0.055870	0.000124
C34	C	1.595777	0.444130	0.500124
C35	C	1.093029	-0.196790	0.000118
C36	C	1.593029	0.303210	0.500118
C37	C	0.987750	-0.379142	-0.000278
C38	C	1.487750	0.120858	0.499722
C39	C	0.990535	-0.232553	0.000107
C40	C	1.490535	0.267447	0.500107
C41	C	1.142346	-0.258958	0.097849
C42	C	1.642346	0.241042	0.597849
C43	C	1.138848	-0.405467	0.097931
C44	C	1.638848	0.094533	0.597931
C45	C	1.140949	-0.405994	-0.096680
C46	C	1.640949	0.094006	0.403320
C47	C	1.141893	-0.259021	-0.097972
C48	C	1.641893	0.240979	0.402028
C49	C	1.259123	0.167308	0.000141
C50	C	1.759123	0.667308	0.500141
C51	C	1.361519	0.170044	0.000146
C52	C	1.861519	0.670044	0.500146
C53	C	1.085368	0.408255	0.000121
C54	C	1.585368	0.908255	0.500121
C55	C	1.088115	0.549175	0.000120
C56	C	1.588115	1.049175	0.500120
N57	N	1.090558	0.176176	0.243664
N58	N	1.590558	0.676176	0.743664
N59	N	1.090594	0.176198	-0.243416
N60	N	1.590594	0.676198	0.256584
C61	C	1.090580	0.176200	0.663478
C62	C	1.590580	0.676200	1.163478
C63	C	1.090571	0.176198	0.546673
C64	C	1.590571	0.676198	1.046673
C65	C	1.090569	0.176189	0.453574
C66	C	1.590569	0.676189	0.953574
C67	C	1.090560	0.176185	0.336762
C68	C	1.590560	0.676185	0.836762
H69	H	0.947268	-0.407325	-0.070364
H70	H	1.447268	0.092675	0.429636
H71	H	0.951445	-0.190402	0.070273
H72	H	1.451445	0.309598	0.570273
O73	O	1.095289	-0.438454	0.185099
O74	O	1.595289	0.061546	0.685099
C75	C	1.019839	-0.365771	0.342632
C76	C	1.519839	0.134229	0.842632
C77	C	1.069137	-0.328244	0.243945
C78	C	1.569137	0.171756	0.743945
H79	H	0.998699	-0.276692	0.390247
H80	H	1.498699	0.223308	0.890247
H81	H	0.955558	-0.413642	0.321259
H82	H	1.455558	0.086358	0.821259
H83	H	1.068830	-0.434791	0.389485
H84	H	1.568830	0.065209	0.889485
H85	H	1.020219	-0.259187	0.197046
H86	H	1.520219	0.240813	0.697046
H87	H	1.133431	-0.280443	0.265389
H88	H	1.633431	0.219557	0.765389
H89	H	1.212560	-0.454188	0.102373
H90	H	1.712560	0.045812	0.602373
H91	H	1.105809	-0.217790	-0.170271
H92	H	1.605809	0.282210	0.329729
H93	H	1.217614	-0.237372	0.101491
H94	H	1.717614	0.262628	0.601491
H95	H	1.108076	-0.216013	0.170570
H96	H	1.608076	0.283987	0.670570
O97	O	1.229323	-0.463034	-0.097412
O98	O	1.729323	0.036966	0.402588
C99	C	1.391744	-0.433818	-0.095157
C100	C	1.891744	0.066182	0.404843
C101	C	1.291714	-0.369050	-0.094310
C102	C	1.791714	0.130950	0.405690
H103	H	1.442215	-0.357861	-0.092672
H104	H	1.942215	0.142139	0.407328
H105	H	1.403279	-0.498725	-0.025176
H106	H	1.903279	0.001275	0.474824
H107	H	1.403791	-0.492830	-0.168332
H108	H	1.903791	0.007170	0.331668
H109	H	1.279598	-0.309973	-0.021183
H110	H	1.779598	0.190027	0.478817
H111	H	1.280228	-0.304217	-0.164340
H112	H	1.780228	0.195783	0.335660
H113	H	1.216620	-0.235562	-0.103864
H114	H	1.716620	0.264438	0.396136
O115	O	0.944167	-0.181440	-0.083492
O116	O	1.444167	0.318560	0.416508
C117	C	0.857364	-0.221402	-0.236055
C118	C	1.357364	0.278598	0.263945
C119	C	0.909839	-0.279444	-0.141410
C120	C	1.409839	0.220556	0.358590
H121	H	0.829613	-0.300613	-0.282920
H122	H	1.329613	0.199387	0.217080
H123	H	0.797207	-0.150844	-0.209725
H124	H	1.297207	0.349156	0.290275
H125	H	0.906487	-0.169775	-0.285627
H126	H	1.406487	0.330225	0.214373
H127	H	0.860789	-0.331136	-0.091797
H128	H	1.360789	0.168864	0.408203
H129	H	0.970007	-0.349935	-0.167811
H130	H	1.470007	0.150065	0.332189
H131	H	0.947421	-0.408943	0.069405
H132	H	1.447421	0.091057	0.569405
H133	H	1.107783	-0.437203	-0.170753
H134	H	1.607783	0.062797	0.329247
