data_functionalizedCrystal
_audit_creation_method	'MofGen! by Chris Wilmer'
_symmetry_space_group_name_H-M	'P1'
_symmetry_Int_Tables_number	1
_symmetry_cell_setting	triclinic
loop_
_symmetry_equiv_pos_as_xyz
  x,y,z
_cell_length_a	8.634740
_cell_length_b	14.044220
_cell_length_c	7.088929
_cell_angle_alpha	96.793068
_cell_angle_beta	82.825325
_cell_angle_gamma	96.879592
loop_
_atom_site_label
_atom_site_type_symbol
_atom_site_fract_x
_atom_site_fract_y
_atom_site_fract_z
O1	O	2.074435	0.321381	0.159014
O2	O	2.574435	0.821381	0.659014
O3	O	1.621873	0.295137	0.159014
O4	O	2.121873	0.795137	0.659014
O5	O	1.841363	0.169653	0.158995
O6	O	2.341363	0.669653	0.658995
O7	O	1.854945	0.446865	0.159033
O8	O	2.354945	0.946865	0.659033
O9	O	1.870689	0.152839	-0.158983
O10	O	2.370689	0.652839	0.341017
O11	O	1.651200	0.278322	-0.158964
O12	O	2.151200	0.778322	0.341036
O13	O	2.103762	0.304567	-0.158964
O14	O	2.603762	0.804567	0.341036
Cu15	Cu	1.880158	0.289909	-0.187998
Cu16	Cu	2.380158	0.789909	0.312002
Cu17	Cu	1.845476	0.309794	0.188048
Cu18	Cu	2.345476	0.809794	0.688048
O19	O	1.884272	0.430051	-0.158945
O20	O	2.384272	0.930051	0.341055
C21	C	1.578269	0.280784	0.000025
C22	C	2.078269	0.780784	0.500025
C23	C	1.404647	0.263058	0.000024
C24	C	1.904647	0.763058	0.500024
C25	C	1.850079	0.125388	0.000005
C26	C	2.350079	0.625388	0.500005
C27	C	1.832341	0.018542	0.000003
C28	C	2.332341	0.518542	0.500003
C29	C	1.799908	-0.177080	0.000030
C30	C	2.299908	0.322920	0.500030
C31	C	1.925719	-0.223222	0.000036
C32	C	2.425719	0.276778	0.500036
C33	C	1.907673	-0.332073	0.000052
C34	C	2.407673	0.167927	0.500052
C35	C	1.817951	-0.068219	0.000015
C36	C	2.317951	0.431781	0.500015
C37	C	2.147366	0.318919	0.000029
C38	C	2.647366	0.818919	0.500029
C39	C	2.320986	0.336647	0.000042
C40	C	2.820986	0.836647	0.500042
C41	C	1.875555	0.474316	0.000049
C42	C	2.375555	0.974316	0.500049
C43	C	1.893293	0.581162	0.000064
C44	C	2.393293	1.081162	0.500064
N45	N	1.904563	0.275924	-0.452488
N46	N	2.404563	0.775924	0.047512
N47	N	1.821083	0.323773	0.452538
N48	N	2.321083	0.823773	0.952538
H49	H	1.382189	0.413210	0.000035
H50	H	1.882189	0.913210	0.500035
H51	H	1.991099	0.226344	-0.534151
H52	H	2.491099	0.726344	-0.034151
H53	H	1.343434	0.186491	0.000069
H54	H	1.843434	0.686491	0.500069
H55	H	2.046970	-0.180970	0.000164
H56	H	2.546970	0.319030	0.500164
H57	H	1.678654	-0.219323	0.000035
H58	H	2.178654	0.280677	0.500035
H59	H	1.734565	0.373358	-0.465808
H60	H	2.234565	0.873358	0.034192
