data_functionalizedCrystal
_audit_creation_method	'MofGen! by Chris Wilmer'
_symmetry_space_group_name_H-M	'P1'
_symmetry_Int_Tables_number	1
_symmetry_cell_setting	triclinic
loop_
_symmetry_equiv_pos_as_xyz
  x,y,z
_cell_length_a	17.077404
_cell_length_b	15.299816
_cell_length_c	17.077396
_cell_angle_alpha	99.656369
_cell_angle_beta	89.978556
_cell_angle_gamma	80.349447
loop_
_atom_site_label
_atom_site_type_symbol
_atom_site_fract_x
_atom_site_fract_y
_atom_site_fract_z
Zn1	Zn	1.254124	-0.359105	-0.498025
Zn2	Zn	1.276741	-0.509936	-0.389499
Zn3	Zn	1.122860	-0.359132	-0.366772
Zn4	Zn	1.145525	-0.509878	-0.520710
O5	O	1.199812	-0.434513	-0.443752
O6	O	1.366973	-0.379127	-0.483646
O7	O	1.256308	-0.489967	-0.276643
O8	O	1.121321	-0.232917	-0.365178
O9	O	1.383590	-0.489942	-0.403913
O10	O	1.217761	-0.232898	-0.461609
O11	O	1.143252	-0.379172	-0.259946
O12	O	1.016017	-0.379115	-0.387175
O13	O	1.159951	-0.489842	-0.627542
O14	O	1.032669	-0.489867	-0.500272
O15	O	1.239738	-0.379070	-0.610876
O16	O	1.278286	-0.636139	-0.425910
O17	O	1.181882	-0.636096	-0.522309
C18	C	0.995861	-0.434488	-0.443719
C19	C	0.908613	-0.434499	-0.443727
C20	C	0.524164	-0.376940	-0.485397
C21	C	0.606144	-0.376933	-0.485387
C22	C	0.655769	-0.434532	-0.443774
C23	C	0.623411	-0.492147	-0.402175
C24	C	0.541434	-0.492157	-0.402189
C25	C	0.794277	-0.492120	-0.402145
C26	C	0.876260	-0.492108	-0.402129
C27	C	0.858987	-0.376896	-0.485343
C28	C	0.777010	-0.376906	-0.485358
C29	C	0.744658	-0.434520	-0.443757
C30	C	1.235019	-0.668843	-0.479054
C31	C	1.250152	-0.769091	-0.494183
C32	C	1.092167	-1.052011	-0.335889
C33	C	1.077944	-0.957823	-0.321677
C34	C	1.120995	-0.910635	-0.364802
C35	C	1.178271	-0.957644	-0.422143
C36	C	1.192490	-1.051841	-0.436361
C37	C	1.221319	-0.910466	-0.465273
C38	C	1.278594	-0.957475	-0.522614
C39	C	1.292812	-1.051662	-0.536829
C40	C	1.249761	-1.098850	-0.493704
C41	C	1.207099	-0.816269	-0.451055
C42	C	1.307423	-0.816099	-0.551527
C43	C	1.321645	-0.910287	-0.565739
C44	C	1.404560	-0.434538	-0.443785
C45	C	1.491812	-0.434549	-0.443799
C46	C	1.199850	-0.434446	-0.648486
C47	C	1.199866	-0.434418	-0.735732
C48	C	1.164490	-0.199267	-0.408328
C49	C	1.149437	-0.099020	-0.393233
C50	C	1.241412	-0.376734	-0.768044
C51	C	1.241417	-0.376704	-0.850020
C52	C	1.199880	-0.434363	-0.899683
C53	C	1.158328	-0.492049	-0.867365
C54	C	1.158319	-0.492074	-0.785390
C55	C	1.158352	-0.491995	-1.038227
C56	C	1.158362	-0.491972	-1.120208
C57	C	1.241450	-0.376625	-1.102857
C58	C	1.241441	-0.376650	-1.020882
C59	C	1.199890	-0.434338	-0.988570
C60	C	1.199810	-0.434514	-0.239804
C61	C	1.199908	-0.434288	-0.152521
H62	H	0.483764	-0.330031	-0.519278
H63	H	0.767940	-0.539039	-0.368273
C64	C	1.015771	-0.906625	-0.259485
C65	C	1.012515	-0.814037	-0.256280
C66	C	0.955240	-0.766845	-0.199003
H67	H	1.029555	-0.921982	-0.209039
H68	H	0.965335	-0.922052	-0.273263
H69	H	1.062940	-0.798617	-0.242498
H70	H	0.998722	-0.798654	-0.306712
H71	H	0.904804	-0.782272	-0.212780
H72	H	0.969029	-0.782209	-0.148561
H73	H	0.953019	-0.704020	-0.196826
C74	C	0.641112	-0.314279	-0.530559
C75	C	0.580103	-0.263817	-0.566981
C76	C	0.612283	-0.206078	-0.608591
H77	H	0.678292	-0.348720	-0.569969
H78	H	0.667136	-0.274888	-0.494661
H79	H	0.554092	-0.303203	-0.602876
H80	H	0.542919	-0.229358	-0.527589
H81	H	0.638307	-0.166687	-0.572693
H82	H	0.649463	-0.240526	-0.647997
H83	H	0.570893	-0.171826	-0.633302
H84	H	0.885331	-0.329983	-0.519215
H85	H	0.663823	-0.539048	-0.368296
C86	C	1.113150	-0.554687	-0.921146
C87	C	1.076746	-0.605193	-0.875296
C88	C	1.035114	-0.662899	-0.924809
H89	H	1.149008	-0.594059	-0.959062
H90	H	1.073732	-0.520193	-0.947910
H91	H	1.116160	-0.639684	-0.848546
H92	H	1.040876	-0.565844	-0.837383
H93	H	0.995696	-0.628405	-0.951573
H94	H	1.070978	-0.702265	-0.962723
H95	H	1.010403	-0.697168	-0.893707
C96	C	0.930016	-0.554755	-0.356948
C97	C	0.884144	-0.605240	-0.320546
C98	C	0.933638	-0.662971	-0.278931
H99	H	0.956805	-0.520308	-0.317528
H100	H	0.967913	-0.594132	-0.392841
H101	H	0.846261	-0.565867	-0.284656
H102	H	0.857356	-0.639704	-0.359948
H103	H	0.971535	-0.702349	-0.314824
H104	H	0.960425	-0.628518	-0.239515
H105	H	0.902522	-0.697238	-0.254233
H106	H	1.124537	-0.538921	-1.160642
H107	H	1.339446	-1.089934	-0.583523
H108	H	0.736606	-0.330001	-0.519239
C109	C	1.286374	-0.314075	-0.714021
C110	C	1.233242	-0.256292	-0.658234
C111	C	1.274631	-0.198561	-0.608451
H112	H	1.311119	-0.279630	-0.744907
H113	H	1.325739	-0.348561	-0.687194
H114	H	1.193891	-0.221810	-0.685058
H115	H	1.208494	-0.290712	-0.627329
H116	H	1.313997	-0.233046	-0.581624
H117	H	1.299376	-0.164122	-0.639343
H118	H	1.238589	-0.159354	-0.570589
H119	H	1.261340	-1.175545	-0.505270
H120	H	0.515095	-0.539070	-0.368318
C121	C	1.354079	-0.764925	-0.598490
C122	C	1.340377	-0.787771	-0.679590
C123	C	1.383329	-0.740632	-0.722875
H124	H	1.409174	-0.780282	-0.589475
H125	H	1.337402	-0.702087	-0.581861
H126	H	1.357059	-0.850595	-0.696214
H127	H	1.285291	-0.772412	-0.688630
H128	H	1.366652	-0.677794	-0.706245
H129	H	1.438422	-0.755993	-0.713853
H130	H	1.374033	-0.756120	-0.777905
H131	H	1.057117	-1.090440	-0.300787
H132	H	1.368279	-0.948575	-0.612427
H133	H	1.160465	-0.778003	-0.404368
H134	H	1.109413	-0.833944	-0.353226
C135	C	1.286610	-0.314045	-0.884956
C136	C	1.323007	-0.263578	-0.823921
C137	C	1.364655	-0.205853	-0.856075
H138	H	1.250763	-0.274650	-0.911000
H139	H	1.326034	-0.348524	-0.922119
H140	H	1.283588	-0.229102	-0.786773
H141	H	1.358866	-0.302950	-0.797872
H142	H	1.404079	-0.240332	-0.893237
H143	H	1.328803	-0.166464	-0.882118
H144	H	1.389361	-0.171610	-0.814669
H145	H	1.275269	-0.329704	-0.980449
H146	H	1.275280	-0.329652	-1.129169
H147	H	1.124503	-0.538956	-1.011920
H148	H	1.124479	-0.539037	-0.759081
