data_functionalizedCrystal
_audit_creation_method	'MofGen! by Chris Wilmer'
_symmetry_space_group_name_H-M	'P1'
_symmetry_Int_Tables_number	1
_symmetry_cell_setting	triclinic
loop_
_symmetry_equiv_pos_as_xyz
  x,y,z
_cell_length_a	29.839131
_cell_length_b	17.077404
_cell_length_c	17.077396
_cell_angle_alpha	90.019699
_cell_angle_beta	89.968087
_cell_angle_gamma	89.961511
loop_
_atom_site_label
_atom_site_type_symbol
_atom_site_fract_x
_atom_site_fract_y
_atom_site_fract_z
Zn1	Zn	-0.178888	-1.199953	-0.443828
Zn2	Zn	-0.254019	-1.199818	-0.312554
Zn3	Zn	-0.178900	-1.068685	-0.312576
Zn4	Zn	-0.253988	-1.068611	-0.443777
O5	O	-0.216449	-1.134267	-0.378184
O6	O	-0.188863	-1.309782	-0.426427
O7	O	-0.244072	-1.182398	-0.202710
O8	O	-0.116031	-1.086186	-0.330017
O9	O	-0.244061	-1.309683	-0.329980
O10	O	-0.116023	-1.182628	-0.426447
O11	O	-0.188883	-1.086055	-0.202726
O12	O	-0.188853	-0.958829	-0.329967
O13	O	-0.244008	-1.086059	-0.553631
O14	O	-0.244020	-0.958774	-0.426361
O15	O	-0.188833	-1.182556	-0.553668
O16	O	-0.316882	-1.182325	-0.329931
O17	O	-0.316860	-1.085928	-0.426340
C18	C	-0.216434	-0.930319	-0.378161
C19	C	-0.216439	-0.843069	-0.378170
C20	C	-0.187748	-0.802132	-0.428466
C21	C	-0.187750	-0.720151	-0.428468
C22	C	-0.216446	-0.679110	-0.378177
C23	C	-0.245138	-0.720053	-0.327876
C24	C	-0.245133	-0.802032	-0.327871
C25	C	-0.245147	-0.549183	-0.327892
C26	C	-0.245152	-0.467199	-0.327898
C27	C	-0.187764	-0.467302	-0.428488
C28	C	-0.187759	-0.549281	-0.428483
C29	C	-0.216452	-0.590219	-0.378183
C30	C	-0.333172	-1.134125	-0.378145
C31	C	-0.383106	-1.134136	-0.378154
C32	C	-0.692749	-1.184552	-0.328057
C33	C	-0.880422	-1.184649	-0.328087
O34	O	-0.904686	-1.227402	-0.285463
N35	N	-0.903891	-1.134430	-0.378243
C36	C	-0.880439	-1.084186	-0.428398
O37	O	-0.904708	-1.041479	-0.471065
C38	C	-0.692767	-1.084094	-0.428371
C39	C	-0.669300	-1.134311	-0.378207
C40	C	-0.669281	-1.234766	-0.277897
C41	C	-0.622366	-1.234738	-0.277887
C42	C	-0.598918	-1.184497	-0.328037
C43	C	-0.622385	-1.134283	-0.378196
C44	C	-0.669316	-1.033854	-0.478530
C45	C	-0.622395	-1.033837	-0.478520
C46	C	-0.598928	-1.084054	-0.428355
C47	C	-0.552021	-1.084014	-0.428336
N48	N	-0.528551	-1.134233	-0.378180
C49	C	-0.552000	-1.184475	-0.328031
C50	C	-0.978970	-1.084237	-0.428408
C51	C	-1.025888	-1.084259	-0.428414
C52	C	-1.025867	-1.184723	-0.328104
C53	C	-0.978948	-1.184697	-0.328094
C54	C	-0.955501	-1.134456	-0.378252
C55	C	-0.453474	-1.184412	-0.328013
C56	C	-0.406554	-1.184378	-0.328005
C57	C	-0.406580	-1.083917	-0.428317
C58	C	-0.453495	-1.083948	-0.428323
C59	C	-0.476941	-1.134202	-0.378168
O60	O	-0.527728	-1.041289	-0.470945
O61	O	-0.527723	-1.227188	-0.285383
C62	C	-0.739664	-1.184580	-0.328067
C63	C	-0.763131	-1.134366	-0.378227
C64	C	-0.739683	-1.084125	-0.428376
C65	C	-0.810049	-1.134388	-0.378233
C66	C	-0.833497	-1.184630	-0.328083
C67	C	-0.810028	-1.234849	-0.277928
C68	C	-0.763112	-1.234822	-0.277917
C69	C	-0.763152	-1.033905	-0.478532
C70	C	-0.810068	-1.033937	-0.478537
C71	C	-0.833516	-1.084178	-0.428388
C72	C	-0.099271	-1.134431	-0.378240
C73	C	-0.049336	-1.134500	-0.378264
C74	C	-0.216416	-1.134314	-0.582928
C75	C	-0.216402	-1.134335	-0.670178
C76	C	-0.216462	-0.339011	-0.378201
C77	C	-0.216461	-0.426261	-0.378193
C78	C	-0.187670	-1.184582	-0.711189
C79	C	-0.187655	-1.184592	-0.793169
C80	C	-0.216375	-1.134357	-0.834138
C81	C	-0.245108	-1.084104	-0.793121
C82	C	-0.245120	-1.084091	-0.711142
C83	C	-0.245081	-1.084135	-0.963991
C84	C	-0.245069	-1.084149	-1.045976
C85	C	-0.187615	-1.184636	-1.046019
C86	C	-0.187628	-1.184624	-0.964040
C87	C	-0.216362	-1.134371	-0.923029
C88	C	-0.216450	-1.134265	-0.174236
C89	C	-0.216337	-1.134397	-0.086987
H90	H	-0.387449	-1.225271	-0.287152
O91	O	-0.740328	-0.985057	-0.527138
C92	C	-0.713246	-0.934353	-0.482392
H93	H	-0.706220	-0.962072	-0.422931
H94	H	-0.680249	-0.923785	-0.514351
H95	H	-0.731368	-0.876201	-0.473710
O96	O	-0.159805	-1.233434	-0.833099
C97	C	-0.185376	-1.284115	-0.880510
H98	H	-0.219419	-1.256388	-0.892766
H99	H	-0.167067	-1.294656	-0.938170
H100	H	-0.190318	-1.342281	-0.848935
H101	H	-0.744009	-1.275713	-0.237069
O102	O	-0.599571	-0.984992	-0.527136
C103	C	-0.572486	-0.934283	-0.482399
H104	H	-0.565460	-0.961993	-0.422935
H105	H	-0.539489	-0.923724	-0.514362
H106	H	-0.590607	-0.876128	-0.473726
H107	H	-0.603262	-1.275632	-0.237041
H108	H	-0.268491	-1.043199	-0.826484
O109	O	-0.159700	-1.233305	-0.924163
C110	C	-0.130682	-1.188630	-0.876776
H111	H	-0.146531	-1.129125	-0.864473
H112	H	-0.124661	-1.220598	-0.819138
H113	H	-0.097388	-1.180043	-0.908397
H114	H	-0.387481	-1.043008	-0.469146
O115	O	-0.159748	-1.233558	-1.085821
C116	C	-0.169569	-1.311778	-1.065791
H117	H	-0.205462	-1.315689	-1.043238
H118	H	-0.165694	-1.350567	-1.119717
H119	H	-0.145492	-1.332328	-1.018224
O120	O	-0.159705	-1.233298	-0.671432
C121	C	-0.114927	-1.216218	-0.691502
H122	H	-0.112653	-1.153514	-0.714025
H123	H	-0.092739	-1.223003	-0.637604
H124	H	-0.103180	-1.258324	-0.739104
H125	H	-0.268473	-1.043202	-0.930603
H126	H	-0.164400	-0.433967	-0.469443
O127	O	-0.273040	-0.427451	-0.278971
C128	C	-0.298370	-0.481160	-0.234584
H129	H	-0.279964	-0.539615	-0.231917
H130	H	-0.303117	-0.457437	-0.172725
H131	H	-0.332511	-0.489859	-0.263216
H132	H	-0.688368	-1.275683	-0.237059
H133	H	-0.268455	-1.043242	-1.079330
O134	O	-0.273027	-0.841889	-0.279126
C135	C	-0.302080	-0.889285	-0.323721
H136	H	-0.286278	-0.901605	-0.383260
H137	H	-0.308073	-0.946914	-0.291725
H138	H	-0.335382	-0.857663	-0.332240
O139	O	-0.273099	-1.035374	-0.671332
C140	C	-0.317871	-1.052464	-0.691358
H141	H	-0.320137	-1.115172	-0.713912
H142	H	-0.340073	-1.045674	-0.637431
H143	H	-0.329608	-1.010366	-0.738924
O144	O	-0.159831	-0.841874	-0.477346
C145	C	-0.134517	-0.788158	-0.521752
H146	H	-0.132941	-0.729710	-0.489606
H147	H	-0.099126	-0.811883	-0.530240
H148	H	-0.151013	-0.779445	-0.581316
O149	O	-0.272966	-0.680224	-0.278912
C150	C	-0.263098	-0.700247	-0.200707
H151	H	-0.227204	-0.722814	-0.196854
H152	H	-0.266946	-0.646315	-0.161918
H153	H	-0.287165	-0.747802	-0.180109
H154	H	-0.472603	-1.043059	-0.469173
H155	H	-0.959882	-1.043323	-0.469253
O156	O	-0.159944	-0.680301	-0.477369
C157	C	-0.185563	-0.632891	-0.528000
H158	H	-0.219587	-0.620558	-0.500200
H159	H	-0.167274	-0.575268	-0.538589
H160	H	-0.190545	-0.664506	-0.586151
H161	H	-1.044991	-1.043360	-0.469255
O162	O	-0.273042	-0.589039	-0.279142
C163	C	-0.302093	-0.636432	-0.323743
H164	H	-0.286289	-0.648750	-0.383280
H165	H	-0.308088	-0.694062	-0.291750
H166	H	-0.335394	-0.604808	-0.332265
O167	O	-0.476176	-1.233251	-0.279216
C168	C	-0.445394	-1.277572	-0.234961
H169	H	-0.411971	-1.245396	-0.232217
H170	H	-0.458964	-1.285987	-0.173120
H171	H	-0.440358	-1.337171	-0.263757
O172	O	-0.159842	-0.589029	-0.477359
C173	C	-0.134525	-0.535319	-0.521769
H174	H	-0.132948	-0.476868	-0.489630
H175	H	-0.099134	-0.559048	-0.530252
H176	H	-0.151020	-0.526612	-0.581335
O177	O	-0.956223	-1.233554	-0.279343
C178	C	-0.986986	-1.277882	-0.235068
H179	H	-1.020417	-1.280592	-0.267230
H180	H	-0.973404	-1.339730	-0.226745
H181	H	-0.992014	-1.249170	-0.175426
H182	H	-1.044966	-1.225632	-0.287270
H183	H	-0.829128	-1.275756	-0.237092
O184	O	-0.692035	-0.985051	-0.527337
C185	C	-0.661269	-0.940699	-0.571582
H186	H	-0.627808	-0.972839	-0.574309
H187	H	-0.674800	-0.932301	-0.633429
H188	H	-0.656322	-0.881093	-0.542786
H189	H	-0.829171	-0.993037	-0.519387
