data_functionalizedCrystal
_audit_creation_method	'MofGen! by Chris Wilmer'
_symmetry_space_group_name_H-M	'P1'
_symmetry_Int_Tables_number	1
_symmetry_cell_setting	triclinic
loop_
_symmetry_equiv_pos_as_xyz
  x,y,z
_cell_length_a	10.654555
_cell_length_b	17.666332
_cell_length_c	19.188930
_cell_angle_alpha	90.011603
_cell_angle_beta	96.184122
_cell_angle_gamma	89.993308
loop_
_atom_site_label
_atom_site_type_symbol
_atom_site_fract_x
_atom_site_fract_y
_atom_site_fract_z
O1	O	-1.665771	0.062912	0.098080
O2	O	-1.300095	0.062924	0.107419
O3	O	-1.493486	0.062903	0.001163
O4	O	-1.472381	0.062933	0.204336
O5	O	-1.493452	-0.062994	0.001157
O6	O	-1.300062	-0.062972	0.107413
O7	O	-1.665737	-0.062985	0.098074
Cu8	Cu	-1.482896	-0.074474	0.102743
Cu9	Cu	-1.482936	0.074414	0.102750
O10	O	-1.472347	-0.062963	0.204330
C11	C	-1.253295	-0.000023	0.106730
C12	C	-1.113896	-0.000018	0.104676
C13	C	-0.917430	0.068604	0.101787
C14	C	-1.048411	0.068607	0.103713
C15	C	-1.048393	-0.068652	0.103706
C16	C	-0.917415	-0.068655	0.101776
N17	N	-1.482877	-0.179193	0.102738
C18	C	-1.568538	-0.218813	0.055711
C19	C	-1.568545	-0.298060	0.055708
C20	C	-1.482904	-0.337686	0.102743
C21	C	-1.397227	-0.298057	0.149773
C22	C	-1.397214	-0.218811	0.149771
N23	N	-1.466579	-0.462095	0.164444
N24	N	-1.466600	-0.537375	0.164444
C25	C	-1.482937	-0.576450	0.102753
N26	N	-1.499278	-0.537400	0.041060
N27	N	-1.499264	-0.462112	0.041060
C28	C	-1.482908	-0.423615	0.102751
C29	C	-1.568610	-0.701998	0.055719
C30	C	-1.568609	-0.781247	0.055714
C31	C	-1.397297	-0.781242	0.149786
C32	C	-1.397292	-0.701995	0.149785
C33	C	-1.482956	-0.662377	0.102752
C34	C	-0.712537	-0.000034	0.098764
C35	C	-0.851936	-0.000025	0.100820
C36	C	-1.492785	-0.000048	-0.024856
C37	C	-1.490734	-0.000054	-0.102374
N38	N	-1.482965	0.179133	0.102750
C39	C	-1.604209	-0.000061	-0.146554
C40	C	-1.602281	-0.000049	-0.219391
C41	C	-1.486872	-0.000045	-0.248043
C42	C	-1.373382	-0.000033	-0.203853
C43	C	-1.375313	-0.000038	-0.131018
N44	N	-1.398644	-0.042887	-0.356628
N45	N	-1.396818	-0.042884	-0.425819
C46	C	-1.481048	-0.000029	-0.467490
N47	N	-1.567193	0.042813	-0.437358
N48	N	-1.569023	0.042807	-0.368162
C49	C	-1.484766	-0.000039	-0.327019
C50	C	-1.592441	-0.000022	-0.590649
C51	C	-1.590509	-0.000006	-0.663486
C52	C	-1.361607	0.000003	-0.647947
C53	C	-1.363542	-0.000006	-0.575111
C54	C	-1.478963	-0.000023	-0.546466
C55	C	-1.473047	-0.000011	0.230348
C56	C	-1.475099	0.000000	0.307866
H57	H	-1.638303	-0.330324	0.017411
C58	C	-0.891526	-0.185663	0.041267
C59	C	-0.845420	-0.144100	0.100712
H60	H	-0.847084	-0.232239	0.040612
H61	H	-0.879858	-0.157471	0.000318
H62	H	-0.978903	-0.195477	0.042563
H63	H	-0.758045	-0.134281	0.099413
H64	H	-0.857077	-0.172298	0.141672
H65	H	-1.638359	-0.669740	0.017419
C66	C	-1.226279	-0.387202	0.164042
C67	C	-1.303091	-0.341613	0.201476
H68	H	-1.168165	-0.414094	0.195962
H69	H	-1.181268	-0.356302	0.134751
H70	H	-1.277315	-0.422138	0.136036
H71	H	-1.252056	-0.306673	0.229479
H72	H	-1.348105	-0.372515	0.230779
H73	H	-1.101722	-0.124529	0.104486
H74	H	-1.267638	0.000010	-0.671275
H75	H	-1.682918	-0.000007	-0.699458
C76	C	-1.249197	0.129560	0.106670
C77	C	-1.120403	0.144046	0.104778
H78	H	-1.293640	0.176135	0.107323
H79	H	-1.260856	0.101372	0.147623
H80	H	-1.280444	0.101357	0.066338
H81	H	-1.089154	0.172244	0.145112
H82	H	-1.108736	0.172245	0.063821
H83	H	-1.271138	-0.000004	-0.539138
C84	C	-1.739161	-0.064790	-0.073677
C85	C	-1.731076	-0.000070	-0.115068
H86	H	-1.817487	-0.064795	-0.054241
H87	H	-1.671862	-0.064783	-0.036942
H88	H	-1.733638	-0.108687	-0.101784
H89	H	-1.736590	0.043827	-0.086960
H90	H	-1.798394	-0.000071	-0.151808
H91	H	-1.638360	-0.813506	0.017416
C92	C	-1.737870	-0.226784	-0.037275
C93	C	-1.662685	-0.175266	0.004005
H94	H	-1.795985	-0.199897	-0.069199
H95	H	-1.782882	-0.257674	-0.007976
H96	H	-1.685732	-0.257710	-0.062655
H97	H	-1.714823	-0.144343	0.029389
H98	H	-1.617671	-0.144363	-0.025297
H99	H	-1.327457	-0.186552	0.188066
C100	C	-1.322880	-0.805612	0.270274
C101	C	-1.303153	-0.824788	0.201489
H102	H	-1.264749	-0.832496	0.302191
H103	H	-1.406634	-0.818592	0.278287
H104	H	-1.310613	-0.752744	0.276995
H105	H	-1.315429	-0.877656	0.194767
H106	H	-1.219379	-0.811813	0.193474
H107	H	-1.694689	-0.000052	-0.255369
C108	C	-1.268789	-0.000034	-0.308605
C109	C	-1.246522	-0.000031	-0.235345
H110	H	-1.190466	-0.000035	-0.328044
H111	H	-1.315500	0.043864	-0.323721
H112	H	-1.315486	-0.043942	-0.323734
H113	H	-1.199833	0.043880	-0.220215
H114	H	-1.199791	-0.043934	-0.220223
C115	C	-1.369513	-0.612856	0.244661
C116	C	-1.303146	-0.658440	0.201488
H117	H	-1.311385	-0.585965	0.276579
H118	H	-1.421638	-0.643760	0.270043
H119	H	-1.420511	-0.577920	0.216641
H120	H	-1.252154	-0.693381	0.229508
H121	H	-1.250999	-0.627534	0.176105
C122	C	-1.148862	-0.000029	-0.122975
C123	C	-1.250572	-0.000037	-0.082449
H124	H	-1.071853	-0.000035	-0.092989
H125	H	-1.152879	0.043875	-0.151692
H126	H	-1.152865	-0.043931	-0.151722
H127	H	-1.246573	0.043868	-0.053707
H128	H	-1.246553	-0.043946	-0.053721
C129	C	-1.818505	-0.000012	-0.613322
C130	C	-1.719307	-0.000022	-0.559157
H131	H	-1.896825	-0.000005	-0.593880
H132	H	-1.812991	-0.043911	-0.641415
H133	H	-1.812983	0.043896	-0.641397
H134	H	-1.724824	-0.043933	-0.531084
H135	H	-1.724824	0.043881	-0.531051
H136	H	-0.864121	0.124487	0.101008
