data_functionalizedCrystal
_audit_creation_method	'MofGen! by Chris Wilmer'
_symmetry_space_group_name_H-M	'P1'
_symmetry_Int_Tables_number	1
_symmetry_cell_setting	triclinic
loop_
_symmetry_equiv_pos_as_xyz
  x,y,z
_cell_length_a	12.759401
_cell_length_b	19.121449
_cell_length_c	12.759393
_cell_angle_alpha	92.473948
_cell_angle_beta	90.019802
_cell_angle_gamma	87.584348
loop_
_atom_site_label
_atom_site_type_symbol
_atom_site_fract_x
_atom_site_fract_y
_atom_site_fract_z
Zn1	Zn	1.624021	-0.279594	0.576131
Zn2	Zn	2.124021	0.220406	1.076131
Zn3	Zn	1.631372	-0.397060	0.392948
Zn4	Zn	2.131372	0.102940	0.892948
Zn5	Zn	1.448322	-0.279626	0.400467
Zn6	Zn	1.948322	0.220374	0.900467
Zn7	Zn	1.455768	-0.397005	0.568592
Zn8	Zn	1.955768	0.102995	1.068592
O9	O	1.539871	-0.338321	0.484535
O10	O	2.039871	0.161679	0.984535
O11	O	1.772018	-0.295185	0.551839
O12	O	2.272018	0.204815	1.051839
O13	O	1.607050	-0.381518	0.246922
O14	O	2.107050	0.118482	0.746922
O15	O	1.465437	-0.181338	0.430071
O16	O	1.965437	0.318662	0.930071
O17	O	1.777418	-0.381487	0.417256
O18	O	2.277418	0.118513	0.917256
O19	O	1.594522	-0.181315	0.559130
O20	O	2.094522	0.318685	1.059130
O21	O	1.472564	-0.295240	0.252446
O22	O	1.972564	0.204760	0.752446
O23	O	1.302288	-0.295188	0.422761
O24	O	1.802288	0.204812	0.922761
O25	O	1.478127	-0.381394	0.716616
O26	O	1.978127	0.118606	1.216616
O27	O	1.307758	-0.381426	0.546282
O28	O	1.807758	0.118574	1.046282
O29	O	1.601742	-0.295133	0.722154
O30	O	2.101742	0.204867	1.222154
O31	O	1.614270	-0.495336	0.409946
O32	O	2.114270	0.004664	0.909946
O33	O	1.485254	-0.495296	0.538991
O34	O	1.985254	0.004704	1.038991
C35	C	1.266902	-0.338305	0.484520
C36	C	1.766902	0.161695	0.984520
C37	C	1.150126	-0.338315	0.484538
C38	C	1.650126	0.161685	0.984538
C39	C	0.982722	-0.293475	0.554720
C40	C	1.482722	0.206525	1.054720
C41	C	1.092445	-0.293461	0.554714
C42	C	1.592445	0.206539	1.054714
C43	C	1.098079	-0.383190	0.414370
C44	C	1.598079	0.116810	0.914370
C45	C	0.988358	-0.383207	0.414382
C46	C	1.488358	0.116793	0.914382
C47	C	1.551396	-0.520800	0.472858
C48	C	2.051396	-0.020800	0.972858
C49	C	1.556423	-0.598865	0.467898
C50	C	2.056423	-0.098865	0.967898
C51	C	1.491567	-0.635545	0.532698
C52	C	1.991567	-0.135545	1.032698
C53	C	1.496295	-0.708895	0.528033
C54	C	1.996295	-0.208895	1.028033
C55	C	1.565884	-0.745564	0.458572
C56	C	2.065884	-0.245564	0.958572
C57	C	1.630743	-0.708879	0.393764
C58	C	2.130743	-0.208879	0.893764
C59	C	1.626009	-0.635530	0.398425
C60	C	2.126009	-0.135530	0.898425
C61	C	1.583535	-0.967031	0.441138
C62	C	2.083535	-0.467031	0.941138
C63	C	1.588266	-1.040385	0.436484
C64	C	2.088266	-0.540385	0.936484
C65	C	1.453816	-1.040396	0.570753
C66	C	1.953816	-0.540396	1.070753
C67	C	1.449093	-0.967046	0.575411
C68	C	1.949093	-0.467046	1.075411
C69	C	1.513948	-0.930367	0.510600
C70	C	2.013948	-0.430367	1.010600
C71	C	1.570721	-0.820540	0.453805
C72	C	2.070721	-0.320540	0.953805
C73	C	1.509105	-0.855392	0.515363
C74	C	2.009105	-0.355392	1.015363
C75	C	1.813905	-0.338338	0.484550
C76	C	2.313905	0.161662	0.984550
C77	C	1.930682	-0.338345	0.484556
C78	C	2.430682	0.161655	0.984556
C79	C	1.539945	-0.338254	0.758572
C80	C	2.039945	0.161746	1.258572
C81	C	1.539977	-0.338225	0.875351
C82	C	2.039977	0.161775	1.375351
C83	C	1.528329	-0.155130	0.496280
C84	C	2.028329	0.344870	0.996280
C85	C	1.523410	-0.077065	0.501285
C86	C	2.023410	0.422935	1.001285
C87	C	1.539854	-0.338338	0.211566
C88	C	2.039854	0.161662	0.711566
C89	C	1.540013	-0.338169	0.094801
C90	C	2.040013	0.161831	0.594801
C91	C	1.604348	-0.293301	0.933099
C92	C	2.104348	0.206699	1.433099
C93	C	1.604363	-0.293271	1.042825
C94	C	2.104363	0.206729	1.542825
C95	C	1.475635	-0.383094	1.037045
C96	C	1.975635	0.116906	1.537045
C97	C	1.475614	-0.383121	0.927321
C98	C	1.975614	0.116879	1.427321
H99	H	0.935765	-0.256946	0.611860
H100	H	1.435765	0.243054	1.111860
H101	H	1.627382	-0.850404	0.397250
H102	H	2.127382	-0.350404	0.897250
H103	H	1.452441	-0.825534	0.571914
H104	H	1.952441	-0.325534	1.071914
Br105	Br	1.691694	-0.232371	0.862571
Br106	Br	2.191694	0.267629	1.362571
Br107	Br	1.397127	-0.585787	0.626980
Br108	Br	1.897127	-0.085787	1.126980
H109	H	1.423188	-0.419702	0.880301
H110	H	1.923188	0.080298	1.380301
Br111	Br	1.163067	-0.232567	0.649947
Br112	Br	1.663067	0.267433	1.149947
Br113	Br	1.725185	-0.758643	0.299492
Br114	Br	2.225185	-0.258643	0.799492
Br115	Br	1.176359	-0.444069	0.319137
Br116	Br	1.676359	0.055931	0.819137
H117	H	1.656779	-0.256689	1.089839
H118	H	2.156779	0.243311	1.589839
Br119	Br	1.388294	-0.444023	1.107583
Br120	Br	1.888294	0.055977	1.607583
H121	H	1.443473	-0.738757	0.580792
H122	H	1.943473	-0.238757	1.080792
Br123	Br	1.354654	-0.917285	0.669691
Br124	Br	1.854654	-0.417285	1.169691
Br125	Br	1.365803	-1.090178	0.658705
Br126	Br	1.865803	-0.590178	1.158705
Br127	Br	1.682718	-1.090150	0.342212
Br128	Br	2.182718	-0.590150	0.842212
Br129	Br	1.671570	-0.917262	0.353196
Br130	Br	2.171570	-0.417262	0.853196
Br131	Br	0.917726	-0.444109	0.319155
Br132	Br	1.417726	0.055891	0.819155
Br133	Br	1.714021	-0.585749	0.310467
Br134	Br	2.214021	-0.085749	0.810467
