data_functionalizedCrystal
_audit_creation_method	'MofGen! by Chris Wilmer'
_symmetry_space_group_name_H-M	'P1'
_symmetry_Int_Tables_number	1
_symmetry_cell_setting	triclinic
loop_
_symmetry_equiv_pos_as_xyz
  x,y,z
_cell_length_a	14.908571
_cell_length_b	12.759400
_cell_length_c	14.908794
_cell_angle_alpha	86.709965
_cell_angle_beta	89.810279
_cell_angle_gamma	86.709538
loop_
_atom_site_label
_atom_site_type_symbol
_atom_site_fract_x
_atom_site_fract_y
_atom_site_fract_z
Zn1	Zn	1.345214	-0.548510	0.587600
Zn2	Zn	1.353848	-0.714633	0.437251
Zn3	Zn	1.203565	-0.528269	0.428599
Zn4	Zn	1.194842	-0.713439	0.578900
O5	O	1.274367	-0.626213	0.508088
O6	O	1.472185	-0.579517	0.574918
O7	O	1.341176	-0.681940	0.310280
O8	O	1.222393	-0.383937	0.449712
O9	O	1.478528	-0.701567	0.464456
O10	O	1.326462	-0.398808	0.566529
O11	O	1.230764	-0.545019	0.303924
O12	O	1.076583	-0.543862	0.441276
O13	O	1.207525	-0.699533	0.705878
O14	O	1.070174	-0.679905	0.551701
O15	O	1.318003	-0.578360	0.712270
O16	O	1.332718	-0.861491	0.456020
O17	O	1.215897	-0.860615	0.560090
C18	C	1.040753	-0.609558	0.494606
C19	C	0.940811	-0.602460	0.488860
C20	C	1.274321	-0.899176	0.508071
C21	C	1.274382	-1.015958	0.508098
C22	C	0.746392	-0.730983	0.592894
C23	C	0.652487	-0.724317	0.587498
C24	C	0.659094	-0.582458	0.472677
C25	C	0.752999	-0.589124	0.478073
C26	C	0.796645	-0.663390	0.538182
C27	C	0.890552	-0.670060	0.543573
C28	C	0.897156	-0.528197	0.428758
C29	C	0.803251	-0.521531	0.423362
C30	C	1.328539	-1.078485	0.568971
C31	C	1.328580	-1.188214	0.568995
C32	C	1.220304	-1.172878	0.447267
C33	C	1.220259	-1.063152	0.447248
C34	C	1.382662	-1.031292	0.629822
C35	C	1.436824	-1.093819	0.690698
C36	C	1.436865	-1.203548	0.690722
C37	C	1.382743	-1.250749	0.629870
C38	C	1.508894	-0.642933	0.521623
C39	C	1.608835	-0.650058	0.527390
C40	C	1.260828	-0.641071	0.742611
C41	C	1.255059	-0.647403	0.842550
C42	C	1.274437	-0.352187	0.508126
C43	C	1.274467	-0.235413	0.508142
C44	C	1.189409	-0.719402	0.980084
C45	C	1.194828	-0.713461	0.886182
C46	C	1.309872	-0.587280	0.892828
C47	C	1.304452	-0.593221	0.986730
C48	C	1.244220	-0.659286	1.030355
C49	C	1.238806	-0.665233	1.124259
C50	C	1.353844	-0.539047	1.130903
C51	C	1.359263	-0.533105	1.037001
C52	C	1.287848	-0.611437	1.274477
C53	C	1.293619	-0.605110	1.174537
H54	H	0.926087	-0.730533	0.592516
H55	H	1.382769	-1.340097	0.629905
C56	C	0.794406	-0.812672	0.659006
H57	H	0.751027	-0.851973	0.690820
H58	H	0.833018	-0.858801	0.626649
H59	H	0.828782	-0.777633	0.700350
H60	H	1.480959	-1.254455	0.740298
C61	C	1.376107	-0.514598	0.844834
H62	H	1.407970	-0.479634	0.888220
H63	H	1.417389	-0.555247	0.810448
H64	H	1.343815	-0.464053	0.806232
H65	H	1.382637	-0.941946	0.629807
H66	H	1.408301	-0.479315	1.001469
C67	C	0.597211	-0.798649	0.647698
H68	H	0.636658	-0.843828	0.684270
H69	H	0.558336	-0.758392	0.684820
H70	H	0.562548	-0.839595	0.611147
C71	C	1.123165	-0.792073	1.028079
H72	H	1.127793	-0.787007	1.091204
H73	H	1.063641	-0.771427	1.009207
H74	H	1.137207	-0.862629	1.013444
C75	C	1.160783	-1.224798	0.380330
H76	H	1.168573	-1.299102	0.389054
H77	H	1.099594	-1.203392	0.389946
H78	H	1.177478	-1.203940	0.320684
H79	H	1.398477	-0.490098	1.171844
H80	H	1.176158	-1.012242	0.397681
H81	H	0.623541	-0.521988	0.423745
H82	H	0.767702	-0.461064	0.374425
H83	H	0.938082	-0.473160	0.384206
C84	C	1.172556	-0.737899	1.172250
H85	H	1.177183	-0.732838	1.235376
H86	H	1.113034	-0.717244	1.153378
H87	H	1.186592	-0.808456	1.157613
C88	C	1.496351	-1.041903	0.757631
H89	H	1.488578	-0.967598	0.748894
H90	H	1.479667	-1.062755	0.817275
H91	H	1.557542	-1.063316	0.748003
C92	C	1.134552	-0.779607	0.830888
H93	H	1.097914	-0.819811	0.870322
H94	H	1.097495	-0.734323	0.791991
H95	H	1.171067	-0.825519	0.796247
