data_functionalizedCrystal
_audit_creation_method	'MofGen! by Chris Wilmer'
_symmetry_space_group_name_H-M	'P1'
_symmetry_Int_Tables_number	1
_symmetry_cell_setting	triclinic
loop_
_symmetry_equiv_pos_as_xyz
  x,y,z
_cell_length_a	23.532407
_cell_length_b	16.109301
_cell_length_c	14.586319
_cell_angle_alpha	89.998390
_cell_angle_beta	90.000590
_cell_angle_gamma	83.155075
loop_
_atom_site_label
_atom_site_type_symbol
_atom_site_fract_x
_atom_site_fract_y
_atom_site_fract_z
O1	O	-0.755633	-0.100920	0.076106
O2	O	-0.255633	0.399080	0.576106
O3	O	-0.589824	-0.115523	0.076138
O4	O	-0.089824	0.384477	0.576138
O5	O	-0.677284	0.012846	0.076112
O6	O	-0.177284	0.512846	0.576112
O7	O	-0.668174	-0.229288	0.076132
O8	O	-0.168174	0.270712	0.576132
O9	O	-0.677273	0.012838	-0.076369
O10	O	-0.177273	0.512838	0.423631
O11	O	-0.589813	-0.115530	-0.076343
O12	O	-0.089813	0.384470	0.423657
O13	O	-0.755623	-0.100927	-0.076375
O14	O	-0.255623	0.399073	0.423625
Cu15	Cu	-0.672717	-0.108230	-0.090281
Cu16	Cu	-0.172717	0.391770	0.409719
Cu17	Cu	-0.672730	-0.108221	0.090045
Cu18	Cu	-0.172730	0.391779	0.590045
O19	O	-0.668163	-0.229296	-0.076348
O20	O	-0.168163	0.270704	0.423652
C21	C	-0.568601	-0.115155	-0.000098
C22	C	-0.068601	0.384845	0.499902
C23	C	-0.505380	-0.114037	-0.000086
C24	C	-0.005380	0.385963	0.499914
C25	C	-0.106531	-0.182990	-0.000110
C26	C	0.393469	0.317010	0.499890
C27	C	-0.047127	-0.181951	-0.000114
C28	C	0.452873	0.318049	0.499886
O29	O	-0.010619	-0.245872	-0.000140
O30	O	0.489381	0.254128	0.499860
N31	N	-0.024220	-0.105636	-0.000118
N32	N	0.475780	0.394364	0.499882
C33	C	-0.060719	-0.030355	-0.000127
C34	C	0.439281	0.469645	0.499873
O35	O	-0.035780	0.034652	-0.000132
O36	O	0.464220	0.534652	0.499868
C37	C	-0.120122	-0.031395	-0.000130
C38	C	0.379878	0.468605	0.499870
C39	C	-0.143027	-0.107715	-0.000117
C40	C	0.356973	0.392285	0.499883
C41	C	-0.129436	-0.259304	-0.000097
C42	C	0.370564	0.240696	0.499903
C43	C	-0.188836	-0.260342	-0.000092
C44	C	0.311164	0.239658	0.499908
C45	C	-0.225331	-0.185066	-0.000099
C46	C	0.274669	0.314934	0.499901
C47	C	-0.202427	-0.108753	-0.000111
C48	C	0.297573	0.391247	0.499889
C49	C	-0.156621	0.043886	-0.000146
C50	C	0.343379	0.543886	0.499854
C51	C	-0.216027	0.042840	-0.000150
C52	C	0.283973	0.542840	0.499850
C53	C	-0.238932	-0.033480	-0.000136
C54	C	0.261068	0.466520	0.499864
C55	C	-0.298322	-0.034516	-0.000112
C56	C	0.201678	0.465484	0.499888
N57	N	-0.321229	-0.110831	-0.000108
N58	N	0.178771	0.389169	0.499892
C59	C	-0.284734	-0.186106	-0.000101
C60	C	0.215266	0.313894	0.499899
C61	C	0.064031	-0.028178	-0.000123
C62	C	0.564031	0.471822	0.499877
C63	C	0.123433	-0.027138	-0.000114
C64	C	0.623433	0.472862	0.499886
C65	C	0.137021	-0.178734	-0.000102
C66	C	0.637021	0.321266	0.499898
C67	C	0.077618	-0.179774	-0.000105
C68	C	0.577618	0.320226	0.499895
C69	C	0.041123	-0.104493	-0.000119
C70	C	0.541123	0.395507	0.499881
C71	C	-0.409479	-0.188281	-0.000089
C72	C	0.090521	0.311719	0.499911
C73	C	-0.468885	-0.189312	-0.000079
C74	C	0.031115	0.310688	0.499921
C75	C	-0.482468	-0.037716	-0.000096
C76	C	0.017532	0.462284	0.499904
C77	C	-0.423067	-0.036684	-0.000101
C78	C	0.076933	0.463316	0.499899
C79	C	-0.386574	-0.111973	-0.000100
C80	C	0.113426	0.388027	0.499900
O81	O	-0.334865	0.029371	-0.000089
O82	O	0.165135	0.529371	0.499911
O83	O	-0.309682	-0.251102	-0.000109
O84	O	0.190318	0.248898	0.499891
C85	C	0.223154	-0.101295	-0.000129
C86	C	0.723154	0.398705	0.499871
C87	C	0.159933	-0.102414	-0.000112
C88	C	0.659933	0.397586	0.499888
C89	C	-0.676909	0.043814	-0.000129
C90	C	-0.176909	0.543814	0.499871
C91	C	-0.675803	0.136100	-0.000130
C92	C	-0.175803	0.636100	0.499870
C93	C	-0.668537	-0.260264	-0.000106
C94	C	-0.168537	0.239736	0.499894
C95	C	-0.669644	-0.352550	-0.000099
C96	C	-0.169644	0.147450	0.499901
N97	N	-0.672712	-0.108235	-0.217113
N98	N	-0.172712	0.391765	0.282887
C99	C	-0.725127	0.358761	-0.000125
C100	C	-0.225127	0.858761	0.499875
C101	C	-0.724083	0.445473	-0.000117
C102	C	-0.224083	0.945473	0.499883
C103	C	-0.620315	0.424782	-0.000101
C104	C	-0.120315	0.924782	0.499899
C105	C	-0.621360	0.338072	-0.000102
C106	C	-0.121360	0.838072	0.499898
C107	C	-0.673768	0.305064	-0.000119
C108	C	-0.173768	0.805064	0.499881
C109	C	-0.671679	0.478486	-0.000110
C110	C	-0.171679	0.978486	0.499890
C111	C	-0.670547	0.572503	-0.000101
C112	C	-0.170547	1.072503	0.499899
C113	C	-0.674900	0.211040	-0.000125
C114	C	-0.174900	0.711040	0.499875
C115	C	-0.707251	-0.158392	-0.452122
C116	C	-0.207251	0.341608	0.047878
C117	C	-0.707257	-0.158387	-0.548103
C118	C	-0.207257	0.341613	-0.048103
C119	C	-0.638198	-0.058045	-0.548108
C120	C	-0.138198	0.441955	-0.048108
C121	C	-0.638196	-0.058047	-0.452128
C122	C	-0.138196	0.441953	0.047872
C123	C	-0.672721	-0.108226	-0.404138
C124	C	-0.172721	0.391774	0.095862
C125	C	-0.672730	-0.108218	-0.596099
C126	C	-0.172730	0.391782	-0.096099
C127	C	-0.672736	-0.108211	-0.700166
C128	C	-0.172736	0.391789	-0.200166
C129	C	-0.672716	-0.108231	-0.300064
C130	C	-0.172716	0.391769	0.199936
N131	N	-0.672739	-0.108208	0.216877
N132	N	-0.172739	0.391792	0.716877
H133	H	-0.379772	-0.249588	-0.000091
H134	H	0.120228	0.250412	0.499909
F135	F	-0.778748	0.502618	-0.000122
F136	F	-0.278748	1.002618	0.499878
H137	H	-0.207479	-0.322489	-0.000080
H138	H	0.292521	0.177511	0.499920
F139	F	-0.601442	-0.004651	-0.401057
F140	F	-0.101442	0.495349	0.098943
H141	H	0.166747	-0.240028	-0.000101
H142	H	0.666747	0.259972	0.499899
H143	H	-0.245739	0.104144	-0.000162
H144	H	0.254261	0.604144	0.499838
H145	H	-0.099727	-0.320606	-0.000095
H146	H	0.400273	0.179394	0.499905
F147	F	-0.493257	-0.270546	-0.000062
F148	F	0.006743	0.229454	0.499938
F149	F	-0.564543	0.459920	-0.000082
F150	F	-0.064543	0.959920	0.499918
H151	H	-0.735376	-0.199236	-0.587168
H152	H	-0.235376	0.300764	-0.087168
F153	F	-0.744000	-0.211792	-0.401050
F154	F	-0.244000	0.288208	0.098950
H155	H	-0.610088	-0.017193	-0.587193
H156	H	-0.110088	0.482807	-0.087193
H157	H	-0.579534	0.294349	-0.000094
H158	H	-0.079534	0.794349	0.499906
F159	F	0.053247	-0.261003	-0.000092
F160	F	0.553247	0.238997	0.499908
H161	H	-0.767801	0.331888	-0.000137
H162	H	-0.267801	0.831888	0.499863
H163	H	-0.404418	0.025462	-0.000098
H164	H	0.095582	0.525462	0.499902
F165	F	-0.132258	0.125117	-0.000148
F166	F	0.367742	0.625117	0.499852
H167	H	0.142076	0.035010	-0.000111
H168	H	0.642076	0.535010	0.499889
F169	F	-0.521319	0.042393	-0.000105
F170	F	-0.021319	0.542393	0.499895
F171	F	0.025195	0.051952	-0.000130
F172	F	0.525195	0.551952	0.499870
