data_functionalizedCrystal
_audit_creation_method	'MofGen! by Chris Wilmer'
_symmetry_space_group_name_H-M	'P1'
_symmetry_Int_Tables_number	1
_symmetry_cell_setting	triclinic
loop_
_symmetry_equiv_pos_as_xyz
  x,y,z
_cell_length_a	42.795305
_cell_length_b	42.779646
_cell_length_c	42.778257
_cell_angle_alpha	60.007076
_cell_angle_beta	60.002065
_cell_angle_gamma	59.987915
loop_
_atom_site_label
_atom_site_type_symbol
_atom_site_fract_x
_atom_site_fract_y
_atom_site_fract_z
O1	O	-0.266278	-0.214465	-0.009300
O2	O	-0.220851	-0.168999	0.009253
O3	O	-0.220846	-0.169012	-0.054752
O4	O	-0.266283	-0.214452	0.054705
O5	O	-0.168862	-0.221009	-0.054752
O6	O	-0.168867	-0.220996	0.009253
O7	O	-0.214294	-0.266462	-0.009300
Zn8	Zn	-0.183327	-0.251985	-0.000023
Zn9	Zn	-0.251818	-0.183476	-0.000024
O10	O	-0.214299	-0.266449	0.054705
C11	C	-0.079110	-0.022778	0.028113
C12	C	-0.041498	-0.041765	0.028377
C13	C	-0.079097	-0.079391	0.028117
C14	C	-0.041486	-0.098292	0.028380
C15	C	-0.022511	-0.079390	0.028113
C16	C	-0.097998	-0.041766	0.028380
C17	C	-0.170798	0.113740	0.017864
C18	C	-0.188743	0.152401	0.014966
C19	C	-0.169412	0.171795	0.013509
C20	C	-0.188864	0.213716	0.010360
C21	C	-0.132136	0.152526	0.014954
C22	C	-0.114196	0.113867	0.017858
C23	C	-0.133529	0.094474	0.019313
C24	C	0.113953	-0.113961	0.017860
C25	C	0.152600	-0.131780	0.014961
C26	C	0.171995	-0.169063	0.013506
C27	C	0.213899	-0.188385	0.010358
C28	C	0.152738	-0.188529	0.014955
C29	C	0.114091	-0.170713	0.017860
C30	C	0.094701	-0.133425	0.019310
C31	C	-0.170748	-0.113966	0.017878
C32	C	-0.188678	-0.131785	0.014977
C33	C	-0.169334	-0.169070	0.013524
C34	C	-0.188773	-0.188391	0.010378
C35	C	-0.132060	-0.188533	0.014967
C36	C	-0.114131	-0.170712	0.017866
C37	C	-0.133480	-0.133429	0.019324
C38	C	-0.114072	0.052555	0.022457
C39	C	-0.098564	0.019141	0.024965
C40	C	-0.098537	-0.098711	0.024972
C41	C	-0.114034	-0.114111	0.022467
C42	C	0.019393	-0.098709	0.024965
C43	C	0.052795	-0.114108	0.022457
C44	C	-0.022742	-0.079233	-0.361622
C45	C	-0.041729	-0.041613	-0.380519
C46	C	-0.079330	-0.079221	-0.305021
C47	C	-0.098230	-0.041601	-0.324004
C48	C	-0.079341	-0.022621	-0.361621
C49	C	-0.041718	-0.098127	-0.324005
C50	C	0.113736	-0.170941	-0.396185
C51	C	0.152383	-0.188889	-0.414001
C52	C	0.171765	-0.169552	-0.451277
C53	C	0.213672	-0.189008	-0.470593
C54	C	0.152496	-0.132268	-0.470738
C55	C	0.113850	-0.114324	-0.452924
C56	C	0.094470	-0.133663	-0.415646
C57	C	-0.113923	0.113879	-0.453302
C58	C	-0.131742	0.152536	-0.471242
C59	C	-0.169012	0.171936	-0.451903
C60	C	-0.188334	0.213851	-0.471349
C61	C	-0.188465	0.152674	-0.414621
C62	C	-0.170650	0.114016	-0.396685
C63	C	-0.133374	0.094622	-0.416029
C64	C	-0.113867	-0.170894	-0.168529
C65	C	-0.131672	-0.188829	-0.129874
C66	C	-0.168944	-0.169480	-0.110483
C67	C	-0.188252	-0.188923	-0.068571
C68	C	-0.188407	-0.132197	-0.129748
C69	C	-0.170599	-0.114264	-0.168401
C70	C	-0.133329	-0.133617	-0.187790
C71	C	0.052565	-0.114202	-0.396332
C72	C	0.019163	-0.098691	-0.380936
C73	C	-0.098636	-0.098666	-0.263110
C74	C	-0.114025	-0.114167	-0.229703
C75	C	-0.098659	0.019294	-0.381071
C76	C	-0.114058	0.052705	-0.396575
C77	C	-0.356022	-0.412672	-0.028194
C78	C	-0.337135	-0.393685	-0.028457
C79	C	-0.412620	-0.356060	-0.028195
C80	C	-0.393647	-0.337159	-0.028457
C81	C	-0.356037	-0.356061	-0.028191
C82	C	-0.393632	-0.393684	-0.028460
C83	C	-0.321434	-0.549189	-0.017952
C84	C	-0.303614	-0.587849	-0.015055
C85	C	-0.266344	-0.607243	-0.013600
C86	C	-0.247023	-0.649163	-0.010452
C87	C	-0.246894	-0.587974	-0.015044
C88	C	-0.264712	-0.549315	-0.017945
C89	C	-0.301984	-0.529922	-0.019399
C90	C	-0.264392	-0.321491	-0.017937
C91	C	-0.246462	-0.303672	-0.015037
C92	C	-0.265805	-0.266389	-0.013580
C93	C	-0.246370	-0.247068	-0.010431
C94	C	-0.303080	-0.246924	-0.015028
C95	C	-0.321007	-0.264740	-0.017934
C96	C	-0.301659	-0.302027	-0.019386
C97	C	-0.549081	-0.321486	-0.017953
C98	C	-0.587729	-0.303668	-0.015052
C99	C	-0.607123	-0.266384	-0.013596
C100	C	-0.649028	-0.247063	-0.010449
C101	C	-0.587869	-0.246921	-0.015039
C102	C	-0.549223	-0.264741	-0.017938
C103	C	-0.529830	-0.302024	-0.019399
C104	C	-0.321303	-0.488004	-0.022542
C105	C	-0.336702	-0.454591	-0.025048
C106	C	-0.454524	-0.336741	-0.025049
C107	C	-0.487925	-0.321341	-0.022543
C108	C	-0.336598	-0.336742	-0.025042
C109	C	-0.321102	-0.321344	-0.022533
O110	O	0.337161	-0.266456	-0.009322
O111	O	0.227723	-0.220988	0.009229
O112	O	0.291708	-0.221005	-0.054776
O113	O	0.273176	-0.266440	0.054682
O114	O	0.291697	-0.169007	-0.054779
O115	O	0.227712	-0.168991	0.009226
O116	O	0.337150	-0.214458	-0.009325
Zn117	Zn	0.282429	-0.183469	-0.000050
Zn118	Zn	0.282444	-0.251978	-0.000046
O119	O	0.273165	-0.214442	0.054679
C120	C	0.310548	-0.079233	-0.305048
C121	C	0.310804	-0.041613	-0.324034
C122	C	0.310548	-0.079249	-0.361646
C123	C	0.310804	-0.041629	-0.380546
C124	C	0.310535	-0.022635	-0.361651
C125	C	0.310816	-0.098140	-0.324029
C126	C	0.300325	-0.170897	-0.168552
C127	C	0.297432	-0.188831	-0.129899
C128	C	0.295974	-0.169481	-0.110510
C129	C	0.292831	-0.188921	-0.068598
C130	C	0.297412	-0.132196	-0.129779
C131	C	0.300309	-0.114267	-0.168431
C132	C	0.301765	-0.133619	-0.187818
C133	C	0.300261	0.113878	-0.396222
C134	C	0.297356	0.152535	-0.414039
C135	C	0.295896	0.171920	-0.451314
C136	C	0.292740	0.213835	-0.470634
C137	C	0.297345	0.152644	-0.470773
C138	C	0.300257	0.113987	-0.452959
C139	C	0.301712	0.094606	-0.415679
C140	C	0.300323	-0.170962	-0.396200
C141	C	0.297425	-0.188911	-0.414012
C142	C	0.295966	-0.169576	-0.451289
C143	C	0.292822	-0.189035	-0.470602
C144	C	0.297402	-0.132294	-0.470750
C145	C	0.300298	-0.114347	-0.452937
C146	C	0.301762	-0.133686	-0.415662
C147	C	0.304904	-0.114174	-0.229729
C148	C	0.307407	-0.098675	-0.263136
C149	C	0.307406	-0.098709	-0.380958
C150	C	0.304902	-0.114221	-0.396352
C151	C	0.307380	0.019279	-0.380967
C152	C	0.304866	0.052690	-0.396365
O153	O	-0.220954	0.291538	-0.054774
O154	O	-0.266391	0.273015	0.054684
O155	O	-0.266405	0.337014	-0.009320
O156	O	-0.220939	0.227539	0.009230
O157	O	-0.214432	0.337014	-0.009323
O158	O	-0.214418	0.273015	0.054681
O159	O	-0.168981	0.291538	-0.054777
Zn160	Zn	-0.183448	0.282277	-0.000049
Zn161	Zn	-0.251924	0.282276	-0.000044
O162	O	-0.168967	0.227539	0.009227
O163	O	-0.266394	0.337146	-0.496893
O164	O	-0.220925	0.227678	-0.451442
O165	O	-0.220943	0.291692	-0.451437
O166	O	-0.266376	0.273133	-0.496897
O167	O	-0.168969	0.291682	-0.503424
O168	O	-0.168951	0.227669	-0.503429
O169	O	-0.214420	0.337137	-0.548880
Zn170	Zn	-0.183434	0.282401	-0.534408
Zn171	Zn	-0.251911	0.282414	-0.465913
O172	O	-0.214402	0.273123	-0.548884
C173	C	-0.356181	0.254199	0.304953
C174	C	-0.393788	0.253940	0.323939
C175	C	-0.356179	0.254214	0.361552
C176	C	-0.393786	0.253955	0.380452
C177	C	-0.412766	0.254214	0.361557
C178	C	-0.337287	0.253940	0.323934
C179	C	-0.264528	0.264413	0.168457
C180	C	-0.246594	0.267301	0.129804
C181	C	-0.265931	0.268750	0.110416
C182	C	-0.246490	0.271888	0.068503
C183	C	-0.303202	0.267309	0.129685
C184	C	-0.321132	0.264416	0.168337
C185	C	-0.301793	0.262968	0.187723
C186	C	-0.549226	0.264472	0.396129
C187	C	-0.587870	0.267374	0.413947
C188	C	-0.607256	0.268840	0.451222
C189	C	-0.649156	0.271993	0.470542
C190	C	-0.587993	0.267399	0.470681
C191	C	-0.549349	0.264490	0.452867
C192	C	-0.529968	0.263029	0.415587
C193	C	-0.264520	0.264474	0.396104
C194	C	-0.246585	0.267381	0.413916
C195	C	-0.265920	0.268846	0.451192
C196	C	-0.246476	0.272000	0.470506
C197	C	-0.303190	0.267406	0.470655
C198	C	-0.321123	0.264500	0.452842
C199	C	-0.301783	0.263030	0.415567
C200	C	-0.321239	0.259835	0.229634
C201	C	-0.336738	0.257336	0.263042
C202	C	-0.336734	0.257367	0.380863
C203	C	-0.321233	0.259879	0.396257
C204	C	-0.454667	0.257366	0.380874
C205	C	-0.488066	0.259878	0.396271
C206	C	-0.356046	-0.412597	0.361574
C207	C	-0.393658	-0.393606	0.380472
C208	C	-0.356058	-0.355997	0.304974
C209	C	-0.393670	-0.337092	0.323959
C210	C	-0.412645	-0.355986	0.361575
C211	C	-0.337157	-0.393617	0.323957
C212	C	-0.264356	-0.549109	0.396134
C213	C	-0.246412	-0.587767	0.413948
C214	C	-0.265744	-0.607153	0.451224
C215	C	-0.246291	-0.649070	0.470539
C216	C	-0.303020	-0.587879	0.470686
C217	C	-0.320960	-0.549224	0.452874
C218	C	-0.301627	-0.529839	0.415596
C219	C	-0.549111	-0.321398	0.453259
C220	C	-0.587759	-0.303576	0.471200
C221	C	-0.607154	-0.266298	0.451862
C222	C	-0.649059	-0.246972	0.471309
C223	C	-0.587896	-0.246840	0.414580
C224	C	-0.549249	-0.264659	0.396642
C225	C	-0.529859	-0.301942	0.415986
C226	C	-0.264404	-0.321454	0.168481
C227	C	-0.246473	-0.303645	0.129826
C228	C	-0.265817	-0.266365	0.110436
C229	C	-0.246377	-0.247054	0.068524
C230	C	-0.303092	-0.246898	0.129702
C231	C	-0.321021	-0.264709	0.168355
C232	C	-0.301673	-0.301987	0.187743
C233	C	-0.321084	-0.487923	0.396282
C234	C	-0.336592	-0.454513	0.380887
C235	C	-0.336617	-0.336687	0.263063
C236	C	-0.321119	-0.321295	0.229656
C237	C	-0.454550	-0.336664	0.381026
C238	C	-0.487952	-0.321262	0.396531
O239	O	0.336924	-0.214581	-0.548641
O240	O	0.227485	-0.169106	-0.503189
O241	O	0.291468	-0.169107	-0.503185
O242	O	0.272941	-0.214579	-0.548645
O243	O	0.291477	-0.221093	-0.451199
O244	O	0.227494	-0.221091	-0.451203
O245	O	0.336933	-0.266566	-0.496655
Zn246	Zn	0.282215	-0.252082	-0.465675
Zn247	Zn	0.282203	-0.183589	-0.534169
O248	O	0.272950	-0.266564	-0.496659
C249	C	0.254325	-0.356207	0.361551
C250	C	0.254069	-0.393828	0.380450
C251	C	0.254325	-0.356221	0.304951
C252	C	0.254069	-0.393842	0.323936
C253	C	0.254338	-0.412820	0.361553
C254	C	0.254057	-0.337315	0.323934
C255	C	0.264550	-0.264497	0.396110
C256	C	0.267443	-0.246549	0.413924
C257	C	0.268901	-0.265884	0.451201
C258	C	0.272045	-0.246427	0.470516
C259	C	0.267464	-0.303169	0.470663
C260	C	0.264566	-0.321113	0.452850
C261	C	0.263109	-0.301775	0.415572
C262	C	0.264613	-0.549318	0.453238
C263	C	0.267518	-0.587975	0.471180
C264	C	0.268978	-0.607376	0.451841
C265	C	0.272133	-0.649291	0.471289
C266	C	0.267528	-0.588115	0.414560
C267	C	0.264616	-0.549458	0.396621
C268	C	0.263161	-0.530062	0.415965
C269	C	0.264548	-0.264553	0.168457
C270	C	0.267446	-0.246620	0.129802
C271	C	0.268904	-0.265969	0.110412
C272	C	0.272047	-0.246528	0.068499
C273	C	0.267468	-0.303252	0.129678
C274	C	0.264572	-0.321184	0.168331
C275	C	0.263109	-0.301830	0.187719
C276	C	0.259971	-0.321237	0.396259
C277	C	0.257467	-0.336749	0.380864
C278	C	0.257466	-0.336778	0.263040
C279	C	0.259969	-0.321278	0.229632
C280	C	0.257493	-0.454735	0.381003
C281	C	0.260007	-0.488145	0.396509
O282	O	0.273028	0.337119	-0.548684
O283	O	0.291606	0.227650	-0.503229
O284	O	0.227602	0.291660	-0.503224
O285	O	0.337032	0.273109	-0.548690
O286	O	0.227604	0.291674	-0.451240
O287	O	0.291608	0.227664	-0.451245
O288	O	0.273030	0.337134	-0.496700
Zn289	Zn	0.282319	0.282401	-0.465719
Zn290	Zn	0.282317	0.282382	-0.534211
O291	O	0.337033	0.273124	-0.496706
C292	C	-0.079174	0.310305	-0.361636
C293	C	-0.041566	0.310562	-0.380535
C294	C	-0.079176	0.310326	-0.305039
C295	C	-0.041568	0.310583	-0.324024
C296	C	-0.022588	0.310305	-0.361639
C297	C	-0.098068	0.310584	-0.324020
C298	C	-0.170831	0.300042	-0.396190
C299	C	-0.188766	0.297138	-0.414002
C300	C	-0.169429	0.295669	-0.451277
C301	C	-0.188871	0.292512	-0.470590
C302	C	-0.132157	0.297108	-0.470740
C303	C	-0.114227	0.300018	-0.452929
C304	C	-0.133565	0.301485	-0.415652
C305	C	0.113874	0.300020	-0.453323
C306	C	0.152518	0.297116	-0.471264
C307	C	0.171905	0.295666	-0.451927
C308	C	0.213806	0.292511	-0.471374
C309	C	0.152642	0.297127	-0.414647
C310	C	0.113998	0.300038	-0.396709
C311	C	0.094616	0.301483	-0.416051
C312	C	-0.170836	0.300128	-0.168548
C313	C	-0.188771	0.297240	-0.129894
C314	C	-0.169436	0.295792	-0.110505
C315	C	-0.188880	0.292658	-0.068594
C316	C	-0.132165	0.297230	-0.129771
C317	C	-0.114232	0.300116	-0.168424
C318	C	-0.133572	0.301569	-0.187810
C319	C	-0.114118	0.304636	-0.396341
C320	C	-0.098618	0.307150	-0.380948
C321	C	-0.098621	0.307194	-0.263129
C322	C	-0.114122	0.304699	-0.229722
C323	C	0.019313	0.307150	-0.381090
C324	C	0.052713	0.304636	-0.396595
H325	H	-0.116400	0.168320	0.013770
H326	H	0.311234	-0.026368	-0.308795
Cl327	Cl	-0.067273	-0.195182	0.019681
H328	H	-0.083847	0.098180	0.019036
H329	H	0.311223	-0.026394	-0.411454
H330	H	-0.248873	-0.533629	-0.019122
Cl331	Cl	-0.367880	-0.240233	0.192572
Cl332	Cl	-0.612082	0.269189	0.389483
Cl333	Cl	-0.067375	0.301829	-0.477396
Cl334	Cl	0.089579	-0.067086	0.019679
Cl335	Cl	-0.289578	0.253266	0.300405
H336	H	-0.408913	-0.306181	0.308716
Cl337	Cl	-0.240069	-0.368362	-0.019765
Cl338	Cl	0.262757	-0.367980	0.477317
H339	H	0.301468	-0.083991	-0.468787
H340	H	0.168276	-0.115928	0.013781
Cl341	Cl	-0.017979	-0.018230	0.029034
Cl342	Cl	0.089785	0.301876	-0.349847
H343	H	-0.408864	-0.408931	-0.028884
Cl344	Cl	0.262767	-0.368053	0.192548
Cl345	Cl	-0.235258	-0.107865	-0.105368
Cl346	Cl	0.262778	-0.524935	0.477556
Cl347	Cl	-0.525042	-0.240198	0.349779
H348	H	-0.408894	-0.306246	-0.028879
H349	H	-0.603435	-0.319421	0.501554
Cl350	Cl	0.302083	0.089757	-0.477423
Cl351	Cl	0.089510	0.301837	-0.477637
H352	H	-0.408888	-0.408843	0.411383
Cl353	Cl	0.262791	-0.525247	0.349758
H354	H	-0.216240	0.268556	0.398065
H355	H	0.268655	-0.319008	0.113888
Cl356	Cl	0.295581	-0.107873	-0.105406
H357	H	-0.318828	-0.216565	-0.013846
Cl358	Cl	0.295624	-0.235698	-0.105679
H359	H	0.296176	0.168226	-0.398193
Cl360	Cl	-0.240208	0.262630	0.349244
Cl361	Cl	0.269253	-0.199682	0.389456
H362	H	-0.116421	0.296049	-0.113983
H363	H	-0.216123	-0.319499	0.114142
H364	H	0.253647	-0.409088	0.308694
Cl365	Cl	0.253394	-0.289594	0.300399
H366	H	-0.116309	-0.218893	0.013784
Cl367	Cl	-0.067067	0.089498	-0.477620
Cl368	Cl	-0.328067	-0.612070	-0.013237
Cl369	Cl	-0.145709	-0.018231	0.029037
H370	H	-0.248778	0.263233	0.184238
H371	H	0.168529	-0.218888	0.013775
Cl372	Cl	-0.200041	-0.612355	-0.013216
H373	H	0.296161	0.168428	-0.501126
H374	H	-0.216248	0.268473	0.114119
H375	H	0.168199	0.295926	-0.501616
H376	H	0.301448	0.098100	-0.365869
Cl377	Cl	-0.195149	0.301951	-0.192918
Cl378	Cl	0.089885	-0.195184	0.019683
H379	H	-0.115901	0.168217	-0.501595
H380	H	-0.129132	-0.026353	-0.308760
Cl381	Cl	-0.235321	0.177058	-0.390309
Cl382	Cl	0.295563	-0.107984	-0.517612
Cl383	Cl	0.269253	-0.199752	0.105584
Cl384	Cl	-0.195145	0.301889	-0.349330
Cl385	Cl	-0.195071	-0.067095	0.019708
Cl386	Cl	-0.195104	0.089804	-0.349821
Cl387	Cl	-0.107204	-0.235698	-0.105658
Cl388	Cl	0.262713	-0.240224	0.192828
H389	H	0.268649	-0.318908	0.501014
Cl390	Cl	-0.018211	-0.018089	-0.428240
H391	H	-0.603687	-0.216484	0.398836
H392	H	-0.186449	-0.083907	-0.184084
H393	H	-0.026468	-0.129034	-0.308762
Cl394	Cl	-0.195105	0.089363	0.019696
Cl395	Cl	-0.235600	0.176622	0.013147
H396	H	-0.351781	-0.533402	-0.019137
Cl397	Cl	-0.235535	-0.107315	0.013161
Cl398	Cl	-0.524736	-0.368264	0.477577
H399	H	0.168427	0.295952	-0.398904
H400	H	-0.409020	0.253533	0.411361
H401	H	-0.603777	0.268588	0.501034
H402	H	0.311254	-0.129053	-0.308787
Cl403	Cl	-0.067012	-0.195223	-0.192903
Cl404	Cl	-0.611931	-0.328138	-0.013237
H405	H	-0.216115	-0.319524	-0.013854
Cl406	Cl	-0.235618	0.295326	-0.389534
Cl407	Cl	-0.327411	-0.200030	0.105328
H408	H	-0.026331	0.311012	-0.308782
Cl409	Cl	0.295617	-0.235779	-0.389543
Cl410	Cl	-0.145773	0.311244	-0.300486
Cl411	Cl	0.302157	-0.195228	-0.192921
H412	H	-0.318942	0.268487	0.113896
Cl413	Cl	-0.017947	-0.146019	0.029031
H414	H	-0.533447	0.263279	0.365776
H415	H	0.301514	-0.186712	-0.365849
H416	H	0.097959	-0.186692	-0.365833
H417	H	-0.116417	0.295914	-0.501090
Cl418	Cl	-0.417316	0.253280	0.300411
H419	H	-0.533293	-0.351845	-0.019139
Cl420	Cl	0.262717	-0.240186	0.349248
H421	H	-0.351477	0.263240	0.184023
H422	H	-0.533668	0.263315	0.468713
Cl423	Cl	-0.327319	-0.612250	0.517548
Cl424	Cl	-0.367974	0.262688	0.477311
H425	H	0.168069	-0.219245	-0.398153
Cl426	Cl	0.269356	-0.612500	0.390249
Cl427	Cl	0.176861	-0.107962	-0.517598
H428	H	0.098164	-0.083968	-0.468772
Cl429	Cl	-0.289446	-0.417158	0.300424
Cl430	Cl	-0.289421	-0.417217	-0.029123
Cl431	Cl	-0.327498	0.269247	0.517518
H432	H	-0.083884	0.301285	-0.184107
Cl433	Cl	0.269344	-0.612186	0.518043
Cl434	Cl	0.253416	-0.417352	0.428169
H435	H	-0.351355	-0.248888	-0.019113
H436	H	-0.533549	-0.248891	-0.019114
Cl437	Cl	0.302118	-0.067400	-0.192651
Cl438	Cl	-0.612250	-0.200050	-0.013208
H439	H	-0.248645	-0.351806	0.184267
H440	H	-0.026331	0.310980	-0.411443
H441	H	-0.219117	0.296067	-0.114209
Cl442	Cl	-0.240048	-0.524742	0.349273
Cl443	Cl	-0.367818	-0.524997	0.477340
Cl444	Cl	-0.199555	-0.611993	0.389480
