data_functionalizedCrystal
_audit_creation_method	'MofGen! by Chris Wilmer'
_symmetry_space_group_name_H-M	'P1'
_symmetry_Int_Tables_number	1
_symmetry_cell_setting	triclinic
loop_
_symmetry_equiv_pos_as_xyz
  x,y,z
_cell_length_a	11.792241
_cell_length_b	12.837943
_cell_length_c	11.295501
_cell_angle_alpha	85.830568
_cell_angle_beta	94.573551
_cell_angle_gamma	90.488822
loop_
_atom_site_label
_atom_site_type_symbol
_atom_site_fract_x
_atom_site_fract_y
_atom_site_fract_z
O1	O	0.302728	-1.383383	0.099006
O2	O	0.288144	-1.081496	0.099012
O3	O	0.131008	-1.239765	0.099001
O4	O	0.459864	-1.225114	0.099018
O5	O	0.116007	-1.227209	-0.099051
O6	O	0.273143	-1.068940	-0.099039
O7	O	0.287726	-1.370827	-0.099046
Cu8	Cu	0.279065	-1.218737	-0.117126
Cu9	Cu	0.296806	-1.233586	0.117093
O10	O	0.444863	-1.212558	-0.099034
C11	C	0.275717	-1.036570	-0.000012
C12	C	0.261024	-0.921410	-0.000010
C13	C	0.081123	-1.232566	-0.000025
C14	C	-0.045170	-1.229812	-0.000023
N15	N	0.266587	-1.208301	-0.281862
C16	C	-0.276394	-1.224748	-0.000003
C17	C	-0.147725	-1.227561	-0.000014
C18	C	0.494748	-1.219756	-0.000006
C19	C	0.621042	-1.222512	0.000001
C20	C	0.300154	-1.415753	-0.000018
C21	C	0.314848	-1.530913	-0.000013
C22	C	0.437669	-0.681444	-0.000018
C23	C	0.423868	-0.573241	-0.000016
C24	C	0.219622	-0.596798	-0.000014
C25	C	0.233422	-0.705001	-0.000016
C26	C	0.342449	-0.747320	-0.000016
C27	C	0.356250	-0.855526	-0.000008
C28	C	0.152004	-0.879080	-0.000015
C29	C	0.138203	-0.770877	-0.000013
C30	C	0.399152	-1.319145	-0.531149
C31	C	0.389714	-1.311266	-0.655813
C32	C	0.238268	-1.184671	-0.655856
C33	C	0.247706	-1.192550	-0.531192
C34	C	0.328152	-1.259787	-0.468843
C35	C	0.337595	-1.267660	-0.344177
C36	C	0.186144	-1.141071	-0.344222
C37	C	0.176706	-1.133192	-0.468886
N38	N	0.309276	-1.244030	0.281829
H39	H	0.445025	-0.889980	-0.000010
H40	H	0.128336	-1.092733	-0.293480
H41	H	0.447529	-1.359602	-0.706538
N42	N	0.549039	-0.724663	-0.000002
N43	N	0.634050	-0.665833	0.000007
H44	H	0.712709	-0.696354	0.000018
H45	H	0.501406	-0.519607	-0.000021
N46	N	0.108269	-0.553541	-0.000027
N47	N	0.095968	-0.456929	-0.000034
H48	H	0.017325	-0.426376	-0.000043
H49	H	0.464664	-1.373882	-0.480383
N50	N	0.026848	-0.727626	-0.000022
N51	N	0.014538	-0.631016	-0.000026
H52	H	-0.064108	-0.600470	-0.000030
H53	H	0.074470	-0.932729	-0.000005
H54	H	0.403102	-1.322404	-0.293414
H55	H	0.172762	-1.129940	-0.706642
H56	H	0.111206	-1.078452	-0.519668
