data_functionalizedCrystal
_audit_creation_method	'MofGen! by Chris Wilmer'
_symmetry_space_group_name_H-M	'P1'
_symmetry_Int_Tables_number	1
_symmetry_cell_setting	triclinic
loop_
_symmetry_equiv_pos_as_xyz
  x,y,z
_cell_length_a	10.967926
_cell_length_b	11.792254
_cell_length_c	9.482944
_cell_angle_alpha	100.388683
_cell_angle_beta	88.407388
_cell_angle_gamma	84.460570
loop_
_atom_site_label
_atom_site_type_symbol
_atom_site_fract_x
_atom_site_fract_y
_atom_site_fract_z
O1	O	1.615628	0.121726	-0.283876
O2	O	2.115628	0.621726	0.216124
O3	O	1.265161	0.148552	-0.196068
O4	O	1.765161	0.648552	0.303932
O5	O	1.448890	-0.030294	-0.242111
O6	O	1.948890	0.469706	0.257889
O7	O	1.431899	0.300571	-0.237833
O8	O	1.931899	0.800571	0.262167
O9	O	1.415083	-0.061084	-0.475434
O10	O	1.915083	0.438916	0.024566
O11	O	1.231353	0.117762	-0.429392
O12	O	1.731353	0.617762	0.070608
O13	O	1.581821	0.090935	-0.517200
O14	O	2.081821	0.590935	-0.017200
Cu15	Cu	1.403500	0.101537	-0.494600
Cu16	Cu	1.903500	0.601537	0.005400
Cu17	Cu	1.443481	0.137950	-0.218668
Cu18	Cu	1.943481	0.637950	0.281332
O19	O	1.398092	0.269781	-0.471157
O20	O	1.898092	0.769781	0.028843
C21	C	1.203389	0.133531	-0.301489
C22	C	1.703389	0.633531	0.198511
C23	C	1.069698	0.134634	-0.267993
C24	C	1.569698	0.634634	0.232007
C25	C	0.992580	0.119176	-0.373928
C26	C	1.492580	0.619176	0.126072
C27	C	0.854402	0.120315	-0.339312
C28	C	1.354402	0.620315	0.160688
C29	C	1.430916	-0.087947	-0.358504
C30	C	1.930916	0.412053	0.141496
C31	C	1.427712	-0.213861	-0.357700
C32	C	1.927712	0.286139	0.142300
C33	C	1.425109	-0.316117	-0.357043
C34	C	1.925109	0.183883	0.142957
C35	C	1.421856	-0.444401	-0.356214
C36	C	1.921856	0.055599	0.143786
C37	C	1.643593	0.105956	-0.411776
C38	C	2.143593	0.605956	0.088224
C39	C	1.777286	0.104855	-0.445262
C40	C	2.277286	0.604855	0.054738
C41	C	1.416066	0.327434	-0.354761
C42	C	1.916066	0.827434	0.145239
C43	C	1.419272	0.453350	-0.355555
C44	C	1.919272	0.953350	0.144445
N45	N	1.375389	0.075925	-0.688678
N46	N	1.875389	0.575925	-0.188678
C47	C	1.411810	0.109083	-0.937415
C48	C	1.911810	0.609083	-0.437415
C49	C	1.435190	0.130403	-0.775854
C50	C	1.935190	0.630403	-0.275854
N51	N	1.471603	0.163553	-0.024592
N52	N	1.971603	0.663553	0.475408
H53	H	0.813553	0.090771	-0.561593
H54	H	1.313553	0.590771	-0.061593
H55	H	1.033424	0.148709	-0.151671
H56	H	1.533424	0.648709	0.348329
H57	H	1.503697	0.192821	-0.730889
H58	H	2.003697	0.692821	-0.230889
H59	H	1.343317	0.046660	-0.982389
H60	H	1.843317	0.546660	-0.482389
H61	H	1.028855	0.105091	-0.490251
H62	H	1.528855	0.605091	0.009749
Cl63	Cl	1.577370	0.259917	-0.955172
Cl64	Cl	2.077370	0.759917	-0.455172
H65	H	1.306886	0.013502	-0.733643
H66	H	1.806886	0.513502	-0.233643
H67	H	0.818135	0.134391	-0.222981
H68	H	1.318135	0.634391	0.277019
