data_functionalizedCrystal
_audit_creation_method	'MofGen! by Chris Wilmer'
_symmetry_space_group_name_H-M	'P1'
_symmetry_Int_Tables_number	1
_symmetry_cell_setting	triclinic
loop_
_symmetry_equiv_pos_as_xyz
  x,y,z
_cell_length_a	29.839131
_cell_length_b	29.839135
_cell_length_c	29.839125
_cell_angle_alpha	90.015751
_cell_angle_beta	89.982291
_cell_angle_gamma	89.956753
loop_
_atom_site_label
_atom_site_type_symbol
_atom_site_fract_x
_atom_site_fract_y
_atom_site_fract_z
Zn1	Zn	-0.178894	-0.686720	-0.254050
Zn2	Zn	0.154439	-0.353386	0.079283
Zn3	Zn	0.487772	-0.020053	0.412616
Zn4	Zn	-0.254006	-0.686652	-0.178920
Zn5	Zn	0.079327	-0.353318	0.154413
Zn6	Zn	0.412660	-0.019985	0.487746
Zn7	Zn	-0.178894	-0.611602	-0.178928
Zn8	Zn	0.154440	-0.278269	0.154405
Zn9	Zn	0.487773	0.055064	0.487739
Zn10	Zn	-0.254001	-0.611550	-0.254017
Zn11	Zn	0.079333	-0.278217	0.079316
Zn12	Zn	0.412666	0.055117	0.412650
O13	O	-0.216449	-0.649131	-0.216479
O14	O	0.116885	-0.315798	0.116854
O15	O	0.450218	0.017536	0.450188
O16	O	-0.188861	-0.749578	-0.244095
O17	O	0.144472	-0.416244	0.089238
O18	O	0.477806	-0.082911	0.422572
O19	O	-0.244045	-0.676690	-0.116054
O20	O	0.089289	-0.343356	0.217279
O21	O	0.422622	-0.010023	0.550612
O22	O	-0.116027	-0.621617	-0.188911
O23	O	0.217307	-0.288284	0.144423
O24	O	0.550640	0.045050	0.477756
O25	O	-0.244045	-0.749528	-0.188897
O26	O	0.089288	-0.416195	0.144436
O27	O	0.422621	-0.082861	0.477769
O28	O	-0.116027	-0.676805	-0.244103
O29	O	0.217306	-0.343472	0.089231
O30	O	0.550639	-0.010139	0.422564
O31	O	-0.188860	-0.621551	-0.116060
O32	O	0.144474	-0.288218	0.217273
O33	O	0.477807	0.045115	0.550607
O34	O	-0.188854	-0.548728	-0.188878
O35	O	0.144479	-0.215395	0.144455
O36	O	0.477813	0.117938	0.477789
O37	O	-0.244035	-0.621528	-0.316888
O38	O	0.089298	-0.288195	0.016445
O39	O	0.422631	0.045139	0.349778
O40	O	-0.244035	-0.548690	-0.244045
O41	O	0.089299	-0.215357	0.089288
O42	O	0.422632	0.117977	0.422621
O43	O	-0.188855	-0.676755	-0.316913
O44	O	0.144478	-0.343421	0.016420
O45	O	0.477811	-0.010088	0.349754
O46	O	-0.316873	-0.676639	-0.188865
O47	O	0.016461	-0.343306	0.144469
O48	O	0.349794	-0.009972	0.477802
O49	O	-0.316868	-0.621462	-0.244038
O50	O	0.016465	-0.288129	0.089295
O51	O	0.349798	0.045204	0.422629
C52	C	-0.216444	-0.532408	-0.216459
C53	C	0.116889	-0.199075	0.116874
C54	C	0.450223	0.134258	0.450207
C55	C	-0.216453	-0.482474	-0.216461
C56	C	0.116881	-0.149141	0.116872
C57	C	0.450214	0.184193	0.450205
C58	C	-0.187752	-0.172854	-0.245261
C59	C	0.145581	0.160480	0.088073
C60	C	0.478915	0.493813	0.421406
C61	C	-0.187753	0.014819	-0.245272
C62	C	0.145581	0.348153	0.088061
C63	C	0.478914	0.681486	0.421394
O64	O	-0.163343	0.039065	-0.269738
O65	O	0.169990	0.372398	0.063595
O66	O	0.503324	0.705731	0.396928
N67	N	-0.216441	0.038311	-0.216492
N68	N	0.116893	0.371644	0.116841
N69	N	0.450226	0.704978	0.450174
C70	C	-0.245129	0.014882	-0.187705
C71	C	0.088205	0.348215	0.145628
C72	C	0.421538	0.681548	0.478962
O73	O	-0.269526	0.039169	-0.163223
O74	O	0.063807	0.372502	0.170111
O75	O	0.397140	0.705836	0.503444
C76	C	-0.245125	-0.172791	-0.187691
C77	C	0.088208	0.160543	0.145642
C78	C	0.421541	0.493876	0.478976
C79	C	-0.216439	-0.196280	-0.216476
C80	C	0.116895	0.137054	0.116857
C81	C	0.450228	0.470387	0.450190
C82	C	-0.159067	-0.196343	-0.274043
C83	C	0.174266	0.136991	0.059290
C84	C	0.507600	0.470324	0.392624
C85	C	-0.159069	-0.243258	-0.274042
C86	C	0.174264	0.090075	0.059292
C87	C	0.507598	0.423408	0.392625
C88	C	-0.187756	-0.266684	-0.245257
C89	C	0.145578	0.066649	0.088076
C90	C	0.478911	0.399982	0.421409
C91	C	-0.216440	-0.243195	-0.216475
C92	C	0.116893	0.090138	0.116858
C93	C	0.450226	0.423471	0.450192
C94	C	-0.273811	-0.196219	-0.158902
C95	C	0.059523	0.137114	0.174431
C96	C	0.392856	0.470447	0.507765
C97	C	-0.273806	-0.243140	-0.158900
C98	C	0.059527	0.090193	0.174433
C99	C	0.392860	0.423526	0.507767
C100	C	-0.245120	-0.266630	-0.187685
C101	C	0.088214	0.066704	0.145648
C102	C	0.421547	0.400037	0.478981
C103	C	-0.245129	-0.313537	-0.187689
C104	C	0.088205	0.019796	0.145644
C105	C	0.421538	0.353130	0.478978
N106	N	-0.216441	-0.337029	-0.216469
N107	N	0.116893	-0.003695	0.116864
N108	N	0.450226	0.329638	0.450197
C109	C	-0.187754	-0.313602	-0.245254
C110	C	0.145579	0.019731	0.088080
C111	C	0.478913	0.353064	0.421413
C112	C	-0.245129	0.113412	-0.187715
C113	C	0.088204	0.446746	0.145618
C114	C	0.421538	0.780079	0.478952
C115	C	-0.245131	0.160330	-0.187719
C116	C	0.088203	0.493663	0.145615
C117	C	0.421536	0.826997	0.478948
C118	C	-0.187754	0.160265	-0.245286
C119	C	0.145579	0.493598	0.088047
C120	C	0.478913	0.826931	0.421381
C121	C	-0.187755	0.113346	-0.245284
C122	C	0.145578	0.446679	0.088049
C123	C	0.478912	0.780013	0.421383
C124	C	-0.216441	0.089921	-0.216495
C125	C	0.116892	0.423254	0.116838
C126	C	0.450226	0.756587	0.450172
C127	C	-0.187760	-0.412128	-0.245248
C128	C	0.145573	-0.078795	0.088085
C129	C	0.478906	0.254538	0.421418
C130	C	-0.187766	-0.459048	-0.245246
C131	C	0.145567	-0.125714	0.088088
C132	C	0.478901	0.207619	0.421421
C133	C	-0.245141	-0.458978	-0.187677
C134	C	0.088193	-0.125645	0.145656
C135	C	0.421526	0.207688	0.478990
C136	C	-0.245137	-0.412063	-0.187681
C137	C	0.088196	-0.078730	0.145652
C138	C	0.421530	0.254604	0.478985
C139	C	-0.216443	-0.388639	-0.216468
C140	C	0.116890	-0.055306	0.116865
C141	C	0.450224	0.278028	0.450198
O142	O	-0.269522	-0.337811	-0.163233
O143	O	0.063811	-0.004478	0.170101
O144	O	0.397145	0.328855	0.503434
O145	O	-0.163353	-0.337898	-0.269725
O146	O	0.169980	-0.004564	0.063608
O147	O	0.503314	0.328769	0.396942
C148	C	-0.187750	-0.125938	-0.245262
C149	C	0.145583	0.207395	0.088071
C150	C	0.478917	0.540729	0.421405
C151	C	-0.216435	-0.102449	-0.216479
C152	C	0.116898	0.230884	0.116854
C153	C	0.450232	0.564218	0.450187
C154	C	-0.245121	-0.125875	-0.187695
C155	C	0.088212	0.207458	0.145638
C156	C	0.421545	0.540792	0.478971
C157	C	-0.216436	-0.055531	-0.216483
C158	C	0.116897	0.277802	0.116850
C159	C	0.450230	0.611136	0.450183
C160	C	-0.187750	-0.032105	-0.245268
C161	C	0.145584	0.301229	0.088066
C162	C	0.478917	0.634562	0.421399
C163	C	-0.159062	-0.055596	-0.274048
C164	C	0.174272	0.277737	0.059286
C165	C	0.507605	0.611070	0.392619
C166	C	-0.159063	-0.102512	-0.274046
C167	C	0.174270	0.230821	0.059287
C168	C	0.507603	0.564155	0.392620
C169	C	-0.273810	-0.102384	-0.158915
C170	C	0.059524	0.230950	0.174418
C171	C	0.392857	0.564283	0.507752
C172	C	-0.273806	-0.055468	-0.158919
C173	C	0.059528	0.277865	0.174414
C174	C	0.392861	0.611199	0.507747
C175	C	-0.245119	-0.032042	-0.187704
C176	C	0.088214	0.301292	0.145630
C177	C	0.421547	0.634625	0.478963
C178	C	-0.333171	-0.649050	-0.216457
C179	C	0.000162	-0.315717	0.116877
C180	C	0.333495	0.017617	0.450210
C181	C	-0.383106	-0.649056	-0.216462
C182	C	-0.049772	-0.315723	0.116871
C183	C	0.283561	0.017610	0.450205
C184	C	-0.692739	-0.677914	-0.187792
C185	C	-0.359405	-0.344580	0.145541
C186	C	-0.026072	-0.011247	0.478874
C187	C	-0.880412	-0.677969	-0.187810
C188	C	-0.547078	-0.344636	0.145524
C189	C	-0.213745	-0.011303	0.478857
O190	O	-0.904668	-0.702441	-0.163416
O191	O	-0.571334	-0.369107	0.169917
O192	O	-0.238001	-0.035774	0.503250
N193	N	-0.903891	-0.649224	-0.216513
N194	N	-0.570557	-0.315891	0.116821
N195	N	-0.237224	0.017443	0.450154
C196	C	-0.880449	-0.620465	-0.245216
C197	C	-0.547115	-0.287132	0.088118
C198	C	-0.213782	0.046201	0.421451
O199	O	-0.904725	-0.596020	-0.269633
O200	O	-0.571392	-0.262687	0.063700
O201	O	-0.238059	0.070646	0.397034
C202	C	-0.692776	-0.620412	-0.245200
C203	C	-0.359443	-0.287079	0.088133
C204	C	-0.026110	0.046254	0.421466
C205	C	-0.669300	-0.649156	-0.216492
C206	C	-0.335967	-0.315823	0.116841
C207	C	-0.002633	0.017511	0.450175
C208	C	-0.669262	-0.706656	-0.159087
C209	C	-0.335929	-0.373322	0.174247
C210	C	-0.002596	-0.039989	0.507580
C211	C	-0.622347	-0.706640	-0.159081
C212	C	-0.289013	-0.373306	0.174252
C213	C	0.044320	-0.039973	0.507586
C214	C	-0.598908	-0.677882	-0.187781
C215	C	-0.265575	-0.344549	0.145553
C216	C	0.067759	-0.011215	0.478886
C217	C	-0.622384	-0.649140	-0.216486
C218	C	-0.289051	-0.315807	0.116847
C219	C	0.044282	0.017526	0.450180
C220	C	-0.669335	-0.591656	-0.273905
C221	C	-0.336002	-0.258323	0.059428
C222	C	-0.002669	0.075011	0.392762
C223	C	-0.622414	-0.591646	-0.273899
C224	C	-0.289081	-0.258313	0.059434
C225	C	0.044252	0.075021	0.392767
C226	C	-0.598938	-0.620390	-0.245191
C227	C	-0.265604	-0.287057	0.088142
C228	C	0.067729	0.046277	0.421475
C229	C	-0.552030	-0.620367	-0.245180
C230	C	-0.218697	-0.287033	0.088153
C231	C	0.114636	0.046300	0.421487
N232	N	-0.528551	-0.649112	-0.216477
N233	N	-0.195218	-0.315778	0.116856
N234	N	0.138115	0.017555	0.450190
C235	C	-0.551990	-0.677869	-0.187777
C236	C	-0.218657	-0.344536	0.145556
C237	C	0.114677	-0.011203	0.478889
C238	C	-0.978979	-0.620494	-0.245221
C239	C	-0.645646	-0.287161	0.088112
C240	C	-0.312313	0.046172	0.421445
C241	C	-1.025897	-0.620507	-0.245225
C242	C	-0.692564	-0.287174	0.088109
C243	C	-0.359230	0.046160	0.421442
C244	C	-1.025857	-0.678012	-0.187819
C245	C	-0.692524	-0.344678	0.145514
C246	C	-0.359190	-0.011345	0.478848
C247	C	-0.978938	-0.677997	-0.187814
C248	C	-0.645605	-0.344663	0.145520
C249	C	-0.312272	-0.011330	0.478853
C250	C	-0.955500	-0.649239	-0.216518
C251	C	-0.622167	-0.315906	0.116815
C252	C	-0.288834	0.017427	0.450149
C253	C	-0.453464	-0.677834	-0.187767
C254	C	-0.120131	-0.344500	0.145566
C255	C	0.213202	-0.011167	0.478900
C256	C	-0.406545	-0.677814	-0.187762
C257	C	-0.073211	-0.344481	0.145571
C258	C	0.260122	-0.011147	0.478904
C259	C	-0.406589	-0.620311	-0.245169
C260	C	-0.073255	-0.286978	0.088164
C261	C	0.260078	0.046356	0.421497
C262	C	-0.453504	-0.620329	-0.245173
C263	C	-0.120171	-0.286996	0.088161
C264	C	0.213162	0.046338	0.421494
C265	C	-0.476941	-0.649094	-0.216470
C266	C	-0.143608	-0.315761	0.116864
C267	C	0.189726	0.017573	0.450197
O268	O	-0.527745	-0.595912	-0.269564
O269	O	-0.194412	-0.262578	0.063769
O270	O	0.138921	0.070755	0.397102
O271	O	-0.527705	-0.702318	-0.163371
O272	O	-0.194372	-0.368984	0.169963
O273	O	0.138961	-0.035651	0.503296
C274	C	-0.739654	-0.677930	-0.187798
C275	C	-0.406321	-0.344596	0.145535
C276	C	-0.072988	-0.011263	0.478869
C277	C	-0.763131	-0.649188	-0.216504
C278	C	-0.429797	-0.315855	0.116830
C279	C	-0.096464	0.017479	0.450163
C280	C	-0.739692	-0.620430	-0.245203
C281	C	-0.406359	-0.287097	0.088130
C282	C	-0.073025	0.046236	0.421463
C283	C	-0.810049	-0.649200	-0.216507
C284	C	-0.476715	-0.315867	0.116826
C285	C	-0.143382	0.017466	0.450160
C286	C	-0.833487	-0.677958	-0.187807
C287	C	-0.500154	-0.344625	0.145526
C288	C	-0.166821	-0.011291	0.478859
C289	C	-0.810009	-0.706703	-0.159104
C290	C	-0.476675	-0.373370	0.174229
C291	C	-0.143342	-0.040037	0.507563
C292	C	-0.763093	-0.706687	-0.159098
C293	C	-0.429760	-0.373354	0.174235
C294	C	-0.096426	-0.040021	0.507568
C295	C	-0.763171	-0.591685	-0.273906
C296	C	-0.429838	-0.258352	0.059427
C297	C	-0.096504	0.074982	0.392760
C298	C	-0.810086	-0.591703	-0.273910
C299	C	-0.476753	-0.258370	0.059424
C300	C	-0.143420	0.074964	0.392757
C301	C	-0.833525	-0.620461	-0.245210
C302	C	-0.500192	-0.287127	0.088124
C303	C	-0.166859	0.046206	0.421457
C304	C	-0.099270	-0.649225	-0.216511
C305	C	0.234063	-0.315891	0.116822
C306	C	0.567396	0.017442	0.450156
C307	C	-0.049336	-0.649265	-0.216525
C308	C	0.283997	-0.315931	0.116808
C309	C	0.617331	0.017402	0.450142
C310	C	-0.216445	-0.649143	-0.333657
C311	C	0.116889	-0.315810	-0.000324
C312	C	0.450222	0.017524	0.333009
C313	C	-0.216443	-0.649148	-0.383592
C314	C	0.116890	-0.315815	-0.050258
C315	C	0.450224	0.017518	0.283075
C316	C	-0.216451	0.233691	-0.216498
C317	C	0.116882	0.567024	0.116835
C318	C	0.450216	0.900357	0.450169
C319	C	-0.216444	0.183756	-0.216503
C320	C	0.116889	0.517090	0.116830
C321	C	0.450223	0.850423	0.450164
C322	C	-0.187635	-0.677935	-0.693251
C323	C	0.145698	-0.344602	-0.359918
C324	C	0.479031	-0.011268	-0.026584
C325	C	-0.187597	-0.677957	-0.880924
C326	C	0.145736	-0.344624	-0.547591
C327	C	0.479069	-0.011291	-0.214258
O328	O	-0.163147	-0.702400	-0.905203
O329	O	0.170187	-0.369066	-0.571869
O330	O	0.503520	-0.035733	-0.238536
N331	N	-0.216323	-0.649208	-0.904377
N332	N	0.117011	-0.315875	-0.571044
N333	N	0.450344	0.017459	-0.237710
C334	C	-0.245058	-0.620449	-0.880909
C335	C	0.088276	-0.287115	-0.547575
C336	C	0.421609	0.046218	-0.214242
O337	O	-0.269486	-0.595993	-0.905163
O338	O	0.063847	-0.262659	-0.571830
O339	O	0.397180	0.070674	-0.238496
C340	C	-0.245093	-0.620425	-0.693236
C341	C	0.088240	-0.287091	-0.359903
C342	C	0.421573	0.046242	-0.026570
C343	C	-0.216369	-0.649179	-0.669786
C344	C	0.116964	-0.315846	-0.336453
C345	C	0.450297	0.017488	-0.003119
C346	C	-0.158913	-0.706687	-0.669801
C347	C	0.174420	-0.373354	-0.336467
C348	C	0.507753	-0.040020	-0.003134
C349	C	-0.158925	-0.706683	-0.622885
C350	C	0.174408	-0.373350	-0.289552
C351	C	0.507742	-0.040016	0.043781
C352	C	-0.187659	-0.677927	-0.599420
C353	C	0.145675	-0.344593	-0.266087
C354	C	0.479008	-0.011260	0.067247
C355	C	-0.216381	-0.649175	-0.622871
C356	C	0.116952	-0.315842	-0.289537
C357	C	0.450286	0.017492	0.043796
C358	C	-0.273826	-0.591663	-0.669769
C359	C	0.059507	-0.258330	-0.336436
C360	C	0.392841	0.075003	-0.003102
C361	C	-0.273832	-0.591659	-0.622848
C362	C	0.059502	-0.258326	-0.289515
C363	C	0.392835	0.075008	0.043819
C364	C	-0.245107	-0.620414	-0.599398
C365	C	0.088226	-0.287080	-0.266064
C366	C	0.421559	0.046253	0.067269
C367	C	-0.245126	-0.620415	-0.552490
C368	C	0.088207	-0.287081	-0.219157
C369	C	0.421540	0.046252	0.114177
N370	N	-0.216401	-0.649164	-0.529037
N371	N	0.116933	-0.315831	-0.195704
N372	N	0.450266	0.017502	0.137629
C373	C	-0.187667	-0.677920	-0.552502
C374	C	0.145666	-0.344587	-0.219169
C375	C	0.479000	-0.011254	0.114164
C376	C	-0.245038	-0.620464	-0.979439
C377	C	0.088296	-0.287131	-0.646106
C378	C	0.421629	0.046203	-0.312773
C379	C	-0.245029	-0.620471	-1.026357
C380	C	0.088304	-0.287137	-0.693024
C381	C	0.421637	0.046196	-0.359691
C382	C	-0.187568	-0.677979	-1.026370
C383	C	0.145765	-0.344645	-0.693036
C384	C	0.479099	-0.011312	-0.359703
C385	C	-0.187579	-0.677974	-0.979451
C386	C	0.145754	-0.344641	-0.646117
C387	C	0.479088	-0.011308	-0.312784
C388	C	-0.216312	-0.649214	-0.955987
C389	C	0.117021	-0.315880	-0.622653
C390	C	0.450355	0.017453	-0.289320
C391	C	-0.187694	-0.677910	-0.453976
C392	C	0.145640	-0.344576	-0.120643
C393	C	0.478973	-0.011243	0.212690
C394	C	-0.187709	-0.677904	-0.407057
C395	C	0.145624	-0.344571	-0.073723
C396	C	0.478957	-0.011238	0.259610
C397	C	-0.245169	-0.620395	-0.407049
C398	C	0.088165	-0.287061	-0.073715
C399	C	0.421498	0.046272	0.259618
C400	C	-0.245155	-0.620402	-0.453964
C401	C	0.088178	-0.287068	-0.120631
C402	C	0.421512	0.046265	0.212703
C403	C	-0.216414	-0.649161	-0.477427
C404	C	0.116919	-0.315827	-0.144094
C405	C	0.450253	0.017506	0.189240
O406	O	-0.269561	-0.595982	-0.528183
O407	O	0.063773	-0.262649	-0.194850
O408	O	0.397106	0.070685	0.138484
O409	O	-0.163235	-0.702366	-0.528240
O410	O	0.170098	-0.369032	-0.194907
O411	O	0.503432	-0.035699	0.138427
C412	C	-0.187624	-0.677939	-0.740167
C413	C	0.145709	-0.344606	-0.406833
C414	C	0.479043	-0.011273	-0.073500
C415	C	-0.216346	-0.649187	-0.763617
C416	C	0.116987	-0.315854	-0.430284
C417	C	0.450321	0.017479	-0.096950
C418	C	-0.245080	-0.620431	-0.740152
C419	C	0.088253	-0.287098	-0.406819
C420	C	0.421587	0.046235	-0.073485
C421	C	-0.216338	-0.649194	-0.810535
C422	C	0.116996	-0.315861	-0.477202
C423	C	0.450329	0.017473	-0.143868
C424	C	-0.187604	-0.677950	-0.834000
C425	C	0.145729	-0.344617	-0.500667
C426	C	0.479063	-0.011283	-0.167333
C427	C	-0.158878	-0.706699	-0.810547
C428	C	0.174455	-0.373366	-0.477214
C429	C	0.507788	-0.040033	-0.143880
C430	C	-0.158890	-0.706695	-0.763632
C431	C	0.174443	-0.373362	-0.430298
C432	C	0.507777	-0.040029	-0.096965
C433	C	-0.273805	-0.591682	-0.763605
C434	C	0.059528	-0.258349	-0.430271
C435	C	0.392861	0.074985	-0.096938
C436	C	-0.273792	-0.591689	-0.810520
C437	C	0.059542	-0.258355	-0.477187
C438	C	0.392875	0.074978	-0.143854
C439	C	-0.245058	-0.620445	-0.833985
C440	C	0.088275	-0.287111	-0.500652
C441	C	0.421609	0.046222	-0.167319
C442	C	-0.216420	-0.649145	-0.099756
C443	C	0.116913	-0.315811	0.233577
C444	C	0.450246	0.017522	0.566910
C445	C	-0.216296	-0.649227	-0.049822
C446	C	0.117038	-0.315893	0.283511
C447	C	0.450371	0.017440	0.616844
H448	H	-0.297170	-0.036347	-0.135480
H449	H	0.036163	0.296986	0.197854
H450	H	0.369496	0.630320	0.531187
H451	H	-0.297170	-0.177102	-0.135461
H452	H	0.036163	0.156231	0.197872
H453	H	0.369497	0.489564	0.531205
Cl454	Cl	-1.055405	-0.584365	-0.281311
Cl455	Cl	-0.722071	-0.251032	0.052022
Cl456	Cl	-0.388738	0.082302	0.385356
H457	H	-0.268564	-0.596984	-0.387935
H458	H	0.064769	-0.263650	-0.054602
H459	H	0.398102	0.069683	0.278732
Cl460	Cl	-0.151689	0.083822	-0.281471
Cl461	Cl	0.181644	0.417155	0.051862
Cl462	Cl	0.514977	0.750488	0.385196
Cl463	Cl	-0.377114	-0.584163	-0.281249
Cl464	Cl	-0.043781	-0.250830	0.052084
Cl465	Cl	0.289553	0.082504	0.385417
Cl466	Cl	-0.592840	-0.742784	-0.122995
Cl467	Cl	-0.259507	-0.409450	0.210338
Cl468	Cl	0.073826	-0.076117	0.543671
H469	H	-0.135705	-0.177274	-0.297483
H470	H	0.197629	0.156059	0.035851
H471	H	0.530962	0.489393	0.369184
H472	H	-0.164405	-0.478171	-0.268688
H473	H	0.168928	-0.144837	0.064646
H474	H	0.502261	0.188496	0.397979
H475	H	-0.829101	-0.730118	-0.135735
H476	H	-0.495767	-0.396784	0.197599
H477	H	-0.162434	-0.063451	0.530932
H478	H	-0.472620	-0.596925	-0.268550
H479	H	-0.139287	-0.263591	0.064783
H480	H	0.194047	0.069742	0.398116
Cl481	Cl	-0.281164	-0.584305	-0.949948
Cl482	Cl	0.052169	-0.250971	-0.616615
Cl483	Cl	0.385503	0.082362	-0.283281
H484	H	-0.743982	-0.730093	-0.135722
H485	H	-0.410648	-0.396760	0.197612
H486	H	-0.077315	-0.063427	0.530945
Cl487	Cl	-0.281268	-0.584255	-0.483445
Cl488	Cl	0.052065	-0.250922	-0.150112
Cl489	Cl	0.385399	0.082412	0.183221
H490	H	-0.164396	0.179346	-0.268723
H491	H	0.168937	0.512680	0.064610
H492	H	0.502270	0.846013	0.397943
H493	H	-0.268424	-0.597061	-1.045447
H494	H	0.064909	-0.263727	-0.712113
H495	H	0.398242	0.069606	-0.378780
Cl496	Cl	-0.698720	-0.742813	-0.123002
Cl497	Cl	-0.365386	-0.409480	0.210331
Cl498	Cl	-0.032053	-0.076147	0.543665
H499	H	-0.135709	-0.262379	-0.297481
H500	H	0.197625	0.070954	0.035852
H501	H	0.530958	0.404288	0.369186
Cl502	Cl	-0.281200	0.189853	-0.151534
Cl503	Cl	0.052133	0.523187	0.181799
Cl504	Cl	0.385467	0.856520	0.515132
H505	H	-0.164172	-0.701393	-1.045483
H506	H	0.169161	-0.368060	-0.712149
H507	H	0.502495	-0.034727	-0.378816
H508	H	-0.164318	-0.701321	-0.387966
H509	H	0.169015	-0.367988	-0.054632
H510	H	0.502349	-0.034655	0.278701
H511	H	-0.135500	-0.730110	-0.744542
H512	H	0.197834	-0.396777	-0.411209
H513	H	0.531167	-0.063443	-0.077876
H514	H	-0.268490	0.094343	-0.164270
H515	H	0.064843	0.427677	0.169063
H516	H	0.398177	0.761010	0.502396
Cl517	Cl	-0.698837	-0.555524	-0.310003
Cl518	Cl	-0.365504	-0.222190	0.023330
Cl519	Cl	-0.032170	0.111143	0.356664
Cl520	Cl	-0.839594	-0.555564	-0.310003
Cl521	Cl	-0.506261	-0.222230	0.023330
Cl522	Cl	-0.172927	0.111103	0.356663
Cl523	Cl	-0.309872	-0.272586	-0.122707
Cl524	Cl	0.023461	0.060747	0.210626
Cl525	Cl	0.356794	0.394080	0.543959
Cl526	Cl	-0.733712	-0.555529	-0.309990
Cl527	Cl	-0.400379	-0.222195	0.023344
Cl528	Cl	-0.067046	0.111138	0.356677
H529	H	-0.164289	-0.701327	-0.473074
H530	H	0.169045	-0.367993	-0.139741
H531	H	0.502378	-0.034660	0.193592
H532	H	-0.135512	-0.730104	-0.688901
H533	H	0.197821	-0.396770	-0.355568
H534	H	0.531154	-0.063437	-0.022234
Cl535	Cl	-0.281214	-0.382533	-0.151507
Cl536	Cl	0.052120	-0.049199	0.181827
Cl537	Cl	0.385453	0.284134	0.515160
H538	H	-0.268498	-0.478060	-0.164243
H539	H	0.064836	-0.144727	0.169091
H540	H	0.398169	0.188606	0.502424
Cl541	Cl	-0.309909	-0.555539	-0.839995
Cl542	Cl	0.023424	-0.222206	-0.506662
Cl543	Cl	0.356758	0.111128	-0.173328
Cl544	Cl	-0.309932	-0.555527	-0.734113
Cl545	Cl	0.023402	-0.222194	-0.400780
Cl546	Cl	0.356735	0.111139	-0.067446
Cl547	Cl	-0.122809	-0.742830	-0.593412
Cl548	Cl	0.210524	-0.409497	-0.260078
Cl549	Cl	0.543858	-0.076164	0.073255
Cl550	Cl	-0.122998	-0.132034	-0.310235
Cl551	Cl	0.210336	0.201299	0.023098
Cl552	Cl	0.543669	0.534633	0.356431
Cl553	Cl	-0.309940	-0.555514	-0.699238
Cl554	Cl	0.023393	-0.222180	-0.365905
Cl555	Cl	0.356726	0.111153	-0.032571
H556	H	-0.164188	-0.701388	-0.960361
H557	H	0.169145	-0.368055	-0.627027
H558	H	0.502478	-0.034721	-0.293694
Cl559	Cl	-0.309955	-0.555500	-0.593353
Cl560	Cl	0.023378	-0.222167	-0.260020
Cl561	Cl	0.356712	0.111167	0.073314
Cl562	Cl	-0.122758	-0.742851	-0.840055
Cl563	Cl	0.210576	-0.409517	-0.506722
Cl564	Cl	0.543909	-0.076184	-0.173388
H565	H	-0.297170	-0.121452	-0.135474
H566	H	0.036164	0.211881	0.197859
H567	H	0.369497	0.545214	0.531192
H568	H	-0.387431	-0.701220	-0.164383
H569	H	-0.054098	-0.367887	0.168950
H570	H	0.279235	-0.034554	0.502283
H571	H	-0.164394	-0.393062	-0.268688
H572	H	0.168940	-0.059729	0.064645
H573	H	0.502273	0.273605	0.397978
H574	H	-0.959899	-0.597076	-0.268596
H575	H	-0.626566	-0.263742	0.064737
H576	H	-0.293232	0.069591	0.398070
Cl577	Cl	-0.123000	-0.026137	-0.310235
Cl578	Cl	0.210333	0.307196	0.023099
Cl579	Cl	0.543666	0.640529	0.356432
Cl580	Cl	-0.482920	-0.713995	-0.151682
Cl581	Cl	-0.149587	-0.380662	0.181651
Cl582	Cl	0.183747	-0.047328	0.514984
Cl583	Cl	-0.949430	-0.714133	-0.151723
Cl584	Cl	-0.616097	-0.380800	0.181611
Cl585	Cl	-0.282763	-0.047467	0.514944
H586	H	-0.603333	-0.568229	-0.297275
H587	H	-0.270000	-0.234896	0.036058
H588	H	0.063333	0.098438	0.369391
Cl589	Cl	-1.055332	-0.714163	-0.151739
Cl590	Cl	-0.721998	-0.380830	0.181594
Cl591	Cl	-0.388665	-0.047497	0.514928
