data_functionalizedCrystal
_audit_creation_method	'MofGen! by Chris Wilmer'
_symmetry_space_group_name_H-M	'P1'
_symmetry_Int_Tables_number	1
_symmetry_cell_setting	triclinic
loop_
_symmetry_equiv_pos_as_xyz
  x,y,z
_cell_length_a	18.760492
_cell_length_b	12.970454
_cell_length_c	12.970454
_cell_angle_alpha	89.998622
_cell_angle_beta	59.998434
_cell_angle_gamma	59.998360
loop_
_atom_site_label
_atom_site_type_symbol
_atom_site_fract_x
_atom_site_fract_y
_atom_site_fract_z
Zr1	Zr	0.780257	0.993176	-0.135364
O2	O	0.928969	0.828545	-0.299993
O3	O	0.631544	1.043649	-0.084891
O4	O	0.780258	1.043642	-0.299990
O5	O	0.780256	0.828552	0.084773
O6	O	0.780258	1.213309	-0.299994
O7	O	0.780256	0.828552	-0.084894
O8	O	0.514237	1.213322	0.084779
O9	O	1.046277	0.828539	-0.299999
O10	O	0.692712	1.191790	-0.063374
O11	O	0.692712	1.065169	0.063249
O12	O	0.867802	1.065160	-0.190002
O13	O	0.867801	0.938540	-0.063378
Zr14	Zr	0.780257	1.263774	0.135230
Zr15	Zr	0.780258	1.263774	-0.135370
Zr16	Zr	0.780256	0.993175	0.135236
Zr17	Zr	0.967348	0.993166	-0.135374
Zr18	Zr	0.593166	1.263784	0.135240
O19	O	0.928969	1.213300	0.084757
O20	O	0.928971	1.213301	-0.300002
O21	O	0.928968	0.828544	0.084765
O22	O	0.631544	1.428405	0.299859
O23	O	0.631546	1.428406	-0.084900
O24	O	0.631543	1.043649	0.299867
O25	O	0.780258	1.428398	-0.084908
O26	O	0.780256	1.213308	0.299856
O27	O	0.780256	1.043641	0.299859
O28	O	0.780258	1.428398	0.084760
O29	O	1.046277	1.043628	-0.300004
O30	O	0.514237	1.213321	0.299870
O31	O	0.514237	1.428411	0.299865
O32	O	0.514238	1.428411	0.084774
O33	O	1.046276	0.828538	-0.084908
O34	O	1.046277	1.043628	-0.084913
O35	O	0.692712	1.191789	0.189867
O36	O	0.692712	1.318410	0.063244
O37	O	0.867802	1.191780	-0.063384
O38	O	0.867801	1.065160	0.063240
C39	C	0.546234	1.128487	-0.000055
C40	C	0.466809	1.128491	-0.000050
C41	C	0.780256	1.128474	0.338412
C42	C	0.780255	1.128474	0.453289
C43	C	0.780258	1.466952	-0.000075
C44	C	0.780259	1.581828	-0.000077
C45	C	0.131014	1.062364	0.066018
C46	C	0.131020	1.194558	-0.066180
C47	C	0.205635	1.194567	-0.066172
C48	C	0.242945	1.128473	-0.000070
C49	C	0.205639	1.062368	0.066024
C50	C	0.242954	1.260660	-0.132276
C51	C	0.317575	1.260671	-0.132273
C52	C	0.354881	1.194583	-0.066162
C53	C	0.317569	1.128477	-0.000064
C54	C	0.354879	1.062382	0.066038
C55	C	0.317564	0.996283	0.132145
C56	C	0.242944	0.996280	0.132135
C57	C	0.429500	1.194586	-0.066152
C58	C	0.429503	1.062387	0.066044
C59	C	1.014279	1.128463	-0.000080
C60	C	1.093705	1.128459	-0.000084
C61	C	0.780256	0.789997	-0.000060
C62	C	0.780255	0.675121	-0.000057
C63	C	0.780258	1.128475	-0.338546
C64	C	0.780259	1.128476	-0.453423
C65	C	0.546236	1.466964	-0.000062
C66	C	0.466811	1.581845	-0.000060
C67	C	0.546233	1.128486	0.338425
C68	C	0.466808	1.128490	0.453306
C69	C	0.546234	1.466964	0.338417
C70	C	0.466809	1.581844	0.453296
C71	C	1.014279	0.789986	-0.338551
C72	C	1.093705	0.675106	-0.453430
C73	C	1.014278	0.789985	-0.000072
C74	C	1.093703	0.675105	-0.000074
C75	C	1.014281	1.128463	-0.338559
C76	C	1.093706	1.128459	-0.453440
C77	C	0.429512	1.569699	-0.066164
C78	C	0.354895	1.677631	-0.066188
C79	C	0.317572	1.797707	-0.000100
C80	C	0.354878	1.809850	0.066006
C81	C	0.429499	1.701919	0.066022
C82	C	0.429509	1.194586	0.573360
C83	C	0.354890	1.194585	0.681313
C84	C	0.317567	1.128495	0.669210
C85	C	0.354874	1.062390	0.549143
C86	C	0.429496	1.062385	0.441192
C87	C	0.429511	1.701899	0.441147
C88	C	0.354893	1.809851	0.549078
C89	C	0.317570	1.797746	0.669155
C90	C	0.354875	1.677678	0.681300
C91	C	0.429497	1.569729	0.573371
C92	C	1.131012	0.555051	-0.441282
C93	C	1.205653	0.447098	-0.549212
C94	C	1.242980	0.459204	-0.669289
C95	C	1.205670	0.579271	-0.681435
C96	C	1.131035	0.687221	-0.573506
C97	C	1.131009	0.687250	0.066019
C98	C	1.205648	0.579318	0.066013
C99	C	1.242973	0.459242	-0.000079
C100	C	1.205663	0.447099	-0.066180
C101	C	1.131032	0.555030	-0.066181
C102	C	1.131006	1.194563	-0.441296
C103	C	1.205624	1.194584	-0.549229
C104	C	1.242948	1.128493	-0.669304
C105	C	1.205641	1.062388	-0.681446
C106	C	1.131018	1.062375	-0.573514
H107	H	0.459874	1.008566	0.119876
N108	N	0.237068	1.128529	0.785651
H109	H	0.219076	1.076637	0.759776
H110	H	0.263101	1.090950	0.837553
H111	H	1.303743	0.371369	-0.000069
H112	H	0.324479	1.907630	0.119812
H113	H	0.459858	1.711826	0.119859
N114	N	0.237079	1.914116	-0.000107
H115	H	0.263045	1.966072	-0.037728
H116	H	0.219145	1.888091	-0.051991
H117	H	1.236013	0.589230	0.119845
N118	N	0.469718	1.440238	0.586473
H119	H	0.500677	1.430122	0.634157
H120	H	0.412721	1.430236	0.634131
H121	H	0.324526	1.907605	0.539166
N122	N	0.314672	1.664505	-0.137492
H123	H	0.283707	1.616831	-0.102804
H124	H	0.261780	1.751132	-0.127471
H125	H	0.459883	1.248396	-0.119982
N126	N	1.090775	0.541961	-0.311785
H127	H	1.103756	0.583804	-0.264056
H128	H	1.015876	0.583769	-0.264150
N129	N	1.090797	0.541921	-0.137469
H130	H	1.125771	0.449474	-0.179332
H131	H	1.015884	0.583815	-0.076779
N132	N	0.202694	0.924994	0.203423
H133	H	0.215693	0.858478	0.142791
H134	H	0.237663	0.883204	0.245304
H135	H	0.100626	1.008552	0.119844
N136	N	1.090762	0.816755	0.137300
H137	H	1.059807	0.826873	0.229764
H138	H	1.147748	0.826778	0.102511
N139	N	1.090760	1.265850	-0.311795
H140	H	1.125718	1.307728	-0.320499
H141	H	1.015845	1.332296	-0.264131
H142	H	1.235992	1.248413	-0.539318
N143	N	1.090810	0.991053	-0.586636
H144	H	1.103807	0.924530	-0.544812
H145	H	1.015910	1.051740	-0.544824
N146	N	1.323424	1.128526	-0.785711
H147	H	1.341383	1.180437	-0.759785
H148	H	1.385306	1.038979	-0.837629
H149	H	0.347955	0.942462	0.185958
H150	H	0.459889	1.248406	0.583239
N151	N	1.245874	0.317605	-0.536104
H152	H	1.320784	0.269862	-0.577920
H153	H	1.210819	0.326426	-0.443636
N154	N	0.469774	0.991016	0.311707
H155	H	0.434818	0.949130	0.320433
H156	H	0.456818	1.051640	0.263974
H157	H	0.324524	1.248420	0.779066
N158	N	0.090797	1.265822	-0.137492
H159	H	0.037869	1.255782	-0.127473
H160	H	0.059881	1.358260	-0.102792
N161	N	1.245925	0.592320	-0.810949
H162	H	1.276892	0.639997	-0.821084
H163	H	1.298822	0.505669	-0.877389
H164	H	0.212579	1.314465	-0.186102
N165	N	0.357820	1.331958	-0.203569
H166	H	0.322862	1.373825	-0.245446
H167	H	0.344822	1.398413	-0.142875
H168	H	0.459889	1.711779	0.343384
H169	H	0.459900	1.471937	-0.119997
N170	N	0.237085	1.914183	0.785559
H171	H	0.219123	1.992070	0.759631
H172	H	0.175207	1.914134	0.837468
H173	H	0.324476	1.667841	0.779082
H174	H	1.303752	0.371294	-0.757161
H175	H	1.100660	0.784972	-0.583412
H176	H	0.324474	1.008581	0.539307
H177	H	1.236065	0.349319	-0.119991
H178	H	1.236041	1.008578	-0.779225
