data_functionalizedCrystal
_audit_creation_method	'MofGen! by Chris Wilmer'
_symmetry_space_group_name_H-M	'P1'
_symmetry_Int_Tables_number	1
_symmetry_cell_setting	triclinic
loop_
_symmetry_equiv_pos_as_xyz
  x,y,z
_cell_length_a	6.817900
_cell_length_b	17.982783
_cell_length_c	14.858572
_cell_angle_alpha	95.362850
_cell_angle_beta	104.524003
_cell_angle_gamma	102.448572
loop_
_atom_site_label
_atom_site_type_symbol
_atom_site_fract_x
_atom_site_fract_y
_atom_site_fract_z
V1	V	-4.033194	-0.105892	-0.290348
O2	O	-4.025835	0.004595	-0.284424
O3	O	-3.979617	-0.209492	-0.288744
O4	O	-3.989902	-0.104480	-0.416804
O5	O	-4.015479	-0.101144	-0.155477
V6	V	-4.516830	-0.092651	-0.274170
O7	O	-4.294202	-0.134938	-0.325836
O8	O	-4.706019	-0.063605	-0.238682
O9	O	-4.347200	0.010949	-0.275774
O10	O	-4.641586	-0.203138	-0.280094
O11	O	-4.651942	-0.097399	-0.409041
O12	O	-4.336916	-0.094063	-0.147713
C13	C	-3.823193	-0.234740	-0.284262
C14	C	-3.860709	-0.319436	-0.283794
C15	C	-3.835225	-0.348204	-0.198369
C16	C	-3.870495	-0.427785	-0.197933
C17	C	-3.931234	-0.478596	-0.282921
C18	C	-3.956725	-0.449823	-0.368353
C19	C	-3.921470	-0.370243	-0.368789
C20	C	-4.098909	-0.770758	-0.366596
C21	C	-4.134158	-0.850342	-0.366153
C22	C	-4.047935	-0.828300	-0.195739
C23	C	-4.012680	-0.748720	-0.196175
C24	C	-4.038184	-0.719954	-0.281607
C25	C	-3.999943	-0.633663	-0.282079
C26	C	-3.969460	-0.564885	-0.282449
C27	C	-3.836312	-0.100786	-0.447615
C28	C	-3.882165	-0.100317	-0.550996
C29	C	-4.049990	-0.098602	-0.929558
C30	C	-4.003288	-0.099079	-0.824230
C31	C	-3.966079	-0.099460	-0.740280
C32	C	-3.919374	-0.099936	-0.634946
C33	C	-4.166966	0.036193	-0.280253
C34	C	-4.108689	0.120888	-0.280727
C35	C	-4.153848	-0.097759	-0.116898
C36	C	-4.087233	-0.098225	-0.013516
H37	H	-4.006196	-0.491200	-0.437552
C38	C	-3.842448	-0.459426	-0.103958
N39	N	-3.821320	-0.483257	-0.033172
H40	H	-4.119653	-0.747346	-0.436158
C41	C	-4.019935	-0.859951	-0.101763
N42	N	-3.998855	-0.883789	-0.030983
C43	C	-3.945861	-0.692832	-0.102681
N44	N	-3.895539	-0.650738	-0.032260
C45	C	-4.200993	-0.906234	-0.459652
N46	N	-4.251333	-0.948331	-0.530072
H47	H	-3.942244	-0.346822	-0.438351
H48	H	-3.785751	-0.306838	-0.129161
