data_functionalizedCrystal
_audit_creation_method	'MofGen! by Chris Wilmer'
_symmetry_space_group_name_H-M	'P1'
_symmetry_Int_Tables_number	1
_symmetry_cell_setting	triclinic
loop_
_symmetry_equiv_pos_as_xyz
  x,y,z
_cell_length_a	21.295418
_cell_length_b	18.101397
_cell_length_c	18.101389
_cell_angle_alpha	90.021047
_cell_angle_beta	90.038200
_cell_angle_gamma	90.036278
loop_
_atom_site_label
_atom_site_type_symbol
_atom_site_fract_x
_atom_site_fract_y
_atom_site_fract_z
Zn1	Zn	0.962365	-0.294595	0.419099
Zn2	Zn	0.962296	-0.418420	0.295252
Zn3	Zn	0.857099	-0.294631	0.295231
Zn4	Zn	0.857076	-0.418433	0.419011
O5	O	0.909709	-0.356520	0.357148
O6	O	1.050445	-0.311000	0.402717
O7	O	0.948322	-0.402010	0.191616
O8	O	0.871101	-0.190994	0.311690
O9	O	1.050395	-0.401974	0.311727
O10	O	0.948440	-0.190967	0.402696
O11	O	0.871034	-0.311062	0.191601
O12	O	0.769006	-0.311075	0.311604
O13	O	0.871063	-0.401996	0.522656
O14	O	0.768990	-0.402031	0.402545
O15	O	0.948418	-0.311012	0.522721
O16	O	0.948300	-0.522055	0.311641
O17	O	0.870996	-0.522064	0.402566
C18	C	0.746157	-0.356559	0.357063
C19	C	0.676189	-0.356593	0.357044
C20	C	0.909655	-0.548930	0.357112
C21	C	0.909690	-0.631244	0.357122
C22	C	0.909770	-0.930335	0.357189
C23	C	0.958272	-0.898974	0.299829
C24	C	0.958441	-0.813355	0.299977
C25	C	0.909730	-0.781953	0.357155
C26	C	0.927713	-0.812967	0.435223
C27	C	0.928088	-0.898612	0.434911
C28	C	0.843156	-0.898863	0.337158
C29	C	0.843485	-0.813213	0.335416
C30	C	0.909707	-0.698093	0.357141
C31	C	0.909795	-1.014195	0.357209
C32	C	0.643331	-0.404017	0.404326
C33	C	0.577588	-0.403999	0.404359
C34	C	0.544707	-0.356565	0.357097
C35	C	0.577573	-0.309132	0.309812
C36	C	0.643315	-0.309146	0.309785
N37	N	0.441435	-0.350769	0.292325
N38	N	0.378984	-0.350760	0.292352
C39	C	0.346632	-0.356517	0.357176
N40	N	0.379091	-0.362299	0.421973
N41	N	0.441548	-0.362312	0.421945
C42	C	0.473421	-0.356543	0.357121
C43	C	0.242488	-0.403924	0.404498
C44	C	0.176744	-0.403900	0.404533
C45	C	0.176731	-0.309037	0.309979
C46	C	0.242473	-0.309057	0.309951
C47	C	0.275348	-0.356504	0.357209
C48	C	1.073899	-0.356481	0.357234
C49	C	1.143868	-0.356465	0.357271
C50	C	0.909745	-0.356501	0.550310
C51	C	0.909761	-0.356493	0.632624
C52	C	0.909780	-0.163358	0.357201
C53	C	0.909811	-0.081044	0.357223
C54	C	0.909709	-0.356485	0.164738
C55	C	0.909816	-0.356284	0.082424
C56	C	0.909798	-0.356354	0.931716
C57	C	0.860960	-0.413417	0.900349
C58	C	0.861092	-0.413681	0.814731
C59	C	0.909779	-0.356423	0.783333
C60	C	0.976105	-0.377586	0.814457
C61	C	0.975833	-0.377960	0.900102
C62	C	0.892886	-0.278002	0.900139
C63	C	0.891410	-0.278455	0.814487
C64	C	0.909772	-0.356461	0.699473
C65	C	0.909809	-0.356318	1.015575
H66	H	0.947190	-0.792387	0.242092
N67	N	0.143142	-0.260579	0.261714
N68	N	0.084445	-0.260567	0.261748
H69	H	0.060719	-0.226340	0.227663
N70	N	0.276032	-0.260611	0.261646
N71	N	0.246669	-0.218260	0.219452
H72	H	0.270369	-0.184040	0.185335
N73	N	0.799068	-0.396983	0.926138
N74	N	0.756341	-0.382783	0.880952
H75	H	0.712627	-0.371175	0.899169
N76	N	0.143190	-0.452357	0.452834
N77	N	0.150482	-0.520685	0.447785
H78	H	0.126785	-0.554910	0.481899
N79	N	0.676873	-0.260694	0.261484
N80	N	0.647511	-0.218338	0.219293
H81	H	0.671212	-0.184118	0.185178
N82	N	0.993804	-0.449809	0.925191
N83	N	0.996849	-0.463078	0.992861
H84	H	1.009539	-0.513824	1.010578
H85	H	0.975860	-0.791447	0.452474
H86	H	0.990688	-0.434253	0.793016
N87	N	0.874829	-0.485826	0.927363
N88	N	0.920525	-0.495588	0.969615
H89	H	0.930321	-0.546726	0.988695
H90	H	1.013454	-0.338201	0.920854
N91	N	0.795715	-0.786404	0.383988
N92	N	0.809780	-0.743634	0.435652
H93	H	0.776044	-0.724702	0.469963
H94	H	0.550829	-0.442617	0.442865
H95	H	0.894309	-0.919357	0.479123
H96	H	0.807018	-0.919147	0.378936
H97	H	1.007347	-0.920428	0.312932
H98	H	0.872258	-0.471759	0.794249
N99	N	0.799396	-0.397060	0.788325
N100	N	0.774069	-0.337017	0.804860
H101	H	0.730493	-0.325280	0.786215
H102	H	0.893466	-0.792626	0.479112
N103	N	0.826477	-0.787777	0.263347
N104	N	0.821875	-0.720072	0.250934
H105	H	0.809867	-0.702102	0.200035
H106	H	0.826796	-0.920519	0.281217
N107	N	1.022975	-0.327080	0.788948
N108	N	1.007983	-0.274801	0.747445
H109	H	1.041084	-0.239129	0.729428
N110	N	0.833267	-0.253815	0.927207
N111	N	0.802515	-0.294037	0.970107
H112	H	0.760407	-0.276962	0.989226
H113	H	0.670093	-0.442651	0.442809
N114	N	0.543980	-0.260678	0.261545
N115	N	0.485283	-0.260671	0.261574
H116	H	0.461556	-0.226447	0.227487
H117	H	0.842600	-0.262496	0.794142
N118	N	0.276064	-0.452392	0.452773
N119	N	0.246714	-0.494729	0.494992
H120	H	0.270424	-0.528962	0.529087
H121	H	0.947158	-0.919611	0.241770
N122	N	0.932770	-0.222293	0.787659
N123	N	0.937238	-0.210764	0.719784
H124	H	0.966454	-0.171104	0.700831
N125	N	0.937513	-0.224675	0.925591
N126	N	0.981599	-0.244188	0.966805
H127	H	1.013120	-0.206532	0.984785
H128	H	1.007785	-0.792798	0.313233
H129	H	0.976781	-0.918518	0.451876
