data_functionalizedCrystal
_audit_creation_method	'MofGen! by Chris Wilmer'
_symmetry_space_group_name_H-M	'P1'
_symmetry_Int_Tables_number	1
_symmetry_cell_setting	triclinic
loop_
_symmetry_equiv_pos_as_xyz
  x,y,z
_cell_length_a	20.875684
_cell_length_b	14.560438
_cell_length_c	14.560438
_cell_angle_alpha	60.000905
_cell_angle_beta	87.032024
_cell_angle_gamma	58.315736
loop_
_atom_site_label
_atom_site_type_symbol
_atom_site_fract_x
_atom_site_fract_y
_atom_site_fract_z
Zr1	Zr	0.617939	1.005261	-0.166387
O2	O	0.515514	1.196867	-0.305428
O3	O	0.649337	0.813659	-0.123766
O4	O	0.649334	1.005263	-0.315367
O5	O	0.515520	1.005261	0.037313
O6	O	0.754894	1.005260	-0.323204
O7	O	0.515517	1.005263	-0.113827
O8	O	0.754900	0.662516	0.019534
O9	O	0.515514	1.348005	-0.305425
O10	O	0.741507	0.892465	-0.111435
O11	O	0.662731	0.892465	0.007208
O12	O	0.662727	1.118054	-0.218376
O13	O	0.583951	1.118054	-0.099733
Zr14	Zr	0.786299	1.005253	0.062165
Zr15	Zr	0.786295	1.005257	-0.178887
Zr16	Zr	0.617943	1.005257	0.074665
Zr17	Zr	0.617939	1.246309	-0.166383
Zr18	Zr	0.786298	0.764205	0.062160
O19	O	0.754900	1.196855	0.019544
O20	O	0.754894	1.196861	-0.323201
O21	O	0.515520	1.196861	0.037317
O22	O	0.888724	0.813647	0.201205
O23	O	0.888717	0.813653	-0.141540
O24	O	0.649343	0.813653	0.218978
O25	O	0.888718	1.005254	-0.141536
O26	O	0.754903	1.005251	0.211144
O27	O	0.649344	1.005254	0.218982
O28	O	0.888720	1.005251	0.009604
O29	O	0.649335	1.348002	-0.315361
O30	O	0.754903	0.662513	0.211138
O31	O	0.888723	0.662509	0.201202
O32	O	0.888720	0.662513	0.009598
O33	O	0.515518	1.348002	-0.113821
O34	O	0.649338	1.347998	-0.123756
O35	O	0.741511	0.892461	0.114154
O36	O	0.820287	0.892461	-0.004490
O37	O	0.741507	1.118050	-0.111431
O38	O	0.662731	1.118050	0.007213
C39	C	0.702118	0.703743	-0.052117
C40	C	0.702118	0.601412	-0.052119
C41	C	0.743237	0.553336	-0.114050
C42	C	0.743240	0.457177	-0.114039
C43	C	0.660999	0.457182	0.009834
C44	C	0.661001	0.553333	0.009830
C45	C	0.491532	1.005262	-0.036476
C46	C	0.420060	1.005264	-0.031169
C47	C	0.017762	1.005246	0.007714
C48	C	0.084918	1.005242	0.002717
C49	C	0.118485	1.005251	-0.083053
C50	C	0.084897	1.005251	-0.163824
C51	C	0.017745	1.005246	-0.158822
C52	C	0.319321	1.005259	-0.106939
C53	C	0.386476	1.005268	-0.111937
C54	C	0.386493	1.005257	0.054607
C55	C	0.319338	1.005259	0.059598
C56	C	0.285758	1.005252	-0.021171
N57	N	0.187127	1.005251	-0.088165
N58	N	0.217120	1.005243	-0.016054
C59	C	0.912706	1.005252	-0.067747
C60	C	0.984178	1.005250	-0.073053
C61	C	0.702113	1.005262	-0.353630
C62	C	0.702112	1.005264	-0.455963
C63	C	0.702119	1.306771	-0.052106
C64	C	0.702119	1.409102	-0.052104
C65	C	0.660990	1.123017	-0.559862
C66	C	0.660999	1.123011	-0.656011
C67	C	0.743253	0.887488	-0.544350
C68	C	0.743247	0.887496	-0.448203
C69	C	0.702124	1.005252	0.249408
C70	C	0.702126	1.005250	0.351741
C71	C	0.912706	0.703738	-0.067752
C72	C	0.984177	0.601405	-0.073061
C73	C	0.702124	0.703738	0.249402
C74	C	0.702125	0.601406	0.351733
C75	C	0.912711	0.703733	0.233767
C76	C	0.984184	0.601398	0.330791
C77	C	0.491527	1.306781	-0.337989
C78	C	0.420054	1.409116	-0.435014
C79	C	0.491532	1.306776	-0.036470
C80	C	0.420061	1.409109	-0.031162
C81	C	0.702114	1.306776	-0.353625
C82	C	0.702112	1.409109	-0.455956
C83	C	0.976618	0.553351	-0.131388
C84	C	1.043767	0.457211	-0.136398
C85	C	1.118473	0.409122	-0.083073
C86	C	1.126030	0.457186	-0.024744
C87	C	1.058883	0.553330	-0.019741
C88	C	1.058876	0.553341	0.314423
C89	C	1.126039	0.457200	0.405578
C90	C	1.118508	0.409112	0.513100
C91	C	1.043809	0.457179	0.529466
C92	C	0.976647	0.553325	0.438312
C93	C	0.345362	1.457185	-0.418646
C94	C	0.278199	1.553356	-0.509801
C95	C	0.285729	1.601449	-0.617323
C96	C	0.360429	1.553376	-0.633689
C97	C	0.427590	1.457213	-0.542535
C98	C	0.427619	1.457174	0.027156
C99	C	0.360471	1.553339	0.032139
C100	C	0.285765	1.601432	-0.021189
C101	C	0.278207	1.553364	-0.079514
C102	C	0.345355	1.457206	-0.084503
C103	C	0.743248	0.553325	0.455633
C104	C	0.743240	0.457182	0.551780
C105	C	0.660987	0.457203	0.440115
C106	C	0.660990	0.553352	0.343970
H107	H	0.776718	0.592478	-0.164490
H108	H	0.627515	1.218897	-0.740607
H109	H	1.173143	0.330834	-0.087154
H110	H	0.339190	1.418075	-0.131988
H111	H	0.776724	0.418034	-0.164467
C112	C	0.615766	0.404305	0.077960
H113	H	0.621646	0.340165	0.069085
H114	H	0.636073	0.366795	0.153912
H115	H	0.561662	0.473343	0.052891
C116	C	0.368794	1.606202	0.096296
H117	H	0.318107	1.670372	0.091623
H118	H	0.396695	1.537173	0.171684
H119	H	0.396705	1.643699	0.065141
H120	H	0.488406	1.418076	-0.555875
H121	H	0.627500	0.592502	0.259364
H122	H	0.627517	0.592476	0.060266
H123	H	0.366551	1.592546	-0.721244
C124	C	0.615751	1.252552	-0.568392
H125	H	0.621630	1.235696	-0.496251
H126	H	0.636058	1.300936	-0.609848
H127	H	0.561647	1.300933	-0.604329
H128	H	0.915795	0.592504	-0.174826
H129	H	0.217373	1.592536	-0.122932
C130	C	1.067207	0.606165	0.044437
H131	H	1.121318	0.563738	0.075485
H132	H	1.042723	0.696943	-0.004543
H133	H	1.042729	0.590380	0.101985
C134	C	-0.019157	1.005239	0.102060
H135	H	0.010470	1.005225	0.149451
H136	H	-0.071661	1.080569	0.071767
H137	H	-0.019038	0.929894	0.143187
C138	C	0.211850	1.707219	-0.717585
H139	H	0.227027	1.728989	-0.783971
H140	H	0.181471	1.675700	-0.715325
H141	H	0.181477	1.782236	-0.715321
H142	H	0.776725	0.418041	0.636377
C143	C	0.423401	1.005279	-0.206286
H144	H	0.468197	1.005300	-0.197702
H145	H	0.438707	0.929947	-0.203974
H146	H	0.386077	1.080622	-0.275392
C147	C	1.208209	0.404268	0.033918
H148	H	1.247111	0.340116	0.022590
H149	H	1.214116	0.473275	0.004422
H150	H	1.214104	0.366735	0.110949
C151	C	1.035444	0.404343	-0.200550
H152	H	1.086130	0.340205	-0.195909
H153	H	1.007545	0.366832	-0.169390
H154	H	1.007530	0.473384	-0.275939
H155	H	0.112234	1.005251	-0.233657
C156	C	1.067171	0.606229	0.196159
H157	H	1.016479	0.670369	0.144203
H158	H	1.095070	0.643743	0.185656
H159	H	1.095077	0.537197	0.185653
H160	H	0.231095	1.679730	-0.017118
C161	C	0.121858	1.005238	0.091561
H162	H	0.092244	1.005247	0.143351
H163	H	0.174363	0.929905	0.128784
H164	H	0.121743	1.080580	0.057358
H165	H	0.292009	1.005252	0.129438
C166	C	1.208198	0.404331	0.387557
H167	H	1.203058	0.446729	0.310464
H168	H	1.236113	0.420094	0.420527
H169	H	1.236105	0.313549	0.420545
H170	H	0.413840	1.005260	0.120365
C171	C	1.035531	0.404277	0.647740
H172	H	0.981429	0.446669	0.644444
H173	H	1.060028	0.313498	0.685871
H174	H	1.060021	0.420048	0.685868
C175	C	0.894491	0.606163	0.456330
H176	H	0.899632	0.563737	0.533422
H177	H	0.866569	0.696941	0.423349
H178	H	0.866590	0.590380	0.423353
C179	C	0.282385	1.005271	-0.195789
H180	H	0.311989	1.005295	-0.247593
H181	H	0.282496	0.929939	-0.161601
H182	H	0.229877	1.080614	-0.233011
C183	C	-0.019200	1.005256	-0.247669
H184	H	0.010404	1.005274	-0.299473
H185	H	-0.019086	0.929922	-0.213471
H186	H	-0.071708	1.080597	-0.284891
C187	C	0.788462	0.757965	-0.333904
H188	H	0.782568	0.774839	-0.277756
H189	H	0.768146	0.709597	-0.323977
H190	H	0.842571	0.709558	-0.329461
C191	C	1.192390	0.303344	0.613359
H192	H	1.237950	0.281607	0.588202
H193	H	1.192407	0.334843	0.656866
H194	H	1.192401	0.228312	0.656851
C195	C	0.615746	0.404338	0.431577
H196	H	0.591249	0.446756	0.355926
H197	H	0.651237	0.313562	0.463998
H198	H	0.576828	0.420110	0.469525
H199	H	0.776743	0.791606	-0.538045
H200	H	0.339215	1.418033	-0.331104
H201	H	0.776740	0.592453	0.461960
H202	H	0.217382	1.592480	-0.496454
H203	H	0.488443	1.418024	0.070590
