data_functionalizedCrystal
_audit_creation_method	'MofGen! by Chris Wilmer'
_symmetry_space_group_name_H-M	'P1'
_symmetry_Int_Tables_number	1
_symmetry_cell_setting	triclinic
loop_
_symmetry_equiv_pos_as_xyz
  x,y,z
_cell_length_a	12.759399
_cell_length_b	19.121147
_cell_length_c	12.759393
_cell_angle_alpha	92.460686
_cell_angle_beta	90.028641
_cell_angle_gamma	87.569508
loop_
_atom_site_label
_atom_site_type_symbol
_atom_site_fract_x
_atom_site_fract_y
_atom_site_fract_z
Zn1	Zn	0.486846	-1.073786	-0.662570
Zn2	Zn	0.662561	-1.073716	-0.486896
Zn3	Zn	0.479393	-0.956333	-0.479410
Zn4	Zn	0.654974	-0.956321	-0.655041
O5	O	0.570944	-1.015039	-0.570979
O6	O	0.516449	-1.172062	-0.645551
O7	O	0.638319	-1.058120	-0.338880
O8	O	0.333363	-0.971947	-0.503725
O9	O	0.645546	-1.172010	-0.516483
O10	O	0.338838	-1.058240	-0.638292
O11	O	0.503746	-0.971879	-0.333380
O12	O	0.496390	-0.858046	-0.496424
O13	O	0.632616	-0.971927	-0.803062
O14	O	0.625389	-0.858037	-0.625459
O15	O	0.509093	-1.058229	-0.808594
O16	O	0.808573	-1.058109	-0.509182
O17	O	0.803000	-0.971859	-0.632718
C18	C	0.559258	-0.832557	-0.559313
C19	C	0.554284	-0.754491	-0.554347
C20	C	0.843908	-1.014994	-0.570969
C21	C	0.960688	-1.015039	-0.571004
C22	C	0.522730	-0.312962	-0.522895
C23	C	0.527409	-0.386314	-0.527567
C24	C	0.597022	-0.423001	-0.596976
C25	C	0.661952	-0.386333	-0.661724
C26	C	0.657267	-0.312983	-0.657057
C27	C	0.614529	-0.644473	-0.614428
C28	C	0.619212	-0.717828	-0.619088
C29	C	0.484666	-0.717804	-0.484932
C30	C	0.479992	-0.644452	-0.480266
C31	C	0.544918	-0.607790	-0.545019
C32	C	0.601809	-0.497979	-0.601750
C33	C	0.540125	-0.532814	-0.540249
C34	C	1.018420	-1.059999	-0.506760
C35	C	1.128147	-1.060041	-0.506801
C36	C	1.122398	-0.970158	-0.635334
C37	C	1.012674	-0.970120	-0.635297
C38	C	1.021740	-1.111890	-0.432549
C39	C	1.131466	-1.111932	-0.432590
C40	C	1.296914	-1.015100	-0.571027
C41	C	1.180139	-1.015119	-0.571082
C42	C	0.570839	-1.015085	-0.845016
C43	C	0.570795	-1.015104	-0.961794
C44	C	0.582671	-0.198233	-0.582680
C45	C	0.587657	-0.276299	-0.587637
C46	C	0.500712	-0.970217	-1.013799
C47	C	0.500682	-0.970238	-1.123525
C48	C	0.640822	-1.060039	-1.129230
C49	C	0.640856	-1.060014	-1.019506
C50	C	0.419800	-0.918374	-1.010506
C51	C	0.419770	-0.918395	-1.120232
C52	C	0.570974	-1.015034	-0.298012
C53	C	0.570731	-1.015151	-0.181243
H54	H	0.466044	-0.283097	-0.466374
H55	H	0.697939	-1.096555	-0.977167
C56	C	0.718019	-1.109344	-1.192717
N57	N	0.776213	-1.146447	-1.240533
H58	H	1.160400	-1.097401	-0.350283
C59	C	0.444545	-0.844871	-0.965581
N60	N	0.463185	-0.789511	-0.931744
H61	H	0.965669	-0.933517	-0.687620
H62	H	1.164739	-0.933587	-0.687680
H63	H	0.986548	-1.092421	-0.353978
C64	C	0.403401	-0.604101	-0.403922
N65	N	0.345710	-0.573709	-0.346420
C66	C	0.463553	-0.492456	-0.463901
N67	N	0.405881	-0.462052	-0.406393
C68	C	0.454643	-0.848584	-1.161749
N69	N	0.480910	-0.796004	-1.193022
H70	H	0.995358	-1.166269	-0.457871
H71	H	0.675900	-0.747697	-0.675614
H72	H	0.718628	-0.416210	-0.718243
C73	C	0.413238	-0.758137	-0.413723
N74	N	0.359430	-0.788517	-0.360091
C75	C	0.311099	-0.938122	-1.161745
N76	N	0.229253	-0.952983	-1.193013
H77	H	0.667401	-0.614631	-0.667150
H78	H	0.710135	-0.283133	-0.709779
H79	H	0.343768	-0.937871	-0.977731
C80	C	1.181793	-1.181746	-0.476509
N81	N	1.219700	-1.234329	-0.509588
H82	H	0.658491	-0.527858	-0.658260
H83	H	0.474542	-0.416162	-0.474843
