data_functionalizedCrystal
_audit_creation_method	'MofGen! by Chris Wilmer'
_symmetry_space_group_name_H-M	'P1'
_symmetry_Int_Tables_number	1
_symmetry_cell_setting	triclinic
loop_
_symmetry_equiv_pos_as_xyz
  x,y,z
_cell_length_a	16.959455
_cell_length_b	18.215404
_cell_length_c	18.215399
_cell_angle_alpha	90.026844
_cell_angle_beta	89.975385
_cell_angle_gamma	89.979762
loop_
_atom_site_label
_atom_site_type_symbol
_atom_site_fract_x
_atom_site_fract_y
_atom_site_fract_z
Zn1	Zn	1.208400	0.293050	-0.416215
Zn2	Zn	1.708400	0.793050	0.083785
Zn3	Zn	1.208305	0.416122	-0.293151
Zn4	Zn	1.708305	0.916122	0.206849
Zn5	Zn	1.076218	0.293067	-0.293152
Zn6	Zn	1.576218	0.793067	0.206848
Zn7	Zn	1.076185	0.416073	-0.416166
Zn8	Zn	1.576185	0.916073	0.083834
O9	O	1.142277	0.354578	-0.354671
O10	O	1.642277	0.854578	0.145329
O11	O	1.318998	0.309389	-0.399911
O12	O	1.818998	0.809389	0.100089
O13	O	1.190758	0.399825	-0.190167
O14	O	1.690758	0.899825	0.309833
O15	O	1.093806	0.190081	-0.309498
O16	O	1.593806	0.690081	0.190502
O17	O	1.318929	0.399809	-0.309496
O18	O	1.818929	0.899809	0.190504
O19	O	1.190919	0.190068	-0.399912
O20	O	1.690919	0.690068	0.100088
O21	O	1.093714	0.309418	-0.190168
O22	O	1.593714	0.809418	0.309832
O23	O	0.965603	0.309371	-0.309450
O24	O	1.465603	0.809371	0.190550
O25	O	1.093750	0.399727	-0.519157
O26	O	1.593750	0.899727	-0.019157
O27	O	0.965579	0.399743	-0.399828
O28	O	1.465579	0.899743	0.100172
O29	O	1.190887	0.309342	-0.519193
O30	O	1.690887	0.809342	-0.019193
O31	O	1.190726	0.519099	-0.309449
O32	O	1.690726	1.019099	0.190551
O33	O	1.093658	0.519064	-0.399827
O34	O	1.593658	1.019064	0.100173
C35	C	0.936911	0.354554	-0.354634
C36	C	1.436911	0.854554	0.145366
C37	C	0.849054	0.354561	-0.354636
C38	C	1.349054	0.854561	0.145364
C39	C	0.477532	0.401613	-0.307569
C40	C	0.977532	0.901613	0.192431
C41	C	0.477626	0.307604	-0.401864
C42	C	0.977626	0.807604	0.098136
C43	C	0.560171	0.307592	-0.401846
C44	C	1.060171	0.807592	0.098154
C45	C	0.601401	0.354592	-0.354689
C46	C	1.101401	0.854592	0.145311
C47	C	0.560085	0.401604	-0.307551
C48	C	1.060085	0.901604	0.192449
C49	C	0.601494	0.260586	-0.448989
C50	C	1.101494	0.760586	0.051011
C51	C	0.684044	0.260573	-0.448974
C52	C	1.184044	0.760573	0.051026
C53	C	0.725276	0.307569	-0.401813
C54	C	1.225276	0.807569	0.098187
C55	C	0.683955	0.354583	-0.354672
C56	C	1.183955	0.854583	0.145328
C57	C	0.725185	0.401583	-0.307515
C58	C	1.225185	0.901583	0.192485
C59	C	0.683865	0.448593	-0.260370
C60	C	1.183865	0.948593	0.239630
C61	C	0.601317	0.448601	-0.260390
C62	C	1.101317	0.948601	0.239610
C63	C	0.807824	0.307562	-0.401792
C64	C	1.307824	0.807562	0.098208
C65	C	0.807738	0.401573	-0.307497
C66	C	1.307738	0.901573	0.192503
C67	C	1.142200	0.545784	-0.354648
C68	C	1.642200	1.045784	0.145352
C69	C	1.142239	0.627583	-0.354663
C70	C	1.642239	1.127583	0.145337
C71	C	1.192933	0.892635	-0.307714
C72	C	1.692933	1.392635	0.192286
C73	C	1.192900	0.815776	-0.307694
C74	C	1.692900	1.315776	0.192306
C75	C	1.091730	0.815780	-0.401723
C76	C	1.591730	1.315780	0.098277
C77	C	1.091760	0.892637	-0.401739
C78	C	1.591760	1.392637	0.098261
C79	C	1.142366	0.931063	-0.354736
C80	C	1.642366	1.431063	0.145264
C81	C	1.142303	0.777347	-0.354700
C82	C	1.642303	1.277347	0.145300
C83	C	1.142266	0.694013	-0.354678
C84	C	1.642266	1.194013	0.145322
C85	C	1.142402	1.014402	-0.354756
C86	C	1.642402	1.514402	0.145244
C87	C	1.348445	0.354603	-0.354709
C88	C	1.848445	0.854603	0.145291
C89	C	1.436302	0.354613	-0.354725
C90	C	1.936302	0.854613	0.145275
C91	C	1.142325	0.354527	-0.546624
C92	C	1.642325	0.854527	-0.046624
C93	C	1.142346	0.354506	-0.628423
C94	C	1.642346	0.854506	-0.128423
C95	C	1.142379	1.162625	-0.354722
C96	C	1.642379	1.662625	0.145278
C97	C	1.142430	1.080826	-0.354772
C98	C	1.642430	1.580826	0.145228
C99	C	1.192943	0.307398	-0.816637
C100	C	1.692943	0.807398	-0.316637
C101	C	1.192953	0.307377	-0.893496
C102	C	1.692953	0.807377	-0.393496
C103	C	1.091804	0.401499	-0.893447
C104	C	1.591804	0.901499	-0.393447
C105	C	1.091791	0.401516	-0.816590
C106	C	1.591791	0.901516	-0.316590
C107	C	1.142365	0.354467	-0.778187
C108	C	1.642365	0.854467	-0.278187
C109	C	1.142388	0.354428	-0.931903
C110	C	1.642388	0.854428	-0.431903
C111	C	1.142398	0.354406	-1.015237
C112	C	1.642398	0.854406	-0.515237
C113	C	1.142355	0.354489	-0.694848
C114	C	1.642355	0.854489	-0.194848
C115	C	1.142275	0.354575	-0.163465
C116	C	1.642275	0.854575	0.336535
C117	C	1.142407	0.354390	-0.081667
C118	C	1.642407	0.854390	0.418333
H119	H	0.841302	0.439845	-0.269094
H120	H	1.341302	0.939845	0.230906
H121	H	0.717445	0.486864	-0.221979
H122	H	1.217445	0.986864	0.278021
Br123	Br	1.261603	0.243501	-0.945676
Br124	Br	1.761603	0.743501	-0.445676
Br125	Br	1.023138	0.465393	-0.764402
Br126	Br	1.523138	0.965393	-0.264402
H127	H	0.841463	0.269288	-0.440179
H128	H	1.341463	0.769288	0.059821
H129	H	1.234139	0.923918	-0.269441
H130	H	1.734139	1.423918	0.230559
H131	H	0.567667	0.486873	-0.222006
H132	H	1.067667	0.986873	0.277994
H133	H	1.050579	0.923926	-0.440031
H134	H	1.550579	1.423926	0.059969
Br135	Br	1.023060	0.763627	-0.465516
Br136	Br	1.523060	1.263627	0.034484
Br137	Br	1.261528	0.763626	-0.243875
Br138	Br	1.761528	1.263626	0.256125
Br139	Br	0.421671	0.243832	-0.465869
Br140	Br	0.921671	0.743832	0.034131
H141	H	0.443886	0.439886	-0.269182
H142	H	0.943886	0.939886	0.230818
H143	H	0.567918	0.222326	-0.487386
H144	H	1.067918	0.722326	0.012614
H145	H	1.234122	0.269086	-0.785372
H146	H	1.734122	0.769086	-0.285372
Br147	Br	1.023174	0.465351	-0.945570
Br148	Br	1.523174	0.965351	-0.445570
Br149	Br	0.740114	0.196775	-0.512955
Br150	Br	1.240114	0.696775	-0.012955
