data_functionalizedCrystal
_audit_creation_method	'MofGen! by Chris Wilmer'
_symmetry_space_group_name_H-M	'P1'
_symmetry_Int_Tables_number	1
_symmetry_cell_setting	triclinic
loop_
_symmetry_equiv_pos_as_xyz
  x,y,z
_cell_length_a	15.995350
_cell_length_b	14.519709
_cell_length_c	12.996460
_cell_angle_alpha	90.007090
_cell_angle_beta	90.001937
_cell_angle_gamma	83.586260
loop_
_atom_site_label
_atom_site_type_symbol
_atom_site_fract_x
_atom_site_fract_y
_atom_site_fract_z
O1	O	-1.111165	-0.118875	-0.085482
O2	O	-0.777831	0.214458	0.247851
O3	O	-0.444498	0.547792	0.581185
O4	O	-0.867411	-0.133554	-0.085503
O5	O	-0.534078	0.199779	0.247830
O6	O	-0.200745	0.533113	0.581163
O7	O	-0.995751	0.008036	-0.085483
O8	O	-0.662417	0.341369	0.247851
O9	O	-0.329084	0.674702	0.581184
O10	O	-0.982825	-0.260465	-0.085502
O11	O	-0.649492	0.072869	0.247831
O12	O	-0.316159	0.406202	0.581164
O13	O	-0.995737	0.008044	0.085651
O14	O	-0.662404	0.341377	0.418984
O15	O	-0.329071	0.674710	0.752318
O16	O	-0.867398	-0.133546	0.085630
O17	O	-0.534065	0.199787	0.418964
O18	O	-0.200731	0.533120	0.752297
O19	O	-1.111151	-0.118867	0.085652
O20	O	-0.777818	0.214466	0.418985
O21	O	-0.444485	0.547800	0.752319
Cu22	Cu	-0.989273	-0.126206	0.101267
Cu23	Cu	-0.655940	0.207127	0.434600
Cu24	Cu	-0.322607	0.540461	0.767934
Cu25	Cu	-0.989289	-0.126215	-0.101118
Cu26	Cu	-0.655956	0.207118	0.232215
Cu27	Cu	-0.322623	0.540451	0.565548
O28	O	-0.982812	-0.260457	0.085631
O29	O	-0.649479	0.072876	0.418965
O30	O	-0.316145	0.406210	0.752298
C31	C	-0.995142	0.042398	0.000084
C32	C	-0.661808	0.375732	0.333418
C33	C	-0.328475	0.709065	0.666751
C34	C	-0.993337	0.144776	0.000085
C35	C	-0.660003	0.478110	0.333418
C36	C	-0.326670	0.811443	0.666751
C37	C	-0.836209	-0.132943	0.000061
C38	C	-0.502876	0.200390	0.333394
C39	C	-0.169542	0.533723	0.666728
C40	C	-0.743256	-0.131124	0.000053
C41	C	-0.409923	0.202209	0.333386
C42	C	-0.076589	0.535543	0.666720
C43	C	-1.142354	-0.119478	0.000085
C44	C	-0.809020	0.213856	0.333419
C45	C	-0.475687	0.547189	0.666752
C46	C	-1.235307	-0.121297	0.000087
C47	C	-0.901973	0.212036	0.333420
C48	C	-0.568640	0.545370	0.666753
C49	C	-0.405499	-0.124590	0.000075
C50	C	-0.072165	0.208743	0.333408
C51	C	0.261168	0.542077	0.666742
C52	C	-0.452782	-0.023752	0.000464
C53	C	-0.119448	0.309581	0.333797
C54	C	0.213885	0.642914	0.667131
C55	C	-0.549475	-0.025572	0.000071
C56	C	-0.216141	0.307761	0.333404
C57	C	0.117192	0.641094	0.666738
C58	C	-0.573064	-0.127831	0.000065
C59	C	-0.239731	0.205502	0.333398
C60	C	0.093603	0.538836	0.666731
C61	C	-0.532059	-0.177572	-0.097661
C62	C	-0.198726	0.155761	0.235673
C63	C	0.134608	0.489095	0.569006
C64	C	-0.435419	-0.175039	-0.097735
C65	C	-0.102086	0.158294	0.235598
C66	C	0.231247	0.491628	0.568931
C67	C	-0.435068	-0.177113	0.096876
C68	C	-0.101735	0.156220	0.430209
C69	C	0.231598	0.489553	0.763543
C70	C	-0.532014	-0.177089	0.098160
C71	C	-0.198680	0.156244	0.431494
C72	C	0.134653	0.489577	0.764827
C73	C	-0.667764	-0.129668	0.000055
C74	C	-0.334431	0.203665	0.333389
C75	C	-0.001098	0.536999	0.666722
C76	C	-0.310798	-0.122756	0.000077
C77	C	0.022535	0.210577	0.333411
C78	C	0.355869	0.543911	0.666744
C79	C	-0.983421	-0.294819	0.000062
C80	C	-0.650088	0.038514	0.333395
C81	C	-0.316754	0.371847	0.666729
C82	C	-0.985226	-0.397197	0.000055
C83	C	-0.651893	-0.063864	0.333388
C84	C	-0.318559	0.269469	0.666722
N85	N	-0.989268	-0.126199	0.243614
N86	N	-0.655935	0.207134	0.576948
N87	N	-0.322602	0.540468	0.910281
C88	C	-0.986691	0.519660	0.000057
C89	C	-0.653358	0.852993	0.333391
C90	C	-0.320024	1.186327	0.666724
C91	C	-0.988537	0.415355	0.000065
C92	C	-0.655203	0.748689	0.333399
C93	C	-0.321870	1.082022	0.666732
C94	C	-0.990014	0.332221	0.000072
C95	C	-0.656680	0.665555	0.333405
C96	C	-0.323347	0.998888	0.666739
C97	C	-0.991859	0.227910	0.000078
C98	C	-0.658526	0.561244	0.333411
C99	C	-0.325193	0.894577	0.666745
N100	N	-0.989301	-0.126215	-0.243466
N101	N	-0.655968	0.207118	0.089868
N102	N	-0.322634	0.540452	0.423201
C103	C	-0.989288	-0.126216	0.663428
C104	C	-0.655955	0.207117	0.996762
C105	C	-0.322621	0.540451	1.330095
C106	C	-0.989280	-0.126214	0.546623
C107	C	-0.655947	0.207119	0.879957
C108	C	-0.322613	0.540452	1.213290
C109	C	-0.989279	-0.126208	0.453525
C110	C	-0.655945	0.207125	0.786858
C111	C	-0.322612	0.540458	1.120192
C112	C	-0.989270	-0.126205	0.336712
C113	C	-0.655937	0.207128	0.670046
C114	C	-0.322603	0.540462	1.003379
H115	H	-0.577839	0.013527	0.070125
H116	H	-0.244506	0.346860	0.403458
H117	H	0.088827	0.680193	0.736792
C118	C	-0.570317	-0.130908	-0.195908
C119	C	-0.236984	0.202425	0.137425
C120	C	0.096349	0.535758	0.470759
H121	H	-0.611268	-0.081120	-0.177581
H122	H	-0.277935	0.252213	0.155753
H123	H	0.055398	0.585546	0.489086
H124	H	-0.596120	-0.174956	-0.235450
H125	H	-0.262787	0.158377	0.097883
H126	H	0.070546	0.491710	0.431217
H127	H	-0.527160	-0.107839	-0.235296
H128	H	-0.193827	0.225494	0.098037
H129	H	0.139506	0.558827	0.431370
H130	H	-0.434194	0.016558	0.070547
H131	H	-0.100860	0.349891	0.403880
H132	H	0.232473	0.683225	0.737214
H133	H	-0.433133	0.016366	-0.069227
H134	H	-0.099800	0.349699	0.264107
H135	H	0.233533	0.683033	0.597440
H136	H	-0.547490	-0.251660	0.104058
H137	H	-0.214157	0.081674	0.437392
H138	H	0.119177	0.415007	0.770725
H139	H	-0.546297	-0.252699	-0.101299
H140	H	-0.212963	0.080634	0.232034
H141	H	0.120370	0.413967	0.565368
C142	C	-0.410617	-0.126040	-0.196408
C143	C	-0.077283	0.207294	0.136925
C144	C	0.256050	0.540627	0.470259
H145	H	-0.459581	-0.107862	-0.236068
H146	H	-0.126248	0.225471	0.097266
H147	H	0.207085	0.558804	0.430599
H148	H	-0.372707	-0.167243	-0.235481
H149	H	-0.039374	0.166090	0.097853
H150	H	0.293959	0.499424	0.431186
H151	H	-0.384275	-0.072767	-0.178546
H152	H	-0.050941	0.260566	0.154787
H153	H	0.282392	0.593900	0.488121
C154	C	-0.407255	-0.132578	0.196943
C155	C	-0.073921	0.200755	0.530277
C156	C	0.259412	0.534089	0.863610
H157	H	-0.377347	-0.081527	0.180619
H158	H	-0.044014	0.251806	0.513952
H159	H	0.289320	0.585139	0.847285
H160	H	-0.371847	-0.177077	0.235094
H161	H	-0.038514	0.156257	0.568427
H162	H	0.294820	0.489590	0.901761
H163	H	-0.455417	-0.111632	0.236842
H164	H	-0.122084	0.221702	0.570175
H165	H	0.211249	0.555035	0.903509
C166	C	-0.568827	-0.128037	0.195830
C167	C	-0.235493	0.205296	0.529163
C168	C	0.097840	0.538629	0.862496
H169	H	-0.609049	-0.077750	0.176916
H170	H	-0.275716	0.255583	0.510249
H171	H	0.057617	0.588916	0.843582
H172	H	-0.524896	-0.105382	0.234211
H173	H	-0.191563	0.227951	0.567544
H174	H	0.141771	0.561284	0.900878
H175	H	-0.595267	-0.170720	0.236610
H176	H	-0.261934	0.162613	0.569944
H177	H	0.071400	0.495946	0.903277
C178	C	-0.391996	-0.275044	-0.103742
C179	C	-0.058663	0.058289	0.229591
C180	C	0.274670	0.391622	0.562925
H181	H	-0.332695	-0.274175	-0.103822
H182	H	0.000638	0.059158	0.229512
H183	H	0.333971	0.392492	0.562845
H184	H	-0.408634	-0.303464	-0.165145
H185	H	-0.075300	0.029870	0.168189
H186	H	0.258033	0.363203	0.501522
H187	H	-0.407865	-0.309186	-0.045951
H188	H	-0.074531	0.024147	0.287382
H189	H	0.258802	0.357481	0.620715
H190	H	-0.577279	0.013784	-0.070099
H191	H	-0.243946	0.347118	0.263234
H192	H	0.089388	0.680451	0.596568
H193	H	-0.403418	-0.251460	0.097532
H194	H	-0.070085	0.081873	0.430865
H195	H	0.263248	0.415206	0.764199
