data_functionalizedCrystal
_audit_creation_method	'MofGen! by Chris Wilmer'
_symmetry_space_group_name_H-M	'P1'
_symmetry_Int_Tables_number	1
_symmetry_cell_setting	triclinic
loop_
_symmetry_equiv_pos_as_xyz
  x,y,z
_cell_length_a	25.639243
_cell_length_b	25.639239
_cell_length_c	15.296720
_cell_angle_alpha	99.638856
_cell_angle_beta	99.658289
_cell_angle_gamma	90.041410
loop_
_atom_site_label
_atom_site_type_symbol
_atom_site_fract_x
_atom_site_fract_y
_atom_site_fract_z
Zn1	Zn	0.748047	-0.259267	-0.510104
Zn2	Zn	1.248047	0.240733	-0.010104
Zn3	Zn	0.763106	-0.331577	-0.359248
Zn4	Zn	1.263106	0.168423	0.140752
Zn5	Zn	0.675757	-0.244163	-0.359264
Zn6	Zn	1.175757	0.255837	0.140736
Zn7	Zn	0.660575	-0.346671	-0.510041
Zn8	Zn	1.160575	0.153329	-0.010041
O9	O	0.711871	-0.295419	-0.434664
O10	O	1.211871	0.204581	0.065336
O11	O	0.823208	-0.268863	-0.490112
O12	O	1.323208	0.231137	0.009888
O13	O	0.764174	-0.307343	-0.233016
O14	O	1.264174	0.192657	0.266984
O15	O	0.685398	-0.173004	-0.379306
O16	O	1.185398	0.326996	0.120694
O17	O	0.834271	-0.321989	-0.379279
O18	O	1.334271	0.178011	0.120721
O19	O	0.738509	-0.184102	-0.490127
O20	O	1.238509	0.315898	0.009873
O21	O	0.700000	-0.243120	-0.233028
O22	O	1.200000	0.256880	0.266972
O23	O	0.600580	-0.257757	-0.379245
O24	O	1.100580	0.242243	0.120755
O25	O	0.659522	-0.347715	-0.636283
O26	O	1.159522	0.152285	-0.136283
O27	O	0.589425	-0.333069	-0.490021
O28	O	1.089425	0.166931	0.009979
O29	O	0.723788	-0.283500	-0.636329
O30	O	1.223788	0.216500	-0.136329
O31	O	0.749453	-0.406741	-0.379218
O32	O	1.249453	0.093259	0.120782
O33	O	0.674124	-0.417831	-0.490005
O34	O	1.174124	0.082169	0.009995
C35	C	0.576032	-0.295412	-0.434628
C36	C	1.076032	0.204588	0.065372
C37	C	0.517917	-0.295424	-0.434635
C38	C	1.017917	0.204576	0.065365
C39	C	0.151775	-0.267819	-0.492471
C40	C	0.651775	0.232181	0.007529
C41	C	0.097171	-0.267819	-0.492477
C42	C	0.597171	0.232181	0.007523
O43	O	0.064025	-0.244334	-0.541607
O44	O	0.564025	0.255666	-0.041607
N45	N	0.075629	-0.295420	-0.434689
N46	N	0.575629	0.204580	0.065311
C47	C	0.108697	-0.323019	-0.376886
C48	C	0.608697	0.176981	0.123114
O49	O	0.085361	-0.346495	-0.327733
O50	O	0.585361	0.153505	0.172267
C51	C	0.163301	-0.323015	-0.376876
C52	C	0.663301	0.176985	0.123124
C53	C	0.184839	-0.295417	-0.434674
C54	C	0.684839	0.204583	0.065326
C55	C	0.173313	-0.240222	-0.550263
C56	C	0.673313	0.259778	-0.050263
C57	C	0.227914	-0.240223	-0.550259
C58	C	0.727914	0.259777	-0.050259
C59	C	0.260977	-0.267821	-0.492462
C60	C	0.760977	0.232179	0.007538
C61	C	0.239440	-0.295418	-0.434669
C62	C	0.739440	0.204582	0.065331
C63	C	0.196369	-0.350610	-0.319069
C64	C	0.696369	0.149390	0.180931
C65	C	0.250976	-0.350604	-0.319064
C66	C	0.750976	0.149396	0.180936
C67	C	0.272513	-0.323005	-0.376862
C68	C	0.772513	0.176995	0.123138
C69	C	0.327104	-0.323016	-0.376868
C70	C	0.827104	0.176984	0.123132
N71	N	0.348645	-0.295415	-0.434655
N72	N	0.848645	0.204585	0.065345
C73	C	0.315582	-0.267817	-0.492452
C74	C	0.815582	0.232183	0.007548
C75	C	-0.005976	-0.323023	-0.376909
C76	C	0.494024	0.176977	0.123091
C77	C	-0.060579	-0.323030	-0.376922
C78	C	0.439421	0.176970	0.123078
C79	C	-0.072102	-0.267830	-0.492512
C80	C	0.427898	0.232170	0.007488
C81	C	-0.017498	-0.267826	-0.492503
C82	C	0.482502	0.232174	0.007497
C83	C	0.015565	-0.295422	-0.434696
C84	C	0.515565	0.204578	0.065304
C85	C	0.430248	-0.267821	-0.492439
C86	C	0.930248	0.232179	0.007561
C87	C	0.484854	-0.267826	-0.492432
C88	C	0.984854	0.232174	0.007568
C89	C	0.496373	-0.323024	-0.376839
C90	C	0.996373	0.176976	0.123161
C91	C	0.441771	-0.323022	-0.376849
C92	C	0.941771	0.176978	0.123151
C93	C	0.408710	-0.295416	-0.434652
C94	C	0.908710	0.204584	0.065348
O95	O	0.360282	-0.346487	-0.327760
O96	O	0.860282	0.153513	0.172240
O97	O	0.338926	-0.244339	-0.541589
O98	O	0.838926	0.255661	-0.041589
C99	C	0.711787	-0.431258	-0.434623
C100	C	1.211787	0.068742	0.065377
C101	C	0.711796	-0.489373	-0.434635
C102	C	1.211796	0.010627	0.065365
C103	C	0.751172	-0.843962	-0.377076
C104	C	1.251172	-0.343962	0.122924
C105	C	0.751191	-0.898567	-0.377088
C106	C	1.251191	-0.398567	0.122912
O107	O	0.784584	-0.921890	-0.328103
O108	O	1.284584	-0.421890	0.171897
N109	N	0.711957	-0.931664	-0.434724
N110	N	1.211957	-0.431664	0.065276
C111	C	0.672704	-0.910154	-0.492358
C112	C	1.172704	-0.410154	0.007642
O113	O	0.639334	-0.943320	-0.541384
O114	O	1.139334	-0.443320	-0.041384
C115	C	0.672688	-0.855550	-0.492350
C116	C	1.172688	-0.355550	0.007650
C117	C	0.711921	-0.822455	-0.434704
C118	C	1.211921	-0.322455	0.065296
C119	C	0.790403	-0.810867	-0.319435
C120	C	1.290403	-0.310867	0.180565
C121	C	0.790383	-0.756265	-0.319422
C122	C	1.290383	-0.256265	0.180578
C123	C	0.751133	-0.734758	-0.377050
C124	C	1.251133	-0.234758	0.122950
C125	C	0.711902	-0.767853	-0.434691
C126	C	1.211902	-0.267853	0.065309
C127	C	0.633437	-0.834041	-0.549988
C128	C	1.133437	-0.334041	-0.049988
C129	C	0.633425	-0.779433	-0.549975
C130	C	1.133425	-0.279433	-0.049975
C131	C	0.672658	-0.746338	-0.492329
C132	C	1.172658	-0.246338	0.007671
C133	C	0.672631	-0.691744	-0.492306
C134	C	1.172631	-0.191744	0.007694
N135	N	0.711866	-0.658647	-0.434669
N136	N	1.211866	-0.158647	0.065331
C137	C	0.751116	-0.680154	-0.377042
C138	C	1.251116	-0.180154	0.122958
C139	C	0.672742	-1.024826	-0.492372
C140	C	1.172742	-0.524826	0.007628
C141	C	0.672756	-1.079429	-0.492376
C142	C	1.172756	-0.579429	0.007624
C143	C	0.751244	-1.067838	-0.377107
C144	C	1.251244	-0.567838	0.122893
C145	C	0.751227	-1.013234	-0.377099
C146	C	1.251227	-0.513234	0.122901
C147	C	0.711976	-0.991729	-0.434736
C148	C	1.211976	-0.491729	0.065264
C149	C	0.751072	-0.565487	-0.377018
C150	C	1.251072	-0.065487	0.122982
C151	C	0.751047	-0.510880	-0.377008
C152	C	1.251047	-0.010880	0.122992
C153	C	0.672561	-0.522476	-0.492280
C154	C	1.172561	-0.022476	0.007720
C155	C	0.672584	-0.577077	-0.492287
C156	C	1.172584	-0.077077	0.007713
C157	C	0.711843	-0.598581	-0.434654
C158	C	1.211843	-0.098581	0.065346
O159	O	0.639257	-0.668385	-0.541268
O160	O	1.139257	-0.168385	-0.041268
O161	O	0.784485	-0.646983	-0.328033
O162	O	1.284485	-0.146983	0.171967
C163	C	0.848240	-0.295427	-0.434701
C164	C	1.348240	0.204573	0.065299
C165	C	0.906353	-0.295430	-0.434716
C166	C	1.406353	0.204570	0.065284
C167	C	0.688282	-0.318976	-0.669953
C168	C	1.188282	0.181024	-0.169953
C169	C	0.678229	-0.329015	-0.770219
C170	C	1.178229	0.170985	-0.270219
C171	C	0.711967	-0.159053	-0.434725
C172	C	1.211967	0.340947	0.065275
C173	C	0.712008	-0.100941	-0.434751
C174	C	1.212008	0.399059	0.065249
C175	C	0.783736	-0.223581	-1.052947
C176	C	1.283736	0.276419	-0.552947
C177	C	0.793184	-0.214151	-0.958743
C178	C	1.293184	0.285849	-0.458743
C179	C	0.764446	-0.242866	-0.911607
C180	C	1.264446	0.257134	-0.411607
C181	C	0.726259	-0.281013	-0.958685
C182	C	1.226259	0.218987	-0.458685
C183	C	0.716813	-0.290448	-1.052899
C184	C	1.216813	0.209552	-0.552899
C185	C	0.697523	-0.309732	-0.911559
C186	C	1.197523	0.190268	-0.411559
C187	C	0.659335	-0.347880	-0.958637
C188	C	1.159335	0.152120	-0.458637
C189	C	0.649891	-0.357313	-1.052842
C190	C	1.149891	0.142687	-0.552842
C191	C	0.678629	-0.328598	-1.099978
C192	C	1.178629	0.171402	-0.599978
C193	C	0.706969	-0.300298	-0.817345
C194	C	1.206969	0.199702	-0.317345
C195	C	0.640045	-0.367164	-0.817297
C196	C	1.140045	0.132836	-0.317297
C197	C	0.630597	-0.376595	-0.911502
C198	C	1.130597	0.123405	-0.411502
C199	C	0.735399	-0.271917	-0.200291
C200	C	1.235399	0.228083	0.299709
C201	C	0.745552	-0.261731	-0.100026
C202	C	1.245552	0.238269	0.399974
H203	H	0.523302	-0.345495	-0.329783
H204	H	1.023302	0.154505	0.170217
H205	H	0.403336	-0.245341	-0.539505
H206	H	0.903336	0.254659	-0.039505
Cl207	Cl	0.414692	-0.357735	-0.304214
Cl208	Cl	0.914692	0.142265	0.195786
Cl209	Cl	-0.113677	-0.233133	-0.565168
Cl210	Cl	0.386323	0.266867	-0.065168
Cl211	Cl	0.601892	-0.405279	-1.112024
Cl212	Cl	1.101892	0.094721	-0.612024
H213	H	0.616645	-0.390547	-0.778919
H214	H	1.116645	0.109453	-0.278919
H215	H	0.599505	-0.407655	-0.949846
H216	H	1.099505	0.092345	-0.449846
Cl217	Cl	0.839754	-0.837894	-0.246978
Cl218	Cl	1.339754	-0.337894	0.253022
Cl219	Cl	0.666756	-0.340455	-1.218412
Cl220	Cl	1.166756	0.159545	-0.718412
H221	H	0.502386	-0.245352	-0.539501
H222	H	1.002386	0.254648	-0.039501
Cl223	Cl	0.839715	-0.714669	-0.246962
Cl224	Cl	1.339715	-0.214669	0.253038
H225	H	0.772141	-0.235185	-0.834901
H226	H	1.272141	0.264815	-0.334901
Cl227	Cl	0.623426	-1.121027	-0.564839
Cl228	Cl	1.123426	-0.621027	-0.064839
Cl229	Cl	0.800587	-1.094886	-0.304658
Cl230	Cl	1.300587	-0.594886	0.195342
Cl231	Cl	0.623222	-0.495428	-0.564727
Cl232	Cl	1.123222	0.004572	-0.064727
Cl233	Cl	0.841189	-0.166196	-0.899565
Cl234	Cl	1.341189	0.333804	-0.399565
Cl235	Cl	0.584078	-0.752402	-0.622440
Cl236	Cl	1.084078	-0.252402	-0.122440
H237	H	0.277894	-0.373075	-0.271988
H238	H	0.777894	0.126925	0.228012
H239	H	0.601487	-0.860978	-0.596926
H240	H	1.101487	-0.360978	-0.096926
H241	H	0.782996	-0.483935	-0.330062
H242	H	1.282996	0.016065	0.169938
H243	H	0.245444	-0.217749	-0.597322
H244	H	0.745444	0.282251	-0.097322
Cl245	Cl	0.623389	-0.997797	-0.564830
Cl246	Cl	1.123389	-0.497797	-0.064830
H247	H	0.146398	-0.217746	-0.597329
H248	H	0.646398	0.282254	-0.097329
Cl249	Cl	0.009572	-0.233128	-0.565163
Cl250	Cl	0.509572	0.266872	-0.065163
H251	H	0.640638	-0.604025	-0.539230
H252	H	1.140638	-0.104025	-0.039230
Cl253	Cl	-0.087649	-0.357733	-0.304267
Cl254	Cl	0.412351	0.142267	0.195733
H255	H	0.020941	-0.345500	-0.329838
H256	H	0.520941	0.154500	0.170162
Cl257	Cl	0.800427	-0.592511	-0.304561
Cl258	Cl	1.300427	-0.092511	0.195439
H259	H	0.783175	-0.986291	-0.330159
H260	H	1.283175	-0.486291	0.169841
H261	H	0.738061	-0.269237	-0.779023
H262	H	1.238061	0.230763	-0.279023
H263	H	0.807134	-0.200209	-1.091334
H264	H	1.307134	0.299791	-0.591334
Cl265	Cl	0.169309	-0.385295	-0.246385
Cl266	Cl	0.669309	0.114705	0.253615
