data_functionalizedCrystal
_audit_creation_method	'MofGen! by Chris Wilmer'
_symmetry_space_group_name_H-M	'P1'
_symmetry_Int_Tables_number	1
_symmetry_cell_setting	triclinic
loop_
_symmetry_equiv_pos_as_xyz
  x,y,z
_cell_length_a	10.540539
_cell_length_b	15.995350
_cell_length_c	9.616153
_cell_angle_alpha	89.999971
_cell_angle_beta	89.995174
_cell_angle_gamma	84.008933
loop_
_atom_site_label
_atom_site_type_symbol
_atom_site_fract_x
_atom_site_fract_y
_atom_site_fract_z
O1	O	1.684270	0.117994	-0.115573
O2	O	1.314705	0.129112	-0.115589
O3	O	1.509590	0.001726	-0.115579
O4	O	1.489385	0.245380	-0.115583
O5	O	1.509563	0.001729	0.115712
O6	O	1.314678	0.129115	0.115702
O7	O	1.684244	0.117997	0.115719
Zn8	Zn	1.499457	0.123556	0.152433
Zn9	Zn	1.499492	0.123553	-0.152303
O10	O	1.489359	0.245383	0.115709
C11	C	1.267400	0.128280	0.000055
C12	C	1.126486	0.125785	0.000048
C13	C	0.944373	0.030202	0.000589
C14	C	1.090956	0.032730	0.000054
C15	C	1.064213	0.170565	-0.132026
C16	C	0.917712	0.167390	-0.132122
C17	C	0.917167	0.169286	0.130899
C18	C	1.064138	0.170143	0.132630
C19	C	1.508741	-0.029472	0.000064
C20	C	1.506237	-0.122438	0.000056
C21	C	1.497244	-0.460239	0.000060
C22	C	1.358450	-0.413635	-0.000465
C23	C	1.360955	-0.316930	0.000057
C24	C	1.501705	-0.292652	0.000057
C25	C	1.570147	-0.333318	0.132137
C26	C	1.566661	-0.429975	0.132247
C27	C	1.569558	-0.430319	-0.130774
C28	C	1.569525	-0.333374	-0.132520
C29	C	1.504233	-0.197939	0.000060
C30	C	1.494719	-0.554952	0.000067
C31	C	1.731549	0.118829	0.000072
C32	C	1.872462	0.121324	0.000070
C33	C	1.490207	0.276581	0.000063
C34	C	1.492711	0.369547	0.000062
N35	N	1.499442	0.123558	0.360408
N36	N	1.499517	0.123544	-0.360278
C37	C	1.394879	0.191473	0.580772
C38	C	1.395104	0.191727	0.419605
C39	C	1.631892	0.143433	0.418863
C40	C	1.631321	0.143914	0.580081
C41	C	1.472879	0.035546	0.580319
C42	C	1.469825	0.036116	0.419092
H43	H	0.886024	0.139172	0.231011
H44	H	1.668560	-0.461614	0.138240
H45	H	1.519485	-0.306426	-0.230229
H46	H	0.868824	0.234313	-0.138118
H47	H	0.889968	0.134291	-0.230848
H48	H	1.412105	0.257014	0.381025
O49	O	1.092560	0.261089	-0.138551
H50	H	1.145331	0.271591	-0.235823
H51	H	1.134043	-0.002504	0.094731
O52	O	1.500510	-0.454622	0.263014
H53	H	1.471301	-0.397527	0.325574
O54	O	1.705493	-0.312224	-0.143094
H55	H	1.726952	-0.272184	-0.053615
H56	H	1.522589	-0.305220	0.230425
O57	O	0.905030	-0.018297	-0.124161
H58	H	0.990189	-0.037823	-0.188880
O59	O	1.264049	0.175895	0.632190
H60	H	1.272200	0.119575	0.700318
H61	H	1.711616	0.096432	0.619073
O62	O	1.284955	-0.438634	-0.125903
H63	H	1.346557	-0.484545	-0.189216
O64	O	1.094976	0.260012	0.143203
H65	H	1.146959	0.268542	0.241718
O66	O	0.853378	0.258313	0.132107
H67	H	0.790133	0.268394	0.040034
H68	H	1.105538	0.137429	0.230339
H69	H	1.673552	-0.318574	0.137049
O70	O	1.705106	-0.471581	-0.131973
H71	H	1.720956	-0.513202	-0.039891
O72	O	1.289666	-0.279696	-0.125335
H73	H	1.253083	-0.330759	-0.186893
H74	H	1.107240	0.139456	-0.230318
O75	O	1.347713	0.010492	0.634217
H76	H	1.269069	0.058108	0.601914
H77	H	1.303211	-0.433558	0.093720
H78	H	1.306770	-0.289388	0.094893
O79	O	1.737499	0.079694	0.368075
H80	H	1.696605	0.033064	0.300463
H81	H	1.524191	-0.451131	-0.230882
H82	H	1.296651	0.179768	0.380086
O83	O	1.417091	0.277469	0.634396
H84	H	1.502335	0.272041	0.702848
O85	O	1.662411	0.228955	0.629877
H86	H	1.662319	0.230141	0.745285
O87	O	1.663723	0.227519	0.365390
H88	H	1.585422	0.255283	0.297198
H89	H	1.372394	0.021051	0.380888
H90	H	1.541080	-0.016861	0.378801
H91	H	1.133200	-0.002755	-0.094786
H92	H	0.916282	-0.006559	0.095307
O93	O	1.573938	-0.031434	0.630820
H94	H	1.642813	-0.002246	0.697903
