data_functionalizedCrystal
_audit_creation_method	'MofGen! by Chris Wilmer'
_symmetry_space_group_name_H-M	'P1'
_symmetry_Int_Tables_number	1
_symmetry_cell_setting	triclinic
loop_
_symmetry_equiv_pos_as_xyz
  x,y,z
_cell_length_a	12.837943
_cell_length_b	13.596369
_cell_length_c	12.837942
_cell_angle_alpha	89.994711
_cell_angle_beta	85.171060
_cell_angle_gamma	90.004014
loop_
_atom_site_label
_atom_site_type_symbol
_atom_site_fract_x
_atom_site_fract_y
_atom_site_fract_z
O1	O	1.402337	0.081773	-0.272142
O2	O	1.902337	0.581773	0.227858
O3	O	1.099204	0.081779	-0.258699
O4	O	1.599204	0.581779	0.241301
O5	O	1.244049	0.081770	-0.113854
O6	O	1.744049	0.581770	0.386146
O7	O	1.257492	0.081782	-0.416987
O8	O	1.757492	0.581782	0.083013
O9	O	1.244032	-0.081813	-0.113844
O10	O	1.744032	0.418187	0.386156
O11	O	1.099187	-0.081804	-0.258689
O12	O	1.599187	0.418196	0.241311
O13	O	1.402320	-0.081810	-0.272132
O14	O	1.902320	0.418190	0.227868
Zn15	Zn	1.250751	-0.107779	-0.265409
Zn16	Zn	1.750751	0.392221	0.234591
Zn17	Zn	1.250773	0.107748	-0.265422
Zn18	Zn	1.750773	0.607748	0.234578
O19	O	1.257475	-0.081801	-0.416977
O20	O	1.757475	0.418199	0.083023
C21	C	1.060126	-0.000012	-0.254153
C22	C	1.560126	0.499988	0.245847
C23	C	0.943711	-0.000010	-0.240608
C24	C	1.443711	0.499990	0.259392
N25	N	1.250743	-0.254871	-0.265400
N26	N	1.750743	0.245129	0.234600
C27	C	0.718837	-0.000018	-0.403437
C28	C	1.218837	0.499982	0.096563
C29	C	0.609454	-0.000016	-0.390716
C30	C	1.109454	0.499984	0.109284
C31	C	0.615562	-0.000013	-0.202445
C32	C	1.115562	0.499987	0.297555
C33	C	0.724944	-0.000014	-0.215166
C34	C	1.224944	0.499986	0.284834
C35	C	0.776578	-0.000015	-0.315666
C36	C	1.276578	0.499985	0.184334
C37	C	0.885962	-0.000009	-0.328386
C38	C	1.385962	0.499991	0.171614
C39	C	0.892067	-0.000013	-0.140116
C40	C	1.392067	0.499987	0.359884
C41	C	0.782685	-0.000012	-0.127395
C42	C	1.282685	0.499988	0.372605
C43	C	1.250772	-0.656162	-0.265423
C44	C	1.750772	-0.156162	0.234577
C45	C	1.250761	-0.544511	-0.265420
C46	C	1.750761	-0.044511	0.234580
C47	C	1.250758	-0.455520	-0.265412
C48	C	1.750758	0.044480	0.234588
C49	C	1.250746	-0.343862	-0.265407
C50	C	1.750746	0.156138	0.234593
C51	C	1.441398	-0.000017	-0.276679
C52	C	1.941398	0.499983	0.223321
C53	C	1.557813	-0.000013	-0.290223
C54	C	2.057813	0.499987	0.209777
C55	C	1.239499	-0.000021	-0.074780
C56	C	1.739499	0.499979	0.425220
C57	C	1.225954	-0.000019	0.041635
C58	C	1.725954	0.499981	0.541635
N59	N	1.250788	0.254840	-0.265424
N60	N	1.750788	0.754840	0.234576
C61	C	1.262025	-0.000008	-0.456051
C62	C	1.762025	0.499992	0.043949
C63	C	1.275569	-0.000004	-0.572467
C64	C	1.775569	0.499996	-0.072467
C65	C	1.388784	-0.000002	0.266510
C66	C	1.888784	0.499998	0.766510
C67	C	1.376062	0.000000	0.375892
C68	C	1.876062	0.500000	0.875892
C69	C	1.187791	-0.000006	0.369785
C70	C	1.687791	0.499994	0.869785
C71	C	1.200513	-0.000008	0.260402
C72	C	1.700513	0.499992	0.760402
C73	C	1.301012	-0.000007	0.208769
C74	C	1.801012	0.499993	0.708769
C75	C	1.313732	-0.000016	0.099384
C76	C	1.813732	0.499984	0.599384
C77	C	1.125462	-0.000016	0.093279
C78	C	1.625462	0.499984	0.593279
C79	C	1.112741	-0.000014	0.202661
C80	C	1.612741	0.499986	0.702661
H81	H	0.928000	-0.000012	-0.410218
H82	H	1.428000	0.499988	0.089782
H83	H	1.470614	-0.000010	0.224469
H84	H	1.970614	0.499990	0.724469
H85	H	0.573502	-0.000094	-0.120623
H86	H	1.073502	0.499906	0.379377
H87	H	1.447536	0.000008	0.422901
H88	H	1.947536	0.500008	0.922901
O89	O	0.732475	0.000165	-0.029797
O90	O	1.232475	0.500165	0.470203
C91	C	0.669372	0.084874	-0.016831
C92	C	1.169372	0.584874	0.483169
H93	H	0.700608	0.144085	-0.074094
H94	H	1.200608	0.644085	0.425906
H95	H	0.670832	0.113318	0.066564
H96	H	1.170832	0.613318	0.566564
H97	H	0.585652	0.065717	-0.032478
H98	H	1.085652	0.565717	0.467522
O99	O	1.090248	-0.000048	0.420116
O100	O	1.590248	0.499952	0.920116
C101	C	1.097848	-0.000014	0.529041
C102	C	1.597848	0.499986	1.029041
H103	H	1.177011	-0.030980	0.546604
H104	H	1.677011	0.469020	1.046604
H105	H	1.032895	-0.047505	0.568677
H106	H	1.532895	0.452495	1.068677
H107	H	1.089783	0.078467	0.559922
H108	H	1.589783	0.578467	1.059922
H109	H	1.030917	-0.000011	0.244717
H110	H	1.530917	0.499989	0.744717
H111	H	1.395564	-0.000019	0.057346
H112	H	1.895564	0.499981	0.557346
O113	O	0.948317	-0.000051	-0.054959
O114	O	1.448317	0.499949	0.445041
C115	C	1.055933	-0.000020	-0.087733
C116	C	1.555933	0.499980	0.412267
H117	H	1.068250	-0.030997	-0.170364
H118	H	1.568250	0.469003	0.329636
H119	H	1.099454	-0.047504	-0.032439
H120	H	1.599454	0.452496	0.467561
H121	H	1.087118	0.078462	-0.086896
H122	H	1.587118	0.578462	0.413104
O123	O	1.040082	-0.000065	0.037348
O124	O	1.540082	0.499935	0.537348
C125	C	0.948656	-0.000042	0.106381
C126	C	1.448656	0.499958	0.606381
H127	H	0.967185	-0.031002	0.185254
H128	H	1.467185	0.468998	0.685254
H129	H	0.886495	-0.047542	0.072652
H130	H	1.386495	0.452458	0.572652
H131	H	0.918360	0.078436	0.117060
H132	H	1.418360	0.578436	0.617060
O133	O	0.768884	0.000118	-0.501108
O134	O	1.268884	0.500118	-0.001108
C135	C	0.740329	0.084855	-0.555262
C136	C	1.240329	0.584855	-0.055262
H137	H	0.661780	0.113100	-0.519264
H138	H	1.161780	0.613100	-0.019264
H139	H	0.733796	0.065807	-0.640943
H140	H	1.233796	0.565807	-0.140943
H141	H	0.802320	0.144179	-0.549372
H142	H	1.302320	0.644179	-0.049372
O143	O	0.553252	0.000118	-0.475898
O144	O	1.053252	0.500118	0.024102
C145	C	0.489827	0.084853	-0.474197
C146	C	0.989827	0.584853	0.025803
H147	H	0.476094	0.113099	-0.390564
H148	H	0.976094	0.613099	0.109436
H149	H	0.411615	0.065801	-0.505091
H150	H	0.911615	0.565801	-0.005091
H151	H	0.530484	0.144177	-0.525559
H152	H	1.030484	0.644177	-0.025559
