data_functionalizedCrystal
_audit_creation_method	'MofGen! by Chris Wilmer'
_symmetry_space_group_name_H-M	'P1'
_symmetry_Int_Tables_number	1
_symmetry_cell_setting	triclinic
loop_
_symmetry_equiv_pos_as_xyz
  x,y,z
_cell_length_a	6.394989
_cell_length_b	17.699083
_cell_length_c	16.176319
_cell_angle_alpha	90.001389
_cell_angle_beta	90.003737
_cell_angle_gamma	84.890363
loop_
_atom_site_label
_atom_site_type_symbol
_atom_site_fract_x
_atom_site_fract_y
_atom_site_fract_z
O1	O	-0.264132	-1.006774	-0.068625
O2	O	-0.298496	-0.786747	-0.068651
O3	O	0.022766	-0.899883	-0.068638
O4	O	-0.585394	-0.893637	-0.068638
O5	O	0.022787	-0.899867	0.068855
O6	O	-0.298475	-0.786730	0.068842
O7	O	-0.264111	-1.006758	0.068868
Cu8	Cu	-0.281291	-0.896743	0.081409
Cu9	Cu	-0.281315	-0.896762	-0.081193
O10	O	-0.585373	-0.893621	0.068855
C11	C	-0.297254	-0.758529	0.000092
C12	C	-0.293560	-0.674473	0.000081
C13	C	-0.265353	-1.034976	0.000123
C14	C	-0.269047	-1.119031	0.000128
N15	N	-0.281273	-0.896735	0.195774
C16	C	0.100592	-0.898640	0.000105
C17	C	0.336808	-0.894866	0.000104
N18	N	-0.281317	-0.896776	-0.195558
C19	C	-0.482134	-0.627777	0.000082
C20	C	-0.478651	-0.548798	0.000092
C21	C	-0.286591	-0.516517	0.000097
C22	C	-0.098003	-0.563220	0.000099
C23	C	-0.101488	-0.642197	0.000094
C24	C	-0.083942	-0.244713	0.000119
C25	C	-0.080470	-0.165730	0.000122
C26	C	-0.461104	-0.151314	0.000118
C27	C	-0.464590	-0.230291	0.000113
C28	C	-0.276002	-0.276987	0.000119
C29	C	-0.279782	-0.362625	0.000109
C30	C	-0.282810	-0.430881	0.000101
C31	C	-0.139076	-0.946848	0.239044
C32	C	-0.139074	-0.946852	0.325591
C33	C	-0.281280	-0.896746	0.368867
C34	C	-0.423484	-0.846627	0.325591
C35	C	-0.423474	-0.846620	0.239045
C36	C	-0.423523	-0.846653	0.674619
C37	C	-0.423526	-0.846666	0.761171
C38	C	-0.139123	-0.946885	0.761165
C39	C	-0.139113	-0.946878	0.674620
C40	C	-0.281308	-0.896757	0.631351
C41	C	-0.281306	-0.896753	0.537507
C42	C	-0.281294	-0.896753	0.462710
H43	H	-0.638531	-0.654053	0.000078
H44	H	-0.023285	-0.987657	0.360821
H45	H	-0.620984	-0.256569	0.000106
C46	C	-0.579950	-0.791541	0.808776
C47	C	-0.579961	-0.791555	0.903973
C48	C	-0.736377	-0.736434	0.951579
C49	C	-0.892782	-0.681300	0.903989
C50	C	-0.892777	-0.681284	0.808787
C51	C	-0.736361	-0.736404	0.761180
H52	H	-0.464176	-0.832370	0.939207
H53	H	-0.736380	-0.736446	1.022054
H54	H	-1.008570	-0.640496	0.939229
H55	H	-1.008562	-0.640468	0.773552
H56	H	-0.736358	-0.736392	0.690705
H57	H	-0.614661	-0.113284	0.000117
C58	C	0.017318	-1.001994	0.627016
C59	C	0.255161	-0.998458	0.638924
C60	C	0.411601	-1.053572	0.591321
C61	C	0.330197	-1.112222	0.531810
C62	C	0.092342	-1.115760	0.519900
C63	C	-0.064098	-1.060646	0.567503
H64	H	0.315431	-0.955040	0.682979
H65	H	0.587677	-1.050953	0.600138
H66	H	0.446003	-1.153021	0.496572
H67	H	0.032072	-1.159178	0.475845
H68	H	-0.240174	-1.063265	0.558686
H69	H	-0.632207	-0.510780	0.000092
C70	C	-0.579917	-0.791508	0.373190
C71	C	-0.580045	-0.791549	0.468386
C72	C	-0.736488	-0.736430	0.515982
C73	C	-0.892804	-0.681271	0.468381
C74	C	-0.892682	-0.681228	0.373179
C75	C	-0.736239	-0.736347	0.325583
H76	H	-0.464325	-0.832383	0.503628
H77	H	-0.736577	-0.736462	0.586457
H78	H	-1.008613	-0.640469	0.503614
H79	H	-1.008402	-0.640395	0.337937
H80	H	-0.736150	-0.736315	0.255108
H81	H	-0.023284	-0.987653	0.203815
H82	H	-0.023333	-0.987694	0.796404
H83	H	-0.539263	-0.805812	0.203816
H84	H	0.058376	-0.536930	0.000114
H85	H	0.069618	-0.282724	0.000125
H86	H	0.052069	-0.680217	0.000093
H87	H	0.075937	-0.139450	0.000126
H88	H	-0.539307	-0.805845	0.639397
