data_functionalizedCrystal
_audit_creation_method	'MofGen! by Chris Wilmer'
_symmetry_space_group_name_H-M	'P1'
_symmetry_Int_Tables_number	1
_symmetry_cell_setting	triclinic
loop_
_symmetry_equiv_pos_as_xyz
  x,y,z
_cell_length_a	18.050591
_cell_length_b	16.120484
_cell_length_c	16.120297
_cell_angle_alpha	95.614431
_cell_angle_beta	87.127539
_cell_angle_gamma	87.078125
loop_
_atom_site_label
_atom_site_type_symbol
_atom_site_fract_x
_atom_site_fract_y
_atom_site_fract_z
Zn1	Zn	1.097108	0.356841	0.489590
Zn2	Zn	1.597108	0.856841	0.989590
Zn3	Zn	1.097015	0.489530	0.356900
Zn4	Zn	1.597015	0.989530	0.856900
Zn5	Zn	0.979550	0.349767	0.349821
Zn6	Zn	1.479550	0.849767	0.849821
Zn7	Zn	0.966254	0.496560	0.496606
Zn8	Zn	1.466254	0.996560	0.996606
O9	O	1.034982	0.423175	0.423229
O10	O	1.534982	0.923175	0.923229
O11	O	1.201019	0.374461	0.472014
O12	O	1.701019	0.874461	0.972014
O13	O	1.086958	0.465088	0.239000
O14	O	1.586958	0.965088	0.739000
O15	O	1.000748	0.233740	0.362463
O16	O	1.500748	0.733740	0.862463
O17	O	1.200950	0.471947	0.374528
O18	O	1.700950	0.971947	0.874528
O19	O	1.087118	0.238938	0.465150
O20	O	1.587118	0.738938	0.965150
O21	O	1.000658	0.362404	0.233799
O22	O	1.500658	0.862404	0.733799
O23	O	0.873864	0.369221	0.369266
O24	O	1.373864	0.869221	0.869266
O25	O	0.978086	0.483929	0.612637
O26	O	1.478086	0.983929	1.112637
O27	O	0.864095	0.477070	0.477109
O28	O	1.364095	0.977070	0.977109
O29	O	1.074225	0.381277	0.607482
O30	O	1.574225	0.881277	1.107482
O31	O	1.074065	0.607428	0.381332
O32	O	1.574065	1.107428	0.881332
O33	O	0.977995	0.612593	0.483973
O34	O	1.477995	1.112593	0.983973
C35	C	0.842033	0.423141	0.423182
C36	C	1.342033	0.923141	0.923182
C37	C	0.759487	0.423148	0.423182
C38	C	1.259487	0.923148	0.923182
C39	C	1.024597	0.640339	0.434200
C40	C	1.524597	1.140339	0.934200
C41	C	1.020220	0.733244	0.438921
C42	C	1.520220	1.233244	0.938921
C43	C	1.024683	0.434176	0.641234
C44	C	1.524683	0.934176	1.141234
C45	C	1.020294	0.438865	0.734134
C46	C	1.520294	0.938865	1.234134
C47	C	0.565324	0.364442	0.364662
C48	C	1.065324	0.864442	0.864662
C49	C	0.513265	0.439636	0.347956
C50	C	1.013265	0.939636	0.847956
C51	C	0.608354	0.423175	0.423221
C52	C	1.108354	0.923175	0.923221
C53	C	0.513331	0.348007	0.439927
C54	C	1.013331	0.848007	0.939927
C55	C	0.462366	0.423195	0.423257
C56	C	0.962366	0.923195	0.923257
C57	C	0.557381	0.498408	0.406476
C58	C	1.057381	0.998408	0.906476
C59	C	0.557453	0.406729	0.498481
C60	C	1.057453	0.906729	0.998481
C61	C	0.505411	0.481978	0.481805
C62	C	1.005411	0.981978	0.981805
C63	C	0.692454	0.423163	0.423198
C64	C	1.192454	0.923163	0.923198
C65	C	0.378268	0.423216	0.423280
C66	C	0.878268	0.923216	0.923280
C67	C	1.228684	0.423209	0.423278
C68	C	1.728684	0.923209	0.923278
C69	C	1.311228	0.423223	0.423298
C70	C	1.811228	0.923223	0.923298
C71	C	1.045427	0.205163	0.412234
C72	C	1.545427	0.705163	0.912234
C73	C	1.049878	0.112260	0.407548
C74	C	1.549878	0.612260	0.907548
C75	C	1.012234	0.903343	0.447559
C76	C	1.512234	1.403343	0.947559
C77	C	1.057862	0.942166	0.398914
C78	C	1.557862	1.442166	0.898914
C79	C	1.053418	1.036815	0.403719
C80	C	1.553418	1.536815	0.903719
C81	C	1.016677	0.808686	0.442754
C82	C	1.516677	1.308686	0.942754
C83	C	1.045286	0.412155	0.206070
C84	C	1.545286	0.912155	0.706070
C85	C	1.049830	0.407231	0.113158
C86	C	1.549830	0.907231	0.613158
C87	C	1.012255	0.447406	0.904224
C88	C	1.512255	0.947406	1.404224
C89	C	1.057867	0.398693	0.943074
C90	C	1.557867	0.898693	1.443074
C91	C	1.053394	0.403445	1.037718
C92	C	1.553394	0.903445	1.537718
C93	C	1.016727	0.442655	0.809572
C94	C	1.516727	0.942655	1.309572
H95	H	0.591457	0.314821	0.315093
H96	H	1.091457	0.814821	0.815093
O97	O	0.961602	0.501441	0.949205
O98	O	1.461602	1.001441	1.449205
C99	C	0.920082	0.545825	0.894450
C100	C	1.420082	1.045825	1.394450
H101	H	0.922025	0.508527	0.830464
H102	H	1.422025	1.008527	1.330464
H103	H	0.859974	0.555985	0.920186
H104	H	1.359974	1.055985	1.420186
H105	H	0.944671	0.608851	0.888424
H106	H	1.444671	1.108851	1.388424
H107	H	0.576969	0.392780	0.562090
H108	H	1.076969	0.892780	1.062090
H109	H	1.100262	0.904319	0.353658
H110	H	1.600262	1.404319	0.853658
H111	H	0.479411	0.531710	0.531344
H112	H	0.979411	1.031710	1.031344
O113	O	1.108559	0.344730	0.898050
O114	O	1.608559	0.844730	1.398050
C115	C	1.180717	0.364070	0.920238
C116	C	1.680717	0.864070	1.420238
H117	H	1.177785	0.399315	0.985274
H118	H	1.677785	0.899315	1.485274
H119	H	1.216777	0.303895	0.920067
H120	H	1.716777	0.803895	1.420067
H121	H	1.205939	0.404637	0.873316
H122	H	1.705939	0.904637	1.373316
O123	O	0.490042	0.456109	0.271991
O124	O	0.990042	0.956109	0.771991
C125	C	0.520761	0.394044	0.210410
C126	C	1.020761	0.894044	0.710410
H127	H	0.535960	0.334914	0.240673
H128	H	1.035960	0.834914	0.740673
H129	H	0.478390	0.379822	0.161597
H130	H	0.978390	0.879822	0.661597
H131	H	0.572774	0.417205	0.179165
H132	H	1.072774	0.917205	0.679165
H133	H	0.576729	0.562000	0.392290
H134	H	1.076729	1.062000	0.892290
O135	O	0.961670	0.948611	0.501468
O136	O	1.461670	1.448611	1.001468
C137	C	0.968445	1.034403	0.494327
C138	C	1.468445	1.534403	0.994327
H139	H	0.995324	1.042968	0.430444
H140	H	1.495324	1.542968	0.930444
H141	H	0.911016	1.067988	0.501578
H142	H	1.411016	1.567988	1.001578
H143	H	1.004470	1.061627	0.545183
H144	H	1.504470	1.561627	1.045183
H145	H	0.493857	0.284437	0.454014
H146	H	0.993857	0.784437	0.954014
