data_functionalizedCrystal
_audit_creation_method	'MofGen! by Chris Wilmer'
_symmetry_space_group_name_H-M	'P1'
_symmetry_Int_Tables_number	1
_symmetry_cell_setting	triclinic
loop_
_symmetry_equiv_pos_as_xyz
  x,y,z
_cell_length_a	12.827893
_cell_length_b	16.625546
_cell_length_c	12.827885
_cell_angle_alpha	89.964876
_cell_angle_beta	89.980728
_cell_angle_gamma	90.022439
loop_
_atom_site_label
_atom_site_type_symbol
_atom_site_fract_x
_atom_site_fract_y
_atom_site_fract_z
Zn1	Zn	1.597618	-0.320963	-0.590810
Zn2	Zn	2.097618	0.179037	-0.090810
Zn3	Zn	1.597491	-0.455817	-0.416054
Zn4	Zn	2.097491	0.044183	0.083946
Zn5	Zn	1.422860	-0.321002	-0.416084
Zn6	Zn	1.922860	0.178998	0.083916
Zn7	Zn	1.422823	-0.455757	-0.590754
Zn8	Zn	1.922823	0.044243	-0.090754
O9	O	1.510198	-0.388385	-0.503425
O10	O	2.010198	0.111615	-0.003425
O11	O	1.743837	-0.338861	-0.567639
O12	O	2.243837	0.161139	-0.067639
O13	O	1.574287	-0.437976	-0.269822
O14	O	2.074287	0.062024	0.230178
O15	O	1.446110	-0.208165	-0.439297
O16	O	1.946110	0.291835	0.060703
O17	O	1.743744	-0.437937	-0.439247
O18	O	2.243744	0.062063	0.060753
O19	O	1.574505	-0.208136	-0.567668
O20	O	2.074505	0.291864	-0.067668
O21	O	1.445987	-0.338928	-0.269843
O22	O	1.945987	0.161072	0.230157
O23	O	1.276619	-0.338869	-0.439243
O24	O	1.776619	0.161131	0.060757
O25	O	1.446048	-0.437835	-0.736997
O26	O	1.946048	0.062165	-0.236997
O27	O	1.276592	-0.437873	-0.567572
O28	O	1.776592	0.062127	-0.067572
O29	O	1.574469	-0.338802	-0.737039
O30	O	2.074469	0.161198	-0.237039
O31	O	1.574252	-0.568642	-0.439192
O32	O	2.074252	-0.068642	0.060808
O33	O	1.445925	-0.568598	-0.567544
O34	O	1.945925	-0.068598	-0.067544
C35	C	1.238688	-0.388370	-0.503405
C36	C	1.738688	0.111630	-0.003405
C37	C	1.122535	-0.388382	-0.503422
C38	C	1.622535	0.111618	-0.003422
C39	C	1.510099	-0.597876	-0.503382
C40	C	2.010099	-0.097876	-0.003382
C41	C	1.510152	-0.687497	-0.503398
C42	C	2.010152	-0.187497	-0.003398
C43	C	1.070765	-0.437449	-0.566825
C44	C	1.570765	0.062551	-0.066825
C45	C	0.950714	-0.437464	-0.566844
C46	C	1.450714	0.062536	-0.066844
C47	C	1.510335	-1.015673	-0.503507
C48	C	2.010335	-0.515673	-0.003507
C49	C	1.510281	-0.924364	-0.503479
C50	C	2.010281	-0.424364	-0.003479
C51	C	1.510243	-0.851588	-0.503452
C52	C	2.010243	-0.351588	-0.003452
C53	C	1.510190	-0.760274	-0.503425
C54	C	2.010190	-0.260274	-0.003425
C55	C	1.782768	-0.388401	-0.503446
C56	C	2.282768	0.111599	-0.003446
C57	C	1.898921	-0.388408	-0.503455
C58	C	2.398921	0.111592	-0.003455
C59	C	1.510269	-0.388308	-0.775996
C60	C	2.010269	0.111692	-0.275996
C61	C	1.510299	-0.388275	-0.892149
C62	C	2.010299	0.111725	-0.392149
C63	C	1.510326	-0.178076	-0.503492
C64	C	2.010326	0.321924	-0.003492
C65	C	1.510380	-0.088455	-0.503521
C66	C	2.010380	0.411545	-0.003521
C67	C	1.573853	-0.339261	-0.943954
C68	C	2.073853	0.160739	-0.443954
C69	C	1.573886	-0.339225	-1.064004
C70	C	2.073886	0.160775	-0.564004
C71	C	1.510187	-0.388404	-0.231915
C72	C	2.010187	0.111596	0.268085
C73	C	1.510359	-0.388210	-0.115763
C74	C	2.010359	0.111790	0.384237
H75	H	1.115319	-0.479444	-0.621098
H76	H	1.615319	0.020556	-0.121098
O77	O	1.445464	-0.438421	-0.945139
O78	O	1.945464	0.061579	-0.445139
C79	C	1.468243	-0.518811	-0.918541
C80	C	1.968243	-0.018811	-0.418541
H81	H	1.508323	-0.520562	-0.839269
H82	H	2.008323	-0.020562	-0.339269
H83	H	1.392799	-0.554967	-0.914899
H84	H	1.892799	-0.054967	-0.414899
H85	H	1.522025	-0.545911	-0.979944
H86	H	2.022025	-0.045911	-0.479944
H87	H	1.455950	-0.430178	-1.071218
H88	H	1.955950	0.069822	-0.571218
H89	H	0.906193	-0.479474	-0.621123
H90	H	1.406193	0.020526	-0.121123
H91	H	0.943436	-0.346401	-0.449166
H92	H	1.443436	0.153599	0.050834
O93	O	1.069513	-0.338317	-0.438525
O94	O	1.569513	0.161683	0.061475
C95	C	1.096037	-0.355841	-0.334305
C96	C	1.596037	0.144159	0.165695
H97	H	1.175299	-0.386773	-0.331992
H98	H	1.675299	0.113227	0.168008
H99	H	1.099664	-0.297605	-0.287575
H100	H	1.599664	0.202395	0.212425
H101	H	1.034600	-0.397312	-0.299075
H102	H	1.534600	0.102688	0.200925
O103	O	1.638650	-0.289073	-1.117190
O104	O	2.138650	0.210927	-0.617190
C105	C	1.579145	-0.237032	-1.180357
C106	C	2.079145	0.262968	-0.680357
H107	H	1.496863	-0.232037	-1.147397
H108	H	1.996863	0.267963	-0.647397
H109	H	1.616974	-0.174982	-1.181722
H110	H	2.116974	0.325018	-0.681722
H111	H	1.575481	-0.261995	-1.263030
H112	H	2.075481	0.238005	-0.763030
H113	H	1.628236	-0.297321	-0.899429
H114	H	2.128236	0.202679	-0.399429
