data_functionalizedCrystal
_audit_creation_method	'MofGen! by Chris Wilmer'
_symmetry_space_group_name_H-M	'P1'
_symmetry_Int_Tables_number	1
_symmetry_cell_setting	triclinic
loop_
_symmetry_equiv_pos_as_xyz
  x,y,z
_cell_length_a	15.944551
_cell_length_b	27.732048
_cell_length_c	14.421503
_cell_angle_alpha	89.999321
_cell_angle_beta	89.996859
_cell_angle_gamma	83.070697
loop_
_atom_site_label
_atom_site_type_symbol
_atom_site_fract_x
_atom_site_fract_y
_atom_site_fract_z
O1	O	1.113714	0.062334	-0.077025
O2	O	0.869064	0.070020	-0.077050
O3	O	0.998987	-0.004187	-0.077019
O4	O	0.983791	0.136540	-0.077056
O5	O	0.998966	-0.004176	0.077204
O6	O	0.869042	0.070031	0.077174
O7	O	1.113693	0.062345	0.077198
Cu8	Cu	0.991366	0.066189	0.091268
Cu9	Cu	0.991391	0.066176	-0.091119
O10	O	0.983769	0.136552	0.077168
C11	C	0.837763	0.069706	0.000059
C12	C	0.744530	0.068749	0.000051
C13	C	0.530305	0.020466	0.000081
C14	C	0.469002	0.042882	-0.075965
C15	C	0.573827	0.067019	0.000062
C16	C	0.469003	0.042904	0.076087
C17	C	0.408936	0.065344	0.000077
C18	C	0.513752	0.089447	-0.076047
C19	C	0.513759	0.089463	0.076074
C20	C	0.452474	0.111912	0.000009
C21	C	0.668816	0.067983	0.000053
C22	C	0.313947	0.064384	0.000080
C23	C	0.998658	-0.022190	0.000095
C24	C	0.997697	-0.075849	0.000103
C25	C	1.068426	-0.414358	0.000062
C26	C	1.064862	-0.616033	0.000049
O27	O	1.129539	-0.647008	0.000015
N28	N	0.987823	-0.635490	0.000042
C29	C	0.911669	-0.604525	0.000032
O30	O	0.846061	-0.625703	0.000017
C31	C	0.915234	-0.402851	0.000039
C32	C	0.992278	-0.383397	0.000055
C33	C	1.145464	-0.394903	0.000077
C34	C	1.146354	-0.344487	0.000086
C35	C	1.070206	-0.313526	0.000079
C36	C	0.993168	-0.332981	0.000064
C37	C	0.839081	-0.371887	0.000023
C38	C	0.839979	-0.321466	0.000022
C39	C	0.917024	-0.302012	0.000038
C40	C	0.917911	-0.251604	0.000065
N41	N	0.994950	-0.232147	0.000072
C42	C	1.071098	-0.263108	0.000079
C43	C	0.909803	-0.710408	0.000031
C44	C	0.908912	-0.760826	0.000031
C45	C	1.062105	-0.772330	0.000045
C46	C	1.062995	-0.721911	0.000052
C47	C	0.986842	-0.690950	0.000038
C48	C	1.072961	-0.157231	0.000097
C49	C	1.073845	-0.106810	0.000109
C50	C	0.920652	-0.095310	0.000090
C51	C	0.919768	-0.145727	0.000083
C52	C	0.995930	-0.176686	0.000083
O53	O	0.853269	-0.220600	0.000089
O54	O	1.136697	-0.241921	0.000074
C55	C	1.067536	-0.464774	0.000054
C56	C	0.990498	-0.484228	0.000039
C57	C	0.914350	-0.453268	0.000032
C58	C	0.989607	-0.534647	0.000039
C59	C	1.065754	-0.565608	0.000045
C60	C	1.142794	-0.546150	0.000052
C61	C	1.143684	-0.495734	0.000061
C62	C	0.837311	-0.472725	0.000025
C63	C	0.836427	-0.523141	0.000018
C64	C	0.912575	-0.554102	0.000024
C65	C	1.144993	0.062658	0.000087
C66	C	1.238227	0.063615	0.000090
C67	C	0.984099	0.154554	0.000051
C68	C	0.985059	0.208213	0.000038
N69	N	0.991354	0.066198	0.219549
N70	N	0.991409	0.066163	-0.219401
C71	C	0.931267	0.100495	0.469189
C72	C	1.007044	0.109880	0.530996
C73	C	0.991374	0.066186	0.408710
C74	C	0.915616	0.056813	0.530997
C75	C	0.991387	0.066176	0.591432
C76	C	1.067190	0.075592	0.469157
C77	C	0.975712	0.022507	0.469153
C78	C	1.051545	0.031872	0.530932
C79	C	0.991366	0.066193	0.303449
C80	C	0.991405	0.066169	0.696691
H81	H	0.449165	0.023210	0.140376
N82	N	0.538688	0.114158	0.156704
N83	N	0.509401	0.157383	0.170998
H84	H	0.527009	0.174822	0.227949
H85	H	0.851544	0.048890	0.558163
H86	H	0.533491	0.109118	-0.140408
H87	H	0.846175	-0.776661	0.000034
H88	H	0.777965	-0.296260	0.000009
H89	H	0.564143	-0.018169	-0.000003
N90	N	1.152555	-0.086947	0.000133
N91	N	1.220536	-0.114600	0.000139
H92	H	1.276124	-0.100573	0.000156
N93	N	1.225046	-0.324611	0.000084
N94	N	1.225847	-0.279595	0.000083
H95	H	1.281426	-0.265560	0.000079
H96	H	0.418809	0.150587	-0.000044
N97	N	0.757715	-0.543002	0.000012
N98	N	0.689735	-0.515347	0.000005
H99	H	0.634145	-0.529371	-0.000005
N100	N	0.444121	0.018174	-0.156608
N101	N	0.472460	-0.025270	-0.170150
H102	H	0.454894	-0.042723	-0.227103
H103	H	0.775301	-0.447521	0.000017
H104	H	1.134979	-0.182432	0.000094
H105	H	1.020304	0.146814	0.558160
H106	H	1.207476	-0.420107	0.000079
H107	H	0.776344	-0.387718	0.000004
N108	N	1.141701	-0.702049	0.000073
N109	N	1.209680	-0.729704	0.000086
H110	H	1.265270	-0.715679	0.000101
H111	H	0.847786	-0.685203	0.000019
N112	N	1.115373	-0.004532	0.564759
N113	N	1.095374	-0.038316	0.614324
H114	H	1.140453	-0.064025	0.638220
N115	N	1.139882	-0.803968	0.000060
N116	N	1.139065	-0.848982	0.000060
H117	H	1.193991	-0.871328	0.000066
N118	N	0.841064	-0.165594	0.000095
N119	N	0.773081	-0.137942	0.000103
H120	H	0.717494	-0.151970	0.000109
N121	N	1.147587	0.085596	0.435248
N122	N	1.204879	0.092703	0.490963
H123	H	1.261658	0.099771	0.467015
N124	N	0.842880	-0.063673	0.000091
N125	N	0.843696	-0.018658	0.000095
H126	H	0.788769	0.003688	0.000091
H127	H	1.206421	-0.479900	0.000073
N128	N	1.220570	-0.577788	0.000069
N129	N	1.219752	-0.622802	0.000065
H130	H	1.274677	-0.645149	0.000074
H131	H	0.880487	0.129533	0.442079
H132	H	0.962429	-0.014416	0.441967
