data_functionalizedCrystal
_audit_creation_method	'MofGen! by Chris Wilmer'
_symmetry_space_group_name_H-M	'P1'
_symmetry_Int_Tables_number	1
_symmetry_cell_setting	triclinic
loop_
_symmetry_equiv_pos_as_xyz
  x,y,z
_cell_length_a	10.489716
_cell_length_b	17.038274
_cell_length_c	8.965430
_cell_angle_alpha	90.007618
_cell_angle_beta	89.996523
_cell_angle_gamma	92.179539
loop_
_atom_site_label
_atom_site_type_symbol
_atom_site_fract_x
_atom_site_fract_y
_atom_site_fract_z
O1	O	1.704387	-0.110277	-0.124058
O2	O	1.334158	-0.120658	-0.124066
O3	O	1.517072	-0.001640	-0.124021
O4	O	1.521473	-0.229296	-0.124103
O5	O	1.517056	-0.001648	0.124058
O6	O	1.334142	-0.120666	0.124013
O7	O	1.704371	-0.110285	0.124021
Cu8	Cu	1.519255	-0.115476	0.146669
Cu9	Cu	1.519274	-0.115467	-0.146713
O10	O	1.521457	-0.229303	0.123976
C11	C	1.286545	-0.119882	-0.000027
C12	C	1.144696	-0.117548	-0.000028
C13	C	1.053849	-0.190534	-0.000058
C14	C	0.972888	-0.151971	0.122278
C15	C	0.972908	-0.151946	-0.122308
C16	C	1.065603	-0.079016	0.122409
C17	C	1.065630	-0.079001	-0.122287
C18	C	0.984713	-0.040385	0.000079
C19	C	1.513061	0.027508	0.000026
C20	C	1.501119	0.114369	0.000048
C21	C	1.610758	0.163854	0.000064
C22	C	1.599529	0.245469	0.000071
C23	C	1.478661	0.277597	0.000072
C24	C	1.369014	0.228106	0.000052
C25	C	1.380244	0.146492	0.000034
C26	C	1.438989	0.523583	0.000115
C27	C	1.427768	0.605203	0.000137
C28	C	1.658284	0.622560	0.000153
C29	C	1.669503	0.540945	0.000144
C30	C	1.559856	0.491460	0.000116
C31	C	1.467181	0.361021	0.000084
C32	C	1.571337	0.408038	0.000094
C33	C	1.751984	-0.111061	-0.000021
C34	C	1.893833	-0.113395	-0.000030
N35	N	1.519252	-0.115482	0.353018
C36	C	1.525467	0.741549	-0.000009
C37	C	1.537407	0.654688	0.000153
N38	N	1.519287	-0.115455	-0.353063
C39	C	1.434630	-0.170506	0.450302
C40	C	1.551608	-0.186330	0.549712
C41	C	1.402323	-0.099666	0.549735
C42	C	1.636291	-0.131341	0.450238
C43	C	1.486927	-0.044646	0.450253
C44	C	1.603985	-0.060440	0.549618
H45	H	1.106252	-0.048211	-0.225694
H46	H	0.932314	-0.182768	-0.225718
H47	H	1.349706	0.483302	0.000092
H48	H	1.709181	0.137702	0.000072
H49	H	0.932281	-0.182785	0.225680
N50	N	1.717782	0.298843	0.000097
H51	H	1.796054	0.266106	0.000107
H52	H	1.718126	0.333083	0.092072
N53	N	1.119140	-0.038233	0.259550
H54	H	1.215259	-0.040102	0.258727
H55	H	1.084473	-0.065603	0.351739
N56	N	1.262000	0.093108	0.000048
H57	H	1.261525	0.058856	-0.091919
H58	H	1.183785	0.125891	0.000118
H59	H	0.954340	0.023148	0.000173
N60	N	1.799868	0.506293	0.000152
H61	H	1.867622	0.550027	0.000163
H62	H	1.809558	0.472807	-0.091818
H63	H	1.735220	-0.144779	0.406717
H64	H	1.303424	-0.086300	0.593444
H65	H	1.675645	-0.013894	0.592951
H66	H	1.270601	0.254271	0.000043
H67	H	1.669748	0.381876	0.000060
N68	N	1.336816	0.395671	0.000098
H69	H	1.327026	0.429145	-0.091857
H70	H	1.327105	0.429108	0.092129
N71	N	1.776540	0.675931	0.000186
H72	H	1.751092	0.732509	0.000198
H73	H	1.828841	0.665456	-0.091780
N74	N	1.297397	0.639858	0.000136
H75	H	1.229639	0.596126	0.000111
H76	H	1.287737	0.673344	-0.091821
H77	H	1.363144	-0.217081	0.406696
H78	H	1.578973	-0.246222	0.593399
N79	N	1.450635	0.034663	0.392339
H80	H	1.371419	0.028385	0.328762
H81	H	1.522893	0.058159	0.330405
N82	N	1.094398	-0.274626	0.000045
H83	H	1.060557	-0.302111	0.092520
H84	H	1.190604	-0.275572	-0.000967
