data_functionalizedCrystal
_audit_creation_method	'MofGen! by Chris Wilmer'
_symmetry_space_group_name_H-M	'P1'
_symmetry_Int_Tables_number	1
_symmetry_cell_setting	triclinic
loop_
_symmetry_equiv_pos_as_xyz
  x,y,z
_cell_length_a	17.077404
_cell_length_b	12.594516
_cell_length_c	17.077396
_cell_angle_alpha	89.975251
_cell_angle_beta	89.982940
_cell_angle_gamma	90.016278
loop_
_atom_site_label
_atom_site_type_symbol
_atom_site_fract_x
_atom_site_fract_y
_atom_site_fract_z
Zn1	Zn	1.200073	-0.423719	-0.443872
Zn2	Zn	1.200001	-0.601725	-0.312618
Zn3	Zn	1.068810	-0.423761	-0.312620
Zn4	Zn	1.068788	-0.601656	-0.443842
O5	O	1.134418	-0.512715	-0.378238
O6	O	1.309910	-0.447343	-0.426473
O7	O	1.182578	-0.578164	-0.202771
O8	O	1.086262	-0.274810	-0.330044
O9	O	1.309858	-0.578123	-0.330041
O10	O	1.182700	-0.274779	-0.426474
O11	O	1.086192	-0.447415	-0.202773
O12	O	0.958961	-0.447349	-0.330015
O13	O	1.086224	-0.578006	-0.553693
O14	O	0.958944	-0.578047	-0.426423
O15	O	1.182679	-0.447276	-0.553715
O16	O	1.182556	-0.750661	-0.330012
O17	O	1.086155	-0.750611	-0.426421
C18	C	0.930470	-0.512696	-0.378216
C19	C	0.843221	-0.512713	-0.378226
C20	C	0.802243	-0.580871	-0.428345
C21	C	0.720262	-0.580873	-0.428357
C22	C	0.679261	-0.512723	-0.378246
C23	C	0.720245	-0.444557	-0.328125
C24	C	0.802224	-0.444551	-0.328117
C25	C	0.549375	-0.444578	-0.328144
C26	C	0.467390	-0.444586	-0.328150
C27	C	0.467413	-0.580901	-0.428384
C28	C	0.549392	-0.580894	-0.428376
C29	C	0.590370	-0.512730	-0.378253
C30	C	1.134367	-0.789256	-0.378230
C31	C	1.134417	-0.907562	-0.378253
C32	C	1.081979	-0.976826	-0.430653
C33	C	1.062858	-1.047689	-0.359026
C34	C	1.153609	-1.047498	-0.449893
C35	C	1.115258	-0.976866	-0.306587
C36	C	1.206042	-0.976669	-0.397503
C37	C	1.186949	-1.047500	-0.325826
C38	C	1.339163	-0.512735	-0.378260
C39	C	1.426412	-0.512744	-0.378269
C40	C	1.134457	-0.512629	-0.582982
C41	C	1.134474	-0.512592	-0.670232
C42	C	1.134491	-0.235094	-0.378263
C43	C	1.134522	-0.116789	-0.378273
C44	C	1.184733	-0.580549	-1.046048
C45	C	1.184713	-0.580580	-0.964068
C46	C	1.134524	-0.512517	-0.923081
C47	C	1.084346	-0.444426	-0.964079
C48	C	1.084363	-0.444401	-1.046058
C49	C	1.084317	-0.444481	-0.793209
C50	C	1.084301	-0.444504	-0.711224
C51	C	1.184667	-0.580660	-0.711219
C52	C	1.184684	-0.580635	-0.793198
C53	C	1.134506	-0.512543	-0.834190
C54	C	1.134425	-0.512724	-0.174290
C55	C	1.134560	-0.512461	-0.087041
H56	H	0.686902	-0.636375	-0.469169
H57	H	1.002334	-1.078908	-0.342760
H58	H	1.098998	-0.945969	-0.245994
Cl59	Cl	1.255486	-1.095111	-0.257348
Cl60	Cl	1.013395	-0.928909	-0.498971
H61	H	0.686855	-0.389063	-0.287327
Cl62	Cl	0.853739	-0.358860	-0.265109
Cl63	Cl	1.299465	-0.928468	-0.422669
Cl64	Cl	0.415899	-0.666578	-0.491407
H65	H	1.225523	-0.636104	-0.677839
H66	H	1.169799	-1.078523	-0.510470
H67	H	1.225606	-0.635969	-1.079414
H68	H	0.582737	-0.389063	-0.287335
Cl69	Cl	1.247792	-0.666179	-0.912538
H70	H	1.225556	-0.636053	-0.826567
Cl71	Cl	1.021203	-0.358941	-0.659699
H72	H	0.434010	-0.389079	-0.287355
H73	H	1.043457	-0.389033	-0.826582
Cl74	Cl	1.021262	-0.358846	-0.912553
H75	H	0.835620	-0.636371	-0.469149
Cl76	Cl	0.600935	-0.666578	-0.491369
H77	H	1.043508	-0.388956	-1.079433
