data_functionalizedCrystal
_audit_creation_method	'MofGen! by Chris Wilmer'
_symmetry_space_group_name_H-M	'P1'
_symmetry_Int_Tables_number	1
_symmetry_cell_setting	triclinic
loop_
_symmetry_equiv_pos_as_xyz
  x,y,z
_cell_length_a	6.817900
_cell_length_b	12.200722
_cell_length_c	13.212919
_cell_angle_alpha	88.312995
_cell_angle_beta	106.298290
_cell_angle_gamma	107.140920
loop_
_atom_site_label
_atom_site_type_symbol
_atom_site_fract_x
_atom_site_fract_y
_atom_site_fract_z
V1	V	-4.057283	-0.124939	-0.325614
O2	O	-4.025165	0.040746	-0.319301
O3	O	-4.026914	-0.281147	-0.323497
O4	O	-4.013835	-0.107773	-0.467575
O5	O	-4.038334	-0.133828	-0.174225
V6	V	-4.537933	-0.106923	-0.307493
O7	O	-4.324844	-0.164460	-0.365363
O8	O	-4.720570	-0.067402	-0.267744
O9	O	-4.345096	0.049285	-0.309610
O10	O	-4.687449	-0.272608	-0.313806
O11	O	-4.674279	-0.098034	-0.458882
O12	O	-4.358175	-0.124089	-0.165532
C13	C	-3.876141	-0.319703	-0.318388
C14	C	-3.932631	-0.447307	-0.317603
C15	C	-3.978500	-0.550935	-0.316956
C16	C	-4.036064	-0.680941	-0.316149
C17	C	-3.859456	-0.098547	-0.502173
C18	C	-3.905335	-0.085545	-0.618228
C19	C	-4.097607	-0.268130	-0.866282
C20	C	-4.140718	-0.255919	-0.975327
C21	C	-4.034681	-0.048915	-0.945365
C22	C	-3.991571	-0.061126	-0.836320
C23	C	-4.023035	-0.170736	-0.796783
C24	C	-3.979909	-0.182945	-0.687736
C25	C	-3.873888	0.024057	-0.657776
C26	C	-3.916998	0.036268	-0.766821
C27	C	-4.175896	-0.133320	-0.130928
C28	C	-4.109255	-0.146315	-0.014872
C29	C	-4.159211	0.087835	-0.314716
C30	C	-4.081961	0.215438	-0.315507
H31	H	-4.005519	-0.272196	-0.655547
H32	H	-4.009094	0.040324	-0.977576
H33	H	-4.201439	-0.335227	-1.031910
H34	H	-3.891397	0.125510	-0.799028
H35	H	-3.813140	0.103363	-0.601177
H36	H	-4.123202	-0.357378	-0.834090
