data_functionalizedCrystal
_audit_creation_method	'MofGen! by Chris Wilmer'
_symmetry_space_group_name_H-M	'P1'
_symmetry_Int_Tables_number	1
_symmetry_cell_setting	triclinic
loop_
_symmetry_equiv_pos_as_xyz
  x,y,z
_cell_length_a	14.853567
_cell_length_b	16.109301
_cell_length_c	15.186229
_cell_angle_alpha	90.000638
_cell_angle_beta	90.000050
_cell_angle_gamma	96.451795
loop_
_atom_site_label
_atom_site_type_symbol
_atom_site_fract_x
_atom_site_fract_y
_atom_site_fract_z
O1	O	0.115881	-1.103293	-0.073165
O2	O	0.130302	-0.861252	-0.073178
O3	O	-0.008149	-0.988738	-0.073174
O4	O	0.254332	-0.975807	-0.073170
O5	O	-0.008151	-0.988729	0.073283
O6	O	0.130300	-0.861243	0.073279
O7	O	0.115879	-1.103285	0.073292
Zn8	Zn	0.123089	-0.982263	0.096539
Zn9	Zn	0.123092	-0.982274	-0.096425
O10	O	0.254330	-0.975799	0.073288
C11	C	0.129717	-0.830272	0.000048
C12	C	0.127965	-0.737974	0.000043
C13	C	-0.041738	-0.988148	0.000052
C14	C	-0.141819	-0.986392	0.000044
C15	C	0.116464	-1.134265	0.000063
C16	C	0.118215	-1.226563	0.000063
C17	C	-0.554215	-0.903241	0.000056
C18	C	-0.575746	-1.054697	0.000064
C19	C	-0.481715	-1.056348	0.000059
C20	C	-0.423930	-0.981444	0.000054
C21	C	-0.460175	-0.904889	0.000054
C22	C	-0.445463	-1.132901	0.000068
C23	C	-0.351426	-1.134555	0.000064
C24	C	-0.293639	-1.059650	0.000053
C25	C	-0.329890	-0.983093	0.000052
C26	C	-0.272104	-0.908189	0.000046
C27	C	-0.308353	-0.831630	0.000039
C28	C	-0.402388	-0.829984	0.000042
C29	C	-0.199604	-1.061296	0.000049
C30	C	-0.178064	-0.909837	0.000044
C31	C	0.287918	-0.976389	0.000060
C32	C	0.387999	-0.978145	0.000062
N33	N	0.123087	-0.982261	0.228231
C34	C	0.206047	-0.515811	0.000055
C35	C	0.204395	-0.429089	0.000060
C36	C	0.040127	-0.448732	0.000054
C37	C	0.041781	-0.535453	0.000054
C38	C	0.124743	-0.568990	0.000050
C39	C	0.121437	-0.395546	0.000055
C40	C	0.119645	-0.301518	0.000061
C41	C	0.126536	-0.663025	0.000046
N42	N	0.123087	-0.982282	-0.228118
C43	C	0.061801	-1.038731	0.453956
C44	C	0.061799	-1.038734	0.546146
C45	C	0.184375	-0.925806	0.546151
C46	C	0.184372	-0.925800	0.453963
C47	C	0.123086	-0.982267	0.407868
C48	C	0.123087	-0.982276	0.592246
C49	C	0.123085	-0.982278	0.692202
C50	C	0.123087	-0.982264	0.307905
H51	H	-0.131020	-0.848840	0.000036
H52	H	-0.024431	-0.578754	0.000053
H53	H	0.234274	-0.879833	0.583691
C54	C	0.296210	-0.552063	0.000104
C55	C	0.367057	-0.486925	0.000134
C56	C	0.450130	-0.520285	0.000194
H57	H	0.300404	-0.585472	-0.050954
H58	H	0.300314	-0.585460	0.051198
H59	H	0.362955	-0.453542	-0.050955
H60	H	0.362893	-0.453510	0.051188
H61	H	0.454234	-0.553682	0.051288
H62	H	0.454314	-0.553694	-0.050866
H63	H	0.498209	-0.476095	0.000222
H64	H	-0.261292	-0.770643	0.000041
C65	C	-0.312022	-1.217647	0.000243
C66	C	-0.258675	-1.223028	0.075597
C67	C	-0.222369	-1.299564	0.075794
H68	H	-0.275730	-1.221521	-0.050774
H69	H	-0.359880	-1.262045	0.000294
H70	H	-0.210824	-1.178642	0.075538
H71	H	-0.294947	-1.219169	0.126627
H72	H	-0.270227	-1.343962	0.075845
H73	H	-0.186082	-1.303430	0.024773
H74	H	-0.186177	-1.303228	0.126924
C75	C	0.251017	-0.864456	0.404077
C76	C	0.304710	-0.815025	0.464174
C77	C	0.366114	-0.758514	0.418251
H78	H	0.218677	-0.829732	0.368116
H79	H	0.288602	-0.894383	0.368128
H80	H	0.267129	-0.785100	0.500107
H81	H	0.337070	-0.849726	0.500137
H82	H	0.403700	-0.788441	0.382302
H83	H	0.333767	-0.723796	0.382291
H84	H	0.402558	-0.724974	0.459019
H85	H	-0.431911	-0.767654	0.000037
H86	H	-0.027418	-0.421415	0.000062
C87	C	0.292640	-0.371310	0.000240
C88	C	0.296503	-0.320965	0.075601
C89	C	0.377789	-0.267736	0.075803
H90	H	0.295495	-0.336993	-0.050772
H91	H	0.342309	-0.403676	0.000285
H92	H	0.246847	-0.288601	0.075548
H93	H	0.293663	-0.355259	0.126626
H94	H	0.427458	-0.300103	0.075848
H95	H	0.380637	-0.233425	0.024787
H96	H	0.380425	-0.233576	0.126938
H97	H	-0.622800	-1.115680	0.000076
C98	C	-0.160199	-1.144383	0.000239
C99	C	-0.106854	-1.149757	0.075595
C100	C	-0.070552	-1.226295	0.075804
H101	H	-0.123906	-1.148265	-0.050777
H102	H	-0.208058	-1.188780	0.000294
H103	H	-0.059001	-1.105373	0.075532
H104	H	-0.143126	-1.145891	0.126623
H105	H	-0.118411	-1.270691	0.075859
H106	H	-0.034263	-1.230169	0.024785
H107	H	-0.034361	-1.229954	0.126936
C108	C	-0.593740	-0.820207	0.000094
C109	C	-0.688460	-0.834788	0.000116
C110	C	-0.724901	-0.758317	0.000163
H111	H	-0.574002	-0.789301	-0.050966
H112	H	-0.573955	-0.789352	0.051187
H113	H	-0.708237	-0.865630	-0.050971
H114	H	-0.708222	-0.865681	0.051172
H115	H	-0.705116	-0.727462	0.051256
H116	H	-0.705156	-0.727418	-0.050898
H117	H	-0.789171	-0.768200	0.000186
C118	C	-0.004843	-1.100067	0.404068
C119	C	-0.058531	-1.149500	0.464167
C120	C	-0.119945	-1.206004	0.418245
H121	H	0.027489	-1.134791	0.368098
H122	H	-0.042432	-1.070135	0.368129
H123	H	-0.020947	-1.179430	0.500091
H124	H	-0.090883	-1.114800	0.500139
H125	H	-0.157534	-1.176072	0.382306
H126	H	-0.087605	-1.240722	0.382277
H127	H	-0.156385	-1.239546	0.459015
H128	H	0.011894	-1.084711	0.583668
H129	H	-0.492518	-1.193884	0.000081
