data_functionalizedCrystal
_audit_creation_method	'MofGen! by Chris Wilmer'
_symmetry_space_group_name_H-M	'P1'
_symmetry_Int_Tables_number	1
_symmetry_cell_setting	triclinic
loop_
_symmetry_equiv_pos_as_xyz
  x,y,z
_cell_length_a	18.215407
_cell_length_b	19.805405
_cell_length_c	18.215399
_cell_angle_alpha	90.030610
_cell_angle_beta	90.019833
_cell_angle_gamma	90.026858
loop_
_atom_site_label
_atom_site_type_symbol
_atom_site_fract_x
_atom_site_fract_y
_atom_site_fract_z
Zn1	Zn	1.125064	-0.269462	0.416102
Zn2	Zn	1.375064	-0.019462	0.666102
Zn3	Zn	1.625064	0.230538	0.916102
Zn4	Zn	1.875064	0.480538	1.166102
Zn5	Zn	1.124969	-0.382653	0.293030
Zn6	Zn	1.374969	-0.132653	0.543030
Zn7	Zn	1.624969	0.117347	0.793030
Zn8	Zn	1.874969	0.367347	1.043030
Zn9	Zn	1.001997	-0.269484	0.293050
Zn10	Zn	1.251997	-0.019484	0.543050
Zn11	Zn	1.501997	0.230516	0.793050
Zn12	Zn	1.751997	0.480516	1.043050
Zn13	Zn	1.001959	-0.382615	0.416055
Zn14	Zn	1.251959	-0.132615	0.666055
Zn15	Zn	1.501959	0.117385	0.916055
Zn16	Zn	1.751959	0.367385	1.166055
O17	O	1.063497	-0.326054	0.354559
O18	O	1.313497	-0.076054	0.604559
O19	O	1.563497	0.173946	0.854559
O20	O	1.813497	0.423946	1.104559
O21	O	1.228036	-0.284484	0.399788
O22	O	1.478036	-0.034484	0.649788
O23	O	1.728036	0.215516	0.899788
O24	O	1.978036	0.465516	1.149788
O25	O	1.108633	-0.367666	0.190049
O26	O	1.358633	-0.117666	0.440049
O27	O	1.608633	0.132334	0.690049
O28	O	1.858633	0.382334	0.940049
O29	O	1.018377	-0.174765	0.309401
O30	O	1.268377	0.075235	0.559401
O31	O	1.518377	0.325235	0.809401
O32	O	1.768377	0.575235	1.059401
O33	O	1.227966	-0.367644	0.309368
O34	O	1.477966	-0.117644	0.559368
O35	O	1.727966	0.132356	0.809368
O36	O	1.977966	0.382356	1.059368
O37	O	1.108794	-0.174748	0.399807
O38	O	1.358794	0.075252	0.649807
O39	O	1.608794	0.325252	0.899807
O40	O	1.858794	0.575252	1.149807
O41	O	1.018285	-0.284521	0.190063
O42	O	1.268285	-0.034521	0.440063
O43	O	1.518285	0.215479	0.690063
O44	O	1.768285	0.465479	0.940063
O45	O	0.899008	-0.284485	0.309355
O46	O	1.149008	-0.034485	0.559355
O47	O	1.399008	0.215515	0.809355
O48	O	1.649008	0.465515	1.059355
O49	O	1.018313	-0.367580	0.519046
O50	O	1.268313	-0.117580	0.769046
O51	O	1.518313	0.132420	1.019046
O52	O	1.768313	0.382420	1.269046
O53	O	0.898980	-0.367602	0.399727
O54	O	1.148980	-0.117602	0.649727
O55	O	1.398980	0.132398	0.899727
O56	O	1.648980	0.382398	1.149727
O57	O	1.108758	-0.284447	0.519080
O58	O	1.358758	-0.034447	0.769080
O59	O	1.608758	0.215553	1.019080
O60	O	1.858758	0.465553	1.269080
O61	O	1.108596	-0.477365	0.309322
O62	O	1.358596	-0.227365	0.559322
O63	O	1.608596	0.022635	0.809322
O64	O	1.858596	0.272635	1.059322
O65	O	1.018221	-0.477337	0.399708
O66	O	1.268221	-0.227337	0.649708
O67	O	1.518221	0.022663	0.899708
O68	O	1.768221	0.272663	1.149708
C69	C	0.872291	-0.326042	0.354538
C70	C	1.122291	-0.076042	0.604538
C71	C	1.372291	0.173958	0.854538
C72	C	1.622291	0.423958	1.104538
C73	C	0.790492	-0.326053	0.354547
C74	C	1.040492	-0.076053	0.604547
C75	C	1.290492	0.173947	0.854547
C76	C	1.540492	0.423947	1.104547
C77	C	0.602303	-0.369400	0.401544
C78	C	0.852303	-0.119400	0.651544
C79	C	1.102303	0.130600	0.901544
C80	C	1.352303	0.380600	1.151544
C81	C	0.525444	-0.369403	0.401553
C82	C	0.775444	-0.119403	0.651553
C83	C	1.025444	0.130597	0.901553
C84	C	1.275444	0.380597	1.151553
C85	C	0.525444	-0.282719	0.307591
C86	C	0.775444	-0.032719	0.557591
C87	C	1.025444	0.217281	0.807591
C88	C	1.275444	0.467281	1.057591
C89	C	0.602301	-0.282714	0.307586
C90	C	0.852301	-0.032714	0.557586
C91	C	1.102301	0.217286	0.807586
C92	C	1.352301	0.467286	1.057586
C93	C	0.640729	-0.326059	0.354561
C94	C	0.890729	-0.076059	0.604561
C95	C	1.140729	0.173941	0.854561
C96	C	1.390729	0.423941	1.104561
C97	C	0.487013	-0.326066	0.354575
C98	C	0.737013	-0.076066	0.604575
C99	C	0.987013	0.173934	0.854575
C100	C	1.237013	0.423934	1.104575
C101	C	0.403679	-0.326068	0.354585
C102	C	0.653679	-0.076068	0.604585
C103	C	0.903679	0.173932	0.854585
C104	C	1.153679	0.423932	1.104585
C105	C	0.724068	-0.326056	0.354553
C106	C	0.974068	-0.076056	0.604553
C107	C	1.224068	0.173944	0.854553
C108	C	1.474068	0.423944	1.104553
C109	C	1.063415	-0.501910	0.354524
C110	C	1.313415	-0.251910	0.604524
C111	C	1.563415	-0.001910	0.854524
C112	C	1.813415	0.248090	1.104524
C113	C	1.063446	-0.577142	0.354533
C114	C	1.313446	-0.327142	0.604533
C115	C	1.563446	-0.077142	0.854533
C116	C	1.813446	0.172858	1.104533
C117	C	1.110550	-0.612478	0.307518
C118	C	1.360550	-0.362478	0.557518
C119	C	1.610550	-0.112478	0.807518
C120	C	1.860550	0.137522	1.057518
C121	C	1.110582	-0.683166	0.307535
C122	C	1.360582	-0.433166	0.557535
C123	C	1.610582	-0.183166	0.807535
C124	C	1.860582	0.066834	1.057535
C125	C	1.063505	-0.718517	0.354562
C126	C	1.313505	-0.468517	0.604562
C127	C	1.563505	-0.218517	0.854562
C128	C	1.813505	0.031483	1.104562
C129	C	1.016399	-0.683176	0.401582
C130	C	1.266399	-0.433176	0.651582
C131	C	1.516399	-0.183176	0.901582
C132	C	1.766399	0.066824	1.151582
C133	C	1.016372	-0.612489	0.401569
C134	C	1.266372	-0.362489	0.651569
C135	C	1.516372	-0.112489	0.901569
C136	C	1.766372	0.137511	1.151569
C137	C	1.016507	-0.968249	0.401637
C138	C	1.266507	-0.718249	0.651637
C139	C	1.516507	-0.468249	0.901637
C140	C	1.766507	-0.218249	1.151637
C141	C	1.016536	-1.038941	0.401645
C142	C	1.266536	-0.788941	0.651645
C143	C	1.516536	-0.538941	0.901645
C144	C	1.766536	-0.288941	1.151645
C145	C	1.110717	-1.038927	0.307602
C146	C	1.360717	-0.788927	0.557602
C147	C	1.610717	-0.538927	0.807602
C148	C	1.860717	-0.288927	1.057602
C149	C	1.110690	-0.968239	0.307589
C150	C	1.360690	-0.718239	0.557589
C151	C	1.610690	-0.468239	0.807589
C152	C	1.860690	-0.218239	1.057589
C153	C	1.063587	-0.932905	0.354611
C154	C	1.313587	-0.682905	0.604611
C155	C	1.563587	-0.432905	0.854611
C156	C	1.813587	-0.182905	1.104611
C157	C	1.063555	-0.856256	0.354594
C158	C	1.313555	-0.606256	0.604594
C159	C	1.563555	-0.356256	0.854594
C160	C	1.813555	-0.106256	1.104594
C161	C	1.063533	-0.795164	0.354577
C162	C	1.313533	-0.545164	0.604577
C163	C	1.563533	-0.295164	0.854577
C164	C	1.813533	-0.045164	1.104577
C165	C	1.255450	-0.326066	0.354581
C166	C	1.505450	-0.076066	0.604581
C167	C	1.755450	0.173934	0.854581
C168	C	2.005450	0.423934	1.104581
C169	C	1.337249	-0.326071	0.354590
C170	C	1.587249	-0.076071	0.604590
C171	C	1.837249	0.173929	0.854590
C172	C	2.087249	0.423929	1.104590
C173	C	1.063542	-0.326007	0.546512
C174	C	1.313542	-0.076007	0.796512
C175	C	1.563542	0.173993	1.046512
C176	C	1.813542	0.423993	1.296512
C177	C	1.063561	-0.325987	0.628311
C178	C	1.313561	-0.075987	0.878311
C179	C	1.563561	0.174013	1.128311
C180	C	1.813561	0.424013	1.378311
C181	C	1.063601	-0.149511	0.354611
C182	C	1.313601	0.100489	0.604611
C183	C	1.563601	0.350489	0.854611
C184	C	1.813601	0.600489	1.104611
C185	C	1.063645	-0.074279	0.354633
C186	C	1.313645	0.175721	0.604633
C187	C	1.563645	0.425721	0.854633
C188	C	1.813645	0.675721	1.104633
C189	C	1.063495	-0.326051	0.163353
C190	C	1.313495	-0.076051	0.413353
C191	C	1.563495	0.173949	0.663353
C192	C	1.813495	0.423949	0.913353
C193	C	1.063619	-0.325880	0.081555
C194	C	1.313619	-0.075880	0.331555
C195	C	1.563619	0.174120	0.581555
C196	C	1.813619	0.424120	0.831555
C197	C	1.110673	-0.282659	0.816524
C198	C	1.360673	-0.032659	1.066524
C199	C	1.610673	0.217341	1.316524
C200	C	1.860673	0.467341	1.566524
C201	C	1.110682	-0.282639	0.893383
C202	C	1.360682	-0.032639	1.143383
C203	C	1.610682	0.217361	1.393383
C204	C	1.860682	0.467361	1.643383
C205	C	1.016502	-0.369210	0.893336
C206	C	1.266502	-0.119210	1.143336
C207	C	1.516502	0.130790	1.393336
C208	C	1.766502	0.380790	1.643336
C209	C	1.016490	-0.369226	0.816479
C210	C	1.266490	-0.119226	1.066479
C211	C	1.516490	0.130774	1.316479
C212	C	1.766490	0.380774	1.566479
C213	C	1.063580	-0.325952	0.778075
C214	C	1.313580	-0.075952	1.028075
C215	C	1.563580	0.174048	1.278075
C216	C	1.813580	0.424048	1.528075
C217	C	1.063600	-0.325916	0.931791
C218	C	1.313600	-0.075916	1.181791
C219	C	1.563600	0.174084	1.431791
C220	C	1.813600	0.424084	1.681791
C221	C	1.063609	-0.325895	1.015125
C222	C	1.313609	-0.075895	1.265125
C223	C	1.563609	0.174105	1.515125
C224	C	1.813609	0.424105	1.765125
C225	C	1.063570	-0.325972	0.694736
C226	C	1.313570	-0.075972	0.944736
C227	C	1.563570	0.174028	1.194736
C228	C	1.813570	0.424028	1.444736
H229	H	1.148883	-0.583700	0.269220
H230	H	1.398883	-0.333700	0.519220
H231	H	1.648883	-0.083700	0.769220
H232	H	1.898883	0.166300	1.019220
Cl233	Cl	0.477141	-0.423891	0.460622
Cl234	Cl	0.727141	-0.173891	0.710622
Cl235	Cl	0.977141	0.076109	0.960622
Cl236	Cl	1.227141	0.326109	1.210622
H237	H	0.494146	-0.247431	0.269344
H238	H	0.744146	0.002569	0.519344
H239	H	0.994146	0.252569	0.769344
H240	H	1.244146	0.502569	1.019344
Cl241	Cl	0.957155	-0.568066	0.460678
Cl242	Cl	1.207155	-0.318066	0.710678
Cl243	Cl	1.457155	-0.068066	0.960678
Cl244	Cl	1.707155	0.181934	1.210678
Cl245	Cl	0.650610	-0.423888	0.460602
Cl246	Cl	0.900610	-0.173888	0.710602
Cl247	Cl	1.150610	0.076112	0.960602
Cl248	Cl	1.400610	0.326112	1.210602
H249	H	1.148938	-0.711934	0.269250
H250	H	1.398938	-0.461934	0.519250
H251	H	1.648938	-0.211934	0.769250
H252	H	1.898938	0.038066	1.019250
Cl253	Cl	0.650611	-0.228218	0.248521
Cl254	Cl	0.900611	0.021782	0.498521
Cl255	Cl	1.150611	0.271782	0.748521
Cl256	Cl	1.400611	0.521782	0.998521
H257	H	1.149022	-0.939459	0.269292
H258	H	1.399022	-0.689459	0.519292
H259	H	1.649022	-0.439459	0.769292
H260	H	1.899022	-0.189459	1.019292
H261	H	0.978165	-0.404444	0.924614
H262	H	1.228165	-0.154444	1.174614
H263	H	1.478165	0.095556	1.424614
H264	H	1.728165	0.345556	1.674614
H265	H	0.978136	-0.404480	0.785172
H266	H	1.228136	-0.154480	1.035172
H267	H	1.478136	0.095520	1.285172
H268	H	1.728136	0.345520	1.535172
H269	H	1.149073	-1.067705	0.269317
H270	H	1.399073	-0.817705	0.519317
H271	H	1.649073	-0.567705	0.769317
H272	H	1.899073	-0.317705	1.019317
Cl273	Cl	0.957351	-1.083382	0.460772
Cl274	Cl	1.207351	-0.833382	0.710772
Cl275	Cl	1.457351	-0.583382	0.960772
Cl276	Cl	1.707351	-0.333382	1.210772
Cl277	Cl	0.957291	-0.923838	0.460749
Cl278	Cl	1.207291	-0.673838	0.710749
Cl279	Cl	1.457291	-0.423838	0.960749
Cl280	Cl	1.707291	-0.173838	1.210749
H281	H	0.978071	-0.711965	0.439876
H282	H	1.228071	-0.461965	0.689876
H283	H	1.478071	-0.211965	0.939876
H284	H	1.728071	0.038035	1.189876
Cl285	Cl	1.169894	-0.228218	0.941717
Cl286	Cl	1.419894	0.021782	1.191717
Cl287	Cl	1.669894	0.271782	1.441717
Cl288	Cl	1.919894	0.521782	1.691717
H289	H	1.149014	-0.247420	0.785258
H290	H	1.399014	0.002580	1.035258
H291	H	1.649014	0.252580	1.285258
H292	H	1.899014	0.502580	1.535258
