data_functionalizedCrystal
_audit_creation_method	'MofGen! by Chris Wilmer'
_symmetry_space_group_name_H-M	'P1'
_symmetry_Int_Tables_number	1
_symmetry_cell_setting	triclinic
loop_
_symmetry_equiv_pos_as_xyz
  x,y,z
_cell_length_a	13.032831
_cell_length_b	18.050589
_cell_length_c	13.032268
_cell_angle_alpha	97.149417
_cell_angle_beta	90.886977
_cell_angle_gamma	82.833186
loop_
_atom_site_label
_atom_site_type_symbol
_atom_site_fract_x
_atom_site_fract_y
_atom_site_fract_z
Zn1	Zn	1.498351	-0.501530	-0.780835
Zn2	Zn	1.998351	-0.001530	-0.280835
Zn3	Zn	1.520065	-0.612177	-0.608855
Zn4	Zn	2.020065	-0.112177	-0.108855
Zn5	Zn	1.348217	-0.470507	-0.587076
Zn6	Zn	1.848217	0.029493	-0.087076
Zn7	Zn	1.326314	-0.608161	-0.758980
Zn8	Zn	1.826314	-0.108161	-0.258980
O9	O	1.423237	-0.548094	-0.683937
O10	O	1.923237	-0.048094	-0.183937
O11	O	1.645148	-0.530872	-0.776283
O12	O	2.145148	-0.030872	-0.276283
O13	O	1.515523	-0.582081	-0.462049
O14	O	2.015523	-0.082081	0.037951
O15	O	1.368212	-0.370708	-0.612810
O16	O	1.868212	0.129292	-0.112810
O17	O	1.661101	-0.612163	-0.649930
O18	O	2.161101	-0.112163	-0.149930
O19	O	1.478515	-0.393501	-0.755164
O20	O	1.978515	0.106499	-0.255164
O21	O	1.389267	-0.477997	-0.446048
O22	O	1.889267	0.022003	0.053952
O23	O	1.201395	-0.474104	-0.591619
O24	O	1.701395	0.025896	-0.091619
O25	O	1.330881	-0.605320	-0.905796
O26	O	1.830881	-0.105320	-0.405796
O27	O	1.185303	-0.575238	-0.717916
O28	O	1.685303	-0.075238	-0.217916
O29	O	1.457276	-0.526978	-0.921853
O30	O	1.957276	-0.026978	-0.421853
O31	O	1.494284	-0.715559	-0.628738
O32	O	1.994284	-0.215559	-0.128738
O33	O	1.351936	-0.712609	-0.739034
O34	O	1.851936	-0.212609	-0.239034
C35	C	1.156033	-0.520869	-0.650033
C36	C	1.656033	-0.020869	-0.150033
C37	C	1.041718	-0.509242	-0.635553
C38	C	1.541718	-0.009242	-0.135553
C39	C	0.982831	-0.554162	-0.691494
C40	C	1.482831	-0.054162	-0.191494
C41	C	0.864681	-0.542146	-0.676530
C42	C	1.364681	-0.042146	-0.176530
C43	C	1.423115	-0.741032	-0.683904
C44	C	1.923115	-0.241032	-0.183904
C45	C	1.423152	-0.823584	-0.683936
C46	C	1.923152	-0.323584	-0.183936
C47	C	1.345814	-1.021463	-0.743900
C48	C	1.845814	-0.521463	-0.243900
C49	C	1.332669	-1.060964	-0.646879
C50	C	1.832669	-0.560964	-0.146879
C51	C	1.423252	-0.974726	-0.683962
C52	C	1.923252	-0.474726	-0.183962
C53	C	1.436446	-1.082312	-0.781001
C54	C	1.936446	-0.582312	-0.281001
C55	C	1.423345	-1.120722	-0.683996
C56	C	1.923345	-0.620722	-0.183996
C57	C	1.410063	-1.013131	-0.586886
C58	C	1.910063	-0.513131	-0.086886
C59	C	1.513876	-1.034484	-0.721076
C60	C	2.013876	-0.534484	-0.221076
C61	C	1.500775	-1.073962	-0.623995
C62	C	2.000775	-0.573962	-0.123995
C63	C	1.423195	-0.890621	-0.683944
C64	C	1.923195	-0.390621	-0.183944
C65	C	1.423402	-1.204825	-0.684003
C66	C	1.923402	-0.704825	-0.184003
C67	C	1.691484	-0.575426	-0.717973
C68	C	2.191484	-0.075426	-0.217973
C69	C	1.805795	-0.587073	-0.732478
C70	C	2.305795	-0.087073	-0.232478
C71	C	1.389213	-0.569162	-0.952184
C72	C	1.889213	-0.069162	-0.452184
C73	C	1.374714	-0.578139	-1.066495
C74	C	1.874714	-0.078139	-0.566495
C75	C	1.423384	-0.354407	-0.683996
C76	C	1.923384	0.145593	-0.183996
C77	C	1.423447	-0.271869	-0.684021
C78	C	1.923447	0.228131	-0.184021
C79	C	1.430788	-0.543380	-1.125403
C80	C	1.930788	-0.043380	-0.625403
C81	C	1.415804	-0.552658	-1.243549
C82	C	1.915804	-0.052658	-0.743549
C83	C	1.457187	-0.527061	-0.416741
C84	C	1.957187	-0.027061	0.083259
C85	C	1.471885	-0.517894	-0.302456
C86	C	1.971885	-0.017894	0.197544
H87	H	1.280253	-0.998449	-0.794494
H88	H	1.780253	-0.498449	-0.294494
H89	H	1.489884	-0.506750	-1.088368
H90	H	1.989884	-0.006750	-0.588368
N91	N	1.395982	-0.975518	-0.483917
N92	N	1.895982	-0.475518	0.016083
N93	N	1.393624	-0.905616	-0.467292
N94	N	1.893624	-0.405616	0.032708
H95	H	1.383669	-0.879049	-0.394573
H96	H	1.883669	-0.379049	0.105427
H97	H	1.356694	-0.589283	-1.280578
H98	H	1.856694	-0.089283	-0.780578
N99	N	0.852246	-0.646493	-0.806460
N100	N	1.352246	-0.146493	-0.306460
N101	N	0.796940	-0.688732	-0.859056
N102	N	1.296940	-0.188732	-0.359056
H103	H	0.829745	-0.730698	-0.911305
H104	H	1.329745	-0.230698	-0.411305
H105	H	1.566310	-1.096823	-0.573255
H106	H	2.066310	-0.596823	-0.073255
N107	N	1.546018	-0.471935	-1.255997
N108	N	2.046018	0.028065	-0.755997
N109	N	1.558082	-0.464458	-1.160087
N110	N	2.058082	0.035542	-0.660087
H111	H	1.610436	-0.431998	-1.127273
H112	H	2.110436	0.068002	-0.627273
N113	N	1.609924	-1.019392	-0.760495
N114	N	2.109924	-0.519392	-0.260495
N115	N	1.610967	-0.986004	-0.838872
N116	N	2.110967	-0.486004	-0.338872
H117	H	1.678799	-0.975344	-0.866725
H118	H	2.178799	-0.475344	-0.366725
N119	N	0.995228	-0.449832	-0.561586
N120	N	1.495228	0.050168	-0.061586
N121	N	0.899316	-0.440153	-0.549539
N122	N	1.399316	0.059847	-0.049539
H123	H	0.866482	-0.398193	-0.497299
H124	H	1.366482	0.101807	0.002701
H125	H	1.315608	-0.614761	-1.103528
H126	H	1.815608	-0.114761	-0.603528
H127	H	1.447571	-1.112369	-0.863052
H128	H	1.947571	-0.612369	-0.363052
H129	H	0.827631	-0.494786	-0.617559
H130	H	1.327631	0.005214	-0.117559
H131	H	1.019885	-0.601514	-0.750468
H132	H	1.519885	-0.101514	-0.250468
H133	H	1.256073	-1.072993	-0.615515
H134	H	1.756073	-0.572993	-0.115515
