data_functionalizedCrystal
_audit_creation_method	'MofGen! by Chris Wilmer'
_symmetry_space_group_name_H-M	'P1'
_symmetry_Int_Tables_number	1
_symmetry_cell_setting	triclinic
loop_
_symmetry_equiv_pos_as_xyz
  x,y,z
_cell_length_a	12.827893
_cell_length_b	25.639240
_cell_length_c	12.827885
_cell_angle_alpha	89.956835
_cell_angle_beta	89.980918
_cell_angle_gamma	90.032919
loop_
_atom_site_label
_atom_site_type_symbol
_atom_site_fract_x
_atom_site_fract_y
_atom_site_fract_z
Zn1	Zn	1.597543	-0.208123	-0.590746
Zn2	Zn	2.097543	0.291877	-0.090746
Zn3	Zn	1.597385	-0.295568	-0.415966
Zn4	Zn	2.097385	0.204432	0.084034
Zn5	Zn	1.422785	-0.208149	-0.416020
Zn6	Zn	1.922785	0.291851	0.083980
Zn7	Zn	1.422717	-0.295530	-0.590666
Zn8	Zn	1.922717	0.204470	-0.090666
O9	O	1.510108	-0.251843	-0.503350
O10	O	2.010108	0.248157	-0.003350
O11	O	1.743758	-0.219728	-0.567572
O12	O	2.243758	0.280272	-0.067572
O13	O	1.574185	-0.283999	-0.269737
O14	O	2.074185	0.216001	0.230263
O15	O	1.446062	-0.134980	-0.439255
O16	O	1.946062	0.365020	0.060745
O17	O	1.743642	-0.283974	-0.439161
O18	O	2.243642	0.216026	0.060839
O19	O	1.574456	-0.134961	-0.567625
O20	O	2.074456	0.365039	-0.067625
O21	O	1.445908	-0.219772	-0.269777
O22	O	1.945908	0.280228	0.230223
O23	O	1.276540	-0.219735	-0.439177
O24	O	1.776540	0.280265	0.060823
O25	O	1.445946	-0.283908	-0.736913
O26	O	1.945946	0.216092	-0.236913
O27	O	1.276490	-0.283933	-0.567489
O28	O	1.776490	0.216067	-0.067489
O29	O	1.574391	-0.219691	-0.736972
O30	O	2.074391	0.280309	-0.236972
O31	O	1.574120	-0.368728	-0.439084
O32	O	2.074120	0.131272	0.060916
O33	O	1.445792	-0.368700	-0.567435
O34	O	1.945792	0.131300	-0.067435
C35	C	1.238598	-0.251833	-0.503331
C36	C	1.738598	0.248167	-0.003331
C37	C	1.122445	-0.251841	-0.503347
C38	C	1.622445	0.248159	-0.003347
C39	C	0.950618	-0.283666	-0.566758
C40	C	1.450618	0.216334	-0.066758
C41	C	1.070669	-0.283658	-0.566742
C42	C	1.570669	0.216342	-0.066742
C43	C	1.509960	-0.387685	-0.503268
C44	C	2.009960	0.112315	-0.003268
C45	C	1.509992	-0.445799	-0.503268
C46	C	2.009992	0.054201	-0.003268
C47	C	1.576996	-0.806114	-0.570313
C48	C	2.076996	-0.306114	-0.070313
C49	C	1.577027	-0.860718	-0.570334
C50	C	2.077027	-0.360718	-0.070334
O51	O	1.633820	-0.888914	-0.627254
O52	O	2.133820	-0.388914	-0.127254
N53	N	1.510253	-0.888082	-0.503451
N54	N	2.010253	-0.388082	-0.003451
C55	C	1.443436	-0.860838	-0.436549
C56	C	1.943436	-0.360838	0.063451
O57	O	1.386642	-0.889127	-0.379663
O58	O	1.886642	-0.389127	0.120337
C59	C	1.443401	-0.806235	-0.436534
C60	C	1.943401	-0.306235	0.063466
C61	C	1.510186	-0.778874	-0.503414
C62	C	2.010186	-0.278874	-0.003414
C63	C	1.643775	-0.778753	-0.637188
C64	C	2.143775	-0.278753	-0.137188
C65	C	1.643746	-0.724153	-0.637165
C66	C	2.143746	-0.224153	-0.137165
C67	C	1.576936	-0.696913	-0.570267
C68	C	2.076936	-0.196913	-0.070267
C69	C	1.510157	-0.724273	-0.503391
C70	C	2.010157	-0.224273	-0.003391
C71	C	1.376579	-0.778992	-0.369639
C72	C	1.876579	-0.278992	0.130361
C73	C	1.376549	-0.724385	-0.369630
C74	C	1.876549	-0.224385	0.130370
C75	C	1.443335	-0.697024	-0.436510
C76	C	1.943335	-0.197024	0.063490
C77	C	1.443318	-0.642433	-0.436470
C78	C	1.943318	-0.142433	0.063530
N79	N	1.510092	-0.615070	-0.503353
N80	N	2.010092	-0.115070	-0.003353
C81	C	1.576901	-0.642310	-0.570252
C82	C	2.076901	-0.142310	-0.070252
C83	C	1.443514	-0.975508	-0.436588
C84	C	1.943514	-0.475508	0.063412
C85	C	1.443554	-1.030111	-0.436597
C86	C	1.943554	-0.530111	0.063403
C87	C	1.577143	-1.029987	-0.570383
C88	C	2.077143	-0.529987	-0.070383
C89	C	1.577108	-0.975384	-0.570368
C90	C	2.077108	-0.475384	-0.070368
C91	C	1.510288	-0.948145	-0.503471
C92	C	2.010288	-0.448145	-0.003471
C93	C	1.576834	-0.527644	-0.570198
C94	C	2.076834	-0.027644	-0.070198
C95	C	1.576802	-0.473039	-0.570166
C96	C	2.076802	0.026961	-0.070166
C97	C	1.443209	-0.473167	-0.436384
C98	C	1.943209	0.026833	0.063616
C99	C	1.443245	-0.527768	-0.436412
C100	C	1.943245	-0.027768	0.063588
C101	C	1.510061	-0.555005	-0.503327
C102	C	2.010061	-0.055005	-0.003327
O103	O	1.386551	-0.614203	-0.379582
O104	O	1.886551	-0.114203	0.120418
O105	O	1.633676	-0.614014	-0.627139
O106	O	2.133676	-0.114014	-0.127139
C107	C	1.782678	-0.251853	-0.503369
C108	C	2.282678	0.248147	-0.003369
C109	C	1.898831	-0.251857	-0.503378
C110	C	2.398831	0.248143	-0.003378
C111	C	1.510179	-0.251792	-0.775920
C112	C	2.010179	0.248208	-0.275920
C113	C	1.510209	-0.251771	-0.892073
C114	C	2.010209	0.248229	-0.392073
C115	C	1.510284	-0.115470	-0.503455
C116	C	2.010284	0.384530	-0.003455
C117	C	1.510360	-0.057355	-0.503499
C118	C	2.010360	0.442645	-0.003499
C119	C	1.573774	-0.219988	-0.943887
C120	C	2.073774	0.280012	-0.443887
C121	C	1.573807	-0.219965	-1.063937
C122	C	2.073807	0.280035	-0.563937
C123	C	1.510097	-0.251855	-0.231840
C124	C	2.010097	0.248145	0.268160
C125	C	1.510269	-0.251729	-0.115687
C126	C	2.010269	0.248271	0.384313
H127	H	1.115205	-0.310889	-0.621009
H128	H	1.615205	0.189111	-0.121009
H129	H	1.628231	-0.192756	-1.108496
H130	H	2.128231	0.307244	-0.608496
H131	H	0.943370	-0.224620	-0.449100
H132	H	1.443370	0.275380	0.050900
C133	C	1.650277	-0.442946	-0.643740
C134	C	2.150277	0.057054	-0.143740
N135	N	1.705617	-0.420281	-0.699154
N136	N	2.205617	0.079719	-0.199154
H137	H	1.455850	-0.278943	-1.071135
H138	H	1.955850	0.221057	-0.571135
H139	H	1.077915	-0.224605	-0.449087
H140	H	1.577915	0.275395	0.050913
C141	C	1.370092	-1.060201	-0.363015
C142	C	1.870092	-0.560201	0.136985
N143	N	1.314753	-1.082864	-0.307596
N144	N	1.814753	-0.582864	0.192404
C145	C	1.303101	-0.809076	-0.296071
C146	C	1.803101	-0.309076	0.203929
N147	N	1.247750	-0.831735	-0.240658
N148	N	1.747750	-0.331735	0.259342
H149	H	1.455806	-0.278961	-0.936590
H150	H	1.955806	0.221039	-0.436590
H151	H	0.906079	-0.310908	-0.621027
H152	H	1.406079	0.189092	-0.121027
H153	H	1.631490	-0.953110	-0.624828
H154	H	2.131490	-0.453110	-0.124828
H155	H	1.631235	-0.549815	-0.624694
H156	H	2.131235	-0.049815	-0.124694
H157	H	1.698125	-0.701879	-0.691628
H158	H	2.198125	-0.201879	-0.191628
C159	C	1.370006	-0.945551	-0.362987
C160	C	1.870006	-0.445551	0.137013
N161	N	1.314637	-0.922989	-0.307553
N162	N	1.814637	-0.422989	0.192447
C163	C	1.647261	-0.183248	-0.883751
C164	C	2.147261	0.316752	-0.383751
N165	N	1.702613	-0.155574	-0.838459
N166	N	2.202613	0.344426	-0.338459
C167	C	1.717286	-0.808709	-0.710780
C168	C	2.217286	-0.308709	-0.210780
N169	N	1.772668	-0.831267	-0.766205
N170	N	2.272668	-0.331267	-0.266205
C171	C	1.650628	-1.059962	-0.643981
C172	C	2.150628	-0.559962	-0.143981
N173	N	1.705971	-1.082540	-0.699412
N174	N	2.205971	-0.582540	-0.199412
C175	C	1.303041	-0.694425	-0.296034
C176	C	1.803041	-0.194425	0.203966
N177	N	1.247678	-0.671861	-0.240600
N178	N	1.747678	-0.171861	0.259400
H179	H	1.388870	-0.550046	-0.381944
H180	H	1.888870	-0.050046	0.118056
H181	H	1.388816	-0.450980	-0.381913
H182	H	1.888816	0.049020	0.118087
