data_functionalizedCrystal
_audit_creation_method	'MofGen! by Chris Wilmer'
_symmetry_space_group_name_H-M	'P1'
_symmetry_Int_Tables_number	1
_symmetry_cell_setting	triclinic
loop_
_symmetry_equiv_pos_as_xyz
  x,y,z
_cell_length_a	12.759401
_cell_length_b	13.897448
_cell_length_c	12.759393
_cell_angle_alpha	89.966654
_cell_angle_beta	89.981504
_cell_angle_gamma	90.017853
loop_
_atom_site_label
_atom_site_type_symbol
_atom_site_fract_x
_atom_site_fract_y
_atom_site_fract_z
Zn1	Zn	1.606234	-0.383954	-0.593968
Zn2	Zn	1.606119	-0.545283	-0.418283
Zn3	Zn	1.430536	-0.384004	-0.418308
Zn4	Zn	1.430515	-0.545209	-0.593924
O5	O	1.518351	-0.464613	-0.506121
O6	O	1.753239	-0.405365	-0.570671
O7	O	1.582788	-0.523942	-0.271265
O8	O	1.453899	-0.249016	-0.441638
O9	O	1.753155	-0.523893	-0.441596
O10	O	1.582983	-0.248979	-0.570695
O11	O	1.453788	-0.405451	-0.271283
O12	O	1.283512	-0.405379	-0.441596
O13	O	1.453864	-0.523766	-0.740951
O14	O	1.283497	-0.523815	-0.570621
O15	O	1.582964	-0.405293	-0.740984
O16	O	1.582768	-0.680255	-0.441554
O17	O	1.453753	-0.680201	-0.570597
C18	C	1.245383	-0.464595	-0.506107
C19	C	1.128607	-0.464611	-0.506125
C20	C	1.073764	-0.526379	-0.573198
C21	C	0.964040	-0.526391	-0.573209
C22	C	0.964011	-0.402864	-0.439067
C23	C	1.073733	-0.402847	-0.439062
C24	C	1.073780	-0.597700	-0.650640
C25	C	0.964056	-0.597712	-0.650652
C26	C	1.518274	-0.715227	-0.506090
C27	C	1.518337	-0.822441	-0.506113
C28	C	1.518448	-1.018736	-0.506178
C29	C	1.518383	-0.909503	-0.506145
C30	C	1.792384	-0.464631	-0.506136
C31	C	1.909161	-0.464639	-0.506142
C32	C	1.518424	-0.464515	-0.780154
C33	C	1.518456	-0.464474	-0.896931
C34	C	1.518456	-0.213020	-0.506174
C35	C	1.518501	-0.105806	-0.506197
C36	C	1.585687	-0.402779	-0.951812
C37	C	1.585712	-0.402744	-1.061536
C38	C	1.451271	-0.526107	-1.061489
C39	C	1.451242	-0.526137	-0.951767
C40	C	1.663309	-0.331559	-0.951839
C41	C	1.663334	-0.331524	-1.061564
C42	C	1.518338	-0.464640	-0.233154
C43	C	1.518510	-0.464410	-0.116377
H44	H	1.103590	-0.577777	-0.732048
H45	H	1.396492	-0.576371	-0.907087
O46	O	1.637397	-0.242492	-0.916157
C47	C	1.607922	-0.141723	-0.765384
C48	C	1.637305	-0.242625	-0.805652
H49	H	1.607816	-0.141803	-0.676036
H50	H	1.667524	-0.086997	-0.795101
H51	H	1.526590	-0.121686	-0.795216
H52	H	1.718611	-0.262753	-0.775836
H53	H	1.577635	-0.297293	-0.775944
O54	O	0.910748	-0.342738	-0.374033
C55	C	0.877229	-0.178614	-0.323307
C56	C	0.937593	-0.246594	-0.397043
H57	H	0.898927	-0.100868	-0.341869
H58	H	0.789375	-0.189151	-0.334839
H59	H	0.898752	-0.195509	-0.238563
H60	H	0.916158	-0.229741	-0.481815
H61	H	1.025432	-0.236044	-0.385420
H62	H	1.744703	-0.351532	-1.091341
O63	O	1.755575	-0.363479	-0.911397
C64	C	1.928930	-0.423565	-0.947801
C65	C	1.824504	-0.387412	-0.993742
H66	H	1.984679	-0.442945	-1.014355
H67	H	1.965514	-0.364646	-0.897573
H68	H	1.913870	-0.489940	-0.897452
H69	H	1.839474	-0.321055	-1.044138
H70	H	1.787951	-0.446390	-1.043911
O71	O	1.386088	-0.585978	-1.114921
C72	C	1.326503	-0.640564	-1.283933
C73	C	1.400392	-0.572725	-1.223556
H74	H	1.338026	-0.629859	-1.371774
H75	H	1.344915	-0.718372	-1.262417
H76	H	1.241800	-0.623636	-1.262295
H77	H	1.485120	-0.589566	-1.245162
H78	H	1.381889	-0.494937	-1.245077
H79	H	0.930060	-0.571046	-0.728004
O80	O	1.126958	-0.342939	-0.373766
C81	C	1.160417	-0.295848	-0.195153
C82	C	1.100096	-0.363775	-0.268981
H83	H	1.138705	-0.312656	-0.110421
H84	H	1.248278	-0.306441	-0.206575
H85	H	1.138870	-0.218103	-0.213823
H86	H	1.121555	-0.441546	-0.250358
H87	H	1.012250	-0.353097	-0.257546
H88	H	1.107791	-0.668626	-0.621353
H89	H	0.934257	-0.672400	-0.628717
H90	H	1.634224	-0.260546	-1.095614
