data_functionalizedCrystal
_audit_creation_method	'MofGen! by Chris Wilmer'
_symmetry_space_group_name_H-M	'P1'
_symmetry_Int_Tables_number	1
_symmetry_cell_setting	triclinic
loop_
_symmetry_equiv_pos_as_xyz
  x,y,z
_cell_length_a	18.101398
_cell_length_b	21.295417
_cell_length_c	18.101389
_cell_angle_alpha	89.977434
_cell_angle_beta	89.975673
_cell_angle_gamma	90.025773
loop_
_atom_site_label
_atom_site_type_symbol
_atom_site_fract_x
_atom_site_fract_y
_atom_site_fract_z
Zn1	Zn	1.132124	-0.250755	-0.418817
Zn2	Zn	1.465457	0.082579	-0.085484
Zn3	Zn	1.798791	0.415912	0.247849
Zn4	Zn	1.132021	-0.356008	-0.294967
Zn5	Zn	1.465355	-0.022675	0.038366
Zn6	Zn	1.798688	0.310658	0.371700
Zn7	Zn	1.008283	-0.250748	-0.294979
Zn8	Zn	1.341616	0.082585	0.038355
Zn9	Zn	1.674950	0.415919	0.371688
Zn10	Zn	1.008235	-0.355981	-0.418755
Zn11	Zn	1.341568	-0.022648	-0.085422
Zn12	Zn	1.674902	0.310685	0.247911
O13	O	1.070166	-0.303373	-0.356880
O14	O	1.403499	0.029960	-0.023546
O15	O	1.736832	0.363294	0.309787
O16	O	1.235743	-0.264731	-0.402409
O17	O	1.569077	0.068603	-0.069076
O18	O	1.902410	0.401936	0.264257
O19	O	1.115584	-0.342054	-0.191335
O20	O	1.448917	-0.008720	0.141998
O21	O	1.782251	0.324613	0.475331
O22	O	1.024774	-0.162660	-0.311437
O23	O	1.358107	0.170674	0.021897
O24	O	1.691441	0.504007	0.355230
O25	O	1.235668	-0.342060	-0.311417
O26	O	1.569001	-0.008727	0.021916
O27	O	1.902334	0.324607	0.355250
O28	O	1.115759	-0.162664	-0.402421
O29	O	1.449093	0.170669	-0.069087
O30	O	1.782426	0.504002	0.264246
O31	O	1.024674	-0.264720	-0.191344
O32	O	1.358008	0.068614	0.141989
O33	O	1.691341	0.401947	0.475323
O34	O	0.904644	-0.264694	-0.311377
O35	O	1.237977	0.068640	0.021957
O36	O	1.571310	0.401973	0.355290
O37	O	1.024692	-0.342014	-0.522397
O38	O	1.358025	-0.008681	-0.189063
O39	O	1.691359	0.324652	0.144270
O40	O	0.904609	-0.342008	-0.402315
O41	O	1.237942	-0.008675	-0.068982
O42	O	1.571275	0.324659	0.264352
O43	O	1.115713	-0.264705	-0.522442
O44	O	1.449046	0.068629	-0.189109
O45	O	1.782380	0.401962	0.144225
O46	O	1.115538	-0.444094	-0.311357
O47	O	1.448871	-0.110761	0.021976
O48	O	1.782204	0.222573	0.355310
O49	O	1.024592	-0.444074	-0.402304
O50	O	1.357926	-0.110741	-0.068971
O51	O	1.691259	0.222592	0.264363
C52	C	0.877755	-0.303348	-0.356841
C53	C	1.211089	0.029986	-0.023508
C54	C	1.544422	0.363319	0.309826
C55	C	0.795441	-0.303352	-0.356842
C56	C	1.128775	0.029982	-0.023509
C57	C	1.462108	0.363315	0.309825
C58	C	0.496350	-0.303391	-0.356904
C59	C	0.829684	0.029942	-0.023571
C60	C	1.163017	0.363276	0.309762
C61	C	0.527673	-0.254504	-0.299967
C62	C	0.861006	0.078829	0.033366
C63	C	1.194340	0.412163	0.366699
C64	C	0.613291	-0.254635	-0.299724
C65	C	0.946624	0.078698	0.033609
C66	C	1.279958	0.412032	0.366942
C67	C	0.644733	-0.303371	-0.356873
C68	C	0.978066	0.029962	-0.023540
C69	C	1.311399	0.363296	0.309793
C70	C	0.613615	-0.369679	-0.335543
C71	C	0.946949	-0.036346	-0.002210
C72	C	1.280282	0.296988	0.331124
C73	C	0.527970	-0.369407	-0.335147
C74	C	0.861304	-0.036074	-0.001814
C75	C	1.194637	0.297259	0.331519
C76	C	0.527965	-0.286547	-0.435305
C77	C	0.861298	0.046786	-0.101972
C78	C	1.194631	0.380120	0.231362
C79	C	0.613615	-0.285070	-0.434877
C80	C	0.946949	0.048263	-0.101544
C81	C	1.280282	0.381597	0.231789
C82	C	0.728592	-0.303364	-0.356857
C83	C	1.061926	0.029970	-0.023524
C84	C	1.395259	0.363303	0.309810
C85	C	0.412491	-0.303403	-0.356919
C86	C	0.745824	0.029931	-0.023585
C87	C	1.079157	0.363264	0.309748
C88	C	1.070069	-0.466925	-0.356839
C89	C	1.403402	-0.133591	-0.023505
C90	C	1.736735	0.199742	0.309828
C91	C	1.070095	-0.536893	-0.356846
C92	C	1.403428	-0.203559	-0.023512
C93	C	1.736762	0.129774	0.309821
C94	C	1.117492	-0.569749	-0.309538
C95	C	1.450826	-0.236416	0.023795
C96	C	1.784159	0.096918	0.357128
C97	C	1.117527	-0.635491	-0.309555
C98	C	1.450860	-0.302158	0.023778
C99	C	1.784194	0.031175	0.357112
C100	C	1.070151	-0.668375	-0.356871
C101	C	1.403484	-0.335042	-0.023538
C102	C	1.736818	-0.001709	0.309795
C103	C	1.022751	-0.635511	-0.404188
C104	C	1.356084	-0.302178	-0.070855
C105	C	1.689417	0.031155	0.262479
C106	C	1.022722	-0.569770	-0.404175
C107	C	1.356056	-0.236437	-0.070842
C108	C	1.689389	0.096897	0.262491
N109	N	1.005367	-0.771637	-0.362504
N110	N	1.338700	-0.438304	-0.029171
N111	N	1.672034	-0.104971	0.304163
N112	N	1.005396	-0.834089	-0.362512
N113	N	1.338729	-0.500755	-0.029178
N114	N	1.672062	-0.167422	0.304155
C115	C	1.070234	-0.866450	-0.356914
C116	C	1.403567	-0.533117	-0.023580
C117	C	1.736901	-0.199783	0.309753
N118	N	1.135044	-0.834001	-0.351293
N119	N	1.468377	-0.500667	-0.017960
N120	N	1.801711	-0.167334	0.315374
N121	N	1.135014	-0.771543	-0.351282
N122	N	1.468348	-0.438210	-0.017948
N123	N	1.801681	-0.104877	0.315385
C124	C	1.070177	-0.739661	-0.356891
C125	C	1.403510	-0.406327	-0.023557
C126	C	1.736843	-0.072994	0.309776
C127	C	1.117673	-0.970592	-0.309622
C128	C	1.451006	-0.637258	0.023712
C129	C	1.784340	-0.303925	0.357045
C130	C	1.117709	-1.036335	-0.309644
C131	C	1.451042	-0.703002	0.023690
C132	C	1.784376	-0.369669	0.357023
C133	C	1.022926	-1.036354	-0.404273
C134	C	1.356259	-0.703021	-0.070940
C135	C	1.689593	-0.369687	0.262394
C136	C	1.022897	-0.970612	-0.404255
C137	C	1.356230	-0.637278	-0.070922
C138	C	1.689563	-0.303945	0.262412
C139	C	1.070269	-0.937734	-0.356925
C140	C	1.403602	-0.604401	-0.023592
C141	C	1.736936	-0.271068	0.309741
C142	C	1.263328	-0.303399	-0.356919
C143	C	1.596661	0.029934	-0.023585
C144	C	1.929994	0.363267	0.309748
C145	C	1.345642	-0.303410	-0.356935
C146	C	1.678975	0.029923	-0.023602
C147	C	2.012308	0.363256	0.309731
C148	C	1.070209	-0.303357	-0.550042
C149	C	1.403542	0.029976	-0.216708
C150	C	1.736875	0.363310	0.116625
C151	C	1.070227	-0.303350	-0.632356
C152	C	1.403560	0.029983	-0.299022
C153	C	1.736894	0.363316	0.034311
C154	C	1.070283	-0.139183	-0.356937
C155	C	1.403617	0.194151	-0.023604
C156	C	1.736950	0.527484	0.309730
C157	C	1.070334	-0.069215	-0.356961
C158	C	1.403667	0.264119	-0.023628
C159	C	1.737000	0.597452	0.309705
C160	C	1.070270	-0.303232	-0.931447
C161	C	1.403603	0.030101	-0.598114
C162	C	1.736937	0.363434	-0.264780
C163	C	1.012805	-0.351719	-0.900093
C164	C	1.346138	-0.018385	-0.566760
C165	C	1.679472	0.314948	-0.233426
C166	C	1.012960	-0.351944	-0.814475
C167	C	1.346294	-0.018610	-0.481141
C168	C	1.679627	0.314723	-0.147808
C169	C	1.070248	-0.303291	-0.783064
C170	C	1.403581	0.030042	-0.449731
C171	C	1.736915	0.363376	-0.116398
C172	C	1.148274	-0.321303	-0.814168
C173	C	1.481607	0.012030	-0.480835
C174	C	1.814940	0.345364	-0.147502
C175	C	1.147953	-0.321621	-0.899813
C176	C	1.481287	0.011712	-0.566480
C177	C	1.814620	0.345045	-0.233147
C178	C	1.050388	-0.236626	-0.899877
C179	C	1.383721	0.096707	-0.566543
C180	C	1.717054	0.430041	-0.233210
C181	C	1.048652	-0.237011	-0.814226
C182	C	1.381985	0.096323	-0.480892
C183	C	1.715318	0.429656	-0.147559
C184	C	1.070240	-0.303323	-0.699205
C185	C	1.403574	0.030010	-0.365871
C186	C	1.736907	0.363344	-0.032538
C187	C	1.070283	-0.303202	-1.015306
C188	C	1.403616	0.030131	-0.681973
C189	C	1.736950	0.363465	-0.348640
C190	C	1.070166	-0.303344	-0.164469
C191	C	1.403499	0.029990	0.168864
C192	C	1.736832	0.363323	0.502198
C193	C	1.070291	-0.303173	-0.082155
C194	C	1.403624	0.030160	0.251178
C195	C	1.736958	0.363494	0.584511
H196	H	0.634331	-0.205465	-0.313095
H197	H	0.967664	0.127869	0.020238
H198	H	1.300998	0.461202	0.353572
H199	H	0.955101	-0.340671	-0.793443
H200	H	1.288435	-0.007338	-0.460110
H201	H	1.621768	0.325995	-0.126776
F202	F	0.501489	-0.333088	-0.490756
F203	F	0.834822	0.000246	-0.157423
F204	F	1.168155	0.333579	0.175911
H205	H	0.506392	-0.239037	-0.454697
H206	H	0.839725	0.094296	-0.121364
H207	H	1.173059	0.427629	0.211969
H208	H	1.165420	-0.369476	-0.792722
H209	H	1.498753	-0.036143	-0.459389
H210	H	1.832087	0.297191	-0.126055
H211	H	0.633980	-0.407079	-0.375715
H212	H	0.967314	-0.073746	-0.042382
H213	H	1.300647	0.259588	0.290952
H214	H	1.192239	-0.287098	-0.793825
H215	H	1.525572	0.046236	-0.460492
H216	H	1.858906	0.379569	-0.127159
H217	H	1.192220	-0.287839	-0.920557
H218	H	1.525554	0.045494	-0.587223
H219	H	1.858887	0.378827	-0.253890
H220	H	1.156067	-0.542982	-0.271002
H221	H	1.489401	-0.209649	0.062332
H222	H	1.822734	0.123685	0.395665
H223	H	0.994480	-0.220216	-0.921464
H224	H	1.327814	0.113117	-0.588131
H225	H	1.661147	0.446450	-0.254797
F226	F	0.936948	-0.337134	-0.926994
F227	F	1.270281	-0.003800	-0.593661
F228	F	1.603615	0.329533	-0.260327
F229	F	0.640029	-0.269186	-0.223790
F230	F	0.973362	0.064148	0.109543
F231	F	1.306696	0.397481	0.442876
F232	F	0.641603	-0.388677	-0.261437
F233	F	0.974937	-0.055344	0.071897
F234	F	1.308270	0.277989	0.405230
F235	F	1.029756	-0.415849	-0.928266
F236	F	1.363090	-0.082516	-0.594932
F237	F	1.696423	0.250817	-0.261599
H238	H	0.507959	-0.383693	-0.277832
H239	H	0.841292	-0.050360	0.055501
H240	H	1.174625	0.282973	0.388834
F241	F	1.030152	-0.416468	-0.787694
F242	F	1.363486	-0.083135	-0.454360
F243	F	1.696819	0.250199	-0.121027
H244	H	1.156126	-0.662248	-0.271032
H245	H	1.489459	-0.328915	0.062302
H246	H	1.822793	0.004419	0.395635
F247	F	1.169983	-0.385263	-0.925930
F248	F	1.503316	-0.051930	-0.592597
F249	F	1.836649	0.281404	-0.259263
F250	F	0.640215	-0.221296	-0.455907
F251	F	0.973548	0.112038	-0.122574
F252	F	1.306882	0.445371	0.210759
F253	F	0.641590	-0.328222	-0.493300
F254	F	0.974923	0.005111	-0.159966
F255	F	1.308256	0.338444	0.173367
F256	F	0.500786	-0.190036	-0.317250
F257	F	0.834120	0.143297	0.016084
F258	F	1.167453	0.476630	0.349417
H259	H	0.984178	-0.662290	-0.442715
H260	H	1.317512	-0.328956	-0.109381
H261	H	1.650845	0.004377	0.223952
F262	F	0.499494	-0.268882	-0.224478
F263	F	0.832828	0.064451	0.108856
F264	F	1.166161	0.397784	0.442189
H265	H	0.507249	-0.407065	-0.374809
H266	H	0.840582	-0.073731	-0.041475
H267	H	1.173915	0.259602	0.291858
H268	H	0.991232	-0.223428	-0.793895
H269	H	1.324565	0.109906	-0.460562
H270	H	1.657898	0.443239	-0.127228
F271	F	1.099373	-0.187285	-0.786288
F272	F	1.432706	0.146048	-0.452955
F273	F	1.766039	0.479382	-0.119622
F274	F	0.972274	-0.534801	-0.454529
F275	F	1.305607	-0.201468	-0.121195
F276	F	1.638940	0.131865	0.212138
F277	F	1.105095	-0.189408	-0.926382
F278	F	1.438428	0.143925	-0.593048
F279	F	1.771761	0.477259	-0.259715
F280	F	0.972509	-1.071347	-0.454635
F281	F	1.305842	-0.738014	-0.121302
F282	F	1.639176	-0.404680	0.212031
F283	F	1.168090	-0.935599	-0.259250
F284	F	1.501423	-0.602266	0.074083
F285	F	1.834756	-0.268932	0.407417
H286	H	1.156310	-1.063086	-0.271122
H287	H	1.489643	-0.729752	0.062212
H288	H	1.822977	-0.396419	0.395545
F289	F	0.972446	-0.935642	-0.454604
F290	F	1.305780	-0.602309	-0.121271
F291	F	1.639113	-0.268976	0.212063
