data_functionalizedCrystal
_audit_creation_method	'MofGen! by Chris Wilmer'
_symmetry_space_group_name_H-M	'P1'
_symmetry_Int_Tables_number	1
_symmetry_cell_setting	triclinic
loop_
_symmetry_equiv_pos_as_xyz
  x,y,z
_cell_length_a	21.295419
_cell_length_b	21.295417
_cell_length_c	19.805399
_cell_angle_alpha	89.969157
_cell_angle_beta	89.981377
_cell_angle_gamma	90.045308
loop_
_atom_site_label
_atom_site_type_symbol
_atom_site_fract_x
_atom_site_fract_y
_atom_site_fract_z
Zn1	Zn	0.962319	-0.250375	-0.382687
Zn2	Zn	1.462319	0.249625	0.117313
Zn3	Zn	0.962232	-0.355644	-0.269493
Zn4	Zn	1.462232	0.144356	0.230507
Zn5	Zn	0.857053	-0.250420	-0.269514
Zn6	Zn	1.357053	0.249580	0.230486
Zn7	Zn	0.857011	-0.355638	-0.382641
Zn8	Zn	1.357011	0.144362	0.117359
O9	O	0.909654	-0.303019	-0.326084
O10	O	1.409654	0.196981	0.173916
O11	O	1.050397	-0.264323	-0.367682
O12	O	1.550397	0.235677	0.132318
O13	O	0.948261	-0.341707	-0.174779
O14	O	1.448261	0.158293	0.325221
O15	O	0.871070	-0.162324	-0.284555
O16	O	1.371070	0.337676	0.215445
O17	O	1.050333	-0.341664	-0.284519
O18	O	1.550333	0.158336	0.215481
O19	O	0.948409	-0.162292	-0.367703
O20	O	1.448409	0.337708	0.132297
O21	O	0.870986	-0.264399	-0.174794
O22	O	1.370986	0.235601	0.325206
O23	O	0.768958	-0.264393	-0.284510
O24	O	1.268958	0.235607	0.215490
O25	O	0.871000	-0.341653	-0.477364
O26	O	1.371000	0.158347	0.022636
O27	O	0.768928	-0.341696	-0.367624
O28	O	1.268928	0.158304	0.132376
O29	O	0.948369	-0.264317	-0.477398
O30	O	1.448369	0.235683	0.022602
O31	O	0.948221	-0.443733	-0.284474
O32	O	1.448221	0.056267	0.215526
O33	O	0.870916	-0.443728	-0.367604
O34	O	1.370916	0.056272	0.132396
C35	C	0.746102	-0.303049	-0.326065
C36	C	1.246102	0.196951	0.173935
C37	C	0.676134	-0.303077	-0.326073
C38	C	1.176134	0.196923	0.173927
C39	C	0.909571	-0.466571	-0.326046
C40	C	1.409571	0.033429	0.173954
C41	C	0.909594	-0.536539	-0.326053
C42	C	1.409594	-0.036539	0.173947
C43	C	0.643323	-0.262872	-0.369443
C44	C	1.143323	0.237128	0.130557
C45	C	0.577581	-0.262855	-0.369446
C46	C	1.077581	0.237145	0.130554
C47	C	0.544652	-0.303055	-0.326085
C48	C	1.044652	0.196945	0.173915
C49	C	0.577470	-0.343263	-0.282706
C50	C	1.077470	0.156737	0.217294
C51	C	0.643212	-0.343274	-0.282700
C52	C	1.143212	0.156726	0.217300
N53	N	0.441377	-0.358133	-0.320795
N54	N	0.941377	0.141867	0.179205
N55	N	0.378925	-0.358120	-0.320805
N56	N	0.878925	0.141880	0.179195
C57	C	0.346577	-0.303022	-0.326100
C58	C	0.846577	0.196978	0.173900
N59	N	0.379039	-0.247936	-0.331398
N60	N	0.879039	0.252064	0.168602
N61	N	0.441496	-0.247949	-0.331392
N62	N	0.941496	0.252051	0.168608
C63	C	0.473366	-0.303047	-0.326087
C64	C	0.973366	0.196953	0.173913
C65	C	0.242480	-0.262795	-0.369475
C66	C	0.742480	0.237205	0.130525
C67	C	0.176737	-0.262777	-0.369473
C68	C	0.676737	0.237223	0.130527
C69	C	0.176628	-0.343191	-0.282738
C70	C	0.676628	0.156809	0.217262
C71	C	0.242370	-0.343203	-0.282736
C72	C	0.742370	0.156797	0.217264
C73	C	0.275293	-0.303006	-0.326109
C74	C	0.775293	0.196994	0.173891
C75	C	0.949882	-0.569387	-0.282811
C76	C	1.449882	-0.069387	0.217189
C77	C	0.949912	-0.635130	-0.282827
C78	C	1.449912	-0.135130	0.217173
C79	C	0.909641	-0.668021	-0.326076
C80	C	1.409641	-0.168021	0.173924
C81	C	0.869350	-0.635165	-0.369326
C82	C	1.369350	-0.135165	0.130674
C83	C	0.869326	-0.569424	-0.369314
C84	C	1.369326	-0.069424	0.130686
N85	N	0.854574	-0.771301	-0.331230
N86	N	1.354574	-0.271301	0.168770
N87	N	0.854598	-0.833753	-0.331237
N88	N	1.354598	-0.333753	0.168763
C89	C	0.909712	-0.866096	-0.326115
C90	C	1.409712	-0.366096	0.173885
N91	N	0.964801	-0.833629	-0.320972
N92	N	1.464801	-0.333629	0.179028
N93	N	0.964776	-0.771171	-0.320962
N94	N	1.464776	-0.271171	0.179038
C95	C	0.909663	-0.739307	-0.326094
C96	C	1.409663	-0.239307	0.173906
C97	C	0.950036	-0.970230	-0.282888
C98	C	1.450036	-0.470230	0.217112
C99	C	0.950066	-1.035973	-0.282908
C100	C	1.450066	-0.535973	0.217092
C101	C	0.869499	-1.036008	-0.369403
C102	C	1.369499	-0.536008	0.130597
C103	C	0.869474	-0.970265	-0.369387
C104	C	1.369474	-0.470265	0.130613
C105	C	0.909742	-0.937380	-0.326126
C106	C	1.409742	-0.437380	0.173874
C107	C	1.073844	-0.302989	-0.326103
C108	C	1.573844	0.197011	0.173897
C109	C	1.143812	-0.302977	-0.326111
C110	C	1.643812	0.197023	0.173889
C111	C	0.909689	-0.302980	-0.502626
C112	C	1.409689	0.197020	-0.002626
C113	C	0.909704	-0.302963	-0.577859
C114	C	1.409704	0.197037	-0.077859
C115	C	0.909754	-0.138829	-0.326136
C116	C	1.409754	0.361171	0.173864
C117	C	0.909796	-0.068861	-0.326158
C118	C	1.409796	0.431139	0.173842
C119	C	0.949991	-0.262692	-0.613221
C120	C	1.449991	0.237308	-0.113221
C121	C	0.949998	-0.262674	-0.683910
C122	C	1.449998	0.237326	-0.183910
C123	C	0.909720	-0.302930	-0.719234
C124	C	1.409720	0.197070	-0.219234
C125	C	0.869428	-0.343202	-0.683866
C126	C	1.369428	0.156798	-0.183866
C127	C	0.869419	-0.343217	-0.613179
C128	C	1.369419	0.156783	-0.113179
C129	C	0.869464	-0.343144	-0.968940
C130	C	1.369464	0.156856	-0.468940
C131	C	0.869478	-0.343127	-1.039632
C132	C	1.369478	0.156873	-0.539632
C133	C	0.950042	-0.262600	-1.039671
C134	C	1.450042	0.237400	-0.539671
C135	C	0.950033	-0.262615	-0.968983
C136	C	1.450033	0.237385	-0.468983
C137	C	0.909740	-0.302885	-0.933622
C138	C	1.409740	0.197115	-0.433622
C139	C	0.909732	-0.302903	-0.856973
C140	C	1.409732	0.197097	-0.356973
C141	C	0.909730	-0.302915	-0.795881
C142	C	1.409730	0.197085	-0.295881
C143	C	0.909655	-0.303013	-0.150228
C144	C	1.409655	0.196987	0.349772
C145	C	0.909762	-0.302853	-0.074996
C146	C	1.409762	0.197147	0.425004
H147	H	0.670124	-0.230140	-0.404760
H148	H	1.170124	0.269860	0.095240
H149	H	0.982849	-0.229808	-1.068470
H150	H	1.482849	0.270192	-0.568470
H151	H	0.982792	-0.229912	-0.584465
H152	H	1.482792	0.270088	-0.084465
O153	O	0.830154	-0.537443	-0.411224
O154	O	1.330154	-0.037443	0.088776
C155	C	0.789492	-0.499503	-0.372640
C156	C	1.289492	0.000497	0.127360
H157	H	0.811717	-0.489664	-0.321365
H158	H	1.311717	0.010336	0.178635
H159	H	0.742856	-0.524899	-0.365164
H160	H	1.242856	-0.024899	0.134836
C161	C	0.750753	-0.449127	-0.472831
C162	C	1.250753	0.050873	0.027169
C163	C	0.778053	-0.437038	-0.409856
C164	C	1.278053	0.062962	0.090144
H165	H	0.743694	-0.410596	-0.495788
H166	H	1.243694	0.089404	0.004212
H167	H	0.778146	-0.474689	-0.498827
H168	H	1.278146	0.025311	0.001173
H169	H	0.711893	-0.470292	-0.466592
H170	H	1.211893	0.029708	0.033408
H171	H	0.816916	-0.415881	-0.416096
H172	H	1.316916	0.084119	0.083904
H173	H	0.750666	-0.411470	-0.383862
H174	H	1.250666	0.088530	0.116138
H175	H	0.550861	-0.230112	-0.404762
H176	H	1.050861	0.269888	0.095238
O177	O	0.144833	-0.223653	-0.411509
O178	O	0.644833	0.276347	0.088491
C179	C	0.106820	-0.182948	-0.373063
C180	C	0.606820	0.317052	0.126937
H181	H	0.126617	-0.178991	-0.319762
H182	H	0.626617	0.321009	0.180238
H183	H	0.056976	-0.202399	-0.370692
H184	H	0.556976	0.297601	0.129308
C185	C	0.081569	-0.122412	-0.471736
C186	C	0.581569	0.377588	0.028264
C187	C	0.105887	-0.117548	-0.406272
C188	C	0.605887	0.382452	0.093728
H189	H	0.080991	-0.082071	-0.492222
H190	H	0.580991	0.417929	0.007778
H191	H	0.107177	-0.149837	-0.497639
H192	H	0.607177	0.350163	0.002361
H193	H	0.040034	-0.138624	-0.469751
H194	H	0.540034	0.361376	0.030249
H195	H	0.147423	-0.101344	-0.408258
H196	H	0.647423	0.398656	0.091742
H197	H	0.080286	-0.090118	-0.380370
H198	H	0.580286	0.409882	0.119630
O199	O	0.144622	-0.382310	-0.240713
O200	O	0.644622	0.117690	0.259287
C201	C	0.106557	-0.422997	-0.279170
C202	C	0.606557	0.077003	0.220830
H203	H	0.126383	-0.426952	-0.332470
H204	H	0.626383	0.073048	0.167530
H205	H	0.056752	-0.403529	-0.281542
H206	H	0.556752	0.096471	0.218458
C207	C	0.081123	-0.483539	-0.180510
C208	C	0.581123	0.016461	0.319490
C209	C	0.105477	-0.488401	-0.245973
C210	C	0.605477	0.011599	0.254027
H211	H	0.080454	-0.523883	-0.160032
H212	H	0.580454	-0.023883	0.339968
H213	H	0.106766	-0.456126	-0.154600
H214	H	0.606766	0.043874	0.345400
H215	H	0.039621	-0.467313	-0.182496
H216	H	0.539621	0.032687	0.317504
H217	H	0.146981	-0.504619	-0.243985
H218	H	0.646981	-0.004619	0.256015
H219	H	0.079841	-0.515819	-0.271881
H220	H	0.579841	-0.015819	0.228119
H221	H	0.982672	-0.542614	-0.247587
H222	H	1.482672	-0.042614	0.252413
H223	H	0.269085	-0.375945	-0.247422
H224	H	0.769085	0.124055	0.252578
H225	H	0.982878	-1.062717	-0.247697
H226	H	1.482878	-0.562717	0.252303
O227	O	0.989067	-0.666950	-0.240754
O228	O	1.489067	-0.166950	0.259246
C229	C	1.024615	-0.623827	-0.202582
C230	C	1.524615	-0.123827	0.297418
H231	H	0.998819	-0.576994	-0.200207
H232	H	1.498819	-0.076994	0.299793
H233	H	1.072411	-0.616768	-0.227407
H234	H	1.572411	-0.116768	0.272593
C235	C	1.065409	-0.707045	-0.133474
C236	C	1.565409	-0.207045	0.366526
C237	C	1.033724	-0.649524	-0.130553
C238	C	1.533724	-0.149524	0.369447
H239	H	1.071031	-0.722896	-0.089044
H240	H	1.571031	-0.222896	0.410956
H241	H	1.041462	-0.736098	-0.159192
H242	H	1.541462	-0.236098	0.340808
H243	H	1.105236	-0.701154	-0.154165
H244	H	1.605236	-0.201154	0.345835
H245	H	0.993895	-0.655417	-0.109870
H246	H	1.493895	-0.155417	0.390130
H247	H	1.057664	-0.620473	-0.104829
H248	H	1.557664	-0.120473	0.395171
H249	H	0.982826	-0.943454	-0.247664
H250	H	1.482826	-0.443454	0.252336
O251	O	0.830402	-1.068048	-0.411355
O252	O	1.330402	-0.568048	0.088645
C253	C	0.839076	-1.133118	-0.402110
C254	C	1.339076	-0.633118	0.097890
H255	H	0.859722	-1.142109	-0.349896
H256	H	1.359722	-0.642109	0.150104
H257	H	0.872586	-1.151705	-0.442293
H258	H	1.372586	-0.651705	0.057707
C259	C	0.750037	-1.155899	-0.472391
C260	C	1.250037	-0.655899	0.027609
C261	C	0.775390	-1.166943	-0.408259
C262	C	1.275390	-0.666943	0.091741
H263	H	0.710753	-1.176765	-0.476187
H264	H	1.210753	-0.676765	0.023813
H265	H	0.744194	-1.112061	-0.478623
H266	H	1.244194	-0.612061	0.021377
H267	H	0.777968	-1.171389	-0.505870
H268	H	1.277968	-0.671389	-0.005870
H269	H	0.747463	-1.151446	-0.374783
H270	H	1.247463	-0.651446	0.125217
H271	H	0.781226	-1.210779	-0.402023
H272	H	1.281226	-0.710779	0.097977
H273	H	0.982805	-0.229883	-0.712699
H274	H	1.482805	0.270117	-0.212699
H275	H	0.836665	-0.943519	-0.404595
H276	H	1.336665	-0.443519	0.095405
O277	O	0.989179	-0.223450	-0.934775
O278	O	1.489179	0.276550	-0.434775
C279	C	1.024750	-0.187911	-0.981146
C280	C	1.524750	0.312089	-0.481146
H281	H	0.998975	-0.185726	-1.031531
H282	H	1.498975	0.314274	-0.531531
H283	H	1.072546	-0.210952	-0.988664
H284	H	1.572546	0.289048	-0.488664
C285	C	1.065513	-0.123602	-0.891698
C286	C	1.565513	0.376398	-0.391698
C287	C	1.033854	-0.120914	-0.953580
C288	C	1.533854	0.379086	-0.453580
H289	H	1.071133	-0.082276	-0.874694
H290	H	1.571133	0.417724	-0.374694
H291	H	1.041550	-0.147547	-0.860456
H292	H	1.541550	0.352453	-0.360456
H293	H	1.105341	-0.142805	-0.897971
H294	H	1.605341	0.357195	-0.397971
H295	H	0.994025	-0.101719	-0.947305
H296	H	1.494025	0.398281	-0.447305
H297	H	1.057811	-0.096965	-0.984820
H298	H	1.557811	0.403035	-0.484820
O299	O	0.830287	-0.382252	-1.073843
O300	O	1.330287	0.117748	-0.573843
C301	C	0.794730	-0.417809	-1.027475
C302	C	1.294730	0.082191	-0.527475
H303	H	0.792558	-0.392037	-0.977094
H304	H	1.292558	0.107963	-0.477094
H305	H	0.817747	-0.465617	-1.019945
H306	H	1.317747	0.034383	-0.519945
C307	C	0.730401	-0.458533	-1.116931
C308	C	1.230401	0.041467	-0.616931
C309	C	0.727729	-0.426877	-1.055054
C310	C	1.227729	0.073123	-0.555054
H311	H	0.689072	-0.464130	-1.133944
H312	H	1.189072	0.035870	-0.633944
H313	H	0.754357	-0.434580	-1.148171
H314	H	1.254357	0.065420	-0.648171
H315	H	0.749584	-0.498370	-1.110648
H316	H	1.249584	0.001630	-0.610648
H317	H	0.708553	-0.387038	-1.061340
H318	H	1.208553	0.112962	-0.561340
H319	H	0.703767	-0.450824	-1.023816
H320	H	1.203767	0.049176	-0.523816
H321	H	0.836664	-0.375943	-0.940157
H322	H	1.336664	0.124057	-0.440157
H323	H	0.550656	-0.375993	-0.247401
H324	H	1.050656	0.124007	0.252599
O325	O	0.830318	-0.667183	-0.411371
O326	O	1.330318	-0.167183	0.088629
C327	C	0.866148	-0.705130	-0.455138
C328	C	1.366148	-0.205130	0.044862
H329	H	0.913869	-0.714940	-0.431314
H330	H	1.413869	-0.214940	0.068686
H331	H	0.873029	-0.679755	-0.505301
H332	H	1.373029	-0.179755	-0.005301
C333	C	0.772916	-0.755562	-0.496631
C334	C	1.272916	-0.255562	0.003369
C335	C	0.831526	-0.767614	-0.467367
C336	C	1.331526	-0.267614	0.032633
H337	H	0.751559	-0.794104	-0.504177
H338	H	1.251559	-0.294104	-0.004177
H339	H	0.748776	-0.729994	-0.467146
H340	H	1.248776	-0.229994	0.032854
H341	H	0.778659	-0.734414	-0.538429
H342	H	1.278659	-0.234414	-0.038429
H343	H	0.825783	-0.788754	-0.425565
H344	H	1.325783	-0.288754	0.074435
H345	H	0.855664	-0.793186	-0.496845
H346	H	1.355664	-0.293186	0.003155
H347	H	0.836631	-0.375977	-0.712633
H348	H	1.336631	0.124023	-0.212633
H349	H	0.836607	-0.376003	-0.584388
H350	H	1.336607	0.123997	-0.084388
H351	H	0.669926	-0.376015	-0.247382
H352	H	1.169926	0.123985	0.252618
H353	H	0.269287	-0.230060	-0.404787
H354	H	0.769287	0.269940	0.095213
