data_functionalizedCrystal
_audit_creation_method	'MofGen! by Chris Wilmer'
_symmetry_space_group_name_H-M	'P1'
_symmetry_Int_Tables_number	1
_symmetry_cell_setting	triclinic
loop_
_symmetry_equiv_pos_as_xyz
  x,y,z
_cell_length_a	13.032721
_cell_length_b	12.759401
_cell_length_c	12.759393
_cell_angle_alpha	90.022497
_cell_angle_beta	97.149226
_cell_angle_gamma	82.794670
loop_
_atom_site_label
_atom_site_type_symbol
_atom_site_fract_x
_atom_site_fract_y
_atom_site_fract_z
Zn1	Zn	-0.415964	-1.553110	-0.647143
Zn2	Zn	-0.590744	-1.530666	-0.493766
Zn3	Zn	-0.416018	-1.377402	-0.471480
Zn4	Zn	-0.590668	-1.355076	-0.669389
O5	O	-0.503348	-1.454064	-0.570444
O6	O	-0.439158	-1.697153	-0.626814
O7	O	-0.567620	-1.510287	-0.343795
O8	O	-0.269773	-1.419447	-0.476146
O9	O	-0.567568	-1.680664	-0.514128
O10	O	-0.269734	-1.548539	-0.605204
O11	O	-0.439249	-1.397684	-0.327422
O12	O	-0.439176	-1.227421	-0.497716
O13	O	-0.567440	-1.381394	-0.813452
O14	O	-0.567491	-1.211017	-0.643119
O15	O	-0.439085	-1.526890	-0.797108
O16	O	-0.736971	-1.488637	-0.535699
O17	O	-0.736916	-1.359631	-0.664728
C18	C	-0.503332	-1.181098	-0.570414
C19	C	-0.503351	-1.064319	-0.570429
C20	C	-0.570265	-1.000931	-0.646046
C21	C	-0.570268	-0.891206	-0.646064
C22	C	-0.436438	-0.908269	-0.494839
C23	C	-0.436431	-1.017992	-0.494827
C24	C	-0.607764	-0.736519	-0.774705
C25	C	-0.674695	-0.673125	-0.850315
C26	C	-0.776680	-0.695690	-0.879277
C27	C	-0.811755	-0.781645	-0.832618
C28	C	-0.744829	-0.845033	-0.757001
C29	C	-0.642830	-0.822471	-0.728057
C30	C	-0.398946	-1.172680	-0.366186
C31	C	-0.332025	-1.236070	-0.290563
C32	C	-0.230038	-1.213507	-0.261590
C33	C	-0.194967	-1.127548	-0.308231
C34	C	-0.261888	-1.064159	-0.383854
C35	C	-0.363874	-1.086729	-0.412829
C36	C	-0.774861	-1.419305	-0.605069
C37	C	-0.891016	-1.404531	-0.619916
C38	C	-0.942794	-1.461830	-0.562742
C39	C	-1.062845	-1.446562	-0.578087
C40	C	-0.230775	-1.488987	-0.535708
C41	C	-0.114621	-1.503869	-0.520905
C42	C	-0.503248	-1.454155	-0.844465
C43	C	-0.503205	-1.454194	-0.961236
C44	C	-0.503362	-0.728095	-0.570468
C45	C	-0.503360	-0.844872	-0.570460
C46	C	-0.436361	-1.529960	-1.007588
C47	C	-0.436315	-1.529983	-1.117307
C48	C	-0.569969	-1.378471	-1.134312
C49	C	-0.570008	-1.378444	-1.024595
C50	C	-0.313020	-1.583351	-1.251553
C51	C	-0.246184	-1.659132	-1.297910
C52	C	-0.230161	-1.763693	-1.260276
C53	C	-0.280988	-1.792491	-1.176290
C54	C	-0.347832	-1.716715	-1.129940
C55	C	-0.363835	-1.612142	-1.167569
C56	C	-0.693305	-1.325087	-0.890348
C57	C	-0.760155	-1.249314	-0.843996
C58	C	-0.776189	-1.144750	-0.881628
C59	C	-0.725380	-1.115954	-0.965621
C60	C	-0.658530	-1.191726	-1.011972
C61	C	-0.642494	-1.296289	-0.974332
C62	C	-0.503373	-1.454043	-0.297480
C63	C	-0.503121	-1.454245	-0.180672
H64	H	-0.898248	-1.522194	-0.502437
C65	C	-1.230259	-1.365717	-0.658949
C66	C	-1.122970	-1.365070	-0.659508
H67	H	-1.267375	-1.315404	-0.709210
H68	H	-1.248015	-1.434049	-0.676646
H69	H	-1.248151	-1.348118	-0.590611
H70	H	-1.105077	-1.382677	-0.727844
H71	H	-1.105207	-1.296723	-0.641817
C72	C	-0.924743	-1.349007	-0.802053
C73	C	-0.951145	-1.323047	-0.701337
H74	H	-0.961868	-1.298703	-0.852319
H75	H	-0.851963	-1.348569	-0.802415
H76	H	-0.942510	-1.417349	-0.819734
H77	H	-0.933371	-1.254708	-0.683652
H78	H	-1.023941	-1.323474	-0.700971
H79	H	-0.381963	-1.591638	-0.956004
C80	C	-0.115495	-1.799644	-1.392913
C81	C	-0.156710	-1.846997	-1.311245
H82	H	-0.070148	-1.851071	-1.424379
H83	H	-0.170675	-1.771027	-1.444631
H84	H	-0.077692	-1.744731	-1.365110
H85	H	-0.194519	-1.901906	-1.339050
H86	H	-0.101521	-1.875631	-1.259518
H87	H	-0.389218	-1.740163	-1.061563
H88	H	-1.070077	-1.564237	-0.460596
H89	H	-0.624753	-1.038647	-0.707609
C90	C	-0.193973	-1.967862	-1.193345
C91	C	-0.263379	-1.907433	-1.134929
H92	H	-0.183097	-2.038821	-1.167802
H93	H	-0.222353	-1.966040	-1.265684
H94	H	-0.129392	-1.939714	-1.186151
H95	H	-0.327964	-1.935576	-1.142130
H96	H	-0.235002	-1.909260	-1.062573
H97	H	-0.204801	-1.635675	-1.366292
H98	H	-0.773386	-0.915015	-0.719011
C99	C	-0.199430	-1.280351	-0.083064
C100	C	-0.156478	-1.283183	-0.178458
H101	H	-0.154018	-1.323368	-0.031748
H102	H	-0.208209	-1.209687	-0.059097
H103	H	-0.265189	-1.306096	-0.093650
H104	H	-0.090722	-1.257431	-0.167874
H105	H	-0.147687	-1.353861	-0.202429
H106	H	-0.326052	-1.498210	-1.282196
H107	H	-0.624360	-1.316800	-1.185913
H108	H	-0.617159	-1.168271	-1.080364
H109	H	-0.830633	-1.083059	-0.843886
H110	H	-0.646127	-0.603141	-0.888305
H111	H	-0.738439	-1.030810	-0.996266
C112	C	-0.385316	-0.880942	-0.310508
C113	C	-0.362890	-0.857341	-0.411734
H114	H	-0.339905	-0.849506	-0.259202
H115	H	-0.455505	-0.853965	-0.303975
H116	H	-0.375730	-0.955364	-0.299691
H117	H	-0.372483	-0.782919	-0.422554
H118	H	-0.292684	-0.884313	-0.418270
H119	H	-0.111928	-1.109165	-0.284624
H120	H	-0.831175	-0.644066	-0.940842
C121	C	-0.770903	-1.481495	-0.859634
C122	C	-0.675690	-1.440041	-0.849010
H123	H	-0.760031	-1.552467	-0.834129
H124	H	-0.817972	-1.440505	-0.819997
H125	H	-0.799269	-1.479641	-0.931989
H126	H	-0.647327	-1.441888	-0.776654
H127	H	-0.628604	-1.481042	-0.888646
C128	C	-0.975200	-0.732656	-0.940678
C129	C	-0.923866	-0.806442	-0.864451
H130	H	-1.044410	-0.747974	-0.960335
H131	H	-0.976962	-0.663694	-0.912350
H132	H	-0.939047	-0.736274	-1.001051
H133	H	-0.960014	-0.802819	-0.804074
H134	H	-0.922109	-0.875422	-0.892777
C135	C	-0.508437	-1.299156	-0.439780
C136	C	-0.511057	-1.197483	-0.398037
H137	H	-0.577650	-1.314467	-0.459434
H138	H	-0.472294	-1.302757	-0.500149
H139	H	-0.473602	-1.349199	-0.388056
H140	H	-0.545885	-1.147439	-0.449764
H141	H	-0.547215	-1.193873	-0.337660
H142	H	-0.801535	-1.272772	-0.775613
H143	H	-0.524716	-0.718146	-0.751139
H144	H	-0.360589	-1.306061	-0.252586
H145	H	-0.233322	-0.994172	-0.421838
