data_functionalizedCrystal
_audit_creation_method	'MofGen! by Chris Wilmer'
_symmetry_space_group_name_H-M	'P1'
_symmetry_Int_Tables_number	1
_symmetry_cell_setting	triclinic
loop_
_symmetry_equiv_pos_as_xyz
  x,y,z
_cell_length_a	19.288859
_cell_length_b	18.366186
_cell_length_c	14.971486
_cell_angle_alpha	90.006443
_cell_angle_beta	83.373927
_cell_angle_gamma	90.009917
loop_
_atom_site_label
_atom_site_type_symbol
_atom_site_fract_x
_atom_site_fract_y
_atom_site_fract_z
O1	O	0.921719	0.060564	0.111554
O2	O	0.719507	0.060563	0.126612
O3	O	0.826033	0.060558	-0.011146
O4	O	0.815193	0.060569	0.249313
O5	O	0.826015	-0.060541	-0.011153
O6	O	0.719489	-0.060537	0.126606
O7	O	0.921701	-0.060535	0.111548
Zn8	Zn	0.820592	-0.079763	0.119076
Zn9	Zn	0.820616	0.079791	0.119084
O10	O	0.815175	-0.060531	0.249306
C11	C	0.693620	0.000013	0.126125
C12	C	0.616511	0.000012	0.124674
C13	C	0.052702	0.000016	0.195684
C14	C	0.125153	0.000020	0.197056
C15	C	0.169596	0.000015	0.116225
C16	C	0.141583	0.000025	0.034017
C17	C	0.069133	0.000029	0.032647
C18	C	0.290664	-0.042416	0.055940
C19	C	0.363112	-0.042424	0.057313
C20	C	0.393056	0.000008	0.120446
C21	C	0.350541	0.042439	0.182221
C22	C	0.278092	0.042442	0.180852
C23	C	0.248157	0.000012	0.117701
C24	C	0.499620	0.000007	0.204136
C25	C	0.572073	0.000015	0.205505
C26	C	0.588502	0.000014	0.042464
C27	C	0.516051	0.000013	0.041098
C28	C	0.471614	0.000006	0.121937
N29	N	0.820581	-0.188654	0.119069
C30	C	0.867766	-0.226756	0.058099
C31	C	0.867770	-0.302984	0.058095
C32	C	0.820596	-0.341107	0.119076
C33	C	0.773402	-0.302995	0.180051
C34	C	0.773394	-0.226769	0.180047
C35	C	0.811564	-0.461864	0.200575
C36	C	0.811576	-0.538089	0.200580
C37	C	0.820616	-0.576214	0.119088
C38	C	0.829658	-0.538105	0.037587
C39	C	0.829650	-0.461879	0.037583
C40	C	0.820599	-0.423762	0.119087
C41	C	0.867809	-0.696972	0.058109
C42	C	0.867808	-0.773201	0.058103
C43	C	0.773443	-0.773211	0.180066
C44	C	0.773440	-0.696983	0.180064
C45	C	0.820627	-0.658868	0.119086
C46	C	0.947588	0.000016	0.112035
C47	C	1.024697	0.000022	0.113486
C48	C	0.825539	0.000009	-0.044472
C49	C	0.824086	0.000010	-0.143761
N50	N	0.820633	0.188682	0.119084
C51	C	0.886667	0.000010	-0.201326
C52	C	0.885298	0.000017	-0.294618
C53	C	0.821347	0.000019	-0.330343
C54	C	0.758761	0.000021	-0.272770
C55	C	0.760131	0.000019	-0.179480
C56	C	0.755911	0.000024	-0.467217
C57	C	0.754541	0.000025	-0.560514
C58	C	0.881078	0.000022	-0.582355
C59	C	0.882448	0.000019	-0.489065
C60	C	0.819861	0.000020	-0.431499
C61	C	0.815669	0.000020	0.282632
C62	C	0.817122	0.000024	0.381921
H63	H	0.147960	0.000008	0.263993
C64	C	0.258258	-0.088437	-0.012748
C65	C	0.284677	-0.066325	-0.099541
C66	C	0.254848	-0.108705	-0.162836
H67	H	0.209024	-0.082393	-0.004844
H68	H	0.269348	-0.138231	-0.004720
H69	H	0.273582	-0.016543	-0.107565
H70	H	0.333908	-0.072371	-0.107474
H71	H	0.265938	-0.158500	-0.154808
H72	H	0.205615	-0.102659	-0.154923
H73	H	0.272774	-0.093713	-0.221732
C74	C	0.451337	-0.000141	0.291873
C75	C	0.409267	-0.062453	0.295859
C76	C	0.364789	-0.062618	0.376673
H77	H	0.422673	0.042040	0.294818
H78	H	0.478372	-0.000177	0.341050
H79	H	0.382234	-0.062410	0.246695
H80	H	0.437912	-0.104644	0.292929
H81	H	0.391824	-0.062655	0.425850
H82	H	0.336130	-0.020436	0.379611
H83	H	0.336244	-0.104900	0.379392
H84	H	0.735030	-0.804249	0.229715
H85	H	0.243479	0.076992	0.231149
C86	C	0.382985	0.088426	0.250903
C87	C	0.356595	0.066296	0.337700
C88	C	0.386474	0.108638	0.400988
H89	H	0.371921	0.138225	0.242932
H90	H	0.432224	0.082349	0.242934
H91	H	0.307368	0.072379	0.345665
H92	H	0.367659	0.016503	0.345699
H93	H	0.435712	0.102561	0.393020
H94	H	0.375407	0.158435	0.393009
H95	H	0.368578	0.093624	0.459886
C96	C	0.839329	-0.579521	-0.050881
C97	C	0.780744	-0.623282	-0.057793
C98	C	0.789628	-0.661437	-0.139280
H99	H	0.879735	-0.609306	-0.052916
H100	H	0.844678	-0.545926	-0.099439
H101	H	0.775403	-0.656873	-0.009248
H102	H	0.740331	-0.593515	-0.055774
H103	H	0.794976	-0.627843	-0.187838
H104	H	0.830035	-0.691219	-0.141307
H105	H	0.749877	-0.691129	-0.143984
H106	H	0.906230	-0.804224	0.008450
H107	H	0.906186	-0.195726	0.008446
H108	H	0.938744	0.000003	-0.172247
C109	C	0.004494	0.000168	0.283479
C110	C	0.017166	0.062479	0.332987
C111	C	-0.027237	0.062650	0.413864
H112	H	0.012943	-0.042013	0.317299
H113	H	-0.042678	0.000211	0.270935
H114	H	0.064327	0.062429	0.345534
H115	H	0.008712	0.104670	0.299194
H116	H	-0.074409	0.062693	0.401320
H117	H	-0.018783	0.020466	0.447676
H118	H	-0.018649	0.104931	0.447461
C119	C	0.685090	0.000188	-0.599257
C120	C	0.647280	0.062507	-0.569992
C121	C	0.583304	0.062690	-0.605677
H122	H	0.659218	-0.041988	-0.579515
H123	H	0.693215	0.000227	-0.663065
H124	H	0.639153	0.062462	-0.506198
H125	H	0.673131	0.104693	-0.589734
H126	H	0.591429	0.062729	-0.669485
H127	H	0.557439	0.020512	-0.585931
H128	H	0.557645	0.104976	-0.585832
C129	C	0.801613	-0.579418	0.289087
C130	C	0.737037	-0.560902	0.336099
C131	C	0.727830	-0.598963	0.417633
H132	H	0.837900	-0.566938	0.324127
H133	H	0.802874	-0.630283	0.277461
H134	H	0.735782	-0.510048	0.347728
H135	H	0.700738	-0.573383	0.301086
H136	H	0.729090	-0.649828	0.406007
H137	H	0.764120	-0.586480	0.452665
H138	H	0.684012	-0.586410	0.449537
C139	C	0.722185	-0.655741	0.246369
C140	C	0.680883	-0.705439	0.299790
C141	C	0.633661	-0.667475	0.360890
H142	H	0.693178	-0.626014	0.214393
H143	H	0.747179	-0.626009	0.283569
H144	H	0.655890	-0.735159	0.262596
H145	H	0.709870	-0.735167	0.331787
H146	H	0.658656	-0.637743	0.398090
H147	H	0.604660	-0.637749	0.328906
H148	H	0.605637	-0.701189	0.397149
H149	H	0.906229	-0.665937	0.008454
H150	H	0.934522	0.000012	-0.459982
C151	C	0.189717	0.000058	-0.053839
C152	C	0.149680	0.000083	-0.126121
C153	C	0.193996	0.000127	-0.207071
H154	H	0.218328	-0.042162	-0.056829
H155	H	0.218320	0.042303	-0.056735
H156	H	0.121089	-0.042158	-0.123227
H157	H	0.121070	0.042300	-0.123161
H158	H	0.222599	0.042373	-0.209967
H159	H	0.222605	-0.042093	-0.210051
H160	H	0.166838	0.000151	-0.256124
H161	H	0.493249	0.000013	-0.025836
H162	H	0.932038	0.000023	-0.629231
C163	C	0.687983	0.000173	-0.404670
C164	C	0.685072	0.062483	-0.350479
C165	C	0.622507	0.062646	-0.292857
H166	H	0.685817	-0.042009	-0.367746
H167	H	0.649678	0.000211	-0.439272
H168	H	0.723366	0.062438	-0.315879
H169	H	0.687227	0.104675	-0.387379
H170	H	0.584202	0.062684	-0.327460
H171	H	0.620346	0.020462	-0.255939
H172	H	0.620521	0.104926	-0.256088
H173	H	0.709171	0.000019	-0.132610
C174	C	0.636711	0.000160	-0.045326
C175	C	0.624066	0.062473	-0.094821
C176	C	0.668472	0.062641	-0.175695
H177	H	0.628246	-0.042020	-0.079157
H178	H	0.683882	0.000198	-0.032779
H179	H	0.576906	0.062428	-0.107371
H180	H	0.632535	0.104663	-0.061018
H181	H	0.715643	0.062679	-0.163147
H182	H	0.660004	0.020458	-0.209517
H183	H	0.659903	0.104922	-0.209283
C184	C	0.409291	-0.088588	-0.009614
C185	C	0.446245	-0.138814	0.036963
C186	C	0.488784	-0.181358	-0.024662
H187	H	0.441259	-0.058082	-0.045211
H188	H	0.381106	-0.113897	-0.047407
H189	H	0.474428	-0.113508	0.074740
H190	H	0.414295	-0.169337	0.072556
H191	H	0.460600	-0.206667	-0.062455
H192	H	0.520748	-0.150846	-0.060256
H193	H	0.513858	-0.215446	0.006930
H194	H	0.594872	0.000016	0.272443
H195	H	0.804190	-0.430829	0.266940
H196	H	0.046333	0.000034	-0.034290
C197	C	0.722151	-0.344476	0.246117
C198	C	0.679616	-0.388273	0.198610
C199	C	0.632397	-0.426503	0.259438
H200	H	0.693978	-0.310948	0.282456
H201	H	0.747150	-0.374241	0.283259
H202	H	0.654619	-0.358512	0.161484
H203	H	0.707769	-0.421815	0.162274
H204	H	0.657396	-0.456267	0.296580
H205	H	0.604230	-0.392969	0.295774
H206	H	0.603536	-0.456228	0.227214
H207	H	0.936258	0.000015	-0.341485
H208	H	0.906195	-0.334013	0.008445
C209	C	0.722135	-0.185528	0.246351
C210	C	0.680830	-0.235225	0.299770
C211	C	0.633609	-0.197259	0.360870
H212	H	0.693130	-0.155799	0.214375
H213	H	0.747130	-0.155798	0.283553
H214	H	0.655836	-0.264942	0.262574
H215	H	0.709815	-0.264955	0.331767
H216	H	0.658605	-0.167529	0.398071
H217	H	0.604610	-0.167531	0.328885
H218	H	0.605583	-0.230972	0.397127
H219	H	0.837011	-0.430854	-0.028777
H220	H	0.706691	0.000027	-0.301865
