data_functionalizedCrystal
_audit_creation_method	'MofGen! by Chris Wilmer'
_symmetry_space_group_name_H-M	'P1'
_symmetry_Int_Tables_number	1
_symmetry_cell_setting	triclinic
loop_
_symmetry_equiv_pos_as_xyz
  x,y,z
_cell_length_a	17.699083
_cell_length_b	14.044220
_cell_length_c	16.776229
_cell_angle_alpha	89.992645
_cell_angle_beta	89.998886
_cell_angle_gamma	88.235946
loop_
_atom_site_label
_atom_site_type_symbol
_atom_site_fract_x
_atom_site_fract_y
_atom_site_fract_z
O1	O	1.012346	0.119850	-0.066178
O2	O	0.793043	0.135443	-0.066204
O3	O	0.899403	-0.010330	-0.066183
O4	O	0.905986	0.265624	-0.066198
O5	O	0.899387	-0.010339	0.066393
O6	O	0.793027	0.135434	0.066372
O7	O	1.012330	0.119841	0.066399
Zn8	Zn	0.902676	0.127636	0.087435
Zn9	Zn	0.902697	0.127648	-0.087240
O10	O	0.905970	0.265615	0.066378
C11	C	0.764800	0.134880	0.000081
C12	C	0.680666	0.133204	0.000071
C13	C	0.637948	0.218769	0.000067
C14	C	0.558895	0.217189	0.000077
C15	C	0.522563	0.130041	0.000086
C16	C	0.565287	0.044469	0.000093
C17	C	0.644338	0.046050	0.000088
C18	C	0.246484	0.038089	0.000113
C19	C	0.167427	0.036514	0.000115
C20	C	0.161041	0.209227	0.000102
C21	C	0.240092	0.210809	0.000097
C22	C	0.282809	0.125237	0.000108
C23	C	0.368527	0.126952	0.000098
C24	C	0.436847	0.128325	0.000090
C25	C	0.896513	-0.045643	0.000105
C26	C	0.887917	-0.150849	0.000105
C27	C	0.872202	-0.343474	0.000091
C28	C	0.933168	-0.401248	0.000096
C29	C	0.924424	-0.508431	0.000089
C30	C	0.880945	-0.236281	0.000099
C31	C	1.040574	0.120404	0.000112
C32	C	1.124707	0.122081	0.000117
C33	C	0.908860	0.300927	0.000088
C34	C	0.917456	0.406133	0.000083
N35	N	0.902667	0.127628	0.206646
N36	N	0.902712	0.127649	-0.206452
C37	C	0.949781	0.063106	0.248372
C38	C	0.949785	0.063105	0.331825
C39	C	0.902679	0.127631	0.373549
C40	C	0.855560	0.192156	0.331817
C41	C	0.855552	0.192152	0.248366
C42	C	0.855589	0.192175	0.668364
C43	C	0.855601	0.192176	0.751821
C44	C	0.949821	0.063128	0.751822
C45	C	0.949813	0.063123	0.668372
C46	C	0.902692	0.127645	0.626647
C47	C	0.902687	0.127644	0.536159
C48	C	0.902687	0.127638	0.464036
H49	H	0.269670	0.281773	0.000086
N50	N	0.290120	-0.049311	0.000126
N51	N	0.334943	-0.067705	0.056011
H52	H	0.365765	-0.129435	0.056021
H53	H	0.126251	0.278904	0.000097
H54	H	0.988174	0.010583	0.634402
H55	H	0.817222	0.244712	0.634398
H56	H	0.817239	0.244723	0.785791
N57	N	0.807440	0.258056	0.374447
N58	N	0.807453	0.258053	0.448956
H59	H	0.773468	0.304597	0.479063
H60	H	0.813445	-0.374508	0.000082
N61	N	0.997948	-0.002803	0.794432
N62	N	1.040003	-0.060409	0.757167
H63	H	1.073993	-0.106971	0.787258
H64	H	0.991930	-0.370212	0.000050
H65	H	0.988143	0.010565	0.214406
H66	H	0.988148	0.010565	0.365798
H67	H	0.137848	-0.034456	0.000124
N68	N	0.807430	0.258075	0.205754
N69	N	0.814378	0.345675	0.215061
H70	H	0.780389	0.392235	0.184968
N71	N	0.675044	0.307799	0.000067
N72	N	0.664074	0.365438	0.055950
H73	H	0.690271	0.428318	0.055954
N74	N	0.515271	0.304601	0.000077
N75	N	0.547720	0.382405	0.000065
H76	H	0.516911	0.444145	0.000066
H77	H	0.535699	-0.026488	0.000112
H78	H	0.679119	-0.023626	0.000091
