data_functionalizedCrystal
_audit_creation_method	'MofGen! by Chris Wilmer'
_symmetry_space_group_name_H-M	'P1'
_symmetry_Int_Tables_number	1
_symmetry_cell_setting	triclinic
loop_
_symmetry_equiv_pos_as_xyz
  x,y,z
_cell_length_a	19.805407
_cell_length_b	29.839131
_cell_length_c	29.839126
_cell_angle_alpha	90.021998
_cell_angle_beta	90.026958
_cell_angle_gamma	90.041420
loop_
_atom_site_label
_atom_site_type_symbol
_atom_site_fract_x
_atom_site_fract_y
_atom_site_fract_z
Zn1	Zn	1.034714	-0.178897	0.254020
Zn2	Zn	1.034585	-0.254015	0.178890
Zn3	Zn	0.921514	-0.178900	0.178901
Zn4	Zn	0.921463	-0.254001	0.253990
O5	O	0.978069	-0.216453	0.216450
O6	O	1.129414	-0.188867	0.244062
O7	O	1.019553	-0.244058	0.116024
O8	O	0.936606	-0.116032	0.188883
O9	O	1.129319	-0.244055	0.188864
O10	O	1.019774	-0.116030	0.244072
O11	O	0.936481	-0.188871	0.116032
O12	O	0.826791	-0.188857	0.188854
O13	O	0.936519	-0.244031	0.316861
O14	O	0.826753	-0.244034	0.244021
O15	O	1.019724	-0.188853	0.316883
O16	O	1.019503	-0.316880	0.188835
O17	O	0.936393	-0.316870	0.244010
C18	C	0.802213	-0.216445	0.216436
C19	C	0.726981	-0.216452	0.216440
C20	C	0.691635	-0.245225	0.245119
C21	C	0.620947	-0.245226	0.245125
C22	C	0.585606	-0.216455	0.216450
C23	C	0.620957	-0.187678	0.187770
C24	C	0.691644	-0.187676	0.187766
C25	C	0.335883	-0.187688	0.187784
C26	C	0.265191	-0.187694	0.187789
C27	C	0.265186	-0.245239	0.245144
C28	C	0.335873	-0.245236	0.245140
C29	C	0.371218	-0.216458	0.216462
C30	C	0.447867	-0.216457	0.216456
C31	C	0.508958	-0.216458	0.216453
C32	C	0.977947	-0.333176	0.216428
C33	C	0.977957	-0.383110	0.216433
C34	C	1.021423	-0.692746	0.187762
C35	C	1.021507	-0.880419	0.187780
O36	O	1.058367	-0.904678	0.163385
N37	N	0.978210	-0.903895	0.216484
C38	C	0.934891	-0.880450	0.245188
O39	O	0.898071	-0.904724	0.269607
C40	C	0.934812	-0.692778	0.245173
C41	C	0.978107	-0.669304	0.216463
C42	C	1.064716	-0.669273	0.159055
C43	C	1.064692	-0.622357	0.159049
C44	C	1.021376	-0.598915	0.187750
C45	C	0.978083	-0.622389	0.216457
C46	C	0.891497	-0.669334	0.273879
C47	C	0.891482	-0.622413	0.273873
C48	C	0.934778	-0.598939	0.245164
C49	C	0.934743	-0.552032	0.245152
N50	N	0.978040	-0.528556	0.216448
C51	C	1.021357	-0.551998	0.187747
C52	C	0.934935	-0.978981	0.245194
C53	C	0.934954	-1.025898	0.245197
C54	C	1.021571	-1.025865	0.187789
C55	C	1.021548	-0.978946	0.187784
C56	C	0.978233	-0.955505	0.216489
C57	C	1.021303	-0.453472	0.187737
C58	C	1.021273	-0.406552	0.187732
C59	C	0.934659	-0.406590	0.245142
C60	C	0.934686	-0.453506	0.245145
C61	C	0.978013	-0.476945	0.216441
O62	O	0.897907	-0.527744	0.269538
O63	O	1.058182	-0.527716	0.163339
C64	C	1.021447	-0.739662	0.187768
C65	C	0.978155	-0.763135	0.216475
C66	C	0.934839	-0.739693	0.245176
C67	C	0.978174	-0.810053	0.216478
C68	C	1.021490	-0.833495	0.187777
C69	C	1.064788	-0.810019	0.159073
C70	C	1.064764	-0.763104	0.159067
C71	C	0.891541	-0.763169	0.273880
C72	C	0.891568	-0.810085	0.273883
C73	C	0.934884	-0.833527	0.245182
C74	C	1.154612	-0.216462	0.216465
C75	C	1.229844	-0.216466	0.216471
C76	C	0.978130	-0.216440	0.333628
C77	C	0.978156	-0.216435	0.383563
C78	C	0.978210	-0.099275	0.216482
C79	C	0.978270	-0.049340	0.216496
C80	C	0.978048	-0.216434	0.099728
C81	C	0.978153	-0.216313	0.049793
C82	C	1.021402	-0.245111	0.740149
C83	C	1.021404	-0.245142	0.552476
O84	O	1.058167	-0.269594	0.528210
N85	N	0.978153	-0.216413	0.529008
C86	C	0.934895	-0.187677	0.552461
O87	O	0.898103	-0.163245	0.528194
C88	C	0.934891	-0.187648	0.740134
C89	C	0.978150	-0.216375	0.763599
C90	C	1.064657	-0.273836	0.763614
C91	C	1.064659	-0.273826	0.810530
C92	C	1.021406	-0.245091	0.833980
C93	C	0.978152	-0.216366	0.810515
C94	C	0.891631	-0.158914	0.763586
C95	C	0.891633	-0.158910	0.810507
C96	C	0.934891	-0.187638	0.833973
C97	C	0.934901	-0.187620	0.880880
N98	N	0.978152	-0.216349	0.904348
C99	C	1.021404	-0.245085	0.880898
C100	C	0.934901	-0.187693	0.453931
C101	C	0.934903	-0.187700	0.407013
C102	C	1.021411	-0.245166	0.407031
C103	C	1.021412	-0.245157	0.453949
C104	C	0.978152	-0.216422	0.477399
C105	C	1.021406	-0.245062	0.979424
C106	C	1.021406	-0.245048	1.026343
C107	C	0.934896	-0.187584	1.026322
C108	C	0.934898	-0.187595	0.979406
C109	C	0.978155	-0.216338	0.955958
O110	O	0.898152	-0.163185	0.905175
O111	O	1.058181	-0.269520	0.905173
C112	C	1.021401	-0.245121	0.693233
C113	C	0.978146	-0.216395	0.669768
C114	C	0.934893	-0.187660	0.693218
C115	C	0.978148	-0.216402	0.622850
C116	C	1.021400	-0.245137	0.599400
C117	C	1.064651	-0.273866	0.622868
C118	C	1.064653	-0.273856	0.669783
C119	C	0.891643	-0.158931	0.669751
C120	C	0.891645	-0.158943	0.622835
C121	C	0.934897	-0.187678	0.599385
H122	H	0.236400	-0.268670	0.268497
O123	O	0.586701	-0.159752	0.159853
C124	C	0.603914	-0.169511	0.115057
H125	H	0.655221	-0.186776	0.114091
H126	H	0.606346	-0.137058	0.094973
H127	H	0.564096	-0.192588	0.099886
H128	H	0.236419	-0.164263	0.164438
H129	H	1.099872	-0.297261	0.603767
O130	O	0.370107	-0.159720	0.159885
C131	C	0.323754	-0.134320	0.134586
H132	H	0.273349	-0.152725	0.132997
H133	H	0.344153	-0.129470	0.099198
H134	H	0.316277	-0.100227	0.151103
O135	O	0.586507	-0.273136	0.272969
C136	C	0.516539	-0.266977	0.266819
H137	H	0.506906	-0.232284	0.252172
H138	H	0.489701	-0.270075	0.300466
H139	H	0.496430	-0.293589	0.242846
H140	H	0.720422	-0.164243	0.164415
H141	H	0.899661	-0.959898	0.268570
H142	H	1.056529	-0.387441	0.164352
H143	H	1.056585	-0.472551	0.164364
O144	O	1.106820	-0.599628	0.131151
C145	C	1.145043	-0.630387	0.105818
H146	H	1.147375	-0.663820	0.124226
H147	H	1.198373	-0.616804	0.101061
H148	H	1.120288	-0.635410	0.071681
O149	O	0.849370	-0.599594	0.301696
C150	C	0.805641	-0.572507	0.276092
H151	H	0.829529	-0.565474	0.242060
H152	H	0.796539	-0.539513	0.294385
H153	H	0.755496	-0.590628	0.271128
H154	H	0.720404	-0.268656	0.268469
H155	H	1.099993	-0.688354	0.135683
O156	O	1.063671	-0.956215	0.159883
C157	C	1.101889	-0.986972	0.134544
H158	H	1.104229	-1.020406	0.152951
H159	H	1.155217	-0.973387	0.129781
H160	H	1.077126	-0.991995	0.100410
H161	H	0.899389	-0.387497	0.268509
H162	H	0.856404	-0.135522	0.744489
H163	H	1.056841	-1.044959	0.164419
H164	H	1.099879	-0.297238	0.744526
O165	O	0.849586	-0.131097	0.599994
C166	C	0.805827	-0.156682	0.572850
H167	H	0.829664	-0.190727	0.565818
H168	H	0.796765	-0.138389	0.539859
H169	H	0.755668	-0.161618	0.590921
O170	O	0.370098	-0.273198	0.273038
C171	C	0.323742	-0.298603	0.298346
H172	H	0.273372	-0.280207	0.299938
H173	H	0.344191	-0.303444	0.333732
H174	H	0.316178	-0.332700	0.281834
H175	H	0.899692	-1.045007	0.268571
O176	O	0.849420	-0.692059	0.301812
C177	C	0.811182	-0.661298	0.327133
H178	H	0.838896	-0.627836	0.328694
H179	H	0.803947	-0.674835	0.362529
H180	H	0.759783	-0.656350	0.310652
H181	H	1.100019	-0.743995	0.135689
O182	O	1.063336	-0.272976	1.049188
C183	C	1.024772	-0.301994	1.076304
H184	H	0.973496	-0.286149	1.083321
H185	H	1.052340	-0.308006	1.109303
H186	H	1.017299	-0.335291	1.058215
H187	H	0.899433	-0.472619	0.268524
H188	H	1.100055	-0.829114	0.135702
O189	O	0.849485	-0.832815	0.301816
C190	C	0.811240	-0.802057	0.327137
H191	H	0.838948	-0.768593	0.328699
H192	H	0.804007	-0.815596	0.362533
H193	H	0.759842	-0.797113	0.310656
H194	H	1.056634	-0.268464	0.960338
H195	H	1.056637	-0.268549	0.473052
O196	O	0.849555	-0.740382	0.301808
C197	C	0.888044	-0.713191	0.330843
H198	H	0.941361	-0.727286	0.333655
H199	H	0.863534	-0.712665	0.365400
H200	H	0.890361	-0.677637	0.316953
H201	H	1.099882	-0.297221	0.829631
O202	O	1.063360	-0.273067	0.384177
C203	C	1.054092	-0.266901	0.337736
H204	H	1.001877	-0.252181	0.331320
H205	H	1.058632	-0.300554	0.319895
H206	H	1.094271	-0.242984	0.324438
O207	O	0.892823	-0.159776	0.384291
C208	C	0.854661	-0.134407	0.415056
H209	H	0.852301	-0.152806	0.448494
H210	H	0.801336	-0.129615	0.401487
H211	H	0.879486	-0.100287	0.420062
H212	H	0.899672	-0.164293	0.473019
H213	H	0.856405	-0.135510	0.829597
O214	O	0.892815	-0.159676	0.956679
C215	C	0.854653	-0.134302	0.987440
H216	H	0.852300	-0.152694	1.020882
H217	H	0.801326	-0.129517	0.973873
H218	H	0.879474	-0.100180	0.992438
O219	O	0.892810	-0.159736	1.049127
C220	C	0.849084	-0.185313	1.076255
H221	H	0.844864	-0.220697	1.062103
H222	H	0.797012	-0.169066	1.076781
H223	H	0.870016	-0.186858	1.111818
H224	H	1.099879	-0.297249	0.688885
H225	H	0.856419	-0.135532	0.688839
