data_functionalizedCrystal
_audit_creation_method	'MofGen! by Chris Wilmer'
_symmetry_space_group_name_H-M	'P1'
_symmetry_Int_Tables_number	1
_symmetry_cell_setting	triclinic
loop_
_symmetry_equiv_pos_as_xyz
  x,y,z
_cell_length_a	18.050591
_cell_length_b	15.297327
_cell_length_c	15.296720
_cell_angle_alpha	72.680778
_cell_angle_beta	99.656035
_cell_angle_gamma	80.295981
loop_
_atom_site_label
_atom_site_type_symbol
_atom_site_fract_x
_atom_site_fract_y
_atom_site_fract_z
Zn1	Zn	0.985502	0.461333	-0.589979
Zn2	Zn	0.985418	0.589955	-0.461373
Zn3	Zn	0.887310	0.434450	-0.434482
Zn4	Zn	0.835305	0.616780	-0.616795
O5	O	0.923384	0.525630	-0.525657
O6	O	1.089408	0.478419	-0.572950
O7	O	0.994133	0.546849	-0.327685
O8	O	0.922135	0.307882	-0.432632
O9	O	1.089346	0.572917	-0.478464
O10	O	0.994276	0.327633	-0.546875
O11	O	0.922053	0.432601	-0.307928
O12	O	0.776495	0.458613	-0.458635
O13	O	0.833500	0.618637	-0.743358
O14	O	0.738287	0.592570	-0.592579
O15	O	0.943849	0.504431	-0.723657
O16	O	0.943705	0.723648	-0.504467
O17	O	0.833418	0.743356	-0.618655
C18	C	0.730446	0.525586	-0.525600
C19	C	0.647899	0.525594	-0.525601
C20	C	0.882926	0.767248	-0.567409
C21	C	0.865681	0.870619	-0.585302
C22	C	0.882883	0.567525	-0.768190
C23	C	0.865624	0.585378	-0.871543
C24	C	0.469192	0.452700	-0.452892
C25	C	0.409424	0.533566	-0.444678
C26	C	0.496757	0.525629	-0.525648
C27	C	0.409439	0.444793	-0.533865
C28	C	0.350762	0.525656	-0.525690
C29	C	0.438076	0.606532	-0.517397
C30	C	0.438098	0.517708	-0.606614
C31	C	0.378337	0.598638	-0.598441
C32	C	0.580861	0.525612	-0.525621
C33	C	0.266658	0.525682	-0.525719
C34	C	1.117075	0.525674	-0.525715
C35	C	1.199614	0.525693	-0.525740
C36	C	0.964016	0.283071	-0.483763
C37	C	0.981331	0.179707	-0.465910
C38	C	1.046891	1.120861	-0.398092
C39	C	1.063094	1.023738	-0.381277
C40	C	1.013742	0.985453	-0.432282
C41	C	0.948184	1.044301	-0.500105
C42	C	0.931976	1.141432	-0.516917
C43	C	0.898828	1.006025	-0.551106
C44	C	0.833270	1.064873	-0.618930
C45	C	0.817065	1.161994	-0.635739
C46	C	0.866417	1.200279	-0.584734
C47	C	0.915036	0.908894	-0.534294
C48	C	0.800122	0.929465	-0.653119
C49	C	0.783918	1.026588	-0.669935
C50	C	1.046791	0.397866	-1.121848
C51	C	1.063011	0.381093	-1.024743
C52	C	1.013666	0.432163	-0.986438
C53	C	0.948098	0.500008	-1.045248
C54	C	0.931879	0.516788	-1.142363
C55	C	0.898754	0.551085	-1.006953
C56	C	0.833186	0.618930	-1.065763
C57	C	0.816970	0.635706	-1.162869
C58	C	0.866315	0.584637	-1.201174
C59	C	0.914972	0.534305	-0.909838
C60	C	0.800060	0.653227	-0.930353
C61	C	0.783840	0.670000	-1.027458
C62	C	0.963781	0.483830	-0.284056
C63	C	0.981227	0.465715	-0.180659
H64	H	0.396484	0.540285	-0.376226
H65	H	0.763585	0.690958	-1.210751
O66	O	0.850536	0.601100	-1.295534
C67	C	0.831456	0.714309	-1.450296
C68	C	0.849311	0.695802	-1.343458
H69	H	0.830476	0.790868	-1.489073
H70	H	0.772758	0.699622	-1.473372
H71	H	0.877976	0.666105	-1.467533
H72	H	0.802840	0.743993	-1.326143
H73	H	0.908032	0.710459	-1.320438
H74	H	0.450913	0.674912	-0.510386
H75	H	1.086964	0.356298	-1.153047
H76	H	1.087062	1.152041	-0.356566
H77	H	0.853229	1.279364	-0.598424
H78	H	0.396486	0.376424	-0.540769
O79	O	0.516009	0.379099	-0.379551
C80	C	0.615585	0.236498	-0.330984
C81	C	0.562597	0.319783	-0.414130
H82	H	0.653277	0.188529	-0.358910
H83	H	0.578813	0.195053	-0.288870
H84	H	0.653933	0.264299	-0.283608
H85	H	0.524240	0.292063	-0.461574
H86	H	0.599415	0.361214	-0.456173
O87	O	0.720203	0.735903	-1.084730
C88	C	0.644274	0.814406	-1.243420
C89	C	0.716377	0.739761	-1.178671
H90	H	0.641147	0.817537	-1.319383
H91	H	0.647925	0.886131	-1.237358
H92	H	0.590334	0.794764	-1.221437
H93	H	0.770352	0.759315	-1.200612
H94	H	0.712658	0.668057	-1.184742
O95	O	0.331728	0.672402	-0.671792
C96	C	0.293352	0.840929	-0.746022
C97	C	0.346168	0.757478	-0.662898
H98	H	0.305020	0.909732	-0.738870
H99	H	0.230333	0.840129	-0.745873
H100	H	0.305641	0.834696	-0.814905
H101	H	0.333948	0.763656	-0.593972
H102	H	0.409171	0.758305	-0.663130
H103	H	1.116398	0.325856	-0.976867
O104	O	0.453568	0.509493	-0.688189
C105	C	0.456942	0.414979	-0.789085
C106	C	0.439406	0.424166	-0.696666
H107	H	0.445484	0.346006	-0.795978
H108	H	0.520067	0.415685	-0.788567
H109	H	0.418202	0.476490	-0.851170
H110	H	0.478096	0.362671	-0.634531
H111	H	0.376265	0.423502	-0.697266
O112	O	0.978594	0.468273	-0.852737
C113	C	1.046122	0.304973	-0.795781
C114	C	0.974020	0.379663	-0.860468
H115	H	1.042456	0.233319	-0.802024
H116	H	1.049256	0.301663	-0.719767
H117	H	1.100063	0.324665	-0.817714
H118	H	0.920039	0.360025	-0.838620
H119	H	0.970954	0.382959	-0.936467
H120	H	0.968413	0.860988	-0.479071
H121	H	0.759880	0.694814	-0.899166
O122	O	1.029570	0.415866	-0.892111
C123	C	1.120043	0.415742	-0.756932
C124	C	1.102125	0.434224	-0.863766
H125	H	1.178696	0.430596	-0.733986
H126	H	1.121170	0.339151	-0.718078
H127	H	1.073492	0.463864	-0.739652
H128	H	1.148655	0.386161	-0.881132
H129	H	1.100970	0.510837	-0.902563
H130	H	1.026938	0.906371	-0.418585
H131	H	1.116470	0.975827	-0.326055
O132	O	0.753366	1.219031	-0.701678
C133	C	0.641070	1.229175	-0.817720
C134	C	0.713193	1.164480	-0.743088
H135	H	0.608562	1.185094	-0.851207
H136	H	0.659387	1.282990	-0.874303
H137	H	0.601837	1.267337	-0.782847
H138	H	0.752457	1.126254	-0.777878
H139	H	0.694820	1.110723	-0.686513
H140	H	0.730540	1.074515	-0.725157
H141	H	0.759934	0.898295	-0.694650
