data_functionalizedCrystal
_audit_creation_method	'MofGen! by Chris Wilmer'
_symmetry_space_group_name_H-M	'P1'
_symmetry_Int_Tables_number	1
_symmetry_cell_setting	triclinic
loop_
_symmetry_equiv_pos_as_xyz
  x,y,z
_cell_length_a	12.837943
_cell_length_b	23.532407
_cell_length_c	11.892095
_cell_angle_alpha	93.859970
_cell_angle_beta	85.689438
_cell_angle_gamma	88.838809
loop_
_atom_site_label
_atom_site_type_symbol
_atom_site_fract_x
_atom_site_fract_y
_atom_site_fract_z
O1	O	1.380592	0.144688	-0.094007
O2	O	1.078862	0.137379	-0.094012
O3	O	1.238824	0.058625	-0.093989
O4	O	1.220630	0.223442	-0.094030
O5	O	1.225487	0.065180	0.094017
O6	O	1.065525	0.143934	0.093993
O7	O	1.367255	0.151243	0.093999
Zn8	Zn	1.214272	0.148629	0.123846
Zn9	Zn	1.231845	0.139993	-0.123859
O10	O	1.207293	0.229998	0.093975
C11	C	1.033599	0.138187	-0.000010
C12	C	0.918597	0.130823	-0.000011
C13	C	0.676728	0.219356	-0.000017
C14	C	0.568673	0.212439	-0.000017
C15	C	0.594431	0.110073	-0.000004
C16	C	0.702485	0.116990	-0.000003
C17	C	0.743630	0.171633	-0.000012
C18	C	0.851687	0.178549	-0.000020
C19	C	0.877442	0.076184	0.000002
C20	C	0.769387	0.069267	0.000002
C21	C	1.231692	0.040660	0.000017
C22	C	1.230298	-0.022637	0.000026
C23	C	1.316227	-0.416812	-0.000035
C24	C	1.314934	-0.476287	-0.000043
O25	O	1.394590	-0.508463	-0.000084
N26	N	1.219835	-0.504370	-0.000044
C27	C	1.126025	-0.472975	-0.000048
O28	O	1.045018	-0.502322	-0.000051
C29	C	1.127321	-0.413501	-0.000047
C30	C	1.222424	-0.385421	-0.000035
C31	C	1.411324	-0.388732	-0.000024
C32	C	1.412617	-0.329261	-0.000013
C33	C	1.318813	-0.297871	-0.000013
C34	C	1.223717	-0.325951	-0.000024
C35	C	1.033512	-0.382108	-0.000059
C36	C	1.034816	-0.322631	-0.000060
C37	C	1.129920	-0.294551	-0.000047
C38	C	1.131207	-0.235089	-0.000014
N39	N	1.226306	-0.207006	-0.000013
C40	C	1.320109	-0.238397	-0.000013
C41	C	1.123312	-0.597873	-0.000051
C42	C	1.122015	-0.657345	-0.000043
C43	C	1.310925	-0.660653	-0.000041
C44	C	1.312220	-0.601180	-0.000040
C45	C	1.218411	-0.569790	-0.000050
C46	C	1.322817	-0.113504	0.000011
C47	C	1.324101	-0.054028	0.000026
C48	C	1.135193	-0.050725	0.000018
C49	C	1.133908	-0.110196	0.000008
C50	C	1.227729	-0.141584	0.000001
O51	O	1.051594	-0.202877	0.000022
O52	O	1.401104	-0.209042	-0.000025
C53	C	1.412519	0.150435	-0.000006
C54	C	1.527521	0.157799	-0.000012
C55	C	1.214425	0.247962	-0.000033
C56	C	1.215820	0.311259	-0.000049
N57	N	1.202287	0.154524	0.292898
N58	N	1.243838	0.134094	-0.292912
C59	C	1.327236	0.093046	0.529565
C60	C	1.318866	0.097171	0.647905
C61	C	1.177173	0.166894	0.647922
C62	C	1.185543	0.162770	0.529582
C63	C	1.260578	0.125845	0.470407
C64	C	1.268952	0.121724	0.352064
C65	C	1.127255	0.191444	0.352084
C66	C	1.118885	0.195569	0.470424
H67	H	0.931927	0.037324	-0.000001
N68	N	1.055341	0.226821	0.288287
H69	H	1.065400	0.268586	0.308875
H70	H	1.072059	0.218562	0.204358
N71	N	1.390773	0.061801	0.711711
H72	H	1.347977	0.036149	0.760828
H73	H	1.439560	0.037822	0.656189
N74	N	1.031331	-0.140482	0.000003
H75	H	1.031528	-0.167504	-0.069699
H76	H	1.021695	-0.162631	0.069735
H77	H	0.956069	-0.404960	-0.000076
N78	N	1.096236	0.206710	0.711756
H79	H	1.101048	0.204342	0.795700
H80	H	1.109244	0.247023	0.691071
H81	H	0.710228	0.263848	-0.000026
H82	H	0.885184	0.223042	-0.000025
H83	H	0.514204	0.251300	-0.000019
N84	N	1.034017	-0.016869	0.000011
H85	H	0.987550	-0.024072	0.069700
H86	H	1.049351	0.025055	-0.000028
N87	N	0.550027	0.051145	0.000011
H88	H	0.579393	0.027540	-0.069679
H89	H	0.569523	0.032448	0.069755
N90	N	1.426681	-0.023741	0.000046
H91	H	1.485906	-0.052656	0.000041
H92	H	1.436281	-0.001559	-0.069645
N93	N	0.725007	0.010334	0.000026
H94	H	0.646402	0.013192	0.000029
H95	H	0.754457	-0.013237	-0.069667
N96	N	1.424011	-0.147347	0.000017
H97	H	1.422742	-0.169672	0.069710
H98	H	1.432591	-0.174489	-0.069724
N99	N	1.515193	-0.298979	-0.000004
H100	H	1.574412	-0.327897	-0.000008
H101	H	1.524794	-0.276801	-0.069699
N102	N	1.037953	0.235390	0.534251
H103	H	1.042762	0.233026	0.618196
H104	H	1.050971	0.275701	0.513557
N105	N	1.512505	-0.422583	-0.000022
H106	H	1.572935	-0.395762	-0.000014
H107	H	1.511140	-0.444903	0.069678
N108	N	1.414794	-0.570896	-0.000026
H109	H	1.474016	-0.599811	-0.000023
H110	H	1.424398	-0.548719	-0.069723
H111	H	1.330052	0.091659	0.303885
H112	H	1.044571	-0.680202	-0.000034
N113	N	1.412102	-0.694516	-0.000040
H114	H	1.396843	-0.736452	-0.000046
H115	H	1.458519	-0.687270	-0.069736
N116	N	1.022130	-0.564014	-0.000042
H117	H	0.985551	-0.576066	-0.069734
H118	H	0.975754	-0.571230	0.069700
N119	N	0.933634	-0.288775	-0.000076
H120	H	0.873197	-0.315592	-0.000084
H121	H	0.925104	-0.261604	0.069623
N122	N	1.408172	0.053229	0.465731
H123	H	1.449135	0.033079	0.521166
H124	H	1.372246	0.024190	0.416644
