data_functionalizedCrystal
_audit_creation_method	'MofGen! by Chris Wilmer'
_symmetry_space_group_name_H-M	'P1'
_symmetry_Int_Tables_number	1
_symmetry_cell_setting	triclinic
loop_
_symmetry_equiv_pos_as_xyz
  x,y,z
_cell_length_a	17.077404
_cell_length_b	12.594516
_cell_length_c	17.077396
_cell_angle_alpha	90.023145
_cell_angle_beta	90.019501
_cell_angle_gamma	90.016278
loop_
_atom_site_label
_atom_site_type_symbol
_atom_site_fract_x
_atom_site_fract_y
_atom_site_fract_z
Zn1	Zn	1.200092	-0.423736	0.443872
Zn2	Zn	1.700092	0.076264	0.943872
Zn3	Zn	1.200015	-0.601736	0.312618
Zn4	Zn	1.700015	-0.101736	0.812618
Zn5	Zn	1.068824	-0.423773	0.312620
Zn6	Zn	1.568824	0.076227	0.812620
Zn7	Zn	1.068807	-0.601673	0.443842
Zn8	Zn	1.568807	-0.101673	0.943842
O9	O	1.134434	-0.512730	0.378238
O10	O	1.634434	-0.012730	0.878238
O11	O	1.309929	-0.447359	0.426473
O12	O	1.809929	0.052641	0.926473
O13	O	1.182586	-0.578171	0.202771
O14	O	1.682586	-0.078171	0.702771
O15	O	1.086276	-0.274822	0.330044
O16	O	1.586276	0.225178	0.830044
O17	O	1.309872	-0.578135	0.330041
O18	O	1.809872	-0.078135	0.830041
O19	O	1.182718	-0.274795	0.426474
O20	O	1.682718	0.225205	0.926474
O21	O	1.086201	-0.447422	0.202773
O22	O	1.586201	0.052578	0.702773
O23	O	0.958975	-0.447361	0.330015
O24	O	1.458975	0.052639	0.830015
O25	O	1.086248	-0.578027	0.553693
O26	O	1.586248	-0.078027	1.053693
O27	O	0.958963	-0.578064	0.426423
O28	O	1.458963	-0.078064	0.926423
O29	O	1.182702	-0.447297	0.553715
O30	O	1.682702	0.052703	1.053715
O31	O	1.182571	-0.750674	0.330012
O32	O	1.682571	-0.250674	0.830012
O33	O	1.086173	-0.750627	0.426421
O34	O	1.586173	-0.250627	0.926421
C35	C	0.930487	-0.512710	0.378216
C36	C	1.430487	-0.012710	0.878216
C37	C	0.843237	-0.512728	0.378226
C38	C	1.343237	-0.012728	0.878226
C39	C	0.802261	-0.580887	0.428345
C40	C	1.302261	-0.080887	0.928345
C41	C	0.720280	-0.580890	0.428357
C42	C	1.220280	-0.080890	0.928357
C43	C	0.679277	-0.512737	0.378246
C44	C	1.179277	-0.012737	0.878246
C45	C	0.720259	-0.444570	0.328125
C46	C	1.220259	0.055430	0.828125
C47	C	0.802238	-0.444563	0.328117
C48	C	1.302238	0.055437	0.828117
C49	C	0.549389	-0.444591	0.328144
C50	C	1.049389	0.055409	0.828144
C51	C	0.467404	-0.444599	0.328150
C52	C	0.967404	0.055401	0.828150
C53	C	0.467431	-0.580917	0.428384
C54	C	0.967431	-0.080917	0.928384
C55	C	0.549410	-0.580910	0.428376
C56	C	1.049410	-0.080910	0.928376
C57	C	0.590386	-0.512745	0.378253
C58	C	1.090386	-0.012745	0.878253
C59	C	1.134383	-0.789271	0.378230
C60	C	1.634383	-0.289271	0.878230
C61	C	1.134433	-0.907576	0.378253
C62	C	1.634433	-0.407576	0.878253
C63	C	1.081997	-0.976843	0.430653
C64	C	1.581997	-0.476843	0.930653
C65	C	1.062873	-1.047703	0.359026
C66	C	1.562873	-0.547703	0.859026
C67	C	1.153628	-1.047515	0.449893
C68	C	1.653628	-0.547515	0.949893
C69	C	1.115271	-0.976878	0.306587
C70	C	1.615271	-0.476878	0.806587
C71	C	1.206059	-0.976684	0.397503
C72	C	1.706059	-0.476684	0.897503
C73	C	1.186963	-1.047512	0.325826
C74	C	1.686963	-0.547512	0.825826
C75	C	1.339179	-0.512750	0.378260
C76	C	1.839179	-0.012750	0.878260
C77	C	1.426428	-0.512758	0.378269
C78	C	1.926428	-0.012758	0.878269
C79	C	1.134482	-0.512651	0.582982
C80	C	1.634482	-0.012651	1.082982
C81	C	1.134502	-0.512618	0.670232
C82	C	1.634502	-0.012618	1.170232
C83	C	1.134507	-0.235109	0.378263
C84	C	1.634507	0.264891	0.878263
C85	C	1.134539	-0.116803	0.378273
C86	C	1.634539	0.383197	0.878273
C87	C	1.134432	-0.512731	0.174290
C88	C	1.634432	-0.012731	0.674290
C89	C	1.134564	-0.512465	0.087041
C90	C	1.634564	-0.012465	0.587041
C91	C	1.184728	-0.444541	0.711235
C92	C	1.684728	0.055459	1.211235
C93	C	1.184737	-0.444506	0.793216
C94	C	1.684737	0.055494	1.293216
C95	C	1.134524	-0.512553	0.834192
C96	C	1.634524	-0.012553	1.334192
C97	C	1.084293	-0.580633	0.793183
C98	C	1.584293	-0.080633	1.293183
C99	C	1.084281	-0.580662	0.711204
C100	C	1.584281	-0.080662	1.211204
C101	C	1.084325	-0.580569	0.964053
C102	C	1.584325	-0.080569	1.464053
C103	C	1.084339	-0.580541	1.046038
C104	C	1.584339	-0.080541	1.546038
C105	C	1.184782	-0.444412	1.046065
C106	C	1.684782	0.055588	1.546065
C107	C	1.184769	-0.444442	0.964086
C108	C	1.684769	0.055558	1.464086
C109	C	1.134538	-0.512523	0.923083
C110	C	1.634538	-0.012523	1.423083
H111	H	0.686922	-0.636393	0.469169
H112	H	1.186922	-0.136393	0.969169
N113	N	0.846483	-0.654403	0.482388
N114	N	1.346483	-0.154403	0.982388
H115	H	0.808082	-0.697580	0.514141
H116	H	1.308082	-0.197580	1.014141
H117	H	0.880521	-0.611139	0.518766
H118	H	1.380521	-0.111139	1.018766
N119	N	1.238893	-0.371157	0.667041
N120	N	1.738893	0.128843	1.167041
H121	H	1.226727	-0.295098	0.681307
H122	H	1.726727	0.204902	1.181307
H123	H	1.231239	-0.381603	0.608900
H124	H	1.731239	0.118397	1.108900
N125	N	1.245755	-1.088373	0.267076
N126	N	1.745755	-0.588373	0.767076
H127	H	1.286575	-1.132457	0.294893
H128	H	1.786575	-0.632457	0.794893
H129	H	1.271914	-1.026382	0.240200
H130	H	1.771914	-0.526382	0.740200
N131	N	1.023165	-0.935712	0.489264
N132	N	1.523165	-0.435712	0.989264
H133	H	1.037068	-0.962509	0.543240
H134	H	1.537068	-0.462509	1.043240
H135	H	0.969133	-0.961554	0.474558
H136	H	1.469133	-0.461554	0.974558
H137	H	0.835599	-0.389055	0.287309
H138	H	1.335599	0.110945	0.787309
N139	N	0.423163	-0.371111	0.274102
N140	N	0.923163	0.128889	0.774102
H141	H	0.437427	-0.295073	0.286380
H142	H	0.937427	0.204927	0.786380
H143	H	0.365031	-0.381579	0.281747
H144	H	0.865031	0.118421	0.781747
H145	H	0.686868	-0.389074	0.287327
H146	H	1.186868	0.110926	0.787327
N147	N	1.286212	-0.935333	0.419092
N148	N	1.786212	-0.435333	0.919092
H149	H	1.282210	-0.890032	0.467741
H150	H	1.782210	-0.390032	0.967741
H151	H	1.307557	-0.891263	0.374548
H152	H	1.807557	-0.391263	0.874548
N153	N	1.030115	-0.654090	0.666970
N154	N	1.530115	-0.154090	1.166970
H155	H	0.993746	-0.610838	0.632957
H156	H	1.493746	-0.110838	1.132957
H157	H	0.998359	-0.697184	0.705411
H158	H	1.498359	-0.197184	1.205411
N159	N	1.175080	-1.088627	0.530129
N160	N	1.675080	-0.588627	1.030129
H161	H	1.135393	-1.062921	0.569656
H162	H	1.635393	-0.562921	1.069656
H163	H	1.228771	-1.061676	0.545001
H164	H	1.728771	-0.561676	1.045001
N165	N	1.238893	-0.371059	0.837441
N166	N	1.738893	0.128941	1.337441
H167	H	1.270699	-0.327955	0.799043
H168	H	1.770699	0.172045	1.299043
H169	H	1.275216	-0.414358	0.871467
H170	H	1.775216	0.085642	1.371467
H171	H	1.099008	-0.945978	0.245994
H172	H	1.599008	-0.445978	0.745994
N173	N	1.238931	-0.371058	0.919887
N174	N	1.738931	0.128942	1.419887
H175	H	1.270753	-0.327923	0.958300
H176	H	1.770753	0.172077	1.458300
H177	H	1.206986	-0.321812	0.885871
H178	H	1.706986	0.178188	1.385871
H179	H	1.043406	-0.636034	0.826552
H180	H	1.543406	-0.136034	1.326552
H181	H	1.002349	-1.078921	0.342760
H182	H	1.502349	-0.578921	0.842760
H183	H	1.225680	-0.388976	1.079453
H184	H	1.725680	0.111024	1.579453
N185	N	1.030183	-0.653933	1.090236
N186	N	1.530183	-0.153933	1.590236
H187	H	0.998356	-0.697062	1.051823
H188	H	1.498356	-0.197062	1.551823
H189	H	0.993879	-0.610585	1.124250
H190	H	1.493879	-0.110585	1.624250
H191	H	1.043410	-0.635991	0.930671
H192	H	1.543410	-0.135991	1.430671
H193	H	0.582793	-0.636412	0.469177
H194	H	1.082793	-0.136412	0.969177
H195	H	0.434065	-0.636417	0.469198
H196	H	0.934065	-0.136417	0.969198
H197	H	0.582749	-0.389073	0.287335
H198	H	1.082749	0.110927	0.787335
