data_functionalizedCrystal
_audit_creation_method	'MofGen! by Chris Wilmer'
_symmetry_space_group_name_H-M	'P1'
_symmetry_Int_Tables_number	1
_symmetry_cell_setting	triclinic
loop_
_symmetry_equiv_pos_as_xyz
  x,y,z
_cell_length_a	12.645331
_cell_length_b	21.295417
_cell_length_c	12.645323
_cell_angle_alpha	89.966008
_cell_angle_beta	89.977324
_cell_angle_gamma	90.029485
loop_
_atom_site_label
_atom_site_type_symbol
_atom_site_fract_x
_atom_site_fract_y
_atom_site_fract_z
Zn1	Zn	1.620637	-0.250621	-0.599379
Zn2	Zn	1.620479	-0.355896	-0.422091
Zn3	Zn	1.443351	-0.250643	-0.422123
Zn4	Zn	1.443294	-0.355855	-0.599306
O5	O	1.531940	-0.303254	-0.510725
O6	O	1.768963	-0.264595	-0.575878
O7	O	1.596941	-0.341960	-0.273748
O8	O	1.466959	-0.162550	-0.445681
O9	O	1.768847	-0.341939	-0.445625
O10	O	1.597210	-0.162535	-0.575910
O11	O	1.466806	-0.264631	-0.273772
O12	O	1.294996	-0.264591	-0.445610
O13	O	1.466860	-0.341869	-0.747663
O14	O	1.294954	-0.341890	-0.575786
O15	O	1.597154	-0.264555	-0.747717
O16	O	1.596884	-0.443980	-0.445555
O17	O	1.466707	-0.443950	-0.575754
C18	C	1.256510	-0.303239	-0.510694
C19	C	1.138680	-0.303247	-0.510706
C20	C	1.531801	-0.466805	-0.510666
C21	C	1.531839	-0.536773	-0.510677
C22	C	0.971108	-0.254395	-0.429265
C23	C	1.093667	-0.254521	-0.428906
C24	C	1.094135	-0.369560	-0.480174
C25	C	0.971537	-0.369293	-0.479618
C26	C	0.971537	-0.286418	-0.622995
C27	C	1.094144	-0.284937	-0.622372
C28	C	1.599682	-0.569635	-0.442951
C29	C	1.599732	-0.635377	-0.442975
C30	C	1.531919	-0.668256	-0.510713
C31	C	1.464071	-0.635386	-0.578452
C32	C	1.464031	-0.569645	-0.578433
N33	N	1.439183	-0.771521	-0.518784
N34	N	1.439224	-0.833972	-0.518796
C35	C	1.532038	-0.866331	-0.510774
N36	N	1.624811	-0.833879	-0.502720
N37	N	1.624768	-0.771421	-0.502703
C38	C	1.531956	-0.739541	-0.510741
C39	C	1.599941	-0.970478	-0.443071
C40	C	1.599993	-1.036221	-0.443102
C41	C	1.464322	-1.036229	-0.578573
C42	C	1.464280	-0.970487	-0.578547
C43	C	1.532088	-0.937615	-0.510791
C44	C	1.808445	-0.303269	-0.510756
C45	C	1.926275	-0.303276	-0.510770
C46	C	1.532018	-0.303205	-0.787230
C47	C	1.532052	-0.303184	-0.905061
C48	C	1.532109	-0.139063	-0.510807
C49	C	1.532180	-0.069095	-0.510842
C50	C	1.449831	-0.351594	-1.072591
C51	C	1.450046	-0.351833	-0.950031
C52	C	1.643744	-0.321189	-0.949576
C53	C	1.643293	-0.321492	-1.072174
C54	C	1.503635	-0.236500	-1.072276
C55	C	1.501143	-0.236899	-0.949670
C56	C	1.531923	-0.303257	-0.235295
C57	C	1.532096	-0.303100	-0.117466
H58	H	1.123787	-0.205348	-0.448045
H59	H	1.409031	-0.943729	-0.633691
C60	C	0.931332	-0.187762	-0.454835
C61	C	0.857652	-0.176915	-0.550034
C62	C	0.817871	-0.110280	-0.575607
C63	C	0.851768	-0.054491	-0.505981
C64	C	0.925452	-0.065336	-0.410776
C65	C	0.965234	-0.131971	-0.385202
H66	H	0.832556	-0.218215	-0.601580
H67	H	0.763325	-0.102252	-0.646084
H68	H	0.822319	-0.005164	-0.524912
H69	H	0.950548	-0.024036	-0.359229
H70	H	1.019779	-0.139999	-0.314725
H71	H	1.556685	-0.198859	-0.919059
H72	H	1.706664	-0.287705	-1.101861
H73	H	1.408859	-0.662160	-0.633606
H74	H	1.655246	-1.062976	-0.387954
H75	H	1.423608	-0.220088	-1.103185
H76	H	1.408783	-0.542889	-0.633585
C77	C	0.929428	-0.269272	-0.317575
C78	C	0.854933	-0.325563	-0.300130
C79	C	0.813252	-0.340442	-0.188442
C80	C	0.846067	-0.299031	-0.094198
C81	C	0.920566	-0.242736	-0.111640
C82	C	0.962247	-0.227857	-0.223329
H83	H	0.830638	-0.356221	-0.369897
H84	H	0.758103	-0.382116	-0.175530
H85	H	0.815213	-0.310046	-0.011520
H86	H	0.944861	-0.212078	-0.041873
H87	H	1.017396	-0.186184	-0.236240
H88	H	1.122941	-0.265663	-0.345743
H89	H	1.655158	-0.943712	-0.387902
H90	H	1.409112	-1.062998	-0.633731
H91	H	1.367222	-0.340567	-0.919932
H92	H	1.654982	-0.662138	-0.387825
C93	C	1.390103	-0.218550	-0.910366
C94	C	1.327756	-0.263524	-0.838105
C95	C	1.216715	-0.245177	-0.798796
C96	C	1.168021	-0.181858	-0.831748
C97	C	1.230369	-0.136880	-0.904013
C98	C	1.341410	-0.155227	-0.943322
H99	H	1.363801	-0.310400	-0.813709
H100	H	1.170561	-0.278473	-0.745301
H101	H	1.085822	-0.168277	-0.802649
H102	H	1.194324	-0.090004	-0.928409
H103	H	1.387564	-0.121931	-0.996817
C104	C	0.932823	-0.388600	-0.368784
C105	C	0.963941	-0.349189	-0.271580
C106	C	0.925233	-0.368495	-0.160742
C107	C	0.855408	-0.427213	-0.147108
C108	C	0.824286	-0.466628	-0.244315
C109	C	0.862993	-0.447322	-0.355153
H110	H	1.015633	-0.305719	-0.281669
H111	H	0.948272	-0.339317	-0.088783
H112	H	0.826754	-0.441504	-0.065059
H113	H	0.772593	-0.510098	-0.234226
H114	H	0.839954	-0.476500	-0.427112
C115	C	1.728771	-0.274986	-0.910226
C116	C	1.822717	-0.299165	-0.844342
C117	C	1.907740	-0.252961	-0.804991
C118	C	1.898817	-0.182578	-0.831523
C119	C	1.804868	-0.158396	-0.897411
C120	C	1.719845	-0.204600	-0.936762
H121	H	1.829325	-0.351269	-0.824698
H122	H	1.977287	-0.270862	-0.756217
H123	H	1.961756	-0.148375	-0.802393
H124	H	1.798259	-0.106291	-0.917055
H125	H	1.650297	-0.186699	-0.985537
C126	C	1.474954	-0.417880	-1.114202
C127	C	1.569760	-0.428124	-1.188678
C128	C	1.594886	-0.494409	-1.230291
C129	C	1.525207	-0.550451	-1.197426
C130	C	1.430395	-0.540209	-1.122946
C131	C	1.405269	-0.473923	-1.081333
H132	H	1.621346	-0.386637	-1.213010
H133	H	1.665072	-0.501991	-1.285426
H134	H	1.543807	-0.599519	-1.228230
H135	H	1.378809	-0.581696	-1.098614
H136	H	1.335083	-0.466342	-1.026198
H137	H	0.941878	-0.406946	-0.536393
C138	C	1.475477	-0.418526	-0.910400
C139	C	1.495658	-0.471732	-0.990307
C140	C	1.521094	-0.538427	-0.950677
C141	C	1.526347	-0.551916	-0.831141
C142	C	1.506165	-0.498709	-0.751226
C143	C	1.480729	-0.432013	-0.790856
H144	H	1.491770	-0.461748	-1.078802
H145	H	1.536034	-0.577815	-1.009836
H146	H	1.545176	-0.601288	-0.801804
H147	H	1.510053	-0.508693	-0.662731
H148	H	1.465789	-0.392626	-0.731698
H149	H	1.366761	-0.340435	-1.102068
C150	C	1.676901	-0.386273	-0.908112
C151	C	1.687670	-0.397638	-0.788324
C152	C	1.720820	-0.462725	-0.746864
C153	C	1.743201	-0.516446	-0.825192
C154	C	1.732433	-0.505082	-0.944988
C155	C	1.699283	-0.439996	-0.986448
H156	H	1.671102	-0.357869	-0.730334
H157	H	1.728791	-0.471136	-0.658183
H158	H	1.767740	-0.564627	-0.794501
H159	H	1.749001	-0.544851	-1.002978
H160	H	1.691312	-0.431584	-1.075129
H161	H	1.124789	-0.317942	-0.686348
H162	H	0.940659	-0.238907	-0.650759
H163	H	1.123290	-0.406953	-0.537674
C164	C	1.135527	-0.389207	-0.370525
C165	C	1.209688	-0.345201	-0.308600
C166	C	1.251078	-0.364844	-0.198949
C167	C	1.218307	-0.428493	-0.151224
C168	C	1.144143	-0.472503	-0.213150
C169	C	1.102753	-0.452860	-0.322800
H170	H	1.233950	-0.298080	-0.343929
H171	H	1.305979	-0.332264	-0.153108
H172	H	1.248946	-0.443033	-0.070054
H173	H	1.119881	-0.519623	-0.177821
H174	H	1.047851	-0.485440	-0.368642
H175	H	1.563553	-0.200370	-1.101300
H176	H	1.123266	-0.236138	-0.645395
H177	H	0.942545	-0.322021	-0.683723
H178	H	1.667420	-0.370178	-1.100771
H179	H	1.654898	-0.542873	-0.387782
