data_functionalizedCrystal
_audit_creation_method	'MofGen! by Chris Wilmer'
_symmetry_space_group_name_H-M	'P1'
_symmetry_Int_Tables_number	1
_symmetry_cell_setting	triclinic
loop_
_symmetry_equiv_pos_as_xyz
  x,y,z
_cell_length_a	18.215407
_cell_length_b	18.215399
_cell_length_c	18.215405
_cell_angle_alpha	89.969449
_cell_angle_beta	89.983379
_cell_angle_gamma	90.018561
loop_
_atom_site_label
_atom_site_type_symbol
_atom_site_fract_x
_atom_site_fract_y
_atom_site_fract_z
Zn1	Zn	-1.125072	-0.416077	-0.293154
Zn2	Zn	-0.625072	0.083923	0.206846
Zn3	Zn	-1.124980	-0.293006	-0.416225
Zn4	Zn	-0.624980	0.206994	0.083775
Zn5	Zn	-1.002004	-0.293028	-0.293159
Zn6	Zn	-0.502004	0.206972	0.206841
Zn7	Zn	-1.001970	-0.416033	-0.416166
Zn8	Zn	-0.501970	0.083967	0.083834
O9	O	-1.063507	-0.354536	-0.354676
O10	O	-0.563507	0.145464	0.145324
O11	O	-1.228044	-0.399761	-0.309503
O12	O	-0.728044	0.100239	0.190497
O13	O	-1.108643	-0.190024	-0.399928
O14	O	-0.608643	0.309976	0.100072
O15	O	-1.018382	-0.309378	-0.190174
O16	O	-0.518382	0.190622	0.309826
O17	O	-1.227977	-0.309341	-0.399922
O18	O	-0.727977	0.190659	0.100078
O19	O	-1.108799	-0.399782	-0.190171
O20	O	-0.608799	0.100218	0.309829
O21	O	-1.018293	-0.190040	-0.309512
O22	O	-0.518293	0.309960	0.190488
O23	O	-0.899016	-0.309335	-0.309454
O24	O	-0.399016	0.190665	0.190546
O25	O	-1.018324	-0.519023	-0.399821
O26	O	-0.518324	-0.019023	0.100179
O27	O	-0.898991	-0.399707	-0.399826
O28	O	-0.398991	0.100293	0.100174
O29	O	-1.108766	-0.519056	-0.309445
O30	O	-0.608766	-0.019056	0.190555
O31	O	-1.108610	-0.309298	-0.519202
O32	O	-0.608610	0.190702	-0.019202
O33	O	-1.018235	-0.399686	-0.519158
O34	O	-0.518235	0.100314	-0.019158
C35	C	-0.872300	-0.354519	-0.354634
C36	C	-0.372300	0.145481	0.145366
C37	C	-0.790502	-0.354529	-0.354634
C38	C	-0.290502	0.145471	0.145366
C39	C	-0.525473	-0.401686	-0.307659
C40	C	-0.025473	0.098314	0.192341
C41	C	-0.602332	-0.401685	-0.307651
C42	C	-0.102332	0.098315	0.192349
C43	C	-0.602281	-0.307389	-0.401669
C44	C	-0.102281	0.192611	0.098331
C45	C	-0.525424	-0.307395	-0.401680
C46	C	-0.025424	0.192605	0.098320
C47	C	-0.487022	-0.354542	-0.354671
C48	C	0.012978	0.145458	0.145329
C49	C	-0.640738	-0.354535	-0.354651
C50	C	-0.140738	0.145465	0.145349
C51	C	-0.724072	-0.354533	-0.354643
C52	C	-0.224072	0.145467	0.145357
C53	C	-0.403683	-0.354545	-0.354680
C54	C	0.096317	0.145455	0.145320
C55	C	-1.063429	-0.354501	-0.545882
C56	C	-0.563429	0.145499	-0.045882
C57	C	-1.063463	-0.354510	-0.627681
C58	C	-0.563463	0.145490	-0.127681
C59	C	-1.063552	-0.546489	-0.354625
C60	C	-0.563552	-0.046489	0.145375
C61	C	-1.063571	-0.628288	-0.354604
C62	C	-0.563571	-0.128288	0.145396
C63	C	-0.255460	-0.354550	-0.354706
C64	C	0.244540	0.145450	0.145294
C65	C	-0.337259	-0.354548	-0.354688
C66	C	0.162741	0.145452	0.145312
C67	C	-1.110681	-0.816500	-0.307501
C68	C	-0.610681	-0.316500	0.192499
C69	C	-1.110690	-0.893359	-0.307480
C70	C	-0.610690	-0.393359	0.192520
C71	C	-1.016513	-0.893314	-0.401593
C72	C	-0.516513	-0.393314	0.098407
C73	C	-1.016501	-0.816456	-0.401610
C74	C	-0.516501	-0.316456	0.098390
C75	C	-1.063589	-0.778052	-0.354565
C76	C	-0.563589	-0.278052	0.145435
C77	C	-1.063610	-0.931768	-0.354527
C78	C	-0.563610	-0.431768	0.145473
C79	C	-1.063619	-1.015101	-0.354504
C80	C	-0.563619	-0.515101	0.145496
C81	C	-1.063579	-0.694713	-0.354587
C82	C	-0.563579	-0.194713	0.145413
C83	C	-1.063504	-0.163330	-0.354674
C84	C	-0.563504	0.336670	0.145326
C85	C	-1.063628	-0.081531	-0.354488
C86	C	-0.563628	0.418469	0.145512
C87	C	-1.110632	-0.307532	-0.815874
C88	C	-0.610632	0.192468	-0.315874
C89	C	-1.110665	-0.307550	-0.892732
C90	C	-0.610665	0.192450	-0.392732
C91	C	-1.016476	-0.401593	-0.892727
C92	C	-0.516476	0.098407	-0.392727
C93	C	-1.016447	-0.401579	-0.815869
C94	C	-0.516447	0.098421	-0.315869
C95	C	-1.063524	-0.354544	-0.777445
C96	C	-0.563524	0.145456	-0.277445
C97	C	-1.063586	-0.354576	-0.931161
C98	C	-0.563586	0.145424	-0.431161
C99	C	-1.063621	-0.354596	-1.014494
C100	C	-0.563621	0.145404	-0.514494
C101	C	-1.063490	-0.354525	-0.694106
C102	C	-0.563490	0.145475	-0.194106
C103	C	-1.063605	-0.354588	-0.162723
C104	C	-0.563605	0.145412	0.337277
C105	C	-1.063647	-0.354610	-0.080924
C106	C	-0.563647	0.145390	0.419076
H107	H	-1.149021	-0.785233	-0.269192
H108	H	-0.649021	-0.285233	0.230808
O109	O	-0.970641	-0.447241	-0.929972
O110	O	-0.470641	0.052759	-0.429972
C111	C	-0.897296	-0.431073	-0.911263
C112	C	-0.397296	0.068927	-0.411263
H113	H	-0.895769	-0.402770	-0.855481
H114	H	-0.395769	0.097230	-0.355481
H115	H	-0.864263	-0.484154	-0.908616
H116	H	-0.364263	0.015846	-0.408616
H117	H	-0.872547	-0.393222	-0.954563
H118	H	-0.372547	0.106778	-0.454563
O119	O	-0.488181	-0.261526	-0.447373
O120	O	0.011819	0.238474	0.052627
C121	C	-0.538555	-0.219920	-0.488871
C122	C	-0.038555	0.280080	0.011129
H123	H	-0.593345	-0.217417	-0.458718
H124	H	-0.093345	0.282583	0.041282
H125	H	-0.516320	-0.161926	-0.496655
H126	H	-0.016320	0.338074	0.003345
H127	H	-0.546731	-0.246773	-0.544794
H128	H	-0.046731	0.253227	-0.044794
O129	O	-0.970833	-0.779135	-0.447438
O130	O	-0.470833	-0.279135	0.052562
C131	C	-0.986871	-0.797906	-0.520785
C132	C	-0.486871	-0.297906	-0.020785
H133	H	-1.045664	-0.819045	-0.524508
H134	H	-0.545664	-0.319045	-0.024508
H135	H	-0.980509	-0.747347	-0.557150
H136	H	-0.480509	-0.247347	-0.057150
H137	H	-0.947411	-0.842503	-0.540007
H138	H	-0.447411	-0.342503	-0.040007
H139	H	-0.633636	-0.440075	-0.269370
H140	H	-0.133636	0.059925	0.230630
O141	O	-0.970752	-0.447225	-0.778421
O142	O	-0.470752	0.052775	-0.278421
C143	C	-0.980813	-0.437114	-0.702346
C144	C	-0.480813	0.062886	-0.202346
H145	H	-1.037618	-0.413061	-0.691833
H146	H	-0.537618	0.086939	-0.191833
H147	H	-0.975779	-0.492227	-0.673098
H148	H	-0.475779	0.007773	-0.173098
H149	H	-0.937177	-0.397878	-0.680591
H150	H	-0.437177	0.102122	-0.180591
O151	O	-0.488283	-0.447558	-0.261979
O152	O	0.011717	0.052442	0.238021
C153	C	-0.538706	-0.489156	-0.220472
C154	C	-0.038706	0.010844	0.279528
H155	H	-0.593490	-0.491644	-0.250612
H156	H	-0.093490	0.008356	0.249388
H157	H	-0.516526	-0.547156	-0.212700
H158	H	-0.016526	-0.047156	0.287300
H159	H	-0.546878	-0.462307	-0.164544
H160	H	-0.046878	0.037693	0.335456
H161	H	-1.148966	-0.269234	-0.784590
H162	H	-0.648966	0.230766	-0.284590
H163	H	-1.149035	-0.924660	-0.269154
H164	H	-0.649035	-0.424660	0.230846
O165	O	-1.156447	-0.261811	-0.929948
O166	O	-0.656447	0.238189	-0.429948
C167	C	-1.198003	-0.220311	-0.879549
C168	C	-0.698003	0.279689	-0.379549
H169	H	-1.167838	-0.217724	-0.824786
H170	H	-0.667838	0.282276	-0.324786
H171	H	-1.205897	-0.162339	-0.901793
H172	H	-0.705897	0.337661	-0.401793
H173	H	-1.253876	-0.247310	-0.871316
H174	H	-0.753876	0.252690	-0.371316
H175	H	-0.633558	-0.269002	-0.439940
H176	H	-0.133558	0.230998	0.060060
O177	O	-0.970846	-0.930736	-0.447270
O178	O	-0.470846	-0.430736	0.052730
C179	C	-0.980941	-1.006817	-0.437152
C180	C	-0.480941	-0.506817	0.062848
H181	H	-1.037749	-1.017331	-0.413058
H182	H	-0.537749	-0.517331	0.086942
H183	H	-0.975928	-1.036008	-0.492269
H184	H	-0.475928	-0.536008	0.007731
H185	H	-0.937312	-1.028633	-0.397948
H186	H	-0.437312	-0.528633	0.102052
