data_functionalizedCrystal
_audit_creation_method	'MofGen! by Chris Wilmer'
_symmetry_space_group_name_H-M	'P1'
_symmetry_Int_Tables_number	1
_symmetry_cell_setting	triclinic
loop_
_symmetry_equiv_pos_as_xyz
  x,y,z
_cell_length_a	16.625546
_cell_length_b	16.625547
_cell_length_c	14.908858
_cell_angle_alpha	93.273493
_cell_angle_beta	86.668924
_cell_angle_gamma	90.022405
loop_
_atom_site_label
_atom_site_type_symbol
_atom_site_fract_x
_atom_site_fract_y
_atom_site_fract_z
Zn1	Zn	-0.294670	1.206369	-0.510189
Zn2	Zn	-0.044670	1.456369	-0.260189
Zn3	Zn	0.205330	1.706369	-0.010189
Zn4	Zn	0.455330	1.956369	0.239811
Zn5	Zn	-0.437299	1.214052	-0.359324
Zn6	Zn	-0.187299	1.464052	-0.109324
Zn7	Zn	0.062701	1.714052	0.140676
Zn8	Zn	0.312701	1.964052	0.390676
Zn9	Zn	-0.302484	1.079310	-0.359333
Zn10	Zn	-0.052484	1.329310	-0.109333
Zn11	Zn	0.197516	1.579310	0.140667
Zn12	Zn	0.447516	1.829310	0.390667
Zn13	Zn	-0.429467	1.071504	-0.510124
Zn14	Zn	-0.179467	1.321504	-0.260124
Zn15	Zn	0.070533	1.571504	-0.010124
Zn16	Zn	0.320533	1.821504	0.239876
O17	O	-0.365980	1.142809	-0.434743
O18	O	-0.115980	1.392809	-0.184743
O19	O	0.134020	1.642809	0.065257
O20	O	0.384020	1.892809	0.315257
O21	O	-0.313598	1.320219	-0.490200
O22	O	-0.063598	1.570219	-0.240200
O23	O	0.186402	1.820219	0.009800
O24	O	0.436402	2.070219	0.259800
O25	O	-0.425964	1.202661	-0.233081
O26	O	-0.175964	1.452661	0.016919
O27	O	0.074036	1.702661	0.266919
O28	O	0.324036	1.952661	0.516919
O29	O	-0.188613	1.096216	-0.379376
O30	O	0.061387	1.346216	-0.129376
O31	O	0.311387	1.596216	0.120624
O32	O	0.561387	1.846216	0.370624
O33	O	-0.418387	1.325864	-0.379360
O34	O	-0.168387	1.575864	-0.129360
O35	O	0.081613	1.825864	0.120640
O36	O	0.331613	2.075864	0.370640
O37	O	-0.182872	1.189565	-0.490209
O38	O	0.067128	1.439565	-0.240209
O39	O	0.317128	1.689565	0.009791
O40	O	0.567128	1.939565	0.259791
O41	O	-0.326915	1.103667	-0.233088
O42	O	-0.076915	1.353667	0.016912
O43	O	0.173085	1.603667	0.266912
O44	O	0.423085	1.853667	0.516912
O45	O	-0.319321	0.965444	-0.379313
O46	O	-0.069321	1.215444	-0.129313
O47	O	0.180679	1.465444	0.120687
O48	O	0.430679	1.715444	0.370687
O49	O	-0.405038	1.082911	-0.636377
O50	O	-0.155038	1.332911	-0.386377
O51	O	0.094962	1.582911	-0.136377
O52	O	0.344962	1.832911	0.113623
O53	O	-0.412615	0.959708	-0.490098
O54	O	-0.162615	1.209708	-0.240098
O55	O	0.087385	1.459708	0.009902
O56	O	0.337385	1.709708	0.259902
O57	O	-0.306003	1.181996	-0.636424
O58	O	-0.056003	1.431996	-0.386424
O59	O	0.193997	1.681996	-0.136424
O60	O	0.443997	1.931996	0.113576
O61	O	-0.549094	1.195092	-0.379297
O62	O	-0.299094	1.445092	-0.129297
O63	O	-0.049094	1.695092	0.120703
O64	O	0.200906	1.945092	0.370703
O65	O	-0.543340	1.090362	-0.490089
O66	O	-0.293340	1.340362	-0.240089
O67	O	-0.043340	1.590362	0.009911
O68	O	0.206660	1.840362	0.259911
C69	C	-0.365967	0.933320	-0.434700
C70	C	-0.115967	1.183320	-0.184700
C71	C	0.134033	1.433320	0.065300
C72	C	0.384033	1.683320	0.315300
C73	C	-0.365979	0.843699	-0.434703
C74	C	-0.115979	1.093699	-0.184703
C75	C	0.134021	1.343699	0.065297
C76	C	0.384021	1.593699	0.315297
C77	C	-0.365980	0.770916	-0.434715
C78	C	-0.115980	1.020916	-0.184715
C79	C	0.134020	1.270916	0.065285
C80	C	0.384020	1.520916	0.315285
C81	C	-0.365983	0.679606	-0.434737
C82	C	-0.115983	0.929606	-0.184737
C83	C	0.134017	1.179606	0.065263
C84	C	0.384017	1.429606	0.315263
C85	C	-0.365990	0.606829	-0.434760
C86	C	-0.115990	0.856829	-0.184760
C87	C	0.134010	1.106829	0.065240
C88	C	0.384010	1.356829	0.315240
C89	C	-0.365994	0.515513	-0.434782
C90	C	-0.115994	0.765513	-0.184782
C91	C	0.134006	1.015513	0.065218
C92	C	0.384006	1.265513	0.315218
C93	C	-0.575473	1.142734	-0.434705
C94	C	-0.325473	1.392734	-0.184705
C95	C	-0.075473	1.642734	0.065295
C96	C	0.174527	1.892734	0.315295
C97	C	-0.665093	1.142775	-0.434719
C98	C	-0.415093	1.392775	-0.184719
C99	C	-0.165093	1.642775	0.065281
C100	C	0.084907	1.892775	0.315281
C101	C	-0.993264	1.142911	-0.434813
C102	C	-0.743264	1.392911	-0.184813
C103	C	-0.493264	1.642911	0.065187
C104	C	-0.243264	1.892911	0.315187
C105	C	-0.901957	1.142870	-0.434789
C106	C	-0.651957	1.392870	-0.184789
C107	C	-0.401957	1.642870	0.065211
C108	C	-0.151957	1.892870	0.315211
C109	C	-0.829182	1.142842	-0.434766
C110	C	-0.579182	1.392842	-0.184766
C111	C	-0.329182	1.642842	0.065234
C112	C	-0.079182	1.892842	0.315234
C113	C	-0.737869	1.142803	-0.434743
C114	C	-0.487869	1.392803	-0.184743
C115	C	-0.237869	1.642803	0.065257
C116	C	0.012131	1.892803	0.315257
C117	C	-0.155668	1.142904	-0.434800
C118	C	0.094332	1.392904	-0.184800
C119	C	0.344332	1.642904	0.065200
C120	C	0.594332	1.892904	0.315200
C121	C	-0.066046	1.142945	-0.434825
C122	C	0.183954	1.392945	-0.184825
C123	C	0.433954	1.642945	0.065175
C124	C	0.683954	1.892945	0.315175
C125	C	-0.353776	1.130726	-0.670050
C126	C	-0.103776	1.380726	-0.420050
C127	C	0.146224	1.630726	-0.170050
C128	C	0.396224	1.880726	0.079950
C129	C	-0.348575	1.125577	-0.770323
C130	C	-0.098575	1.375577	-0.520323
C131	C	0.151425	1.625577	-0.270323
C132	C	0.401425	1.875577	-0.020323
C133	C	-0.365994	1.353115	-0.434786
C134	C	-0.115994	1.603115	-0.184786
C135	C	0.134006	1.853115	0.065214
C136	C	0.384006	2.103115	0.315214
C137	C	-0.366000	1.442736	-0.434805
C138	C	-0.116000	1.692736	-0.184805
C139	C	0.134000	1.942736	0.065195
C140	C	0.384000	2.192736	0.315195
C141	C	-0.289677	1.066784	-0.911658
C142	C	-0.039677	1.316784	-0.661658
C143	C	0.210323	1.566784	-0.411658
C144	C	0.460323	1.816784	-0.161658
C145	C	-0.294562	1.071619	-0.817441
C146	C	-0.044562	1.321619	-0.567441
C147	C	0.205438	1.571619	-0.317441
C148	C	0.455438	1.821619	-0.067441
C149	C	-0.397704	1.174705	-0.817428
C150	C	-0.147704	1.424705	-0.567428
C151	C	0.102296	1.674705	-0.317428
C152	C	0.352296	1.924705	-0.067428
C153	C	-0.392819	1.169870	-0.911644
C154	C	-0.142819	1.419870	-0.661644
C155	C	0.107181	1.669870	-0.411644
C156	C	0.357181	1.919870	-0.161644
C157	C	-0.338804	1.115907	-0.958756
C158	C	-0.088804	1.365907	-0.708756
C159	C	0.161196	1.615907	-0.458756
C160	C	0.411196	1.865907	-0.208756
C161	C	-0.333924	1.111068	-1.052973
C162	C	-0.083924	1.361068	-0.802973
C163	C	0.166076	1.611068	-0.552973
C164	C	0.416076	1.861068	-0.302973
C165	C	-0.437061	1.214158	-1.052958
C166	C	-0.187061	1.464158	-0.802958
C167	C	0.062939	1.714158	-0.552958
C168	C	0.312939	1.964158	-0.302958
C169	C	-0.441946	1.218993	-0.958742
C170	C	-0.191946	1.468993	-0.708742
C171	C	0.058054	1.718993	-0.458742
C172	C	0.308054	1.968993	-0.208742
C173	C	-0.378079	1.154891	-0.200351
C174	C	-0.128079	1.404891	0.049649
C175	C	0.121921	1.654891	0.299649
C176	C	0.371921	1.904891	0.549649
C177	C	-0.383053	1.160197	-0.100078
C178	C	-0.133053	1.410197	0.149922
C179	C	0.116947	1.660197	0.399922
C180	C	0.366947	1.910197	0.649922
H181	H	-0.289943	1.067128	-1.091330
H182	H	-0.039943	1.317128	-0.841330
H183	H	0.210057	1.567128	-0.591330
H184	H	0.460057	1.817128	-0.341330
C185	C	-0.230269	1.007427	-0.963483
C186	C	0.019731	1.257427	-0.713483
C187	C	0.269731	1.507427	-0.463483
C188	C	0.519731	1.757427	-0.213483
H189	H	-0.201707	0.978864	-0.921938
H190	H	0.048293	1.228864	-0.671938
H191	H	0.298293	1.478864	-0.421938
H192	H	0.548293	1.728864	-0.171938
H193	H	-0.259207	0.970399	-1.000223
H194	H	-0.009207	1.220399	-0.750223
H195	H	0.240793	1.470399	-0.500223
H196	H	0.490793	1.720399	-0.250223
H197	H	-0.193228	1.036404	-1.000249
H198	H	0.056772	1.286404	-0.750249
H199	H	0.306772	1.536404	-0.500249
H200	H	0.556772	1.786404	-0.250249
C201	C	-0.240530	1.017577	-0.765636
C202	C	0.009470	1.267577	-0.515636
C203	C	0.259470	1.517577	-0.265636
C204	C	0.509470	1.767577	-0.015636
H205	H	-0.207669	0.984743	-0.807191
H206	H	0.042331	1.234743	-0.557191
H207	H	0.292331	1.484743	-0.307191
H208	H	0.542331	1.734743	-0.057191
H209	H	-0.207304	1.050316	-0.728893
H210	H	0.042696	1.300316	-0.478893
H211	H	0.292696	1.550316	-0.228893
H212	H	0.542696	1.800316	0.021107
H213	H	-0.273287	0.984315	-0.728873
H214	H	-0.023287	1.234315	-0.478873
H215	H	0.226713	1.484315	-0.228873
H216	H	0.476713	1.734315	0.021127
H217	H	-0.441674	1.218644	-0.779054
H218	H	-0.191674	1.468644	-0.529054
H219	H	0.058326	1.718644	-0.279054
H220	H	0.308326	1.968644	-0.029054
C221	C	-0.501359	1.278344	-0.906915
C222	C	-0.251359	1.528344	-0.656915
C223	C	-0.001359	1.778344	-0.406915
C224	C	0.248641	2.028344	-0.156915
H225	H	-0.497238	1.274185	-0.844058
H226	H	-0.247238	1.524185	-0.594058
H227	H	0.002762	1.774185	-0.344058
H228	H	0.252762	2.024185	-0.094058
H229	H	-0.488768	1.331732	-0.922369
H230	H	-0.238768	1.581732	-0.672369
H231	H	0.011232	1.831732	-0.422369
H232	H	0.261232	2.081732	-0.172369
H233	H	-0.554736	1.265716	-0.922338
H234	H	-0.304736	1.515716	-0.672338
H235	H	-0.054736	1.765716	-0.422338
H236	H	0.195264	2.015716	-0.172338
C237	C	-0.491100	1.268197	-1.104768
C238	C	-0.241100	1.518197	-0.854768
C239	C	0.008900	1.768197	-0.604768
C240	C	0.258900	2.018197	-0.354768
H241	H	-0.480453	1.257594	-1.167628
H242	H	-0.230453	1.507594	-0.917628
H243	H	0.019547	1.757594	-0.667628
H244	H	0.269547	2.007594	-0.417628
H245	H	-0.546076	1.257168	-1.089307
H246	H	-0.296076	1.507168	-0.839307
H247	H	-0.046076	1.757168	-0.589307
H248	H	0.203924	2.007168	-0.339307
H249	H	-0.480097	1.323173	-1.089341
H250	H	-0.230097	1.573173	-0.839341
H251	H	0.019903	1.823173	-0.589341
H252	H	0.269903	2.073173	-0.339341
