data_functionalizedCrystal
_audit_creation_method	'MofGen! by Chris Wilmer'
_symmetry_space_group_name_H-M	'P1'
_symmetry_Int_Tables_number	1
_symmetry_cell_setting	triclinic
loop_
_symmetry_equiv_pos_as_xyz
  x,y,z
_cell_length_a	15.995300
_cell_length_b	14.853569
_cell_length_c	13.330367
_cell_angle_alpha	89.994419
_cell_angle_beta	89.999902
_cell_angle_gamma	83.553686
loop_
_atom_site_label
_atom_site_type_symbol
_atom_site_fract_x
_atom_site_fract_y
_atom_site_fract_z
O1	O	0.109326	1.196199	-0.083367
O2	O	0.609326	1.696199	0.416633
O3	O	0.122347	0.933720	-0.083378
O4	O	0.622347	1.433720	0.416622
O5	O	-0.006046	1.072158	-0.083377
O6	O	0.493954	1.572158	0.416623
O7	O	0.237718	1.057761	-0.083368
O8	O	0.737718	1.557761	0.416632
O9	O	-0.006049	1.072138	0.083470
O10	O	0.493951	1.572138	0.583470
O11	O	0.122344	0.933700	0.083469
O12	O	0.622344	1.433700	0.583469
O13	O	0.109323	1.196179	0.083480
O14	O	0.609323	1.696179	0.583480
Cu15	Cu	0.115833	1.064938	0.098709
Cu16	Cu	0.615833	1.564938	0.598709
Cu17	Cu	0.115837	1.064961	-0.098607
Cu18	Cu	0.615837	1.564961	0.401393
O19	O	0.237716	1.057741	0.083479
O20	O	0.737716	1.557741	0.583479
C21	C	0.121755	0.900122	0.000044
C22	C	0.621755	1.400122	0.500044
C23	C	0.119987	0.800041	0.000039
C24	C	0.619987	1.300041	0.500039
C25	C	-0.037243	1.071561	0.000043
C26	C	0.462757	1.571561	0.500043
C27	C	-0.130198	1.069801	0.000033
C28	C	0.369802	1.569801	0.500033
C29	C	0.042889	0.763784	0.000033
C30	C	0.542889	1.263784	0.500033
C31	C	0.195423	0.742259	0.000050
C32	C	0.695423	1.242259	0.500050
C33	C	0.193764	0.648227	0.000051
C34	C	0.693764	1.148227	0.500051
C35	C	0.116666	0.611970	0.000045
C36	C	0.616666	1.111970	0.500045
C37	C	0.041227	0.669744	0.000037
C38	C	0.541227	1.169744	0.500037
C39	C	0.269201	0.590446	0.000069
C40	C	0.769201	1.090446	0.500069
C41	C	0.267545	0.496409	0.000071
C42	C	0.767545	0.996409	0.500071
C43	C	0.190446	0.460149	0.000057
C44	C	0.690446	0.960149	0.500057
C45	C	0.115004	0.517930	0.000049
C46	C	0.615004	1.017930	0.500049
C47	C	0.037906	0.481672	0.000042
C48	C	0.537906	0.981672	0.500042
C49	C	-0.037537	0.539451	0.000026
C50	C	0.462463	1.039451	0.500026
C51	C	-0.035872	0.633484	0.000023
C52	C	0.464128	1.133484	0.500023
C53	C	0.188781	0.366116	0.000060
C54	C	0.688781	0.866116	0.500060
C55	C	0.036244	0.387632	0.000046
C56	C	0.536244	0.887632	0.500046
C57	C	-0.300385	1.066549	0.000042
C58	C	0.199615	1.566549	0.500042
C59	C	-0.347736	1.165121	0.000044
C60	C	0.152264	1.665121	0.500044
C61	C	-0.444426	1.163322	0.000427
C62	C	0.055574	1.663322	0.500427
C63	C	-0.467945	1.063350	0.000051
C64	C	0.032055	1.563350	0.500051
C65	C	-0.426870	1.014434	0.095138
C66	C	0.073130	1.514434	0.595138
C67	C	-0.330233	1.016928	0.095214
C68	C	0.169767	1.516928	0.595214
C69	C	-0.329956	1.015491	-0.094529
C70	C	0.170044	1.515491	0.405471
C71	C	-0.426900	1.015500	-0.095775
C72	C	0.073100	1.515500	0.404225
C73	C	-0.562643	1.061536	0.000059
C74	C	-0.062643	1.561536	0.500059
C75	C	-0.205687	1.068360	0.000041
C76	C	0.294313	1.568360	0.500041
C77	C	0.268913	1.058338	0.000057
C78	C	0.768913	1.558338	0.500057
C79	C	0.361868	1.060099	0.000061
C80	C	0.861868	1.560099	0.500061
C81	C	0.109914	1.229777	0.000056
C82	C	0.609914	1.729777	0.500056
C83	C	0.111683	1.329858	0.000054
C84	C	0.611683	1.829858	0.500054
N85	N	0.115830	1.064928	0.237490
N86	N	0.615830	1.564928	0.737490
N87	N	0.115833	1.064979	-0.237389
N88	N	0.615833	1.564979	0.262611
C89	C	0.172666	1.003658	0.710113
C90	C	0.672666	1.503658	1.210113
C91	C	0.059000	1.126289	0.710082
C92	C	0.559000	1.626289	1.210082
C93	C	0.058997	1.126279	0.605063
C94	C	0.558997	1.626279	1.105063
C95	C	0.115831	1.064958	0.552565
C96	C	0.615831	1.564958	1.052565
C97	C	0.172667	1.003648	0.605085
C98	C	0.672667	1.503648	1.105085
C99	C	0.002168	1.187594	0.552536
C100	C	0.502168	1.687594	1.052536
C101	C	0.002164	1.187587	0.447511
C102	C	0.502164	1.687587	0.947511
C103	C	0.058994	1.126261	0.395010
C104	C	0.558994	1.626261	0.895010
C105	C	0.115832	1.064948	0.447537
C106	C	0.615832	1.564948	0.947537
C107	C	0.172666	1.003628	0.395039
C108	C	0.672666	1.503628	0.895039
C109	C	0.229500	0.942309	0.447563
C110	C	0.729500	1.442309	0.947563
C111	C	0.229498	0.942323	0.552585
C112	C	0.729498	1.442323	1.052585
C113	C	0.058997	1.126248	0.289989
C114	C	0.558997	1.626248	0.789989
C115	C	0.172666	1.003617	0.290010
C116	C	0.672666	1.503617	0.790010
H117	H	-0.026539	0.358119	0.000036
H118	H	0.473461	0.858119	0.500036
Br119	Br	0.300051	0.791466	0.000064
Br120	Br	0.800051	1.291466	0.500064
H121	H	-0.100310	0.509917	0.000015
H122	H	0.399690	1.009917	0.500015
Br123	Br	-0.059493	0.842192	0.000006
Br124	Br	0.440507	1.342192	0.500006
Br125	Br	0.249791	0.920438	0.781389
Br126	Br	0.749791	1.420438	1.281389
Br127	Br	-0.018121	1.209515	0.781325
Br128	Br	0.481879	1.709515	1.281325
H129	H	-0.097293	0.680535	0.000012
H130	H	0.402707	1.180535	0.500012
Br131	Br	0.373827	0.639657	0.000076
Br132	Br	0.873827	1.139657	0.500076
H133	H	0.328975	0.449373	0.000082
H134	H	0.828975	0.949373	0.500082
H135	H	0.250205	0.319077	0.000082
H136	H	0.750205	0.819077	0.500082
Br137	Br	-0.295717	1.069587	-0.214693
Br138	Br	0.204283	1.569587	0.285307
H139	H	-0.328023	1.204162	0.068083
H140	H	0.171977	1.704162	0.568083
Br141	Br	-0.474065	1.070341	0.213538
Br142	Br	0.025935	1.570341	0.713538
H143	H	-0.472844	1.201758	-0.067719
H144	H	0.027156	1.701758	0.432281
Br145	Br	-0.450507	0.891996	0.100588
Br146	Br	0.049493	1.391996	0.600588
H147	H	-0.329210	1.204736	-0.068143
H148	H	0.170790	1.704736	0.431857
H149	H	-0.472229	1.201575	0.068991
H150	H	0.027771	1.701575	0.568991
Br151	Br	-0.299626	1.075652	0.214141
Br152	Br	0.200374	1.575652	0.714141
Br153	Br	-0.276579	0.896291	0.101980
Br154	Br	0.223421	1.396291	0.601980
H155	H	-0.454199	1.051222	-0.166122
H156	H	0.045801	1.551222	0.333878
Br157	Br	-0.452707	0.894057	-0.105902
Br158	Br	0.047293	1.394057	0.394098
H159	H	-0.298270	0.942812	-0.095438
H160	H	0.201730	1.442812	0.404562
H161	H	0.012726	1.176177	0.247228
H162	H	0.512726	1.676177	0.747228
Br163	Br	0.249795	0.920385	0.218770
Br164	Br	0.749795	1.420385	0.718770
H165	H	0.275771	0.892400	0.595357
H166	H	0.775771	1.392400	1.095357
Br167	Br	0.306637	0.859100	0.376304
Br168	Br	0.806637	1.359100	0.876304
H169	H	-0.044114	1.237514	0.404752
H170	H	0.455886	1.737514	0.904752
Br171	Br	-0.074953	1.270820	0.623779
Br172	Br	0.425047	1.770820	1.123779
