data_functionalizedCrystal
_audit_creation_method	'MofGen! by Chris Wilmer'
_symmetry_space_group_name_H-M	'P1'
_symmetry_Int_Tables_number	1
_symmetry_cell_setting	triclinic
loop_
_symmetry_equiv_pos_as_xyz
  x,y,z
_cell_length_a	31.640172
_cell_length_b	19.902436
_cell_length_c	19.902436
_cell_angle_alpha	90.004631
_cell_angle_beta	60.003466
_cell_angle_gamma	59.996325
loop_
_atom_site_label
_atom_site_type_symbol
_atom_site_fract_x
_atom_site_fract_y
_atom_site_fract_z
Zr1	Zr	0.462545	-0.088119	0.647411
O2	O	0.550727	-0.195419	0.540126
O3	O	0.374373	-0.055227	0.680287
O4	O	0.462550	-0.195409	0.680289
O5	O	0.462542	0.055342	0.540136
O6	O	0.462542	-0.195400	0.790868
O7	O	0.462550	-0.055237	0.540123
O8	O	0.304809	0.055359	0.790863
O9	O	0.620275	-0.195417	0.540141
O10	O	0.410629	-0.041191	0.776847
O11	O	0.410629	0.041326	0.694333
O12	O	0.514446	-0.123720	0.694337
O13	O	0.514446	-0.041203	0.611823
Zr14	Zr	0.462519	0.088255	0.823792
Zr15	Zr	0.462532	-0.088105	0.823772
Zr16	Zr	0.462532	0.088241	0.647432
Zr17	Zr	0.573465	-0.088117	0.647435
Zr18	Zr	0.351598	0.088253	0.823768
O19	O	0.550690	0.055363	0.790917
O20	O	0.550709	-0.195398	0.790887
O21	O	0.550709	0.055343	0.540155
O22	O	0.374336	0.195555	0.931078
O23	O	0.374354	-0.055207	0.931048
O24	O	0.374354	0.195534	0.680316
O25	O	0.462521	-0.055205	0.931068
O26	O	0.462513	0.195545	0.790914
O27	O	0.462521	0.195536	0.680335
O28	O	0.462513	0.055373	0.931081
O29	O	0.620264	-0.195406	0.680324
O30	O	0.304799	0.195542	0.790880
O31	O	0.304788	0.195554	0.931063
O32	O	0.304799	0.055370	0.931046
O33	O	0.620264	-0.055234	0.540157
O34	O	0.620254	-0.055223	0.680340
O35	O	0.410617	0.123856	0.776867
O36	O	0.410617	0.041339	0.859381
O37	O	0.514434	-0.041190	0.776870
O38	O	0.514434	0.041327	0.694356
C39	C	0.323787	0.000066	0.735571
C40	C	0.276699	0.000065	0.735561
C41	C	0.462548	0.000050	0.515002
C42	C	0.462554	0.000044	0.440132
C43	C	0.462515	0.220668	0.735628
C44	C	0.462510	0.295538	0.735636
C45	C	-0.015343	-0.042997	0.778690
C46	C	-0.192339	-0.042997	0.778707
O47	O	-0.215244	-0.079599	0.815367
N48	N	-0.214468	0.000074	0.735634
C49	C	-0.192348	0.043153	0.692559
O50	O	-0.215236	0.079795	0.655930
C51	C	-0.015356	0.043157	0.692547
C52	C	0.006775	0.000076	0.735616
C53	C	0.006788	-0.086074	0.821755
C54	C	0.051036	-0.086077	0.821747
C55	C	0.073154	-0.043004	0.778673
C56	C	0.051023	0.000073	0.735607
C57	C	0.006760	0.086240	0.649477
C58	C	0.051009	0.086239	0.649480
C59	C	0.073140	0.043158	0.692548
C60	C	0.117390	0.043143	0.692525
N61	N	0.139519	0.000071	0.735597
C62	C	0.117401	-0.043002	0.778671
C63	C	-0.285271	0.043147	0.692567
C64	C	-0.329518	0.043145	0.692568
C65	C	-0.329506	-0.043004	0.778717
C66	C	-0.285255	-0.043007	0.778711
C67	C	-0.263142	0.000075	0.735639
C68	C	0.210327	-0.043006	0.778650
C69	C	0.254581	-0.043009	0.778635
C70	C	0.254563	0.043144	0.692490
C71	C	0.210315	0.043143	0.692501
C72	C	0.188196	0.000066	0.735587
O73	O	0.140317	0.079734	0.655891
O74	O	0.140287	-0.079623	0.815309
C75	C	-0.059592	-0.042994	0.778698
C76	C	-0.081722	0.000083	0.735632
C77	C	-0.059604	0.043156	0.692558
C78	C	-0.125969	0.000081	0.735634
C79	C	-0.148087	-0.042993	0.778708
C80	C	-0.125958	-0.086064	0.821780
C81	C	-0.081710	-0.086067	0.821772
C82	C	-0.081733	0.086227	0.649486
C83	C	-0.125982	0.086227	0.649497
C84	C	-0.148100	0.043153	0.692571
C85	C	0.601276	0.000071	0.735632
C86	C	0.648364	0.000071	0.735642
C87	C	0.462548	-0.220532	0.735576
C88	C	0.462554	-0.295402	0.735567
C89	C	0.462539	0.567540	0.735590
C90	C	0.397049	0.591110	0.787392
C91	C	0.397008	0.513272	0.787683
C92	C	0.462524	0.432597	0.735613
C93	C	0.495043	0.435017	0.773580
C94	C	0.494624	0.513245	0.773959
C95	C	0.495979	0.512236	0.645800
C96	C	0.494748	0.435315	0.645942
C97	C	0.462519	0.356330	0.735625
C98	C	0.462546	0.643805	0.735581
C99	C	0.462524	0.000076	0.168130
C100	C	0.528014	-0.051735	0.144571
C101	C	0.528055	-0.052023	0.222409
C102	C	0.462539	0.000060	0.303073
C103	C	0.430020	-0.037903	0.300650
C104	C	0.430439	-0.038286	0.222423
C105	C	0.429084	0.089874	0.223425
C106	C	0.430315	0.089736	0.300346
C107	C	0.462544	0.000052	0.379340
C108	C	0.462517	0.000081	0.091865
C109	C	0.462515	0.000086	0.956202
C110	C	0.462510	0.000092	1.031071
C111	C	0.323771	0.000083	0.956171
C112	C	0.276677	0.000089	1.031031
C113	C	0.323771	0.220666	0.735597
C114	C	0.276677	0.295534	0.735596
C115	C	0.323755	0.220683	0.956197
C116	C	0.276655	0.295558	1.031065
C117	C	0.601309	-0.220547	0.515006
C118	C	0.648408	-0.295422	0.440138
C119	C	0.601292	0.000053	0.515032
C120	C	0.648386	0.000047	0.440173
C121	C	0.601292	-0.220529	0.735606
C122	C	0.648386	-0.295398	0.735608
C123	C	0.254567	-0.042996	1.023104
C124	C	0.210324	-0.043008	1.093435
C125	C	0.188187	0.000071	1.171693
C126	C	0.210301	0.043157	1.179618
C127	C	0.254547	0.043163	1.109288
C128	C	0.254555	0.373781	0.778677
C129	C	0.210311	0.444135	0.778672
C130	C	0.188187	0.436240	0.735591
C131	C	0.210314	0.357986	0.692505
C132	C	0.254560	0.287633	0.692505
C133	C	0.254537	0.287647	1.109303
C134	C	0.210288	0.357993	1.179657
C135	C	0.188155	0.436250	1.171770
C136	C	0.210278	0.444159	1.093524
C137	C	0.254529	0.373814	1.023173
C138	C	0.670532	-0.287511	0.361900
C139	C	0.714795	-0.357857	0.291547
C140	C	0.736930	-0.436114	0.299433
C141	C	0.714804	-0.444023	0.377679
C142	C	0.670545	-0.373678	0.448031
C143	C	0.670500	0.043125	0.448099
C144	C	0.714756	0.043117	0.377768
C145	C	0.736895	0.000036	0.299510
C146	C	0.714779	-0.043047	0.291585
C147	C	0.670526	-0.043043	0.361916
C148	C	0.670496	-0.287477	0.778697
C149	C	0.714740	-0.357818	0.778715
C150	C	0.736877	-0.436078	0.735637
C151	C	0.714763	-0.443998	0.692546
C152	C	0.670516	-0.373658	0.692534
H153	H	0.272600	-0.078093	0.813706
H154	H	0.452611	-0.103353	0.302198
N155	N	0.646672	-0.203113	0.353379
H156	H	0.615276	-0.159741	0.409813
H157	H	0.628355	-0.196600	0.322260
H158	H	0.382390	-0.002989	0.241764
N159	N	0.464037	0.561661	0.861465
H160	H	0.427939	0.618222	0.877810
H161	H	0.492791	0.567033	0.865693
N162	N	0.278395	0.203252	1.117832
H163	H	0.296752	0.196666	1.148907
H164	H	0.309761	0.159928	1.061373
N165	N	0.278375	0.382348	0.938787
H166	H	0.322793	0.355084	0.907670
H167	H	0.257593	0.442613	0.944540
H168	H	0.192280	0.351539	1.243361
H169	H	0.652532	-0.380129	0.511733
H170	H	0.652479	0.078212	0.511814
H171	H	0.272543	0.078253	1.115753
N172	N	0.558264	0.487634	0.727220
H173	H	0.581443	0.452236	0.668689
H174	H	0.577454	0.455333	0.754620
H175	H	-0.347526	0.078215	0.657487
H176	H	0.192294	0.351570	0.657429
H177	H	0.732810	-0.078123	0.227858
N178	N	0.784661	-0.511978	0.223545
H179	H	0.769267	-0.545837	0.223497
H180	H	0.821366	-0.545778	0.223548
H181	H	0.652522	-0.078120	0.355450
H182	H	0.371493	0.514440	0.762219
N183	N	0.558851	0.359761	0.726019
H184	H	0.567313	0.323287	0.679292
H185	H	0.565035	0.328441	0.763875
H186	H	0.472452	0.433476	0.839027
H187	H	0.732802	-0.351401	0.227843
N188	N	0.558062	0.359200	0.590512
H189	H	0.563033	0.329370	0.543264
H190	H	0.566750	0.321776	0.622955
H191	H	0.652479	-0.223760	0.813776
N192	N	0.738585	-0.349266	0.825195
H193	H	0.717849	-0.289014	0.852473
H194	H	0.783004	-0.376580	0.785655
H195	H	0.382517	0.131588	0.357800
N196	N	0.278419	0.089605	0.646036
H197	H	0.322838	0.050097	0.602686
H198	H	0.270674	0.132951	0.685606
N199	N	0.561897	-0.138960	0.091730
H200	H	0.535010	-0.145058	0.082983
H201	H	0.575471	-0.178186	0.120102
H202	H	0.152123	0.493523	1.229062
H203	H	0.192251	0.507885	1.087115
N204	N	0.186474	-0.089466	0.825121
H205	H	0.207214	-0.116753	0.852397
H206	H	0.194175	-0.132777	0.785572
N207	N	-0.017111	0.132721	0.603037
H208	H	0.016644	0.110134	0.542778
H209	H	-0.035476	0.192969	0.625718
N210	N	0.278432	0.203226	0.646047
H211	H	0.322851	0.172122	0.602710
H212	H	0.257670	0.208947	0.618798
H213	H	0.371347	0.630274	0.762056
N214	N	0.738681	-0.528430	0.386179
H215	H	0.770073	-0.571787	0.329735
H216	H	0.704891	-0.534952	0.417268
N217	N	0.456831	0.131889	0.175341
H218	H	0.491364	0.093132	0.117219
H219	H	0.471770	0.147711	0.202532
H220	H	0.732756	0.078203	0.384237
N221	N	0.784624	0.000036	0.223657
H222	H	0.795269	0.033867	0.240561
H223	H	0.769194	0.024533	0.189828
N224	N	0.646678	-0.382203	0.646045
H225	H	0.602260	-0.354939	0.685534
H226	H	0.667461	-0.442470	0.618759
N227	N	0.140459	0.512129	0.735608
H228	H	0.103740	0.512170	0.760121
H229	H	0.155906	0.512127	0.677257
H230	H	0.772905	-0.493347	0.735654
N231	N	0.738641	-0.528409	0.646086
H232	H	0.770027	-0.571760	0.652635
H233	H	0.756977	-0.534936	0.585846
H234	H	0.454026	0.118096	0.299978
H235	H	0.475023	0.548539	0.614085
N236	N	0.562074	-0.018202	0.092685
H237	H	0.575418	-0.000857	0.121688
H238	H	0.535356	0.030877	0.083954
N239	N	0.074902	-0.132542	0.868202
H240	H	0.054169	-0.159823	0.895488
H241	H	0.067199	-0.092987	0.911509
N242	N	0.366212	0.009670	0.375896
H243	H	0.357751	0.056400	0.412367
H244	H	0.360029	-0.028185	0.407217
H245	H	-0.011218	-0.121149	0.856835
H246	H	0.471036	0.435688	0.617580
N247	N	-0.057846	-0.132524	0.868232
H248	H	-0.013428	-0.175881	0.828726
H249	H	-0.078621	-0.159754	0.895517
H250	H	-0.267239	-0.078086	0.813781
H251	H	-0.347521	-0.078078	0.813789
H252	H	-0.267270	0.078232	0.657491
N253	N	0.186418	0.089631	1.264025
H254	H	0.220167	0.067048	1.270636
H255	H	0.155022	0.083077	1.307321
N256	N	0.074858	0.132711	0.603027
H257	H	0.054120	0.160000	0.575748
H258	H	0.119277	0.093159	0.559715
N259	N	0.559885	0.485835	0.594431
H260	H	0.567167	0.509561	0.629108
H261	H	0.567409	0.506473	0.546086
H262	H	0.192302	0.078212	0.657420
N263	N	0.561840	-0.018276	0.220864
H264	H	0.604356	-0.053721	0.170081
H265	H	0.561889	-0.018386	0.271571
H266	H	-0.143972	-0.121140	0.856850
H267	H	-0.143994	0.121306	0.614417
H268	H	0.371469	0.631026	0.853229
N269	N	-0.057882	0.132685	0.603016
H270	H	-0.013465	0.093172	0.559662
H271	H	-0.065622	0.176042	0.642567
N272	N	0.363016	0.515612	0.875416
H273	H	0.348001	0.567271	0.914050
H274	H	0.390359	0.465796	0.882698
H275	H	0.192301	0.507846	0.813761
H276	H	0.453555	-0.104365	0.185877
N277	N	0.562050	-0.139769	0.220053
H278	H	0.534745	-0.147135	0.269824
H279	H	0.597114	-0.152518	0.220337
N280	N	0.365178	0.141252	0.249815
H281	H	0.357897	0.106575	0.226090
H282	H	0.357655	0.189597	0.229173
N283	N	0.140465	0.000057	1.247543
H284	H	0.103754	0.024567	1.247559
H285	H	0.129842	0.033870	1.298285
H286	H	0.272591	-0.078086	0.959389
H287	H	0.192324	-0.078094	1.086966
N288	N	0.278410	0.382308	0.825148
H289	H	0.257678	0.442557	0.852433
H290	H	0.322829	0.354990	0.785601
