data_functionalizedCrystal
_audit_creation_method	'MofGen! by Chris Wilmer'
_symmetry_space_group_name_H-M	'P1'
_symmetry_Int_Tables_number	1
_symmetry_cell_setting	triclinic
loop_
_symmetry_equiv_pos_as_xyz
  x,y,z
_cell_length_a	10.654550
_cell_length_b	9.198806
_cell_length_c	10.723024
_cell_angle_alpha	89.997988
_cell_angle_beta	84.476386
_cell_angle_gamma	89.992525
loop_
_atom_site_label
_atom_site_type_symbol
_atom_site_fract_x
_atom_site_fract_y
_atom_site_fract_z
O1	O	1.667814	-0.121008	0.175272
O2	O	1.302333	-0.120984	0.191971
O3	O	1.493504	-0.120991	0.002047
O4	O	1.476643	-0.121001	0.365196
O5	O	1.493489	0.120794	0.002046
O6	O	1.302318	0.120801	0.191970
O7	O	1.667799	0.120777	0.175271
Cu8	Cu	1.485057	0.142866	0.183621
Cu9	Cu	1.485075	-0.143073	0.183622
O10	O	1.476628	0.120784	0.365196
C11	C	1.255528	-0.000089	0.190745
C12	C	1.116085	-0.000080	0.187076
N13	N	1.485053	0.343980	0.183620
N14	N	1.485088	-0.344187	0.183613
C15	C	1.036583	-0.000104	0.298901
C16	C	0.905562	-0.000129	0.295446
C17	C	0.933560	-0.000112	0.068333
C18	C	1.064578	-0.000076	0.071789
C19	C	1.088090	-0.000107	0.414188
C20	C	1.008586	-0.000133	0.526022
C21	C	0.877566	-0.000158	0.522567
C22	C	0.826049	-0.000158	0.407279
C23	C	1.714604	-0.000122	0.176498
C24	C	1.854047	-0.000140	0.180166
C25	C	1.492269	-0.000100	-0.044454
C26	C	1.488598	-0.000105	-0.183008
C27	C	1.565321	0.416174	0.103524
C28	C	1.565340	0.583586	0.103520
C29	C	1.595568	-0.000114	-0.257975
C30	C	1.591776	-0.000119	-0.401179
C31	C	1.477863	-0.000110	0.411696
C32	C	1.481534	-0.000115	0.550251
H33	H	1.194772	-0.000094	0.417014
H34	H	1.634065	0.645670	0.034951
C35	C	1.065257	-0.000125	0.652832
N36	N	1.107941	-0.000119	0.748347
H37	H	1.689955	-0.000112	-0.216139
C38	C	0.681921	-0.000179	0.403486
N39	N	0.573366	-0.000204	0.400631
H40	H	1.683350	-0.000121	-0.465598
H41	H	1.416369	0.593738	0.252194
C42	C	1.392228	0.427910	0.276253
N43	N	1.322309	0.491125	0.346027
C44	C	0.876885	-0.000125	-0.058475
N45	N	0.834199	-0.000141	-0.153989
C46	C	1.357811	-0.000106	-0.362733
N47	N	1.264623	-0.000102	-0.297182
H48	H	1.394211	-0.000109	-0.224844
H49	H	0.812837	-0.000165	0.613628
H50	H	1.634022	0.354045	0.034949
C51	C	1.152035	-0.000057	-0.051224
N52	N	1.217909	-0.000041	-0.143880
