data_functionalizedCrystal
_audit_creation_method	'MofGen! by Chris Wilmer'
_symmetry_space_group_name_H-M	'P1'
_symmetry_Int_Tables_number	1
_symmetry_cell_setting	triclinic
loop_
_symmetry_equiv_pos_as_xyz
  x,y,z
_cell_length_a	29.917948
_cell_length_b	29.917021
_cell_length_c	29.913391
_cell_angle_alpha	60.005297
_cell_angle_beta	60.010472
_cell_angle_gamma	59.993667
loop_
_atom_site_label
_atom_site_type_symbol
_atom_site_fract_x
_atom_site_fract_y
_atom_site_fract_z
O1	O	0.061938	-0.653075	0.546110
O2	O	0.561938	-0.153075	1.046110
O3	O	0.023328	-0.508466	0.440017
O4	O	0.523328	-0.008466	0.940017
O5	O	0.114898	-0.599963	0.439941
O6	O	0.614898	-0.099963	0.939941
O7	O	-0.029633	-0.561578	0.546186
O8	O	0.470367	-0.061578	1.046186
O9	O	0.145278	-0.569587	0.470242
O10	O	0.645278	-0.069587	0.970242
O11	O	0.053708	-0.478090	0.470318
O12	O	0.553708	0.021910	0.970318
O13	O	0.092318	-0.622699	0.576411
O14	O	0.592318	-0.122699	1.076411
Zn15	Zn	0.077836	-0.545572	0.528175
Zn16	Zn	0.577836	-0.045572	1.028175
Zn17	Zn	0.037809	-0.585593	0.488253
Zn18	Zn	0.537809	-0.085593	0.988253
O19	O	0.000747	-0.531202	0.576487
O20	O	0.500747	-0.031202	1.076487
N21	N	0.105154	-0.518262	0.555424
N22	N	0.605154	-0.018262	1.055424
N23	N	0.010496	-0.612908	0.461004
N24	N	0.510496	-0.112908	0.961004
C25	C	0.164136	-0.309209	0.614352
C26	C	0.664136	0.190791	1.114352
C27	C	0.164251	-0.459335	0.764424
C28	C	0.664251	0.040665	1.264424
C29	C	0.164150	-0.459313	0.614341
C30	C	0.664150	0.040687	1.114341
C31	C	0.314282	-0.459305	0.614278
C32	C	0.814282	0.040695	1.114278
C33	C	0.180666	-0.358742	0.630849
C34	C	0.680666	0.141258	1.130849
C35	C	0.180732	-0.442815	0.714891
C36	C	0.680732	0.057185	1.214891
C37	C	0.264747	-0.442797	0.630809
C38	C	0.764747	0.057203	1.130809
C39	C	0.180676	-0.442802	0.630843
C40	C	0.680676	0.057198	1.130843
C41	C	0.143097	-0.246161	0.593354
C42	C	0.643097	0.253839	1.093354
C43	C	0.143120	-0.480326	0.593337
C44	C	0.643120	0.019674	1.093337
C45	C	0.201706	-0.421790	0.651848
C46	C	0.701706	0.078210	1.151848
C47	C	0.405963	-0.443499	0.565998
C48	C	0.905963	0.056501	1.065998
C49	C	0.463273	-0.462598	0.546874
C50	C	0.963273	0.037402	1.046874
C51	C	0.463297	-0.555329	0.582235
C52	C	0.963297	-0.055329	1.082235
C53	C	0.405988	-0.536228	0.601360
C54	C	0.905988	-0.036228	1.101360
C55	C	0.156905	-0.217495	0.537012
C56	C	0.656905	0.282505	1.037012
C57	C	0.137776	-0.160180	0.517926
C58	C	0.637776	0.339820	1.017926
C59	C	0.091035	-0.160201	0.611524
C60	C	0.591035	0.339799	1.111524
C61	C	0.110164	-0.217516	0.630611
C62	C	0.610164	0.282484	1.130611
C63	C	0.086772	-0.466488	0.607209
C64	C	0.586772	0.033512	1.107209
C65	C	0.067659	-0.485590	0.588108
C66	C	0.567659	0.014410	1.088108
C67	C	0.161236	-0.532368	0.541277
C68	C	0.661236	-0.032368	1.041277
C69	C	0.180352	-0.513266	0.560371
C70	C	0.680352	-0.013266	1.060371
C71	C	0.086942	-0.466529	0.856152
C72	C	0.586942	0.033471	1.356152
C73	C	0.067877	-0.485647	0.913465
C74	C	0.567877	0.014353	1.413465
C75	C	0.161489	-0.532436	0.913415
C76	C	0.661489	-0.032436	1.413415
C77	C	0.180552	-0.513318	0.856101
C78	C	0.680552	-0.013318	1.356101
C79	C	0.143277	-0.480363	0.827471
C80	C	0.643277	0.019637	1.327471
C81	C	0.377323	-0.480313	0.593239
C82	C	0.877323	0.019687	1.093239
C83	C	-0.111377	-0.650681	0.422736
C84	C	0.388623	-0.150681	0.922736
C85	C	-0.027364	-0.650787	0.422929
C86	C	0.472636	-0.150787	0.922929
C87	C	-0.048335	-0.671770	0.401835
C88	C	0.451665	-0.171770	0.901835
C89	C	-0.064214	-0.763416	0.450041
C90	C	0.435786	-0.263416	0.950041
C91	C	-0.045160	-0.820731	0.469172
C92	C	0.454840	-0.320731	0.969172
C93	C	0.047573	-0.820841	0.433980
C94	C	0.547573	-0.320841	0.933980
C95	C	0.028517	-0.763527	0.414847
C96	C	0.528517	-0.263527	0.914847
C97	C	-0.140115	-0.664483	0.479060
C98	C	0.359885	-0.164483	0.979060
C99	C	-0.197425	-0.645309	0.498058
C100	C	0.302575	-0.145309	0.998058
C101	C	-0.197256	-0.598535	0.404405
C102	C	0.302744	-0.098535	0.904405
C103	C	-0.139946	-0.617709	0.385407
C104	C	0.360054	-0.117709	0.885407
C105	C	-0.041168	-0.594444	0.409067
C106	C	0.458832	-0.094444	0.909067
C107	C	-0.022104	-0.575374	0.428250
C108	C	0.477896	-0.075374	0.928250
C109	C	0.024568	-0.668986	0.475143
C110	C	0.524568	-0.168986	0.975143
C111	C	0.005504	-0.688059	0.455967
C112	C	0.505504	-0.188059	0.955967
C113	C	-0.041000	-0.594453	0.310105
C114	C	0.459000	-0.094453	0.810105
C115	C	-0.021803	-0.575386	0.252792
C116	C	0.478197	-0.075386	0.752792
C117	C	0.024951	-0.669004	0.252854
C118	C	0.524951	-0.169004	0.752854
C119	C	0.005755	-0.688070	0.310168
C120	C	0.505755	-0.188070	0.810168
C121	C	-0.027222	-0.650793	0.338792
C122	C	0.472778	-0.150793	0.838792
C123	C	-0.027377	-0.734817	0.422881
C124	C	0.472623	-0.234817	0.922881
N125	N	0.491125	-0.518235	0.555255
N126	N	0.991125	-0.018235	1.055255
O127	O	0.678406	-0.527360	0.420422
O128	O	1.178406	-0.027360	0.920422
O129	O	0.678588	-0.633782	0.564887
O130	O	1.178588	-0.133782	1.064887
O131	O	0.678516	-0.633539	0.473265
O132	O	1.178516	-0.133539	0.973265
O133	O	0.678478	-0.527602	0.512044
O134	O	1.178478	-0.027602	1.012044
O135	O	0.587469	-0.603251	0.503685
O136	O	1.087469	-0.103251	1.003685
O137	O	0.587541	-0.603493	0.595307
O138	O	1.087541	-0.103493	1.095307
O139	O	0.587359	-0.497071	0.450842
O140	O	1.087359	0.002929	0.950842
Zn141	Zn	0.572994	-0.545473	0.527905
Zn142	Zn	1.072994	-0.045473	1.027905
Zn143	Zn	0.692953	-0.585380	0.487825
Zn144	Zn	1.192953	-0.085380	0.987825
O145	O	0.587431	-0.497313	0.542465
O146	O	1.087431	0.002687	1.042465
N147	N	0.774821	-0.612618	0.460470
N148	N	1.274821	-0.112618	0.960470
N149	N	0.105125	-0.132348	0.555445
N150	N	0.605125	0.367652	1.055445
O151	O	-0.029633	0.055031	0.546198
O152	O	0.470367	0.555031	1.046198
O153	O	0.114837	0.055047	0.439777
O154	O	0.614837	0.555047	0.939777
O155	O	0.023189	0.055024	0.440050
O156	O	0.523189	0.555024	0.940050
O157	O	0.062016	0.055054	0.545925
O158	O	0.562016	0.555054	1.045925
O159	O	0.053572	-0.036031	0.470398
O160	O	0.553572	0.463969	0.970398
O161	O	0.145220	-0.036008	0.470125
O162	O	0.645220	0.463992	0.970125
O163	O	0.000750	-0.036024	0.576546
O164	O	0.500750	0.463976	1.076546
Zn165	Zn	0.077809	-0.050473	0.528154
Zn166	Zn	0.577809	0.449527	1.028154
Zn167	Zn	0.037778	0.069496	0.488169
Zn168	Zn	0.537778	0.569496	0.988169
O169	O	0.092399	-0.036001	0.576273
O170	O	0.592399	0.463999	1.076273
N171	N	0.010456	0.151371	0.460879
N172	N	0.510456	0.651371	0.960879
N173	N	0.105414	-0.518315	0.941279
N174	N	0.605414	-0.018315	1.441279
O175	O	0.096182	-0.653057	1.128644
O176	O	0.596182	-0.153057	1.628644
O177	O	-0.010215	-0.508539	1.128670
O178	O	0.489785	-0.008539	1.628670
O179	O	-0.009968	-0.600172	1.128636
O180	O	0.490032	-0.100172	1.628636
O181	O	0.095935	-0.561424	1.128678
O182	O	0.595935	-0.061424	1.628678
O183	O	0.020367	-0.569808	1.037586
O184	O	0.520367	-0.069808	1.537586
O185	O	0.020121	-0.478175	1.037620
O186	O	0.520121	0.021825	1.537620
O187	O	0.126517	-0.622693	1.037594
O188	O	0.626517	-0.122693	1.537594
Zn189	Zn	0.078135	-0.545613	1.023151
Zn190	Zn	0.578135	-0.045613	1.523151
Zn191	Zn	0.038167	-0.585619	1.143113
Zn192	Zn	0.538167	-0.085619	1.643113
O193	O	0.126270	-0.531061	1.037628
O194	O	0.626270	-0.031061	1.537628
N195	N	0.010887	-0.612923	1.224985
N196	N	0.510887	-0.112923	1.724985
C197	C	0.034899	-0.475056	0.440551
C198	C	0.534899	0.024944	0.940551
C199	C	0.148298	-0.588365	0.440456
C200	C	0.648298	-0.088365	0.940456
C201	C	0.080746	-0.656109	0.575876
C202	C	0.580746	-0.156109	1.075876
C203	C	-0.032653	-0.542801	0.575971
C204	C	0.467347	-0.042801	1.075971
C205	C	0.633086	-0.633292	0.598298
C206	C	1.133086	-0.133292	1.098298
C207	C	0.632998	-0.632993	0.484834
C208	C	1.132998	-0.132993	0.984834
C209	C	0.632857	-0.497559	0.417433
C210	C	1.132857	0.002441	0.917433
C211	C	0.632949	-0.497860	0.530895
C212	C	1.132949	0.002140	1.030895
C213	C	0.148191	0.009634	0.440259
C214	C	0.648191	0.509634	0.940259
C215	C	0.034733	0.009493	0.440634
C216	C	0.534733	0.509493	0.940634
C217	C	-0.032641	0.009502	0.576027
C218	C	0.467359	0.509502	1.076027
C219	C	0.080854	0.009529	0.575690
C220	C	0.580854	0.509529	1.075690
C221	C	-0.009699	-0.475150	1.083148
C222	C	0.490301	0.024850	1.583148
C223	C	-0.009388	-0.588620	1.083088
C224	C	0.490612	-0.088620	1.583088
C225	C	0.126001	-0.656082	1.083116
C226	C	0.626001	-0.156082	1.583116
C227	C	0.125697	-0.542605	1.083155
C228	C	0.625697	-0.042605	1.583155
H229	H	0.022003	-0.474373	0.936811
H230	H	0.522003	0.025627	1.436811
H231	H	0.089168	0.009538	0.608950
H232	H	0.589168	0.509538	1.108950
C233	C	-0.088730	-0.531753	0.621043
C234	C	0.411270	-0.031753	1.121043
H235	H	-0.111700	-0.495513	0.607766
H236	H	0.388300	0.004487	1.107766
H237	H	-0.105138	-0.557055	0.631019
H238	H	0.394862	-0.057055	1.131019
H239	H	-0.083947	-0.535866	0.652151
H240	H	0.416053	-0.035866	1.152151
H241	H	-0.043102	-0.433644	1.083156
H242	H	0.456898	0.066356	1.583156
C243	C	0.633157	-0.678429	0.654345
C244	C	1.133157	-0.178429	1.154345
H245	H	0.633170	-0.665204	0.677347
H246	H	1.133170	-0.165204	1.177347
H247	H	0.601425	-0.688403	0.670742
H248	H	1.101425	-0.188403	1.170742
H249	H	0.664930	-0.709527	0.649524
H250	H	1.164930	-0.209527	1.149524
C251	C	-0.054315	-0.599796	1.083019
C252	C	0.445685	-0.099796	1.583019
H253	H	-0.040930	-0.636045	1.082995
H254	H	0.459070	-0.136045	1.582995
H255	H	-0.085463	-0.595713	1.114759
H256	H	0.414537	-0.095713	1.614759
H257	H	-0.064263	-0.574527	1.051252
H258	H	0.435737	-0.074527	1.551252
H259	H	0.159407	-0.697586	1.083101
H260	H	0.659407	-0.197586	1.583101
H261	H	0.633014	-0.666272	0.476534
H262	H	1.133014	-0.166272	0.976534
C263	C	0.091881	-0.712224	0.620893
C264	C	0.591881	-0.212224	1.120893
H265	H	0.060219	-0.712370	0.652735
H266	H	0.560219	-0.212370	1.152735
H267	H	0.100552	-0.740051	0.608295
H268	H	0.600552	-0.240051	1.108295
H269	H	0.121739	-0.718864	0.629431
H270	H	0.621739	-0.218864	1.129431
H271	H	0.632798	-0.464146	0.375944
H272	H	1.132798	0.035854	0.875944
C273	C	0.632928	-0.452898	0.542100
C274	C	1.132928	0.047102	1.042100
H275	H	0.632886	-0.421027	0.510462
H276	H	1.132886	0.078973	1.010462
H277	H	0.601195	-0.444402	0.571981
H278	H	1.101195	0.055598	1.071981
H279	H	0.664699	-0.465526	0.550761
H280	H	1.164699	0.034474	1.050761
H281	H	0.158967	-0.534314	1.083161
H282	H	0.658967	-0.034314	1.583161
C283	C	0.204113	0.010009	0.394999
C284	C	0.704113	0.510009	0.894999
H285	H	0.204122	0.010079	0.363200
H286	H	0.704122	0.510079	0.863200
H287	H	0.210592	0.041844	0.386490
H288	H	0.710592	0.541844	0.886490
H289	H	0.232123	-0.021665	0.407381
H290	H	0.732123	0.478335	0.907381
C291	C	0.045939	-0.430278	0.824661
C292	C	0.545939	0.069722	1.324661
H293	H	0.065359	-0.420870	0.786420
H294	H	0.565359	0.079130	1.286420
H295	H	0.023583	-0.449723	0.834063
H296	H	0.523583	0.050277	1.334063
H297	H	0.023583	-0.397871	0.834066
H298	H	0.523583	0.102129	1.334066
C299	C	0.202491	-0.568647	0.944906
C300	C	0.702491	-0.068647	1.444906
H301	H	0.238774	-0.574141	0.919617
H302	H	0.738774	-0.074141	1.419617
H303	H	0.196979	-0.551129	0.967254
H304	H	0.696979	-0.051129	1.467254
H305	H	0.197022	-0.603013	0.967272
H306	H	0.697022	-0.103013	1.467272
C307	C	0.242523	-0.528540	0.824553
C308	C	0.742523	-0.028540	1.324553
H309	H	0.248540	-0.512441	0.786319
H310	H	0.748540	-0.012441	1.286319
H311	H	0.258631	-0.515361	0.833936
H312	H	0.758631	-0.015361	1.333936
H313	H	0.258628	-0.567214	0.833935
H314	H	0.758628	-0.067214	1.333935
C315	C	0.045816	-0.430253	0.643466
C316	C	0.545816	0.069747	1.143466
H317	H	0.009521	-0.424743	0.648984
H318	H	0.509521	0.075257	1.148984
H319	H	0.051346	-0.447759	0.677810
H320	H	0.551346	0.052241	1.177810
H321	H	0.051310	-0.395897	0.625966
H322	H	0.551310	0.104103	1.125966
H323	H	0.026652	-0.433515	0.407232
H324	H	0.526652	0.066485	0.907232
H325	H	0.021776	-0.474310	0.599390
H326	H	0.521776	0.025690	1.099390
H327	H	0.026418	0.009490	0.407371
H328	H	0.526418	0.509490	0.907371
C329	C	0.202193	-0.568641	0.505053
C330	C	0.702193	-0.068641	1.005053
H331	H	0.182739	-0.578050	0.495679
H332	H	0.682739	-0.078050	0.995679
H333	H	0.224554	-0.549222	0.472635
H334	H	0.724554	-0.049222	0.972635
H335	H	0.224547	-0.601046	0.524516
H336	H	0.724547	-0.101046	1.024516
C337	C	0.242334	-0.528483	0.545112
C338	C	0.742334	-0.028483	1.045112
H339	H	0.261769	-0.550839	0.522746
H340	H	0.761769	-0.050839	1.022746
H341	H	0.251713	-0.496072	0.525670
H342	H	0.751713	0.003928	1.025670
H343	H	0.251757	-0.547938	0.577510
H344	H	0.751757	-0.047938	1.077510
C345	C	0.374488	-0.576726	0.631322
C346	C	0.874488	-0.076726	1.131322
H347	H	0.399772	-0.612761	0.633411
H348	H	0.899772	-0.112761	1.133411
H349	H	0.352148	-0.575271	0.667231
H350	H	0.852148	-0.075271	1.167231
H351	H	0.352116	-0.567137	0.611800
H352	H	0.852116	-0.067137	1.111800
H353	H	-0.074131	0.009496	0.609437
H354	H	0.425869	0.509496	1.109437
H355	H	-0.067855	-0.564093	0.333408
H356	H	0.432145	-0.064093	0.833408
H357	H	0.486593	-0.432619	0.524694
H358	H	0.986593	0.067381	1.024694
C359	C	0.494830	-0.616833	0.591162
C360	C	0.994830	-0.116833	1.091162
H361	H	0.533064	-0.622935	0.575865
H362	H	1.033064	-0.122935	1.075865
H363	H	0.485463	-0.636821	0.629272
H364	H	0.985463	-0.136821	1.129272
H365	H	0.485426	-0.628686	0.573843
H366	H	0.985426	-0.128686	1.073843
C367	C	0.374432	-0.381991	0.557068
C368	C	0.874432	0.118009	1.057068
H369	H	0.399700	-0.362804	0.538110
H370	H	0.899700	0.137196	1.038110
H371	H	0.352057	-0.368546	0.536081
H372	H	0.852057	0.131454	1.036081
H373	H	0.352093	-0.376678	0.591510
H374	H	0.852093	0.123322	1.091510
C375	C	0.193127	-0.249001	0.496029
C376	C	0.693127	0.250999	0.996029
H377	H	0.198603	-0.223718	0.459739
H378	H	0.698603	0.276282	0.959739
H379	H	0.227490	-0.271356	0.501514
H380	H	0.727490	0.228644	1.001514
H381	H	0.175625	-0.271361	0.501544
H382	H	0.675625	0.228639	1.001544
H383	H	0.149018	-0.136838	0.472047
H384	H	0.649018	0.363162	0.972047
H385	H	0.064226	-0.136878	0.641864
H386	H	0.564226	0.363122	1.141864
H387	H	-0.033030	-0.529506	0.229442
H388	H	0.466970	-0.029506	0.729442
C389	C	0.094976	-0.249048	0.692586
C390	C	0.594976	0.250952	1.192586
H391	H	0.111079	-0.287285	0.698620
H392	H	0.611079	0.212715	1.198620
H393	H	0.108164	-0.239656	0.708678
H394	H	0.608164	0.260344	1.208678
H395	H	0.056307	-0.239661	0.708694
H396	H	0.556307	0.260339	1.208694
C397	C	0.061216	-0.710011	0.221374
C398	C	0.561216	-0.210011	0.721374
H399	H	0.066672	-0.746295	0.246669
H400	H	0.566672	-0.246295	0.746669
H401	H	0.043765	-0.704486	0.198957
H402	H	0.543765	-0.204486	0.698957
H403	H	0.095591	-0.704555	0.199078
H404	H	0.595591	-0.204555	0.699078
H405	H	0.189808	-0.596548	0.407092
H406	H	0.689808	-0.096548	0.907092
H407	H	-0.067926	-0.564092	0.382165
H408	H	0.432074	-0.064092	0.882165
C409	C	0.020910	-0.750047	0.341720
C410	C	0.520910	-0.250047	0.841720
H411	H	0.043292	-0.769515	0.316463
H412	H	0.543292	-0.269515	0.816463
H413	H	0.040304	-0.759468	0.364140
H414	H	0.540304	-0.259468	0.864140
H415	H	-0.011522	-0.759396	0.364017
H416	H	0.488478	-0.259396	0.864017
H417	H	-0.033345	-0.529494	0.416965
H418	H	0.466655	-0.029494	0.916965
H419	H	0.051334	-0.699339	0.502037
H420	H	0.551334	-0.199339	1.002037
H421	H	0.016742	-0.733938	0.467255
H422	H	0.516742	-0.233938	0.967255
C423	C	0.069041	-0.732068	0.384973
C424	C	0.569041	-0.232068	0.884973
H425	H	0.105057	-0.757378	0.382937
H426	H	0.605057	-0.257378	0.882937
H427	H	0.067641	-0.709718	0.349045
H428	H	0.567641	-0.209718	0.849045
H429	H	0.059428	-0.709707	0.404516
H430	H	0.559428	-0.209707	0.904516
H431	H	-0.075156	-0.844016	0.491279
H432	H	0.424844	-0.344016	0.991279
C433	C	0.109056	-0.852426	0.425144
C434	C	0.609056	-0.352426	0.925144
H435	H	0.128268	-0.827184	0.406223
H436	H	0.628268	-0.327184	0.906223
H437	H	0.114316	-0.874783	0.459606
H438	H	0.614316	-0.374783	0.959606
H439	H	0.122518	-0.874789	0.404138
H440	H	0.622518	-0.374789	0.904138
H441	H	-0.109727	-0.740044	0.456586
H442	H	0.390273	-0.240044	0.956586
C443	C	-0.108687	-0.700753	0.520117
C444	C	0.391313	-0.200753	1.020117
H445	H	-0.070440	-0.710201	0.500735
H446	H	0.429560	-0.210201	1.000735
H447	H	-0.118106	-0.681306	0.542485
H448	H	0.381894	-0.181306	1.042485
H449	H	-0.118123	-0.733136	0.542455
H450	H	0.381877	-0.233136	1.042455
C451	C	-0.229038	-0.660491	0.560017
C452	C	0.270962	-0.160491	1.060017
H453	H	-0.203816	-0.682877	0.579527
H454	H	0.296184	-0.182877	1.079527
H455	H	-0.251395	-0.628070	0.569392
H456	H	0.248605	-0.128070	1.069392
H457	H	-0.251401	-0.679903	0.569357
H458	H	0.248599	-0.179903	1.069357
H459	H	-0.116547	-0.606465	0.339541
H460	H	0.383453	-0.106465	0.839541
C461	C	-0.228684	-0.562273	0.363346
C462	C	0.271316	-0.062273	0.863346
H463	H	-0.203360	-0.556803	0.327079
H464	H	0.296640	-0.056803	0.827079
H465	H	-0.251046	-0.579738	0.368804
H466	H	0.248954	-0.079738	0.868804
H467	H	-0.251028	-0.527901	0.368820
H468	H	0.248972	-0.027901	0.868820
