data_functionalizedCrystal
_audit_creation_method	'MofGen! by Chris Wilmer'
_symmetry_space_group_name_H-M	'P1'
_symmetry_Int_Tables_number	1
_symmetry_cell_setting	triclinic
loop_
_symmetry_equiv_pos_as_xyz
  x,y,z
_cell_length_a	15.944499
_cell_length_b	15.944493
_cell_length_c	14.421503
_cell_angle_alpha	90.010165
_cell_angle_beta	89.989779
_cell_angle_gamma	83.476327
loop_
_atom_site_label
_atom_site_type_symbol
_atom_site_fract_x
_atom_site_fract_y
_atom_site_fract_z
O1	O	1.114534	0.108117	-0.077155
O2	O	1.614534	0.608117	0.422845
O3	O	0.869975	0.121519	-0.077143
O4	O	1.369975	0.621519	0.422857
O5	O	0.998958	-0.007462	-0.077157
O6	O	1.498958	0.492538	0.422843
O7	O	0.985551	0.237097	-0.077141
O8	O	1.485551	0.737097	0.422859
O9	O	0.998937	-0.007443	0.077066
O10	O	1.498937	0.492557	0.577066
O11	O	0.869954	0.121538	0.077080
O12	O	1.369954	0.621538	0.577080
O13	O	1.114512	0.108136	0.077068
O14	O	1.614512	0.608136	0.577068
Cu15	Cu	0.992231	0.114839	0.091156
Cu16	Cu	1.492231	0.614839	0.591156
Cu17	Cu	0.992257	0.114816	-0.091231
Cu18	Cu	1.492257	0.614816	0.408769
O19	O	0.985530	0.237116	0.077082
O20	O	1.485530	0.737116	0.577082
C21	C	0.838670	0.120979	-0.000030
C22	C	1.338670	0.620979	0.499970
C23	C	0.745422	0.119334	-0.000026
C24	C	1.245422	0.619334	0.499974
C25	C	0.453871	0.194269	-0.000035
C26	C	0.953871	0.694269	0.499965
C27	C	0.514918	0.155307	-0.076080
C28	C	1.014918	0.655307	0.423920
C29	C	0.409787	0.113358	-0.000048
C30	C	0.909787	0.613358	0.499952
C31	C	0.514883	0.155304	0.075973
C32	C	1.014883	0.655304	0.575973
C33	C	0.574695	0.116299	-0.000036
C34	C	1.074695	0.616299	0.499964
C35	C	0.469607	0.074373	-0.076155
C36	C	0.969607	0.574373	0.423845
C37	C	0.469565	0.074382	0.075965
C38	C	0.969565	0.574382	0.575965
C39	C	0.530595	0.035361	-0.000098
C40	C	1.030595	0.535361	0.499902
C41	C	0.314787	0.111666	-0.000056
C42	C	0.814787	0.611666	0.499944
C43	C	0.669694	0.117984	-0.000035
C44	C	1.169694	0.617984	0.499965
C45	C	0.998400	-0.038747	-0.000049
C46	C	1.498400	0.461253	0.499951
C47	C	0.996757	-0.131995	-0.000061
C48	C	1.496757	0.368005	0.499939
C49	C	1.072679	-0.367769	-0.000047
C50	C	1.572679	0.132231	0.499953
C51	C	1.031748	-0.418339	-0.076085
C52	C	1.531748	0.081661	0.423915
C53	C	0.993713	-0.302716	-0.000050
C54	C	1.493713	0.197284	0.499950
C55	C	1.031708	-0.418296	0.075967
C56	C	1.531708	0.081704	0.575967
C57	C	0.990778	-0.467625	-0.000034
C58	C	1.490778	0.032375	0.499966
C59	C	0.952802	-0.352057	-0.076150
C60	C	1.452802	0.147943	0.423850
C61	C	0.952775	-0.352011	0.075971
C62	C	1.452775	0.147989	0.575971
C63	C	0.911785	-0.402548	-0.000086
C64	C	1.411785	0.097452	0.499914
C65	C	0.995405	-0.207716	-0.000059
C66	C	1.495405	0.292284	0.499941
C67	C	0.989079	-0.562622	-0.000031
C68	C	1.489079	-0.062622	0.499969
C69	C	1.145818	0.108675	-0.000047
C70	C	1.645818	0.608675	0.499953
C71	C	1.239066	0.110320	-0.000057
C72	C	1.739066	0.610320	0.499943
C73	C	0.986088	0.268401	-0.000027
C74	C	1.486088	0.768401	0.499973
C75	C	0.987731	0.361650	-0.000022
C76	C	1.487731	0.861650	0.499978
N77	N	0.992220	0.114854	0.219437
N78	N	1.492220	0.614854	0.719437
N79	N	0.992275	0.114794	-0.219512
N80	N	1.492275	0.614794	0.280488
C81	C	0.932567	0.174468	0.469098
C82	C	1.432567	0.674468	0.969098
C83	C	1.008466	0.190761	0.530898
C84	C	1.508466	0.690761	1.030898
C85	C	0.992240	0.114834	0.408599
C86	C	1.492240	0.614834	0.908599
C87	C	0.916361	0.098560	0.530892
C88	C	1.416361	0.598560	1.030892
C89	C	0.992253	0.114816	0.591320
C90	C	1.492253	0.614816	1.091320
C91	C	1.068177	0.131165	0.469038
C92	C	1.568177	0.631165	0.969038
C93	C	0.976022	0.038931	0.469027
C94	C	1.476022	0.538931	0.969027
C95	C	1.051976	0.055192	0.530800
C96	C	1.551976	0.555192	1.030800
C97	C	0.992231	0.114846	0.303338
C98	C	1.492231	0.614846	0.803338
C99	C	0.992270	0.114804	0.696579
C100	C	1.492270	0.614804	1.196579
H101	H	0.535018	0.189523	-0.140361
H102	H	1.035018	0.689523	0.359639
Cl103	Cl	0.438792	0.021565	-0.175521
Cl104	Cl	0.938792	0.521565	0.324479
H105	H	1.065105	-0.447299	-0.140373
H106	H	1.565105	0.052701	0.359627
H107	H	0.563787	-0.031847	-0.000143
H108	H	1.063787	0.468153	0.499857
H109	H	0.449446	0.040196	0.140252
H110	H	0.949446	0.540196	0.640252
H111	H	0.534943	0.189547	0.140260
H112	H	1.034943	0.689547	0.640260
Cl113	Cl	1.177694	-0.343655	-0.000166
Cl114	Cl	1.677694	0.156345	0.499834
H115	H	1.065064	-0.447226	0.140247
H116	H	1.565064	0.052774	0.640247
H117	H	1.022195	0.254943	0.558074
H118	H	1.522195	0.754943	1.058074
Cl119	Cl	0.901361	-0.307571	-0.175510
Cl120	Cl	1.401361	0.192429	0.324490
H121	H	0.843713	-0.418002	-0.000124
H122	H	1.343713	0.081998	0.499876
Cl123	Cl	0.901335	-0.307253	0.175232
Cl124	Cl	1.401335	0.192747	0.675232
H125	H	0.420527	0.261416	-0.000104
H126	H	0.920527	0.761416	0.499896
Cl127	Cl	0.817282	0.077318	0.572843
Cl128	Cl	1.317282	0.577318	1.072843
H129	H	1.132366	0.144999	0.441983
H130	H	1.632366	0.644999	0.941983
Cl131	Cl	0.854737	0.252387	0.427262
Cl132	Cl	1.354737	0.752387	0.927262
Cl133	Cl	1.129977	-0.022683	0.572374
Cl134	Cl	1.629977	0.477317	1.072374
Cl135	Cl	0.954788	-0.060130	0.427032
Cl136	Cl	1.454788	0.439870	0.927032
