data_functionalizedCrystal
_audit_creation_method	'MofGen! by Chris Wilmer'
_symmetry_space_group_name_H-M	'P1'
_symmetry_Int_Tables_number	1
_symmetry_cell_setting	triclinic
loop_
_symmetry_equiv_pos_as_xyz
  x,y,z
_cell_length_a	19.288862
_cell_length_b	19.288865
_cell_length_c	18.366186
_cell_angle_alpha	90.011479
_cell_angle_beta	90.025700
_cell_angle_gamma	83.135763
loop_
_atom_site_label
_atom_site_type_symbol
_atom_site_fract_x
_atom_site_fract_y
_atom_site_fract_z
O1	O	-0.921354	-0.086641	-0.060839
O2	O	-0.588021	0.246692	0.272495
O3	O	-0.254687	0.580026	0.605828
O4	O	-0.719093	-0.098331	-0.060780
O5	O	-0.385760	0.235002	0.272554
O6	O	-0.052426	0.568335	0.605887
O7	O	-0.826068	0.008644	-0.060797
O8	O	-0.492734	0.341978	0.272537
O9	O	-0.159401	0.675311	0.605870
O10	O	-0.814379	-0.193616	-0.060822
O11	O	-0.481046	0.139717	0.272511
O12	O	-0.147712	0.473050	0.605845
O13	O	-0.826050	0.008650	0.060303
O14	O	-0.492716	0.341983	0.393636
O15	O	-0.159383	0.675316	0.726969
O16	O	-0.719075	-0.098326	0.060320
O17	O	-0.385741	0.235007	0.393653
O18	O	-0.052408	0.568341	0.726986
O19	O	-0.921336	-0.086636	0.060261
O20	O	-0.588002	0.246698	0.393594
O21	O	-0.254669	0.580031	0.726927
Zn22	Zn	-0.820202	-0.092480	0.079517
Zn23	Zn	-0.486869	0.240853	0.412851
Zn24	Zn	-0.153536	0.574187	0.746184
Zn25	Zn	-0.820226	-0.092487	-0.080036
Zn26	Zn	-0.486893	0.240846	0.253297
Zn27	Zn	-0.153560	0.574180	0.586630
O28	O	-0.814361	-0.193611	0.060277
O29	O	-0.481028	0.139722	0.393611
O30	O	-0.147694	0.473055	0.726944
C31	C	-0.693207	-0.097953	-0.000222
C32	C	-0.359874	0.235381	0.333111
C33	C	-0.026541	0.568714	0.666444
C34	C	-0.616104	-0.096824	-0.000199
C35	C	-0.282770	0.236509	0.333134
C36	C	0.050563	0.569842	0.666468
C37	C	-0.571407	-0.159593	-0.000216
C38	C	-0.238074	0.173741	0.333117
C39	C	0.095259	0.507074	0.666450
C40	C	-0.498960	-0.158533	-0.000221
C41	C	-0.165627	0.174801	0.333113
C42	C	0.167706	0.508134	0.666446
C43	C	-0.471213	-0.094701	-0.000222
C44	C	-0.137879	0.238633	0.333111
C45	C	0.195454	0.571966	0.666445
C46	C	-0.515919	-0.031924	-0.000201
C47	C	-0.182586	0.301409	0.333133
C48	C	0.150748	0.634742	0.666466
C49	C	-0.588364	-0.032986	-0.000189
C50	C	-0.255031	0.300347	0.333144
C51	C	0.078302	0.633681	0.666477
C52	C	-0.362957	-0.044524	-0.042661
C53	C	-0.029624	0.288809	0.290672
C54	C	0.303710	0.622142	0.624006
C55	C	-0.290512	-0.043465	-0.042677
C56	C	0.042821	0.289868	0.290656
C57	C	0.376154	0.623202	0.623990
C58	C	-0.247767	-0.091423	-0.000254
C59	C	0.085566	0.241910	0.333079
C60	C	0.418900	0.575244	0.666412
C61	C	-0.277473	-0.140452	0.042175
C62	C	0.055860	0.192881	0.375508
C63	C	0.389193	0.526215	0.708842
C64	C	-0.349919	-0.141514	0.042187
C65	C	-0.016585	0.191820	0.375520
C66	C	0.316748	0.525153	0.708853
C67	C	-0.392659	-0.093542	-0.000234
C68	C	-0.059325	0.239791	0.333099
C69	C	0.274008	0.573124	0.666433
C70	C	-0.124514	-0.153046	-0.000275
C71	C	0.208819	0.180287	0.333058
C72	C	0.542152	0.513621	0.666392
C73	C	-0.052066	-0.151983	-0.000275
C74	C	0.281267	0.181350	0.333059
C75	C	0.614600	0.514683	0.666392
C76	C	-0.069027	-0.025373	-0.000262
C77	C	0.264307	0.307960	0.333071
C78	C	0.597640	0.641293	0.666404
C79	C	-0.141473	-0.026438	-0.000255
C80	C	0.191860	0.306896	0.333078
C81	C	0.525194	0.640229	0.666411
C82	C	-0.169212	-0.090276	-0.000265
C83	C	0.164121	0.243057	0.333068
C84	C	0.497454	0.576391	0.666402
N85	N	-0.820191	-0.092475	0.188408
N86	N	-0.486858	0.240858	0.521742
N87	N	-0.153525	0.574192	0.855075
C88	C	-0.825683	0.034523	-0.000245
C89	C	-0.492349	0.367857	0.333089
C90	C	-0.159016	0.701190	0.666422
C91	C	-0.824554	0.111627	-0.000238
C92	C	-0.491220	0.444960	0.333095
C93	C	-0.157887	0.778294	0.666429
C94	C	0.052779	-0.087016	-0.000286
C95	C	0.386112	0.246317	0.333048
C96	C	0.719446	0.579650	0.666381
C97	C	-0.024324	-0.088151	-0.000275
C98	C	0.309010	0.245182	0.333058
C99	C	0.642343	0.578516	0.666392
C100	C	-0.814746	-0.219490	-0.000276
C101	C	-0.481413	0.113843	0.333057
C102	C	-0.148079	0.447176	0.666391
C103	C	-0.815875	-0.296594	-0.000288
C104	C	-0.482542	0.036739	0.333046
C105	C	-0.149208	0.370073	0.666379
C106	C	-0.887322	0.156324	-0.000253
C107	C	-0.553988	0.489657	0.333081
C108	C	-0.220655	0.822990	0.666414
C109	C	-0.886261	0.228771	-0.000264
C110	C	-0.552928	0.562104	0.333069
C111	C	-0.219594	0.895437	0.666403
C112	C	-0.822429	0.256518	-0.000246
C113	C	-0.489095	0.589851	0.333088
C114	C	-0.155762	0.923184	0.666421
C115	C	-0.759652	0.211811	-0.000235
C116	C	-0.426319	0.545144	0.333098
C117	C	-0.092986	0.878478	0.666432
C118	C	-0.760715	0.139366	-0.000231
C119	C	-0.427382	0.472699	0.333102
C120	C	-0.094048	0.806032	0.666436
C121	C	-0.772243	0.364807	0.042188
C122	C	-0.438909	0.698140	0.375521
C123	C	-0.105576	1.031473	0.708854
C124	C	-0.771183	0.437251	0.042188
C125	C	-0.437850	0.770584	0.375521
C126	C	-0.104516	1.103918	0.708855
C127	C	-0.819149	0.479963	-0.000261
C128	C	-0.485816	0.813297	0.333072
C129	C	-0.152482	1.146630	0.666406
C130	C	-0.868187	0.450224	-0.042701
C131	C	-0.534853	0.783557	0.290632
C132	C	-0.201520	1.116891	0.623965
C133	C	-0.869249	0.377778	-0.042697
C134	C	-0.535916	0.711112	0.290636
C135	C	-0.202583	1.044445	0.623969
C136	C	-0.821270	0.335072	-0.000250
C137	C	-0.487936	0.668405	0.333083
C138	C	-0.154603	1.001738	0.666416
C139	C	-0.880771	0.603216	-0.000289
C140	C	-0.547438	0.936550	0.333044
C141	C	-0.214105	1.269883	0.666378
C142	C	-0.879708	0.675664	-0.000305
C143	C	-0.546375	1.008998	0.333029
C144	C	-0.213041	1.342331	0.666362
C145	C	-0.753098	0.658703	-0.000268
C146	C	-0.419764	0.992036	0.333065
C147	C	-0.086431	1.325370	0.666398
C148	C	-0.754163	0.586257	-0.000260
C149	C	-0.420829	0.919590	0.333073
C150	C	-0.087496	1.252923	0.666407
C151	C	-0.818001	0.558518	-0.000267
C152	C	-0.484668	0.891851	0.333066
C153	C	-0.151335	1.225184	0.666400
N154	N	-0.820243	-0.092487	-0.188928
N155	N	-0.486910	0.240847	0.144406
N156	N	-0.153576	0.574180	0.477739
C157	C	-0.867575	-0.045129	0.226501
C158	C	-0.534242	0.288204	0.559835
C159	C	-0.200908	0.621537	0.893168
C160	C	-0.867579	-0.045126	0.302729
C161	C	-0.534246	0.288207	0.636062
C162	C	-0.200913	0.621541	0.969396
C163	C	-0.820207	-0.092481	0.340861
C164	C	-0.486873	0.240853	0.674194
C165	C	-0.153540	0.574186	1.007528
C166	C	-0.772814	-0.139830	0.302759
C167	C	-0.439480	0.193504	0.636092
C168	C	-0.106147	0.526837	0.969426
C169	C	-0.772806	-0.139827	0.226533
C170	C	-0.439473	0.193506	0.559866
C171	C	-0.106139	0.526840	0.893199
C172	C	-0.810908	-0.155769	0.461615
C173	C	-0.477575	0.177565	0.794948
C174	C	-0.144242	0.510898	1.128282
C175	C	-0.810921	-0.155772	0.537840
C176	C	-0.477588	0.177561	0.871173
C177	C	-0.144254	0.510894	1.204507
C178	C	-0.820226	-0.092489	0.575969
C179	C	-0.486893	0.240844	0.909302
C180	C	-0.153560	0.574177	1.242635
C181	C	-0.829534	-0.029200	0.537863
C182	C	-0.496201	0.304134	0.871196
C183	C	-0.162867	0.637467	1.204529
C184	C	-0.829526	-0.029197	0.461636
C185	C	-0.496193	0.304136	0.794970
C186	C	-0.162860	0.637470	1.128303
C187	C	-0.820209	-0.092489	0.423516
C188	C	-0.486876	0.240845	0.756849
C189	C	-0.153543	0.574178	1.090183
C190	C	-0.867618	-0.045136	0.696717
C191	C	-0.534284	0.288197	1.030050
C192	C	-0.200951	0.621530	1.363383
C193	C	-0.867617	-0.045132	0.772946
C194	C	-0.534284	0.288201	1.106279
C195	C	-0.200950	0.621534	1.439612
C196	C	-0.772855	-0.139842	0.772974
C197	C	-0.439521	0.193491	1.106307
C198	C	-0.106188	0.526825	1.439641
C199	C	-0.772852	-0.139840	0.696746
C200	C	-0.439519	0.193493	1.030080
C201	C	-0.106185	0.526827	1.363413
C202	C	-0.820237	-0.092488	0.658622
C203	C	-0.486904	0.240845	0.991955
C204	C	-0.153570	0.574179	1.325289
H205	H	-0.374103	-0.181433	0.076736
H206	H	-0.040769	0.151901	0.410070
H207	H	0.292564	0.485234	0.743403
H208	H	-0.462562	-0.209648	-0.000233
H209	H	-0.129228	0.123686	0.333101
H210	H	0.204105	0.457019	0.666434
C211	C	-0.950987	0.572697	-0.000306
C212	C	-0.617654	0.906030	0.333028
C213	C	-0.284321	1.239363	0.666361
H214	H	-0.942631	0.523149	-0.000291
H215	H	-0.609298	0.856482	0.333042
H216	H	-0.275964	1.189815	0.666376
H217	H	-0.976830	0.588041	-0.042544
H218	H	-0.643496	0.921374	0.290789
H219	H	-0.310163	1.254708	0.624122
H220	H	-0.976816	0.588065	0.041921
H221	H	-0.643483	0.921399	0.375254
H222	H	-0.310150	1.254732	0.708588
C223	C	-0.190641	0.042608	-0.000248
C224	C	0.142692	0.375942	0.333086
C225	C	0.476026	0.709275	0.666419
H226	H	-0.163742	0.080777	-0.000255
H227	H	0.169591	0.414111	0.333078
H228	H	0.502925	0.747444	0.666412
H229	H	-0.219233	0.044830	0.041986
H230	H	0.114100	0.378163	0.375319
H231	H	0.447434	0.711496	0.708652
H232	H	-0.219276	0.044821	-0.042480
H233	H	0.114058	0.378154	0.290854
H234	H	0.447391	0.711488	0.624187
H235	H	-0.242671	-0.179504	0.076720
H236	H	0.090662	0.153830	0.410054
H237	H	0.423996	0.487163	0.743387
C238	C	-0.601917	-0.229812	-0.000214
C239	C	-0.268584	0.103521	0.333120
C240	C	0.064749	0.436855	0.666453
H241	H	-0.564917	-0.267043	-0.000217
H242	H	-0.231584	0.066290	0.333116
H243	H	0.101749	0.399624	0.666450
H244	H	-0.629853	-0.232864	-0.042436
H245	H	-0.296520	0.100469	0.290897
H246	H	0.036814	0.433803	0.624230
H247	H	-0.629798	-0.232853	0.042029
H248	H	-0.296464	0.100480	0.375362
H249	H	0.036869	0.433813	0.708696
H250	H	-0.147101	-0.205027	-0.000272
H251	H	0.186232	0.128306	0.333061
H252	H	0.519566	0.461640	0.666394
H253	H	-0.906157	-0.006571	0.195463
H254	H	-0.572824	0.326762	0.528796
H255	H	-0.239490	0.660096	0.862129
H256	H	-0.906201	-0.006574	0.803962
H257	H	-0.572867	0.326759	1.137295
H258	H	-0.239534	0.660092	1.470628
C259	C	-0.002897	-0.221030	-0.000294
C260	C	0.330437	0.112303	0.333039
C261	C	0.663770	0.445636	0.666372
H262	H	0.044223	-0.211257	-0.000292
H263	H	0.377556	0.122077	0.333042
H264	H	0.710890	0.455410	0.666375
H265	H	-0.011308	-0.247212	-0.042528
H266	H	0.322025	0.086121	0.290805
H267	H	0.655359	0.419454	0.624138
H268	H	-0.011263	-0.247216	0.041937
H269	H	0.322070	0.086118	0.375270
H270	H	0.655404	0.419451	0.708604
H271	H	-0.930823	0.712056	-0.000321
H272	H	-0.597490	1.045390	0.333013
H273	H	-0.264157	1.378723	0.666346
C274	C	-0.720737	-0.191928	0.654842
C275	C	-0.387403	0.141405	0.988175
C276	C	-0.054070	0.474738	1.321509
H277	H	-0.692527	-0.220135	0.688467
H278	H	-0.359193	0.113198	1.021801
H279	H	-0.025860	0.446531	1.355134
H280	H	-0.691901	-0.167017	0.625127
H281	H	-0.358567	0.166316	0.958461
H282	H	-0.025234	0.499650	1.291794
H283	H	-0.745633	-0.220780	0.625087
H284	H	-0.412300	0.112553	0.958420
H285	H	-0.078967	0.445887	1.291753
H286	H	-0.939304	0.133744	-0.000261
H287	H	-0.605971	0.467077	0.333073
H288	H	-0.272637	0.800411	0.666406
C289	C	-0.920949	0.497197	-0.089402
C290	C	-0.587615	0.830530	0.243931
C291	C	-0.254282	1.163864	0.577264
H292	H	-0.913289	0.544601	-0.083336
H293	H	-0.579955	0.877935	0.249997
H294	H	-0.246622	1.211268	0.583331
H295	H	-0.967077	0.491487	-0.074501
H296	H	-0.633744	0.824821	0.258832
H297	H	-0.300411	1.158154	0.592165
H298	H	-0.915019	0.484489	-0.139187
H299	H	-0.581685	0.817823	0.194146
H300	H	-0.248352	1.151156	0.527480
H301	H	-0.906166	-0.006570	0.333750
H302	H	-0.572833	0.326763	0.667083
H303	H	-0.239500	0.660096	1.000417
C304	C	-0.637532	0.036062	-0.000179
C305	C	-0.304199	0.369395	0.333154
C306	C	0.029134	0.702729	0.666488
H307	H	-0.610634	0.074232	-0.000184
H308	H	-0.277301	0.407565	0.333149
H309	H	0.056033	0.740898	0.666482
H310	H	-0.666127	0.038283	0.042052
H311	H	-0.332793	0.371616	0.375386
H312	H	0.000540	0.704949	0.708719
H313	H	-0.666164	0.038274	-0.042413
H314	H	-0.332831	0.371607	0.290920
H315	H	0.000502	0.704941	0.624254
C316	C	-0.720687	-0.191914	0.184629
C317	C	-0.387353	0.141419	0.517962
C318	C	-0.054020	0.474752	0.851295
H319	H	-0.692475	-0.220120	0.218253
H320	H	-0.359141	0.113213	0.551587
H321	H	-0.025808	0.446547	0.884920
H322	H	-0.691853	-0.167002	0.154912
H323	H	-0.358519	0.166331	0.488245
H324	H	-0.025186	0.499664	0.821578
H325	H	-0.745584	-0.220767	0.154875
H326	H	-0.412250	0.112566	0.488209
H327	H	-0.078917	0.445900	0.821542
C328	C	-0.682883	0.689216	-0.000251
C329	C	-0.349550	1.022549	0.333083
C330	C	-0.016217	1.355883	0.666416
H331	H	-0.691239	0.738764	-0.000252
H332	H	-0.357906	1.072097	0.333081
H333	H	-0.024573	1.405431	0.666415
H334	H	-0.657054	0.673848	-0.042472
H335	H	-0.323721	1.007181	0.290861
H336	H	0.009613	1.340515	0.624194
H337	H	-0.657042	0.673870	0.041993
H338	H	-0.323708	1.007204	0.375326
H339	H	0.009625	1.340537	0.708660
C340	C	-0.720707	-0.191920	0.344701
C341	C	-0.387374	0.141413	0.678034
C342	C	-0.054040	0.474746	1.011367
H343	H	-0.727503	-0.185146	0.395555
H344	H	-0.394169	0.148187	0.728888
H345	H	-0.060836	0.481520	1.062221
H346	H	-0.674375	-0.184495	0.332240
H347	H	-0.341042	0.148838	0.665573
H348	H	-0.007708	0.482171	0.998907
H349	H	-0.728106	-0.238260	0.332190
H350	H	-0.394773	0.095073	0.665523
H351	H	-0.061439	0.428407	0.998856
H352	H	-0.733181	0.330035	0.076759
H353	H	-0.399848	0.663369	0.410092
H354	H	-0.066514	0.996702	0.743425
C355	C	-0.720745	-0.191931	0.814910
C356	C	-0.387412	0.141402	1.148243
C357	C	-0.054079	0.474736	1.481577
H358	H	-0.727538	-0.185155	0.865764
H359	H	-0.394204	0.148178	1.199097
H360	H	-0.060871	0.481512	1.532431
H361	H	-0.674414	-0.184507	0.802446
H362	H	-0.341080	0.148826	1.135779
H363	H	-0.007747	0.482160	1.469112
H364	H	-0.728145	-0.238271	0.802402
H365	H	-0.394811	0.095062	1.135735
H366	H	-0.061478	0.428395	1.469068
H367	H	-0.803347	-0.207306	0.568860
H368	H	-0.470013	0.126027	0.902193
H369	H	-0.136680	0.459360	1.235527
H370	H	-0.046435	0.026600	-0.000309
H371	H	0.286898	0.359933	0.333025
H372	H	0.620231	0.693267	0.666358
H373	H	-0.837111	0.022331	0.568905
H374	H	-0.503778	0.355665	0.902239
H375	H	-0.170444	0.688998	1.235572
C376	C	-0.257838	0.010458	-0.089350
C377	C	0.075496	0.343792	0.243984
C378	C	0.408829	0.677125	0.577317
H379	H	-0.208569	0.004216	-0.083290
H380	H	0.124764	0.337550	0.250044
H381	H	0.458097	0.670883	0.583377
H382	H	-0.275854	0.056240	-0.074426
H383	H	0.057480	0.389574	0.258908
H384	H	0.390813	0.722907	0.592241
H385	H	-0.268924	0.004174	-0.139136
H386	H	0.064409	0.337508	0.194197
H387	H	0.397743	0.670841	0.527530
C388	C	-0.955306	0.277949	-0.000275
C389	C	-0.621973	0.611282	0.333058
C390	C	-0.288639	0.944616	0.666392
H391	H	-0.945529	0.325067	-0.000280
H392	H	-0.612195	0.658401	0.333053
H393	H	-0.278862	0.991734	0.666387
H394	H	-0.981480	0.269569	0.041951
H395	H	-0.648147	0.602903	0.375284
H396	H	-0.314814	0.936236	0.708617
H397	H	-0.981501	0.269555	-0.042515
H398	H	-0.648168	0.602888	0.290819
H399	H	-0.314835	0.936222	0.624152
H400	H	-0.493322	0.020048	-0.000212
H401	H	-0.159989	0.353382	0.333121
H402	H	0.173344	0.686715	0.666455
C403	C	-0.800677	-0.225384	0.419681
C404	C	-0.467344	0.107949	0.753014
C405	C	-0.134010	0.441282	1.086348
H406	H	-0.795147	-0.263076	0.453291
H407	H	-0.461814	0.070257	0.786624
H408	H	-0.128480	0.403591	1.119957
H409	H	-0.760228	-0.226897	0.389965
H410	H	-0.426895	0.106436	0.723299
H411	H	-0.093562	0.439769	1.056632
H412	H	-0.840356	-0.229131	0.389924
H413	H	-0.507022	0.104202	0.723258
H414	H	-0.173689	0.437536	1.056591
H415	H	-0.397755	-0.005470	-0.077211
H416	H	-0.064422	0.327864	0.256122
H417	H	0.268911	0.661197	0.589456
C418	C	-0.923179	0.345066	-0.089385
C419	C	-0.589846	0.678399	0.243948
C420	C	-0.256512	1.011732	0.577281
H421	H	-0.951593	0.380874	-0.114673
H422	H	-0.618259	0.714207	0.218660
H423	H	-0.284926	1.047541	0.551994
H424	H	-0.951634	0.320565	-0.058808
H425	H	-0.618301	0.653898	0.274526
H426	H	-0.284968	0.987232	0.607859
H427	H	-0.899575	0.313582	-0.123493
H428	H	-0.566242	0.646916	0.209840
H429	H	-0.232909	0.980249	0.543174
C430	C	-0.685119	0.537085	-0.000239
C431	C	-0.351786	0.870418	0.333094
C432	C	-0.018452	1.203752	0.666428
H433	H	-0.694894	0.489966	-0.000246
H434	H	-0.361560	0.823299	0.333087
H435	H	-0.028227	1.156632	0.666421
H436	H	-0.658925	0.545481	0.041996
H437	H	-0.325591	0.878814	0.375329
H438	H	0.007742	1.212148	0.708662
H439	H	-0.658946	0.545466	-0.042470
H440	H	-0.325612	0.878799	0.290864
H441	H	0.007721	1.212132	0.624197
C442	C	-0.717245	0.469958	0.088870
C443	C	-0.383912	0.803292	0.422203
C444	C	-0.050579	1.136625	0.755537
H445	H	-0.688822	0.434145	0.114141
H446	H	-0.355489	0.767479	0.447475
H447	H	-0.022156	1.100812	0.780808
H448	H	-0.740835	0.501443	0.122980
H449	H	-0.407502	0.834776	0.456313
H450	H	-0.074168	1.168109	0.789647
H451	H	-0.688791	0.494456	0.058282
H452	H	-0.355457	0.827789	0.391616
H453	H	-0.022124	1.161123	0.724949
H454	H	-0.707680	0.234407	-0.000222
H455	H	-0.374346	0.567741	0.333112
H456	H	-0.041013	0.901074	0.666445
H457	H	-0.709600	0.102973	-0.000219
H458	H	-0.376267	0.436306	0.333115
H459	H	-0.042933	0.769639	0.666448
H460	H	-0.837103	0.022336	0.430614
H461	H	-0.503770	0.355669	0.763947
H462	H	-0.170436	0.689002	1.097280
C463	C	-0.919731	0.006954	0.654777
C464	C	-0.586397	0.340288	0.988110
C465	C	-0.253064	0.673621	1.321443
H466	H	-0.947945	0.035161	0.688384
H467	H	-0.614612	0.368494	1.021718
H468	H	-0.281278	0.701827	1.355051
H469	H	-0.948562	-0.017956	0.625018
H470	H	-0.615229	0.315378	0.958352
H471	H	-0.281896	0.648711	1.291685
H472	H	-0.894829	0.035807	0.625063
H473	H	-0.561496	0.369140	0.958396
H474	H	-0.228163	0.702473	1.291729
