data_functionalizedCrystal
_audit_creation_method	'MofGen! by Chris Wilmer'
_symmetry_space_group_name_H-M	'P1'
_symmetry_Int_Tables_number	1
_symmetry_cell_setting	triclinic
loop_
_symmetry_equiv_pos_as_xyz
  x,y,z
_cell_length_a	16.109301
_cell_length_b	16.776229
_cell_length_c	16.109301
_cell_angle_alpha	90.004839
_cell_angle_beta	83.461481
_cell_angle_gamma	90.003040
loop_
_atom_site_label
_atom_site_type_symbol
_atom_site_fract_x
_atom_site_fract_y
_atom_site_fract_z
O1	O	1.103134	0.066240	0.106865
O2	O	1.353134	0.316240	0.356865
O3	O	1.603134	0.566240	0.606865
O4	O	1.853134	0.816240	0.856865
O5	O	0.861072	0.066253	0.120165
O6	O	1.111072	0.316253	0.370165
O7	O	1.361072	0.566253	0.620165
O8	O	1.611072	0.816253	0.870165
O9	O	0.988752	0.066238	-0.007516
O10	O	1.238752	0.316238	0.242484
O11	O	1.488752	0.566238	0.492484
O12	O	1.738752	0.816238	0.742484
O13	O	0.975453	0.066255	0.234546
O14	O	1.225453	0.316255	0.484546
O15	O	1.475453	0.566255	0.734546
O16	O	1.725453	0.816255	0.984546
O17	O	0.988738	-0.066338	-0.007516
O18	O	1.238738	0.183662	0.242484
O19	O	1.488738	0.433662	0.492484
O20	O	1.738738	0.683662	0.742484
O21	O	0.861057	-0.066323	0.120164
O22	O	1.111057	0.183677	0.370164
O23	O	1.361057	0.433677	0.620164
O24	O	1.611057	0.683677	0.870164
O25	O	1.103119	-0.066336	0.106865
O26	O	1.353119	0.183664	0.356865
O27	O	1.603119	0.433664	0.606865
O28	O	1.853119	0.683664	0.856865
Zn29	Zn	0.982086	-0.087379	0.113515
Zn30	Zn	1.232086	0.162621	0.363515
Zn31	Zn	1.482086	0.412621	0.613515
Zn32	Zn	1.732086	0.662621	0.863515
Zn33	Zn	0.982105	0.087296	0.113515
Zn34	Zn	1.232105	0.337296	0.363515
Zn35	Zn	1.482105	0.587296	0.613515
Zn36	Zn	1.732105	0.837296	0.863515
O37	O	0.975438	-0.066321	0.234546
O38	O	1.225438	0.183679	0.484546
O39	O	1.475438	0.433679	0.734546
O40	O	1.725438	0.683679	0.984546
C41	C	0.830090	-0.000033	0.119626
C42	C	1.080090	0.249967	0.369626
C43	C	1.330090	0.499967	0.619626
C44	C	1.580090	0.749967	0.869626
C45	C	0.737794	-0.000029	0.118011
C46	C	0.987794	0.249971	0.368011
C47	C	1.237794	0.499971	0.618011
C48	C	1.487794	0.749971	0.868011
C49	C	0.515522	-0.000033	0.190018
C50	C	0.765522	0.249967	0.440018
C51	C	1.015522	0.499967	0.690018
C52	C	1.265522	0.749967	0.940018
C53	C	0.428801	-0.000038	0.188494
C54	C	0.678801	0.249962	0.438494
C55	C	0.928801	0.499962	0.688494
C56	C	1.178801	0.749962	0.938494
C57	C	0.448676	-0.000045	0.037006
C58	C	0.698676	0.249955	0.287006
C59	C	0.948676	0.499955	0.537006
C60	C	1.198676	0.749955	0.787006
C61	C	0.535394	-0.000046	0.038530
C62	C	0.785394	0.249954	0.288530
C63	C	1.035394	0.499954	0.538530
C64	C	1.285394	0.749954	0.788530
C65	C	0.568815	-0.000036	0.115039
C66	C	0.818815	0.249964	0.365039
C67	C	1.068815	0.499964	0.615039
C68	C	1.318815	0.749964	0.865039
C69	C	0.395376	-0.000040	0.111990
C70	C	0.645376	0.249960	0.361990
C71	C	0.895376	0.499960	0.611990
C72	C	1.145376	0.749960	0.861990
C73	C	0.301350	-0.000046	0.110337
C74	C	0.551350	0.249954	0.360337
C75	C	0.801350	0.499954	0.610337
C76	C	1.051350	0.749954	0.860337
C77	C	0.662847	-0.000031	0.116693
C78	C	0.912847	0.249969	0.366693
C79	C	1.162847	0.499969	0.616693
C80	C	1.412847	0.749969	0.866693
N81	N	0.982079	-0.206590	0.113514
N82	N	1.232079	0.043410	0.363514
N83	N	1.482079	0.293410	0.613514
N84	N	1.732079	0.543410	0.863514
C85	C	1.032485	-0.248303	0.163957
C86	C	1.282485	0.001697	0.413957
C87	C	1.532485	0.251697	0.663957
C88	C	1.782485	0.501697	0.913957
C89	C	1.032494	-0.331755	0.163954
C90	C	1.282494	-0.081755	0.413954
C91	C	1.532494	0.168245	0.663954
C92	C	1.782494	0.418245	0.913954
C93	C	0.982092	-0.373493	0.113511
C94	C	1.232092	-0.123493	0.363511
C95	C	1.482092	0.126507	0.613511
C96	C	1.732092	0.376507	0.863511
C97	C	0.931684	-0.331775	0.063062
C98	C	1.181684	-0.081775	0.313062
C99	C	1.431684	0.168225	0.563062
C100	C	1.681684	0.418225	0.813062
C101	C	0.931680	-0.248324	0.063062
C102	C	1.181680	0.001676	0.313062
C103	C	1.431680	0.251676	0.563062
C104	C	1.681680	0.501676	0.813062
C105	C	0.931701	-0.668322	0.063063
C106	C	1.181701	-0.418322	0.313063
C107	C	1.431701	-0.168322	0.563063
C108	C	1.681701	0.081678	0.813063
C109	C	0.931707	-0.751778	0.063070
C110	C	1.181707	-0.501778	0.313070
C111	C	1.431707	-0.251778	0.563070
C112	C	1.681707	-0.001778	0.813070
C113	C	1.032515	-0.751753	0.163956
C114	C	1.282515	-0.501753	0.413956
C115	C	1.532515	-0.251753	0.663956
C116	C	1.782515	-0.001753	0.913956
C117	C	1.032511	-0.668302	0.163955
C118	C	1.282511	-0.418302	0.413955
C119	C	1.532511	-0.168302	0.663955
C120	C	1.782511	0.081698	0.913955
C121	C	0.982107	-0.626591	0.113503
C122	C	1.232107	-0.376591	0.363503
C123	C	1.482107	-0.126591	0.613503
C124	C	1.732107	0.123409	0.863503
C125	C	0.982098	-0.536103	0.113506
C126	C	1.232098	-0.286103	0.363506
C127	C	1.482098	-0.036103	0.613506
C128	C	1.732098	0.213897	0.863506
C129	C	0.982096	-0.463980	0.113512
C130	C	1.232096	-0.213980	0.363512
C131	C	1.482096	0.036020	0.613512
C132	C	1.732096	0.286020	0.863512
C133	C	1.134101	-0.000048	0.107404
C134	C	1.384101	0.249952	0.357404
C135	C	1.634101	0.499952	0.607404
C136	C	1.884101	0.749952	0.857404
C137	C	1.226397	-0.000047	0.109019
C138	C	1.476397	0.249953	0.359019
C139	C	1.726397	0.499953	0.609019
C140	C	1.976397	0.749953	0.859019
C141	C	0.988206	-0.000050	-0.038491
C142	C	1.238206	0.249950	0.211509
C143	C	1.488206	0.499950	0.461509
C144	C	1.738206	0.749950	0.711509
C145	C	0.986591	-0.000051	-0.130786
C146	C	1.236591	0.249949	0.119214
C147	C	1.486591	0.499949	0.369214
C148	C	1.736591	0.749949	0.619214
N149	N	0.982118	0.206507	0.113509
N150	N	1.232118	0.456507	0.363509
N151	N	1.482118	0.706507	0.613509
N152	N	1.732118	0.956507	0.863509
C153	C	1.058599	-0.000043	-0.353059
C154	C	1.308599	0.249957	-0.103059
C155	C	1.558599	0.499957	0.146941
C156	C	1.808599	0.749957	0.396941
C157	C	1.057075	-0.000036	-0.439779
C158	C	1.307075	0.249964	-0.189779
C159	C	1.557075	0.499964	0.060221
C160	C	1.807075	0.749964	0.310221
C161	C	0.905586	-0.000031	-0.419905
C162	C	1.155586	0.249969	-0.169905
C163	C	1.405586	0.499969	0.080095
C164	C	1.655586	0.749969	0.330095
C165	C	0.907111	-0.000032	-0.333186
C166	C	1.157111	0.249968	-0.083186
C167	C	1.407111	0.499968	0.166814
C168	C	1.657111	0.749968	0.416814
C169	C	0.983620	-0.000042	-0.299766
C170	C	1.233620	0.249958	-0.049766
C171	C	1.483620	0.499958	0.200234
C172	C	1.733620	0.749958	0.450234
C173	C	0.980571	-0.000034	-0.473205
C174	C	1.230571	0.249966	-0.223205
C175	C	1.480571	0.499966	0.026795
C176	C	1.730571	0.749966	0.276795
C177	C	0.978918	-0.000027	-0.567231
C178	C	1.228918	0.249973	-0.317231
C179	C	1.478918	0.499973	-0.067231
C180	C	1.728918	0.749973	0.182769
C181	C	0.985273	-0.000047	-0.205734
C182	C	1.235273	0.249953	0.044266
C183	C	1.485273	0.499953	0.294266
C184	C	1.735273	0.749953	0.544266
C185	C	0.975984	-0.000031	0.265521
C186	C	1.225984	0.249969	0.515521
C187	C	1.475984	0.499969	0.765521
C188	C	1.725984	0.749969	1.015521
C189	C	0.977600	-0.000025	0.357816
C190	C	1.227600	0.249975	0.607816
C191	C	1.477600	0.499975	0.857816
C192	C	1.727600	0.749975	1.107816
H193	H	1.073523	-0.214326	0.205038
H194	H	1.323523	0.035674	0.455038
H195	H	1.573523	0.285674	0.705038
H196	H	1.823523	0.535674	0.955038
H197	H	0.890634	-0.214362	0.021986
H198	H	1.140634	0.035638	0.271986
H199	H	1.390634	0.285638	0.521986
H200	H	1.640634	0.535638	0.771986
H201	H	0.890650	-0.365764	0.021987
H202	H	1.140650	-0.115764	0.271987
H203	H	1.390650	0.134236	0.521987
H204	H	1.640650	0.384236	0.771987
F205	F	1.136878	-0.000035	-0.496495
F206	F	1.386878	0.249965	-0.246495
F207	F	1.636878	0.499965	0.003505
F208	F	1.886878	0.749965	0.253505
F209	F	1.140026	-0.000052	-0.317493
F210	F	1.390026	0.249948	-0.067493
F211	F	1.640026	0.499948	0.182507
F212	F	1.890026	0.749948	0.432507
H213	H	1.073542	-0.365714	0.205028
H214	H	1.323542	-0.115714	0.455028
H215	H	1.573542	0.134286	0.705028
H216	H	1.823542	0.384286	0.955028
H217	H	0.843295	-0.000024	-0.447127
H218	H	1.093295	0.249976	-0.197127
H219	H	1.343295	0.499976	0.052873
H220	H	1.593295	0.749976	0.302873
F221	F	0.372086	-0.000036	0.268298
F222	F	0.622086	0.249964	0.518298
F223	F	0.872086	0.499964	0.768298
F224	F	1.122086	0.749964	1.018298
F225	F	0.413100	-0.000053	-0.044416
F226	F	0.663100	0.249947	0.205584
F227	F	0.913100	0.499947	0.455584
F228	F	1.163100	0.749947	0.705584
F229	F	0.827304	-0.000025	-0.276464
F230	F	1.077304	0.249975	-0.026464
F231	F	1.327304	0.499975	0.223536
F232	F	1.577304	0.749975	0.473536
H233	H	0.578788	-0.000050	-0.022530
H234	H	0.828788	0.249950	0.227470
H235	H	1.078788	0.499950	0.477470
H236	H	1.328788	0.749950	0.727470
F237	F	1.086146	-0.623886	0.217652
F238	F	1.336146	-0.373886	0.467652
F239	F	1.586146	-0.123886	0.717652
F240	F	1.836146	0.126114	0.967652
F241	F	0.551087	-0.000025	0.271446
F242	F	0.801087	0.249975	0.521446
F243	F	1.051087	0.499975	0.771446
F244	F	1.301087	0.749975	1.021446
F245	F	0.878060	-0.796197	0.009379
F246	F	1.128060	-0.546197	0.259379
F247	F	1.378060	-0.296197	0.509379
F248	F	1.628060	-0.046197	0.759379
F249	F	1.086163	-0.796152	0.217649
F250	F	1.336163	-0.546152	0.467649
F251	F	1.586163	-0.296152	0.717649
F252	F	1.836163	-0.046152	0.967649
H253	H	0.890659	-0.634370	0.021982
H254	H	1.140659	-0.384370	0.271982
H255	H	1.390659	-0.134370	0.521982
H256	H	1.640659	0.115630	0.771982
