data_functionalizedCrystal
_audit_creation_method	'MofGen! by Chris Wilmer'
_symmetry_space_group_name_H-M	'P1'
_symmetry_Int_Tables_number	1
_symmetry_cell_setting	triclinic
loop_
_symmetry_equiv_pos_as_xyz
  x,y,z
_cell_length_a	16.120297
_cell_length_b	16.120490
_cell_length_c	12.827892
_cell_angle_alpha	87.107930
_cell_angle_beta	92.875882
_cell_angle_gamma	90.129683
loop_
_atom_site_label
_atom_site_type_symbol
_atom_site_fract_x
_atom_site_fract_y
_atom_site_fract_z
Zn1	Zn	-0.534559	1.247506	-0.529523
Zn2	Zn	-0.034559	1.747506	-0.029523
Zn3	Zn	-0.395508	1.254475	-0.695884
Zn4	Zn	0.104492	1.754475	-0.195884
Zn5	Zn	-0.388479	1.115493	-0.511855
Zn6	Zn	0.111521	1.615493	-0.011855
Zn7	Zn	-0.527481	1.108430	-0.694911
Zn8	Zn	-0.027481	1.608430	-0.194911
O9	O	-0.461507	1.181476	-0.608043
O10	O	0.038493	1.681476	-0.108043
O11	O	-0.522017	1.364798	-0.559392
O12	O	-0.022017	1.864798	-0.059392
O13	O	-0.278210	1.241911	-0.664485
O14	O	0.221790	1.741911	-0.164485
O15	O	-0.407877	1.133044	-0.367966
O16	O	0.092123	1.633044	0.132034
O17	O	-0.419857	1.369918	-0.681616
O18	O	0.080143	1.869918	-0.181616
O19	O	-0.515201	1.230033	-0.380947
O20	O	-0.015201	1.730033	0.119053
O21	O	-0.273046	1.139802	-0.529280
O22	O	0.226954	1.639802	-0.029280
O23	O	-0.401014	0.998189	-0.528337
O24	O	0.098986	1.498189	-0.028337
O25	O	-0.644786	1.121006	-0.679959
O26	O	-0.144786	1.621006	-0.179959
O27	O	-0.503139	0.992999	-0.662827
O28	O	-0.003139	1.492999	-0.162827
O29	O	-0.649986	1.223184	-0.558449
O30	O	-0.149986	1.723184	-0.058449
O31	O	-0.412995	1.235062	-0.841987
O32	O	0.087005	1.735062	-0.341987
O33	O	-0.509955	1.127764	-0.841273
O34	O	-0.009955	1.627764	-0.341273
C35	C	-0.450546	0.965421	-0.593560
C36	C	0.049454	1.465421	-0.093560
C37	C	-0.445877	0.872991	-0.587391
C38	C	0.054123	1.372991	-0.087391
C39	C	-0.485729	0.660035	-0.640038
C40	C	0.014271	1.160035	-0.140038
C41	C	-0.437351	0.703765	-0.576136
C42	C	0.062649	1.203765	-0.076136
C43	C	-0.442096	0.797931	-0.582400
C44	C	0.057904	1.297931	-0.082400
C45	C	-0.480984	0.565860	-0.633775
C46	C	0.019016	1.065860	-0.133775
C47	C	-0.678402	1.170530	-0.621067
C48	C	-0.178402	1.670530	-0.121067
C49	C	-0.770830	1.165866	-0.626616
C50	C	-0.270830	1.665866	-0.126616
C51	C	-0.940055	1.157319	-0.636724
C52	C	-0.440055	1.657319	-0.136724
C53	C	-0.983819	1.205797	-0.579060
C54	C	-0.483819	1.705797	-0.079060
C55	C	-1.077982	1.201041	-0.584684
C56	C	-0.577982	1.701041	-0.084684
C57	C	-0.845884	1.162073	-0.631101
C58	C	-0.345884	1.662073	-0.131101
C59	C	-0.245458	1.192427	-0.594998
C60	C	0.254542	1.692427	-0.094998
C61	C	-0.153039	1.197252	-0.589165
C62	C	0.346961	1.697252	-0.089165
C63	C	-0.461489	1.181425	-0.879549
C64	C	0.038511	1.681425	-0.379549
C65	C	-0.461513	1.181477	-0.995707
C66	C	0.038487	1.681477	-0.495707
C67	C	-0.472511	1.398374	-0.622584
C68	C	0.027489	1.898374	-0.122584
C69	C	-0.477200	1.490804	-0.628780
C70	C	0.022800	1.990804	-0.128780
C71	C	-0.514664	1.229446	-1.053832
C72	C	-0.014664	1.729446	-0.553832
C73	C	-0.514690	1.229501	-1.173888
C74	C	-0.014690	1.729501	-0.673888
C75	C	-0.461544	1.181549	-0.335480
C76	C	0.038456	1.681549	0.164520
C77	C	-0.461560	1.181580	-0.219330
C78	C	0.038440	1.681580	0.280670
H79	H	-0.392369	0.670482	-0.516724
H80	H	0.107631	1.170482	-0.016724
H81	H	-0.530706	0.693315	-0.699446
H82	H	-0.030706	1.193315	-0.199446
H83	H	-0.950568	1.250870	-0.525469
H84	H	-0.450568	1.750870	-0.025469
H85	H	-0.973304	1.112249	-0.690311
H86	H	-0.473304	1.612249	-0.190311
Cl87	Cl	-0.584903	1.292781	-0.993448
Cl88	Cl	-0.084903	1.792781	-0.493448
H89	H	-0.560193	1.270572	-1.223850
H90	H	-0.060193	1.770572	-0.723850
H91	H	-0.416031	1.140447	-1.034824
H92	H	0.083969	1.640447	-0.534824
H93	H	-0.416049	1.140514	-1.169375
H94	H	0.083951	1.640514	-0.669375
