data_functionalizedCrystal
_audit_creation_method	'MofGen! by Chris Wilmer'
_symmetry_space_group_name_H-M	'P1'
_symmetry_Int_Tables_number	1
_symmetry_cell_setting	triclinic
loop_
_symmetry_equiv_pos_as_xyz
  x,y,z
_cell_length_a	12.594517
_cell_length_b	12.594516
_cell_length_c	16.625539
_cell_angle_alpha	90.023327
_cell_angle_beta	90.011051
_cell_angle_gamma	90.011939
loop_
_atom_site_label
_atom_site_type_symbol
_atom_site_fract_x
_atom_site_fract_y
_atom_site_fract_z
Zn1	Zn	1.627262	-0.423857	0.455732
Zn2	Zn	1.627155	-0.601858	0.320911
Zn3	Zn	1.449268	-0.423882	0.320935
Zn4	Zn	1.449248	-0.601781	0.455724
O5	O	1.538233	-0.512845	0.388326
O6	O	1.776194	-0.447491	0.437842
O7	O	1.603520	-0.578292	0.208082
O8	O	1.472932	-0.274933	0.338830
O9	O	1.776115	-0.578268	0.338789
O10	O	1.603704	-0.274915	0.437865
O11	O	1.472828	-0.447533	0.208100
O12	O	1.300319	-0.447458	0.338822
O13	O	1.472900	-0.578137	0.568557
O14	O	1.300305	-0.578160	0.437850
O15	O	1.603686	-0.447417	0.568564
O16	O	1.603502	-0.750794	0.338781
O17	O	1.472795	-0.750737	0.437827
C18	C	1.261692	-0.512804	0.388338
C19	C	1.143387	-0.512813	0.388362
C20	C	1.074157	-0.584041	0.442120
C21	C	1.003348	-0.486996	0.461948
C22	C	1.003397	-0.609938	0.368516
C23	C	1.074136	-0.415716	0.408229
C24	C	1.074191	-0.538723	0.314763
C25	C	1.003414	-0.441612	0.334563
C26	C	1.538164	-0.789386	0.388318
C27	C	1.538231	-0.907691	0.388341
C28	C	1.467133	-0.976952	0.442175
C29	C	1.441200	-1.047811	0.368603
C30	C	1.564261	-1.047631	0.461925
C31	C	1.512247	-0.976991	0.314731
C32	C	1.635353	-0.976806	0.408103
C33	C	1.609457	-1.047633	0.334481
C34	C	1.815854	-0.512886	0.388314
C35	C	1.934160	-0.512903	0.388309
C36	C	1.538302	-0.512765	0.598635
C37	C	1.538332	-0.512732	0.688256
C38	C	1.538332	-0.235224	0.388351
C39	C	1.538374	-0.116918	0.388362
C40	C	1.538226	-0.512847	0.178835
C41	C	1.538402	-0.512581	0.089214
C42	C	1.538381	-0.512612	1.016432
C43	C	1.538364	-0.512649	0.925123
C44	C	1.538357	-0.512673	0.852347
C45	C	1.538339	-0.512708	0.761032
H46	H	1.105222	-0.644160	0.487639
H47	H	1.105080	-0.333593	0.425063
O48	O	0.966260	-0.461067	0.536220
C49	C	1.002315	-0.536298	0.592747
H50	H	1.022210	-0.613736	0.560587
H51	H	0.937533	-0.551332	0.639251
H52	H	1.076355	-0.504663	0.624112
H53	H	0.972318	-0.692036	0.351755
O54	O	1.395137	-0.939967	0.496316
C55	C	1.292923	-0.976175	0.475196
H56	H	1.290979	-0.996079	0.408315
H57	H	1.232149	-0.911481	0.488603
H58	H	1.272989	-1.050240	0.511589
H59	H	0.972548	-0.381346	0.289080
O60	O	1.111300	-0.565044	0.240582
C61	C	1.073670	-0.666677	0.219272
H62	H	1.052646	-0.712844	0.276044
H63	H	1.137934	-0.711060	0.184616
H64	H	1.000004	-0.658314	0.179924
O65	O	1.343302	-1.085151	0.348778
C66	C	1.303865	-1.148261	0.412112
H67	H	1.372961	-1.179210	0.449684
H68	H	1.257554	-1.218139	0.386206
H69	H	1.249192	-1.098470	0.451658
H70	H	1.490194	-0.946090	0.252493
O71	O	1.681140	-1.084384	0.280012
C72	C	1.653393	-1.048175	0.202576
H73	H	1.565073	-1.028492	0.200990
H74	H	1.671335	-1.112781	0.156499
H75	H	1.701331	-0.973974	0.187621
H76	H	1.717402	-0.945597	0.424835
H77	H	1.586219	-1.078661	0.524146
