data_functionalizedCrystal
_audit_creation_method	'MofGen! by Chris Wilmer'
_symmetry_space_group_name_H-M	'P1'
_symmetry_Int_Tables_number	1
_symmetry_cell_setting	triclinic
loop_
_symmetry_equiv_pos_as_xyz
  x,y,z
_cell_length_a	12.376457
_cell_length_b	10.654550
_cell_length_c	10.654550
_cell_angle_alpha	84.484931
_cell_angle_beta	101.387222
_cell_angle_gamma	78.599412
loop_
_atom_site_label
_atom_site_type_symbol
_atom_site_fract_x
_atom_site_fract_y
_atom_site_fract_z
O1	O	0.093919	-1.691695	-0.152558
O2	O	0.093940	-1.326222	-0.169359
O3	O	0.093922	-1.517360	0.021779
O4	O	0.093937	-1.500558	-0.343696
O5	O	-0.094086	-1.469592	-0.025940
O6	O	-0.094068	-1.278454	-0.217078
O7	O	-0.094089	-1.643927	-0.200277
Zn8	Zn	-0.123928	-1.453607	-0.216254
Zn9	Zn	0.123780	-1.516543	-0.153382
O10	O	-0.094071	-1.452790	-0.391415
C11	C	-0.000061	-1.255541	-0.191984
C12	C	-0.000054	-1.116100	-0.188290
C13	C	-0.000081	-1.492242	0.044718
C14	C	-0.000079	-1.488551	0.184161
N15	N	-0.292983	-1.410663	-0.259161
C16	C	-0.647991	-1.659180	-0.010838
C17	C	-0.529654	-1.689229	0.019194
C18	C	-0.470480	-1.619590	-0.050392
C19	C	-0.529655	-1.519897	-0.150015
C20	C	-0.648004	-1.489852	-0.180056
C21	C	-0.470493	-1.450262	-0.219611
C22	C	-0.529668	-1.350569	-0.319234
C23	C	-0.648005	-1.320528	-0.349269
C24	C	-0.707179	-1.390168	-0.279683
C25	C	-0.352145	-1.480307	-0.189570
C26	C	-0.352158	-1.310979	-0.358788
C27	C	-0.470495	-1.280930	-0.388820
N28	N	0.292834	-1.559496	-0.110465
C29	C	-0.000085	-1.714609	-0.177652
C30	C	-0.000085	-1.854052	-0.181344
C31	C	-0.000052	-1.036614	-0.300831
C32	C	-0.000072	-0.905588	-0.297359
C33	C	-0.000090	-0.933547	-0.068795
C34	C	-0.000078	-1.064568	-0.072269
C35	C	-0.000065	-1.477908	-0.414353
C36	C	-0.000060	-1.481601	-0.553795
C37	C	-0.000085	-1.601091	0.263645
C38	C	-0.000071	-1.597618	0.394670
C39	C	-0.000050	-1.369054	0.366712
C40	C	-0.000056	-1.372530	0.235692
H41	H	-0.303975	-1.561477	-0.108457
Cl42	Cl	-0.000072	-0.805668	-0.438847
Cl43	Cl	-0.277775	-1.223432	-0.446278
H44	H	-0.518690	-1.199758	-0.469935
Cl45	Cl	-0.000028	-1.101390	-0.446686
Cl46	Cl	-0.455265	-1.814550	0.144426
Cl47	Cl	-0.000021	-1.223207	0.431503
Cl48	Cl	-0.000112	-1.746945	0.198869
H49	H	-0.000074	-1.689260	0.459382
Cl50	Cl	-0.000114	-0.868757	0.077053
Cl51	Cl	-0.000089	-1.164498	0.069221
H52	H	-0.000048	-1.280881	0.170973
H53	H	-0.696178	-1.715878	0.045804
Cl54	Cl	-0.855952	-1.352385	-0.317434
Cl55	Cl	-0.722398	-1.195216	-0.474523
Cl56	Cl	-0.321712	-1.657364	-0.012634
