data_functionalizedCrystal
_audit_creation_method	'MofGen! by Chris Wilmer'
_symmetry_space_group_name_H-M	'P1'
_symmetry_Int_Tables_number	1
_symmetry_cell_setting	triclinic
loop_
_symmetry_equiv_pos_as_xyz
  x,y,z
_cell_length_a	18.050590
_cell_length_b	18.050583
_cell_length_c	16.625546
_cell_angle_alpha	90.037482
_cell_angle_beta	89.988365
_cell_angle_gamma	89.999666
loop_
_atom_site_label
_atom_site_type_symbol
_atom_site_fract_x
_atom_site_fract_y
_atom_site_fract_z
Zn1	Zn	1.135330	-0.419595	0.321177
Zn2	Zn	1.635330	0.080405	0.821177
Zn3	Zn	1.135251	-0.295403	0.456037
Zn4	Zn	1.635251	0.204597	0.956037
Zn5	Zn	1.011147	-0.295453	0.321196
Zn6	Zn	1.511147	0.204547	0.821196
Zn7	Zn	1.011110	-0.419585	0.455946
Zn8	Zn	1.511110	0.080415	0.955946
O9	O	1.073210	-0.357509	0.388589
O10	O	1.573210	0.142491	0.888589
O11	O	1.239244	-0.403104	0.339097
O12	O	1.739244	0.096896	0.839097
O13	O	1.118771	-0.191485	0.438196
O14	O	1.618771	0.308515	0.938196
O15	O	1.027669	-0.311947	0.208361
O16	O	1.527669	0.188053	0.708361
O17	O	1.239186	-0.311860	0.438177
O18	O	1.739186	0.188140	0.938177
O19	O	1.118906	-0.403153	0.208347
O20	O	1.618906	0.096847	0.708347
O21	O	1.027592	-0.191522	0.339129
O22	O	1.527592	0.308478	0.839129
O23	O	0.907218	-0.311937	0.339041
O24	O	1.407218	0.188063	0.839041
O25	O	1.027606	-0.523511	0.438022
O26	O	1.527606	-0.023511	0.938022
O27	O	0.907190	-0.403136	0.438041
O28	O	1.407190	0.096864	0.938041
O29	O	1.118870	-0.523519	0.339008
O30	O	1.618870	-0.023519	0.839008
O31	O	1.118735	-0.311850	0.568857
O32	O	1.618735	0.188150	1.068857
O33	O	1.027529	-0.403087	0.568790
O34	O	1.527529	0.096913	1.068790
C35	C	0.880257	-0.357541	0.388534
C36	C	1.380257	0.142459	0.888534
C37	C	0.797712	-0.357573	0.388530
C38	C	1.297712	0.142427	0.888530
C39	C	0.598268	-0.407049	0.442520
C40	C	1.098268	0.092951	0.942520
C41	C	0.548868	-0.425325	0.368996
C42	C	1.048868	0.074675	0.868996
C43	C	0.646581	-0.357536	0.388575
C44	C	1.146581	0.142464	0.888575
C45	C	0.548899	-0.339259	0.462141
C46	C	1.048899	0.160741	0.962141
C47	C	0.500596	-0.357503	0.388625
C48	C	1.000596	0.142497	0.888625
C49	C	0.598269	-0.375848	0.315012
C50	C	1.098269	0.124152	0.815012
C51	C	0.598304	-0.289750	0.408206
C52	C	1.098304	0.210250	0.908206
C53	C	0.548927	-0.308001	0.334631
C54	C	1.048927	0.191999	0.834631
C55	C	0.730680	-0.357558	0.388547
C56	C	1.230680	0.142442	0.888547
C57	C	0.416500	-0.357481	0.388644
C58	C	0.916500	0.142519	0.888644
C59	C	1.073242	-0.551215	0.388503
C60	C	1.573242	-0.051215	0.888503
C61	C	1.073256	-0.633761	0.388466
C62	C	1.573256	-0.133761	0.888466
C63	C	1.122935	-0.833216	0.334597
C64	C	1.622935	-0.333216	0.834597
C65	C	1.055200	-0.882629	0.314848
C66	C	1.555200	-0.382629	0.814848
C67	C	1.073286	-0.784891	0.388452
C68	C	1.573286	-0.284891	0.888452
C69	C	1.141049	-0.882559	0.408150
C70	C	1.641049	-0.382559	0.908150
C71	C	1.073321	-0.930876	0.388438
C72	C	1.573321	-0.430876	0.888438
C73	C	1.005515	-0.833218	0.368666
C74	C	1.505515	-0.333218	0.868666
C75	C	1.091409	-0.833143	0.462002
C76	C	1.591409	-0.333143	0.962002
C77	C	1.023627	-0.882535	0.442282
C78	C	1.523627	-0.382535	0.942282
C79	C	1.073267	-0.700793	0.388459
C80	C	1.573267	-0.200793	0.888459
C81	C	1.073332	-1.014973	0.388431
C82	C	1.573332	-0.514973	0.888431
C83	C	1.266915	-0.357478	0.388645
C84	C	1.766915	0.142522	0.888645
C85	C	1.349461	-0.357464	0.388669
C86	C	1.849461	0.142536	0.888669
C87	C	1.073139	-0.357478	0.598080
C88	C	1.573139	0.142522	1.098080
C89	C	1.073177	-0.357490	0.687701
C90	C	1.573177	0.142510	1.187701
C91	C	1.073220	-0.164557	0.388617
C92	C	1.573220	0.335443	0.888617
C93	C	1.073349	-0.082012	0.388426
C94	C	1.573349	0.417988	0.888426
C95	C	1.073300	-0.357557	0.178280
C96	C	1.573300	0.142443	0.678280
C97	C	1.073339	-0.357577	0.088659
C98	C	1.573339	0.142423	0.588659
C99	C	1.073307	-0.357567	1.015877
C100	C	1.573307	0.142433	1.515877
C101	C	1.073268	-0.357548	0.924568
C102	C	1.573268	0.142452	1.424568
C103	C	1.073241	-0.357528	0.851792
C104	C	1.573241	0.142472	1.351792
C105	C	1.073204	-0.357509	0.760477
C106	C	1.573204	0.142491	1.260477
H107	H	0.527399	-0.266116	0.288980
H108	H	1.027399	0.233884	0.788980
Br109	Br	0.512676	-0.520846	0.341345
Br110	Br	1.012676	-0.020846	0.841345
H111	H	1.198340	-0.904236	0.424814
H112	H	1.698340	-0.404236	0.924814
Br113	Br	0.634496	-0.194238	0.435873
Br114	Br	1.134496	0.305762	0.935873
Br115	Br	0.512750	-0.313516	0.565798
Br116	Br	1.012750	0.186484	1.065798
H117	H	1.164854	-0.811558	0.289024
H118	H	1.664854	-0.311558	0.789024
H119	H	1.039882	-0.904366	0.252643
H120	H	1.539882	-0.404366	0.752643
Br121	Br	0.634380	-0.476909	0.518428
Br122	Br	1.134380	0.023091	1.018428
Br123	Br	0.634257	-0.401699	0.211321
Br124	Br	1.134257	0.098301	0.711321
Br125	Br	0.909993	-0.797250	0.340782
Br126	Br	1.409993	-0.297250	0.840782
H127	H	0.981607	-0.904053	0.487820
H128	H	1.481607	-0.404053	0.987820
Br129	Br	1.116974	-0.796885	0.565654
Br130	Br	1.616974	-0.296885	1.065654
