data_functionalizedCrystal
_audit_creation_method	'MofGen! by Chris Wilmer'
_symmetry_space_group_name_H-M	'P1'
_symmetry_Int_Tables_number	1
_symmetry_cell_setting	triclinic
loop_
_symmetry_equiv_pos_as_xyz
  x,y,z
_cell_length_a	19.288864
_cell_length_b	17.000371
_cell_length_c	18.366186
_cell_angle_alpha	89.992984
_cell_angle_beta	89.977106
_cell_angle_gamma	79.367747
loop_
_atom_site_label
_atom_site_type_symbol
_atom_site_fract_x
_atom_site_fract_y
_atom_site_fract_z
O1	O	0.915558	0.099313	-0.060782
O2	O	0.712516	0.112710	-0.060732
O3	O	0.826644	-0.009900	-0.060755
O4	O	0.801430	0.221923	-0.060759
O5	O	0.826627	-0.009906	0.060344
O6	O	0.712498	0.112704	0.060367
O7	O	0.915541	0.099307	0.060317
Zn8	Zn	0.814017	0.106005	0.079569
Zn9	Zn	0.814040	0.106013	-0.079984
O10	O	0.801412	0.221917	0.060340
C11	C	0.686656	0.112276	-0.000176
C12	C	0.609628	0.110982	-0.000157
C13	C	0.560734	0.182924	-0.000170
C14	C	0.488358	0.181709	-0.000178
C15	C	0.464879	0.108547	-0.000188
C16	C	0.513783	0.036595	-0.000171
C17	C	0.586157	0.037813	-0.000155
C18	C	0.359979	0.051036	-0.042638
C19	C	0.287605	0.049821	-0.042657
C20	C	0.241653	0.104788	-0.000232
C21	C	0.268080	0.160983	0.042205
C22	C	0.340455	0.162201	0.042220
C23	C	0.386402	0.107218	-0.000204
C24	C	0.114279	0.175417	-0.000252
C25	C	0.041903	0.174198	-0.000255
C26	C	0.067330	0.029082	-0.000256
C27	C	0.139705	0.030303	-0.000245
C28	C	0.163175	0.103473	-0.000247
C29	C	0.827990	-0.039561	-0.000206
C30	C	0.832017	-0.127934	-0.000208
C31	C	0.770043	-0.159738	-0.000196
C32	C	0.773831	-0.242774	-0.000194
C33	C	0.839594	-0.294006	-0.000211
C34	C	0.901573	-0.262198	-0.000221
C35	C	0.897784	-0.179162	-0.000216
C36	C	0.854229	-0.545204	-0.000219
C37	C	0.858013	-0.628245	-0.000226
C38	C	0.730272	-0.608815	-0.000198
C39	C	0.726489	-0.525780	-0.000198
C40	C	0.788467	-0.493978	-0.000204
C41	C	0.843468	-0.378883	-0.000212
C42	C	0.784593	-0.409103	-0.000198
C43	C	0.941401	0.099741	-0.000240
C44	C	1.018429	0.101035	-0.000264
C45	C	0.800067	0.251579	-0.000210
C46	C	0.796039	0.339952	-0.000214
N47	N	0.814006	0.105999	0.188461
N48	N	0.814057	0.106012	-0.188875
C49	C	0.864556	0.051734	0.226551
C50	C	0.864560	0.051730	0.302779
C51	C	0.814021	0.106006	0.340913
C52	C	0.763462	0.160275	0.302814
C53	C	0.763454	0.160272	0.226588
C54	C	0.800490	0.178544	0.461674
C55	C	0.800503	0.178548	0.537899
C56	C	0.814040	0.106016	0.576021
C57	C	0.827580	0.033476	0.537909
C58	C	0.827572	0.033472	0.461682
C59	C	0.814023	0.106015	0.423568
C60	C	0.864598	0.051742	0.696766
C61	C	0.864598	0.051737	0.772995
C62	C	0.763502	0.160289	0.773029
C63	C	0.763499	0.160287	0.696801
C64	C	0.814051	0.106014	0.658674
H65	H	0.002092	0.232784	-0.000262
H66	H	0.716492	-0.118030	-0.000186
H67	H	0.361969	0.207955	0.076775
H68	H	0.955118	-0.303917	-0.000229
H69	H	0.048214	-0.030487	-0.000309
H70	H	0.230666	0.205742	0.076752
H71	H	0.266093	0.004066	-0.077214
H72	H	0.625968	-0.020773	-0.000145
C73	C	0.662102	-0.643799	-0.000182
H74	H	0.673774	-0.700589	-0.000181
H75	H	0.635241	-0.626194	-0.042403
H76	H	0.635237	-0.626205	0.042062
H77	H	0.179516	-0.028280	-0.000239
H78	H	0.904696	-0.519322	-0.000226
H79	H	0.948249	-0.153270	-0.000225
C80	C	0.842476	-0.046316	0.579829
H81	H	0.850545	-0.089515	0.546214
H82	H	0.803058	-0.050623	0.609587
H83	H	0.883032	-0.048039	0.609542
H84	H	0.723366	-0.268664	-0.000190
H85	H	0.731049	-0.367387	-0.000180
C86	C	0.707855	0.219973	0.184683
H87	H	0.715089	0.212196	0.133825
H88	H	0.712154	0.273083	0.197168
H89	H	0.662018	0.211460	0.197196
C90	C	0.654150	-0.469430	-0.000171
H91	H	0.617782	-0.500264	-0.000157
H92	H	0.650019	-0.436625	-0.042397
H93	H	0.650015	-0.436645	0.042068
C94	C	0.140101	0.255898	-0.000246
H95	H	0.100612	0.298571	-0.000244
H96	H	0.167827	0.259392	-0.042472
H97	H	0.167783	0.259385	0.041993
C98	C	0.434566	0.260848	-0.000203
H99	H	0.458910	0.304598	-0.000208
H100	H	0.405773	0.263396	0.042017
H101	H	0.405835	0.263377	-0.042448
C102	C	0.915804	-0.435237	-0.000238
H103	H	0.952176	-0.404407	-0.000243
H104	H	0.919938	-0.468027	-0.042469
H105	H	0.919931	-0.468037	0.041996
C106	C	0.930354	-0.684602	-0.000237
H107	H	0.923731	-0.738609	-0.000246
H108	H	0.955967	-0.674995	0.041990
H109	H	0.955986	-0.674980	-0.042475
C110	C	0.920153	-0.007972	0.184615
H111	H	0.950256	-0.040296	0.218222
H112	H	0.947317	0.020577	0.154857
H113	H	0.897181	-0.041045	0.154901
C114	C	0.410524	-0.009432	-0.089306
H115	H	0.457413	-0.000665	-0.083214
H116	H	0.397466	-0.002634	-0.139094
H117	H	0.407882	-0.062306	-0.074386
C118	C	0.487959	-0.043880	-0.000186
H119	H	0.437852	-0.034303	-0.000205
H120	H	0.505017	-0.073497	0.042046
H121	H	0.505069	-0.073487	-0.042419
C122	C	0.920168	-0.007962	0.344687
H123	H	0.950275	-0.040282	0.311062
H124	H	0.897210	-0.041029	0.374443
H125	H	0.947336	0.020604	0.374401
H126	H	0.838595	-0.025592	0.430654
C127	C	0.920191	-0.007963	0.654820
H128	H	0.912952	-0.000187	0.603966
H129	H	0.915892	-0.061072	0.667323
H130	H	0.966029	0.000549	0.667287
C131	C	0.920207	-0.007956	0.814895
H132	H	0.950314	-0.040271	0.781268
H133	H	0.897251	-0.041028	0.844648
H134	H	0.947373	0.020610	0.844611
C135	C	0.707909	0.219991	0.814968
H136	H	0.715155	0.212224	0.865822
H137	H	0.662074	0.211481	0.802500
H138	H	0.712209	0.273104	0.802465
H139	H	0.722339	0.204478	0.665786
H140	H	0.789482	0.237614	0.568924
H141	H	0.789454	0.237612	0.430641
C142	C	0.707856	0.219963	0.344755
H143	H	0.677741	0.252274	0.311150
H144	H	0.730807	0.253040	0.374481
H145	H	0.680698	0.191388	0.374503
C146	C	0.586548	0.263407	-0.000158
H147	H	0.547058	0.306079	-0.000159
H148	H	0.614280	0.266906	-0.042379
H149	H	0.614225	0.266893	0.042087
