data_functionalizedCrystal
_audit_creation_method	'MofGen! by Chris Wilmer'
_symmetry_space_group_name_H-M	'P1'
_symmetry_Int_Tables_number	1
_symmetry_cell_setting	triclinic
loop_
_symmetry_equiv_pos_as_xyz
  x,y,z
_cell_length_a	17.699097
_cell_length_b	10.723024
_cell_length_c	16.776229
_cell_angle_alpha	89.994545
_cell_angle_beta	89.989262
_cell_angle_gamma	83.878150
loop_
_atom_site_label
_atom_site_type_symbol
_atom_site_fract_x
_atom_site_fract_y
_atom_site_fract_z
O1	O	1.005068	0.157876	-0.066352
O2	O	0.784820	0.178388	-0.066339
O3	O	0.900025	-0.013531	-0.066343
O4	O	0.889864	0.349795	-0.066349
O5	O	0.900009	-0.013542	0.066233
O6	O	0.784805	0.178377	0.066237
O7	O	1.005052	0.157864	0.066224
Zn8	Zn	0.894926	0.168119	0.087280
Zn9	Zn	0.894947	0.168134	-0.087395
O10	O	0.889848	0.349783	0.066228
C11	C	0.756611	0.177645	-0.000049
C12	C	0.672580	0.175431	-0.000044
C13	C	0.899277	-0.060024	-0.000056
C14	C	0.897065	-0.198540	-0.000059
C15	C	0.156784	0.161870	-0.072344
C16	C	0.235741	0.163941	-0.072340
C17	C	0.275205	0.164973	-0.000069
C18	C	0.235709	0.163920	0.072202
C19	C	0.156754	0.161840	0.072198
C20	C	0.554126	0.172307	0.072223
C21	C	0.633087	0.174391	0.072222
C22	C	0.633113	0.174409	-0.072314
C23	C	0.554158	0.172329	-0.072319
C24	C	0.514670	0.171270	-0.000048
C25	C	0.429055	0.169021	-0.000053
C26	C	0.360817	0.167230	-0.000063
C27	C	0.828346	-0.389124	-0.000059
C28	C	0.830631	-0.245960	-0.000056
C29	C	1.033262	0.158608	-0.000068
C30	C	1.117293	0.160821	-0.000078
C31	C	0.890595	0.396276	-0.000061
C32	C	0.892808	0.534793	-0.000064
N33	N	0.894918	0.168107	0.206491
N34	N	0.894961	0.168136	-0.206606
C35	C	0.945946	0.083160	0.248207
C36	C	0.945950	0.083159	0.331659
C37	C	0.894929	0.168112	0.373394
C38	C	0.843896	0.253063	0.331673
C39	C	0.843888	0.253057	0.248222
C40	C	0.843923	0.253088	0.668220
C41	C	0.843936	0.253089	0.751677
C42	C	0.945985	0.083190	0.751657
C43	C	0.945978	0.083184	0.668206
C44	C	0.894942	0.168130	0.626492
C45	C	0.894937	0.168128	0.536004
C46	C	0.894937	0.168120	0.463881
H47	H	0.124658	0.161039	-0.131195
H48	H	0.771466	-0.429976	-0.000061
H49	H	0.267892	0.164788	-0.131186
H50	H	0.775446	-0.180586	-0.000046
C51	C	1.002119	-0.010265	0.797540
H52	H	1.032508	-0.060850	0.760731
H53	H	0.974632	-0.062157	0.830106
H54	H	1.033860	0.034568	0.830081
C55	C	0.969653	-0.410040	-0.000067
H56	H	1.009799	-0.476338	-0.000076
H57	H	0.973281	-0.359886	0.046165
H58	H	0.973291	-0.359877	-0.046306
C59	C	1.002069	-0.010291	0.202305
H60	H	1.032455	-0.060890	0.239104
H61	H	1.033803	0.034526	0.169736
H62	H	0.974568	-0.062187	0.169766
H63	H	0.665275	0.175266	-0.131161
H64	H	0.952253	-0.263907	-0.000059
C65	C	1.002089	-0.010271	0.377542
H66	H	1.032481	-0.060853	0.340734
H67	H	0.974607	-0.062167	0.410112
H68	H	1.033825	0.034575	0.410080
H69	H	0.987526	0.014011	0.634228
H70	H	0.665216	0.175231	0.131077
H71	H	0.802385	0.322271	0.785656
H72	H	0.522030	0.171496	-0.131169
H73	H	0.802349	0.322229	0.365659
H74	H	0.802369	0.322256	0.634263
H75	H	0.521985	0.171426	0.131071
C76	C	0.787760	0.346499	0.202332
H77	H	0.795058	0.334321	0.146655
H78	H	0.796408	0.429765	0.215996
H79	H	0.737181	0.333037	0.216025
C80	C	0.279117	0.165057	0.151699
H81	H	0.331795	0.166460	0.141353
H82	H	0.271567	0.091979	0.181395
H83	H	0.260774	0.237461	0.181388
C84	C	0.113314	0.160692	0.151690
H85	H	0.148123	0.161616	0.194733
H86	H	0.087906	0.087145	0.154694
H87	H	0.077119	0.232627	0.154691
