data_functionalizedCrystal
_audit_creation_method	'MofGen! by Chris Wilmer'
_symmetry_space_group_name_H-M	'P1'
_symmetry_Int_Tables_number	1
_symmetry_cell_setting	triclinic
loop_
_symmetry_equiv_pos_as_xyz
  x,y,z
_cell_length_a	16.625546
_cell_length_b	12.759386
_cell_length_c	16.625548
_cell_angle_alpha	89.965257
_cell_angle_beta	90.027358
_cell_angle_gamma	89.932977
loop_
_atom_site_label
_atom_site_type_symbol
_atom_site_fract_x
_atom_site_fract_y
_atom_site_fract_z
Zn1	Zn	-0.320604	-0.593770	1.232869
Zn2	Zn	-0.455533	-0.418076	1.232716
Zn3	Zn	-0.320730	-0.418129	1.097975
Zn4	Zn	-0.455410	-0.593737	1.098001
O5	O	-0.388069	-0.505928	1.165390
O6	O	-0.338501	-0.570456	1.345681
O7	O	-0.437755	-0.271062	1.214768
O8	O	-0.207880	-0.441464	1.115922
O9	O	-0.437633	-0.441374	1.345569
O10	O	-0.207788	-0.570507	1.215028
O11	O	-0.338716	-0.271101	1.115774
O12	O	-0.338596	-0.441432	0.985146
O13	O	-0.437423	-0.740763	1.115967
O14	O	-0.437545	-0.570451	0.985165
O15	O	-0.338382	-0.740787	1.215053
O16	O	-0.568349	-0.441342	1.214793
O17	O	-0.568258	-0.570399	1.115819
C18	C	-0.388071	-0.505944	0.955900
C19	C	-0.388092	-0.505976	0.866278
C20	C	-0.597560	-0.505884	1.165314
C21	C	-0.687181	-0.505901	1.165355
C22	C	-0.388205	-0.232961	1.165298
C23	C	-0.388060	-0.116184	1.165395
C24	C	-1.015356	-0.506010	1.165496
C25	C	-0.924048	-0.505982	1.165454
C26	C	-0.851272	-0.505955	1.165425
C27	C	-0.759957	-0.505928	1.165384
C28	C	-0.177760	-0.505995	1.165489
C29	C	-0.088139	-0.506024	1.165531
C30	C	-0.387874	-0.779962	1.165530
C31	C	-0.387791	-0.896739	1.165589
C32	C	-0.336808	-0.061392	1.113527
C33	C	-0.336671	0.048332	1.113626
C34	C	-0.439047	0.048461	1.217462
C35	C	-0.439179	-0.061261	1.217367
C36	C	-0.277704	-0.061466	1.053576
C37	C	-0.277567	0.048258	1.053675
C38	C	-0.388067	-0.505913	1.375699
C39	C	-0.388066	-0.505906	1.465320
C40	C	-0.388074	-0.505911	1.538103
C41	C	-0.388082	-0.505926	1.629411
C42	C	-0.388084	-0.505944	1.702188
C43	C	-0.388090	-0.505958	1.793502
H44	H	-0.480906	-0.105868	1.259609
H45	H	-0.480665	0.093193	1.259777
C46	C	-0.141963	-0.016878	1.088975
C47	C	-0.193293	-0.102024	1.075548
H48	H	-0.089855	-0.041920	1.102545
H49	H	-0.138863	0.024571	1.041606
H50	H	-0.162356	0.024450	1.131892
H51	H	-0.172902	-0.143349	1.032627
H52	H	-0.196390	-0.143490	1.122922
C53	C	-0.328646	-0.025207	0.921283
C54	C	-0.308533	-0.107129	0.973666
H55	H	-0.347674	-0.053401	0.871949
H56	H	-0.369480	0.016777	0.944935
H57	H	-0.282417	0.016550	0.911429
H58	H	-0.354763	-0.148881	0.983525
H59	H	-0.267695	-0.149131	0.950009
H60	H	-0.218041	0.082025	1.075667
H61	H	-0.294706	0.078240	0.991366
