data_functionalizedCrystal
_audit_creation_method	'MofGen! by Chris Wilmer'
_symmetry_space_group_name_H-M	'P1'
_symmetry_Int_Tables_number	1
_symmetry_cell_setting	triclinic
loop_
_symmetry_equiv_pos_as_xyz
  x,y,z
_cell_length_a	14.519709
_cell_length_b	17.666332
_cell_length_c	14.519709
_cell_angle_alpha	90.007412
_cell_angle_beta	96.319855
_cell_angle_gamma	89.996791
loop_
_atom_site_label
_atom_site_type_symbol
_atom_site_fract_x
_atom_site_fract_y
_atom_site_fract_z
O1	O	-1.223874	0.062842	0.120893
O2	O	-0.723874	0.562842	0.620893
O3	O	-0.955397	0.062868	0.135129
O4	O	-0.455397	0.562868	0.635129
O5	O	-1.096754	0.062847	-0.006227
O6	O	-0.596754	0.562847	0.493773
O7	O	-1.082517	0.062862	0.262250
O8	O	-0.582517	0.562862	0.762250
O9	O	-1.096729	-0.063049	-0.006235
O10	O	-0.596729	0.436951	0.493765
O11	O	-0.955372	-0.063029	0.135122
O12	O	-0.455372	0.436971	0.635122
O13	O	-1.223849	-0.063055	0.120885
O14	O	-0.723849	0.436945	0.620885
Cu15	Cu	-1.089608	-0.074537	0.128003
Cu16	Cu	-0.589608	0.425463	0.628003
Cu17	Cu	-1.089638	0.074350	0.128012
Cu18	Cu	-0.589638	0.574350	0.628012
O19	O	-1.082492	-0.063034	0.262242
O20	O	-0.582492	0.436966	0.762242
C21	C	-0.921025	-0.000078	0.134462
C22	C	-0.421025	0.499922	0.634462
C23	C	-0.818643	-0.000068	0.132474
C24	C	-0.318643	0.499932	0.632474
N25	N	-1.089594	-0.179257	0.127996
N26	N	-0.589594	0.320743	0.627996
C27	C	-0.443748	-0.000100	0.125154
C28	C	0.056252	0.499900	0.625154
C29	C	-0.548056	-0.000091	0.127187
C30	C	-0.048056	0.499909	0.627187
C31	C	-0.631192	-0.000083	0.128814
C32	C	-0.131192	0.499917	0.628814
C33	C	-0.735507	-0.000076	0.130847
C34	C	-0.235507	0.499924	0.630847
C35	C	-1.152207	-0.218875	0.065434
C36	C	-0.652207	0.281125	0.565434
C37	C	-1.152213	-0.298123	0.065429
C38	C	-0.652213	0.201877	0.565429
C39	C	-1.089614	-0.337749	0.128003
C40	C	-0.589614	0.162251	0.628003
C41	C	-1.026989	-0.298121	0.190570
C42	C	-0.526989	0.201879	0.690570
C43	C	-1.026979	-0.218875	0.190566
C44	C	-0.526979	0.281125	0.690566
N45	N	-1.078009	-0.462162	0.209587
N46	N	-0.578009	0.037838	0.709587
N47	N	-1.078024	-0.537443	0.209587
N48	N	-0.578024	-0.037443	0.709587
C49	C	-1.089638	-0.576513	0.128016
C50	C	-0.589638	-0.076513	0.628016
N51	N	-1.101255	-0.537459	0.046442
N52	N	-0.601255	-0.037459	0.546442
N53	N	-1.101245	-0.462171	0.046442
N54	N	-0.601245	0.037829	0.546442
C55	C	-1.089617	-0.423678	0.128013
C56	C	-0.589617	0.076322	0.628013
C57	C	-1.152261	-0.702061	0.065444
C58	C	-0.652261	-0.202061	0.565444
C59	C	-1.152259	-0.781310	0.065438
C60	C	-0.652259	-0.281310	0.565438
C61	C	-1.027040	-0.781306	0.190587
C62	C	-0.527040	-0.281306	0.690587
C63	C	-1.027037	-0.702058	0.190584
C64	C	-0.527037	-0.202058	0.690584
C65	C	-1.089652	-0.662441	0.128014
C66	C	-0.589652	-0.162441	0.628014
C67	C	-0.258221	-0.000106	0.121553
C68	C	0.241779	0.499894	0.621553
C69	C	-0.360602	-0.000105	0.123541
C70	C	0.139398	0.499895	0.623541
C71	C	-1.096078	-0.000101	-0.040591
C72	C	-0.596078	0.499899	0.459409
C73	C	-1.094090	-0.000101	-0.142972
C74	C	-0.594090	0.499899	0.357028
N75	N	-1.089659	0.179070	0.128011
N76	N	-0.589659	0.679070	0.628011
C77	C	-1.086770	-0.000081	-0.517868
C78	C	-0.586770	0.499919	-0.017868
C79	C	-1.088803	-0.000087	-0.413560
C80	C	-0.588803	0.499913	0.086440
C81	C	-1.090430	-0.000092	-0.330423
C82	C	-0.590430	0.499908	0.169577
C83	C	-1.092463	-0.000096	-0.226109
C84	C	-0.592463	0.499904	0.273891
C85	C	-1.083168	-0.000084	0.296605
C86	C	-0.583168	0.499916	0.796605
C87	C	-1.085156	-0.000079	0.398987
C88	C	-0.585156	0.499921	0.898987
H89	H	-1.203190	-0.186621	0.014483
H90	H	-0.703190	0.313379	0.514483
H91	H	-1.203202	-0.330386	0.014482
H92	H	-0.703202	0.169614	0.514482
Br93	Br	-0.942074	-0.835077	0.275499
Br94	Br	-0.442074	-0.335077	0.775499
Br95	Br	-0.942025	-0.351895	0.275486
Br96	Br	-0.442025	0.148105	0.775486
H97	H	-0.975991	-0.186616	0.241513
H98	H	-0.475991	0.313384	0.741513
H99	H	-1.203244	-0.813568	0.014488
H100	H	-0.703244	-0.313568	0.514488
H101	H	-1.203243	-0.669803	0.014492
H102	H	-0.703243	-0.169803	0.514492
H103	H	-0.976055	-0.669799	0.241532
H104	H	-0.476055	-0.169799	0.741532
