data_functionalizedCrystal
_audit_creation_method	'MofGen! by Chris Wilmer'
_symmetry_space_group_name_H-M	'P1'
_symmetry_Int_Tables_number	1
_symmetry_cell_setting	triclinic
loop_
_symmetry_equiv_pos_as_xyz
  x,y,z
_cell_length_a	25.639234
_cell_length_b	21.395362
_cell_length_c	21.395361
_cell_angle_alpha	90.046585
_cell_angle_beta	90.023281
_cell_angle_gamma	90.030391
loop_
_atom_site_label
_atom_site_type_symbol
_atom_site_fract_x
_atom_site_fract_y
_atom_site_fract_z
Zn1	Zn	-0.295883	-0.957776	0.249235
Zn2	Zn	0.204117	-0.457776	0.749235
Zn3	Zn	-0.208444	-0.957703	0.353998
Zn4	Zn	0.291556	-0.457703	0.853998
Zn5	Zn	-0.208431	-0.853015	0.249267
Zn6	Zn	0.291569	-0.353015	0.749267
Zn7	Zn	-0.295817	-0.852960	0.354007
Zn8	Zn	0.204183	-0.352960	0.854007
O9	O	-0.252144	-0.905363	0.301627
O10	O	0.247856	-0.405363	0.801627
O11	O	-0.284317	-1.045444	0.263114
O12	O	0.215683	-0.545444	0.763114
O13	O	-0.135277	-0.943809	0.340114
O14	O	0.364723	-0.443809	0.840114
O15	O	-0.220053	-0.866966	0.161585
O16	O	0.279947	-0.366966	0.661585
O17	O	-0.220075	-1.045390	0.340083
O18	O	0.279925	-0.545390	0.840083
O19	O	-0.284304	-0.943933	0.161561
O20	O	0.215696	-0.443933	0.661561
O21	O	-0.135267	-0.866895	0.263169
O22	O	0.364733	-0.366895	0.763169
O23	O	-0.219990	-0.765330	0.263179
O24	O	0.280010	-0.265330	0.763179
O25	O	-0.368991	-0.866871	0.340100
O26	O	0.131009	-0.366871	0.840100
O27	O	-0.284192	-0.765289	0.340131
O28	O	0.215808	-0.265289	0.840131
O29	O	-0.369039	-0.943879	0.263124
O30	O	0.130961	-0.443879	0.763124
O31	O	-0.220012	-0.943755	0.441677
O32	O	0.279988	-0.443755	0.941677
O33	O	-0.284205	-0.866800	0.441684
O34	O	0.215795	-0.366800	0.941684
C35	C	-0.252083	-0.742576	0.301660
C36	C	0.247917	-0.242576	0.801660
C37	C	-0.252069	-0.672934	0.301689
C38	C	0.247931	-0.172934	0.801689
C39	C	-0.252114	-0.905281	0.464414
C40	C	0.247886	-0.405281	0.964414
C41	C	-0.252119	-0.905303	0.534056
C42	C	0.247881	-0.405303	1.034056
C43	C	-0.388517	-0.905377	0.301609
C44	C	0.111483	-0.405377	0.801609
C45	C	-0.446631	-0.905383	0.301601
C46	C	0.053369	-0.405383	0.801601
C47	C	-0.697794	-0.865326	0.341604
C48	C	-0.197794	-0.365326	0.841604
C49	C	-0.643189	-0.865315	0.341618
C50	C	-0.143189	-0.365315	0.841618
O51	O	-0.614926	-0.831198	0.375692
O52	O	-0.114926	-0.331198	0.875692
N53	N	-0.615905	-0.905406	0.301551
N54	N	-0.115905	-0.405406	0.801551
C55	C	-0.643227	-0.945506	0.261462
C56	C	-0.143227	-0.445506	0.761462
O57	O	-0.615006	-0.979606	0.227383
O58	O	-0.115006	-0.479606	0.727383
C59	C	-0.697831	-0.945514	0.261445
C60	C	-0.197831	-0.445514	0.761445
C61	C	-0.725112	-0.905425	0.301520
C62	C	-0.225112	-0.405425	0.801520
C63	C	-0.725075	-0.825240	0.381675
C64	C	-0.225075	-0.325240	0.881675
C65	C	-0.779676	-0.825252	0.381661
C66	C	-0.279676	-0.325252	0.881661
C67	C	-0.806995	-0.865350	0.341577
C68	C	-0.306995	-0.365350	0.841577
C69	C	-0.779713	-0.905437	0.301506
C70	C	-0.279713	-0.405437	0.801506
C71	C	-0.725152	-0.985610	0.221354
C72	C	-0.225152	-0.485610	0.721354
C73	C	-0.779759	-0.985614	0.221340
C74	C	-0.279759	-0.485614	0.721340
C75	C	-0.807041	-0.945525	0.261415
C76	C	-0.307041	-0.445525	0.761415
C77	C	-0.861632	-0.945547	0.261409
C78	C	-0.361632	-0.445547	0.761409
N79	N	-0.888917	-0.905456	0.301476
N80	N	-0.388917	-0.405456	0.801476
C81	C	-0.861598	-0.865358	0.341560
C82	C	-0.361598	-0.365358	0.841560
C83	C	-0.528557	-0.945487	0.261500
C84	C	-0.028557	-0.445487	0.761500
C85	C	-0.473954	-0.945483	0.261519
C86	C	0.026046	-0.445483	0.761519
C87	C	-0.473920	-0.865291	0.341675
C88	C	0.026080	-0.365291	0.841675
C89	C	-0.528523	-0.865299	0.341658
C90	C	-0.028523	-0.365299	0.841658
C91	C	-0.555841	-0.905396	0.301567
C92	C	-0.055841	-0.405396	0.801567
C93	C	-0.976263	-0.865386	0.341530
C94	C	-0.476263	-0.365386	0.841530
C95	C	-1.030869	-0.865404	0.341514
C96	C	-0.530869	-0.365404	0.841514
C97	C	-1.030898	-0.945593	0.261357
C98	C	-0.530898	-0.445593	0.761357
C99	C	-0.976297	-0.945578	0.261374
C100	C	-0.476297	-0.445578	0.761374
C101	C	-0.948981	-0.905470	0.301463
C102	C	-0.448981	-0.405470	0.801463
O103	O	-0.889930	-0.979645	0.227350
O104	O	-0.389930	-0.479645	0.727350
O105	O	-0.889826	-0.831258	0.375628
O106	O	-0.389826	-0.331258	0.875628
C107	C	-0.116301	-0.905386	0.301599
C108	C	0.383699	-0.405386	0.801599
C109	C	-0.058187	-0.905502	0.301430
C110	C	0.441813	-0.405502	0.801430
C111	C	-0.252205	-1.068787	0.301594
C112	C	0.247795	-0.568787	0.801594
C113	C	-0.252231	-1.138428	0.301580
C114	C	0.247769	-0.638428	0.801580
C115	C	-0.285450	-0.640217	0.341811
C116	C	0.214550	-0.140217	0.841811
C117	C	-0.285473	-0.574781	0.341796
C118	C	0.214527	-0.074781	0.841796
C119	C	-0.252107	-0.542066	0.301665
C120	C	0.247893	-0.042066	0.801665
C121	C	-0.218724	-0.574792	0.261535
C122	C	0.281276	-0.074792	0.761535
C123	C	-0.218705	-0.640226	0.261547
C124	C	0.281295	-0.140226	0.761547
C125	C	-0.205038	-0.438355	0.296619
C126	C	0.294962	0.061645	0.796619
C127	C	-0.205056	-0.372922	0.296612
C128	C	0.294944	0.127078	0.796612
C129	C	-0.252164	-0.340246	0.301624
C130	C	0.247836	0.159754	0.801624
C131	C	-0.299257	-0.373010	0.306657
C132	C	0.200743	0.126990	0.806657
C133	C	-0.299238	-0.438444	0.306670
C134	C	0.200762	0.061556	0.806670
C135	C	-0.252123	-0.471114	0.301647
C136	C	0.247877	0.028886	0.801647
C137	C	-0.285573	-0.236575	0.341732
C138	C	0.214427	0.263425	0.841732
C139	C	-0.285597	-0.171138	0.341712
C140	C	0.214403	0.328862	0.841712
C141	C	-0.218843	-0.171151	0.261454
C142	C	0.281157	0.328849	0.761454
C143	C	-0.218824	-0.236586	0.261471
C144	C	0.281176	0.263414	0.761471
C145	C	-0.252188	-0.269294	0.301613
C146	C	0.247812	0.230706	0.801613
C147	C	-0.252184	-0.905464	0.138203
C148	C	0.247816	-0.405464	0.638203
C149	C	-0.252202	-0.905506	0.068562
C150	C	0.247798	-0.405506	0.568562
C151	C	-0.218728	-0.945408	0.566744
C152	C	0.281272	-0.445408	1.066744
C153	C	-0.218740	-0.945437	0.632180
C154	C	0.281260	-0.445437	1.132180
C155	C	-0.252137	-0.905350	0.664924
C156	C	0.247863	-0.405350	1.164924
C157	C	-0.285535	-0.865241	0.632227
C158	C	0.214465	-0.365241	1.132227
C159	C	-0.285526	-0.865218	0.566793
C160	C	0.214474	-0.365218	1.066793
C161	C	-0.256219	-0.848934	0.768655
C162	C	0.243781	-0.348934	1.268655
C163	C	-0.256224	-0.848956	0.834088
C164	C	0.243776	-0.348956	1.334088
C165	C	-0.252168	-0.905423	0.866745
C166	C	0.247832	-0.405423	1.366745
C167	C	-0.248096	-0.961868	0.833961
C168	C	0.251904	-0.461868	1.333961
C169	C	-0.248087	-0.961845	0.768527
C170	C	0.251913	-0.461845	1.268527
C171	C	-0.252151	-0.905371	0.735876
C172	C	0.247849	-0.405371	1.235876
C173	C	-0.218788	-0.945563	0.970386
C174	C	0.281212	-0.445563	1.470386
C175	C	-0.218803	-0.945593	1.035822
C176	C	0.281197	-0.445593	1.535822
C177	C	-0.285595	-0.865392	1.035869
C178	C	0.214405	-0.365392	1.535869
C179	C	-0.285583	-0.865367	0.970434
C180	C	0.214417	-0.365367	1.470434
C181	C	-0.252176	-0.905452	0.937696
C182	C	0.247824	-0.405452	1.437696
H183	H	-1.053079	-0.832758	0.374150
H184	H	-0.553079	-0.332758	0.874150
O185	O	-0.949673	-0.826518	0.380504
O186	O	-0.449673	-0.326518	0.880504
C187	C	-0.888040	-0.818035	0.465148
C188	C	-0.388040	-0.318035	0.965148
C189	C	-0.918112	-0.862116	0.421035
C190	C	-0.418112	-0.362116	0.921035
H191	H	-0.862524	-0.846799	0.497937
H192	H	-0.362524	-0.346799	0.997937
H193	H	-0.862434	-0.785291	0.436436
H194	H	-0.362434	-0.285291	0.936436
H195	H	-0.916933	-0.789375	0.493756
H196	H	-0.416933	-0.289375	0.993756
H197	H	-0.889257	-0.890817	0.392417
H198	H	-0.389257	-0.390817	0.892417
H199	H	-0.943726	-0.894818	0.449782
H200	H	-0.443726	-0.394818	0.949782
O201	O	-0.318114	-0.826517	1.067640
O202	O	0.181886	-0.326517	1.567640
C203	C	-0.407021	-0.796008	1.087601
C204	C	0.092979	-0.296008	1.587601
C205	C	-0.370250	-0.840081	1.051590
C206	C	0.129750	-0.340081	1.551590
H207	H	-0.449180	-0.806950	1.074629
H208	H	0.050820	-0.306950	1.574629
H209	H	-0.401340	-0.802916	1.139992
H210	H	0.098660	-0.302916	1.639992
H211	H	-0.397757	-0.745494	1.074809
H212	H	0.102243	-0.245494	1.574809
H213	H	-0.379491	-0.890612	1.064330
H214	H	0.120509	-0.390612	1.564330
H215	H	-0.375938	-0.833119	0.999208
H216	H	0.124062	-0.333119	1.499208
O217	O	-0.345031	-0.341310	0.311628
O218	O	0.154969	0.158690	0.811628
C219	C	-0.421578	-0.321341	0.373812
C220	C	0.078422	0.178659	0.873812
C221	C	-0.369747	-0.357269	0.368273
C222	C	0.130253	0.142731	0.868273
H223	H	-0.441581	-0.334240	0.419600
H224	H	0.058419	0.165760	0.919600
H225	H	-0.413538	-0.268937	0.372975
H226	H	0.086462	0.231063	0.872975
H227	H	-0.448003	-0.334281	0.332931
H228	H	0.051997	0.165719	0.832931
H229	H	-0.343296	-0.344382	0.409144
H230	H	0.156704	0.155618	0.909144
H231	H	-0.377825	-0.409664	0.369081
H232	H	0.122175	0.090336	0.869081
H233	H	-0.702838	-0.792583	0.414316
H234	H	-0.202838	-0.292583	0.914316
O235	O	-0.260089	-0.794136	0.865961
O236	O	0.239911	-0.294136	1.365961
C237	C	-0.220067	-0.723991	0.939981
C238	C	0.279933	-0.223991	1.439981
C239	C	-0.215615	-0.786083	0.903913
C240	C	0.284385	-0.286083	1.403913
H241	H	-0.184120	-0.717467	0.970684
H242	H	0.315880	-0.217467	1.470684
H243	H	-0.222941	-0.683600	0.905433
H244	H	0.277059	-0.183600	1.405433
H245	H	-0.256459	-0.724961	0.970562
H246	H	0.243541	-0.224961	1.470562
H247	H	-0.179225	-0.785175	0.873332
H248	H	0.320775	-0.285175	1.373332
H249	H	-0.212770	-0.826448	0.938495
H250	H	0.287230	-0.326448	1.438495
O251	O	-0.159224	-0.469996	0.291780
O252	O	0.340776	0.030004	0.791780
C253	C	-0.065793	-0.463003	0.281799
C254	C	0.434207	0.036997	0.781799
C255	C	-0.117635	-0.427092	0.287287
C256	C	0.382365	0.072908	0.787287
H257	H	-0.032156	-0.428331	0.278152
H258	H	0.467844	0.071669	0.778152
H259	H	-0.060167	-0.493567	0.324897
H260	H	0.439833	0.006433	0.824897
H261	H	-0.066682	-0.493703	0.238236
H262	H	0.433318	0.006297	0.738236
H263	H	-0.116783	-0.396358	0.330825
H264	H	0.383217	0.103642	0.830825
H265	H	-0.123241	-0.396567	0.244158
H266	H	0.376759	0.103433	0.744158
H267	H	-0.312657	-0.548137	0.374468
H268	H	0.187343	-0.048137	0.874468
H269	H	-0.191678	-0.144515	0.228776
H270	H	0.308322	0.355485	0.728776
H271	H	-0.451746	-0.978135	0.228893
H272	H	0.048254	-0.478135	0.728893
H273	H	-0.312728	-0.832603	0.658892
H274	H	0.187272	-0.332603	1.158892
H275	H	-0.550795	-0.978144	0.228854
H276	H	-0.050795	-0.478144	0.728854
O277	O	-0.698740	-1.024570	0.182363
O278	O	-0.198740	-0.524570	0.682363
C279	C	-0.704561	-1.104123	0.102873
C280	C	-0.204561	-0.604123	0.602873
C281	C	-0.734536	-1.060021	0.146993
C282	C	-0.234536	-0.560021	0.646993
H283	H	-0.733489	-1.132806	0.074274
H284	H	-0.233489	-0.632806	0.574274
H285	H	-0.679009	-1.075402	0.070081
H286	H	-0.179009	-0.575402	0.570081
H287	H	-0.678988	-1.136843	0.131639
H288	H	-0.178988	-0.636843	0.631639
H289	H	-0.760137	-1.027292	0.118277
H290	H	-0.260137	-0.527292	0.618277
H291	H	-0.760055	-1.088781	0.179787
H292	H	-0.260055	-0.588781	0.679787
H293	H	-0.801884	-0.792606	0.414293
H294	H	-0.301884	-0.292606	0.914293
H295	H	-0.550732	-0.832654	0.374289
H296	H	-0.050732	-0.332654	0.874289
O297	O	-0.317979	-0.826196	0.535133
O298	O	0.182021	-0.326196	1.035133
C299	C	-0.384252	-0.746681	0.542085
C300	C	0.115748	-0.246681	1.042085
C301	C	-0.347518	-0.790831	0.578018
C302	C	0.152482	-0.290831	1.078018
H303	H	-0.408153	-0.718087	0.576741
H304	H	0.091847	-0.218087	1.076741
H305	H	-0.360234	-0.713886	0.511524
H306	H	0.139766	-0.213886	1.011524
H307	H	-0.411592	-0.775423	0.511378
H308	H	0.088408	-0.275423	1.011378
H309	H	-0.320171	-0.762140	0.608759
H310	H	0.179829	-0.262140	1.108759
H311	H	-0.371569	-0.823628	0.608539
H312	H	0.128431	-0.323628	1.108539
H313	H	-0.337582	-0.465119	0.310766
H314	H	0.162418	0.034881	0.810766
H315	H	-0.191558	-0.548151	0.228859
H316	H	0.308442	-0.048151	0.728859
H317	H	-0.451667	-0.832640	0.374312
H318	H	0.048333	-0.332640	0.874312
O319	O	-0.806318	-1.024478	0.182329
O320	O	-0.306318	-0.524478	0.682329
C321	C	-0.868002	-1.032973	0.097741
C322	C	-0.368002	-0.532973	0.597741
C323	C	-0.837950	-0.988888	0.141869
C324	C	-0.337950	-0.488888	0.641869
H325	H	-0.893592	-1.004217	0.065026
H326	H	-0.393592	-0.504217	0.565026
H327	H	-0.839144	-1.061609	0.069059
H328	H	-0.339144	-0.561609	0.569059
H329	H	-0.893548	-1.065737	0.126503
H330	H	-0.393548	-0.565737	0.626503
H331	H	-0.812403	-0.956086	0.113155
H332	H	-0.312403	-0.456086	0.613155
H333	H	-0.866837	-0.960296	0.170553
H334	H	-0.366837	-0.460296	0.670553
O335	O	-0.186250	-0.672081	0.222661
O336	O	0.313750	-0.172081	0.722661
C337	C	-0.115629	-0.745862	0.214131
C338	C	0.384371	-0.245862	0.714131
C339	C	-0.152361	-0.709835	0.258238
C340	C	0.347639	-0.209835	0.758238
H341	H	-0.088214	-0.776385	0.242878
H342	H	0.411786	-0.276385	0.742878
H343	H	-0.139645	-0.776599	0.181429
H344	H	0.360355	-0.276599	0.681429
H345	H	-0.091809	-0.711231	0.185429
H346	H	0.408191	-0.211231	0.685429
H347	H	-0.176189	-0.744421	0.286981
H348	H	0.323811	-0.244421	0.786981
H349	H	-0.128315	-0.679088	0.290899
H350	H	0.371685	-0.179088	0.790899
O351	O	-0.186345	-0.268275	0.222480
O352	O	0.313655	0.231725	0.722480
C353	C	-0.120161	-0.261380	0.142848
C354	C	0.379839	0.238620	0.642848
C355	C	-0.156908	-0.225415	0.186988
C356	C	0.343092	0.274585	0.686988
H357	H	-0.096359	-0.226743	0.114132
H358	H	0.403641	0.273257	0.614132
H359	H	-0.092734	-0.291940	0.171542
H360	H	0.407266	0.208060	0.671542
H361	H	-0.144216	-0.292089	0.110161
H362	H	0.355784	0.207911	0.610161
H363	H	-0.132895	-0.194671	0.219683
H364	H	0.367105	0.305329	0.719683
H365	H	-0.184336	-0.194894	0.158255
H366	H	0.315664	0.305106	0.658255
O367	O	-0.159316	-0.341073	0.291841
O368	O	0.340684	0.158927	0.791841
C369	C	-0.100675	-0.267072	0.339633
C370	C	0.399325	0.232928	0.839633
C371	C	-0.152484	-0.303108	0.345119
C372	C	0.347516	0.196892	0.845119
H373	H	-0.095140	-0.236358	0.382696
H374	H	0.404860	0.263642	0.882696
H375	H	-0.066981	-0.301640	0.336085
H376	H	0.433019	0.198360	0.836085
H377	H	-0.101565	-0.236504	0.296027
H378	H	0.398435	0.263496	0.796027
H379	H	-0.151645	-0.333676	0.388723
H380	H	0.348355	0.166324	0.888723
H381	H	-0.186155	-0.268505	0.348632
H382	H	0.313845	0.231495	0.848632
O383	O	-0.186267	-0.984411	0.535041
O384	O	0.313733	-0.484411	1.035041
C385	C	-0.120001	-1.063937	0.541903
C386	C	0.379999	-0.563937	1.041903
C387	C	-0.156743	-1.019807	0.577887
C388	C	0.343257	-0.519807	1.077887
H389	H	-0.096113	-1.092556	0.576528
H390	H	0.403887	-0.592556	1.076528
H391	H	-0.144012	-1.096709	0.511234
H392	H	0.355988	-0.596709	1.011234
H393	H	-0.092650	-1.035177	0.511301
H394	H	0.407350	-0.535177	1.011301
H395	H	-0.184101	-1.048516	0.608523
H396	H	0.315899	-0.548516	1.108523
H397	H	-0.132699	-0.987033	0.608516
H398	H	0.367301	-0.487033	1.108516
H399	H	-0.954084	-0.978227	0.228747
H400	H	-0.454084	-0.478227	0.728747
O401	O	-0.318071	-0.826492	0.938649
O402	O	0.181929	-0.326492	1.438649
C403	C	-0.388620	-0.817969	0.864705
C404	C	0.111380	-0.317969	1.364705
C405	C	-0.351865	-0.862067	0.900672
C406	C	0.148135	-0.362067	1.400672
H407	H	-0.415945	-0.846713	0.833982
H408	H	0.084055	-0.346713	1.333982
H409	H	-0.412531	-0.789332	0.899319
H410	H	0.087469	-0.289332	1.399319
H411	H	-0.364565	-0.785205	0.834154
H412	H	0.135435	-0.285205	1.334154
H413	H	-0.375880	-0.894869	0.931224
H414	H	0.124120	-0.394869	1.431224
H415	H	-0.327953	-0.890660	0.866024
H416	H	0.172047	-0.390660	1.366024
H417	H	-0.244773	-1.007804	0.741835
H418	H	0.255227	-0.507804	1.241835
O419	O	-1.057360	-0.984600	0.222399
O420	O	-0.557360	-0.484600	0.722399
C421	C	-1.051647	-1.064099	0.142857
C422	C	-0.551647	-0.564099	0.642857
C423	C	-1.021612	-1.019972	0.186961
C424	C	-0.521612	-0.519972	0.686961
H425	H	-1.022758	-1.092700	0.114185
H426	H	-0.522758	-0.592700	0.614185
H427	H	-1.077205	-1.096890	0.171577
H428	H	-0.577205	-0.596890	0.671577
H429	H	-1.077219	-1.035339	0.110128
H430	H	-0.577219	-0.535339	0.610128
H431	H	-0.996012	-1.048682	0.219699
H432	H	-0.496012	-0.548682	0.719699
H433	H	-0.996088	-0.987180	0.158202
H434	H	-0.496088	-0.487180	0.658202
O435	O	-0.317938	-0.671958	0.380733
O436	O	0.182062	-0.171958	0.880733
C437	C	-0.406822	-0.692002	0.411331
C438	C	0.093178	-0.192002	0.911331
C439	C	-0.370087	-0.656026	0.367205
C440	C	0.129913	-0.156026	0.867205
H441	H	-0.448992	-0.679124	0.400418
H442	H	0.051008	-0.179124	0.900418
H443	H	-0.401124	-0.744399	0.404448
H444	H	0.098876	-0.244399	0.904448
H445	H	-0.397538	-0.679083	0.461830
H446	H	0.102462	-0.179083	0.961830
H447	H	-0.379349	-0.668893	0.316689
H448	H	0.120651	-0.168893	0.816689
H449	H	-0.375792	-0.603639	0.374141
H450	H	0.124208	-0.103639	0.874141
H451	H	-0.312742	-0.263208	0.374415
H452	H	0.187258	0.236792	0.874415
O453	O	-0.186264	-0.984301	0.664004
O454	O	0.313736	-0.484301	1.164004
C455	C	-0.115653	-0.992775	0.737870
C456	C	0.384347	-0.492775	1.237870
C457	C	-0.152415	-0.948698	0.701886
C458	C	0.347585	-0.448698	1.201886
H459	H	-0.088270	-0.964007	0.768496
H460	H	0.411730	-0.464007	1.268496
H461	H	-0.139649	-1.025527	0.768501
H462	H	0.360351	-0.525527	1.268501
H463	H	-0.091801	-1.021425	0.703211
H464	H	0.408199	-0.521425	1.203211
H465	H	-0.176275	-0.920007	0.736500
H466	H	0.323725	-0.420007	1.236500
H467	H	-0.128389	-0.915987	0.671245
H468	H	0.371611	-0.415987	1.171245
H469	H	-0.312782	-0.144501	0.374383
H470	H	0.187218	0.355499	0.874383
H471	H	-0.244793	-1.007849	0.860549
H472	H	0.255207	-0.507849	1.360549
O473	O	-0.186324	-0.984561	0.938677
O474	O	0.313676	-0.484561	1.438677
C475	C	-0.120053	-1.064081	0.945535
C476	C	0.379947	-0.564081	1.445535
C477	C	-0.156801	-1.019960	0.981521
C478	C	0.343199	-0.519960	1.481521
H479	H	-0.096165	-1.092703	0.980159
H480	H	0.403835	-0.592703	1.480159
H481	H	-0.144059	-1.096851	0.914858
H482	H	0.355941	-0.596851	1.414858
H483	H	-0.092701	-1.035314	0.914940
H484	H	0.407299	-0.535314	1.414940
H485	H	-0.184159	-1.048677	1.012149
H486	H	0.315841	-0.548677	1.512149
H487	H	-0.132762	-0.987188	1.012158
H488	H	0.367238	-0.487188	1.512158
O489	O	-0.186464	-0.984673	1.067578
O490	O	0.313536	-0.484673	1.567578
C491	C	-0.179604	-1.069363	1.141295
C492	C	0.320396	-0.569363	1.641295
C493	C	-0.216273	-1.025121	1.105378
C494	C	0.283727	-0.525121	1.605378
H495	H	-0.203689	-1.102068	1.171875
H496	H	0.296311	-0.602068	1.671875
H497	H	-0.155767	-1.098049	1.106649
H498	H	0.344233	-0.598049	1.606649
H499	H	-0.152201	-1.040689	1.171985
H500	H	0.347799	-0.540689	1.671985
H501	H	-0.243706	-1.053747	1.074687
H502	H	0.256294	-0.553747	1.574687
H503	H	-0.240073	-0.996433	1.140058
H504	H	0.259927	-0.496433	1.640058
H505	H	-0.259524	-0.802949	0.742072
H506	H	0.240476	-0.302949	1.242072
