data_functionalizedCrystal
_audit_creation_method	'MofGen! by Chris Wilmer'
_symmetry_space_group_name_H-M	'P1'
_symmetry_Int_Tables_number	1
_symmetry_cell_setting	triclinic
loop_
_symmetry_equiv_pos_as_xyz
  x,y,z
_cell_length_a	13.033293
_cell_length_b	25.639240
_cell_length_c	13.032268
_cell_angle_alpha	97.139101
_cell_angle_beta	90.920818
_cell_angle_gamma	82.788091
loop_
_atom_site_label
_atom_site_type_symbol
_atom_site_fract_x
_atom_site_fract_y
_atom_site_fract_z
Zn1	Zn	1.498324	0.162670	0.781430
Zn2	Zn	1.998324	0.662670	1.281430
Zn3	Zn	1.520003	0.237808	0.609433
Zn4	Zn	2.020003	0.737808	1.109433
Zn5	Zn	1.348187	0.159909	0.587606
Zn6	Zn	1.848187	0.659909	1.087606
Zn7	Zn	1.326235	0.259605	0.759466
Zn8	Zn	1.826235	0.759605	1.259466
O9	O	1.423187	0.204998	0.684484
O10	O	1.923187	0.704998	1.184484
O11	O	1.645125	0.164671	0.776940
O12	O	2.145125	0.664671	1.276940
O13	O	1.515471	0.217197	0.462632
O14	O	2.015471	0.717197	0.962632
O15	O	1.368217	0.087106	0.613375
O16	O	1.868217	0.587106	1.113375
O17	O	1.661053	0.219875	0.650575
O18	O	2.161053	0.719875	1.150575
O19	O	1.478522	0.089135	0.755777
O20	O	1.978522	0.589135	1.255777
O21	O	1.389238	0.159965	0.446597
O22	O	1.889238	0.659965	0.946597
O23	O	1.201349	0.181100	0.592077
O24	O	1.701349	0.681100	1.092077
O25	O	1.330804	0.257024	0.906284
O26	O	1.830804	0.757024	1.406284
O27	O	1.185221	0.254346	0.718342
O28	O	1.685221	0.754346	1.218342
O29	O	1.457236	0.185806	0.922421
O30	O	1.957236	0.685806	1.422421
O31	O	1.494185	0.313868	0.629277
O32	O	1.994185	0.813868	1.129277
O33	O	1.351825	0.329882	0.739505
O34	O	1.851825	0.829882	1.239505
C35	C	1.155967	0.219789	0.650458
C36	C	1.655967	0.719789	1.150458
C37	C	1.041646	0.226131	0.635926
C38	C	1.541646	0.726131	1.135926
C39	C	0.982785	0.201701	0.692068
C40	C	1.482785	0.701701	1.192068
C41	C	0.864628	0.208255	0.677050
C42	C	1.364628	0.708255	1.177050
C43	C	1.423000	0.340847	0.684402
C44	C	1.923000	0.840847	1.184402
C45	C	1.423010	0.398961	0.684414
C46	C	1.923010	0.898961	1.184414
C47	C	1.497391	0.750967	0.627171
C48	C	1.997391	1.250967	1.127171
C49	C	1.497421	0.805570	0.627185
C50	C	1.997421	1.305570	1.127185
O51	O	1.560530	0.826707	0.578466
O52	O	2.060530	1.326707	1.078466
N53	N	1.423267	0.841234	0.684517
N54	N	1.923267	1.341234	1.184517
C55	C	1.349084	0.822292	0.741847
C56	C	1.849084	1.322292	1.241847
O57	O	1.286013	0.857641	0.790615
O58	O	1.786013	1.357641	1.290615
C59	C	1.349059	0.767690	0.741839
C60	C	1.849059	1.267690	1.241839
C61	C	1.423212	0.732029	0.684494
C62	C	1.923212	1.232029	1.184494
C63	C	1.571539	0.715306	0.569833
C64	C	2.071539	1.215306	1.069833
C65	C	1.571507	0.660707	0.569818
C66	C	2.071507	1.160707	1.069818
C67	C	1.497328	0.641768	0.627141
C68	C	1.997328	1.141768	1.127141
C69	C	1.423180	0.677429	0.684479
C70	C	1.923180	1.177429	1.184479
C71	C	1.274882	0.748749	0.799174
C72	C	1.774882	1.248749	1.299174
C73	C	1.274864	0.694143	0.799161
C74	C	1.774864	1.194143	1.299161
C75	C	1.349017	0.658481	0.741817
C76	C	1.849017	1.158481	1.241817
C77	C	1.348970	0.603891	0.741787
C78	C	1.848970	1.103891	1.241787
N79	N	1.423124	0.568227	0.684455
N80	N	1.923124	1.068227	1.184455
C81	C	1.497303	0.587166	0.627132
C82	C	1.997303	1.087166	1.127132
C83	C	1.349143	0.936960	0.741863
C84	C	1.849143	1.436960	1.241863
C85	C	1.349162	0.991561	0.741866
C86	C	1.849162	1.491561	1.241866
C87	C	1.497501	0.974836	0.627205
C88	C	1.997501	1.474836	1.127205
C89	C	1.497476	0.920233	0.627197
C90	C	1.997476	1.420233	1.127197
C91	C	1.423297	0.901296	0.684531
C92	C	1.923297	1.401296	1.184531
C93	C	1.497230	0.472504	0.627104
C94	C	1.997230	0.972504	1.127104
C95	C	1.497189	0.417900	0.627090
C96	C	1.997189	0.917900	1.127090
C97	C	1.348855	0.434630	0.741755
C98	C	1.848855	0.934630	1.241755
C99	C	1.348892	0.489229	0.741765
C100	C	1.848892	0.989229	1.241765
C101	C	1.423088	0.508164	0.684437
C102	C	1.923088	1.008164	1.184437
O103	O	1.285896	0.582716	0.790485
O104	O	1.785896	1.082716	1.290485
O105	O	1.560371	0.551812	0.578384
O106	O	2.060371	1.051812	1.078384
C107	C	1.691451	0.190149	0.718642
C108	C	2.191451	0.690149	1.218642
C109	C	1.805769	0.183822	0.733199
C110	C	2.305769	0.683822	1.233199
C111	C	1.389153	0.224154	0.952709
C112	C	1.889153	0.724154	1.452709
C113	C	1.374650	0.232317	1.067011
C114	C	1.874650	0.732317	1.567011
C115	C	1.423363	1.068619	0.684569
C116	C	1.923363	1.568619	1.184569
C117	C	1.423346	1.010505	0.684547
C118	C	1.923346	1.510505	1.184547
C119	C	1.457148	0.185875	0.417309
C120	C	1.957148	0.685875	0.917309
C121	C	1.471850	0.177554	0.303033
C122	C	1.971850	0.677554	0.803033
C123	C	1.430740	0.200720	1.125954
C124	C	1.930740	0.700720	1.625954
C125	C	1.415752	0.209156	1.244091
C126	C	1.915752	0.709156	1.744091
H127	H	1.004564	0.251898	0.576742
H128	H	1.504564	0.751898	1.076742
H129	H	1.631950	0.730719	0.523154
H130	H	2.131950	1.230719	1.023154
H131	H	1.356624	0.242453	1.281083
H132	H	1.856624	0.742453	1.781083
H133	H	1.315526	0.265612	1.104006
H134	H	1.815526	0.765612	1.604006
Br135	Br	1.044579	0.158748	0.790708
Br136	Br	1.544579	0.658748	1.290708
Br137	Br	1.529247	0.145205	1.064299
Br138	Br	2.029247	0.645205	1.564299
Br139	Br	0.802840	0.251202	0.578391
Br140	Br	1.302840	0.751202	1.078391
Br141	Br	1.597830	0.369505	0.549259
Br142	Br	2.097830	0.869505	1.049259
H143	H	1.557650	0.487913	0.580425
H144	H	2.057650	0.987913	1.080425
H145	H	1.631891	0.631674	0.523127
H146	H	2.131891	1.131674	1.023127
Br147	Br	1.598115	0.871841	0.549369
Br148	Br	2.098115	1.371841	1.049369
Br149	Br	1.570406	0.122057	1.241391
Br150	Br	2.070406	0.622057	1.741391
H151	H	0.842845	0.158049	0.792381
H152	H	1.342845	0.658049	1.292381
Br153	Br	1.598170	1.000548	0.549403
Br154	Br	2.098170	1.500548	1.049403
Br155	Br	1.248509	1.039953	0.819676
Br156	Br	1.748509	1.539953	1.319676
H157	H	1.288729	0.921546	0.788547
H158	H	1.788729	1.421546	1.288547
Br159	Br	1.174190	0.668446	0.876980
Br160	Br	1.674190	1.168446	1.376980
Br161	Br	1.174249	0.797134	0.877015
Br162	Br	1.674249	1.297134	1.377015
Br163	Br	1.248233	0.537628	0.819561
Br164	Br	1.748233	1.037628	1.319561
Br165	Br	1.248191	0.408917	0.819552
Br166	Br	1.748191	0.908917	1.319552
