data_functionalizedCrystal
_audit_creation_method	'MofGen! by Chris Wilmer'
_symmetry_space_group_name_H-M	'P1'
_symmetry_Int_Tables_number	1
_symmetry_cell_setting	triclinic
loop_
_symmetry_equiv_pos_as_xyz
  x,y,z
_cell_length_a	14.044220
_cell_length_b	14.044220
_cell_length_c	12.503572
_cell_angle_alpha	86.156832
_cell_angle_beta	86.164750
_cell_angle_gamma	86.811122
loop_
_atom_site_label
_atom_site_type_symbol
_atom_site_fract_x
_atom_site_fract_y
_atom_site_fract_z
O1	O	1.282200	-0.225116	-0.089210
O2	O	1.615533	0.108217	0.244123
O3	O	1.948867	0.441550	0.577457
O4	O	1.005530	-0.216809	-0.089237
O5	O	1.338863	0.116524	0.244096
O6	O	1.672197	0.449858	0.577430
O7	O	1.139712	-0.082627	-0.089213
O8	O	1.473045	0.250706	0.244120
O9	O	1.806378	0.584039	0.577453
O10	O	1.148019	-0.359298	-0.089234
O11	O	1.481352	-0.025964	0.244100
O12	O	1.814685	0.307369	0.577433
O13	O	1.129622	-0.092737	0.089427
O14	O	1.462955	0.240596	0.422760
O15	O	1.796289	0.573930	0.756093
O16	O	0.995440	-0.226918	0.089403
O17	O	1.328774	0.106415	0.422736
O18	O	1.662107	0.439748	0.756070
O19	O	1.272110	-0.235226	0.089430
O20	O	1.605444	0.098108	0.422763
O21	O	1.938777	0.431441	0.756097
Cu22	Cu	1.132854	-0.231995	0.105728
Cu23	Cu	1.466187	0.101338	0.439061
Cu24	Cu	1.799521	0.434672	0.772395
Cu25	Cu	1.144786	-0.220040	-0.105535
Cu26	Cu	1.478120	0.113294	0.227798
Cu27	Cu	1.811453	0.446627	0.561132
O28	O	1.137929	-0.369407	0.089406
O29	O	1.471262	-0.036074	0.422740
O30	O	1.804595	0.297259	0.756073
C31	C	0.964864	-0.218228	0.000080
C32	C	1.298197	0.115105	0.333413
C33	C	1.631530	0.448439	0.666746
C34	C	0.858721	-0.207383	0.000070
C35	C	1.192055	0.125951	0.333403
C36	C	1.525388	0.459284	0.666736
C37	C	0.664382	-0.187558	0.000092
C38	C	0.997716	0.145776	0.333426
C39	C	1.331049	0.479109	0.666759
C40	C	0.613253	-0.264472	0.000091
C41	C	0.946586	0.068861	0.333425
C42	C	1.279919	0.402195	0.666758
C43	C	0.505116	-0.253441	0.000104
C44	C	0.838449	0.079892	0.333437
C45	C	1.171782	0.413225	0.666771
C46	C	0.772529	-0.198587	0.000080
C47	C	1.105863	0.134746	0.333413
C48	C	1.439196	0.468079	0.666746
C49	C	1.131031	-0.052060	0.000107
C50	C	1.464365	0.281273	0.333440
C51	C	1.797698	0.614606	0.666773
C52	C	1.120187	0.054082	0.000107
C53	C	1.453520	0.387416	0.333440
C54	C	1.786853	0.720749	0.666774
C55	C	1.312777	-0.233807	0.000111
C56	C	1.646110	0.099527	0.333444
C57	C	1.979444	0.432860	0.666778
C58	C	1.418920	-0.244651	0.000114
C59	C	1.752253	0.088682	0.333447
C60	C	2.085586	0.422015	0.666781
C61	C	1.146609	-0.399974	0.000084
C62	C	1.479943	-0.066641	0.333417
C63	C	1.813276	0.266692	0.666751
C64	C	1.157454	-0.506117	0.000077
C65	C	1.490788	-0.172783	0.333410
C66	C	1.824121	0.160550	0.666743
N67	N	1.124469	-0.240404	0.254319
N68	N	1.457802	0.092929	0.587652
N69	N	1.791135	0.426263	0.920985
C70	C	1.100361	0.248421	0.000090
C71	C	1.433695	0.581754	0.333423
C72	C	1.767028	0.915088	0.666756
C73	C	1.177275	0.299551	0.000094
C74	C	1.510609	0.632884	0.333427
C75	C	1.843942	0.966217	0.666761
C76	C	1.166244	0.407687	0.000084
C77	C	1.499578	0.741021	0.333418
C78	C	1.832911	1.074354	0.666751
C79	C	1.111391	0.140274	0.000099
C80	C	1.444724	0.473608	0.333433
C81	C	1.778058	0.806941	0.666766
N82	N	1.153179	-0.211624	-0.254126
N83	N	1.486512	0.121710	0.079208
N84	N	1.819846	0.455043	0.412541
C85	C	1.112134	-0.252782	0.473432
C86	C	1.445467	0.080551	0.806765
C87	C	1.778800	0.413885	1.140098
C88	C	1.165511	-0.199249	0.526768
C89	C	1.498844	0.134085	0.860102
C90	C	1.832178	0.467418	1.193435
C91	C	1.158648	-0.206136	0.648690
C92	C	1.491981	0.127198	0.982024
C93	C	1.825314	0.460531	1.315357
C94	C	1.118996	-0.245896	0.351499
C95	C	1.452329	0.087437	0.684832
C96	C	1.785662	0.420771	1.018165
H97	H	1.251413	0.262115	0.000029
H98	H	1.584746	0.595449	0.333362
H99	H	1.918079	0.928782	0.666696
O100	O	1.011992	0.293226	0.000133
O101	O	1.345325	0.626559	0.333466
O102	O	1.678659	0.959892	0.666800
C103	C	1.020515	0.392785	0.000102
C104	C	1.353848	0.726118	0.333435
C105	C	1.687182	1.059452	0.666768
H106	H	1.091171	0.407834	0.033919
H107	H	1.424504	0.741167	0.367252
H108	H	1.757838	1.074500	0.700585
H109	H	0.958841	0.425281	0.051966
H110	H	1.292174	0.758614	0.385299
H111	H	1.625508	1.091947	0.718633
H112	H	1.018425	0.425747	-0.085602
H113	H	1.351758	0.759080	0.247731
H114	H	1.685091	1.092414	0.581065
O115	O	0.657805	-0.352959	-0.000078
O116	O	0.991138	-0.019625	0.333255
O117	O	1.324471	0.313708	0.666589
C118	C	0.636284	-0.397574	-0.092621
C119	C	0.969618	-0.064241	0.240713
C120	C	1.302951	0.269092	0.574046
H121	H	0.566712	-0.364070	-0.123444
H122	H	0.900045	-0.030737	0.209889
H123	H	1.233378	0.302596	0.543222
H124	H	0.628134	-0.477107	-0.071834
H125	H	0.961467	-0.143774	0.261499
H126	H	1.294801	0.189560	0.594832
H127	H	0.696603	-0.387624	-0.157414
H128	H	1.029937	-0.054291	0.175919
H129	H	1.363270	0.279042	0.509252
H130	H	1.061285	-0.303783	0.519330
H131	H	1.394619	0.029550	0.852663
H132	H	1.727952	0.362883	1.185997
O133	O	1.225974	-0.138294	0.471849
O134	O	1.559308	0.195039	0.805182
O135	O	1.892641	0.528373	1.138515
C136	C	1.219303	-0.144742	0.360578
C137	C	1.552636	0.188591	0.693911
C138	C	1.885969	0.521924	1.027244
H139	H	1.191258	-0.216913	0.345276
H140	H	1.524591	0.116421	0.678609
H141	H	1.857925	0.449754	1.011942
H142	H	1.292981	-0.137448	0.317635
H143	H	1.626314	0.195885	0.650968
H144	H	1.959648	0.529218	0.984301
H145	H	1.168276	-0.085082	0.328846
H146	H	1.501609	0.248252	0.662179
H147	H	1.834943	0.581585	0.995513
O148	O	0.619578	-0.099189	0.000049
O149	O	0.952911	0.234145	0.333383
O150	O	1.286244	0.567478	0.666716
C151	C	0.520018	-0.107712	0.000084
C152	C	0.853352	0.225622	0.333417
C153	C	1.186685	0.558955	0.666751
H154	H	0.504964	-0.178363	-0.033732
H155	H	0.838298	0.154970	0.299602
H156	H	1.171631	0.488303	0.632935
H157	H	0.487515	-0.046031	-0.051780
H158	H	0.820848	0.287302	0.281554
H159	H	1.154181	0.620635	0.614887
H160	H	0.487070	-0.105632	0.085789
H161	H	0.820403	0.227702	0.419122
H162	H	1.153736	0.561035	0.752455
