data_functionalizedCrystal
_audit_creation_method	'MofGen! by Chris Wilmer'
_symmetry_space_group_name_H-M	'P1'
_symmetry_Int_Tables_number	1
_symmetry_cell_setting	triclinic
loop_
_symmetry_equiv_pos_as_xyz
  x,y,z
_cell_length_a	15.944551
_cell_length_b	17.038272
_cell_length_c	15.021413
_cell_angle_alpha	90.004029
_cell_angle_beta	89.997174
_cell_angle_gamma	87.305147
loop_
_atom_site_label
_atom_site_type_symbol
_atom_site_fract_x
_atom_site_fract_y
_atom_site_fract_z
O1	O	1.121728	0.100827	-0.073940
O2	O	1.621728	0.600827	0.426060
O3	O	0.878066	0.113259	-0.073962
O4	O	1.378066	0.613259	0.426038
O5	O	0.998449	-0.006773	-0.073944
O6	O	1.498449	0.493227	0.426056
O7	O	1.001345	0.220859	-0.073958
O8	O	1.501345	0.720859	0.426042
O9	O	0.998429	-0.006755	0.074120
O10	O	1.498429	0.493245	0.574120
O11	O	0.878046	0.113277	0.074102
O12	O	1.378046	0.613277	0.574102
O13	O	1.121708	0.100844	0.074125
O14	O	1.621708	0.600844	0.574125
Zn15	Zn	0.999874	0.107063	0.097622
Zn16	Zn	1.499874	0.607063	0.597622
Zn17	Zn	0.999900	0.107041	-0.097459
Zn18	Zn	1.499900	0.607041	0.402541
O19	O	1.001326	0.220876	0.074107
O20	O	1.501326	0.720876	0.574107
C21	C	0.846725	0.112752	0.000067
C22	C	1.346725	0.612752	0.500067
C23	C	0.753369	0.111205	0.000059
C24	C	1.253369	0.611205	0.500059
C25	C	0.995805	-0.035893	0.000088
C26	C	1.495805	0.464107	0.500088
C27	C	0.987945	-0.122688	0.000087
C28	C	1.487945	0.377312	0.500087
C29	C	0.532936	0.033105	0.000081
C30	C	1.032936	0.533105	0.500081
C31	C	0.474515	0.069363	-0.072924
C32	C	0.974515	0.569363	0.427076
C33	C	0.582443	0.108405	0.000070
C34	C	1.082443	0.608405	0.500070
C35	C	0.474519	0.069398	0.073055
C36	C	0.974519	0.569398	0.573055
C37	C	0.417337	0.105696	0.000084
C38	C	0.917337	0.605696	0.500084
C39	C	0.525252	0.144684	-0.072996
C40	C	1.025252	0.644684	0.427004
C41	C	0.525262	0.144709	0.073049
C42	C	1.025262	0.644709	0.573049
C43	C	0.466862	0.181022	0.000026
C44	C	0.966862	0.681022	0.500026
C45	C	0.677557	0.109964	0.000061
C46	C	1.177557	0.609964	0.500061
C47	C	0.322225	0.104143	0.000087
C48	C	0.822225	0.604143	0.500087
C49	C	1.060103	-0.172781	0.000094
C50	C	1.560103	0.327219	0.500094
C51	C	1.052713	-0.254334	0.000085
C52	C	1.552713	0.245666	0.500085
C53	C	0.973165	-0.285792	0.000075
C54	C	1.473165	0.214208	0.500075
C55	C	0.901002	-0.235693	0.000065
C56	C	1.401002	0.264307	0.500065
C57	C	0.908393	-0.154142	0.000068
C58	C	1.408393	0.345858	0.500068
C59	C	0.947056	-0.531558	0.000061
C60	C	1.447056	-0.031558	0.500061
C61	C	0.939671	-0.613115	0.000060
C62	C	1.439671	-0.113115	0.500060
C63	C	1.091383	-0.631751	0.000079
C64	C	1.591383	-0.131751	0.500079
C65	C	1.098766	-0.550197	0.000087
C66	C	1.598766	-0.050197	0.500087
C67	C	1.026603	-0.500105	0.000072
C68	C	1.526603	-0.000105	0.500072
C69	C	0.965610	-0.369152	0.000069
C70	C	1.465610	0.130848	0.500069
C71	C	1.034159	-0.416747	0.000073
C72	C	1.534159	0.083253	0.500073
C73	C	1.153049	0.101352	0.000093
C74	C	1.653049	0.601352	0.500093
C75	C	1.246405	0.102899	0.000096
C76	C	1.746405	0.602899	0.500096
C77	C	1.003969	0.249997	0.000073
C78	C	1.503969	0.749997	0.500073
C79	C	1.011829	0.336792	0.000068
C80	C	1.511829	0.836792	0.500068
N81	N	0.999863	0.107078	0.230759
N82	N	1.499863	0.607078	0.730759
N83	N	0.999917	0.107019	-0.230597
N84	N	1.499917	0.607019	0.269403
C85	C	0.944187	0.162555	0.470434
C86	C	1.444187	0.662555	0.970434
C87	C	1.021171	0.177734	0.529775
C88	C	1.521171	0.677734	1.029775
C89	C	0.999883	0.107059	0.412366
C90	C	1.499883	0.607059	0.912366
C91	C	0.922921	0.091897	0.529768
C92	C	1.422921	0.591897	1.029768
C93	C	0.999896	0.107041	0.587790
C94	C	1.499896	0.607041	1.087790
C95	C	1.076908	0.122273	0.470400
C96	C	1.576908	0.622273	0.970400
C97	C	0.978606	0.036405	0.470388
C98	C	1.478606	0.536405	0.970388
C99	C	1.055643	0.051554	0.529702
C100	C	1.555643	0.551554	1.029702
C101	C	0.999875	0.107070	0.311309
C102	C	1.499875	0.607070	0.811309
C103	C	0.999913	0.107029	0.688846
C104	C	1.499913	0.607029	1.188846
H105	H	0.452139	0.037507	-0.134642
H106	H	0.952139	0.537507	0.365358
H107	H	0.897140	0.209524	0.444412
H108	H	1.397140	0.709524	0.944412
H109	H	0.561807	-0.029389	-0.000005
H110	H	1.061807	0.470611	0.499995
H111	H	0.438170	0.243580	-0.000019
H112	H	0.938170	0.743580	0.499981
C113	C	1.011777	-0.102477	0.466359
C114	C	1.511777	0.397523	0.966359
C115	C	0.954267	-0.044217	0.435136
C116	C	1.454267	0.455783	0.935136
H117	H	0.996740	-0.152250	0.444597
H118	H	1.496740	0.347750	0.944597
H119	H	1.066492	-0.091781	0.446065
H120	H	1.566492	0.408219	0.946065
H121	H	1.011089	-0.102920	0.529592
H122	H	1.511089	0.397080	1.029592
H123	H	0.954959	-0.043771	0.371903
H124	H	1.454959	0.456229	0.871903
H125	H	0.899538	-0.054916	0.455425
H126	H	1.399538	0.445084	0.955425
C127	C	0.776832	0.132786	0.535041
C128	C	1.276832	0.632786	1.035041
C129	C	0.835051	0.074585	0.564965
C130	C	1.335051	0.574585	1.064965
H131	H	0.722584	0.122098	0.556764
H132	H	1.222584	0.622098	1.056764
H133	H	0.792332	0.182583	0.556254
H134	H	1.292332	0.682583	1.056254
H135	H	0.776090	0.133139	0.471807
H136	H	1.276090	0.633139	0.971807
H137	H	0.835798	0.074236	0.628199
H138	H	1.335798	0.574236	1.128199
H139	H	0.819548	0.024775	0.543757
H140	H	1.319548	0.524775	1.043757
C141	C	0.987070	0.316419	0.535090
C142	C	1.487070	0.816419	1.035090
C143	C	1.045482	0.258379	0.564999
C144	C	1.545482	0.758379	1.064999
H145	H	1.002073	0.366206	0.556840
H146	H	1.502073	0.866206	1.056840
H147	H	0.986745	0.317153	0.471865
H148	H	1.486745	0.817153	0.971865
H149	H	0.932778	0.305265	0.556296
H150	H	1.432778	0.805265	1.056296
H151	H	1.099773	0.269531	0.543788
H152	H	1.599773	0.769531	1.043788
H153	H	1.045815	0.257647	0.628237
H154	H	1.545815	0.757647	1.128237
C155	C	0.769432	-0.244926	-0.076073
C156	C	1.269432	0.255074	0.423927
C157	C	0.813562	-0.270272	0.000049
C158	C	1.313562	0.229728	0.500049
H159	H	0.715451	-0.266278	-0.076082
H160	H	1.215451	0.233722	0.423918
H161	H	0.763505	-0.189195	-0.076066
H162	H	1.263505	0.310805	0.423934
H163	H	0.799406	-0.262128	-0.127695
H164	H	1.299406	0.237872	0.372305
H165	H	0.783591	-0.253065	0.051672
H166	H	1.283591	0.246935	0.551672
H167	H	0.819485	-0.326015	0.000051
H168	H	1.319485	0.173985	0.500051
C169	C	0.520757	0.264693	0.157122
C170	C	1.020757	0.764693	0.657122
C171	C	0.555504	0.187676	0.156368
C172	C	1.055504	0.687676	0.656368
H173	H	0.539427	0.291212	0.208568
H174	H	1.039427	0.791212	0.708568
H175	H	0.538026	0.291502	0.105305
H176	H	1.038026	0.791502	0.605305
H177	H	0.461252	0.263596	0.158019
H178	H	0.961252	0.763596	0.658019
H179	H	0.615010	0.188774	0.155464
H180	H	1.115010	0.688774	0.655464
H181	H	0.538241	0.160861	0.208198
H182	H	1.038241	0.660861	0.708198
C183	C	0.643063	0.188656	-0.155685
C184	C	1.143063	0.688656	0.344315
C185	C	0.555305	0.187631	-0.156415
C186	C	1.055305	0.687631	0.343585
H187	H	0.661616	0.215164	-0.207187
H188	H	1.161616	0.715164	0.292813
H189	H	0.660844	0.215231	-0.103916
H190	H	1.160844	0.715231	0.396084
H191	H	0.666245	0.136266	-0.155472
H192	H	1.166245	0.636266	0.344528
H193	H	0.532123	0.240021	-0.156621
H194	H	1.032123	0.740021	0.343379
H195	H	0.537516	0.161058	-0.208197
H196	H	1.037516	0.661058	0.291803
H197	H	0.452150	0.037542	0.134774
H198	H	0.952150	0.537542	0.634774
H199	H	0.888296	-0.490782	0.000049
H200	H	1.388296	0.009218	0.500049
H201	H	1.163543	-0.524590	0.000096
H202	H	1.663543	-0.024590	0.500096
C203	C	1.118307	-0.011741	0.657831
C204	C	1.618307	0.488259	1.157831
C205	C	1.119299	-0.011818	0.564621
C206	C	1.619299	0.488182	1.064621
H207	H	1.157603	-0.050866	0.679388
H208	H	1.657603	0.449134	1.179388
H209	H	1.132966	0.038306	0.679060
H210	H	1.632966	0.538306	1.179060
H211	H	1.063679	-0.022625	0.678259
H212	H	1.563679	0.477375	1.178259
H213	H	1.173926	-0.000928	0.544193
H214	H	1.673926	0.499072	1.044193
H215	H	1.104644	-0.061877	0.543384
H216	H	1.604644	0.438123	1.043384
H217	H	1.124879	-0.147175	0.000108
H218	H	1.624879	0.352825	0.500108
H219	H	0.849634	-0.113356	0.000061
H220	H	1.349634	0.386644	0.500061
C221	C	1.218426	-0.672741	-0.076024
C222	C	1.718426	-0.172741	0.423976
C223	C	1.170702	-0.686811	0.000085
C224	C	1.670702	-0.186811	0.500085
H225	H	1.267399	-0.706731	-0.076019
H226	H	1.767399	-0.206731	0.423981
H227	H	1.186054	-0.682284	-0.127650
H228	H	1.686054	-0.182284	0.372350
H229	H	1.234203	-0.619668	-0.076011
H230	H	1.734203	-0.119668	0.423989
H231	H	1.154920	-0.739884	0.000068
H232	H	1.654920	-0.239884	0.500068
H233	H	1.203081	-0.677275	0.051724
H234	H	1.703081	-0.177275	0.551724
H235	H	1.111472	-0.295117	0.000093
H236	H	1.611472	0.204883	0.500093
H237	H	1.098927	-0.391130	0.000061
H238	H	1.598927	0.108870	0.500061
H239	H	0.874891	-0.638725	0.000067
H240	H	1.374891	-0.138725	0.500067
H241	H	0.900842	-0.394774	0.000062
H242	H	1.400842	0.105226	0.500062
H243	H	1.142018	0.135160	0.444432
H244	H	1.642018	0.635160	0.944432
