data_functionalizedCrystal
_audit_creation_method	'MofGen! by Chris Wilmer'
_symmetry_space_group_name_H-M	'P1'
_symmetry_Int_Tables_number	1
_symmetry_cell_setting	triclinic
loop_
_symmetry_equiv_pos_as_xyz
  x,y,z
_cell_length_a	18.050591
_cell_length_b	18.050589
_cell_length_c	18.050591
_cell_angle_alpha	90.002114
_cell_angle_beta	90.007198
_cell_angle_gamma	90.024669
loop_
_atom_site_label
_atom_site_type_symbol
_atom_site_fract_x
_atom_site_fract_y
_atom_site_fract_z
Zn1	Zn	1.135200	-0.295895	0.420031
Zn2	Zn	1.468534	0.037438	0.753364
Zn3	Zn	1.801867	0.370772	1.086697
Zn4	Zn	1.135138	-0.420043	0.295850
Zn5	Zn	1.468472	-0.086710	0.629184
Zn6	Zn	1.801805	0.246623	0.962517
Zn7	Zn	1.011047	-0.295864	0.295844
Zn8	Zn	1.344380	0.037469	0.629178
Zn9	Zn	1.677713	0.370803	0.962511
Zn10	Zn	1.010968	-0.420040	0.419988
Zn11	Zn	1.344301	-0.086707	0.753321
Zn12	Zn	1.677634	0.246627	1.086655
O13	O	1.073088	-0.357961	0.357928
O14	O	1.406422	-0.024627	0.691262
O15	O	1.739755	0.308706	1.024595
O16	O	1.239117	-0.312378	0.403578
O17	O	1.572450	0.020955	0.736911
O18	O	1.905783	0.354289	1.070245
O19	O	1.118684	-0.403559	0.191925
O20	O	1.452018	-0.070226	0.525258
O21	O	1.785351	0.263107	0.858592
O22	O	1.027575	-0.191944	0.312333
O23	O	1.360909	0.141390	0.645667
O24	O	1.694242	0.474723	0.979000
O25	O	1.239071	-0.403589	0.312343
O26	O	1.572404	-0.070256	0.645677
O27	O	1.905738	0.263077	0.979010
O28	O	1.118790	-0.191966	0.403572
O29	O	1.452124	0.141367	0.736906
O30	O	1.785457	0.474700	1.070239
O31	O	1.027515	-0.312325	0.191921
O32	O	1.360848	0.021008	0.525254
O33	O	1.694182	0.354341	0.858587
O34	O	0.907112	-0.312322	0.312292
O35	O	1.240445	0.021011	0.645625
O36	O	1.573778	0.354345	0.978959
O37	O	1.027440	-0.403583	0.523918
O38	O	1.360773	-0.070250	0.857252
O39	O	1.694107	0.263083	1.190585
O40	O	0.907054	-0.403553	0.403500
O41	O	1.240387	-0.070220	0.736833
O42	O	1.573720	0.263113	1.070167
O43	O	1.118713	-0.312375	0.523950
O44	O	1.452047	0.020959	0.857283
O45	O	1.785380	0.354292	1.190616
O46	O	1.118608	-0.523968	0.312302
O47	O	1.451941	-0.190634	0.645635
O48	O	1.785274	0.142699	0.978969
O49	O	1.027380	-0.523965	0.403506
O50	O	1.360713	-0.190632	0.736839
O51	O	1.694047	0.142702	1.070172
C52	C	0.880136	-0.357934	0.357891
C53	C	1.213469	-0.024601	0.691225
C54	C	1.546803	0.308732	1.024558
C55	C	0.797590	-0.357941	0.357893
C56	C	1.130924	-0.024608	0.691226
C57	C	1.464257	0.308726	1.024560
C58	C	0.548775	-0.308278	0.308411
C59	C	0.882108	0.025055	0.641745
C60	C	1.215442	0.358389	0.975078
C61	C	0.598192	-0.290216	0.376186
C62	C	0.931525	0.043117	0.709519
C63	C	1.264859	0.376451	1.042853
C64	C	0.500470	-0.357979	0.357954
C65	C	0.833803	-0.024646	0.691287
C66	C	1.167137	0.308688	1.024620
C67	C	0.598135	-0.375987	0.290153
C68	C	0.931468	-0.042654	0.623486
C69	C	1.264801	0.290679	0.956820
C70	C	0.646455	-0.357959	0.357920
C71	C	0.979788	-0.024625	0.691254
C72	C	1.313122	0.308708	1.024587
C73	C	0.548800	-0.339882	0.425764
C74	C	0.882133	-0.006549	0.759098
C75	C	1.215467	0.326785	1.092431
C76	C	0.548738	-0.425685	0.339686
C77	C	0.882071	-0.092352	0.673019
C78	C	1.215405	0.240982	1.006352
C79	C	0.598133	-0.407649	0.407507
C80	C	0.931466	-0.074315	0.740840
C81	C	1.264800	0.259018	1.074174
C82	C	0.416372	-0.357989	0.357972
C83	C	0.749705	-0.024656	0.691305
C84	C	1.083038	0.308678	1.024639
C85	C	0.730552	-0.357949	0.357910
C86	C	1.063885	-0.024615	0.691243
C87	C	1.397218	0.308718	1.024576
C88	C	1.072999	-0.550913	0.357916
C89	C	1.406332	-0.217579	0.691249
C90	C	1.739665	0.115754	1.024583
C91	C	1.073028	-0.633459	0.357936
C92	C	1.406362	-0.300125	0.691269
C93	C	1.739695	0.033208	1.024602
C94	C	1.023467	-0.832935	0.407515
C95	C	1.356801	-0.499601	0.740848
C96	C	1.690134	-0.166268	1.074181
C97	C	1.005384	-0.882349	0.339746
C98	C	1.338718	-0.549015	0.673079
C99	C	1.672051	-0.215682	1.006413
C100	C	1.073101	-0.784589	0.357945
C101	C	1.406434	-0.451256	0.691279
C102	C	1.739768	-0.117922	1.024612
C103	C	1.091221	-0.882257	0.425722
C104	C	1.424554	-0.548923	0.759055
C105	C	1.757887	-0.215590	1.092389
C106	C	1.073170	-0.930574	0.357961
C107	C	1.406504	-0.597241	0.691294
C108	C	1.739837	-0.263907	1.024627
C109	C	1.054983	-0.832915	0.290141
C110	C	1.388316	-0.499582	0.623474
C111	C	1.721649	-0.166249	0.956807
C112	C	1.140850	-0.832819	0.376162
C113	C	1.474184	-0.499486	0.709495
C114	C	1.807517	-0.166153	1.042829
C115	C	1.122793	-0.882211	0.308347
C116	C	1.456126	-0.548877	0.641680
C117	C	1.789460	-0.215544	0.975013
C118	C	1.073059	-0.700491	0.357937
C119	C	1.406393	-0.367157	0.691271
C120	C	1.739726	-0.033824	1.024604
C121	C	1.073212	-1.014670	0.357961
C122	C	1.406545	-0.681337	0.691294
C123	C	1.739879	-0.348004	1.024627
C124	C	1.266794	-0.357987	0.357966
C125	C	1.600127	-0.024654	0.691299
C126	C	1.933461	0.308679	1.024633
C127	C	1.349340	-0.357999	0.357982
C128	C	1.682673	-0.024666	0.691315
C129	C	2.016006	0.308668	1.024649
C130	C	1.073075	-0.357982	0.551634
C131	C	1.406408	-0.024649	0.884967
C132	C	1.739742	0.308685	1.218301
C133	C	1.073069	-0.357991	0.634180
C134	C	1.406402	-0.024658	0.967513
C135	C	1.739736	0.308675	1.300846
C136	C	1.073198	-0.164255	0.357957
C137	C	1.406532	0.169078	0.691290
C138	C	1.739865	0.502412	1.024624
C139	C	1.073245	-0.081709	0.357969
C140	C	1.406579	0.251624	0.691303
C141	C	1.739912	0.584957	1.024636
C142	C	1.023423	-0.407583	0.882988
C143	C	1.356756	-0.074249	1.216322
C144	C	1.690089	0.259084	1.549655
C145	C	1.005294	-0.339830	0.833594
C146	C	1.338627	-0.006496	1.166927
C147	C	1.671961	0.326837	1.500260
C148	C	1.073062	-0.357969	0.931300
C149	C	1.406395	-0.024636	1.264633
C150	C	1.739729	0.308697	1.597967
C151	C	1.091159	-0.425729	0.833613
C152	C	1.424493	-0.092396	1.166946
C153	C	1.757826	0.240938	1.500280
C154	C	1.073064	-0.357984	0.785315
C155	C	1.406397	-0.024650	1.118648
C156	C	1.739730	0.308683	1.451982
C157	C	1.054898	-0.290180	0.882993
C158	C	1.388232	0.043153	1.216326
C159	C	1.721565	0.376486	1.549659
C160	C	1.140795	-0.376125	0.883016
C161	C	1.474128	-0.042792	1.216350
C162	C	1.807462	0.290541	1.549683
C163	C	1.122692	-0.308326	0.833644
C164	C	1.456026	0.025008	1.166977
C165	C	1.789359	0.358341	1.500311
C166	C	1.073059	-0.357962	1.015398
C167	C	1.406393	-0.024629	1.348732
C168	C	1.739726	0.308705	1.682065
C169	C	1.073067	-0.357983	0.701218
C170	C	1.406400	-0.024650	1.034552
C171	C	1.739733	0.308683	1.367885
C172	C	1.073085	-0.357959	1.164976
C173	C	1.406419	-0.024626	1.498310
C174	C	1.739752	0.308707	1.831643
C175	C	1.073059	-0.357961	1.082430
C176	C	1.406392	-0.024627	1.415764
C177	C	1.739726	0.308706	1.749097
H178	H	0.619668	-0.449671	0.449437
H179	H	0.953001	-0.116337	0.782771
H180	H	1.286334	0.216996	1.116104
H181	H	1.198098	-0.811049	0.391589
H182	H	1.531432	-0.477716	0.724922
H183	H	1.864765	-0.144382	1.058255
H184	H	0.527000	-0.482935	0.324224
H185	H	0.860333	-0.149601	0.657557
H186	H	1.193667	0.183732	0.990890
H187	H	0.981411	-0.449480	0.904655
H188	H	1.314745	-0.116147	1.237989
H189	H	1.648078	0.217187	1.571322
O190	O	0.523186	-0.321637	0.494224
O191	O	0.856519	0.011697	0.827558
O192	O	1.189853	0.345030	1.160891
C193	C	0.583586	-0.308851	0.542089
C194	C	0.916919	0.024482	0.875422
C195	C	1.250253	0.357816	1.208755
H196	H	0.634589	-0.338879	0.520089
H197	H	0.967923	-0.005546	0.853423
H198	H	1.301256	0.327788	1.186756
H199	H	0.569673	-0.330473	0.599774
H200	H	0.903006	0.002860	0.933107
H201	H	1.236339	0.336194	1.266441
H202	H	0.595337	-0.246864	0.545108
H203	H	0.928670	0.086469	0.878442
H204	H	1.262003	0.419803	1.211775
H205	H	0.619807	-0.391227	0.232829
H206	H	0.953140	-0.057894	0.566162
H207	H	1.286474	0.275440	0.899495
O208	O	0.973223	-0.807149	0.457370
O209	O	1.306556	-0.473816	0.790703
O210	O	1.639890	-0.140483	1.124036
C211	C	0.901906	-0.832406	0.437898
C212	C	1.235239	-0.499072	0.771232
C213	C	1.568573	-0.165739	1.104565
H214	H	0.900566	-0.846269	0.376297
H215	H	1.233899	-0.512936	0.709631
H216	H	1.567233	-0.179603	1.042964
H217	H	0.859507	-0.787272	0.450237
H218	H	1.192841	-0.453939	0.783571
H219	H	1.526174	-0.120605	1.116904
H220	H	0.887975	-0.884097	0.471414
H221	H	1.221308	-0.550764	0.804747
H222	H	1.554642	-0.217430	1.138080
O223	O	0.937078	-0.908396	0.321468
O224	O	1.270411	-0.575062	0.654801
O225	O	1.603744	-0.241729	0.988134
C226	C	0.909533	-0.952453	0.379793
C227	C	1.242867	-0.619120	0.713127
C228	C	1.576200	-0.285787	1.046460
H229	H	0.957728	-0.974061	0.414411
H230	H	1.291062	-0.640727	0.747745
H231	H	1.624395	-0.307394	1.081078
H232	H	0.877218	-1.001200	0.355923
H233	H	1.210551	-0.667867	0.689257
H234	H	1.543884	-0.334533	1.022590
H235	H	0.871382	-0.917727	0.416209
H236	H	1.204715	-0.584394	0.749542
H237	H	1.538048	-0.251060	1.082876
H238	H	1.106466	-0.483027	0.811923
H239	H	1.439799	-0.149694	1.145256
H240	H	1.773133	0.183640	1.478590
H241	H	1.039618	-0.811332	0.232813
H242	H	1.372952	-0.477999	0.566146
H243	H	1.706285	-0.144665	0.899480
O244	O	1.172819	-0.907833	0.258190
O245	O	1.506152	-0.574500	0.591524
O246	O	1.839486	-0.241167	0.924857
C247	C	1.153487	-0.882541	0.186863
C248	C	1.486820	-0.549207	0.520197
C249	C	1.820154	-0.215874	0.853530
H250	H	1.091867	-0.868808	0.185388
H251	H	1.425200	-0.535474	0.518721
H252	H	1.758533	-0.202141	0.852054
H253	H	1.166010	-0.927601	0.144426
H254	H	1.499344	-0.594268	0.477759
H255	H	1.832677	-0.260935	0.811093
H256	H	1.186951	-0.830762	0.173099
H257	H	1.520284	-0.497429	0.506432
H258	H	1.853618	-0.164096	0.839765
O259	O	1.109435	-0.908238	0.494056
O260	O	1.442768	-0.574905	0.827389
O261	O	1.776101	-0.241571	1.160722
C262	C	1.109895	-0.986339	0.492942
C263	C	1.443228	-0.653006	0.826276
C264	C	1.776562	-0.319672	1.159609
H265	H	1.073500	-1.006947	0.445609
H266	H	1.406833	-0.673614	0.778943
H267	H	1.740167	-0.340281	1.112276
H268	H	1.087548	-1.008317	0.547772
H269	H	1.420882	-0.674983	0.881106
H270	H	1.754215	-0.341650	1.214439
H271	H	1.169007	-1.006907	0.484546
H272	H	1.502340	-0.673574	0.817879
H273	H	1.835674	-0.340241	1.151212
O274	O	0.522875	-0.258215	0.258427
O275	O	0.856209	0.075119	0.591760
O276	O	1.189542	0.408452	0.925093
C277	C	0.479867	-0.295025	0.204588
C278	C	0.813200	0.038308	0.537922
C279	C	1.146534	0.371642	0.871255
H280	H	0.496679	-0.355847	0.202189
H281	H	0.830012	-0.022513	0.535522
H282	H	1.163345	0.310820	0.868855
H283	H	0.489401	-0.268304	0.148163
H284	H	0.822735	0.065029	0.481497
H285	H	1.156068	0.398363	0.814830
H286	H	0.418744	-0.290690	0.219876
H287	H	0.752078	0.042644	0.553210
H288	H	1.085411	0.375977	0.886543
H289	H	1.164672	-0.266327	0.812115
H290	H	1.498005	0.067006	1.145448
H291	H	1.831338	0.400340	1.478782
H292	H	0.619901	-0.232947	0.391637
H293	H	0.953234	0.100386	0.724970
H294	H	1.286568	0.433719	1.058304
H295	H	0.948014	-0.324474	0.811885
H296	H	1.281348	0.008859	1.145218
H297	H	1.614681	0.342192	1.478552
O298	O	1.036531	-0.221858	0.908879
O299	O	1.369864	0.111475	1.242212
O300	O	1.703197	0.444808	1.575545
C301	C	1.036737	-0.222679	0.986984
C302	C	1.370070	0.110654	1.320318
C303	C	1.703404	0.443987	1.653651
H304	H	1.028450	-0.281858	1.007431
H305	H	1.361783	0.051475	1.340764
H306	H	1.695116	0.384809	1.674097
H307	H	0.989906	-0.186223	1.008543
H308	H	1.323239	0.147111	1.341876
H309	H	1.656572	0.480444	1.675209
H310	H	1.092021	-0.200622	1.008138
H311	H	1.425354	0.132712	1.341472
H312	H	1.758687	0.466045	1.674805
H313	H	1.198058	-0.391501	0.904741
H314	H	1.531392	-0.058168	1.238074
H315	H	1.864725	0.275166	1.571408
