data_functionalizedCrystal
_audit_creation_method	'MofGen! by Chris Wilmer'
_symmetry_space_group_name_H-M	'P1'
_symmetry_Int_Tables_number	1
_symmetry_cell_setting	triclinic
loop_
_symmetry_equiv_pos_as_xyz
  x,y,z
_cell_length_a	12.759395
_cell_length_b	17.640280
_cell_length_c	12.759387
_cell_angle_alpha	78.768503
_cell_angle_beta	89.979491
_cell_angle_gamma	78.802277
loop_
_atom_site_label
_atom_site_type_symbol
_atom_site_fract_x
_atom_site_fract_y
_atom_site_fract_z
Zn1	Zn	1.690820	-0.314594	-0.509546
Zn2	Zn	1.726239	-0.446788	-0.298376
Zn3	Zn	1.515129	-0.314637	-0.333871
Zn4	Zn	1.550624	-0.446732	-0.474030
O5	O	1.620703	-0.380688	-0.403956
O6	O	1.842541	-0.332135	-0.481542
O7	O	1.698204	-0.429300	-0.156052
O8	O	1.508757	-0.204025	-0.386893
O9	O	1.868563	-0.429258	-0.326397
O10	O	1.637836	-0.203994	-0.515961
O11	O	1.543102	-0.332209	-0.182130
O12	O	1.372815	-0.332154	-0.352455
O13	O	1.569253	-0.429162	-0.625774
O14	O	1.398893	-0.429204	-0.455429
O15	O	1.672254	-0.332081	-0.651867
O16	O	1.732621	-0.557387	-0.291959
O17	O	1.603597	-0.557346	-0.421011
C18	C	1.347733	-0.380678	-0.403940
C19	C	1.230960	-0.380693	-0.403954
C20	C	1.675833	-0.586045	-0.348802
C21	C	1.699514	-0.673898	-0.325242
C22	C	1.258197	-0.481915	-0.510919
C23	C	1.216957	-0.532532	-0.564404
C24	C	1.107238	-0.532541	-0.564414
C25	C	1.038755	-0.481927	-0.510937
C26	C	1.079995	-0.431310	-0.457453
C27	C	1.189719	-0.431307	-0.457446
C28	C	1.052757	-0.330086	-0.350495
C29	C	1.162477	-0.330079	-0.350477
C30	C	0.984275	-0.279471	-0.297017
C31	C	1.025516	-0.228857	-0.243526
C32	C	1.135242	-0.228850	-0.243516
C33	C	1.203718	-0.279462	-0.296992
C34	C	1.441233	-0.962865	-0.583319
C35	C	1.463487	-1.045416	-0.561148
C36	C	1.597922	-1.045394	-0.426902
C37	C	1.575683	-0.962841	-0.449066
C38	C	1.497337	-0.921583	-0.527275
C39	C	1.631787	-0.921559	-0.393021
C40	C	1.609546	-0.839013	-0.415179
C41	C	1.531201	-0.797750	-0.493383
C42	C	1.475095	-0.839038	-0.549433
C43	C	1.710128	-0.962818	-0.314807
C44	C	1.766232	-0.921536	-0.258762
C45	C	1.743997	-0.838989	-0.280925
C46	C	1.665651	-0.797726	-0.359129
C47	C	1.800102	-0.797702	-0.224875
C48	C	1.777861	-0.715156	-0.247033
C49	C	1.643410	-0.715180	-0.381287
C50	C	1.894739	-0.380698	-0.403972
C51	C	2.011517	-0.380703	-0.403979
C52	C	1.620761	-0.380610	-0.678010
C53	C	1.620786	-0.380577	-0.794796
C54	C	1.565386	-0.174529	-0.459348
C55	C	1.541814	-0.086676	-0.482953
C56	C	1.728052	-0.279493	-0.821985
C57	C	1.781697	-0.228939	-0.890443
C58	C	1.781715	-0.228910	-1.000173
C59	C	1.728080	-0.279439	-1.041445
C60	C	1.674435	-0.329993	-0.972987
C61	C	1.674426	-0.330018	-0.863256
C62	C	1.567164	-0.431072	-0.945799
C63	C	1.567151	-0.431106	-0.836068
C64	C	1.513529	-0.481601	-0.987072
C65	C	1.459890	-0.532160	-0.918612
C66	C	1.459875	-0.532188	-0.808876
C67	C	1.513507	-0.481660	-0.767610
C68	C	1.620690	-0.380708	-0.130983
C69	C	1.620809	-0.380518	-0.014258
H70	H	1.347539	-0.481918	-0.510907
H71	H	0.894936	-0.279479	-0.297035
H72	H	1.272727	-0.573739	-0.607946
H73	H	1.073660	-0.573754	-0.607972
H74	H	1.293059	-0.279463	-0.296986
Cl75	Cl	1.392464	-0.595671	-0.970505
H76	H	1.863884	-0.831306	-0.161190
H77	H	1.411305	-0.805444	-0.613127
Cl78	Cl	1.187076	-0.165209	-0.176281
Cl79	Cl	1.544925	-0.663307	-0.479619
Cl80	Cl	1.342748	-0.910992	-0.681652
H81	H	1.416177	-0.573347	-0.753145
H82	H	1.825389	-0.187740	-1.055914
H83	H	1.513542	-0.481571	-1.076421
H84	H	1.513505	-0.481681	-0.678263
Cl85	Cl	1.728092	-0.279394	-1.179394
H86	H	0.949415	-0.481932	-0.510961
H87	H	1.825363	-0.187798	-0.856827
Cl88	Cl	1.392934	-1.097311	-0.631602
Cl89	Cl	1.728052	-0.279537	-0.684036
Cl90	Cl	1.848382	-0.663255	-0.176566
Cl91	Cl	1.738127	-1.066591	-0.286988
Cl92	Cl	0.939419	-0.165229	-0.176314
H93	H	1.513086	-0.730536	-0.511415
H94	H	1.661709	-1.078997	-0.363221
Cl95	Cl	1.864724	-0.973411	-0.160448
