data_functionalizedCrystal
_audit_creation_method	'MofGen! by Chris Wilmer'
_symmetry_space_group_name_H-M	'P1'
_symmetry_Int_Tables_number	1
_symmetry_cell_setting	triclinic
loop_
_symmetry_equiv_pos_as_xyz
  x,y,z
_cell_length_a	16.959455
_cell_length_b	16.959453
_cell_length_c	16.959447
_cell_angle_alpha	90.031064
_cell_angle_beta	90.020374
_cell_angle_gamma	90.017008
loop_
_atom_site_label
_atom_site_type_symbol
_atom_site_fract_x
_atom_site_fract_y
_atom_site_fract_z
Zn1	Zn	1.208384	-0.314729	0.447032
Zn2	Zn	1.208307	-0.446921	0.314852
Zn3	Zn	1.076213	-0.314754	0.314856
Zn4	Zn	1.076178	-0.446862	0.446977
O5	O	1.142270	-0.380816	0.380929
O6	O	1.318985	-0.332279	0.429520
O7	O	1.190767	-0.429424	0.204242
O8	O	1.093793	-0.204140	0.332414
O9	O	1.318928	-0.429400	0.332408
O10	O	1.190899	-0.204121	0.429524
O11	O	1.093718	-0.332321	0.204244
O12	O	0.965597	-0.332264	0.332360
O13	O	1.093733	-0.429299	0.557595
O14	O	0.965571	-0.429324	0.429429
O15	O	1.190864	-0.332221	0.557636
O16	O	1.190733	-0.557524	0.332354
O17	O	1.093658	-0.557481	0.429425
C18	C	0.936904	-0.380791	0.380889
C19	C	0.849048	-0.380799	0.380891
C20	C	0.477532	-0.431337	0.330337
C21	C	0.477612	-0.330361	0.431617
C22	C	0.560158	-0.330348	0.431598
C23	C	0.601395	-0.380831	0.380948
C24	C	0.560085	-0.431328	0.330318
C25	C	0.601474	-0.279859	0.482234
C26	C	0.684025	-0.279844	0.482217
C27	C	0.725263	-0.330324	0.431563
C28	C	0.683948	-0.380822	0.380929
C29	C	0.725185	-0.431305	0.330280
C30	C	0.683872	-0.481799	0.279642
C31	C	0.601323	-0.481807	0.279663
C32	C	0.807811	-0.330315	0.431541
C33	C	0.807738	-0.431295	0.330260
C34	C	1.142205	-0.586183	0.380900
C35	C	1.142249	-0.674039	0.380914
C36	C	1.192898	-1.045447	0.431589
C37	C	1.091863	-1.045583	0.330386
C38	C	1.091834	-0.963037	0.330368
C39	C	1.142337	-0.921692	0.380962
C40	C	1.192869	-0.962893	0.431575
C41	C	1.041297	-0.921830	0.279762
C42	C	1.041265	-0.839279	0.279743
C43	C	1.091773	-0.797933	0.330334
C44	C	1.142307	-0.839139	0.380947
C45	C	1.192810	-0.797794	0.431541
C46	C	1.243349	-0.838999	0.482152
C47	C	1.243376	-0.921547	0.482165
C48	C	1.091746	-0.715384	0.330320
C49	C	1.192781	-0.715240	0.431527
C50	C	1.348439	-0.380843	0.380970
C51	C	1.436295	-0.380854	0.380987
C52	C	1.142303	-0.380751	0.587097
C53	C	1.142317	-0.380723	0.674954
C54	C	1.142358	-0.174648	0.380976
C55	C	1.142395	-0.086792	0.380995
C56	C	1.142283	-0.380825	0.175563
C57	C	1.142422	-0.380630	0.087707
C58	C	1.091840	-0.431184	1.046411
C59	C	1.192984	-0.330096	1.046449
C60	C	1.192963	-0.330113	0.963903
C61	C	1.142380	-0.380667	0.922607
C62	C	1.091819	-0.431204	0.963858
C63	C	1.243529	-0.279582	0.922646
C64	C	1.243511	-0.279597	0.840095
C65	C	1.192923	-0.330148	0.798798
C66	C	1.142359	-0.380686	0.840054
C67	C	1.091777	-0.431240	0.798758
C68	C	1.041208	-0.481776	0.840012
C69	C	1.041232	-0.481754	0.922560
C70	C	1.192900	-0.330169	0.716250
C71	C	1.091756	-0.431260	0.716204
H72	H	0.443891	-0.472446	0.289107
C73	C	0.986374	-0.794689	0.224704
C74	C	0.942167	-0.848567	0.180386
C75	C	0.891603	-0.807518	0.129666
H76	H	0.951832	-0.762480	0.254806
H77	H	1.016608	-0.762513	0.190245
H78	H	0.911935	-0.880729	0.214840
H79	H	0.976688	-0.880777	0.150267
H80	H	0.921838	-0.775343	0.095208
H81	H	0.857067	-0.775311	0.159775
H82	H	0.861609	-0.844068	0.099586
H83	H	1.000179	-0.955499	0.238574
H84	H	1.284522	-0.955103	0.523370
C85	C	0.852364	-0.486195	0.275238
C86	C	0.798514	-0.530427	0.230914
C87	C	0.839593	-0.581016	0.180228
H88	H	0.884558	-0.456002	0.240776
H89	H	0.884557	-0.520713	0.305390
H90	H	0.766334	-0.495913	0.200765
H91	H	0.766318	-0.560636	0.265356
H92	H	0.871787	-0.615535	0.210380
H93	H	0.871786	-0.550817	0.145771
H94	H	0.803062	-0.611039	0.150154
C95	C	0.556327	-0.536600	0.224780
C96	C	0.475209	-0.525819	0.235657
C97	C	0.433730	-0.576289	0.185123
H98	H	0.569726	-0.525017	0.171655
H99	H	0.569808	-0.589738	0.236259
H100	H	0.461733	-0.472693	0.224173
H101	H	0.461786	-0.537408	0.288772
H102	H	0.447212	-0.629427	0.196602
H103	H	0.447136	-0.564701	0.132001
H104	H	0.378688	-0.568986	0.192501
H105	H	1.050743	-1.079251	0.289198
H106	H	1.050558	-0.472421	0.682587
H107	H	1.284465	-0.805326	0.523350
C108	C	1.036911	-0.670505	0.275465
C109	C	1.047682	-0.589363	0.286291
C110	C	0.997172	-0.547997	0.235776
H111	H	1.048463	-0.683971	0.222338
H112	H	0.983783	-0.684013	0.286995
H113	H	1.100798	-0.575861	0.274756
H114	H	1.036124	-0.575874	0.339408
H115	H	0.944044	-0.561505	0.247305
H116	H	1.008729	-0.561469	0.182652
H117	H	1.004468	-0.492938	0.243119
H118	H	1.234048	-1.078999	0.472793
C119	C	0.986322	-0.536577	0.795029
C120	C	0.997122	-0.525763	0.713909
C121	C	0.946570	-0.576222	0.672443
H122	H	0.997817	-0.589717	0.808448
H123	H	0.933203	-0.524989	0.808503
H124	H	1.050229	-0.537356	0.700441
H125	H	0.985622	-0.472633	0.700467
H126	H	0.893450	-0.564635	0.685917
H127	H	0.958069	-0.629359	0.685868
H128	H	0.953886	-0.568887	0.617399
H129	H	1.284715	-0.238429	0.956275
H130	H	0.444032	-0.289265	0.472859
H131	H	0.567893	-0.238763	0.523475
C132	C	0.986421	-0.536589	0.967493
C133	C	0.997284	-0.525766	1.048624
C134	C	0.946815	-0.576272	1.090043
H135	H	0.933281	-0.525067	0.954061
H136	H	0.997969	-0.589720	0.953996
H137	H	0.985730	-0.472647	1.062116
H138	H	1.050413	-0.537294	1.062079
H139	H	0.958363	-0.629404	1.076546
H140	H	0.893678	-0.564746	1.076605
H141	H	0.954184	-0.568941	1.145094
C142	C	0.728977	-0.224974	0.537059
C143	C	0.776362	-0.174263	0.492380
C144	C	0.817792	-0.123712	0.542872
H145	H	0.692686	-0.194835	0.567246
H146	H	0.761243	-0.255226	0.571425
H147	H	0.744098	-0.144014	0.458029
H148	H	0.812667	-0.204380	0.462195
H149	H	0.850058	-0.153963	0.577237
H150	H	0.781496	-0.093578	0.573056
H151	H	0.849953	-0.089303	0.512565
C152	C	1.247818	-0.275245	1.091424
C153	C	1.237004	-0.286034	1.172546
C154	C	1.287498	-0.235511	1.214004
H155	H	1.300949	-0.286773	1.077989
H156	H	1.236262	-0.222120	1.077960
H157	H	1.248565	-0.339148	1.186004
H158	H	1.183882	-0.274501	1.186004
H159	H	1.275942	-0.182385	1.200541
H160	H	1.340626	-0.247043	1.200564
H161	H	1.280163	-0.242819	1.269050
C162	C	1.298487	-0.224850	0.795259
C163	C	1.349133	-0.269607	0.747859
C164	C	1.399786	-0.219196	0.706547
H165	H	1.268331	-0.190405	0.763009
H166	H	1.328662	-0.194746	0.831645
H167	H	1.318962	-0.299697	0.711477
H168	H	1.379307	-0.304050	0.780089
H169	H	1.429960	-0.189091	0.742933
H170	H	1.369623	-0.184753	0.674302
H171	H	1.434160	-0.249556	0.674387
H172	H	0.717457	-0.522907	0.238407
H173	H	0.841444	-0.289205	0.472771
H174	H	1.050666	-0.472326	1.080004
H175	H	1.233909	-0.681582	0.472724
C176	C	1.247670	-0.275266	0.671358
C177	C	1.202929	-0.224618	0.623963
C178	C	1.253359	-0.174034	0.582590
H179	H	1.277820	-0.245083	0.707683
H180	H	1.282072	-0.305497	0.639103
H181	H	1.168541	-0.194389	0.656215
H182	H	1.172781	-0.254779	0.587623
H183	H	1.287761	-0.204266	0.550335
H184	H	1.283507	-0.143857	0.618921
H185	H	1.223011	-0.139669	0.550423
