data_functionalizedCrystal
_audit_creation_method	'MofGen! by Chris Wilmer'
_symmetry_space_group_name_H-M	'P1'
_symmetry_Int_Tables_number	1
_symmetry_cell_setting	triclinic
loop_
_symmetry_equiv_pos_as_xyz
  x,y,z
_cell_length_a	27.731994
_cell_length_b	10.268362
_cell_length_c	11.792241
_cell_angle_alpha	89.994572
_cell_angle_beta	96.593025
_cell_angle_gamma	89.998499
loop_
_atom_site_label
_atom_site_type_symbol
_atom_site_fract_x
_atom_site_fract_y
_atom_site_fract_z
O1	O	0.641726	0.108115	-0.134748
O2	O	1.141726	0.608115	0.365252
O3	O	0.501048	0.108159	-0.155345
O4	O	1.001048	0.608159	0.344655
O5	O	0.574801	0.108127	0.020235
O6	O	1.074801	0.608127	0.520235
O7	O	0.567973	0.108147	-0.310328
O8	O	1.067973	0.608147	0.189672
O9	O	0.574795	-0.108474	0.020242
O10	O	1.074795	0.391526	0.520242
O11	O	0.501042	-0.108442	-0.155338
O12	O	1.001042	0.391558	0.344662
O13	O	0.641720	-0.108485	-0.134741
O14	O	1.141720	0.391515	0.365259
Cu15	Cu	0.571380	-0.128241	-0.145039
Cu16	Cu	1.071380	0.371759	0.354961
Cu17	Cu	0.571388	0.127914	-0.145047
Cu18	Cu	1.071388	0.627914	0.354953
O19	O	0.567967	-0.108453	-0.310321
O20	O	1.067967	0.391547	0.189679
C21	C	0.483035	-0.000136	-0.154919
C22	C	0.983035	0.499864	0.345081
C23	C	0.429372	-0.000120	-0.153645
C24	C	0.929372	0.499880	0.346355
N25	N	0.571378	-0.308407	-0.145032
N26	N	1.071378	0.191593	0.354968
C27	C	0.571385	-0.574077	-0.145045
C28	C	1.071385	-0.074077	0.354955
C29	C	0.571380	-0.426240	-0.145041
C30	C	1.071380	0.073760	0.354959
C31	C	0.096603	-0.118240	-0.145622
C32	C	0.596603	0.381760	0.354378
C33	C	-0.105083	-0.118255	-0.140782
C34	C	0.394917	0.381745	0.359218
O35	O	-0.131163	-0.218668	-0.140104
O36	O	0.368837	0.281332	0.359896
N37	N	-0.130298	-0.000186	-0.140184
N38	N	0.369702	0.499814	0.359816
C39	C	-0.105088	0.117895	-0.140790
C40	C	0.394912	0.617895	0.359210
O41	O	-0.131161	0.218320	-0.140159
O42	O	0.368839	0.718320	0.359841
C43	C	0.096598	0.117909	-0.145622
C44	C	0.596598	0.617909	0.354378
C45	C	0.121810	-0.000168	-0.146231
C46	C	0.621810	0.499832	0.353769
C47	C	0.121815	-0.236307	-0.146230
C48	C	0.621815	0.263693	0.353770
C49	C	0.172233	-0.236302	-0.147446
C50	C	0.672233	0.263698	0.352554
C51	C	0.197440	-0.118230	-0.148055
C52	C	0.697440	0.381770	0.351945
C53	C	0.172228	-0.000163	-0.147447
C54	C	0.672228	0.499837	0.352553
C55	C	0.121808	0.235989	-0.146219
C56	C	0.621808	0.735989	0.353781
C57	C	0.172233	0.235982	-0.147424
C58	C	0.672233	0.735982	0.352576
C59	C	0.197444	0.117905	-0.148033
C60	C	0.697444	0.617905	0.351967
C61	C	0.247853	0.117914	-0.149272
C62	C	0.747853	0.617914	0.350728
N63	N	0.273067	-0.000155	-0.149869
N64	N	0.773067	0.499845	0.350131
C65	C	0.247861	-0.118227	-0.149261
C66	C	0.747861	0.381773	0.350739
C67	C	-0.210976	0.117880	-0.138255
C68	C	0.289024	0.617880	0.361745
C69	C	-0.261397	0.117877	-0.137049
C70	C	0.238603	0.617877	0.362951
C71	C	-0.261389	-0.118274	-0.137039
C72	C	0.238611	0.381726	0.362961
C73	C	-0.210967	-0.118269	-0.138253
C74	C	0.289033	0.381731	0.361747
C75	C	-0.185761	-0.000189	-0.138852
C76	C	0.314239	0.499811	0.361148
C77	C	0.353743	-0.118207	-0.151816
C78	C	0.853743	0.381793	0.348184
C79	C	0.404165	-0.118192	-0.153037
C80	C	0.904165	0.381808	0.346963
C81	C	0.404153	0.117958	-0.153041
C82	C	0.904153	0.617958	0.346959
C83	C	0.353735	0.117943	-0.151826
C84	C	0.853735	0.617943	0.348174
C85	C	0.328531	-0.000150	-0.151209
C86	C	0.828531	0.499850	0.348791
O87	O	0.273964	0.218274	-0.149938
O88	O	0.773964	0.718274	0.350062
O89	O	0.273945	-0.218636	-0.149866
O90	O	0.773945	0.281364	0.350134
C91	C	0.046185	-0.118245	-0.144406
C92	C	0.546185	0.381755	0.355594
C93	C	0.020973	-0.000178	-0.143798
C94	C	0.520973	0.499822	0.356202
C95	C	0.046180	0.117894	-0.144407
C96	C	0.546180	0.617894	0.355593
C97	C	-0.029448	-0.000181	-0.142592
C98	C	0.470552	0.499819	0.357408
C99	C	-0.054655	-0.118253	-0.141984
C100	C	0.445345	0.381747	0.358016
C101	C	-0.029440	-0.236321	-0.142581
C102	C	0.470560	0.263679	0.357419
C103	C	0.020978	-0.236317	-0.143797
C104	C	0.520978	0.263683	0.356203
C105	C	0.020965	0.235963	-0.143810
C106	C	0.520965	0.735963	0.356190
C107	C	-0.029453	0.235949	-0.142595
C108	C	0.470547	0.735949	0.357405
C109	C	-0.054660	0.117877	-0.141986
C110	C	0.445340	0.617877	0.358014
C111	C	0.659733	-0.000188	-0.135167
C112	C	1.159733	0.499812	0.364833
C113	C	0.713397	-0.000195	-0.136440
C114	C	1.213397	0.499805	0.363560
C115	C	0.574369	-0.000173	0.062515
C116	C	1.074369	0.499827	0.562515
C117	C	0.573085	-0.000171	0.188487
C118	C	1.073085	0.499829	0.688487
N119	N	0.571394	0.308080	-0.145045
N120	N	1.071394	0.808080	0.354955
C121	C	0.568399	-0.000151	-0.352601
C122	C	1.068399	0.499849	0.147399
C123	C	0.569683	-0.000144	-0.478573
C124	C	1.069683	0.499856	0.021427
C125	C	0.570725	-0.000149	0.419123
C126	C	1.070725	0.499851	0.919123
C127	C	0.572036	-0.000161	0.290780
C128	C	1.072036	0.499839	0.790780
H129	H	0.424690	-0.214348	-0.153536
H130	H	0.924690	0.285652	0.346464
C131	C	-0.312919	0.254875	-0.038106
C132	C	0.187081	0.754875	0.461894
C133	C	-0.289108	0.247668	-0.136395
C134	C	0.210892	0.747668	0.363605
H135	H	-0.330028	0.335002	-0.037704
H136	H	0.169972	0.835002	0.462296
H137	H	-0.289735	0.249963	0.027617
H138	H	0.210265	0.749963	0.527617
H139	H	-0.335150	0.184554	-0.037585
H140	H	0.164850	0.684554	0.462415
H141	H	-0.266875	0.317983	-0.136913
H142	H	0.233125	0.817983	0.363087
H143	H	-0.312296	0.252592	-0.202136
H144	H	0.187704	0.752592	0.297864
H145	H	0.333227	-0.214370	-0.151324
H146	H	0.833227	0.285630	0.348676
C147	C	-0.106732	-0.341160	-0.140701
C148	C	0.393268	0.158840	0.359299
C149	C	-0.057153	-0.366109	-0.141901
C150	C	0.442847	0.133891	0.358099
H151	H	-0.123840	-0.421282	-0.140269
H152	H	0.376160	0.078718	0.359731
H153	H	-0.118508	-0.292656	-0.206711
H154	H	0.381492	0.207344	0.293289
H155	H	-0.111470	-0.292637	-0.074297
H156	H	0.388530	0.207363	0.425703
H157	H	-0.052415	-0.414624	-0.208311
H158	H	0.447585	0.085376	0.291689
H159	H	-0.045373	-0.414633	-0.075885
H160	H	0.454627	0.085367	0.424115
H161	H	0.192756	-0.332452	-0.147935
H162	H	0.692756	0.167548	0.352065
H163	H	0.041483	0.332114	-0.144302
H164	H	0.541483	0.832114	0.355698
H165	H	0.101297	-0.332460	-0.145731
H166	H	0.601297	0.167540	0.354269
C167	C	-0.091338	0.372992	-0.238825
C168	C	0.408662	0.872992	0.261175
C169	C	-0.057162	0.365753	-0.141929
C170	C	0.442838	0.865753	0.358071
H171	H	-0.108439	0.453130	-0.238408
H172	H	0.391561	0.953130	0.261592
H173	H	-0.113568	0.302690	-0.238281
H174	H	0.386432	0.802690	0.261719
H175	H	-0.075181	0.368089	-0.305501
H176	H	0.424819	0.868089	0.194499
H177	H	-0.073319	0.370647	-0.075253
H178	H	0.426681	0.870647	0.424747
H179	H	-0.034928	0.436075	-0.142463
H180	H	0.465072	0.936075	0.357537
C181	C	-0.256328	-0.351710	-0.137139
C182	C	0.243672	0.148290	0.362861
C183	C	-0.289101	-0.248063	-0.136364
C184	C	0.210899	0.251937	0.363636
H185	H	-0.273439	-0.431830	-0.136723
H186	H	0.226561	0.068170	0.363277
H187	H	-0.233148	-0.346800	-0.071409
H188	H	0.266852	0.153200	0.428591
H189	H	-0.240177	-0.346801	-0.203823
H190	H	0.259823	0.153199	0.296177
H191	H	-0.305250	-0.252967	-0.069675
H192	H	0.194750	0.247033	0.430325
H193	H	-0.312290	-0.252976	-0.202101
H194	H	0.187710	0.247024	0.297899
C195	C	-0.216060	0.351303	-0.138154
C196	C	0.283940	0.851303	0.361846
C197	C	-0.183274	0.247686	-0.138926
C198	C	0.316726	0.747686	0.361074
H199	H	-0.198959	0.431438	-0.138578
H200	H	0.301041	0.931438	0.361422
H201	H	-0.232209	0.346382	-0.071479
H202	H	0.267791	0.846382	0.428521
H203	H	-0.239242	0.346370	-0.203893
H204	H	0.260758	0.846370	0.296107
H205	H	-0.160094	0.252614	-0.073181
H206	H	0.339906	0.752614	0.426819
H207	H	-0.167116	0.252610	-0.205607
H208	H	0.332884	0.752610	0.294393
C209	C	0.234110	0.372999	-0.051187
C210	C	0.734110	0.872999	0.448813
C211	C	0.199937	0.365785	-0.148087
C212	C	0.699937	0.865785	0.351913
H213	H	0.251210	0.453138	-0.051598
H214	H	0.751210	0.953138	0.448402
H215	H	0.256343	0.302698	-0.051732
H216	H	0.756343	0.802698	0.448268
H217	H	0.217952	0.368074	0.015486
H218	H	0.717952	0.868074	0.515486
H219	H	0.216096	0.370700	-0.214761
H220	H	0.716096	0.870700	0.285239
H221	H	0.177701	0.436105	-0.147553
H222	H	0.677701	0.936105	0.352447
H223	H	0.101289	0.332139	-0.145722
H224	H	0.601289	0.832139	0.354278
C225	C	0.291839	0.254944	-0.248065
C226	C	0.791839	0.754944	0.251935
C227	C	0.326016	0.247730	-0.151170
C228	C	0.826016	0.747730	0.348830
H229	H	0.274732	0.335074	-0.247655
H230	H	0.774732	0.835074	0.252345
H231	H	0.269614	0.184632	-0.247514
H232	H	0.769614	0.684632	0.252486
H233	H	0.307996	0.250042	-0.314742
H234	H	0.807996	0.750042	0.185258
H235	H	0.309860	0.252622	-0.084493
H236	H	0.809860	0.752622	0.415507
H237	H	0.348245	0.318062	-0.151711
H238	H	0.848245	0.818062	0.348289
C239	C	0.481447	0.222793	-0.154885
C240	C	0.981447	0.722793	0.345115
C241	C	0.431867	0.247739	-0.153701
C242	C	0.931867	0.747739	0.346299
H243	H	0.498557	0.302916	-0.155278
H244	H	0.998557	0.802916	0.344722
H245	H	0.486191	0.174302	-0.221290
H246	H	0.986191	0.674302	0.278710
H247	H	0.493218	0.174259	-0.088876
H248	H	0.993218	0.674259	0.411124
H249	H	0.420095	0.296265	-0.219715
H250	H	0.920095	0.796265	0.280285
H251	H	0.427120	0.296250	-0.087289
H252	H	0.927120	0.796250	0.412711
H253	H	0.041501	-0.332467	-0.144293
H254	H	0.541501	0.167533	0.355707
H255	H	-0.190443	-0.214418	-0.138750
H256	H	0.309557	0.285582	0.361250
