data_functionalizedCrystal
_audit_creation_method	'MofGen! by Chris Wilmer'
_symmetry_space_group_name_H-M	'P1'
_symmetry_Int_Tables_number	1
_symmetry_cell_setting	triclinic
loop_
_symmetry_equiv_pos_as_xyz
  x,y,z
_cell_length_a	11.169417
_cell_length_b	12.827892
_cell_length_c	11.169409
_cell_angle_alpha	90.033086
_cell_angle_beta	90.019513
_cell_angle_gamma	90.016641
loop_
_atom_site_label
_atom_site_type_symbol
_atom_site_fract_x
_atom_site_fract_y
_atom_site_fract_z
Zn1	Zn	1.834920	-0.415914	0.678527
Zn2	Zn	2.168254	-0.082580	1.011860
Zn3	Zn	2.501587	0.250753	1.345193
Zn4	Zn	1.834792	-0.590701	0.477841
Zn5	Zn	2.168125	-0.257368	0.811174
Zn6	Zn	2.501459	0.075966	1.144507
Zn7	Zn	1.634206	-0.415978	0.477862
Zn8	Zn	1.967539	-0.082645	0.811195
Zn9	Zn	2.300873	0.250688	1.144529
Zn10	Zn	1.634196	-0.590617	0.678487
Zn11	Zn	1.967529	-0.257284	1.011820
Zn12	Zn	2.300863	0.076050	1.345153
O13	O	1.734528	-0.503303	0.578179
O14	O	2.067862	-0.169969	0.911512
O15	O	2.401195	0.163364	1.244846
O16	O	2.002853	-0.439108	0.651913
O17	O	2.336186	-0.105774	0.985246
O18	O	2.669520	0.227559	1.318580
O19	O	1.808134	-0.567586	0.309894
O20	O	2.141468	-0.234253	0.643227
O21	O	2.474801	0.099081	0.976560
O22	O	1.660889	-0.269734	0.504506
O23	O	1.994223	0.063600	0.837839
O24	O	2.327556	0.396933	1.171173
O25	O	2.002759	-0.567523	0.504470
O26	O	2.336092	-0.234190	0.837803
O27	O	2.669425	0.099144	1.171137
O28	O	1.808353	-0.269686	0.651933
O29	O	2.141686	0.063647	0.985267
O30	O	2.475020	0.396981	1.318600
O31	O	1.660765	-0.439218	0.309909
O32	O	1.994098	-0.105885	0.643243
O33	O	2.327431	0.227449	0.976576
O34	O	1.466255	-0.439137	0.504468
O35	O	1.799588	-0.105803	0.837801
O36	O	2.132922	0.227530	1.171134
O37	O	1.660872	-0.567380	0.846442
O38	O	1.994205	-0.234047	1.179775
O39	O	2.327538	0.099287	1.513109
O40	O	1.466248	-0.567443	0.651866
O41	O	1.799581	-0.234110	0.985199
O42	O	2.132914	0.099224	1.318532
O43	O	1.808343	-0.439026	0.846471
O44	O	2.141676	-0.105693	1.179804
O45	O	2.475010	0.227641	1.513138
O46	O	1.808124	-0.736926	0.504431
O47	O	2.141458	-0.403593	0.837765
O48	O	2.474791	-0.070259	1.171098
O49	O	1.660747	-0.736864	0.651845
O50	O	1.994081	-0.403531	0.985178
O51	O	2.327414	-0.070198	1.318512
C52	C	1.422704	-0.503288	0.578165
C53	C	1.756037	-0.169955	0.911499
C54	C	2.089370	0.163378	1.244832
C55	C	1.289304	-0.503308	0.578188
C56	C	1.622637	-0.169974	0.911521
C57	C	1.955970	0.163359	1.244855
C58	C	1.734453	-0.774812	0.578158
C59	C	2.067787	-0.441479	0.911491
C60	C	2.401120	-0.108146	1.244825
C61	C	1.734531	-0.890966	0.578189
C62	C	2.067864	-0.557632	0.911522
C63	C	2.401198	-0.224299	1.244856
C64	C	1.807544	-0.942746	0.505325
C65	C	2.140878	-0.609413	0.838658
C66	C	2.474211	-0.276080	1.171992
C67	C	1.807626	-1.062796	0.505355
C68	C	2.140960	-0.729463	0.838689
C69	C	2.474293	-0.396130	1.172022
C70	C	2.047571	-0.503317	0.578194
C71	C	2.380904	-0.169984	0.911527
C72	C	2.714237	0.163349	1.244860
C73	C	2.180971	-0.503324	0.578200
C74	C	2.514304	-0.169990	0.911533
C75	C	2.847637	0.163343	1.244866
C76	C	1.734621	-0.503186	0.891222
C77	C	2.067954	-0.169853	1.224555
C78	C	2.401287	0.163480	1.557888
C79	C	1.734660	-0.503137	1.024622
C80	C	2.067993	-0.169804	1.357955
C81	C	2.401327	0.163530	1.691288
C82	C	1.734637	-0.230732	0.578227
C83	C	2.067970	0.102601	0.911560
C84	C	2.401303	0.435934	1.244893
C85	C	1.734683	-0.114579	0.578247
C86	C	2.068016	0.218754	0.911580
C87	C	2.401349	0.552087	1.244913
C88	C	1.734506	-0.503343	0.266354
C89	C	2.067839	-0.170009	0.599688
C90	C	2.401172	0.163324	0.933021
C91	C	1.734699	-0.503098	0.132955
C92	C	2.068032	-0.169764	0.466288
C93	C	2.401366	0.163569	0.799622
H94	H	1.870133	-1.107327	0.442971
H95	H	2.203466	-0.773993	0.776304
H96	H	2.536799	-0.440660	1.109637
H97	H	1.672165	-1.070057	0.640627
H98	H	2.005498	-0.736724	0.973961
H99	H	2.338831	-0.403390	1.307294
N100	N	1.651802	-0.949951	0.660859
N101	N	1.985136	-0.616617	0.994193
N102	N	2.318469	-0.283284	1.327526
H103	H	1.700623	-0.995161	0.716486
H104	H	2.033957	-0.661827	1.049819
H105	H	2.367290	-0.328494	1.383152
H106	H	1.596302	-0.995253	0.611918
H107	H	1.929635	-0.661920	0.945251
H108	H	2.262969	-0.328587	1.278584
H109	H	1.869999	-0.898203	0.442924
H110	H	2.203332	-0.564870	0.776258
H111	H	2.536666	-0.231537	1.109591
