data_functionalizedCrystal
_audit_creation_method	'MofGen! by Chris Wilmer'
_symmetry_space_group_name_H-M	'P1'
_symmetry_Int_Tables_number	1
_symmetry_cell_setting	triclinic
loop_
_symmetry_equiv_pos_as_xyz
  x,y,z
_cell_length_a	8.497374
_cell_length_b	21.395362
_cell_length_c	21.395361
_cell_angle_alpha	89.953415
_cell_angle_beta	89.984309
_cell_angle_gamma	90.022954
loop_
_atom_site_label
_atom_site_type_symbol
_atom_site_fract_x
_atom_site_fract_y
_atom_site_fract_z
Zn1	Zn	0.892770	0.957730	0.249282
Zn2	Zn	0.628940	0.957670	0.354031
Zn3	Zn	0.628900	0.852983	0.249300
Zn4	Zn	0.892573	0.852914	0.354054
O5	O	0.760796	0.905324	0.301667
O6	O	0.857872	1.045400	0.263159
O7	O	0.408172	0.943788	0.340136
O8	O	0.663969	0.866931	0.161620
O9	O	0.664036	1.045356	0.340118
O10	O	0.857833	0.943888	0.161606
O11	O	0.408143	0.866874	0.263191
O12	O	0.663778	0.765296	0.263214
O13	O	1.113362	0.866814	0.340158
O14	O	0.857497	0.765245	0.340176
O15	O	1.113507	0.943821	0.263182
O16	O	0.663845	0.943721	0.441712
O17	O	0.857536	0.866756	0.441729
C18	C	0.760613	0.742537	0.301700
C19	C	0.760572	0.672895	0.301729
C20	C	0.861291	0.640172	0.341857
C21	C	0.861361	0.574737	0.341841
C22	C	0.760684	0.542027	0.301705
C23	C	0.659959	0.574758	0.261570
C24	C	0.659902	0.640192	0.261582
C25	C	0.618664	0.438323	0.296652
C26	C	0.618717	0.372890	0.296644
C27	C	0.760859	0.340206	0.301664
C28	C	0.902951	0.372964	0.306705
C29	C	0.902895	0.438398	0.306717
C30	C	0.760735	0.471075	0.301687
C31	C	0.861662	0.236531	0.341777
C32	C	0.861735	0.171094	0.341757
C33	C	0.660318	0.171117	0.261489
C34	C	0.660260	0.236552	0.261506
C35	C	0.760929	0.269255	0.301653
C36	C	0.760708	0.905241	0.464454
C37	C	0.760723	0.905263	0.534096
C38	C	1.172276	0.905320	0.301668
C39	C	1.350920	0.905321	0.301674
C40	C	0.760981	1.068747	0.301634
C41	C	0.761059	1.138389	0.301620
C42	C	0.760919	0.905424	0.138243
C43	C	0.760971	0.905467	0.068602
C44	C	0.659972	0.945374	0.566779
C45	C	0.660007	0.945403	0.632214
C46	C	0.760777	0.905310	0.664964
C47	C	0.861548	0.865197	0.632273
C48	C	0.861521	0.865173	0.566839
C49	C	0.773092	0.848894	0.768695
C50	C	0.773108	0.848917	0.834128
C51	C	0.760870	0.905383	0.866785
C52	C	0.748583	0.961830	0.834000
C53	C	0.748556	0.961806	0.768566
C54	C	0.760819	0.905332	0.735916
C55	C	0.660152	0.945529	0.970420
C56	C	0.660198	0.945559	1.035857
C57	C	0.861731	0.865347	1.035914
C58	C	0.861693	0.865323	0.970479
C59	C	0.760895	0.905413	0.937736
H60	H	0.503017	0.346224	0.292543
H61	H	0.738556	1.007766	0.741874
O62	O	0.785209	0.794008	0.737042
C63	C	0.927753	0.764325	0.753029
H64	H	0.969306	0.781940	0.800513
H65	H	1.020614	0.775399	0.716176
C66	C	0.850855	0.671512	0.697811
C67	C	0.901883	0.693144	0.756135
H68	H	0.834902	0.627604	0.699724
H69	H	0.754823	0.691510	0.687038
H70	H	0.928247	0.680746	0.667106
H71	H	0.824483	0.683917	0.786837
H72	H	0.997903	0.673142	0.766913
H73	H	0.577964	0.978069	0.658830
O74	O	0.959175	0.672006	0.380761
C75	C	1.061233	0.709905	0.345158
H76	H	1.005803	0.719742	0.297644
H77	H	1.178188	0.684723	0.338340
C78	C	1.157687	0.759951	0.438018
C79	C	1.089600	0.772037	0.379662
H80	H	1.175193	0.798276	0.459302
H81	H	1.088933	0.734416	0.462005
H82	H	1.255142	0.738965	0.432328
H83	H	0.992139	0.793016	0.385354
H84	H	1.158339	0.797577	0.355677
O85	O	0.959360	0.139235	0.380769
C86	C	0.869377	0.101326	0.421178
H87	H	0.749940	0.091511	0.398998
H88	H	0.851793	0.126490	0.467605
C89	C	1.102871	0.051240	0.459806
C90	C	0.956182	0.039180	0.432562
H91	H	1.156418	0.012906	0.466832
H92	H	1.163496	0.076781	0.432584
H93	H	1.088197	0.072211	0.498492
H94	H	0.970858	0.018217	0.393874
H95	H	0.895561	0.013634	0.459779
H96	H	0.943384	0.548088	0.374518
H97	H	0.738618	1.007811	0.860588
H98	H	0.578080	0.978175	0.943760
O99	O	0.562175	0.984546	1.067511
C100	C	0.473236	1.019933	1.024576
H101	H	0.467674	0.994253	0.977965
H102	H	0.531144	1.067498	1.017548
C103	C	0.312206	1.060566	1.107384
C104	C	0.305364	1.029022	1.050136
H105	H	0.208657	1.066176	1.123151
H106	H	0.372129	1.036727	1.136311
H107	H	0.360469	1.100200	1.101520
H108	H	0.257120	0.989386	1.056003
H109	H	0.245428	1.052855	1.021211
H110	H	0.943787	0.832706	1.062578
H111	H	0.502907	0.464929	0.292561
O112	O	0.562026	0.984382	0.535071
C113	C	0.473082	1.019781	0.577955
H114	H	0.537722	1.021941	0.624586
H115	H	0.353195	0.996882	0.584959
C116	C	0.371162	1.083814	0.495075
C117	C	0.450561	1.086471	0.552346
H118	H	0.357263	1.124950	0.479278
H119	H	0.431080	1.059963	0.466182
H120	H	0.271264	1.064728	0.500919
H121	H	0.550464	1.105548	0.546500
H122	H	0.390659	1.110326	0.581238
O123	O	1.041058	0.470121	0.311584
C124	C	1.166534	0.427250	0.316030
H125	H	1.129330	0.380614	0.294947
H126	H	1.199067	0.420252	0.367250
C127	C	1.355602	0.510147	0.306070
C128	C	1.309911	0.452870	0.280171
H129	H	1.444047	0.525951	0.283953
H130	H	1.271067	0.539032	0.303078
H131	H	1.382702	0.504308	0.348753
H132	H	1.282793	0.458711	0.237492
H133	H	1.394445	0.423987	0.283155
O134	O	0.959598	0.826293	0.938824
C135	C	1.048578	0.790922	0.981758
H136	H	0.983977	0.788793	1.028416
H137	H	1.168471	0.813826	0.988668
C138	C	1.150428	0.726835	0.898989
C139	C	1.071077	0.724216	0.956294
H140	H	1.164314	0.685688	0.883281
H141	H	1.090486	0.750666	0.870063
H142	H	1.250331	0.745924	0.904755
H143	H	0.971170	0.705134	0.950526
H144	H	1.131004	0.700380	0.985219
H145	H	0.577990	0.548122	0.228889
O146	O	0.784770	0.794096	0.866002
C147	C	0.650484	0.786083	0.903898
H148	H	0.549106	0.814855	0.884161
H149	H	0.677739	0.802324	0.953464
C150	C	0.728440	0.681185	0.929238
C151	C	0.603922	0.716520	0.904994
H152	H	0.699720	0.638275	0.929917
H153	H	0.818914	0.686584	0.903709
H154	H	0.751140	0.694727	0.970541
H155	H	0.581237	0.702983	0.863689
H156	H	0.513442	0.711117	0.930516
O157	O	0.959584	0.826230	0.663986
C158	C	1.048480	0.790809	0.621103
H159	H	1.054004	0.816454	0.574429
H160	H	0.990559	0.743240	0.614209
C161	C	1.209577	0.750234	0.703950
C162	C	1.216374	0.781735	0.646625
H163	H	1.313140	0.744634	0.719693
H164	H	1.149683	0.774096	0.732841
H165	H	1.161303	0.710597	0.698197
H166	H	1.264628	0.821374	0.652380
H167	H	1.276280	0.757879	0.617735
H168	H	1.018697	0.346354	0.310792
H169	H	0.578353	0.144485	0.228807
H170	H	0.943567	0.832510	0.540227
H171	H	0.578235	0.263195	0.228833
O172	O	0.959612	0.268206	0.380788
C173	C	1.048513	0.225288	0.416209
H174	H	1.054134	0.178672	0.390539
H175	H	0.990536	0.218263	0.463758
C176	C	1.209448	0.308122	0.456873
C177	C	1.216362	0.250869	0.425342
H178	H	1.312983	0.323902	0.462510
H179	H	1.149550	0.337037	0.433011
H180	H	1.161127	0.302260	0.496494
H181	H	1.264664	0.256733	0.385719
H182	H	1.276272	0.221955	0.449198
O183	O	0.561902	0.671886	0.222583
C184	C	0.473086	0.628988	0.187140
H185	H	0.467549	0.582315	0.212787
H186	H	0.531084	0.622097	0.139589
C187	C	0.312004	0.711808	0.146510
C188	C	0.305192	0.654485	0.178014
H189	H	0.208441	0.727536	0.140878
H190	H	0.371844	0.740710	0.170387
H191	H	0.360343	0.706058	0.106888
H192	H	0.256872	0.660237	0.217639
H193	H	0.245339	0.625584	0.154143
