data_functionalizedCrystal
_audit_creation_method	'MofGen! by Chris Wilmer'
_symmetry_space_group_name_H-M	'P1'
_symmetry_Int_Tables_number	1
_symmetry_cell_setting	triclinic
loop_
_symmetry_equiv_pos_as_xyz
  x,y,z
_cell_length_a	10.967819
_cell_length_b	10.967829
_cell_length_c	9.482900
_cell_angle_alpha	87.494390
_cell_angle_beta	68.706355
_cell_angle_gamma	82.166777
loop_
_atom_site_label
_atom_site_type_symbol
_atom_site_fract_x
_atom_site_fract_y
_atom_site_fract_z
O1	O	1.749707	0.082149	-0.579832
O2	O	1.372708	0.112799	-0.493062
O3	O	1.562661	-0.077152	-0.493057
O4	O	1.559754	0.272100	-0.579837
O5	O	1.524085	-0.038419	-0.251305
O6	O	1.334132	0.151532	-0.251310
O7	O	1.711131	0.120882	-0.338080
Cu8	Cu	1.519109	0.139744	-0.272621
Cu9	Cu	1.564730	0.093937	-0.558521
O10	O	1.521178	0.310833	-0.338085
C11	C	1.305013	0.132861	-0.360233
C12	C	1.160775	0.134918	-0.324613
C13	C	0.967385	0.117905	-0.397183
C14	C	1.116462	0.115772	-0.433988
C15	C	1.540247	-0.102370	-0.360230
C16	C	1.530917	-0.235220	-0.324615
C17	C	1.546741	-0.314507	-0.433973
C18	C	1.537098	-0.451814	-0.397166
C19	C	1.778827	0.100819	-0.470912
C20	C	1.923067	0.098761	-0.506542
C21	C	1.543593	0.336051	-0.470916
C22	C	1.552925	0.468899	-0.506540
N23	N	1.487032	0.171961	-0.071537
N24	N	1.596818	0.061711	-0.759605
C25	C	1.555259	0.103434	0.000739
C26	C	1.528580	0.130248	0.168122
H27	H	1.188882	0.097808	-0.554870
H28	H	1.567422	-0.280735	-0.554846
H29	H	1.516402	-0.485579	-0.276282
Br30	Br	1.587346	-0.474828	-0.708011
H31	H	1.510222	-0.268990	-0.203739
Br32	Br	1.040081	0.164886	-0.123135
H33	H	0.894960	0.135881	-0.276312
H34	H	0.995490	0.080798	-0.627417
H35	H	1.633418	0.024910	-0.061295
Br36	Br	1.356738	0.302827	0.031857
Br37	Br	1.398281	0.261119	0.271510
H38	H	1.674981	-0.016818	0.178364
