data_functionalizedCrystal
_audit_creation_method	'MofGen! by Chris Wilmer'
_symmetry_space_group_name_H-M	'P1'
_symmetry_Int_Tables_number	1
_symmetry_cell_setting	triclinic
loop_
_symmetry_equiv_pos_as_xyz
  x,y,z
_cell_length_a	26.210047
_cell_length_b	19.188930
_cell_length_c	19.188930
_cell_angle_alpha	96.855221
_cell_angle_beta	90.000631
_cell_angle_gamma	89.977114
loop_
_atom_site_label
_atom_site_type_symbol
_atom_site_fract_x
_atom_site_fract_y
_atom_site_fract_z
O1	O	0.042599	-0.926151	0.087158
O2	O	0.042564	-0.722839	0.098892
O3	O	0.042573	-0.830362	-0.008631
O4	O	0.042591	-0.818628	0.194680
O5	O	-0.042285	-0.830341	-0.008614
O6	O	-0.042294	-0.722819	0.098909
O7	O	-0.042259	-0.926130	0.087174
Cu8	Cu	-0.050025	-0.824472	0.093043
Cu9	Cu	0.050330	-0.824497	0.093023
O10	O	-0.042267	-0.818607	0.194697
C11	C	0.000131	-0.696818	0.098520
C12	C	0.000117	-0.619313	0.097380
N13	N	-0.120609	-0.824460	0.093056
C14	C	0.000142	-0.829972	-0.034634
C15	C	0.000137	-0.828831	-0.112138
C16	C	-0.473119	-0.872103	0.045423
C17	C	-0.686778	-0.872118	0.045413
O18	O	-0.714396	-0.912599	0.004916
N19	N	-0.713503	-0.824501	0.093008
C20	C	-0.686809	-0.776872	0.140605
O21	O	-0.714443	-0.736366	0.181083
C22	C	-0.473152	-0.776854	0.140611
C23	C	-0.446430	-0.824480	0.093018
C24	C	-0.446397	-0.919724	-0.002167
C25	C	-0.392985	-0.919723	-0.002162
C26	C	-0.366296	-0.872099	0.045434
C27	C	-0.393018	-0.824478	0.093023
C28	C	-0.446460	-0.729223	0.188205
C29	C	-0.393042	-0.729222	0.188201
C30	C	-0.366320	-0.776848	0.140608
C31	C	-0.312918	-0.776853	0.140624
N32	N	-0.286193	-0.824471	0.093029
C33	C	-0.312882	-0.872094	0.045434
C34	C	-0.798983	-0.776886	0.140600
C35	C	-0.852397	-0.776891	0.140599
C36	C	-0.852361	-0.872137	0.045406
C37	C	-0.798946	-0.872134	0.045410
C38	C	-0.772258	-0.824504	0.093005
C39	C	-0.200714	-0.872087	0.045450
C40	C	-0.147298	-0.872083	0.045461
C41	C	-0.147338	-0.776836	0.140652
C42	C	-0.200750	-0.776842	0.140643
C43	C	-0.227436	-0.824470	0.093036
O44	O	-0.285266	-0.736388	0.181094
O45	O	-0.285239	-0.912584	0.004953
C46	C	-0.526530	-0.872105	0.045417
C47	C	-0.553253	-0.824484	0.093007
C48	C	-0.526563	-0.776860	0.140602
C49	C	-0.606667	-0.824489	0.093007
C50	C	-0.633356	-0.872112	0.045411
C51	C	-0.606631	-0.919730	-0.002183
C52	C	-0.553220	-0.919728	-0.002178
C53	C	-0.553288	-0.729243	0.188197
C54	C	-0.606700	-0.729249	0.188188
C55	C	-0.633389	-0.776872	0.140593
N56	N	0.120914	-0.824515	0.093004
C57	C	0.000175	-0.952151	0.087546
C58	C	0.000192	-1.029656	0.088687
C59	C	0.000131	-0.574389	0.160470
C60	C	0.000137	-0.501566	0.159399
C61	C	0.000139	-0.473669	0.095233
C62	C	0.000122	-0.518603	0.032133
C63	C	0.000112	-0.591425	0.033207
N64	N	0.029036	-0.365696	0.046180
N65	N	0.029047	-0.296517	0.045164
C66	C	0.000170	-0.254260	0.091994
N67	N	-0.028713	-0.283794	0.139889
N68	N	-0.028722	-0.352979	0.140906
C69	C	0.000150	-0.394707	0.094061
C70	C	0.000188	-0.130372	0.153928
C71	C	0.000191	-0.057547	0.152853
C72	C	0.000182	-0.074586	0.025586
C73	C	0.000174	-0.147409	0.026662
C74	C	0.000180	-0.175298	0.090835
C75	C	0.000146	-0.891922	-0.157062
C76	C	0.000154	-0.890850	-0.229886
C77	C	0.000143	-0.826684	-0.257782
C78	C	0.000138	-0.763585	-0.212849
C79	C	0.000135	-0.764658	-0.140026
N80	N	-0.028744	-0.777630	-0.365782
N81	N	-0.028742	-0.776614	-0.434960
C82	C	0.000153	-0.823446	-0.477191
N83	N	0.029040	-0.871342	-0.447631
N84	N	0.029036	-0.872360	-0.378447
C85	C	0.000147	-0.825513	-0.336745
C86	C	0.000171	-0.885379	-0.601079
C87	C	0.000182	-0.884305	-0.673904
C88	C	0.000161	-0.757038	-0.656865
C89	C	0.000155	-0.758114	-0.584042
C90	C	0.000157	-0.822287	-0.556154
C91	C	0.000164	-0.818997	0.220700
C92	C	0.000172	-0.820138	0.298204
H93	H	-0.125542	-0.910868	0.006705
H94	H	-0.468210	-0.690442	0.226959
H95	H	0.000131	-0.711340	-0.235567
H96	H	-0.874101	-0.910915	0.006653
N97	N	0.000095	-0.639884	-0.034844
H98	H	0.000094	-0.611165	-0.075657
H99	H	0.031548	-0.670496	-0.037178
N100	N	0.000191	-0.160454	0.223140
H101	H	-0.031263	-0.144034	0.250777
H102	H	0.000206	-0.213399	0.214190
H103	H	-0.222436	-0.910870	0.006683
H104	H	0.000155	-0.704792	-0.679578
N105	N	0.000165	-0.009089	0.220905
H106	H	0.000156	-0.037810	0.261717
H107	H	0.031614	0.021497	0.223256
N108	N	-0.770134	-0.923495	-0.005937
H109	H	-0.747987	-0.896907	-0.036789
H110	H	-0.747988	-0.954318	0.020704
H111	H	0.000131	-0.495885	-0.020111
H112	H	0.000128	-0.713281	-0.103449
N113	N	0.000152	-0.958902	-0.278349
H114	H	0.000151	-0.948483	-0.328714
H115	H	0.031610	-0.986895	-0.269346
H116	H	0.000149	-0.944176	-0.134360
N117	N	-0.881214	-0.725524	0.191933
H118	H	-0.919103	-0.732748	0.184716
H119	H	-0.871873	-0.733432	0.241446
H120	H	0.000191	-0.935683	-0.710481
H121	H	0.000215	-0.051874	-0.026659
H122	H	0.000166	-0.183988	-0.024713
N123	N	0.000159	-0.453098	0.227448
H124	H	-0.031292	-0.422475	0.229850
H125	H	0.000180	-0.481864	0.268224
H126	H	0.000175	-0.937632	-0.578372
H127	H	0.000145	-0.706738	-0.547464
H128	H	0.000137	-0.597091	0.212725
N129	N	-0.364167	-0.971088	-0.053497
H130	H	-0.389187	-1.001251	-0.083647
H131	H	-0.342015	-0.944454	-0.084300
H132	H	-0.468123	-0.958505	-0.040928
H133	H	-0.777257	-0.738099	0.179359
H134	H	-0.222507	-0.738068	0.179404
N135	N	-0.364261	-0.677844	0.239536
H136	H	-0.373557	-0.685728	0.289071
H137	H	-0.326376	-0.685088	0.232261
N138	N	-0.118547	-0.725473	0.191985
H139	H	-0.080655	-0.732700	0.184759
H140	H	-0.127898	-0.675971	0.184035
N141	N	-0.524402	-0.971096	-0.053510
H142	H	-0.549421	-1.001260	-0.083659
H143	H	-0.502248	-0.944466	-0.084315
H144	H	-0.628453	-0.690468	0.226950
N145	N	-0.635424	-0.971098	-0.053515
H146	H	-0.657593	-0.944514	-0.084363
H147	H	-0.610362	-1.001257	-0.083619
N148	N	-0.524506	-0.677871	0.239531
H149	H	-0.549545	-0.647709	0.269676
H150	H	-0.502337	-0.704499	0.270338
