data_functionalizedCrystal
_audit_creation_method	'MofGen! by Chris Wilmer'
_symmetry_space_group_name_H-M	'P1'
_symmetry_Int_Tables_number	1
_symmetry_cell_setting	triclinic
loop_
_symmetry_equiv_pos_as_xyz
  x,y,z
_cell_length_a	27.731994
_cell_length_b	27.732048
_cell_length_c	9.730223
_cell_angle_alpha	89.993758
_cell_angle_beta	90.005908
_cell_angle_gamma	82.631595
loop_
_atom_site_label
_atom_site_type_symbol
_atom_site_fract_x
_atom_site_fract_y
_atom_site_fract_z
O1	O	0.640942	0.057390	-0.114109
O2	O	0.500144	0.066163	-0.114156
O3	O	0.574916	-0.008621	-0.114105
O4	O	0.566170	0.132174	-0.114160
O5	O	0.574915	-0.008619	0.114475
O6	O	0.500143	0.066165	0.114424
O7	O	0.640941	0.057392	0.114471
Zn8	Zn	0.570542	0.061779	0.150739
Zn9	Zn	0.570543	0.061776	-0.150424
O10	O	0.566169	0.132176	0.114420
C11	C	0.482137	0.065984	0.000128
C12	C	0.428480	0.065442	0.000111
C13	C	0.574732	-0.026627	0.000189
C14	C	0.574179	-0.080282	0.000200
C15	C	0.095761	0.062027	0.124764
C16	C	-0.105897	0.059965	0.124780
O17	O	-0.131970	0.059679	0.230747
N18	N	-0.131111	0.059708	0.000182
C19	C	-0.105907	0.059963	-0.124430
O20	O	-0.131980	0.059692	-0.230408
C21	C	0.095750	0.062022	-0.124445
C22	C	0.120961	0.062283	0.000162
C23	C	0.120972	0.062288	0.249361
C24	C	0.171384	0.062806	0.249355
C25	C	0.196584	0.063063	0.124753
C26	C	0.171372	0.062801	0.000157
C27	C	0.120953	0.062273	-0.249055
C28	C	0.171371	0.062787	-0.249048
C29	C	0.196582	0.063049	-0.124441
C30	C	0.246984	0.063576	-0.124451
N31	N	0.272198	0.063833	0.000148
C32	C	0.246998	0.063577	0.124750
C33	C	-0.211781	0.058884	-0.124413
C34	C	-0.262195	0.058370	-0.124410
C35	C	-0.262181	0.058371	0.124801
C36	C	-0.211766	0.058888	0.124796
C37	C	-0.186566	0.059141	0.000185
C38	C	0.352865	0.064665	0.124729
C39	C	0.403280	0.065185	0.124713
C40	C	0.403262	0.065181	-0.124497
C41	C	0.352851	0.064664	-0.124482
C42	C	0.327654	0.064404	0.000143
O43	O	0.273088	0.063857	-0.230362
O44	O	0.273081	0.063837	0.230713
C45	C	0.045350	0.061509	0.124769
C46	C	0.020139	0.061247	0.000173
C47	C	0.045339	0.061504	-0.124429
C48	C	-0.030275	0.060734	0.000176
C49	C	-0.055475	0.060477	0.124778
C50	C	-0.030261	0.060734	0.249377
C51	C	0.020150	0.061252	0.249372
C52	C	0.020125	0.061247	-0.249028
C53	C	-0.030287	0.060730	-0.249013
C54	C	-0.055487	0.060473	-0.124410
C55	C	0.614884	-0.419105	0.000143
C56	C	0.612833	-0.620764	0.000123
O57	O	0.650055	-0.652027	0.000076
N58	N	0.568496	-0.639879	0.000110
C59	C	0.524670	-0.608576	0.000092
O60	O	0.486912	-0.629462	0.000066
C61	C	0.526721	-0.406918	0.000102
C62	C	0.571061	-0.387805	0.000130
C63	C	0.659220	-0.399992	0.000169
C64	C	0.659732	-0.349580	0.000182
C65	C	0.615908	-0.318281	0.000168
C66	C	0.571573	-0.337394	0.000142
C67	C	0.482895	-0.375615	0.000074
C68	C	0.483412	-0.325198	0.000073
C69	C	0.527751	-0.306086	0.000101
C70	C	0.528262	-0.255683	0.000141
N71	N	0.572598	-0.236567	0.000155
C72	C	0.616421	-0.267867	0.000168
C73	C	0.523596	-0.714450	0.000089
C74	C	0.523083	-0.764864	0.000089
C75	C	0.611246	-0.777049	0.000118
C76	C	0.611759	-0.726633	0.000128
C77	C	0.567932	-0.695335	0.000103
C78	C	0.617494	-0.161998	0.000196
C79	C	0.618002	-0.111581	0.000214
C80	C	0.529839	-0.099401	0.000177
C81	C	0.529331	-0.149813	0.000167
C82	C	0.573162	-0.181111	0.000171
O83	O	0.491060	-0.224391	0.000173
O84	O	0.654174	-0.246971	0.000164
C85	C	0.614372	-0.469517	0.000131
C86	C	0.570036	-0.488629	0.000105
C87	C	0.526213	-0.457330	0.000091
C88	C	0.569523	-0.539043	0.000105
C89	C	0.613346	-0.570343	0.000118
C90	C	0.657683	-0.551228	0.000132
C91	C	0.658195	-0.500816	0.000145
C92	C	0.481876	-0.476445	0.000077
C93	C	0.481367	-0.526857	0.000066
C94	C	0.525191	-0.558157	0.000080
C95	C	0.658949	0.057571	0.000184
C96	C	0.712605	0.058114	0.000192
C97	C	0.566353	0.150182	0.000123
C98	C	0.566906	0.203837	0.000103
N99	N	0.570545	0.061780	0.356276
N100	N	0.570544	0.061771	-0.355961
C101	C	0.603662	0.028677	0.428225
C102	C	0.603661	0.028671	0.572108
C103	C	0.537424	0.094876	0.572080
C104	C	0.537423	0.094879	0.428200
C105	C	0.641905	-0.009545	0.428242
C106	C	0.641903	-0.009551	0.572125
H107	H	0.423805	0.065400	0.226187
H108	H	0.191906	0.063017	0.350823
C109	C	0.093260	0.062010	0.386435
H110	H	0.115501	0.062243	0.460627
H111	H	0.077489	0.033613	0.391653
H112	H	0.069697	0.090015	0.391606
C113	C	0.474310	-0.785882	0.000070
H114	H	0.448286	-0.760017	0.000047
H115	H	0.472272	-0.805299	0.079776
H116	H	0.472278	-0.805290	-0.079656
C117	C	0.500996	0.131285	0.651201
H118	H	0.505740	0.126544	0.747196
H119	H	0.468775	0.126264	0.627610
H120	H	0.506005	0.163512	0.627621
C121	C	0.500992	0.131290	0.349060
H122	H	0.481270	0.151004	0.412506
H123	H	0.481003	0.114042	0.292928
H124	H	0.518228	0.151295	0.292937
C125	C	0.631562	-0.059558	0.375488
H126	H	0.627304	-0.080127	0.451429
H127	H	0.658151	-0.073727	0.321259
H128	H	0.602840	-0.055671	0.321243
C129	C	0.325154	0.064384	0.261812
H130	H	0.347395	0.064619	0.336007
H131	H	0.309387	0.035985	0.267027
H132	H	0.301589	0.092387	0.266982
C133	C	0.665707	-0.196418	0.000212
H134	H	0.692182	-0.177809	0.000242
H135	H	0.667347	-0.216335	-0.079498
H136	H	0.667340	-0.216341	0.079933
H137	H	0.694908	-0.425472	0.000176
C138	C	0.689066	0.005580	0.367954
H139	H	0.710070	0.012311	0.440670
H140	H	0.681485	0.033849	0.312994
H141	H	0.704745	-0.020096	0.313018
H142	H	0.040637	0.061454	-0.350496
H143	H	-0.282719	0.058165	-0.225877
C144	C	0.434121	-0.396628	0.000032
H145	H	0.408099	-0.370760	0.000006
H146	H	0.432079	-0.416045	0.079735
H147	H	0.432090	-0.416034	-0.079697
C148	C	0.626812	-0.056730	0.632420
H149	H	0.620094	-0.077737	0.559709
H150	H	0.598542	-0.049170	0.687366
H151	H	0.652498	-0.072394	0.687372
C152	C	0.691909	0.000819	0.624902
H153	H	0.712473	0.005092	0.548969
H154	H	0.706093	-0.025767	0.679143
H155	H	0.688007	0.029538	0.679137
H156	H	-0.191243	0.059102	0.226262
H157	H	0.654110	-0.096023	0.000240
H158	H	-0.282707	0.058163	0.226257
C159	C	0.705888	-0.585661	0.000145
H160	H	0.732371	-0.567062	0.000167
H161	H	0.707517	-0.605576	-0.079569
H162	H	0.707518	-0.605585	0.079863
C163	C	-0.184068	0.059167	-0.261494
H164	H	-0.206310	0.058946	-0.335689
H165	H	-0.160502	0.031170	-0.266683
H166	H	-0.168303	0.087572	-0.266688
H167	H	0.100435	0.062059	-0.350524
H168	H	0.191886	0.062992	-0.350523
H169	H	0.332322	0.064458	-0.225947
H170	H	0.695837	-0.334024	0.000199
H171	H	0.423789	0.065392	-0.225945
H172	H	0.493226	-0.165375	0.000182
C173	C	-0.057995	0.060508	0.386435
H174	H	-0.091632	0.060176	0.368578
H175	H	-0.053616	0.088809	0.437526
H176	H	-0.045856	0.032406	0.437744
H177	H	0.487905	-0.688970	0.000069
C178	C	0.660531	-0.705614	0.000146
H179	H	0.686555	-0.731480	0.000147
H180	H	0.662566	-0.686203	0.079853
H181	H	0.662566	-0.686201	-0.079578
C182	C	0.659451	-0.811484	0.000112
H183	H	0.652791	-0.844244	0.000093
H184	H	0.677655	-0.805735	0.079818
H185	H	0.677640	-0.805721	-0.079614
H186	H	0.445258	-0.542413	0.000056
C187	C	-0.058013	0.060441	-0.386090
H188	H	-0.035780	0.060663	-0.460292
H189	H	-0.081583	0.088436	-0.391298
H190	H	-0.073775	0.032034	-0.391252
H191	H	0.447722	-0.299716	0.000051
H192	H	0.446189	-0.450966	0.000063
C193	C	0.481636	-0.064968	0.000154
H194	H	0.455154	-0.083568	0.000144
H195	H	0.480010	-0.045045	-0.079557
H196	H	0.480003	-0.045051	0.079874
C197	C	0.706968	-0.479799	0.000161
H198	H	0.732991	-0.505665	0.000155
H199	H	0.709006	-0.460389	0.079872
H200	H	0.709003	-0.460384	-0.079560
H201	H	0.040673	0.061466	0.350839
