data_functionalizedCrystal
_audit_creation_method	'MofGen! by Chris Wilmer'
_symmetry_space_group_name_H-M	'P1'
_symmetry_Int_Tables_number	1
_symmetry_cell_setting	triclinic
loop_
_symmetry_equiv_pos_as_xyz
  x,y,z
_cell_length_a	14.971486
_cell_length_b	15.995292
_cell_length_c	14.048226
_cell_angle_alpha	89.996759
_cell_angle_beta	89.998499
_cell_angle_gamma	83.541372
loop_
_atom_site_label
_atom_site_type_symbol
_atom_site_fract_x
_atom_site_fract_y
_atom_site_fract_z
O1	O	1.186798	0.109119	-0.079044
O2	O	0.926380	0.122186	-0.079069
O3	O	1.063735	-0.006231	-0.079058
O4	O	1.049443	0.237537	-0.079056
O5	O	1.063718	-0.006239	0.079264
O6	O	0.926364	0.122179	0.079252
O7	O	1.186782	0.109112	0.079277
Zn8	Zn	1.056570	0.115644	0.104401
Zn9	Zn	1.056592	0.115654	-0.104194
O10	O	1.049427	0.237529	0.079265
C11	C	0.893048	0.121598	0.000088
C12	C	0.793753	0.119847	0.000078
C13	C	0.736425	0.195289	0.000080
C14	C	0.643128	0.193638	0.000094
C15	C	0.607161	0.116545	0.000100
C16	C	0.664496	0.041098	0.000101
C17	C	0.757792	0.042749	0.000093
C18	C	0.470038	0.037661	0.000114
C19	C	0.376737	0.036009	0.000119
C20	C	0.355375	0.188550	0.000115
C21	C	0.448670	0.190202	0.000107
C22	C	0.505999	0.114754	0.000106
C23	C	1.063145	-0.037431	0.000101
C24	C	1.061401	-0.130386	0.000093
C25	C	1.054990	-0.468130	0.000101
C26	C	1.154129	-0.444719	0.000465
C27	C	1.156014	-0.348041	0.000105
C28	C	1.058171	-0.300571	0.000098
C29	C	1.008616	-0.329718	-0.090313
C30	C	1.007422	-0.426509	-0.090385
C31	C	1.005379	-0.426377	0.089655
C32	C	1.009053	-0.329881	0.090847
C33	C	1.059964	-0.205873	0.000093
C34	C	1.053195	-0.562828	0.000100
C35	C	1.220114	0.109700	0.000118
C36	C	1.319408	0.111451	0.000121
C37	C	1.050017	0.268729	0.000105
C38	C	1.051760	0.361684	0.000106
N39	N	1.056562	0.115637	0.246762
N40	N	1.056607	0.115655	-0.246554
C41	C	1.117401	0.058797	0.296585
C42	C	1.117407	0.058797	0.396243
C43	C	1.056577	0.115640	0.446076
C44	C	0.995731	0.172483	0.396245
C45	C	0.995721	0.172479	0.296590
C46	C	0.995757	0.172489	0.603960
C47	C	0.995767	0.172495	0.703622
C48	C	1.117443	0.058807	0.703613
C49	C	1.117433	0.058803	0.603957
C50	C	1.056588	0.115646	0.554134
H51	H	0.477951	0.252978	0.000094
H52	H	0.765701	0.258067	0.000075
H53	H	1.045137	-0.311283	0.157732
H54	H	1.166985	0.012523	0.744185
H55	H	0.936617	-0.297922	-0.093679
H56	H	1.166947	0.012513	0.436809
H57	H	1.166970	0.012520	0.563384
H58	H	0.308692	0.249983	0.000119
H59	H	0.946232	0.218782	0.744191
H60	H	0.946207	0.218775	0.563397
H61	H	0.596454	0.255071	0.000095
H62	H	1.043042	-0.309619	-0.157591
H63	H	0.946197	0.218764	0.436825
H64	H	0.347456	-0.026767	0.000125
H65	H	0.946178	0.218762	0.256024
H66	H	0.932405	-0.440441	0.090259
H67	H	0.516714	-0.023777	0.000115
H68	H	0.635205	-0.021673	0.000119
H69	H	0.804468	-0.018684	0.000091
H70	H	1.194825	-0.328981	0.064914
H71	H	1.192136	-0.473695	-0.064002
H72	H	1.192335	-0.472681	0.065303
H73	H	1.195067	-0.329595	-0.064812
H74	H	0.937637	-0.296983	0.096302
H75	H	1.036593	-0.454438	0.158186
H76	H	1.041756	-0.453288	-0.157965
H77	H	0.934733	-0.441132	-0.094487
H78	H	1.166940	0.012512	0.256018
