data_functionalizedCrystal
_audit_creation_method	'MofGen! by Chris Wilmer'
_symmetry_space_group_name_H-M	'P1'
_symmetry_Int_Tables_number	1
_symmetry_cell_setting	triclinic
loop_
_symmetry_equiv_pos_as_xyz
  x,y,z
_cell_length_a	10.654553
_cell_length_b	8.559649
_cell_length_c	7.681481
_cell_angle_alpha	94.912730
_cell_angle_beta	95.794607
_cell_angle_gamma	102.866419
loop_
_atom_site_label
_atom_site_type_symbol
_atom_site_fract_x
_atom_site_fract_y
_atom_site_fract_z
O1	O	0.029226	2.104696	-0.146424
O2	O	-0.035561	1.640212	-0.146424
O3	O	0.180673	1.883126	-0.146427
O4	O	-0.187008	1.861782	-0.146420
O5	O	0.207342	1.913024	0.146430
O6	O	-0.008892	1.670110	0.146434
O7	O	0.055894	2.134594	0.146434
Zn8	Zn	0.027735	1.907099	0.192931
Zn9	Zn	-0.007402	1.867707	-0.192921
O10	O	-0.160340	1.891680	0.146437
C11	C	-0.027136	1.595686	0.000005
C12	C	-0.041750	1.418468	0.000004
C13	C	-0.220310	1.878301	0.000009
C14	C	-0.359267	1.882999	0.000011
C15	C	-0.330211	1.915615	0.319293
C16	C	-0.380963	1.934134	0.478929
C17	C	-0.511526	1.938546	0.478922
C18	C	-0.591343	1.924432	0.319261
C19	C	-0.540590	1.905913	0.159626
C20	C	-0.410021	1.901507	0.159651
C21	C	-0.569649	1.873286	-0.159652
C22	C	-0.439083	1.868885	-0.159649
C23	C	-0.649465	1.859172	-0.319313
C24	C	-0.598710	1.840663	-0.478952
C25	C	-0.468138	1.836254	-0.478938
C26	C	-0.388331	1.850366	-0.319284
C27	C	0.240643	1.896504	-0.000003
C28	C	0.379599	1.891805	-0.000017
C29	C	0.047469	2.179119	0.000001
C30	C	0.062082	2.356336	-0.000010
N31	N	0.051717	1.933994	0.456265
N32	N	-0.031372	1.840824	-0.456255
H33	H	0.162166	1.438728	-0.000012
O34	O	-0.303234	1.947905	0.633859
C35	C	-0.177117	1.940010	0.599647
H36	H	-0.161713	1.975818	0.462439
H37	H	-0.164868	1.811713	0.607247
C38	C	-0.095627	2.012342	0.905875
C39	C	-0.076704	2.056335	0.737359
H40	H	-0.033686	2.084090	0.990826
H41	H	-0.180595	2.017656	0.928927
H42	H	-0.085421	1.905426	0.912183
H43	H	-0.086926	2.163240	0.731047
H44	H	0.008265	2.051042	0.714310
H45	H	-0.141829	1.336083	-0.000011
O46	O	-0.560933	1.956737	0.633881
C47	C	-0.608031	2.098275	0.643440
H48	H	-0.631028	2.130784	0.504829
H49	H	-0.531266	2.201248	0.722221
C50	C	-0.703864	2.029939	0.904945
C51	C	-0.732120	2.069860	0.734699
H52	H	-0.780404	2.012417	0.961245
H53	H	-0.672129	1.934585	0.898510
H54	H	-0.639890	2.115757	0.970573
H55	H	-0.796080	1.984035	0.669068
H56	H	-0.763868	2.165200	0.741126
H57	H	0.136525	2.029121	0.531469
H58	H	-0.697657	1.928006	0.319270
O59	O	-0.132651	1.727319	0.454322
C60	C	-0.206297	1.644691	0.575041
H61	H	-0.189488	1.723482	0.706494
H62	H	-0.175321	1.527569	0.594604
C63	C	-0.371940	1.509439	0.341460
C64	C	-0.351303	1.606218	0.502908
H65	H	-0.461386	1.485700	0.296964
H66	H	-0.322322	1.565102	0.260127
H67	H	-0.346118	1.411849	0.357784
H68	H	-0.377109	1.703813	0.486578
H69	H	-0.400929	1.550570	0.584237
H70	H	-0.223894	1.912042	0.319315
H71	H	-0.755777	1.862757	-0.319307
H72	H	-0.663708	1.829162	-0.608934
H73	H	-0.426828	1.821160	-0.608933
H74	H	-0.282016	1.846784	-0.319258
