data_functionalizedCrystal
_audit_creation_method	'MofGen! by Chris Wilmer'
_symmetry_space_group_name_H-M	'P1'
_symmetry_Int_Tables_number	1
_symmetry_cell_setting	triclinic
loop_
_symmetry_equiv_pos_as_xyz
  x,y,z
_cell_length_a	12.759401
_cell_length_b	16.625545
_cell_length_c	12.759393
_cell_angle_alpha	90.032830
_cell_angle_beta	90.020938
_cell_angle_gamma	90.027083
loop_
_atom_site_label
_atom_site_type_symbol
_atom_site_fract_x
_atom_site_fract_y
_atom_site_fract_z
Zn1	Zn	1.606187	-0.320930	0.594003
Zn2	Zn	1.939520	0.012404	0.927336
Zn3	Zn	2.272854	0.345737	1.260670
Zn4	Zn	1.606045	-0.455784	0.418316
Zn5	Zn	1.939378	-0.122451	0.751649
Zn6	Zn	2.272712	0.210883	1.084983
Zn7	Zn	1.430486	-0.320973	0.418338
Zn8	Zn	1.763819	0.012361	0.751672
Zn9	Zn	2.097152	0.345694	1.085005
Zn10	Zn	1.430444	-0.455728	0.593953
Zn11	Zn	1.763778	-0.122394	0.927287
Zn12	Zn	2.097111	0.210939	1.260620
O13	O	1.518291	-0.388354	0.506153
O14	O	1.851624	-0.055020	0.839486
O15	O	2.184957	0.278313	1.172819
O16	O	1.753189	-0.338824	0.570709
O17	O	2.086523	-0.005491	0.904043
O18	O	2.419856	0.327843	1.237376
O19	O	1.582714	-0.437943	0.271298
O20	O	1.916048	-0.104609	0.604631
O21	O	2.249381	0.228724	0.937964
O22	O	1.453870	-0.208135	0.441671
O23	O	1.787203	0.125199	0.775004
O24	O	2.120536	0.458532	1.108337
O25	O	1.753085	-0.437901	0.441633
O26	O	2.086418	-0.104568	0.774966
O27	O	2.419751	0.228766	1.108300
O28	O	1.582957	-0.208103	0.570731
O29	O	1.916290	0.125230	0.904064
O30	O	2.249623	0.458564	1.237398
O31	O	1.453732	-0.338897	0.271314
O32	O	1.787065	-0.005564	0.604647
O33	O	2.120399	0.327769	0.937981
O34	O	1.283459	-0.338843	0.441622
O35	O	1.616793	-0.005509	0.774956
O36	O	1.950126	0.327824	1.108289
O37	O	1.453799	-0.437805	0.740981
O38	O	1.787133	-0.104472	1.074314
O39	O	2.120466	0.228862	1.407648
O40	O	1.283429	-0.437847	0.570646
O41	O	1.616762	-0.104513	0.903979
O42	O	1.950096	0.228820	1.237313
O43	O	1.582917	-0.338770	0.741018
O44	O	1.916250	-0.005436	1.074351
O45	O	2.249583	0.327897	1.407684
O46	O	1.582674	-0.568609	0.441585
O47	O	1.916008	-0.235276	0.774918
O48	O	2.249341	0.098058	1.108251
O49	O	1.453661	-0.568568	0.570624
O50	O	1.786995	-0.235234	0.903958
O51	O	2.120328	0.098099	1.237291
C52	C	1.245323	-0.388344	0.506132
C53	C	1.578657	-0.055010	0.839465
C54	C	1.911990	0.278323	1.172798
C55	C	1.128547	-0.388359	0.506148
C56	C	1.461880	-0.055026	0.839481
C57	C	1.795213	0.278308	1.172814
C58	C	1.073696	-0.439989	0.573225
C59	C	1.407030	-0.106655	0.906558
C60	C	1.740363	0.226678	1.239891
C61	C	0.963972	-0.439992	0.573245
C62	C	1.297306	-0.106658	0.906579
C63	C	1.630639	0.226675	1.239912
C64	C	0.963958	-0.336733	0.439104
C65	C	1.297292	-0.003400	0.772437
C66	C	1.630625	0.329934	1.105770
C67	C	1.073680	-0.336727	0.439089
C68	C	1.407014	-0.003393	0.772422
C69	C	1.740347	0.329940	1.105755
C70	C	1.518176	-0.597844	0.506120
C71	C	1.851510	-0.264511	0.839453
C72	C	2.184843	0.068822	1.172786
C73	C	1.518224	-0.687466	0.506141
C74	C	1.851557	-0.354132	0.839474
C75	C	2.184890	-0.020799	1.172807
C76	C	1.518265	-0.760248	0.506161
C77	C	1.851598	-0.426915	0.839495
C78	C	2.184931	-0.093581	1.172828
C79	C	1.518326	-0.851556	0.506185
C80	C	1.851659	-0.518223	0.839518
C81	C	2.184992	-0.184890	1.172851
C82	C	1.518380	-0.924333	0.506198
C83	C	1.851714	-0.590999	0.839531
C84	C	2.185047	-0.257666	1.172865
C85	C	1.518440	-1.015647	0.506219
C86	C	1.851774	-0.682314	0.839553
C87	C	2.185107	-0.348980	1.172886
C88	C	1.792324	-0.388364	0.506174
C89	C	2.125657	-0.055031	0.839508
C90	C	2.458990	0.278303	1.172841
C91	C	1.909100	-0.388369	0.506183
C92	C	2.242434	-0.055035	0.839517
C93	C	2.575767	0.278298	1.172850
C94	C	1.518369	-0.388276	0.780186
C95	C	1.851703	-0.054943	1.113519
C96	C	2.185036	0.278390	1.446853
C97	C	1.518403	-0.388243	0.896963
C98	C	1.851736	-0.054910	1.230296
C99	C	2.185069	0.278423	1.563630
C100	C	1.518434	-0.178045	0.506209
C101	C	1.851767	0.155289	0.839542
C102	C	2.185100	0.488622	1.172876
C103	C	1.518495	-0.088424	0.506233
C104	C	1.851828	0.244910	0.839566
C105	C	2.185161	0.578243	1.172899
C106	C	1.518273	-0.388373	0.233185
C107	C	1.851606	-0.055039	0.566519
C108	C	2.184939	0.278294	0.899852
C109	C	1.518443	-0.388178	0.116409
C110	C	1.851776	-0.054845	0.449742
C111	C	2.185109	0.278488	0.783076
C112	C	1.585639	-0.336667	0.951846
C113	C	1.918972	-0.003334	1.285179
C114	C	2.252306	0.329999	1.618512
C115	C	1.585657	-0.336632	1.061570
C116	C	1.918990	-0.003299	1.394903
C117	C	2.252324	0.330034	1.728236
C118	C	1.451199	-0.439757	1.061519
C119	C	1.784532	-0.106423	1.394852
C120	C	2.117866	0.226910	1.728185
C121	C	1.451177	-0.439787	0.951797
C122	C	1.784510	-0.106453	1.285130
C123	C	2.117843	0.226880	1.618463
H124	H	1.118365	-0.482029	0.627831
H125	H	1.451698	-0.148696	0.961164
H126	H	1.785032	0.184638	1.294498
H127	H	1.640406	-0.294633	1.106250
H128	H	1.973739	0.038701	1.439584
H129	H	2.307073	0.372034	1.772917
F130	F	0.905557	-0.281786	0.367737
F131	F	1.238890	0.051547	0.701071
F132	F	1.572224	0.384880	1.034404
H133	H	1.396468	-0.481723	1.106178
H134	H	1.729802	-0.148390	1.439511
H135	H	2.063135	0.184943	1.772844
H136	H	1.640376	-0.294695	0.907203
H137	H	1.973709	0.038638	1.240536
H138	H	2.307043	0.371972	1.573870
F139	F	0.905601	-0.494942	0.644640
F140	F	1.238935	-0.161609	0.977973
F141	F	1.572268	0.171725	1.311307
F142	F	1.132060	-0.281768	0.367698
F143	F	1.465393	0.051566	0.701031
F144	F	1.798726	0.384899	1.034365
H145	H	1.396417	-0.481785	0.907110
H146	H	1.729751	-0.148452	1.240443
H147	H	2.063084	0.184881	1.573777
