data_functionalizedCrystal
_audit_creation_method	'MofGen! by Chris Wilmer'
_symmetry_space_group_name_H-M	'P1'
_symmetry_Int_Tables_number	1
_symmetry_cell_setting	triclinic
loop_
_symmetry_equiv_pos_as_xyz
  x,y,z
_cell_length_a	8.497374
_cell_length_b	8.497374
_cell_length_c	21.295418
_cell_angle_alpha	89.983088
_cell_angle_beta	90.023166
_cell_angle_gamma	90.004389
loop_
_atom_site_label
_atom_site_type_symbol
_atom_site_fract_x
_atom_site_fract_y
_atom_site_fract_z
Zn1	Zn	0.892992	0.627650	0.962356
Zn2	Zn	0.629257	0.891400	0.962351
Zn3	Zn	0.629122	0.627701	0.857117
Zn4	Zn	0.892892	0.891455	0.857103
O5	O	0.761066	0.759552	0.909732
O6	O	0.858105	0.662593	1.050445
O7	O	0.408477	0.856418	0.948395
O8	O	0.664110	0.406932	0.871086
O9	O	0.664340	0.856369	1.050441
O10	O	0.857974	0.406895	0.948405
O11	O	0.408378	0.662679	0.871080
O12	O	0.664013	0.662732	0.769026
O13	O	1.113667	0.856463	0.871062
O14	O	0.857804	0.856512	0.769016
O15	O	1.113741	0.662647	0.948391
O16	O	0.664244	1.112170	0.948381
O17	O	0.857935	1.112210	0.871056
C18	C	0.760884	0.759635	0.746180
C19	C	0.760844	0.759708	0.676212
C20	C	1.351186	0.759577	0.909736
C21	C	1.172542	0.759570	0.909729
C22	C	0.761088	1.169431	0.909724
C23	C	0.761063	1.348075	0.909741
C24	C	0.861600	0.860742	0.643357
C25	C	0.861671	0.860704	0.577614
C26	C	0.760957	0.759647	0.544730
C27	C	0.660194	0.658593	0.577593
C28	C	0.660138	0.658623	0.643334
N29	N	0.622972	0.747287	0.441471
N30	N	0.623030	0.747267	0.379019
C31	C	0.761125	0.759546	0.346655
N32	N	0.899161	0.771877	0.379101
N33	N	0.899101	0.771905	0.441558
C34	C	0.761008	0.759602	0.473444
C35	C	0.861966	0.860544	0.242514
C36	C	0.862039	0.860494	0.176770
C37	C	0.660549	0.658392	0.176751
C38	C	0.660490	0.658433	0.242493
C39	C	0.761196	0.759518	0.275371
C40	C	0.761249	0.759469	1.073922
C41	C	0.761327	0.759434	1.143890
H42	H	0.943724	0.942977	0.550858
C43	C	1.060768	1.060508	0.636767
C44	C	0.972310	0.971838	0.679495
H45	H	1.129122	1.129084	0.659080
H46	H	0.991963	1.120730	0.611097
H47	H	1.121230	0.991839	0.611154
H48	H	0.911839	1.040507	0.705105
H49	H	1.041124	0.911612	0.705176
C50	C	0.570939	0.568752	0.343260
C51	C	0.549720	0.547387	0.278613
H52	H	0.502558	0.500182	0.365558
H53	H	0.547683	0.674705	0.354002
H54	H	0.676965	0.545829	0.354064
H55	H	0.443697	0.570320	0.267809
H56	H	0.572965	0.441408	0.267867
C57	C	1.128972	0.937798	0.262829
C58	C	0.972676	0.971630	0.278661
H59	H	1.197318	1.006371	0.285148
H60	H	1.143424	0.952245	0.218979
H61	H	1.152178	0.831837	0.273634
H62	H	0.949466	1.077588	0.267851
H63	H	0.958217	0.957196	0.322521
H64	H	0.578554	0.576102	0.149977
C65	C	0.570787	0.568843	0.476807
C66	C	0.549473	0.547523	0.541449
H67	H	0.502422	0.500276	0.454495
H68	H	0.676810	0.545904	0.466069
H69	H	0.547556	0.674808	0.466016
H70	H	0.572716	0.441561	0.552241
H71	H	0.443426	0.570451	0.552191
C72	C	0.460976	0.458858	0.636710
C73	C	0.549364	0.547572	0.679453
H74	H	0.392581	0.390310	0.659011
H75	H	0.529822	0.398604	0.611106
H76	H	0.400560	0.527500	0.611033
H77	H	0.609789	0.478930	0.705128
H78	H	0.480509	0.607830	0.705069
C79	C	1.074293	0.882727	0.102907
C80	C	0.972805	0.971559	0.140654
H81	H	1.142681	0.951299	0.080614
H82	H	1.014332	0.822544	0.073917
H83	H	1.134714	0.814112	0.128594
H84	H	0.912376	1.040167	0.114967
H85	H	1.032773	1.031770	0.169648
