data_functionalizedCrystal
_audit_creation_method	'MofGen! by Chris Wilmer'
_symmetry_space_group_name_H-M	'P1'
_symmetry_Int_Tables_number	1
_symmetry_cell_setting	triclinic
loop_
_symmetry_equiv_pos_as_xyz
  x,y,z
_cell_length_a	17.699097
_cell_length_b	11.026607
_cell_length_c	10.065875
_cell_angle_alpha	100.731764
_cell_angle_beta	81.266929
_cell_angle_gamma	95.937224
loop_
_atom_site_label
_atom_site_type_symbol
_atom_site_fract_x
_atom_site_fract_y
_atom_site_fract_z
O1	O	1.033805	0.135594	-0.113607
O2	O	0.816166	0.155539	-0.113584
O3	O	0.906947	-0.031034	-0.113589
O4	O	0.943023	0.322167	-0.113602
O5	O	0.889656	0.004685	0.113401
O6	O	0.798874	0.191258	0.113405
O7	O	1.016513	0.171313	0.113383
Zn8	Zn	0.904948	0.186957	0.149433
Zn9	Zn	0.927730	0.139895	-0.149635
O10	O	0.925732	0.357886	0.113387
C11	C	0.779224	0.172681	-0.000087
C12	C	0.694910	0.170531	-0.000078
C13	C	0.186810	0.137862	-0.123865
C14	C	0.266030	0.139877	-0.123858
C15	C	0.296209	0.160357	-0.000120
C16	C	0.247162	0.178812	0.123618
C17	C	0.167942	0.176788	0.123610
C18	C	0.566643	0.186971	0.123654
C19	C	0.645869	0.188997	0.123653
C20	C	0.664731	0.150060	-0.123814
C21	C	0.585512	0.148036	-0.123822
C22	C	0.536471	0.166484	-0.000084
C23	C	0.450572	0.164297	-0.000093
C24	C	0.382107	0.162553	-0.000110
C25	C	0.891646	-0.058366	-0.000095
C26	C	0.871807	-0.193024	-0.000098
C27	C	0.926588	-0.266988	-0.000105
C28	C	0.906084	-0.406164	-0.000108
C29	C	1.053455	0.154170	-0.000118
C30	C	1.137769	0.156319	-0.000135
C31	C	0.941033	0.385218	-0.000110
C32	C	0.960873	0.519874	-0.000116
N33	N	0.889406	0.219075	0.353540
N34	N	0.943278	0.107768	-0.353741
C35	C	0.922317	0.151062	0.421317
C36	C	0.910362	0.175790	0.578485
H37	H	0.704669	0.135033	-0.224568
C38	C	0.840090	0.321112	0.431547
C39	C	0.838057	0.325379	0.571926
C40	C	0.792643	0.419373	0.643824
H41	H	0.789521	0.304724	0.408384
H42	H	0.861242	0.398376	0.408270
H43	H	0.816903	0.248133	0.595193
H44	H	0.888614	0.341783	0.595129
H45	H	0.813795	0.496637	0.620548
H46	H	0.742077	0.402976	0.620651
H47	H	0.791264	0.422288	0.739079
H48	H	0.980304	0.031224	0.587936
H49	H	0.988666	-0.227274	-0.000103
H50	H	0.162246	0.121194	-0.224627
C51	C	0.823310	-0.459072	-0.000386
C52	C	0.796318	-0.437929	-0.117179
C53	C	0.720075	-0.486667	-0.117491
H54	H	0.792710	-0.419967	0.078681
H55	H	0.820504	-0.545595	-0.000464
H56	H	0.799118	-0.351423	-0.117089
H57	H	0.826896	-0.477036	-0.196265
H58	H	0.717270	-0.573189	-0.117569
H59	H	0.689482	-0.447557	-0.038420
H60	H	0.701754	-0.472338	-0.196740
C61	C	0.279773	0.201001	0.258108
C62	C	0.219864	0.216696	0.366464
C63	C	0.249873	0.237125	0.490378
H64	H	0.314133	0.273321	0.263451
H65	H	0.306398	0.131872	0.263328
H66	H	0.193251	0.285818	0.361247
H67	H	0.185499	0.144388	0.361166
H68	H	0.276499	0.167997	0.495598
H69	H	0.284234	0.309444	0.495707
H70	H	0.209230	0.247766	0.563912
H71	H	0.670436	0.205675	0.224421
C72	C	1.043606	-0.426952	-0.000056
C73	C	1.047494	-0.299475	-0.000021
C74	C	1.123692	-0.250447	0.000051
H75	H	1.074190	-0.465972	-0.079194
H76	H	1.062069	-0.441128	0.079129
H77	H	1.029041	-0.285308	-0.079198
H78	H	1.016927	-0.260422	0.079111
H79	H	1.142155	-0.264623	0.079236
H80	H	1.154269	-0.289476	-0.079088
H81	H	1.126339	-0.163948	0.000087
H82	H	0.128014	0.191830	0.224364
H83	H	0.305956	0.124840	-0.224611
C84	C	0.789037	-0.245938	-0.000375
C85	C	0.762045	-0.224795	-0.117169
C86	C	0.685802	-0.273532	-0.117481
H87	H	0.758437	-0.206832	0.078691
H88	H	0.786231	-0.332460	-0.000453
H89	H	0.764844	-0.138289	-0.117078
H90	H	0.792623	-0.263902	-0.196254
H91	H	0.682997	-0.360055	-0.117559
H92	H	0.655209	-0.234423	-0.038409
H93	H	0.667481	-0.259204	-0.196729
C94	C	0.552891	0.125717	-0.258310
C95	C	0.612794	0.109950	-0.366669
C96	C	0.582774	0.089365	-0.490581
H97	H	0.526253	0.194776	-0.263655
H98	H	0.518538	0.053369	-0.263524
H99	H	0.647134	0.182291	-0.361458
H100	H	0.639438	0.040889	-0.361369
H101	H	0.548421	0.017017	-0.495794
H102	H	0.556135	0.158428	-0.495912
H103	H	0.623412	0.078654	-0.564117
C104	C	0.513536	0.207103	0.258137
C105	C	0.556927	0.225511	0.366496
C106	C	0.508029	0.244081	0.490408
H107	H	0.478361	0.136465	0.263483
H108	H	0.486116	0.277873	0.263349
H109	H	0.584335	0.154748	0.361287
H110	H	0.592100	0.296151	0.361195
H111	H	0.480608	0.314851	0.495620
H112	H	0.472856	0.173440	0.495740
H113	H	0.537462	0.256584	0.563944
C114	C	0.971578	0.048847	0.343593
C115	C	0.940258	-0.064842	0.378196
C116	C	0.985615	-0.159024	0.306598
H117	H	1.022129	0.065176	0.366848
H118	H	0.973027	0.045737	0.248288
H119	H	0.938817	-0.061730	0.473480
H120	H	0.889712	-0.081211	0.354938
H121	H	0.987064	-0.162135	0.211293
H122	H	1.036164	-0.142683	0.329858
H123	H	0.964367	-0.236175	0.330056
H124	H	0.873329	0.252326	0.636808
