data_functionalizedCrystal
_audit_creation_method	'MofGen! by Chris Wilmer'
_symmetry_space_group_name_H-M	'P1'
_symmetry_Int_Tables_number	1
_symmetry_cell_setting	triclinic
loop_
_symmetry_equiv_pos_as_xyz
  x,y,z
_cell_length_a	14.519709
_cell_length_b	12.837942
_cell_length_c	11.892113
_cell_angle_alpha	86.039625
_cell_angle_beta	94.355608
_cell_angle_gamma	90.745457
loop_
_atom_site_label
_atom_site_type_symbol
_atom_site_fract_x
_atom_site_fract_y
_atom_site_fract_z
O1	O	1.241383	-0.141822	0.093854
O2	O	1.741383	0.358178	0.593854
O3	O	0.974291	-0.157829	0.093888
O4	O	1.474291	0.342171	0.593888
O5	O	1.101914	0.001089	0.093865
O6	O	1.601914	0.501089	0.593865
O7	O	1.113760	-0.300740	0.093877
O8	O	1.613760	0.199260	0.593877
O9	O	1.090340	0.012939	-0.094141
O10	O	1.590340	0.512939	0.405859
O11	O	0.962717	-0.145979	-0.094118
O12	O	1.462717	0.354021	0.405882
O13	O	1.229809	-0.129971	-0.094152
O14	O	1.729809	0.370029	0.405848
Zn15	Zn	1.094426	-0.136093	-0.123985
Zn16	Zn	1.594426	0.363907	0.376015
Zn17	Zn	1.109675	-0.151707	0.123721
Zn18	Zn	1.609675	0.348293	0.623721
O19	O	1.102186	-0.288889	-0.094129
O20	O	1.602186	0.211111	0.405871
C21	C	0.934080	-0.151158	-0.000110
C22	C	1.434080	0.348842	0.499890
C23	C	0.831507	-0.148924	-0.000097
C24	C	1.331507	0.351076	0.499903
N25	N	1.084025	-0.125437	-0.293039
N26	N	1.584025	0.374563	0.206961
C27	C	1.092126	0.045642	-0.000137
C28	C	1.592126	0.545642	0.499863
C29	C	1.080192	0.160741	-0.000134
C30	C	1.580192	0.660741	0.499866
C31	C	0.455897	-0.140692	-0.000149
C32	C	0.955897	0.359308	0.499851
C33	C	0.560403	-0.142978	-0.000134
C34	C	1.060403	0.357022	0.499866
C35	C	0.643699	-0.144808	-0.000122
C36	C	1.143699	0.355192	0.499878
C37	C	0.748211	-0.147094	-0.000110
C38	C	1.248211	0.352906	0.499890
C39	C	1.270020	-0.136642	-0.000151
C40	C	1.770020	0.363358	0.499849
C41	C	1.372594	-0.138877	-0.000157
C42	C	1.872594	0.361123	0.499843
C43	C	1.111975	-0.333442	-0.000124
C44	C	1.611975	0.166558	0.499876
C45	C	1.123909	-0.448542	-0.000120
C46	C	1.623909	0.051458	0.499880
C47	C	1.223663	0.401433	-0.000129
C48	C	1.723663	0.901433	0.499871
C49	C	1.212454	0.509579	-0.000125
C50	C	1.712454	1.009579	0.499875
C51	C	1.046567	0.485182	-0.000116
C52	C	1.546567	0.985182	0.499884
C53	C	1.057776	0.377035	-0.000119
C54	C	1.557776	0.877035	0.499881
C55	C	1.146326	0.335165	-0.000127
C56	C	1.646326	0.835165	0.499873
C57	C	1.157534	0.227017	-0.000139
C58	C	1.657534	0.727017	0.499861
C59	C	0.991648	0.202621	-0.000121
C60	C	1.491648	0.702621	0.499879
C61	C	0.980440	0.310768	-0.000118
C62	C	1.480440	0.810768	0.499882
C63	C	1.192447	-0.236561	-0.529696
C64	C	1.692447	0.263439	-0.029696
C65	C	1.185184	-0.229103	-0.648037
C66	C	1.685184	0.270897	-0.148037
C67	C	1.062241	-0.103059	-0.648064
C68	C	1.562241	0.396941	-0.148064
C69	C	1.069504	-0.110516	-0.529723
C70	C	1.569504	0.389484	-0.029723
C71	C	1.134608	-0.177271	-0.470543
C72	C	1.634608	0.322729	0.029457
C73	C	1.141867	-0.184733	-0.352200
C74	C	1.641867	0.315267	0.147800
C75	C	1.018928	-0.058684	-0.352229
C76	C	1.518928	0.441316	0.147771
C77	C	1.011665	-0.051226	-0.470570
C78	C	1.511665	0.448774	0.029430
N79	N	1.120082	-0.162355	0.292774
N80	N	1.620082	0.337645	0.792774
H81	H	1.229636	0.192929	-0.000149
H82	H	1.729636	0.692929	0.499851
Cl83	Cl	0.869126	0.363414	-0.000098
Cl84	Cl	1.369126	0.863414	0.499902
H85	H	1.275430	0.563531	-0.000123
H86	H	1.775430	1.063531	0.499877
Cl87	Cl	1.334978	0.348794	-0.000167
Cl88	Cl	1.834978	0.848794	0.499833
Cl89	Cl	0.935258	0.537835	-0.000072
Cl90	Cl	1.435258	1.037835	0.499928
H91	H	1.232283	-0.277383	-0.696195
H92	H	1.732283	0.222617	-0.196195
Cl93	Cl	0.894419	0.119307	-0.000133
Cl94	Cl	1.394419	0.619307	0.499867
Cl95	Cl	0.980403	-0.019144	-0.722481
Cl96	Cl	1.480403	0.480856	-0.222481
H97	H	1.194874	-0.239093	-0.304017
H98	H	1.694874	0.260907	0.195983
H99	H	1.245450	-0.290925	-0.481511
H100	H	1.745450	0.209075	0.018489
Cl101	Cl	0.929823	0.032687	-0.544979
Cl102	Cl	1.429823	0.532687	-0.044979
Cl103	Cl	0.946207	0.015850	-0.277859
Cl104	Cl	1.446207	0.515850	0.222141
