data_functionalizedCrystal
_audit_creation_method	'MofGen! by Chris Wilmer'
_symmetry_space_group_name_H-M	'P1'
_symmetry_Int_Tables_number	1
_symmetry_cell_setting	triclinic
loop_
_symmetry_equiv_pos_as_xyz
  x,y,z
_cell_length_a	13.032831
_cell_length_b	12.645330
_cell_length_c	13.032268
_cell_angle_alpha	82.848687
_cell_angle_beta	89.113023
_cell_angle_gamma	82.822813
loop_
_atom_site_label
_atom_site_type_symbol
_atom_site_fract_x
_atom_site_fract_y
_atom_site_fract_z
Zn1	Zn	1.498478	-0.715929	0.780858
Zn2	Zn	1.520220	-0.873876	0.608884
Zn3	Zn	1.348336	-0.671644	0.587098
Zn4	Zn	1.326468	-0.868144	0.759009
O5	O	1.423375	-0.782398	0.683962
O6	O	1.645282	-0.757814	0.776307
O7	O	1.515670	-0.830915	0.462076
O8	O	1.368306	-0.529182	0.612827
O9	O	1.661256	-0.873856	0.649958
O10	O	1.478614	-0.561718	0.755182
O11	O	1.389388	-0.682336	0.446071
O12	O	1.201515	-0.676778	0.591641
O13	O	1.331034	-0.864087	0.905824
O14	O	1.185448	-0.821146	0.717943
O15	O	1.457409	-0.752256	0.921877
O16	O	1.494465	-1.021452	0.628771
O17	O	1.352116	-1.017241	0.739067
C18	C	1.156164	-0.743535	0.650057
C19	C	1.041847	-0.726938	0.635577
C20	C	0.982971	-0.791061	0.691519
C21	C	0.864818	-0.773908	0.676555
C22	C	1.423302	-1.057816	0.683938
C23	C	1.423360	-1.175658	0.683974
C24	C	1.334105	-1.340692	0.753648
C25	C	1.333733	-1.218045	0.753341
C26	C	1.407793	-1.203807	0.571873
C27	C	1.407248	-1.326389	0.572295
C28	C	1.528779	-1.361707	0.725584
C29	C	1.527810	-1.239270	0.727870
C30	C	1.691630	-0.821414	0.718000
C31	C	1.805944	-0.838040	0.732505
C32	C	1.389357	-0.812472	0.952210
C33	C	1.374860	-0.825288	1.066522
C34	C	1.423474	-0.505912	0.684012
C35	C	1.423516	-0.388090	0.684033
C36	C	1.457320	-0.752374	0.416765
C37	C	1.472016	-0.739288	0.302479
C38	C	1.430925	-0.775669	1.125428
C39	C	1.415944	-0.788914	1.243575
H40	H	0.827756	-0.706302	0.617582
H41	H	1.490012	-0.723380	1.088392
H42	H	1.531105	-0.686993	1.265449
H43	H	1.004781	-0.659337	0.576608
O44	O	1.492117	-1.166871	0.500475
H45	H	1.546143	-1.127962	0.544236
O46	O	1.344439	-1.193576	0.862879
H47	H	1.349934	-1.269440	0.916549
O48	O	1.344256	-1.395598	0.863366
H49	H	1.413181	-1.457200	0.869476
H50	H	1.315763	-0.877565	1.103557
H51	H	1.356842	-0.841195	1.280605
H52	H	0.843003	-0.905637	0.791489
H53	H	1.256264	-1.357903	0.725332
H54	H	1.330710	-1.340879	0.538698
O55	O	1.032050	-0.880583	0.769666
H56	H	1.117149	-0.879999	0.769165
H57	H	1.255418	-1.175020	0.724725
O58	O	1.490737	-1.367183	0.500252
H59	H	1.531317	-1.299347	0.465259
O60	O	1.307580	-1.144553	0.526934
H61	H	1.242130	-1.168362	0.576356
O62	O	1.551150	-1.419265	0.832993
H63	H	1.625102	-1.473274	0.832416
O64	O	1.543718	-1.216780	0.837234
H65	H	1.477518	-1.160528	0.860239
O66	O	1.619226	-1.202657	0.667015
H67	H	1.621375	-1.115852	0.671333
H68	H	1.595223	-1.392760	0.675049
