data_functionalizedCrystal
_audit_creation_method	'MofGen! by Chris Wilmer'
_symmetry_space_group_name_H-M	'P1'
_symmetry_Int_Tables_number	1
_symmetry_cell_setting	triclinic
loop_
_symmetry_equiv_pos_as_xyz
  x,y,z
_cell_length_a	18.101389
_cell_length_b	12.759401
_cell_length_c	12.759400
_cell_angle_alpha	89.989346
_cell_angle_beta	89.985040
_cell_angle_gamma	90.017435
loop_
_atom_site_label
_atom_site_type_symbol
_atom_site_fract_x
_atom_site_fract_y
_atom_site_fract_z
Zn1	Zn	-0.418720	-1.606228	-0.418489
Zn2	Zn	-0.294886	-1.606130	-0.594157
Zn3	Zn	-0.294896	-1.430538	-0.418481
Zn4	Zn	-0.418690	-1.430518	-0.594115
O5	O	-0.356798	-1.518353	-0.506311
O6	O	-0.402302	-1.753236	-0.441814
O7	O	-0.191255	-1.582805	-0.570868
O8	O	-0.311339	-1.453892	-0.271461
O9	O	-0.311322	-1.753164	-0.570876
O10	O	-0.402312	-1.582971	-0.271467
O11	O	-0.191262	-1.453798	-0.441799
O12	O	-0.311309	-1.283514	-0.441757
O13	O	-0.522327	-1.453859	-0.570803
O14	O	-0.402260	-1.283500	-0.570795
O15	O	-0.522349	-1.582952	-0.441772
O16	O	-0.311292	-1.582786	-0.741173
O17	O	-0.402250	-1.453765	-0.741141
C18	C	-0.356783	-1.245386	-0.506271
C19	C	-0.356794	-1.128610	-0.506280
C20	C	-0.404239	-1.073778	-0.439201
C21	C	-0.404242	-0.964054	-0.439215
C22	C	-0.309351	-0.964003	-0.573396
C23	C	-0.309345	-1.073725	-0.573376
C24	C	-0.459026	-1.073806	-0.361736
C25	C	-0.459029	-0.964082	-0.361750
C26	C	-0.549960	-1.518414	-0.506284
C27	C	-0.632274	-1.518440	-0.506273
C28	C	-0.931365	-1.518501	-0.506076
C29	C	-0.900026	-1.437000	-0.587000
C30	C	-0.814408	-1.437220	-0.587376
C31	C	-0.782983	-1.518470	-0.506173
C32	C	-0.814080	-1.629171	-0.536234
C33	C	-0.899726	-1.628717	-0.536766
C34	C	-0.899787	-1.490264	-0.394910
C35	C	-0.814137	-1.487801	-0.395552
C36	C	-0.699123	-1.518459	-0.506227
C37	C	-1.015225	-1.518519	-0.506025
C38	C	-0.164388	-1.518353	-0.506261
C39	C	-0.082074	-1.518531	-0.505977
C40	C	-0.356783	-1.518291	-0.779278
C41	C	-0.356801	-1.518361	-0.896055
C42	C	-0.356809	-0.792387	-0.506337
C43	C	-0.356802	-0.909163	-0.506314
C44	C	-0.309492	-1.585617	-0.950898
C45	C	-0.309514	-1.585681	-1.060622
C46	C	-0.404158	-1.451225	-1.060649
C47	C	-0.404138	-1.451166	-0.950927
C48	C	-0.254847	-1.663241	-0.950883
C49	C	-0.254870	-1.663305	-1.060607
C50	C	-0.356830	-1.518445	-0.232277
C51	C	-0.356843	-1.518484	-0.115501
H52	H	-0.793381	-1.355132	-0.568564
H53	H	-0.792640	-1.653518	-0.616634
N54	N	-0.182919	-1.636026	-1.098066
N55	N	-0.170759	-1.631463	-1.194398
H56	H	-0.119946	-1.612195	-1.220855
H57	H	-0.270720	-0.919302	-0.628024
H58	H	-0.443764	-1.103574	-0.280328
H59	H	-0.920618	-1.354665	-0.568381
H60	H	-0.921379	-1.410942	-0.367524
N61	N	-0.788559	-1.707417	-0.464630
N62	N	-0.833949	-1.759416	-0.412174
H63	H	-0.815925	-1.814678	-0.361602
N64	N	-0.924790	-1.658751	-0.638710
N65	N	-0.879030	-1.679899	-0.708971
H66	H	-0.896728	-1.701113	-0.780972
N67	N	-0.280716	-1.760275	-1.103202
N68	N	-0.300050	-1.832841	-1.043346
H69	H	-0.318308	-1.901323	-1.073429
N70	N	-0.433389	-0.921390	-0.264725
N71	N	-0.466676	-0.941978	-0.181379
H72	H	-0.448566	-0.911828	-0.112856
N73	N	-0.527327	-1.116530	-0.398442
N74	N	-0.578481	-1.056770	-0.425946
H75	H	-0.626718	-1.086943	-0.451874
N76	N	-0.452508	-1.382601	-1.116719
N77	N	-0.452524	-1.382667	-1.214684
H78	H	-0.486671	-1.334200	-1.254283
N79	N	-0.186475	-1.626684	-0.908269
N80	N	-0.164185	-1.536279	-0.928926
H81	H	-0.115898	-1.510452	-0.898834
N82	N	-0.530947	-0.926769	-0.389267
N83	N	-0.558498	-0.950448	-0.475909
H84	H	-0.609288	-0.924096	-0.495346
H85	H	-0.793811	-1.406335	-0.372883
N86	N	-0.927041	-1.460157	-0.689733
N87	N	-0.969275	-1.536424	-0.703608
H88	H	-0.988357	-1.552783	-0.776162
N89	N	-0.925745	-1.707468	-0.466032
N90	N	-0.908919	-1.703150	-0.371124
H91	H	-0.927294	-1.758768	-0.321171
N92	N	-0.452479	-1.382475	-0.894922
N93	N	-0.494740	-1.322490	-0.943931
H94	H	-0.528884	-1.273975	-0.904378
N95	N	-0.787284	-1.556823	-0.315901
N96	N	-0.719407	-1.564279	-0.299547
H97	H	-0.700437	-1.613034	-0.243299
N98	N	-0.260866	-1.129718	-0.641888
N99	N	-0.218507	-1.080699	-0.701785
H100	H	-0.184265	-1.120243	-0.750174
N101	N	-0.788754	-1.460699	-0.690744
N102	N	-0.805913	-1.545618	-0.733084
H103	H	-0.787808	-1.562217	-0.806097
N104	N	-0.925215	-1.564739	-0.319282
N105	N	-0.966413	-1.638322	-0.346991
H106	H	-0.984375	-1.690925	-0.293587
H107	H	-0.270252	-1.744583	-0.921038
