data_functionalizedCrystal
_audit_creation_method	'MofGen! by Chris Wilmer'
_symmetry_space_group_name_H-M	'P1'
_symmetry_Int_Tables_number	1
_symmetry_cell_setting	triclinic
loop_
_symmetry_equiv_pos_as_xyz
  x,y,z
_cell_length_a	21.395364
_cell_length_b	16.959453
_cell_length_c	21.395355
_cell_angle_alpha	90.017325
_cell_angle_beta	90.024552
_cell_angle_gamma	90.034939
loop_
_atom_site_label
_atom_site_type_symbol
_atom_site_fract_x
_atom_site_fract_y
_atom_site_fract_z
Zn1	Zn	0.957906	-0.314458	0.354267
Zn2	Zn	1.291239	0.018876	0.687600
Zn3	Zn	1.624573	0.352209	1.020933
Zn4	Zn	0.957828	-0.446619	0.249491
Zn5	Zn	1.291161	-0.113285	0.582825
Zn6	Zn	1.624495	0.220048	0.916158
Zn7	Zn	0.853121	-0.314492	0.249503
Zn8	Zn	1.186454	0.018841	0.582837
Zn9	Zn	1.519788	0.352174	0.916170
Zn10	Zn	0.853110	-0.446633	0.354232
Zn11	Zn	1.186443	-0.113299	0.687565
Zn12	Zn	1.519776	0.220034	1.020898
O13	O	0.905491	-0.380550	0.301873
O14	O	1.238824	-0.047217	0.635207
O15	O	1.572158	0.286116	0.968540
O16	O	1.045573	-0.331969	0.340378
O17	O	1.378907	0.001365	0.673711
O18	O	1.712240	0.334698	1.007044
O19	O	0.943910	-0.429100	0.161815
O20	O	1.277244	-0.095767	0.495148
O21	O	1.610577	0.237566	0.828482
O22	O	0.867058	-0.203877	0.263420
O23	O	1.200391	0.129456	0.596754
O24	O	1.533725	0.462790	0.930087
O25	O	1.045516	-0.429067	0.263400
O26	O	1.378850	-0.095733	0.596733
O27	O	1.712183	0.237600	0.930066
O28	O	0.944043	-0.203851	0.340389
O29	O	1.277377	0.129482	0.673723
O30	O	1.610710	0.462815	1.007056
O31	O	0.866983	-0.332028	0.161824
O32	O	1.200316	0.001306	0.495157
O33	O	1.533649	0.334639	0.828491
O34	O	0.765441	-0.332041	0.263386
O35	O	1.098775	0.001292	0.596719
O36	O	1.432108	0.334625	0.930053
O37	O	0.867039	-0.429091	0.441914
O38	O	1.200372	-0.095757	0.775247
O39	O	1.533706	0.237576	1.108581
O40	O	0.765433	-0.429124	0.340329
O41	O	1.098767	-0.095791	0.673663
O42	O	1.432100	0.237542	1.006996
O43	O	0.944032	-0.331982	0.441940
O44	O	1.277366	0.001351	0.775273
O45	O	1.610699	0.334684	1.108607
O46	O	0.943900	-0.557231	0.263366
O47	O	1.277233	-0.223898	0.596699
O48	O	1.610566	0.109435	0.930032
O49	O	0.866963	-0.557242	0.340318
O50	O	1.200297	-0.223908	0.673651
O51	O	1.533630	0.109425	1.006984
C52	C	0.742703	-0.380589	0.301856
C53	C	1.076037	-0.047255	0.635189
C54	C	1.409370	0.286078	0.968522
C55	C	0.673062	-0.380624	0.301863
C56	C	1.006396	-0.047291	0.635196
C57	C	1.339729	0.286042	0.968530
C58	C	0.640401	-0.330148	0.342007
C59	C	0.973735	0.003185	0.675341
C60	C	1.307068	0.336519	1.008674
C61	C	0.574966	-0.330127	0.342010
C62	C	0.908299	0.003206	0.675343
C63	C	1.241632	0.336540	1.008676
C64	C	0.542194	-0.380596	0.301874
C65	C	0.875527	-0.047263	0.635208
C66	C	1.208861	0.286070	0.968541
C67	C	0.574863	-0.431076	0.261722
C68	C	0.908196	-0.097743	0.595056
C69	C	1.241529	0.235591	0.928389
C70	C	0.640297	-0.431090	0.261717
C71	C	0.973630	-0.097757	0.595050
C72	C	1.306964	0.235577	0.928383
C73	C	0.438480	-0.451779	0.296838
C74	C	0.771813	-0.118446	0.630171
C75	C	1.105147	0.214887	0.963505
C76	C	0.373047	-0.451767	0.296848
C77	C	0.706380	-0.118433	0.630181
C78	C	1.039714	0.214900	0.963515
C79	C	0.340373	-0.380553	0.301888
C80	C	0.673706	-0.047220	0.635222
C81	C	1.007040	0.286114	0.968555
C82	C	0.373140	-0.309349	0.306932
C83	C	0.706474	0.023984	0.640265
C84	C	1.039807	0.357317	0.973598
C85	C	0.438574	-0.309363	0.306926
C86	C	0.771908	0.023970	0.640259
C87	C	1.105241	0.357303	0.973593
C88	C	0.471242	-0.380586	0.301876
C89	C	0.804575	-0.047253	0.635209
C90	C	1.137908	0.286080	0.968542
C91	C	0.236760	-0.330050	0.342037
C92	C	0.570093	0.003284	0.675371
C93	C	0.903426	0.336617	1.008704
C94	C	0.171323	-0.330027	0.342036
C95	C	0.504656	0.003306	0.675369
C96	C	0.837990	0.336639	1.008702
C97	C	0.171221	-0.430983	0.261751
C98	C	0.504555	-0.097650	0.595085
C99	C	0.837888	0.235683	0.928418
C100	C	0.236657	-0.430999	0.261750
C101	C	0.569990	-0.097665	0.595083
C102	C	0.903323	0.235668	0.928417
C103	C	0.269422	-0.380533	0.301896
C104	C	0.602755	-0.047200	0.635230
C105	C	0.936089	0.286134	0.968563
C106	C	0.905439	-0.585917	0.301850
C107	C	1.238772	-0.252583	0.635184
C108	C	1.572105	0.080750	0.968517
C109	C	0.905474	-0.673773	0.301861
C110	C	1.238807	-0.340440	0.635195
C111	C	1.572140	-0.007107	0.968528
C112	C	0.945629	-1.045177	0.342027
C113	C	1.278962	-0.711844	0.675360
C114	C	1.612295	-0.378510	1.008693
C115	C	0.865529	-1.045320	0.261813
C116	C	1.198862	-0.711987	0.595146
C117	C	1.532195	-0.378654	0.928480
C118	C	0.865505	-0.962775	0.261798
C119	C	1.198839	-0.629441	0.595132
C120	C	1.532172	-0.296108	0.928465
C121	C	0.905544	-0.921426	0.301899
C122	C	1.238877	-0.588093	0.635233
C123	C	1.572210	-0.254759	0.968566
C124	C	0.945605	-0.962623	0.342015
C125	C	1.278939	-0.629290	0.675348
C126	C	1.612272	-0.295957	1.008682
C127	C	0.825440	-0.921571	0.221688
C128	C	1.158773	-0.588238	0.555022
C129	C	1.492107	-0.254904	0.888355
C130	C	0.825415	-0.839020	0.221673
C131	C	1.158748	-0.505687	0.555006
C132	C	1.492081	-0.172353	0.888339
C133	C	0.865457	-0.797670	0.261771
C134	C	1.198790	-0.464337	0.595104
C135	C	1.532123	-0.131003	0.928438
C136	C	0.905520	-0.838873	0.301888
C137	C	1.238854	-0.505539	0.635221
C138	C	1.572187	-0.172206	0.968554
C139	C	0.945559	-0.797524	0.341989
C140	C	1.278892	-0.464191	0.675322
C141	C	1.612225	-0.130857	1.008655
C142	C	0.985626	-0.838725	0.382103
C143	C	1.318959	-0.505392	0.715436
C144	C	1.652293	-0.172058	1.048769
C145	C	0.985647	-0.921273	0.382113
C146	C	1.318980	-0.587940	0.715447
C147	C	1.652314	-0.254607	1.048780
C148	C	0.865435	-0.715122	0.261760
C149	C	1.198769	-0.381788	0.595094
C150	C	1.532102	-0.048455	0.928427
C151	C	0.945535	-0.714971	0.341977
C152	C	1.278869	-0.381637	0.675310
C153	C	1.612202	-0.048304	1.008644
C154	C	1.068914	-0.380512	0.301891
C155	C	1.402248	-0.047179	0.635225
C156	C	1.735581	0.286154	0.968558
C157	C	1.138556	-0.380496	0.301899
C158	C	1.471889	-0.047163	0.635232
C159	C	1.805222	0.286171	0.968566
C160	C	0.905543	-0.380534	0.465297
C161	C	1.238876	-0.047201	0.798630
C162	C	1.572210	0.286132	1.131963
C163	C	0.905565	-0.380527	0.534938
C164	C	1.238899	-0.047194	0.868271
C165	C	1.572232	0.286139	1.201605
C166	C	0.905561	-0.174382	0.301910
C167	C	1.238894	0.158951	0.635243
C168	C	1.572227	0.492285	0.968577
C169	C	0.905590	-0.086525	0.301926
C170	C	1.238924	0.246808	0.635259
C171	C	1.572257	0.580141	0.968592
C172	C	0.905475	-0.380509	0.139086
C173	C	1.238809	-0.047176	0.472419
C174	C	1.572142	0.286157	0.805752
C175	C	0.905575	-0.380293	0.069445
C176	C	1.238908	-0.046960	0.402778
C177	C	1.572241	0.286373	0.736111
C178	C	0.945654	-0.329961	0.567665
C179	C	1.278987	0.003372	0.900999
C180	C	1.612321	0.336706	1.234332
C181	C	0.945653	-0.329927	0.633101
C182	C	1.278986	0.003406	0.966434
C183	C	1.612320	0.336740	1.299768
C184	C	0.905570	-0.380474	0.665806
C185	C	1.238903	-0.047140	0.999140
C186	C	1.572237	0.286193	1.332473
C187	C	0.865474	-0.431044	0.633071
C188	C	1.198807	-0.097710	0.966404
C189	C	1.532140	0.235623	1.299737
C190	C	0.865471	-0.431071	0.567637
C191	C	1.198805	-0.097737	0.900970
C192	C	1.532138	0.235596	1.234303
C193	C	0.900605	-0.451647	0.769473
C194	C	1.233938	-0.118313	1.102806
C195	C	1.567271	0.215020	1.436140
C196	C	0.900612	-0.451621	0.834906
C197	C	1.233945	-0.118288	1.168239
C198	C	1.567278	0.215046	1.501573
C199	C	0.905574	-0.380390	0.867627
C200	C	1.238907	-0.047057	1.200960
C201	C	1.572241	0.286277	1.534294
C202	C	0.910543	-0.309183	0.834907
C203	C	1.243876	0.024151	1.168241
C204	C	1.577209	0.357484	1.501574
C205	C	0.910540	-0.309210	0.769473
C206	C	1.243874	0.024124	1.102806
C207	C	1.577207	0.357457	1.436140
C208	C	0.905568	-0.380450	0.736759
C209	C	1.238901	-0.047116	1.070092
C210	C	1.572235	0.286217	1.403425
C211	C	0.945664	-0.329783	0.971307
C212	C	1.278997	0.003551	1.304641
C213	C	1.612331	0.336884	1.637974
C214	C	0.945659	-0.329747	1.036744
C215	C	1.278992	0.003586	1.370077
C216	C	1.612325	0.336919	1.703411
C217	C	0.865482	-0.430871	1.036713
C218	C	1.198816	-0.097537	1.370046
C219	C	1.532149	0.235796	1.703379
C220	C	0.865484	-0.430899	0.971277
C221	C	1.198818	-0.097566	1.304611
C222	C	1.532151	0.235768	1.637944
C223	C	0.905578	-0.380356	0.938578
C224	C	1.238912	-0.047023	1.271912
C225	C	1.572245	0.286311	1.605245
H226	H	0.548176	-0.472168	0.229043
H227	H	0.881509	-0.138834	0.562377
H228	H	1.214842	0.194499	0.895710
F229	F	0.822813	-0.484836	0.667879
F230	F	1.156146	-0.151503	1.001212
F231	F	1.489479	0.181830	1.334546
H232	H	0.667075	-0.289054	0.374697
H233	H	1.000408	0.044279	0.708031
H234	H	1.333741	0.377612	1.041364
F235	F	0.988336	-0.275934	1.071575
F236	F	1.321670	0.057400	1.404908
F237	F	1.655003	0.390733	1.738242
F238	F	0.782821	-0.965581	0.179023
F239	F	1.116155	-0.632247	0.512357
F240	F	1.449488	-0.298914	0.845690
F241	F	0.136347	-0.484692	0.219032
F242	F	0.469681	-0.151359	0.552365
F243	F	0.803014	0.181975	0.885699
H244	H	0.914585	-0.251180	0.861547
H245	H	1.247918	0.082154	1.194881
H246	H	1.581251	0.415487	1.528214
F247	F	0.915825	-0.233428	0.734653
F248	F	1.249158	0.099906	1.067986
F249	F	1.582492	0.433239	1.401319
F250	F	0.271633	-0.276336	0.384760
F251	F	0.604966	0.056997	0.718094
F252	F	0.938300	0.390331	1.051427
F253	F	0.675058	-0.484814	0.218986
F254	F	1.008391	-0.151481	0.552319
F255	F	1.341725	0.181853	0.885653
F256	F	0.988323	-0.276165	0.532869
F257	F	1.321657	0.057168	0.866202
F258	F	1.654990	0.390502	1.199535
H259	H	0.346538	-0.251360	0.311036
H260	H	0.679872	0.081973	0.644369
H261	H	1.013205	0.415307	0.977703
F262	F	0.271418	-0.484720	0.219020
F263	F	0.604751	-0.151387	0.552354
F264	F	0.938085	0.181946	0.885687
H265	H	0.978252	-1.078726	0.374685
H266	H	1.311585	-0.745393	0.708018
H267	H	1.644919	-0.412060	1.041351
F268	F	0.822795	-0.671276	0.219073
F269	F	1.156128	-0.337943	0.552406
F270	F	1.489461	-0.004610	0.885740
F271	F	0.338180	-0.527548	0.291490
F272	F	0.671513	-0.194214	0.624823
F273	F	1.004847	0.139119	0.958156
H274	H	1.018267	-0.954827	0.414772
H275	H	1.351601	-0.621493	0.748106
H276	H	1.684934	-0.288160	1.081439
H277	H	0.978297	-0.288746	0.659753
H278	H	1.311630	0.044588	0.993086
H279	H	1.644963	0.377921	1.326420
F280	F	0.136563	-0.276297	0.384762
F281	F	0.469896	0.057036	0.718096
F282	F	0.803230	0.390369	1.051429
F283	F	0.822912	-1.089328	0.219145
F284	F	1.156245	-0.755995	0.552478
F285	F	1.489579	-0.422662	0.885811
H286	H	0.465078	-0.509775	0.292733
H287	H	0.798411	-0.176441	0.626066
H288	H	1.131744	0.156892	0.959400
H289	H	0.978307	-0.288623	0.944683
H290	H	1.311641	0.044710	1.278016
H291	H	1.644974	0.378044	1.611349
F292	F	0.822801	-0.484893	0.532804
F293	F	1.156135	-0.151559	0.866138
F294	F	1.489468	0.181774	1.199471
F295	F	0.988154	-0.670971	0.384656
F296	F	1.321487	-0.337638	0.717989
F297	F	1.654820	-0.004304	1.051322
F298	F	0.822818	-0.484661	1.071516
F299	F	1.156151	-0.151328	1.404849
F300	F	1.489485	0.182006	1.738182
H301	H	0.832844	-0.472081	0.944630
H302	H	1.166177	-0.138747	1.277963
H303	H	1.499510	0.194586	1.611297
F304	F	0.895329	-0.527406	0.869723
F305	F	1.228662	-0.194072	1.203056
F306	F	1.561996	0.139261	1.536390
H307	H	0.792791	-0.805479	0.189010
H308	H	1.126124	-0.472146	0.522343
H309	H	1.459457	-0.138813	0.855676
H310	H	0.548368	-0.289019	0.374699
H311	H	0.881701	0.044314	0.708032
H312	H	1.215035	0.377647	1.041366
F313	F	0.473445	-0.233586	0.312291
F314	F	0.806778	0.099748	0.645624
F315	F	1.140112	0.433081	0.978958
F316	F	0.895337	-0.527467	0.734655
F317	F	1.228670	-0.194134	1.067988
F318	F	1.562004	0.139200	1.401322
H319	H	1.018223	-0.805050	0.414756
H320	H	1.351556	-0.471716	0.748089
H321	H	1.684889	-0.138383	1.081423
