data_functionalizedCrystal
_audit_creation_method	'MofGen! by Chris Wilmer'
_symmetry_space_group_name_H-M	'P1'
_symmetry_Int_Tables_number	1
_symmetry_cell_setting	triclinic
loop_
_symmetry_equiv_pos_as_xyz
  x,y,z
_cell_length_a	14.519731
_cell_length_b	14.519731
_cell_length_c	10.868271
_cell_angle_alpha	89.995592
_cell_angle_beta	89.999692
_cell_angle_gamma	96.311147
loop_
_atom_site_label
_atom_site_type_symbol
_atom_site_fract_x
_atom_site_fract_y
_atom_site_fract_z
O1	O	-0.120984	1.223864	-0.102310
O2	O	0.212349	1.557198	0.231024
O3	O	0.545683	1.890531	0.564357
O4	O	-0.135200	0.955391	-0.102310
O5	O	0.198133	1.288725	0.231024
O6	O	0.531467	1.622058	0.564357
O7	O	0.006145	1.096736	-0.102318
O8	O	0.339478	1.430069	0.231015
O9	O	0.672811	1.763402	0.564348
O10	O	-0.262329	1.082520	-0.102301
O11	O	0.071005	1.415853	0.231033
O12	O	0.404338	1.749186	0.564366
O13	O	0.006150	1.096724	0.102326
O14	O	0.339483	1.430057	0.435660
O15	O	0.672817	1.763391	0.768993
O16	O	-0.135195	0.955380	0.102335
O17	O	0.198139	1.288713	0.435668
O18	O	0.531472	1.622046	0.769002
O19	O	-0.120979	1.223853	0.102335
O20	O	0.212355	1.557186	0.435668
O21	O	0.545688	1.890519	0.769002
Zn22	Zn	-0.128086	1.089614	0.134827
Zn23	Zn	0.205248	1.422948	0.468160
Zn24	Zn	0.538581	1.756281	0.801493
Zn25	Zn	-0.128093	1.089630	-0.134801
Zn26	Zn	0.205240	1.422963	0.198532
Zn27	Zn	0.538574	1.756296	0.531865
O28	O	-0.262323	1.082508	0.102344
O29	O	0.071010	1.415842	0.435677
O30	O	0.404344	1.749175	0.769011
C31	C	-0.134531	0.921026	0.000012
C32	C	0.198802	1.254359	0.333346
C33	C	0.532136	1.587693	0.666679
C34	C	-0.132535	0.818645	0.000012
C35	C	0.200798	1.151979	0.333345
C36	C	0.534132	1.485312	0.666678
C37	C	-0.130913	0.735501	0.000007
C38	C	0.202420	1.068835	0.333340
C39	C	0.535753	1.402168	0.666673
C40	C	-0.128887	0.631192	0.000006
C41	C	0.204447	0.964526	0.333339
C42	C	0.537780	1.297859	0.666673
C43	C	-0.127278	0.548053	0.000006
C44	C	0.206055	0.881386	0.333339
C45	C	0.539388	1.214720	0.666673
C46	C	-0.125252	0.443738	0.000003
C47	C	0.208081	0.777071	0.333336
C48	C	0.541415	1.110404	0.666670
C49	C	-0.296685	1.083180	0.000024
C50	C	0.036648	1.416513	0.333357
C51	C	0.369981	1.749847	0.666690
C52	C	-0.399066	1.085176	0.000030
C53	C	-0.065732	1.418509	0.333364
C54	C	0.267601	1.751843	0.666697
C55	C	-0.482210	1.086798	0.000025
C56	C	-0.148877	1.420131	0.333359
C57	C	0.184457	1.753465	0.666692
C58	C	-0.586519	1.088825	0.000014
C59	C	-0.253186	1.422158	0.333347
C60	C	0.080148	1.755491	0.666680
C61	C	-0.669658	1.090433	0.000004
C62	C	-0.336325	1.423766	0.333337
C63	C	-0.002991	1.757100	0.666670
C64	C	-0.773974	1.092459	-0.000006
C65	C	-0.440640	1.425793	0.333328
C66	C	-0.107307	1.759126	0.666661
C67	C	0.040507	1.096064	-0.000001
C68	C	0.373840	1.429397	0.333332
C69	C	0.707173	1.762730	0.666666
C70	C	0.142887	1.094068	-0.000016
C71	C	0.476220	1.427401	0.333318
C72	C	0.809554	1.760734	0.666651
C73	C	-0.121648	1.258218	0.000010
C74	C	0.211686	1.591551	0.333344
C75	C	0.545019	1.924885	0.666677
C76	C	-0.123643	1.360598	0.000003
C77	C	0.209690	1.693932	0.333336
C78	C	0.543023	2.027265	0.666670
N79	N	-0.128080	1.089611	0.318841
N80	N	0.205253	1.422944	0.652174
N81	N	0.538586	1.756277	0.985508
N82	N	-0.128091	1.089641	-0.318815
N83	N	0.205242	1.422974	0.014518
N84	N	0.538576	1.756307	0.347851
C85	C	-0.128091	1.089625	0.569847
C86	C	0.205242	1.422958	0.903180
C87	C	0.538576	1.756291	1.236514
C88	C	-0.128088	1.089614	0.430169
C89	C	0.205246	1.422947	0.763503
C90	C	0.538579	1.756281	1.096836
