data_functionalizedCrystal
_audit_creation_method	'MofGen! by Chris Wilmer'
_symmetry_space_group_name_H-M	'P1'
_symmetry_Int_Tables_number	1
_symmetry_cell_setting	triclinic
loop_
_symmetry_equiv_pos_as_xyz
  x,y,z
_cell_length_a	12.645330
_cell_length_b	15.297475
_cell_length_c	15.296720
_cell_angle_alpha	91.617114
_cell_angle_beta	99.649341
_cell_angle_gamma	80.321044
loop_
_atom_site_label
_atom_site_type_symbol
_atom_site_fract_x
_atom_site_fract_y
_atom_site_fract_z
Zn1	Zn	-0.825067	1.253448	-0.726648
Zn2	Zn	-0.977718	1.278720	-0.580172
Zn3	Zn	-0.765511	1.132323	-0.554885
Zn4	Zn	-0.967297	1.106946	-0.701300
O5	O	-0.883898	1.192859	-0.640751
O6	O	-0.874601	1.379380	-0.728408
O7	O	-0.929005	1.280497	-0.454242
O8	O	-0.625078	1.148435	-0.577695
O9	O	-0.986754	1.397947	-0.620794
O10	O	-0.668833	1.237425	-0.703888
O11	O	-0.773098	1.172939	-0.435663
O12	O	-0.762993	1.006377	-0.553116
O13	O	-0.968993	1.105183	-0.827238
O14	O	-0.911244	0.987732	-0.660687
O15	O	-0.864497	1.212818	-0.845861
O16	O	-1.124669	1.255889	-0.596215
O17	O	-1.117013	1.129687	-0.685207
C18	C	-0.829526	0.965271	-0.601408
C19	C	-0.806295	0.867904	-0.584597
C20	C	-1.049945	0.554772	-0.760902
C21	C	-1.071780	0.646253	-0.776693
C22	C	-1.005410	0.701670	-0.728671
C23	C	-0.917203	0.665597	-0.664853
C24	C	-0.895371	0.574108	-0.649055
C25	C	-0.850836	0.721006	-0.616824
C26	C	-0.762629	0.684933	-0.553007
C27	C	-0.740801	0.593452	-0.537212
C28	C	-0.807170	0.538035	-0.585234
C29	C	-0.872668	0.812496	-0.632623
C30	C	-0.718094	0.831831	-0.520776
C31	C	-0.696259	0.740350	-0.504984
C32	C	-1.159311	1.192797	-0.640728
C33	C	-1.277157	1.192846	-0.640761
C34	C	-1.440051	1.113695	-0.697003
C35	C	-1.317372	1.113388	-0.696725
C36	C	-1.300270	1.183843	-0.544135
C37	C	-1.422840	1.183360	-0.544476
C38	C	-1.470384	1.281541	-0.680468
C39	C	-1.347981	1.280623	-0.682388
C40	C	-0.607419	1.192942	-0.640798
C41	C	-0.489600	1.192977	-0.640818
C42	C	-0.922226	1.153351	-0.869221
C43	C	-0.938559	1.136514	-0.966581
C44	C	-0.938483	1.421336	-0.680249
C45	C	-0.961744	1.518699	-0.697081
C46	C	-0.766986	1.313223	-1.279808
C47	C	-0.751644	1.329047	-1.188334
C48	C	-0.798371	1.280915	-1.132891
C49	C	-0.860444	1.216957	-1.168931
C50	C	-0.875795	1.201136	-1.260415
C51	C	-0.907179	1.168828	-1.113499
C52	C	-0.969252	1.104870	-1.149538
C53	C	-0.984600	1.089052	-1.241013
C54	C	-0.937873	1.137183	-1.296456
C55	C	-0.891828	1.184649	-1.022015
C56	C	-1.000637	1.072562	-1.002622
C57	C	-1.015979	1.056738	-1.094096
C58	C	-0.845655	1.232264	-0.413179
C59	C	-0.829064	1.249270	-0.315849
H60	H	-1.302455	1.117169	-0.767873
Cl61	Cl	-0.957165	1.117298	-1.411458
H62	H	-1.035154	1.036980	-1.270355
H63	H	-1.066519	1.004662	-1.123453
Cl64	Cl	-1.059390	1.012055	-0.932930
H65	H	-0.789395	0.463542	-0.572381
Cl66	Cl	-0.779078	1.300806	-1.017894
H67	H	-1.023193	0.776158	-0.741533
Cl68	Cl	-0.983553	0.857833	-0.712849
H69	H	-1.273756	1.240465	-0.500427
Cl70	Cl	-1.182665	0.691596	-0.856916
H71	H	-1.103979	0.509645	-0.799989
H72	H	-0.668986	0.564086	-0.485238
Cl73	Cl	-1.223015	1.085806	-0.494774
H74	H	-0.624440	0.710966	-0.453023
Cl75	Cl	-0.708263	1.373731	-1.349511
H76	H	-0.664052	0.876953	-0.481671
H77	H	-0.841287	1.236723	-0.992680
H78	H	-1.334748	1.287703	-0.753579
H79	H	-1.484703	1.117294	-0.768350
H80	H	-1.452052	1.048109	-0.669746
Cl81	Cl	-0.673613	1.409447	-1.143033
Cl82	Cl	-1.242839	1.011518	-0.654223
H83	H	-1.431991	1.119095	-0.512746
H84	H	-1.454946	1.239467	-0.500326
H85	H	-1.517792	1.292878	-0.750574
H86	H	-1.322277	1.341522	-0.645717
H87	H	-1.503081	1.340412	-0.639741
