data_functionalizedCrystal
_audit_creation_method	'MofGen! by Chris Wilmer'
_symmetry_space_group_name_H-M	'P1'
_symmetry_Int_Tables_number	1
_symmetry_cell_setting	triclinic
loop_
_symmetry_equiv_pos_as_xyz
  x,y,z
_cell_length_a	14.853567
_cell_length_b	15.995350
_cell_length_c	13.930277
_cell_angle_alpha	89.997676
_cell_angle_beta	89.995755
_cell_angle_gamma	83.563653
loop_
_atom_site_label
_atom_site_type_symbol
_atom_site_fract_x
_atom_site_fract_y
_atom_site_fract_z
O1	O	1.196221	0.109317	-0.079760
O2	O	0.933744	0.122339	-0.079776
O3	O	1.072157	-0.006051	-0.079766
O4	O	1.057808	0.237707	-0.079769
O5	O	1.072138	-0.006054	0.079895
O6	O	0.933725	0.122336	0.079886
O7	O	1.196202	0.109314	0.079902
Zn8	Zn	1.064960	0.115825	0.105244
Zn9	Zn	1.064986	0.115828	-0.105117
O10	O	1.057788	0.237705	0.079893
C11	C	0.900146	0.121748	0.000053
C12	C	0.800065	0.119980	0.000047
C13	C	0.387644	0.036238	0.000069
C14	C	0.366158	0.188769	0.000067
C15	C	0.460189	0.190432	0.000064
C16	C	0.517953	0.114996	0.000062
C17	C	0.481685	0.037899	0.000063
C18	C	0.496464	0.267528	0.000053
C19	C	0.590501	0.269194	0.000048
C20	C	0.648266	0.193758	0.000054
C21	C	0.611993	0.116657	0.000056
C22	C	0.669757	0.041221	0.000054
C23	C	0.633485	-0.035880	0.000064
C24	C	0.539450	-0.037538	0.000069
C25	C	0.742302	0.195415	0.000049
C26	C	0.763797	0.042882	0.000048
C27	C	1.071555	-0.037248	0.000063
C28	C	1.069776	-0.130201	0.000057
C29	C	1.063389	-0.467956	0.000060
C30	C	0.964813	-0.420636	-0.000304
C31	C	0.966592	-0.323944	0.000056
C32	C	1.066557	-0.300391	0.000058
C33	C	1.115167	-0.341414	0.091234
C34	C	1.112691	-0.438052	0.091310
C35	C	1.114749	-0.438405	-0.090255
C36	C	1.114726	-0.341460	-0.091460
C37	C	1.068353	-0.205692	0.000060
C38	C	1.061596	-0.562655	0.000064
C39	C	1.229799	0.109906	0.000071
C40	C	1.329881	0.111674	0.000071
C41	C	1.058391	0.268901	0.000062
C42	C	1.060170	0.361854	0.000061
N43	N	1.064950	0.115822	0.248810
N44	N	1.065003	0.115825	-0.248684
C45	C	1.003694	0.172657	0.701075
C46	C	1.126302	0.058993	0.701053
C47	C	1.126292	0.058990	0.600557
C48	C	1.064982	0.115823	0.550316
C49	C	1.003683	0.172658	0.600570
C50	C	1.187595	0.002162	0.550295
C51	C	1.187588	0.002158	0.449793
C52	C	1.126273	0.058987	0.399550
C53	C	1.064971	0.115824	0.449811
C54	C	1.003661	0.172656	0.399569
C55	C	0.942354	0.229490	0.449828
C56	C	0.942368	0.229487	0.550327
C57	C	1.126259	0.058989	0.299051
C58	C	1.003651	0.172657	0.299064
H59	H	0.358108	-0.026536	0.000081
H60	H	1.077228	-0.456396	0.159464
O61	O	0.777581	0.270280	-0.000130
C62	C	0.831356	0.275792	-0.082809
H63	H	0.809118	0.232012	-0.140601
H64	H	0.905509	0.256560	-0.064112
C65	C	0.847281	0.420703	-0.049328
C66	C	0.819963	0.366937	-0.120313
H67	H	0.840257	0.476926	-0.072462
H68	H	0.811054	0.416989	0.006376
H69	H	0.909073	0.404666	-0.033754
H70	H	0.758169	0.382967	-0.135877
H71	H	0.856179	0.370655	-0.176021
H72	H	0.680529	-0.097299	0.000056
H73	H	0.928381	-0.295565	-0.065303
H74	H	1.187428	-0.470081	-0.090866
O75	O	0.882890	0.284812	0.401062
C76	C	0.897522	0.367726	0.425632
H77	H	0.969696	0.368261	0.453257
H78	H	0.847550	0.392234	0.483967
C79	C	0.794867	0.423809	0.302422
C80	C	0.883516	0.424467	0.336343
H81	H	0.786224	0.458812	0.247347
H82	H	0.785006	0.367949	0.285871
H83	H	0.753234	0.444231	0.351043
H84	H	0.925146	0.404036	0.287727
H85	H	0.893383	0.480325	0.352884
H86	H	0.953721	0.218934	0.258164
O87	O	1.185717	0.003683	0.250262
C88	C	1.171106	-0.079238	0.274832
H89	H	1.098938	-0.079788	0.302483
H90	H	1.221093	-0.103747	0.333148
C91	C	1.273744	-0.135289	0.151581
C92	C	1.185104	-0.135966	0.185536
H93	H	1.282383	-0.170284	0.096501
H94	H	1.283591	-0.079425	0.135030
H95	H	1.315390	-0.155711	0.200186
H96	H	1.143461	-0.115535	0.136935
H97	H	1.175251	-0.191829	0.202077
H98	H	1.188608	-0.327203	0.094626
H99	H	0.449427	0.328943	0.000044
H100	H	0.620025	0.331975	0.000041
H101	H	0.925581	-0.440277	0.064711
O102	O	0.917925	-0.442919	-0.078329
C103	C	0.973579	-0.501610	-0.133808
H104	H	1.029304	-0.534653	-0.086563
H105	H	1.005406	-0.467522	-0.194772
C106	C	0.847661	-0.526549	-0.233903
C107	C	0.916099	-0.567138	-0.175874
H108	H	0.812205	-0.566968	-0.259856
H109	H	0.810166	-0.487005	-0.196528
H110	H	0.874194	-0.498144	-0.284699
H111	H	0.889565	-0.595533	-0.125073
H112	H	0.953588	-0.606688	-0.213241
H113	H	0.928108	-0.296125	0.065521
O114	O	0.309922	0.261965	0.000110
C115	C	0.219147	0.243967	0.000088
H116	H	0.215539	0.178195	0.030313
H117	H	0.191955	0.247115	-0.076510
C118	C	0.166024	0.389686	0.025582
C119	C	0.161592	0.308906	0.062712
H120	H	0.130520	0.429745	0.064208
H121	H	0.227181	0.401813	0.025594
H122	H	0.143367	0.392297	-0.038248
H123	H	0.184260	0.306293	0.126537
H124	H	0.100438	0.296780	0.062713
O125	O	0.504171	-0.112406	-0.000100
C126	C	0.450406	-0.117913	-0.082779
H127	H	0.472656	-0.074134	-0.140573
H128	H	0.376251	-0.098676	-0.064083
C129	C	0.434465	-0.262822	-0.049291
C130	C	0.461797	-0.209057	-0.120278
H131	H	0.441487	-0.319044	-0.072421
H132	H	0.470684	-0.259112	0.006413
H133	H	0.372671	-0.246781	-0.033718
H134	H	0.523593	-0.225092	-0.135841
H135	H	0.425589	-0.212772	-0.175987
H136	H	1.176223	0.012726	0.741962
O137	O	1.199070	-0.476339	0.096136
C138	C	1.248488	-0.452734	0.016050
H139	H	1.215226	-0.390352	-0.013577
H140	H	1.249249	-0.503241	-0.041777
C141	C	1.387223	-0.519613	0.083096
C142	C	1.346375	-0.442990	0.046712
H143	H	1.447606	-0.513606	0.102006
H144	H	1.353930	-0.535519	0.137050
H145	H	1.387849	-0.561694	0.034900
H146	H	1.345740	-0.400914	0.094911
H147	H	1.379671	-0.427077	-0.007234
O148	O	0.882698	0.284608	0.599108
C149	C	0.793455	0.270858	0.574559
H150	H	0.793015	0.203820	0.546931
H151	H	0.766961	0.317226	0.516232
C152	C	0.732897	0.366093	0.697788
C153	C	0.732355	0.283754	0.663863
H154	H	0.695205	0.374052	0.752873
H155	H	0.793021	0.375360	0.714325
H156	H	0.710820	0.404724	0.649174
H157	H	0.754441	0.245125	0.712472
H158	H	0.672232	0.274481	0.647336
O159	O	1.074741	-0.307693	0.172153
C160	C	0.982990	-0.322658	0.173192
H161	H	0.973785	-0.379276	0.125962
H162	H	0.939206	-0.264932	0.144587
C163	C	0.965654	-0.270961	0.334779
C164	C	0.954349	-0.340506	0.276776
H165	H	0.947984	-0.281967	0.398674
H166	H	1.027467	-0.260876	0.334078
H167	H	0.929166	-0.222863	0.310930
H168	H	0.990845	-0.388600	0.300618
H169	H	0.892542	-0.350600	0.277483
H170	H	1.082528	-0.458981	-0.159361
H171	H	1.079186	-0.314251	-0.158910
H172	H	0.810823	-0.018548	0.000051
H173	H	1.187625	-0.326013	-0.096963
O174	O	1.247018	-0.053123	0.599149
C175	C	1.198735	-0.104842	0.657306
H176	H	1.127643	-0.106378	0.627017
H177	H	1.194001	-0.078638	0.733468
C178	C	1.335736	-0.192772	0.696065
C179	C	1.248423	-0.194665	0.658860
H180	H	1.366387	-0.248179	0.697028
H181	H	1.368266	-0.157927	0.656887
H182	H	1.331779	-0.170932	0.759531
H183	H	1.252381	-0.216495	0.595391
H184	H	1.215894	-0.229517	0.698027
O185	O	1.247167	-0.053133	0.401125
C186	C	1.301298	-0.103278	0.467022
H187	H	1.264348	-0.104282	0.538671
H188	H	1.368267	-0.075978	0.477690
C189	C	1.365258	-0.192343	0.339806
C190	C	1.319872	-0.193582	0.427804
H191	H	1.376719	-0.248046	0.315614
H192	H	1.328792	-0.158558	0.295409
H193	H	1.421061	-0.169589	0.348708
H194	H	1.264065	-0.216326	0.418899
H195	H	1.356329	-0.227374	0.472199
H196	H	0.953776	0.218928	0.741998
