data_functionalizedCrystal
_audit_creation_method	'MofGen! by Chris Wilmer'
_symmetry_space_group_name_H-M	'P1'
_symmetry_Int_Tables_number	1
_symmetry_cell_setting	triclinic
loop_
_symmetry_equiv_pos_as_xyz
  x,y,z
_cell_length_a	17.699083
_cell_length_b	23.532407
_cell_length_c	16.776229
_cell_angle_alpha	89.988688
_cell_angle_beta	89.998886
_cell_angle_gamma	83.065847
loop_
_atom_site_label
_atom_site_type_symbol
_atom_site_fract_x
_atom_site_fract_y
_atom_site_fract_z
O1	O	1.003713	0.072020	-0.066185
O2	O	0.783287	0.081390	-0.066212
O3	O	0.900147	-0.006208	-0.066183
O4	O	0.886853	0.159617	-0.066214
O5	O	0.900132	-0.006213	0.066394
O6	O	0.783272	0.081384	0.066365
O7	O	1.003698	0.072015	0.066392
Zn8	Zn	0.893482	0.076699	0.087428
Zn9	Zn	0.893503	0.076706	-0.087248
O10	O	0.886838	0.159612	0.066363
C11	C	0.755084	0.081051	0.000073
C12	C	0.671071	0.080044	0.000063
C13	C	0.622189	0.131462	0.000054
C14	C	0.543251	0.130512	0.000065
C15	C	0.513196	0.078144	0.000079
C16	C	0.562084	0.026722	0.000090
C17	C	0.641021	0.027672	0.000086
C18	C	0.243740	0.022888	0.000111
C19	C	0.164797	0.021942	0.000113
C20	C	0.145970	0.125728	0.000090
C21	C	0.224907	0.126678	0.000085
C22	C	0.273788	0.075257	0.000101
C23	C	0.359382	0.076287	0.000091
C24	C	0.427603	0.077113	0.000083
C25	C	0.899801	-0.027427	0.000107
C26	C	0.898783	-0.090647	0.000113
C27	C	0.961554	-0.489570	0.000077
C28	C	0.960609	-0.548973	0.000071
O29	O	1.018799	-0.585550	0.000049
N30	N	0.891136	-0.571799	0.000063
C31	C	0.822604	-0.535218	0.000053
O32	O	0.763424	-0.560088	0.000045
C33	C	0.823550	-0.475816	0.000054
C34	C	0.893028	-0.452994	0.000070
C35	C	1.031026	-0.466747	0.000093
C36	C	1.031972	-0.407348	0.000100
C37	C	0.963445	-0.370772	0.000093
C38	C	0.893973	-0.393595	0.000078
C39	C	0.755019	-0.439237	0.000038
C40	C	0.755971	-0.379832	0.000038
C41	C	0.825448	-0.357009	0.000054
C42	C	0.826391	-0.297620	0.000078
N43	N	0.895864	-0.274795	0.000086
C44	C	0.964391	-0.311371	0.000093
C45	C	0.820622	-0.659966	0.000051
C46	C	0.819674	-0.719367	0.000056
C47	C	0.957680	-0.733118	0.000073
C48	C	0.958626	-0.673716	0.000073
C49	C	0.890095	-0.637141	0.000059
C50	C	0.966371	-0.186628	0.000110
C51	C	0.967310	-0.127223	0.000121
C52	C	0.829305	-0.113478	0.000100
C53	C	0.828365	-0.172877	0.000094
C54	C	0.896904	-0.209452	0.000096
O55	O	0.768232	-0.261008	0.000097
O56	O	1.023560	-0.286493	0.000091
C57	C	1.031901	0.072353	0.000105
C58	C	1.115914	0.073360	0.000110
C59	C	0.887184	0.180832	0.000071
C60	C	0.888202	0.244052	0.000060
N61	N	0.893474	0.076693	0.206639
N62	N	0.893517	0.076706	-0.206459
C63	C	0.945235	0.037921	0.248369
C64	C	0.945239	0.037921	0.331821
C65	C	0.893485	0.076696	0.373542
C66	C	0.841719	0.115470	0.331806
C67	C	0.841712	0.115467	0.248355
C68	C	0.841746	0.115481	0.668353
C69	C	0.841759	0.115482	0.751810
C70	C	0.945274	0.037935	0.751819
C71	C	0.945267	0.037932	0.668368
C72	C	0.893498	0.076704	0.626640
C73	C	0.893493	0.076703	0.536151
C74	C	0.893493	0.076699	0.464029
H75	H	0.283530	-0.018983	0.000124
H76	H	0.987387	0.006349	0.365797
O77	O	0.098516	0.175696	-0.000059
C78	C	0.112088	0.207503	-0.068722
H79	H	0.139293	0.177400	-0.116707
H80	H	0.055905	0.230420	-0.091771
H81	H	0.152040	0.240411	-0.053212
O82	O	0.651417	0.182320	-0.000103
C83	C	0.696524	0.185973	-0.068760
H84	H	0.678079	0.156238	-0.116743
H85	H	0.689087	0.231882	-0.091818
H86	H	0.758880	0.172753	-0.053238
H87	H	0.140330	-0.020705	0.000126
H88	H	1.088547	-0.388773	0.000110
O89	O	0.791339	0.153078	0.372297
C90	C	0.716489	0.143896	0.351905
H91	H	0.716466	0.098298	0.328979
H92	H	0.678463	0.150481	0.406789
H93	H	0.694012	0.175482	0.303459
O94	O	0.689446	-0.344246	0.000132
C95	C	0.685839	-0.309495	0.068808
H96	H	0.745885	-0.306567	0.091712
H97	H	0.657298	-0.264812	0.053364
H98	H	0.651417	-0.329006	0.116879
O99	O	0.532765	-0.024099	0.000070
C100	C	0.452611	-0.013914	0.000090
H101	H	0.433736	0.030556	-0.025019
H102	H	0.428624	-0.047416	-0.038392
H103	H	0.430657	-0.016645	0.063695
H104	H	0.249373	0.169322	0.000070
H105	H	0.503454	0.172382	0.000056
H106	H	1.086833	-0.496522	0.000096
O107	O	0.752203	-0.741561	0.000189
C108	C	0.747520	-0.775534	0.068836
H109	H	0.786957	-0.761549	0.116836
H110	H	0.686478	-0.770125	0.091873
H111	H	0.765336	-0.822399	0.053308
H112	H	0.680820	-0.014197	0.000093
O113	O	0.760810	-0.194956	0.000045
C114	C	0.700530	-0.149932	0.000064
H115	H	0.721440	-0.109598	-0.025018
H116	H	0.652004	-0.162273	-0.038443
H117	H	0.679401	-0.141517	0.063665
H118	H	0.773512	-0.083687	0.000097
H119	H	1.023889	-0.108645	0.000136
H120	H	0.987382	0.006348	0.214405
H121	H	0.987412	0.006360	0.634402
H122	H	0.764811	-0.630189	0.000046
H123	H	0.799595	0.147051	0.634384
O124	O	0.995485	0.000287	0.792479
C125	C	0.984409	0.008609	0.875081
H126	H	0.924077	0.029949	0.886481
H127	H	0.993163	-0.034529	0.906807
H128	H	1.027030	0.037134	0.898749
H129	H	1.022182	-0.216401	0.000109
H130	H	1.015201	-0.655139	0.000086
O131	O	0.791404	0.153168	0.792215
C132	C	0.745720	0.187397	0.737491
H133	H	0.745037	0.164048	0.678011
H134	H	0.685216	0.196136	0.761612
H135	H	0.769963	0.229685	0.728598
H136	H	0.698442	-0.457808	0.000020
H137	H	1.013478	-0.762909	0.000076
O138	O	0.791536	0.153156	0.207728
C139	C	0.831795	0.188261	0.159453
H140	H	0.891188	0.165523	0.146952
H141	H	0.800131	0.197297	0.100771
H142	H	0.836618	0.230349	0.191597
