data_functionalizedCrystal
_audit_creation_method	'MofGen! by Chris Wilmer'
_symmetry_space_group_name_H-M	'P1'
_symmetry_Int_Tables_number	1
_symmetry_cell_setting	triclinic
loop_
_symmetry_equiv_pos_as_xyz
  x,y,z
_cell_length_a	13.032831
_cell_length_b	13.897448
_cell_length_c	13.897441
_cell_angle_alpha	89.970373
_cell_angle_beta	82.808717
_cell_angle_gamma	82.822399
loop_
_atom_site_label
_atom_site_type_symbol
_atom_site_fract_x
_atom_site_fract_y
_atom_site_fract_z
Zn1	Zn	1.597690	-0.571557	-0.732365
Zn2	Zn	2.097690	-0.071557	-0.232365
Zn3	Zn	1.597581	-0.732863	-0.571054
Zn4	Zn	2.097581	-0.232863	-0.071054
Zn5	Zn	1.422930	-0.551080	-0.550631
Zn6	Zn	1.922930	-0.051080	-0.050631
Zn7	Zn	1.422904	-0.712292	-0.711863
Zn8	Zn	1.922904	-0.212292	-0.211863
O9	O	1.510276	-0.641948	-0.641478
O10	O	2.010276	-0.141948	-0.141478
O11	O	1.743916	-0.610133	-0.728094
O12	O	2.243916	-0.110133	-0.228094
O13	O	1.574379	-0.708788	-0.433359
O14	O	2.074379	-0.208788	0.066641
O15	O	1.446169	-0.418821	-0.574771
O16	O	1.946169	0.081179	-0.074771
O17	O	1.743837	-0.728644	-0.609579
O18	O	2.243837	-0.228644	-0.109579
O19	O	1.574564	-0.433865	-0.708291
O20	O	2.074564	0.066135	-0.208291
O21	O	1.446064	-0.575233	-0.418354
O22	O	1.946064	-0.075233	0.081646
O23	O	1.276686	-0.555287	-0.554891
O24	O	1.776686	-0.055287	-0.054891
O25	O	1.446124	-0.693584	-0.849569
O26	O	1.946124	-0.193584	-0.349569
O27	O	1.276666	-0.673728	-0.673348
O28	O	1.776666	-0.173728	-0.173348
O29	O	1.574538	-0.590186	-0.864631
O30	O	2.074538	-0.090186	-0.364631
O31	O	1.574354	-0.865109	-0.589700
O32	O	2.074354	-0.365109	-0.089700
O33	O	1.446019	-0.849996	-0.693152
O34	O	1.946019	-0.349996	-0.193152
C35	C	1.238757	-0.610054	-0.609679
C36	C	1.738757	-0.110054	-0.109679
C37	C	1.122600	-0.596433	-0.596098
C38	C	1.622600	-0.096433	-0.096098
C39	C	1.510200	-0.892553	-0.641441
C40	C	2.010200	-0.392553	-0.141441
C41	C	1.510263	-0.999775	-0.641469
C42	C	2.010263	-0.499775	-0.141469
C43	C	1.070832	-0.649057	-0.648566
C44	C	1.570832	-0.149057	-0.148566
C45	C	0.950778	-0.634980	-0.634531
C46	C	1.450778	-0.134980	-0.134531
C47	C	1.510373	-1.196082	-0.641542
C48	C	2.010373	-0.696082	-0.141542
C49	C	1.510309	-1.086843	-0.641504
C50	C	2.010309	-0.586843	-0.141504
C51	C	1.782855	-0.673967	-0.673402
C52	C	2.282855	-0.173967	-0.173402
C53	C	1.899012	-0.687612	-0.687006
C54	C	2.399012	-0.187612	-0.187006
C55	C	1.510340	-0.641874	-0.893079
C56	C	2.010340	-0.141874	-0.393079
C57	C	1.510367	-0.641843	-1.000296
C58	C	2.010367	-0.141843	-0.500296
C59	C	1.510381	-0.390367	-0.641540
C60	C	2.010381	0.109633	-0.141540
C61	C	1.510426	-0.283159	-0.641566
C62	C	2.010426	0.216841	-0.141566
C63	C	1.510389	-0.641818	-1.087368
C64	C	2.010389	-0.141818	-0.587368
C65	C	1.510419	-0.641778	-1.196604
C66	C	2.010419	-0.141778	-0.696604
C67	C	1.510273	-0.641959	-0.390863
C68	C	2.010273	-0.141959	0.109137
C69	C	1.510448	-0.641742	-0.283671
C70	C	2.010448	-0.141742	0.216329
H71	H	1.115391	-0.704528	-0.703879
H72	H	1.615391	-0.204528	-0.203879
H73	H	0.906223	-0.579498	-0.579221
H74	H	1.406223	-0.079498	-0.079221
H75	H	0.943566	-0.743085	-0.742326
H76	H	1.443566	-0.243085	-0.242326
H77	H	1.078042	-0.540954	-0.540792
H78	H	1.578042	-0.040954	-0.040792
