data_functionalizedCrystal
_audit_creation_method	'MofGen! by Chris Wilmer'
_symmetry_space_group_name_H-M	'P1'
_symmetry_Int_Tables_number	1
_symmetry_cell_setting	triclinic
loop_
_symmetry_equiv_pos_as_xyz
  x,y,z
_cell_length_a	21.295418
_cell_length_b	21.295417
_cell_length_c	21.395355
_cell_angle_alpha	89.978549
_cell_angle_beta	89.956257
_cell_angle_gamma	90.046319
loop_
_atom_site_label
_atom_site_type_symbol
_atom_site_fract_x
_atom_site_fract_y
_atom_site_fract_z
Zn1	Zn	0.962356	-0.250416	-0.354570
Zn2	Zn	0.962258	-0.355668	-0.249787
Zn3	Zn	0.857079	-0.250446	-0.249771
Zn4	Zn	0.857048	-0.355681	-0.354492
O5	O	0.909685	-0.303053	-0.302155
O6	O	1.050432	-0.264361	-0.340709
O7	O	0.948278	-0.341717	-0.162107
O8	O	0.871098	-0.162352	-0.263699
O9	O	1.050361	-0.341689	-0.263725
O10	O	0.948444	-0.162331	-0.340694
O11	O	0.871003	-0.264410	-0.162095
O12	O	0.768986	-0.264423	-0.263624
O13	O	0.871046	-0.341710	-0.442180
O14	O	0.768963	-0.341739	-0.340561
O15	O	0.948415	-0.264373	-0.442237
O16	O	0.948248	-0.443759	-0.263650
O17	O	0.870951	-0.443768	-0.340576
C18	C	0.746134	-0.303086	-0.302083
C19	C	0.676166	-0.303115	-0.302067
C20	C	0.909603	-0.466604	-0.302120
C21	C	0.909625	-0.536572	-0.302126
C22	C	0.643304	-0.343427	-0.342068
C23	C	0.577561	-0.343411	-0.342096
C24	C	0.544683	-0.303091	-0.302112
C25	C	0.577553	-0.262771	-0.262107
C26	C	0.643294	-0.262783	-0.262085
N27	N	0.441407	-0.298163	-0.247311
N28	N	0.378956	-0.298156	-0.247335
C29	C	0.346608	-0.303051	-0.302178
N30	N	0.379072	-0.307966	-0.356999
N31	N	0.441529	-0.307977	-0.356975
C32	C	0.473398	-0.303073	-0.302132
C33	C	0.242461	-0.343348	-0.342214
C34	C	0.176717	-0.343328	-0.342243
C35	C	0.176710	-0.262691	-0.262248
C36	C	0.242453	-0.262708	-0.262225
C37	C	0.275324	-0.303039	-0.302206
C38	C	0.949910	-0.569413	-0.262112
C39	C	0.949939	-0.635156	-0.262126
C40	C	0.909673	-0.668055	-0.302148
C41	C	0.869386	-0.635206	-0.342170
C42	C	0.869362	-0.569465	-0.342159
N43	N	0.854606	-0.771337	-0.306900
N44	N	0.854630	-0.833788	-0.306907
C45	C	0.909743	-0.866130	-0.302184
N46	N	0.964832	-0.833660	-0.297442
N47	N	0.964807	-0.771203	-0.297432
C48	C	0.909695	-0.739340	-0.302164
C49	C	0.950063	-0.970256	-0.262182
C50	C	0.950094	-1.036000	-0.262201
C51	C	0.869535	-1.036049	-0.342242
C52	C	0.869510	-0.970306	-0.342227
C53	C	0.909773	-0.937414	-0.302194
C54	C	1.073876	-0.303020	-0.302228
C55	C	1.143844	-0.303006	-0.302259
C56	C	0.909738	-0.303040	-0.465578
C57	C	0.909760	-0.303034	-0.535219
C58	C	0.909785	-0.138862	-0.302203
C59	C	0.909828	-0.068894	-0.302224
C60	C	0.950044	-0.262763	-0.567963
C61	C	0.950043	-0.262736	-0.633399
C62	C	0.909765	-0.302992	-0.666088
C63	C	0.869473	-0.343266	-0.633336
C64	C	0.869470	-0.343287	-0.567902
C65	C	0.904766	-0.359673	-0.769749
C66	C	0.904773	-0.359653	-0.835182
C67	C	0.909769	-0.302925	-0.867909
C68	C	0.914771	-0.246216	-0.835195
C69	C	0.914769	-0.246238	-0.769760
C70	C	0.909763	-0.302973	-0.737040
C71	C	0.950054	-0.262621	-0.971605
C72	C	0.950049	-0.262593	-1.037042
C73	C	0.869482	-0.343128	-1.036978
C74	C	0.869484	-0.343151	-0.971542
C75	C	0.909773	-0.302898	-0.938860
C76	C	0.909670	-0.303020	-0.139367
C77	C	0.909769	-0.302848	-0.069726
H78	H	0.670064	-0.376267	-0.374626
H79	H	0.269226	-0.376185	-0.374773
H80	H	0.149962	-0.376153	-0.374821
H81	H	0.982746	-0.661900	-0.229541
H82	H	0.836602	-0.661997	-0.374757
H83	H	0.900529	-0.405856	-0.743108
H84	H	0.900703	-0.405829	-0.861813
H85	H	0.836557	-0.542725	-0.374745
H86	H	0.149942	-0.229858	-0.229695
H87	H	0.918840	-0.200063	-0.743127
H88	H	0.982846	-0.229939	-0.660064
H89	H	0.550800	-0.376238	-0.374673
H90	H	0.550779	-0.229941	-0.229553
H91	H	0.836752	-1.062835	-0.374831
H92	H	0.982850	-0.943474	-0.229587
H93	H	0.982696	-0.542634	-0.229516
H94	H	0.918841	-0.200023	-0.861839
H95	H	0.982857	-0.229842	-0.944994
H96	H	0.670050	-0.229955	-0.229511
H97	H	0.269209	-0.229884	-0.229648
H98	H	0.836704	-0.943566	-0.374808
H99	H	0.982852	-0.229796	-1.063701
H100	H	0.982902	-1.062738	-0.229618
H101	H	0.982850	-0.229986	-0.541357
H102	H	0.836680	-0.375898	-1.063593
H103	H	0.836683	-0.375948	-0.944882
H104	H	0.836676	-0.376040	-0.659956
H105	H	0.836663	-0.376080	-0.541242
