data_functionalizedCrystal
_audit_creation_method	'MofGen! by Chris Wilmer'
_symmetry_space_group_name_H-M	'P1'
_symmetry_Int_Tables_number	1
_symmetry_cell_setting	triclinic
loop_
_symmetry_equiv_pos_as_xyz
  x,y,z
_cell_length_a	21.395364
_cell_length_b	13.031981
_cell_length_c	21.395356
_cell_angle_alpha	82.790965
_cell_angle_beta	89.976233
_cell_angle_gamma	97.189901
loop_
_atom_site_label
_atom_site_type_symbol
_atom_site_fract_x
_atom_site_fract_y
_atom_site_fract_z
Zn1	Zn	0.926239	-0.416181	-0.322560
Zn2	Zn	0.912866	-0.590967	-0.204468
Zn3	Zn	0.821454	-0.416204	-0.217795
Zn4	Zn	0.808151	-0.590907	-0.309213
O5	O	0.867178	-0.503565	-0.263509
O6	O	1.012142	-0.439382	-0.306904
O7	O	0.900711	-0.567819	-0.118555
O8	O	0.846518	-0.269939	-0.242856
O9	O	1.002317	-0.567797	-0.220142
O10	O	0.923503	-0.269922	-0.319827
O11	O	0.833551	-0.439421	-0.128347
O12	O	0.732013	-0.439363	-0.229913
O13	O	0.823845	-0.567695	-0.398664
O14	O	0.722239	-0.567717	-0.297077
O15	O	0.910604	-0.439324	-0.408470
O16	O	0.887811	-0.737221	-0.207199
O17	O	0.810877	-0.737177	-0.284154
C18	C	0.704392	-0.503537	-0.263493
C19	C	0.634750	-0.503550	-0.263499
C20	C	0.127870	-0.570521	-0.298433
C21	C	0.193306	-0.570521	-0.298427
C22	C	0.231109	-0.503588	-0.263527
C23	C	0.203470	-0.436668	-0.228619
C24	C	0.138035	-0.436677	-0.228621
C25	C	0.341953	-0.409395	-0.265851
C26	C	0.407386	-0.409384	-0.265853
C27	C	0.432932	-0.503560	-0.263516
C28	C	0.393035	-0.597750	-0.261189
C29	C	0.327600	-0.597759	-0.261191
C30	C	0.302062	-0.503571	-0.263520
C31	C	0.531515	-0.570481	-0.298411
C32	C	0.596951	-0.570483	-0.298400
C33	C	0.607115	-0.436620	-0.228596
C34	C	0.541679	-0.436628	-0.228603
C35	C	0.503883	-0.503557	-0.263514
C36	C	0.846467	-0.775124	-0.242796
C37	C	0.837664	-0.891298	-0.233956
C38	C	0.871805	-0.943000	-0.268135
C39	C	0.862708	-1.063072	-0.258999
C40	C	1.030599	-0.503594	-0.263525
C41	C	1.100239	-0.503606	-0.263532
C42	C	0.867232	-0.503500	-0.426937
C43	C	0.867255	-0.503472	-0.496581
C44	C	0.887986	-0.230946	-0.284317
C45	C	0.896854	-0.114771	-0.293184
C46	C	0.832296	-0.436608	-0.534383
C47	C	0.832295	-0.436589	-0.599820
C48	C	0.867266	-0.503423	-0.627453
C49	C	0.902226	-0.570300	-0.589642
C50	C	0.902221	-0.570325	-0.524206
C51	C	0.923093	-0.511643	-0.730513
C52	C	0.923100	-0.511611	-0.795949
C53	C	0.867281	-0.503352	-0.829279
C54	C	0.811455	-0.495104	-0.797168
C55	C	0.811450	-0.495129	-0.731732
C56	C	0.867275	-0.503404	-0.698407
C57	C	0.832318	-0.436463	-0.938036
C58	C	0.832316	-0.436451	-1.003473
C59	C	0.902253	-0.570157	-0.993295
C60	C	0.902250	-0.570174	-0.927858
C61	C	0.867283	-0.503322	-0.900233
C62	C	0.867165	-0.503554	-0.100722
C63	C	0.867286	-0.503287	-0.031102
H64	H	0.500740	-0.624980	-0.326837
C65	C	0.627345	-0.644104	-0.336792
N66	N	0.650237	-0.699557	-0.365710
H67	H	0.803846	-0.382029	-0.915542
H68	H	0.907768	-0.898374	-0.304164
H69	H	0.932819	-1.070148	-0.329215
C70	C	0.940598	-0.643959	-0.620029
N71	N	0.969464	-0.699495	-0.642912
H72	H	0.801696	-0.935926	-0.197933
C73	C	0.793826	-0.363077	-0.503999
N74	N	0.764849	-0.307695	-0.481112
H75	H	0.637893	-0.382125	-0.200178
C76	C	0.245055	-0.363034	-0.190234
N77	N	0.276377	-0.307571	-0.161321
H78	H	0.968552	-0.518359	-0.703382
H79	H	0.215808	-0.625011	-0.326849
H80	H	0.115539	-0.382184	-0.200201
C81	C	0.511285	-0.363001	-0.190218
N82	N	0.488392	-0.307542	-0.161305
H83	H	0.803844	-0.382006	-1.034251
C84	C	0.814132	-1.123354	-0.210311
N85	N	0.777552	-1.168760	-0.173633
H86	H	0.803829	-0.382135	-0.630605
H87	H	0.765995	-0.488415	-0.705589
C88	C	0.940695	-0.643862	-0.482623
N89	N	0.969680	-0.699243	-0.451303
C90	C	0.750048	-0.486029	-0.833826
N91	N	0.703798	-0.479196	-0.861439
H92	H	0.097100	-0.625023	-0.326858
H93	H	0.930728	-0.624572	-1.015793
H94	H	0.930719	-0.624620	-0.897079
H95	H	0.968557	-0.518322	-0.822089
H96	H	0.295118	-0.674452	-0.259295
C97	C	0.451267	-0.305774	-0.268414
N98	N	0.484316	-0.227732	-0.270341
C99	C	0.421128	-0.701353	-0.258617
N100	N	0.442292	-0.779383	-0.256680
H101	H	0.321160	-0.332701	-0.267745
