data_functionalizedCrystal
_audit_creation_method	'MofGen! by Chris Wilmer'
_symmetry_space_group_name_H-M	'P1'
_symmetry_Int_Tables_number	1
_symmetry_cell_setting	triclinic
loop_
_symmetry_equiv_pos_as_xyz
  x,y,z
_cell_length_a	29.839134
_cell_length_b	12.645330
_cell_length_c	12.645323
_cell_angle_alpha	90.024870
_cell_angle_beta	90.036278
_cell_angle_gamma	90.010060
loop_
_atom_site_label
_atom_site_type_symbol
_atom_site_fract_x
_atom_site_fract_y
_atom_site_fract_z
Zn1	Zn	-0.686839	0.422247	-0.599831
Zn2	Zn	-0.686789	0.599535	-0.422571
Zn3	Zn	-0.611709	0.422262	-0.422533
Zn4	Zn	-0.611701	0.599445	-0.599744
O5	O	-0.649259	0.510872	-0.511170
O6	O	-0.749700	0.445795	-0.576369
O7	O	-0.676812	0.576063	-0.274219
O8	O	-0.621699	0.273913	-0.446073
O9	O	-0.749663	0.576048	-0.446137
O10	O	-0.676897	0.273901	-0.576332
O11	O	-0.621650	0.445822	-0.274191
O12	O	-0.548840	0.445735	-0.445989
O13	O	-0.621686	0.575895	-0.748103
O14	O	-0.548835	0.575910	-0.576185
O15	O	-0.676890	0.445708	-0.748167
O16	O	-0.676804	0.747870	-0.446053
O17	O	-0.621637	0.747804	-0.576221
C18	C	-0.532537	0.510815	-0.511074
C19	C	-0.482602	0.510816	-0.511058
C20	C	-0.649227	0.786302	-0.511155
C21	C	-0.649254	0.904132	-0.511184
C22	C	-0.126006	0.442981	-0.443478
C23	C	-0.313679	0.442954	-0.443427
O24	O	-0.337935	0.385194	-0.385892
N25	N	-0.337157	0.510831	-0.511101
C26	C	-0.313715	0.578715	-0.578797
O27	O	-0.337991	0.636440	-0.636365
C28	C	-0.126042	0.578736	-0.578853
C29	C	-0.102566	0.510862	-0.511167
C30	C	-0.102530	0.375112	-0.375798
C31	C	-0.055614	0.375124	-0.375807
C32	C	-0.032175	0.443004	-0.443497
C33	C	-0.055651	0.510873	-0.511176
C34	C	-0.102601	0.646613	-0.646554
C35	C	-0.055680	0.646610	-0.646564
C36	C	-0.032204	0.578737	-0.578878
C37	C	0.014704	0.578765	-0.578875
N38	N	0.038182	0.510889	-0.511201
C39	C	0.014743	0.443008	-0.443512
C40	C	-0.412245	0.578701	-0.578762
C41	C	-0.459163	0.578697	-0.578747
C42	C	-0.459124	0.442935	-0.443378
C43	C	-0.412205	0.442945	-0.443388
C44	C	-0.388767	0.510824	-0.511088
C45	C	0.113269	0.443038	-0.443536
C46	C	0.160189	0.443059	-0.443548
C47	C	0.160145	0.578816	-0.578921
C48	C	0.113230	0.578800	-0.578905
C49	C	0.089793	0.510902	-0.511209
O50	O	0.038989	0.636487	-0.636387
O51	O	0.039027	0.385275	-0.385969
C52	C	-0.172921	0.442970	-0.443468
C53	C	-0.196397	0.510839	-0.511148
C54	C	-0.172958	0.578719	-0.578837
C55	C	-0.243315	0.510835	-0.511133
C56	C	-0.266754	0.442955	-0.443444
C57	C	-0.243276	0.375078	-0.375770
C58	C	-0.196360	0.375089	-0.375779
C59	C	-0.196436	0.646596	-0.646511
C60	C	-0.243352	0.646580	-0.646496
C61	C	-0.266791	0.578700	-0.578807
C62	C	-0.649292	0.510790	-0.787675
C63	C	-0.649307	0.510755	-0.905506
C64	C	0.233562	0.510926	-0.511249
C65	C	0.183628	0.510939	-0.511237
C66	C	-0.649305	0.234367	-0.511208
C67	C	-0.649324	0.116537	-0.511224
C68	C	-0.614691	1.071699	-0.593326
C69	C	-0.614514	0.949139	-0.593062
C70	C	-0.636436	0.948722	-0.399455
C71	C	-0.636225	1.071320	-0.399954
C72	C	-0.696845	1.071236	-0.539866
C73	C	-0.696553	0.948629	-0.542309
C74	C	-0.614471	0.592270	-1.073030
C75	C	-0.614562	0.592673	-0.950470
C76	C	-0.696643	0.541089	-0.950052
C77	C	-0.696452	0.541600	-1.072650
C78	C	-0.637254	0.398452	-1.072697
C79	C	-0.636197	0.399124	-0.950090
C80	C	-0.649252	0.510877	-0.235740
C81	C	-0.649325	0.510614	-0.117911
H82	H	0.179301	0.387786	-0.388427
Cl83	Cl	-0.714897	1.118859	-0.663519
Cl84	Cl	-0.626955	1.117116	-0.721657
H85	H	-0.723715	0.917987	-0.486867
Cl86	Cl	-0.711479	0.903629	-0.669261
H87	H	0.094192	0.387744	-0.388416
H88	H	-0.707051	0.622222	-0.919369
H89	H	0.094115	0.634076	-0.634012
H90	H	-0.036504	0.319854	-0.320691
Cl91	Cl	-0.488670	0.664043	-0.663827
H92	H	-0.603337	0.370805	-1.103582
Cl93	Cl	-0.673474	1.117126	-0.302278
Cl94	Cl	-0.131988	0.289763	-0.290693
Cl95	Cl	-0.166855	0.289754	-0.290687
H96	H	-0.393094	0.387672	-0.388276
Cl97	Cl	-0.560640	1.119412	-0.564424
Cl98	Cl	-0.488599	0.357599	-0.358284
Cl99	Cl	-0.626894	0.902583	-0.720970
H100	H	-0.601487	1.100001	-0.375694
H101	H	-0.660861	0.919571	-0.336610
Cl102	Cl	-0.560121	0.903978	-0.563767
H103	H	-0.393166	0.633980	-0.633894
H104	H	-0.723302	0.484708	-1.102344
H105	H	-0.602060	0.918100	-0.374757
H106	H	-0.121707	0.701884	-0.701671
H107	H	-0.601362	0.376249	-0.920971
H108	H	-0.722647	1.100232	-0.480068
H109	H	-0.579265	0.573469	-1.102483
Cl110	Cl	-0.560368	0.563360	-0.903959
Cl111	Cl	-0.737815	0.452173	-0.905097
H112	H	-0.622362	0.674900	-1.103853
H113	H	-0.622531	0.675824	-0.921160
Cl114	Cl	-0.712248	0.668190	-1.116837
Cl115	Cl	-0.672533	0.300224	-0.902851
H116	H	-0.662640	0.337614	-1.101724
H117	H	0.179238	0.634087	-0.634028
Cl118	Cl	-0.026217	0.731948	-0.731680
Cl119	Cl	-0.166977	0.731943	-0.731614
H120	H	-0.262368	0.319811	-0.320652
H121	H	-0.262462	0.701861	-0.701612
