data_functionalizedCrystal
_audit_creation_method	'MofGen! by Chris Wilmer'
_symmetry_space_group_name_H-M	'P1'
_symmetry_Int_Tables_number	1
_symmetry_cell_setting	triclinic
loop_
_symmetry_equiv_pos_as_xyz
  x,y,z
_cell_length_a	19.188930
_cell_length_b	10.654551
_cell_length_c	17.666332
_cell_angle_alpha	90.002776
_cell_angle_beta	90.019704
_cell_angle_gamma	83.815105
loop_
_atom_site_label
_atom_site_type_symbol
_atom_site_fract_x
_atom_site_fract_y
_atom_site_fract_z
O1	O	-0.927172	-0.156779	-0.063189
O2	O	-0.427172	0.343221	0.436811
O3	O	-0.723999	-0.177884	-0.063137
O4	O	-0.223999	0.322116	0.436863
O5	O	-0.830256	0.015506	-0.063162
O6	O	-0.330256	0.515506	0.436838
O7	O	-0.820914	-0.350170	-0.063163
O8	O	-0.320914	0.149830	0.436837
O9	O	-0.830244	0.015511	0.062734
O10	O	-0.330244	0.515511	0.562734
O11	O	-0.723987	-0.177880	0.062760
O12	O	-0.223987	0.322120	0.562760
O13	O	-0.927160	-0.156775	0.062708
O14	O	-0.427160	0.343225	0.562708
Cu15	Cu	-0.825572	-0.167327	0.074229
Cu16	Cu	-0.325572	0.332673	0.574229
Cu17	Cu	-0.825586	-0.167332	-0.074658
Cu18	Cu	-0.325586	0.332668	0.425342
O19	O	-0.820902	-0.350165	0.062733
O20	O	-0.320902	0.149835	0.562733
C21	C	-0.697977	-0.177199	-0.000182
C22	C	-0.197977	0.322801	0.499818
C23	C	-0.620459	-0.175147	-0.000162
C24	C	-0.120459	0.324853	0.499838
C25	C	-0.829564	0.062292	-0.000215
C26	C	-0.329564	0.562292	0.499785
C27	C	-0.827511	0.201692	-0.000218
C28	C	-0.327511	0.701692	0.499782
C29	C	-0.953181	-0.157460	-0.000249
C30	C	-0.453181	0.342540	0.499751
C31	C	-1.030699	-0.159512	-0.000274
C32	C	-0.530699	0.340488	0.499726
C33	C	-0.576278	-0.288622	-0.000174
C34	C	-0.076278	0.211378	0.499826
C35	C	-0.503441	-0.286695	-0.000182
C36	C	-0.003441	0.213305	0.499818
C37	C	-0.474790	-0.171285	-0.000194
C38	C	0.025210	0.328715	0.499806
C39	C	-0.518981	-0.057795	-0.000177
C40	C	-0.018981	0.442205	0.499823
C41	C	-0.591816	-0.059726	-0.000161
C42	C	-0.091816	0.440274	0.499839
N43	N	-0.366236	-0.083071	-0.043072
N44	N	0.133764	0.416929	0.456928
N45	N	-0.297046	-0.081245	-0.043089
N46	N	0.202954	0.418755	0.456911
C47	C	-0.255343	-0.165461	-0.000240
C48	C	0.244657	0.334539	0.499760
N49	N	-0.285443	-0.251593	0.042617
N50	N	0.214557	0.248407	0.542617
N51	N	-0.354640	-0.253423	0.042630
N52	N	0.145360	0.246577	0.542630
C53	C	-0.395813	-0.169179	-0.000211
C54	C	0.104187	0.330821	0.499789
C55	C	-0.132183	-0.276855	-0.000260
C56	C	0.367817	0.223145	0.499740
C57	C	-0.059346	-0.274922	-0.000264
C58	C	0.440654	0.225078	0.499736
C59	C	-0.074887	-0.046020	-0.000266
C60	C	0.425113	0.453980	0.499734
C61	C	-0.147723	-0.047955	-0.000255
C62	C	0.352277	0.452045	0.499745
C63	C	-0.176367	-0.163376	-0.000256
C64	C	0.323633	0.336624	0.499744
C65	C	-0.821595	-0.396951	-0.000216
C66	C	-0.321595	0.103049	0.499784
C67	C	-0.823647	-0.536351	-0.000218
C68	C	-0.323647	-0.036351	0.499782
N69	N	-0.825567	-0.167322	0.178949
N70	N	-0.325567	0.332678	0.678949
C71	C	-0.826555	0.267173	-0.068845
C72	C	-0.326555	0.767173	0.431155
C73	C	-0.824620	0.398152	-0.068845
C74	C	-0.324620	0.898152	0.431155
C75	C	-0.824602	0.398159	0.068414
C76	C	-0.324602	0.898159	0.568414
C77	C	-0.826532	0.267181	0.068414
C78	C	-0.326532	0.767181	0.568414
C79	C	-0.781160	0.567301	-0.151284
C80	C	-0.281160	1.067301	0.348716
C81	C	-0.780216	0.632790	-0.219915
C82	C	-0.280216	1.132790	0.280085
C83	C	-0.821688	0.600125	-0.280517
C84	C	-0.321688	1.100125	0.219483
C85	C	-0.864123	0.501977	-0.272491
C86	C	-0.364123	1.001977	0.227509
C87	C	-0.865074	0.436497	-0.203860
C88	C	-0.365074	0.936497	0.296140
C89	C	-0.823585	0.469157	-0.143260
C90	C	-0.323585	0.969157	0.356740
C91	C	-0.869997	0.098030	0.150848
C92	C	-0.369997	0.598030	0.650848
C93	C	-0.870953	0.032549	0.219481
C94	C	-0.370953	0.532549	0.719481
C95	C	-0.829485	0.065213	0.280089
C96	C	-0.329485	0.565213	0.780089
C97	C	-0.787060	0.163367	0.272071
C98	C	-0.287060	0.663367	0.772071
C99	C	-0.786104	0.228848	0.203439
C100	C	-0.286104	0.728848	0.703439
C101	C	-0.827572	0.196175	0.142830
C102	C	-0.327572	0.696175	0.642830
N103	N	-0.825597	-0.167327	-0.179378
N104	N	-0.325597	0.332673	0.320622
C105	C	-0.872649	-0.081717	0.780987
C106	C	-0.372649	0.418283	1.280987
C107	C	-0.872650	-0.081720	0.701740
C108	C	-0.372650	0.418280	1.201740
C109	C	-0.825587	-0.167321	0.662130
C110	C	-0.325587	0.332679	1.162130
C111	C	-0.778531	-0.252947	0.701775
C112	C	-0.278531	0.247053	1.201775
C113	C	-0.778536	-0.252950	0.781021
C114	C	-0.278536	0.247050	1.281021
N115	N	-0.763882	-0.183595	0.537733
N116	N	-0.263882	0.316405	1.037733
N117	N	-0.763879	-0.183585	0.462453
N118	N	-0.263879	0.316415	0.962453
C119	C	-0.825571	-0.167319	0.423366
C120	C	-0.325571	0.332681	0.923366
N121	N	-0.887266	-0.151039	0.462404
N122	N	-0.387266	0.348961	0.962404
N123	N	-0.887268	-0.151043	0.537691
N124	N	-0.387268	0.348957	1.037691
C125	C	-0.825577	-0.167328	0.576201
C126	C	-0.325577	0.332672	1.076201
C127	C	-0.872628	-0.081707	0.297802
C128	C	-0.372628	0.418293	0.797802
C129	C	-0.872630	-0.081719	0.218553
C130	C	-0.372630	0.418281	0.718553
C131	C	-0.778505	-0.252940	0.218589
C132	C	-0.278505	0.247060	0.718589
C133	C	-0.778509	-0.252934	0.297837
C134	C	-0.278509	0.247066	0.797837
C135	C	-0.825570	-0.167311	0.337438
C136	C	-0.325570	0.332689	0.837438
H137	H	-0.599594	-0.382607	-0.000176
H138	H	-0.099594	0.117393	0.499824
Cl139	Cl	-0.203269	0.094708	-0.000244
Cl140	Cl	0.296731	0.594708	0.499756
H141	H	-0.910950	-0.011991	0.330047
H142	H	-0.410950	0.488009	0.830047
H143	H	-0.751556	0.308768	0.196913
H144	H	-0.251556	0.808768	0.696913
H145	H	-0.827350	0.213855	-0.124730
H146	H	-0.327350	0.713855	0.375270
Cl147	Cl	-0.922146	0.056980	0.074659
Cl148	Cl	-0.422146	0.556980	0.574659
Cl149	Cl	-0.918415	0.313120	-0.193767
Cl150	Cl	-0.418415	0.813120	0.306233
H151	H	-0.740188	-0.322643	0.186340
H152	H	-0.240188	0.177357	0.686340
Cl153	Cl	-0.916272	0.460933	-0.348679
Cl154	Cl	-0.416272	0.960933	0.151321
Cl155	Cl	-0.719351	-0.360557	0.347668
Cl156	Cl	-0.219351	0.139443	0.847668
Cl157	Cl	-0.647362	0.082941	-0.000147
Cl158	Cl	-0.147362	0.582941	0.499853
Cl159	Cl	-0.820508	0.682469	-0.366790
Cl160	Cl	-0.320508	1.182469	0.133210
H161	H	-0.495648	0.036172	-0.000197
H162	H	0.004352	0.536172	0.499803
H163	H	-0.910949	-0.012009	0.186281
H164	H	-0.410949	0.487991	0.686281
Cl165	Cl	-0.003802	-0.417591	-0.000275
Cl166	Cl	0.496198	0.082409	0.499725
Cl167	Cl	-0.719369	-0.360565	0.651982
Cl168	Cl	-0.219369	0.139435	1.151982
H169	H	-0.747380	0.593896	-0.101945
H170	H	-0.247380	1.093896	0.398055
Cl171	Cl	-0.931806	0.025915	0.651905
Cl172	Cl	-0.431806	0.525915	1.151905
Cl173	Cl	-0.830696	-0.017098	0.366375
Cl174	Cl	-0.330696	0.482902	0.866375
H175	H	-0.823806	0.451496	0.124292
H176	H	-0.323806	0.951496	0.624292
H177	H	-0.753278	0.189938	0.321416
H178	H	-0.253278	0.689938	0.821416
Cl179	Cl	-0.447888	-0.429360	-0.000196
Cl180	Cl	0.052112	0.070640	0.499804
Cl181	Cl	-0.726869	0.756167	-0.230004
Cl182	Cl	-0.226869	1.256167	0.269996
Cl183	Cl	-0.168196	-0.421952	-0.000253
Cl184	Cl	0.331804	0.078048	0.499747
Cl185	Cl	-0.038875	0.099068	-0.000272
Cl186	Cl	0.461125	0.599068	0.499728
Cl187	Cl	-0.924296	-0.090835	0.229564
Cl188	Cl	-0.424296	0.409165	0.729564
Cl189	Cl	-0.931813	0.025914	0.830772
Cl190	Cl	-0.431813	0.525914	1.330772
H191	H	-0.740220	-0.322665	0.813292
H192	H	-0.240220	0.177335	1.313292
