data_functionalizedCrystal
_audit_creation_method	'MofGen! by Chris Wilmer'
_symmetry_space_group_name_H-M	'P1'
_symmetry_Int_Tables_number	1
_symmetry_cell_setting	triclinic
loop_
_symmetry_equiv_pos_as_xyz
  x,y,z
_cell_length_a	17.038272
_cell_length_b	23.532407
_cell_length_c	16.098538
_cell_angle_alpha	92.700973
_cell_angle_beta	87.069734
_cell_angle_gamma	86.980117
loop_
_atom_site_label
_atom_site_type_symbol
_atom_site_fract_x
_atom_site_fract_y
_atom_site_fract_z
O1	O	1.039966	0.121251	-0.069166
O2	O	1.539966	0.621251	0.430834
O3	O	0.812351	0.119288	-0.069191
O4	O	1.312351	0.619288	0.430809
O5	O	0.933021	0.037699	-0.069163
O6	O	1.433021	0.537699	0.430837
O7	O	0.919295	0.202840	-0.069195
O8	O	1.419295	0.702840	0.430805
O9	O	0.925973	0.042445	0.069349
O10	O	1.425973	0.542445	0.569349
O11	O	0.805302	0.124034	0.069321
O12	O	1.305302	0.624034	0.569321
O13	O	1.032917	0.125997	0.069345
O14	O	1.532917	0.625997	0.569345
Zn15	Zn	0.917990	0.125769	0.091324
Zn16	Zn	1.417990	0.625769	0.591324
Zn17	Zn	0.927278	0.119516	-0.091170
Zn18	Zn	1.427278	0.619516	0.408830
O19	O	0.912247	0.207586	0.069317
O20	O	1.412247	0.707586	0.569317
C21	C	0.779712	0.119875	0.000062
C22	C	1.279712	0.619875	0.500062
C23	C	0.692959	0.114548	0.000054
C24	C	1.192959	0.614548	0.500054
C25	C	0.642483	0.163453	0.000045
C26	C	1.142483	0.663453	0.500045
C27	C	0.560969	0.158445	0.000057
C28	C	1.060969	0.658445	0.500057
C29	C	0.529932	0.104532	0.000072
C30	C	1.029932	0.604532	0.500072
C31	C	0.580415	0.055624	0.000084
C32	C	1.080415	0.555624	0.500084
C33	C	0.661927	0.060632	0.000077
C34	C	1.161927	0.560632	0.500077
C35	C	0.284304	0.086837	0.000098
C36	C	0.784304	0.586837	0.500098
C37	C	0.202786	0.081832	0.000102
C38	C	0.702786	0.581832	0.500102
C39	C	0.183345	0.184654	0.000077
C40	C	0.683345	0.684654	0.500077
C41	C	0.264860	0.189657	0.000066
C42	C	0.764860	0.689657	0.500066
C43	C	0.315335	0.140750	0.000081
C44	C	0.815335	0.640750	0.500081
C45	C	0.446612	0.099411	0.000083
C46	C	0.946612	0.599411	0.500083
C47	C	0.398653	0.145871	0.000077
C48	C	0.898653	0.645871	0.500077
C49	C	0.929147	0.018838	0.000095
C50	C	1.429147	0.518838	0.500095
C51	C	0.928096	-0.044434	0.000101
C52	C	1.428096	0.455566	0.500101
C53	C	0.992917	-0.440131	0.000063
C54	C	1.492917	0.059869	0.500063
C55	C	0.991941	-0.499583	0.000056
C56	C	1.491941	0.000417	0.500056
O57	O	1.052030	-0.533169	0.000032
O58	O	1.552030	-0.033169	0.500032
N59	N	0.920202	-0.525981	0.000049
N60	N	1.420202	-0.025981	0.500049
C61	C	0.849435	-0.492924	0.000040
C62	C	1.349435	0.007076	0.500040
O63	O	0.788325	-0.520836	0.000033
O64	O	1.288325	-0.020836	0.500033
C65	C	0.850412	-0.433473	0.000041
C66	C	1.350412	0.066527	0.500041
C67	C	0.922155	-0.407078	0.000056
C68	C	1.422155	0.092922	0.500056
C69	C	1.064654	-0.413736	0.000077
C70	C	1.564654	0.086264	0.500077
C71	C	1.065630	-0.354288	0.000085
C72	C	1.565630	0.145712	0.500085
C73	C	0.994868	-0.321236	0.000079
C74	C	1.494868	0.178764	0.500079
C75	C	0.923131	-0.347631	0.000064
C76	C	1.423131	0.152369	0.500064
C77	C	0.779646	-0.400418	0.000026
C78	C	1.279646	0.099582	0.500026
C79	C	0.780629	-0.340963	0.000025
C80	C	1.280629	0.159037	0.500025
C81	C	0.852372	-0.314569	0.000041
C82	C	1.352372	0.185431	0.500041
C83	C	0.853344	-0.255130	0.000066
C84	C	1.353344	0.244870	0.500066
N85	N	0.925083	-0.228732	0.000073
N86	N	1.425083	0.271268	0.500073
C87	C	0.995845	-0.261785	0.000079
C88	C	1.495845	0.238215	0.500079
C89	C	0.847388	-0.617774	0.000038
C90	C	1.347388	-0.117774	0.500038
C91	C	0.846410	-0.677223	0.000043
C92	C	1.346410	-0.177223	0.500043
C93	C	0.988917	-0.683878	0.000058
C94	C	1.488917	-0.183878	0.500058
C95	C	0.989894	-0.624428	0.000058
C96	C	1.489894	-0.124428	0.500058
C97	C	0.919127	-0.591376	0.000045
C98	C	1.419127	-0.091376	0.500045
C99	C	0.997889	-0.136940	0.000097
C100	C	1.497889	0.363060	0.500097
C101	C	0.998858	-0.077487	0.000108
C102	C	1.498858	0.422513	0.500108
C103	C	0.856352	-0.070837	0.000089
C104	C	1.356352	0.429163	0.500089
C105	C	0.855382	-0.130285	0.000082
C106	C	1.355382	0.369715	0.500082
C107	C	0.926157	-0.163336	0.000083
C108	C	1.426157	0.336664	0.500083
O109	O	0.793287	-0.221508	0.000086
O110	O	1.293287	0.278492	0.500086
O111	O	1.056945	-0.233865	0.000076
O112	O	1.556945	0.266135	0.500076
C113	C	1.065556	0.125410	0.000090
C114	C	1.565556	0.625410	0.500090
C115	C	1.152310	0.130737	0.000093
C116	C	1.652310	0.630737	0.500093
C117	C	0.916121	0.226447	0.000057
C118	C	1.416121	0.726447	0.500057
C119	C	0.917172	0.289719	0.000045
C120	C	1.417172	0.789719	0.500045
N121	N	0.911658	0.130036	0.215872
N122	N	1.411658	0.630036	0.715872
N123	N	0.933616	0.115244	-0.215718
N124	N	1.433616	0.615244	0.284282
C125	C	0.962894	0.095421	0.259469
C126	C	1.462894	0.595421	0.759469
C127	C	0.958471	0.098412	0.346657
C128	C	1.458471	0.598412	0.846657
C129	C	0.902816	0.136022	0.390246
C130	C	1.402816	0.636022	0.890246
C131	C	0.851574	0.170639	0.346643
C132	C	1.351574	0.670639	0.846643
C133	C	0.855994	0.167644	0.259457
C134	C	1.355994	0.667644	0.759457
C135	C	0.886795	0.146867	0.653493
C136	C	1.386795	0.646867	1.153493
C137	C	0.882380	0.149860	0.740685
C138	C	1.382380	0.649860	1.240685
C139	C	0.989277	0.077632	0.740693
C140	C	1.489277	0.577632	1.240693
C141	C	0.993694	0.074644	0.653505
C142	C	1.493694	0.574644	1.153505
C143	C	0.942450	0.109258	0.609909
C144	C	1.442450	0.609258	1.109909
C145	C	0.898295	0.139081	0.479366
C146	C	1.398295	0.639081	0.979366
C147	C	0.946968	0.106195	0.520791
C148	C	1.446968	0.606195	1.020791
H149	H	0.555138	0.011727	0.000108
H150	H	1.055138	0.511727	0.500108
H151	H	1.030996	0.049450	0.776196
H152	H	1.530996	0.549450	1.276196
O153	O	0.822347	0.190421	0.787709
O154	O	1.322347	0.690421	1.287709
H155	H	0.762327	0.179607	0.771000
H156	H	1.262327	0.679607	1.271000
H157	H	0.845071	0.175052	0.618004
H158	H	1.345071	0.675052	1.118004
O159	O	0.771056	-0.582125	0.000045
O160	O	1.271056	-0.082125	0.500045
H161	H	0.721013	-0.610473	0.000051
H162	H	1.221013	-0.110473	0.500051
O163	O	0.702262	-0.428874	0.000005
O164	O	1.202262	0.071126	0.500005
H165	H	0.713455	-0.475767	0.000010
H166	H	1.213455	0.024233	0.500010
O167	O	1.022907	0.054845	0.212453
O168	O	1.522907	0.554845	0.712453
H169	H	1.062725	0.079292	0.172712
H170	H	1.562725	0.579292	0.672712
O171	O	0.413134	0.041263	0.000092
O172	O	0.913134	0.541263	0.500092
H173	H	0.430570	0.019508	0.056553
H174	H	0.930570	0.519508	0.556553
O175	O	1.140984	-0.449378	0.000098
O176	O	1.640984	0.050622	0.500098
H177	H	1.178219	-0.441487	-0.056345
H178	H	1.678219	0.058513	0.443655
H179	H	0.723001	-0.314056	0.000013
H180	H	1.223001	0.185944	0.500013
H181	H	0.177520	0.037928	0.000114
H182	H	0.677520	0.537928	0.500114
H183	H	0.423926	0.189766	0.000069
H184	H	0.923926	0.689766	0.500069
O185	O	1.067273	-0.595960	0.000059
O186	O	1.567273	-0.095960	0.500059
H187	H	1.116310	-0.628937	0.000057
H188	H	1.616310	-0.128937	0.500057
O189	O	0.791547	0.211207	0.393651
O190	O	1.291547	0.711207	0.893651
H191	H	0.797087	0.207480	0.461602
H192	H	1.297087	0.707480	0.961602
H193	H	0.814271	0.195831	0.223961
H194	H	1.314271	0.695831	0.723961
O195	O	0.716375	0.007886	0.000084
O196	O	1.216375	0.507886	0.500084
H197	H	0.681102	-0.030445	0.000088
H198	H	1.181102	0.469555	0.500088
O199	O	1.076241	-0.049017	0.000112
O200	O	1.576241	0.450983	0.500112
H201	H	1.125281	-0.081993	0.000102
H202	H	1.625281	0.418007	0.500102
H203	H	0.992280	0.075571	0.485298
H204	H	1.492280	0.575571	0.985298
H205	H	0.852981	0.169705	0.514864
H206	H	1.352981	0.669705	1.014864
O207	O	1.065244	-0.719533	0.000056
O208	O	1.565244	-0.219533	0.500056
H209	H	1.052505	-0.765306	0.000043
H210	H	1.552505	-0.265306	0.500043
H211	H	0.519874	0.198268	0.000049
H212	H	1.019874	0.698268	0.500049
H213	H	0.787989	-0.698708	0.000045
H214	H	1.287989	-0.198708	0.500045
O215	O	0.338737	0.034088	0.000117
O216	O	0.838737	0.534088	0.500117
H217	H	0.330624	0.006540	-0.056334
H218	H	0.830624	0.506540	0.443666
H219	H	1.055521	-0.163843	0.000094
H220	H	1.555521	0.336157	0.500094
H221	H	0.796962	-0.151776	0.000093
H222	H	1.296962	0.348224	0.500093
H223	H	1.124051	-0.332803	0.000094
H224	H	1.624051	0.167197	0.500094
H225	H	0.290124	0.233559	0.000043
H226	H	0.790124	0.733559	0.500043
H227	H	0.798739	-0.043915	0.000087
H228	H	1.298739	0.456085	0.500087
O229	O	1.013746	0.061089	0.393683
O230	O	1.513746	0.561089	0.893683
H231	H	1.053200	0.034442	0.348725
H232	H	1.553200	0.534442	0.848725
O233	O	1.053716	0.034074	0.606490
O234	O	1.553716	0.534074	1.106490
H235	H	1.088596	0.010501	0.651454
H236	H	1.588596	0.510501	1.151454
H237	H	0.142240	0.224472	0.000066
H238	H	0.642240	0.724472	0.500066
O239	O	0.675957	0.221602	0.000036
O240	O	1.175957	0.721602	0.500036
H241	H	0.627159	0.254767	0.000043
H242	H	1.127159	0.754767	0.500043
