data_functionalizedCrystal
_audit_creation_method	'MofGen! by Chris Wilmer'
_symmetry_space_group_name_H-M	'P1'
_symmetry_Int_Tables_number	1
_symmetry_cell_setting	triclinic
loop_
_symmetry_equiv_pos_as_xyz
  x,y,z
_cell_length_a	9.065218
_cell_length_b	10.489741
_cell_length_c	7.540329
_cell_angle_alpha	89.996684
_cell_angle_beta	89.996962
_cell_angle_gamma	84.777530
loop_
_atom_site_label
_atom_site_type_symbol
_atom_site_fract_x
_atom_site_fract_y
_atom_site_fract_z
O1	O	1.959495	0.187043	-0.147486
O2	O	1.530136	0.202385	-0.147489
O3	O	1.754585	0.009151	-0.147477
O4	O	1.735045	0.380277	-0.147498
O5	O	1.754572	0.009149	0.147488
O6	O	1.530122	0.202382	0.147477
O7	O	1.959481	0.187040	0.147479
Cu8	Cu	1.744800	0.194711	0.174410
Cu9	Cu	1.744816	0.194714	-0.174420
O10	O	1.735032	0.380274	0.147467
C11	C	1.475149	0.200909	-0.000006
C12	C	1.311328	0.196501	-0.000007
C13	C	1.753102	-0.038387	0.000005
C14	C	1.748687	-0.180032	0.000002
C15	C	1.605877	-0.248688	-0.000012
C16	C	1.673332	-0.340568	0.145421
C17	C	1.673379	-0.340540	-0.145391
C18	C	1.816202	-0.270047	0.145555
C19	C	1.816229	-0.270009	-0.145388
C20	C	1.883788	-0.361862	0.000081
C21	C	2.014467	0.188516	-0.000007
C22	C	2.178289	0.192925	-0.000018
C23	C	1.736514	0.427812	-0.000018
C24	C	1.740930	0.569458	-0.000027
N25	N	1.744800	0.194708	0.419759
N26	N	1.744828	0.194707	-0.419768
H27	H	1.488459	-0.199461	0.000134
C28	C	1.592484	-0.382123	0.309212
C29	C	1.447037	-0.324346	0.308527
C30	C	1.372502	-0.362602	0.459364
H31	H	1.642089	-0.356836	0.412617
H32	H	1.590959	-0.472562	0.308572
H33	H	1.448569	-0.233926	0.309185
H34	H	1.397392	-0.349625	0.205156
H35	H	1.370977	-0.453042	0.458723
H36	H	1.422119	-0.337313	0.562757
H37	H	1.273805	-0.323416	0.458911
C38	C	1.896761	-0.228060	-0.309178
C39	C	1.901012	-0.094987	-0.306077
C40	C	1.975190	-0.056295	-0.456935
H41	H	1.846001	-0.251817	-0.412546
H42	H	1.994976	-0.268312	-0.310228
H43	H	1.802815	-0.054749	-0.305045
H44	H	1.951783	-0.071197	-0.202743
H45	H	2.073404	-0.096547	-0.457984
H46	H	1.924421	-0.080060	-0.560291
H47	H	1.978096	0.033996	-0.454843
H48	H	1.876570	-0.238998	0.268646
C49	C	2.040608	-0.426952	0.000293
C50	C	2.141888	-0.333840	0.001862
C51	C	2.286364	-0.393746	0.002100
H52	H	2.055655	-0.478317	-0.103007
H53	H	2.054871	-0.479373	0.102720
H54	H	2.127633	-0.281440	-0.100555
H55	H	2.126889	-0.282469	0.105155
H56	H	2.300626	-0.446167	0.104527
H57	H	2.301396	-0.445110	-0.101202
H58	H	2.355100	-0.330579	0.003181
H59	H	1.612941	-0.371721	-0.268355
