data_functionalizedCrystal
_audit_creation_method	'MofGen! by Chris Wilmer'
_symmetry_space_group_name_H-M	'P1'
_symmetry_Int_Tables_number	1
_symmetry_cell_setting	triclinic
loop_
_symmetry_equiv_pos_as_xyz
  x,y,z
_cell_length_a	10.489711
_cell_length_b	14.519709
_cell_length_c	13.596369
_cell_angle_alpha	90.006934
_cell_angle_beta	89.993154
_cell_angle_gamma	95.896423
loop_
_atom_site_label
_atom_site_type_symbol
_atom_site_fract_x
_atom_site_fract_y
_atom_site_fract_z
O1	O	1.692722	-0.129986	-0.081829
O2	O	1.321394	-0.142227	-0.081824
O3	O	1.516903	-0.001921	-0.081818
O4	O	1.497213	-0.270292	-0.081835
O5	O	1.516884	-0.001913	0.081765
O6	O	1.321374	-0.142220	0.081759
O7	O	1.692703	-0.129978	0.081754
Zn8	Zn	1.507035	-0.136098	0.107729
Zn9	Zn	1.507061	-0.136108	-0.107799
O10	O	1.497193	-0.270284	0.081748
C11	C	1.273861	-0.141305	-0.000031
C12	C	1.132259	-0.138556	-0.000029
C13	C	0.948993	-0.222932	-0.000046
C14	C	1.041587	-0.180789	-0.080696
C15	C	1.041541	-0.180759	0.080583
C16	C	0.972567	-0.091469	-0.080767
C17	C	0.972512	-0.091451	0.080585
C18	C	1.065079	-0.049243	-0.000085
C19	C	1.515976	0.032448	-0.000026
C20	C	1.513226	0.134844	-0.000026
C21	C	1.740235	-0.130901	-0.000041
C22	C	1.881838	-0.133649	-0.000050
C23	C	1.498121	-0.304653	-0.000046
C24	C	1.500871	-0.407049	-0.000053
N25	N	1.507027	-0.136090	0.254821
C26	C	1.503102	0.509794	-0.000051
C27	C	1.505914	0.405471	-0.000044
C28	C	1.508164	0.322322	-0.000037
C29	C	1.510976	0.217992	-0.000032
N30	N	1.507079	-0.136108	-0.254891
C31	C	1.507059	-0.136109	0.656111
C32	C	1.507047	-0.136107	0.544460
C33	C	1.507044	-0.136100	0.455470
C34	C	1.507030	-0.136097	0.343811
H35	H	1.115303	0.024209	-0.000121
C36	C	0.931108	-0.040457	0.172704
H37	H	0.954449	-0.072263	0.229959
H38	H	0.972456	0.020896	0.173290
H39	H	0.840859	-0.038567	0.171708
H40	H	0.898537	-0.296316	-0.000131
H41	H	1.072095	-0.218548	0.148768
H42	H	1.072196	-0.218572	-0.148883
H43	H	0.942160	-0.053730	-0.149031
