data_functionalizedCrystal
_audit_creation_method	'MofGen! by Chris Wilmer'
_symmetry_space_group_name_H-M	'P1'
_symmetry_Int_Tables_number	1
_symmetry_cell_setting	triclinic
loop_
_symmetry_equiv_pos_as_xyz
  x,y,z
_cell_length_a	19.188930
_cell_length_b	15.944551
_cell_length_c	14.421503
_cell_angle_alpha	89.996660
_cell_angle_beta	89.978519
_cell_angle_gamma	96.678241
loop_
_atom_site_label
_atom_site_type_symbol
_atom_site_fract_x
_atom_site_fract_y
_atom_site_fract_z
O1	O	0.926420	-0.104854	-0.077412
O2	O	1.426420	0.395146	0.422588
O3	O	0.723145	-0.118971	-0.077348
O4	O	1.223145	0.381029	0.422652
O5	O	0.830334	0.010383	-0.077374
O6	O	1.330334	0.510383	0.422626
O7	O	0.819232	-0.234208	-0.077387
O8	O	1.319232	0.265792	0.422613
O9	O	0.830316	0.010364	0.076850
O10	O	1.330316	0.510364	0.576850
O11	O	0.723128	-0.118990	0.076875
O12	O	1.223128	0.381010	0.576875
O13	O	0.926402	-0.104874	0.076812
O14	O	1.426402	0.395126	0.576812
Cu15	Cu	0.824763	-0.111934	0.090925
Cu16	Cu	1.324763	0.388066	0.590925
Cu17	Cu	0.824784	-0.111911	-0.091462
Cu18	Cu	1.324784	0.388089	0.408538
O19	O	0.819214	-0.234228	0.076837
O20	O	1.319214	0.265772	0.576837
C21	C	0.697124	-0.118524	-0.000229
C22	C	1.197124	0.381476	0.499771
C23	C	0.619616	-0.117151	-0.000204
C24	C	1.119616	0.382849	0.499796
C25	C	0.829864	0.041666	-0.000261
C26	C	1.329864	0.541666	0.499739
C27	C	0.828482	0.134906	-0.000261
C28	C	1.328482	0.634906	0.499739
N29	N	0.824754	-0.111949	0.219206
N30	N	1.324754	0.388051	0.719206
C31	C	0.574889	-0.193052	-0.000223
C32	C	1.074889	0.306948	0.499777
C33	C	0.502061	-0.191763	-0.000233
C34	C	1.002061	0.308237	0.499767
C35	C	0.473965	-0.114568	-0.000243
C36	C	0.973965	0.385432	0.499757
C37	C	0.518703	-0.038658	-0.000219
C38	C	1.018703	0.461342	0.499781
C39	C	0.591528	-0.039949	-0.000200
C40	C	1.091528	0.460051	0.499800
N41	N	0.365839	-0.055556	-0.052766
N42	N	0.865839	0.444444	0.447234
N43	N	0.296657	-0.054335	-0.052787
N44	N	0.796657	0.445665	0.447213
C45	C	0.254547	-0.110673	-0.000300
C46	C	0.754547	0.389327	0.499700
N47	N	0.284230	-0.168291	0.052197
N48	N	0.784230	0.331709	0.552197
N49	N	0.353418	-0.169515	0.052213
N50	N	0.853418	0.330485	0.552213
C51	C	0.394999	-0.113160	-0.000263
C52	C	0.894999	0.386840	0.499737
C53	C	0.130851	-0.185181	-0.000328
C54	C	0.630851	0.314819	0.499672
C55	C	0.058023	-0.183888	-0.000332
C56	C	0.558023	0.316112	0.499668
C57	C	0.074666	-0.030781	-0.000328
C58	C	0.574666	0.469219	0.499672
C59	C	0.147492	-0.032076	-0.000314
C60	C	0.647492	0.467924	0.499686
C61	C	0.175580	-0.109278	-0.000319
C62	C	0.675580	0.390722	0.499681
C63	C	0.952423	-0.105321	-0.000310
C64	C	1.452423	0.394679	0.499690
C65	C	1.029932	-0.106693	-0.000341
C66	C	1.529932	0.393307	0.499659
C67	C	0.819684	-0.265510	-0.000277
C68	C	1.319684	0.234490	0.499723
C69	C	0.821066	-0.358751	-0.000284
C70	C	1.321066	0.141249	0.499716
C71	C	0.758739	0.349502	-0.000252
C72	C	1.258739	0.849502	0.499748
C73	C	0.791117	0.410631	0.075780
C74	C	1.291117	0.910631	0.575780
C75	C	0.825983	0.305623	-0.000267
C76	C	1.325983	0.805623	0.499733
C77	C	0.791150	0.410634	-0.076272
C78	C	1.291150	0.910634	0.423728
C79	C	0.823563	0.470527	-0.000277
C80	C	1.323563	0.970527	0.499723
C81	C	0.858379	0.365524	0.075827
C82	C	1.358379	0.865524	0.575827
C83	C	0.858403	0.365520	-0.076293
C84	C	1.358403	0.865520	0.423707
C85	C	0.890829	0.426631	-0.000243
C86	C	1.390829	0.926631	0.499757
C87	C	0.827374	0.210626	-0.000260
C88	C	1.327374	0.710626	0.499740
C89	C	0.822176	0.565522	-0.000277
C90	C	1.322176	1.065522	0.499723
N91	N	0.824800	-0.111889	-0.219743
N92	N	1.324800	0.388111	0.280257
C93	C	0.775181	-0.171736	0.468872
C94	C	1.275181	0.328264	0.968872
C95	C	0.838271	-0.187807	0.530653
C96	C	1.338271	0.312193	1.030653
C97	C	0.824771	-0.111929	0.408368
C98	C	1.324771	0.388071	0.908368
C99	C	0.761697	-0.095877	0.530680
C100	C	1.261697	0.404123	1.030680
C101	C	0.824781	-0.111912	0.591089
C102	C	1.324781	0.388088	1.091089
C103	C	0.887892	-0.128038	0.468789
C104	C	1.387892	0.371962	0.968789
C105	C	0.811277	-0.036076	0.468810
C106	C	1.311277	0.463924	0.968810
C107	C	0.874413	-0.052114	0.530564
C108	C	1.374413	0.447886	1.030564
C109	C	0.824764	-0.111941	0.303107
C110	C	1.324764	0.388059	0.803107
C111	C	0.824796	-0.111899	0.696348
C112	C	1.324796	0.388101	1.196348
H113	H	0.597753	-0.255916	-0.000228
H114	H	1.097753	0.244084	0.499772
O115	O	0.892219	0.341516	-0.153023
O116	O	1.392219	0.841516	0.346977
C117	C	0.884702	0.257184	-0.292091
C118	C	1.384702	0.757184	0.207909
C119	C	0.846335	0.284286	-0.205211
C120	C	1.346335	0.784286	0.294789
H121	H	0.847616	0.210924	-0.334319
H122	H	1.347616	0.710924	0.165681
H123	H	0.932373	0.225459	-0.270252
H124	H	1.432373	0.725459	0.229748
H125	H	0.902509	0.315164	-0.336054
H126	H	1.402509	0.815164	0.163946
H127	H	0.828481	0.226351	-0.161210
H128	H	1.328481	0.726351	0.338790
H129	H	0.798695	0.316041	-0.227114
H130	H	1.298695	0.816041	0.272886
O131	O	0.014601	-0.257646	-0.000514
O132	O	0.514601	0.242354	0.499486
C133	C	-0.021838	-0.388115	-0.080408
C134	C	0.478162	0.111885	0.419592
C135	C	0.027365	-0.304606	-0.080328
C136	C	0.527365	0.195394	0.419672
H137	H	-0.011525	-0.426113	-0.144921
H138	H	0.488475	0.073887	0.355079
H139	H	-0.078728	-0.373985	-0.080476
H140	H	0.421272	0.126015	0.419524
H141	H	-0.011651	-0.426096	-0.015839
H142	H	0.488349	0.073904	0.484161
H143	H	0.017242	-0.266583	-0.144886
H144	H	0.517242	0.233417	0.355114
H145	H	0.084239	-0.318795	-0.080212
H146	H	0.584239	0.181205	0.419788
H147	H	0.849694	-0.251947	0.557818
H148	H	1.349694	0.248053	1.057818
H149	H	0.702924	0.315986	-0.000158
H150	H	1.202924	0.815986	0.499842
H151	H	0.916399	-0.001527	0.557482
H152	H	1.416399	0.498473	1.057482
H153	H	0.799834	0.028044	0.441624
H154	H	1.299834	0.528044	0.941624
O155	O	0.698001	-0.079783	0.562999
O156	O	1.198001	0.420217	1.062999
C157	C	0.573747	-0.124702	0.568347
C158	C	1.073747	0.375298	1.068347
C159	C	0.645837	-0.143009	0.531672
C160	C	1.145837	0.356991	1.031672
H161	H	0.531555	-0.175819	0.543050
H162	H	1.031555	0.324181	1.043050
H163	H	0.561777	-0.060561	0.541819
H164	H	1.061777	0.439439	1.041819
H165	H	0.574550	-0.124200	0.647388
H166	H	1.074550	0.375800	1.147388
H167	H	0.645088	-0.143556	0.452634
H168	H	1.145088	0.356444	0.952634
H169	H	0.657779	-0.207137	0.558271
H170	H	1.157779	0.292863	1.058271
H171	H	0.051791	0.032072	-0.000393
H172	H	0.551791	0.532072	0.499607
H173	H	0.762708	0.430612	-0.140555
H174	H	1.262708	0.930612	0.359445
H175	H	0.762668	0.430625	0.140076
H176	H	1.262668	0.930625	0.640076
O177	O	0.158176	-0.260148	-0.000481
O178	O	0.658176	0.239852	0.499519
C179	C	0.230812	-0.350433	-0.080325
C180	C	0.730812	0.149567	0.419675
C181	C	0.199902	-0.265513	-0.080281
C182	C	0.699902	0.234487	0.419719
H183	H	0.264566	-0.354791	-0.144826
H184	H	0.764566	0.145209	0.355174
H185	H	0.186360	-0.404498	-0.080388
H186	H	0.686360	0.095502	0.419612
H187	H	0.264435	-0.354853	-0.015744
H188	H	0.764435	0.145147	0.484256
H189	H	0.166287	-0.261011	-0.144850
H190	H	0.666287	0.238989	0.355150
H191	H	0.244387	-0.211489	-0.080169
H192	H	0.744387	0.288511	0.419831
H193	H	0.465637	-0.253572	-0.000246
H194	H	0.965637	0.246428	0.499754
H195	H	0.495822	0.024194	-0.000240
H196	H	0.995822	0.524194	0.499760
H197	H	0.183911	0.029731	-0.000304
H198	H	0.683911	0.529731	0.499696
H199	H	0.733287	-0.222352	0.441784
H200	H	1.233287	0.277648	0.941784
H201	H	0.941248	-0.141684	0.441717
H202	H	1.441248	0.358316	0.941717
O203	O	0.634881	0.033862	-0.000229
O204	O	1.134881	0.533862	0.499771
C205	C	0.643703	0.185857	-0.000169
C206	C	1.143703	0.685857	0.499831
C207	C	0.594525	0.102329	-0.000154
C208	C	1.094525	0.602329	0.499846
H209	H	0.611095	0.241234	-0.000089
H210	H	1.111095	0.741234	0.499911
H211	H	0.678227	0.189145	-0.064720
H212	H	1.178227	0.689145	0.435280
H213	H	0.678203	0.189024	0.064364
H214	H	1.178203	0.689024	0.564364
H215	H	0.559981	0.099106	-0.064644
H216	H	1.059981	0.599106	0.435356
H217	H	0.560049	0.099075	0.064440
H218	H	1.060049	0.599075	0.564440
O219	O	0.892224	0.341652	0.152569
O220	O	1.392224	0.841652	0.652569
C221	C	0.931532	0.226447	0.238640
C222	C	1.431532	0.726447	0.738640
C223	C	0.893176	0.253366	0.151703
C224	C	1.393176	0.753366	0.651703
H225	H	0.932327	0.155068	0.237958
H226	H	1.432327	0.655068	0.737958
H227	H	0.903054	0.245343	0.303404
H228	H	1.403054	0.745343	0.803404
H229	H	0.987660	0.259019	0.238886
H230	H	1.487660	0.759019	0.738886
H231	H	0.837047	0.220807	0.151366
H232	H	1.337047	0.720807	0.651366
H233	H	0.921709	0.234485	0.086978
H234	H	1.421709	0.734485	0.586978
H235	H	0.946693	0.459999	-0.000218
H236	H	1.446693	0.959999	0.499782
