data_functionalizedCrystal
_audit_creation_method	'MofGen! by Chris Wilmer'
_symmetry_space_group_name_H-M	'P1'
_symmetry_Int_Tables_number	1
_symmetry_cell_setting	triclinic
loop_
_symmetry_equiv_pos_as_xyz
  x,y,z
_cell_length_a	6.817900
_cell_length_b	19.452420
_cell_length_c	19.453114
_cell_angle_alpha	96.328802
_cell_angle_beta	101.709288
_cell_angle_gamma	101.696715
loop_
_atom_site_label
_atom_site_type_symbol
_atom_site_fract_x
_atom_site_fract_y
_atom_site_fract_z
V1	V	-3.997947	-0.097915	-0.219345
V2	V	-3.497947	0.402085	0.280655
O3	O	-3.995100	0.003953	-0.214816
O4	O	-3.495100	0.503953	0.285184
O5	O	-3.940917	-0.193426	-0.218185
O6	O	-3.440917	0.306574	0.281815
O7	O	-3.940968	-0.096739	-0.314854
O8	O	-3.440968	0.403261	0.185146
O9	O	-3.995048	-0.093403	-0.117478
O10	O	-3.495048	0.406597	0.382522
V11	V	-4.483804	-0.085692	-0.207120
V12	V	-3.983804	0.414308	0.292880
O13	O	-4.254084	-0.124729	-0.246163
O14	O	-3.754084	0.375271	0.253837
O15	O	-4.677865	-0.058878	-0.180302
O16	O	-4.177865	0.441122	0.319698
O17	O	-4.317628	0.009819	-0.208280
O18	O	-3.817628	0.509819	0.291720
O19	O	-4.604048	-0.187560	-0.211649
O20	O	-4.104048	0.312440	0.288351
O21	O	-4.604099	-0.090204	-0.308987
O22	O	-4.104099	0.409796	0.191013
O23	O	-4.317576	-0.086868	-0.111611
O24	O	-3.817576	0.413132	0.388389
C25	C	-3.784096	-0.216699	-0.214813
C26	C	-3.284096	0.283301	0.285187
C27	C	-3.818697	-0.294782	-0.214501
C28	C	-3.318697	0.205218	0.285499
C29	C	-3.784160	-0.093365	-0.338123
C30	C	-3.284160	0.406635	0.161877
C31	C	-3.818800	-0.093035	-0.416204
C32	C	-3.318800	0.406965	0.083796
C33	C	-3.801490	-0.321196	-0.149986
C34	C	-3.301490	0.178804	0.350014
C35	C	-3.834075	-0.394562	-0.149672
C36	C	-3.334075	0.105438	0.350328
C37	C	-3.883827	-0.441511	-0.213874
C38	C	-3.383827	0.058489	0.286126
C39	C	-3.901045	-0.415090	-0.278397
C40	C	-3.401045	0.084910	0.221603
C41	C	-3.868480	-0.341726	-0.278711
C42	C	-3.368480	0.158274	0.221289
N43	N	-3.846563	-0.562110	-0.259091
N44	N	-3.346563	-0.062110	0.240909
N45	N	-3.877492	-0.631802	-0.258789
N46	N	-3.377492	-0.131802	0.241211
C47	C	-3.981949	-0.662553	-0.212935
C48	C	-3.481949	-0.162553	0.287065
N49	N	-4.054279	-0.620977	-0.167383
N50	N	-3.554279	-0.120977	0.332617
N51	N	-4.023337	-0.551278	-0.167682
N52	N	-3.523337	-0.051278	0.332318
C53	C	-3.919143	-0.521063	-0.213542
C54	C	-3.419143	-0.021063	0.286458
C55	C	-4.000075	-0.768518	-0.148075
C56	C	-3.500075	-0.268518	0.351925
C57	C	-4.032674	-0.841885	-0.147764
C58	C	-3.532674	-0.341885	0.352236
C59	C	-4.099624	-0.862412	-0.276491
C60	C	-3.599624	-0.362412	0.223509
C61	C	-4.067045	-0.789046	-0.276801
C62	C	-3.567045	-0.289046	0.223199
C63	C	-4.017262	-0.742102	-0.212591
C64	C	-3.517262	-0.242102	0.287409
C65	C	-4.016538	-0.096406	-0.456473
C66	C	-3.516538	0.403594	0.043527
C67	C	-4.049086	-0.096097	-0.529838
C68	C	-3.549086	0.403903	-0.029838
C69	C	-3.883893	-0.092431	-0.562934
C70	C	-3.383893	0.407569	-0.062934
C71	C	-3.686126	-0.089055	-0.522655
C72	C	-3.186126	0.410945	-0.022655
C73	C	-3.653579	-0.089358	-0.449290
C74	C	-3.153579	0.410642	0.050710
N75	N	-3.820798	-0.129525	-0.681855
N76	N	-3.320798	0.370475	-0.181855
N77	N	-3.851729	-0.129240	-0.751549
N78	N	-3.351729	0.370760	-0.251549
C79	C	-3.981942	-0.091517	-0.783979
C80	C	-3.481942	0.408483	-0.283979
N81	N	-4.080090	-0.054101	-0.744084
N82	N	-3.580090	0.445899	-0.244084
N83	N	-4.049164	-0.054390	-0.674384
N84	N	-3.549164	0.445610	-0.174384
C85	C	-3.919164	-0.092102	-0.642486
C86	C	-3.419164	0.407898	-0.142486
C87	C	-4.214984	-0.094552	-0.903800
C88	C	-3.714984	0.405448	-0.403800
C89	C	-4.247523	-0.094238	-0.977166
C90	C	-3.747523	0.405762	-0.477166
C91	C	-3.884560	-0.087203	-0.969983
C92	C	-3.384560	0.412797	-0.469983
C93	C	-3.852023	-0.087510	-0.896617
C94	C	-3.352023	0.412490	-0.396617
C95	C	-4.017244	-0.091188	-0.863531
C96	C	-3.517244	0.408812	-0.363531
C97	C	-4.137790	0.033088	-0.211650
C98	C	-3.637790	0.533088	0.288350
C99	C	-4.082427	0.111171	-0.211967
C100	C	-3.582427	0.611171	0.288033
C101	C	-4.137726	-0.090245	-0.088339
C102	C	-3.637726	0.409755	0.411661
C103	C	-4.082325	-0.090570	-0.010257
C104	C	-3.582325	0.409430	0.489743
H105	H	-3.760969	-0.282979	-0.097702
H106	H	-3.260969	0.217021	0.402298
N107	N	-3.887003	-0.313228	-0.348294
N108	N	-3.387003	0.186772	0.151706
H109	H	-3.998378	-0.285670	-0.353686
H110	H	-3.498378	0.214330	0.146314
H111	H	-3.923389	-0.354134	-0.388880
H112	H	-3.423389	0.145866	0.111120
N113	N	-4.393153	-0.098510	-0.868100
N114	N	-3.893153	0.401490	-0.368100
H115	H	-4.500902	-0.143761	-0.889411
H116	H	-4.000902	0.356239	-0.389411
H117	H	-4.455242	-0.056193	-0.875466
H118	H	-3.955242	0.443807	-0.375466
H119	H	-3.750053	-0.084212	-0.996928
H120	H	-3.250053	0.415788	-0.496928
N121	N	-3.638742	-0.083886	-0.853187
N122	N	-3.138742	0.416114	-0.353187
H123	H	-3.639888	-0.127622	-0.829561
H124	H	-3.139888	0.372378	-0.329561
H125	H	-3.594522	-0.040060	-0.815653
H126	H	-3.094522	0.459940	-0.315653
N127	N	-4.014097	-0.870383	-0.078179
N128	N	-3.514097	-0.370383	0.421821
H129	H	-4.149515	-0.902789	-0.077566
H130	H	-3.649515	-0.402789	0.422434
H131	H	-3.977534	-0.829474	-0.037589
H132	H	-3.477534	-0.329474	0.462411
H133	H	-3.820059	-0.416072	-0.097135
H134	H	-3.320059	0.083928	0.402865
H135	H	-3.941557	-0.453320	-0.330672
H136	H	-3.441557	0.046680	0.169328
H137	H	-3.959538	-0.730294	-0.095792
H138	H	-3.459538	-0.230294	0.404208
N139	N	-4.262380	-0.099743	-0.573283
N140	N	-3.762380	0.400257	-0.073283
H141	H	-4.257924	-0.098995	-0.624780
H142	H	-3.757924	0.401005	-0.124780
H143	H	-4.313223	-0.057566	-0.555059
H144	H	-3.813223	0.442434	-0.055059
H145	H	-4.140134	-0.900637	-0.328766
H146	H	-3.640134	-0.400637	0.171234
N147	N	-4.085584	-0.760551	-0.346384
N148	N	-3.585584	-0.260551	0.153616
H149	H	-4.122043	-0.801423	-0.387010
H150	H	-3.622043	-0.301423	0.112990
H151	H	-3.950122	-0.728132	-0.346924
H152	H	-3.450122	-0.228132	0.153076
H153	H	-3.551625	-0.086068	-0.549606
H154	H	-3.051625	0.413932	-0.049606
N155	N	-4.194728	-0.100367	-0.420786
N156	N	-3.694728	0.399633	0.079214
H157	H	-4.324935	-0.102453	-0.457433
H158	H	-3.824935	0.397547	0.042567
H159	H	-4.166390	-0.056875	-0.383531
H160	H	-3.666390	0.443125	0.116469
H161	H	-3.492552	-0.086607	-0.416502
H162	H	-2.992552	0.413393	0.083498
N163	N	-4.460801	-0.097860	-1.020601
N164	N	-3.960801	0.402140	-0.520601
H165	H	-4.560518	-0.100234	-0.988505
H166	H	-4.060518	0.399766	-0.488505
H167	H	-4.504954	-0.141652	-1.058176
H168	H	-4.004954	0.358348	-0.558176
