data_functionalizedCrystal
_audit_creation_method	'MofGen! by Chris Wilmer'
_symmetry_space_group_name_H-M	'P1'
_symmetry_Int_Tables_number	1
_symmetry_cell_setting	triclinic
loop_
_symmetry_equiv_pos_as_xyz
  x,y,z
_cell_length_a	14.519709
_cell_length_b	10.723023
_cell_length_c	9.198806
_cell_angle_alpha	89.996513
_cell_angle_beta	89.996989
_cell_angle_gamma	95.926154
loop_
_atom_site_label
_atom_site_type_symbol
_atom_site_fract_x
_atom_site_fract_y
_atom_site_fract_z
O1	O	-0.129344	1.655979	-0.120856
O2	O	-0.141726	1.292711	-0.120860
O3	O	-0.001346	1.483976	-0.120871
O4	O	-0.269724	1.464713	-0.120845
O5	O	-0.001345	1.483961	0.120914
O6	O	-0.141725	1.292695	0.120925
O7	O	-0.129344	1.655964	0.120929
Cu8	Cu	-0.135534	1.474328	0.143004
Cu9	Cu	-0.135535	1.474346	-0.142935
O10	O	-0.269724	1.464698	0.120941
C11	C	-0.140825	1.246212	0.000032
C12	C	-0.138129	1.107683	0.000029
C13	C	-0.134142	0.902760	-0.125223
C14	C	-0.136928	1.045937	-0.125223
C15	C	-0.304088	1.465603	0.000051
C16	C	-0.406483	1.468293	0.000061
C17	C	-0.781430	1.478197	0.000004
C18	C	-0.677108	1.475447	0.000020
C19	C	-0.593960	1.473246	0.000034
C20	C	-0.489631	1.470495	0.000047
C21	C	0.033019	1.483071	0.000015
C22	C	0.135414	1.480381	-0.000004
C23	C	-0.130245	1.702462	0.000035
C24	C	-0.132940	1.840992	0.000028
N25	N	-0.135534	1.474325	0.344118
N26	N	-0.135529	1.474359	-0.344049
C27	C	-0.076332	1.554634	0.416311
C28	C	-0.076329	1.554653	0.583723
H29	H	-0.025646	1.623372	0.354180
O30	O	-0.015731	1.636627	0.657618
C31	C	0.144216	1.708715	0.704512
C32	C	0.075688	1.615829	0.620706
H33	H	0.218143	1.691915	0.674723
H34	H	0.131833	1.808808	0.674625
H35	H	0.133397	1.694131	0.826326
H36	H	0.086467	1.630298	0.498873
H37	H	0.088088	1.515770	0.650714
O38	O	-0.137060	1.044356	0.128006
C39	C	-0.216005	0.990375	0.353299
C40	C	-0.217345	1.062137	0.208407
H41	H	-0.280898	1.004747	0.418358
H42	H	-0.214037	0.886168	0.330589
H43	H	-0.152042	1.027156	0.418263
H44	H	-0.281298	1.025462	0.143371
H45	H	-0.219264	1.166335	0.231219
O46	O	-0.138288	1.109414	-0.253064
C47	C	-0.220938	1.242521	-0.405860
C48	C	-0.219504	1.170713	-0.261009
H49	H	-0.286604	1.292078	-0.412344
H50	H	-0.157743	1.314820	-0.412386
H51	H	-0.219554	1.173741	-0.500140
H52	H	-0.220919	1.239397	-0.166646
H53	H	-0.282693	1.098396	-0.254610
H54	H	-0.133969	0.894108	0.107259
O55	O	-0.196042	1.392498	0.581749
C56	C	-0.321774	1.366804	0.409818
C57	C	-0.253281	1.459647	0.493748
H58	H	-0.368082	1.421057	0.338672
H59	H	-0.281686	1.304281	0.338465
H60	H	-0.366303	1.306328	0.490276
H61	H	-0.208735	1.520205	0.413394
H62	H	-0.293425	1.522084	0.565123
H63	H	-0.133103	0.849646	-0.232454
H64	H	-0.186213	1.405578	0.406250
