data_functionalizedCrystal
_audit_creation_method	'MofGen! by Chris Wilmer'
_symmetry_space_group_name_H-M	'P1'
_symmetry_Int_Tables_number	1
_symmetry_cell_setting	triclinic
loop_
_symmetry_equiv_pos_as_xyz
  x,y,z
_cell_length_a	15.944551
_cell_length_b	14.044220
_cell_length_c	12.503552
_cell_angle_alpha	86.160109
_cell_angle_beta	86.481026
_cell_angle_gamma	91.656192
loop_
_atom_site_label
_atom_site_type_symbol
_atom_site_fract_x
_atom_site_fract_y
_atom_site_fract_z
O1	O	0.198066	-1.263185	0.089211
O2	O	0.531399	-0.929851	0.422544
O3	O	0.864733	-0.596518	0.755877
O4	O	0.190757	-0.987217	0.089238
O5	O	0.524090	-0.653883	0.422571
O6	O	0.857424	-0.320550	0.755904
O7	O	0.072701	-1.132736	0.089214
O8	O	0.406035	-0.799403	0.422547
O9	O	0.739368	-0.466070	0.755880
O10	O	0.316122	-1.117665	0.089235
O11	O	0.649455	-0.784332	0.422568
O12	O	0.982788	-0.450999	0.755901
O13	O	0.081588	-1.121780	-0.089427
O14	O	0.414921	-0.788446	0.243906
O15	O	0.748254	-0.455113	0.577240
O16	O	0.199643	-0.976260	-0.089403
O17	O	0.532976	-0.642927	0.243930
O18	O	0.866310	-0.309594	0.577264
O19	O	0.206952	-1.252228	-0.089430
O20	O	0.540285	-0.918895	0.243903
O21	O	0.873619	-0.585562	0.577237
Cu22	Cu	0.204109	-1.113244	-0.105728
Cu23	Cu	0.537442	-0.779910	0.227605
Cu24	Cu	0.870776	-0.446577	0.560939
Cu25	Cu	0.193600	-1.126201	0.105535
Cu26	Cu	0.526933	-0.792868	0.438869
Cu27	Cu	0.860267	-0.459535	0.772202
O28	O	0.325008	-1.106709	-0.089406
O29	O	0.658341	-0.773375	0.243927
O30	O	0.991674	-0.440042	0.577261
C31	C	0.192001	-0.946424	-0.000079
C32	C	0.525335	-0.613091	0.333254
C33	C	0.858668	-0.279757	0.666587
C34	C	0.182459	-0.841198	-0.000069
C35	C	0.515793	-0.507865	0.333264
C36	C	0.849126	-0.174532	0.666597
C37	C	0.045804	-1.126632	-0.000107
C38	C	0.379137	-0.793299	0.333227
C39	C	0.712470	-0.459966	0.666560
C40	C	-0.047583	-1.124756	-0.000107
C41	C	0.285751	-0.791423	0.333226
C42	C	0.619084	-0.458090	0.666560
C43	C	0.205708	-1.293021	-0.000111
C44	C	0.539041	-0.959688	0.333223
C45	C	0.872374	-0.626354	0.666556
C46	C	0.215249	-1.398247	-0.000114
C47	C	0.548583	-1.064914	0.333220
C48	C	0.881916	-0.731581	0.666553
C49	C	-0.269530	-1.030073	-0.000083
C50	C	0.063803	-0.696740	0.333250
C51	C	0.397136	-0.363407	0.666584
C52	C	-0.322874	-1.068639	-0.088168
C53	C	0.010460	-0.735306	0.245165
C54	C	0.343793	-0.401973	0.578499
C55	C	-0.218563	-1.121363	-0.000099
C56	C	0.114770	-0.788030	0.333235
C57	C	0.448104	-0.454697	0.666568
C58	C	-0.331617	-1.079463	0.087958
C59	C	0.001717	-0.746130	0.421291
C60	C	0.335050	-0.412796	0.754624
C61	C	-0.383722	-1.118079	-0.000086
C62	C	-0.050389	-0.784746	0.333248
C63	C	0.282944	-0.451413	0.666581
C64	C	-0.270673	-1.159950	-0.088256
C65	C	0.062660	-0.826616	0.245077
C66	C	0.395994	-0.493283	0.578410
C67	C	-0.279414	-1.170766	0.087949
C68	C	0.053919	-0.837432	0.421282
C69	C	0.387252	-0.504099	0.754615
C70	C	-0.332734	-1.209396	-0.000158
C71	C	0.000599	-0.876063	0.333175
C72	C	0.333933	-0.542730	0.666509
C73	C	-0.123419	-1.123252	-0.000107
C74	C	0.209914	-0.789919	0.333226
C75	C	0.543248	-0.456586	0.666560
C76	C	-0.478865	-1.116197	-0.000085
C77	C	-0.145531	-0.782863	0.333248
C78	C	0.187802	-0.449530	0.666582
C79	C	0.351905	-1.112813	-0.000083
C80	C	0.685239	-0.779480	0.333250
C81	C	1.018572	-0.446146	0.666583
C82	C	0.445291	-1.114689	-0.000076
C83	C	0.778625	-0.781356	0.333257
C84	C	1.111958	-0.448023	0.666591
N85	N	0.211500	-1.104137	-0.254319
N86	N	0.544834	-0.770804	0.079014
N87	N	0.878167	-0.437471	0.412348
C88	C	0.165017	-0.648534	-0.000092
C89	C	0.498350	-0.315201	0.333241
C90	C	0.831684	0.018132	0.666575
C91	C	0.232688	-0.590906	-0.000091
C92	C	0.566021	-0.257572	0.333242
C93	C	0.899354	0.075761	0.666576
C94	C	0.222983	-0.483701	-0.000104
C95	C	0.556316	-0.150367	0.333230
C96	C	0.889649	0.182966	0.666563
C97	C	0.174721	-0.755749	-0.000079
C98	C	0.508054	-0.422416	0.333254
C99	C	0.841388	-0.089083	0.666587
C100	C	0.175327	-1.148707	-0.526760
C101	C	0.508660	-0.815373	-0.193426
C102	C	0.841993	-0.482040	0.139907
C103	C	0.222374	-1.090749	-0.473426
C104	C	0.555707	-0.757416	-0.140093
C105	C	0.889040	-0.424082	0.193241
C106	C	0.216322	-1.098200	-0.351504
C107	C	0.549655	-0.764867	-0.018170
C108	C	0.882989	-0.431533	0.315163
C109	C	0.181377	-1.141257	-0.648693
C110	C	0.514711	-0.807923	-0.315360
C111	C	0.848044	-0.474590	0.017974
N112	N	0.186203	-1.135315	0.254127
N113	N	0.519536	-0.801982	0.587460
N114	N	0.852869	-0.468649	0.920793
H115	H	-0.241893	-0.954293	-0.000164
H116	H	0.091441	-0.620959	0.333170
H117	H	0.424774	-0.287626	0.666503
C118	C	-0.369863	-1.311847	-0.000238
C119	C	-0.036530	-0.978514	0.333096
C120	C	0.296804	-0.645180	0.666429
N121	N	-0.397832	-1.389011	-0.000304
N122	N	-0.064498	-1.055677	0.333029
N123	N	0.268835	-0.722344	0.666362
H124	H	-0.358290	-1.045406	0.162432
H125	H	-0.024957	-0.712073	0.495765
H126	H	0.308377	-0.378740	0.829099
H127	H	0.099799	-0.617360	-0.000104
H128	H	0.433132	-0.284027	0.333230
H129	H	0.766465	0.049306	0.666563
H130	H	0.297911	-0.622081	-0.000080
H131	H	0.631245	-0.288748	0.333253
H132	H	0.964578	0.044585	0.666587
C133	C	-0.253317	-1.229054	0.188549
C134	C	0.080017	-0.895720	0.521882
C135	C	0.413350	-0.562387	0.855216
N136	N	-0.233659	-1.272950	0.264330
N137	N	0.099675	-0.939617	0.597663
N138	N	0.433008	-0.606284	0.930997
H139	H	-0.342169	-1.025460	-0.162629
H140	H	-0.008836	-0.692126	0.170704
H141	H	0.324497	-0.358793	0.504037
H142	H	0.267197	-1.035535	-0.519333
H143	H	0.600530	-0.702201	-0.185999
H144	H	0.933864	-0.368868	0.147334
H145	H	-0.244085	-1.193957	-0.162807
H146	H	0.089248	-0.860624	0.170526
H147	H	0.422581	-0.527290	0.503860
C148	C	0.114770	-1.223287	-0.464745
C149	C	0.448103	-0.889954	-0.131411
C150	C	0.781436	-0.556621	0.201922
N151	N	0.069157	-1.279460	-0.418023
N152	N	0.402490	-0.946126	-0.084690
N153	N	0.735824	-0.612793	0.248644
