data_functionalizedCrystal
_audit_creation_method	'MofGen! by Chris Wilmer'
_symmetry_space_group_name_H-M	'P1'
_symmetry_Int_Tables_number	1
_symmetry_cell_setting	triclinic
loop_
_symmetry_equiv_pos_as_xyz
  x,y,z
_cell_length_a	10.654559
_cell_length_b	19.288859
_cell_length_c	18.366186
_cell_angle_alpha	89.990083
_cell_angle_beta	90.006519
_cell_angle_gamma	96.188864
loop_
_atom_site_label
_atom_site_type_symbol
_atom_site_fract_x
_atom_site_fract_y
_atom_site_fract_z
O1	O	-0.156619	0.922384	-0.060565
O2	O	-0.177760	0.720261	-0.060563
O3	O	0.015649	0.825966	-0.060558
O4	O	-0.350027	0.816679	-0.060569
O5	O	0.015658	0.825948	0.060541
O6	O	-0.177750	0.720243	0.060536
O7	O	-0.156609	0.922366	0.060535
Zn8	Zn	-0.167178	0.821301	0.079763
Zn9	Zn	-0.167191	0.821325	-0.079791
O10	O	-0.350018	0.816660	0.060530
C11	C	-0.177076	0.694371	-0.000013
C12	C	-0.175038	0.617254	-0.000012
C13	C	-0.274734	0.053868	-0.000016
C14	C	-0.276660	0.126327	-0.000020
C15	C	-0.163177	0.170289	-0.000015
C16	C	-0.047759	0.141786	-0.000026
C17	C	-0.045836	0.069328	-0.000029
C18	C	-0.078538	0.290997	0.042416
C19	C	-0.080465	0.363453	0.042424
C20	C	-0.169102	0.393773	-0.000008
C21	C	-0.255833	0.351627	-0.042439
C22	C	-0.253910	0.279169	-0.042442
C23	C	-0.165249	0.248858	-0.000012
C24	C	-0.286601	0.500836	-0.000007
C25	C	-0.288522	0.573297	-0.000016
C26	C	-0.059618	0.588755	-0.000014
C27	C	-0.057700	0.516295	-0.000013
C28	C	-0.171195	0.472340	-0.000006
C29	C	-0.396806	0.817353	-0.000021
C30	C	-0.536205	0.819397	-0.000025
C31	C	-0.601714	0.820362	-0.066033
C32	C	-0.732694	0.822281	-0.066025
C33	C	-0.732646	0.822267	0.066004
C34	C	-0.601666	0.820353	0.065995
C35	C	-0.536252	0.819406	-0.132054
C36	C	-0.601762	0.820371	-0.198067
C37	C	-0.732742	0.822290	-0.198059
C38	C	-0.798213	0.823244	-0.132038
C39	C	0.062437	0.825274	-0.000009
C40	C	0.201836	0.823230	-0.000009
C41	C	-0.157293	0.948256	-0.000017
C42	C	-0.159331	1.025373	-0.000022
N43	N	-0.167169	0.821290	0.188654
N44	N	-0.167190	0.821342	-0.188682
C45	C	-0.081570	0.868112	0.226756
C46	C	-0.081564	0.868116	0.302984
C47	C	-0.167179	0.821306	0.341107
C48	C	-0.252785	0.774475	0.302995
C49	C	-0.252780	0.774467	0.226769
C50	C	-0.281601	0.812759	0.461864
C51	C	-0.281607	0.812771	0.538089
C52	C	-0.167195	0.821325	0.576214
C53	C	-0.052771	0.829882	0.538105
C54	C	-0.052766	0.829874	0.461879
C55	C	-0.167194	0.821308	0.423761
C56	C	-0.081583	0.868155	0.696972
C57	C	-0.081575	0.868154	0.773201
C58	C	-0.252807	0.774516	0.773210
C59	C	-0.252804	0.774513	0.696982
C60	C	-0.167193	0.821336	0.658868
H61	H	-0.379016	0.465046	-0.000003
H62	H	-0.324526	0.244856	-0.076992
H63	H	0.040402	0.836839	0.430854
Br64	Br	-0.368958	0.710918	0.175054
Br65	Br	-0.368987	0.710979	0.824941
H66	H	-0.328012	0.376311	-0.076990
Br67	Br	-0.445155	0.611970	-0.000019
Br68	Br	0.034607	0.931697	0.645242
H69	H	-0.548328	0.819565	0.119745
H70	H	-0.322512	0.736389	0.665957
Br71	Br	0.034615	0.931697	0.824916
Br72	Br	0.094399	0.648410	-0.000023
Br73	Br	-0.821499	0.823560	0.155597
H74	H	-0.429602	0.817841	-0.132067
Br75	Br	0.110794	0.030653	-0.000042
H76	H	-0.904865	0.824813	-0.132038
H77	H	0.040395	0.836847	0.569146
Br78	Br	-0.436894	0.801167	0.589800
H79	H	-0.548445	0.819599	-0.251819
H80	H	-0.786075	0.823082	-0.251810
H81	H	-0.374775	0.805781	0.430828
H82	H	-0.322493	0.736360	0.334038
H83	H	-0.367151	0.018083	-0.000014
H84	H	-0.011857	0.906236	0.195726
Br85	Br	0.034618	0.931665	0.354704
H86	H	-0.370637	0.149532	-0.000008
H87	H	0.036274	0.493095	-0.000013
H88	H	-0.009851	0.397763	0.076978
H89	H	-0.006353	0.266317	0.076971
Br90	Br	0.106256	0.201446	-0.000025
