data_functionalizedCrystal
_audit_creation_method	'MofGen! by Chris Wilmer'
_symmetry_space_group_name_H-M	'P1'
_symmetry_Int_Tables_number	1
_symmetry_cell_setting	triclinic
loop_
_symmetry_equiv_pos_as_xyz
  x,y,z
_cell_length_a	13.262533
_cell_length_b	13.339070
_cell_length_c	13.448316
_cell_angle_alpha	89.996829
_cell_angle_beta	105.910057
_cell_angle_gamma	99.431353
loop_
_atom_site_label
_atom_site_type_symbol
_atom_site_fract_x
_atom_site_fract_y
_atom_site_fract_z
O1	O	1.432339	0.136432	0.304691
O2	O	1.131089	0.151265	0.223216
O3	O	1.247140	-0.003561	0.254606
O4	O	1.316288	0.291258	0.273302
O5	O	1.247117	-0.003570	0.419984
O6	O	1.131066	0.151256	0.388594
O7	O	1.432316	0.136422	0.470069
Cu8	Cu	1.281689	0.143838	0.444432
Cu9	Cu	1.281716	0.143850	0.248853
O10	O	1.316265	0.291248	0.438679
C11	C	1.091733	0.150429	0.295264
C12	C	0.974496	0.147939	0.263556
C13	C	1.235448	-0.041304	0.334134
C14	C	1.200632	-0.153752	0.324714
C15	C	0.643969	0.140915	0.534768
C16	C	0.754120	0.143259	0.564565
C17	C	0.809220	0.144429	0.489315
C18	C	0.754157	0.143255	0.384264
C19	C	0.643997	0.140919	0.354466
C20	C	0.809247	0.144433	0.309012
C21	C	0.754185	0.143259	0.203961
C22	C	0.644035	0.140922	0.174168
C23	C	0.588936	0.139753	0.249417
C24	C	0.919408	0.146769	0.338811
C25	C	0.919435	0.146773	0.158508
C26	C	0.809284	0.144429	0.128712
C27	C	1.471345	-0.517405	0.397931
C28	C	1.504060	-0.411754	0.406789
C29	C	1.428206	-0.347249	0.386270
C30	C	1.319631	-0.388404	0.356894
C31	C	1.286913	-0.494065	0.348043
C32	C	1.243774	-0.323909	0.336383
C33	C	1.135199	-0.365064	0.307006
C34	C	1.102486	-0.470714	0.298156
C35	C	1.178340	-0.535220	0.318675
C36	C	1.276492	-0.218248	0.345233
C37	C	1.092059	-0.194908	0.295345
C38	C	1.059344	-0.300558	0.286488
C39	C	1.471671	0.137259	0.398019
C40	C	1.588908	0.139748	0.429720
C41	C	1.327956	0.328991	0.359149
C42	C	1.362773	0.441440	0.368562
N43	N	1.281677	0.143830	0.581993
N44	N	1.281734	0.143850	0.111294
C45	C	1.333095	0.075301	0.647941
C46	C	1.333101	0.075300	0.752046
C47	C	1.281696	0.143834	0.790202
C48	C	1.230271	0.212365	0.724245
C49	C	1.230259	0.212360	0.620141
C50	C	1.230302	0.212372	0.941234
C51	C	1.230316	0.212379	1.045346
C52	C	1.333144	0.075312	1.073139
C53	C	1.333132	0.075307	0.969034
C54	C	1.281709	0.143840	0.903085
H55	H	0.964229	0.147726	0.424344
H56	H	1.454849	-0.261224	0.393484
O57	O	1.382892	0.008494	0.932079
C58	C	1.336520	-0.091775	0.945172
H59	H	1.252234	-0.092534	0.950943
H60	H	1.333786	-0.142692	0.876075
H61	H	1.386042	-0.121182	1.019083
H62	H	1.364894	-0.184750	0.369152
H63	H	0.970941	-0.334082	0.262570
O64	O	1.383270	0.008839	1.137202
C65	C	1.492092	0.025796	1.141155
H66	H	1.516204	0.106892	1.119046
H67	H	1.541452	0.014407	1.222957
H68	H	1.506616	-0.030199	1.084659
H69	H	1.374968	0.019499	0.805741
H70	H	1.374961	0.019498	0.616884
H71	H	1.188455	0.268185	1.076406
H72	H	1.188424	0.268176	0.887538
O73	O	1.180251	0.278798	0.761397
C74	C	1.099614	0.224245	0.799810
H75	H	1.118399	0.145187	0.820486
H76	H	1.095309	0.266445	0.871848
H77	H	1.019931	0.216990	0.738160
O78	O	0.916211	0.146653	0.518431
C79	C	0.952999	0.147462	0.627287
H80	H	0.884527	0.114093	0.659820
H81	H	1.019048	0.099906	0.650636
H82	H	0.985172	0.229037	0.659427
H83	H	1.188388	0.268162	0.566445
H84	H	1.030292	-0.142387	0.278642
H85	H	0.499241	0.137834	0.225162
O86	O	0.590687	0.139926	0.072097
C87	C	0.631226	0.228124	0.028221
H88	H	0.715745	0.259032	0.076716
H89	H	0.631946	0.208498	-0.054058
H90	H	0.578772	0.288160	0.026523
O91	O	0.807434	0.144348	0.666645
C92	C	0.735189	0.142839	0.726674
H93	H	0.651690	0.109143	0.677661
H94	H	0.759367	0.094401	0.796272
H95	H	0.736092	0.223751	0.754631
H96	H	1.592462	-0.378253	0.430708
H97	H	1.151709	-0.621250	0.311461
H98	H	0.764437	0.143475	0.043178
O99	O	0.590371	0.139603	0.607808
C100	C	0.512997	0.050653	0.592268
H101	H	0.536676	-0.009887	0.547525
H102	H	0.507147	0.021221	0.670425
H103	H	0.432605	0.068695	0.546290
H104	H	0.964297	0.147730	0.097233
H105	H	1.014077	-0.504219	0.274244
O106	O	1.544881	-0.580208	0.417784
C107	C	1.492718	-0.682284	0.403704
H108	H	1.409008	-0.686676	0.349746
H109	H	1.539183	-0.729897	0.368263
H110	H	1.487784	-0.712821	0.481714
