data_functionalizedCrystal
_audit_creation_method	'MofGen! by Chris Wilmer'
_symmetry_space_group_name_H-M	'P1'
_symmetry_Int_Tables_number	1
_symmetry_cell_setting	triclinic
loop_
_symmetry_equiv_pos_as_xyz
  x,y,z
_cell_length_a	14.446369
_cell_length_b	14.395555
_cell_length_c	14.446369
_cell_angle_alpha	90.003244
_cell_angle_beta	60.003968
_cell_angle_gamma	59.997182
loop_
_atom_site_label
_atom_site_type_symbol
_atom_site_fract_x
_atom_site_fract_y
_atom_site_fract_z
Zr1	Zr	1.013192	0.894870	-0.121414
O2	O	1.206309	0.746532	-0.269221
O3	O	0.820074	0.940350	-0.076105
O4	O	1.013182	0.940342	-0.269213
O5	O	1.013210	0.746540	0.076216
O6	O	1.013175	1.093216	-0.269205
O7	O	1.013201	0.746540	-0.076113
O8	O	0.667740	1.093230	0.076230
O9	O	1.358645	0.746525	-0.269219
O10	O	0.899501	1.073828	-0.056773
O11	O	0.899513	0.959739	0.056902
O12	O	1.126873	0.959730	-0.170458
O13	O	1.126884	0.845641	-0.056783
Zr14	Zr	1.013194	1.138687	0.121546
Zr15	Zr	1.013181	1.138687	-0.121401
Zr16	Zr	1.013205	0.894870	0.121533
Zr17	Zr	1.256149	0.894860	-0.121411
Zr18	Zr	0.770237	1.138697	0.121543
O19	O	1.206313	1.093207	0.076236
O20	O	1.206294	1.093208	-0.269203
O21	O	1.206328	0.746531	0.076218
O22	O	0.820077	1.287025	0.269352
O23	O	0.820058	1.287026	-0.076087
O24	O	0.820093	0.940349	0.269334
O25	O	1.013177	1.287017	-0.076084
O26	O	1.013205	1.093215	0.269344
O27	O	1.013211	0.940341	0.269336
O28	O	1.013185	1.287017	0.076244
O29	O	1.358636	0.940327	-0.269209
O30	O	0.667751	1.093230	0.269340
O31	O	0.667742	1.287032	0.269351
O32	O	0.667731	1.287032	0.076240
O33	O	1.358655	0.746525	-0.076109
O34	O	1.358647	0.940327	-0.076099
O35	O	0.899514	1.073827	0.170589
O36	O	0.899503	1.187916	0.056914
O37	O	1.126874	1.073818	-0.056771
O38	O	1.126885	0.959729	0.056905
C39	C	0.709291	1.016792	0.000062
C40	C	0.606149	1.016796	0.000061
C41	C	0.459826	1.088385	-0.071984
C42	C	0.566751	1.088790	-0.071677
C43	C	0.479296	1.069286	0.123588
C44	C	0.371917	1.069808	0.123198
C45	C	0.546891	0.892617	-0.050407
C46	C	0.655364	0.892816	-0.052912
C47	C	1.013207	0.711801	0.000050
C48	C	1.013212	0.608295	0.000044
C49	C	1.137184	0.485495	-0.061932
C50	C	1.075206	0.454662	-0.106849
C51	C	1.075185	0.454704	0.044952
C52	C	0.951233	0.578825	-0.044935
C53	C	0.951229	0.578864	0.106925
C54	C	0.889160	0.548105	0.062035
C55	C	1.317096	1.016765	0.000069
C56	C	1.420238	1.016761	0.000070
C57	C	1.013177	1.016779	-0.303824
C58	C	1.013171	1.016779	-0.406961
C59	C	1.013180	1.321756	0.000082
C60	C	1.013175	1.425262	0.000087
C61	C	0.869783	1.089099	-0.481941
C62	C	0.869686	1.088786	-0.374613
C63	C	1.084404	0.892811	-0.481527
C64	C	1.083494	0.893207	-0.588385
C65	C	1.086439	1.067426	-0.589950
C66	C	1.083737	1.069935	-0.481278
C67	C	1.013210	1.016778	0.303955
C68	C	1.013216	1.016778	0.407092
C69	C	0.709277	1.321769	0.000078
C70	C	0.606131	1.425280	0.000083
C71	C	0.709307	1.016791	0.303952
C72	C	0.606171	1.016796	0.407088
C73	C	0.709294	1.321769	0.303968
C74	C	0.606153	1.425279	0.407109
C75	C	1.317093	0.711788	-0.303836
C76	C	1.420234	0.608278	-0.406978
C77	C	1.317110	0.711788	0.000053
C78	C	1.420256	0.608277	0.000049
C79	C	1.317079	1.016766	-0.303820
C80	C	1.420215	1.016761	-0.406956
C81	C	0.459812	1.644425	0.071417
C82	C	0.566739	1.536810	0.071823
C83	C	0.479275	1.428626	0.052377
C84	C	0.371893	1.536779	0.052895
C85	C	0.546862	1.535394	-0.123653
C86	C	0.655339	1.429046	-0.123453
C87	C	0.459861	0.944499	0.482065
C88	C	0.566781	0.944800	0.374737
C89	C	0.479313	1.140769	0.481646
C90	C	0.371939	1.140385	0.588504
C91	C	0.546919	0.966159	0.590083
C92	C	0.655388	0.963638	0.481412
C93	C	0.459820	1.500536	0.625469
C94	C	0.566762	1.392819	0.518238
C95	C	0.479301	1.500091	0.410423
C96	C	0.371904	1.607337	0.518190
C97	C	0.546848	1.608949	0.516853
C98	C	0.655340	1.499885	0.410886
H99	H	0.341966	1.021010	0.179802
H100	H	0.440736	1.159773	0.164282
Cl101	Cl	0.704734	0.803854	0.290938
Cl102	Cl	1.015570	1.206239	-0.596297
Cl103	Cl	1.249573	0.986487	-0.710707
H104	H	0.586430	1.585586	-0.167340
H105	H	0.522106	0.839002	0.001825
Cl106	Cl	0.870424	0.661187	-0.103739
H107	H	0.898882	0.632381	0.197276
H108	H	0.586495	0.876250	0.594195
H109	H	0.529311	0.979938	0.320953
H110	H	0.501548	1.019631	0.179603
Cl111	Cl	0.607986	0.824922	-0.188725
H112	H	0.745852	0.853604	-0.143917
H113	H	0.687461	1.525500	0.331736
H114	H	0.656087	1.538426	0.036750
H115	H	0.440721	1.426487	0.142540
Cl116	Cl	1.299030	0.446214	-0.142969
Cl117	Cl	0.704706	1.308733	0.520745
H118	H	0.440762	1.448290	0.408273
Cl119	Cl	0.231818	1.202993	0.588084
Cl120	Cl	0.325675	1.228106	0.709830
Cl121	Cl	0.508907	1.540615	0.212708
H122	H	0.784244	0.573767	0.114453
Cl123	Cl	1.156120	0.372093	0.103565
Cl124	Cl	0.783384	1.229727	-0.290800
H125	H	0.687495	0.834962	-0.005885
H126	H	1.127598	0.401142	-0.197219
Cl127	Cl	0.782850	1.230405	-0.478325
H128	H	0.501545	1.527425	0.332164
Cl129	Cl	0.508589	1.492869	-0.206142
H130	H	1.031787	1.161270	-0.429856
H131	H	0.281141	1.587308	0.143920
H132	H	0.341938	1.686199	0.491541
H133	H	0.813771	1.054291	-0.480910
H134	H	0.813439	1.053659	-0.320829
H135	H	0.281161	1.161161	0.163608
H136	H	0.341938	1.510033	0.004266
Cl137	Cl	0.704700	1.034435	-0.212114
H138	H	0.586406	1.613092	0.566882
H139	H	1.032877	0.852659	-0.588119
H140	H	1.188728	0.836390	-0.666967
H141	H	1.034933	0.851976	-0.429927
H142	H	0.745799	1.448302	0.411452
Cl143	Cl	0.517290	1.496930	0.708797
H144	H	1.188415	1.022735	-0.506795
Cl145	Cl	0.321384	1.729607	0.211454
Cl146	Cl	0.795055	1.429830	-0.183778
H147	H	1.189904	0.836586	-0.508759
H148	H	0.687465	1.349607	-0.181103
H149	H	0.497049	1.698570	0.036517
H150	H	0.501522	1.350081	0.002898
H151	H	0.497104	0.852978	0.479725
H152	H	0.370193	0.979311	0.481030
H153	H	0.501559	1.196987	0.508880
H154	H	0.529283	1.180369	-0.036665
Cl155	Cl	0.508953	1.309458	0.522001
Cl156	Cl	0.419769	1.203822	0.401977
Cl157	Cl	0.795078	0.822612	0.402037
Cl158	Cl	0.705000	1.036497	0.520816
Cl159	Cl	0.508645	1.047082	0.710852
H160	H	0.281158	1.607058	0.568519
Cl161	Cl	0.508562	1.730139	0.474484
Cl162	Cl	0.517316	1.034308	-0.212786
Cl163	Cl	0.321389	1.228923	-0.018435
H164	H	0.370162	1.499492	0.680437
