data_functionalizedCrystal
_audit_creation_method	'MofGen! by Chris Wilmer'
_symmetry_space_group_name_H-M	'P1'
_symmetry_Int_Tables_number	1
_symmetry_cell_setting	triclinic
loop_
_symmetry_equiv_pos_as_xyz
  x,y,z
_cell_length_a	17.038272
_cell_length_b	17.019294
_cell_length_c	14.472310
_cell_angle_alpha	86.119952
_cell_angle_beta	89.992377
_cell_angle_gamma	87.244363
loop_
_atom_site_label
_atom_site_type_symbol
_atom_site_fract_x
_atom_site_fract_y
_atom_site_fract_z
O1	O	1.037232	0.171281	-0.090352
O2	O	1.537232	0.671281	0.409648
O3	O	0.809604	0.168561	-0.090163
O4	O	1.309604	0.668561	0.409837
O5	O	0.929767	0.055515	-0.081149
O6	O	1.429767	0.555515	0.418851
O7	O	0.917069	0.284327	-0.099366
O8	O	1.417069	0.784327	0.400634
O9	O	0.929736	0.055520	0.072533
O10	O	1.429736	0.555520	0.572533
O11	O	0.809573	0.168566	0.063519
O12	O	1.309573	0.668566	0.563519
O13	O	1.037202	0.171286	0.063330
O14	O	1.537202	0.671286	0.563330
Cu15	Cu	0.923385	0.169927	0.077457
Cu16	Cu	1.423385	0.669927	0.577457
Cu17	Cu	0.923421	0.169921	-0.104290
Cu18	Cu	1.423421	0.669921	0.395710
O19	O	0.917039	0.284332	0.054316
O20	O	1.417039	0.784332	0.554316
C21	C	0.780462	0.166090	-0.013129
C22	C	1.280462	0.666090	0.486871
C23	C	0.693676	0.158710	-0.012552
C24	C	1.193676	0.658710	0.487448
C25	C	0.643504	0.226470	-0.017946
C26	C	1.143504	0.726470	0.482054
C27	C	0.561960	0.219531	-0.017380
C28	C	1.061960	0.719531	0.482620
C29	C	0.530588	0.144831	-0.011428
C30	C	1.030588	0.644831	0.488572
C31	C	0.580766	0.077066	-0.006031
C32	C	1.080766	0.577066	0.493969
C33	C	0.662309	0.084006	-0.006589
C34	C	1.162309	0.584006	0.493411
C35	C	0.284851	0.120313	-0.009451
C36	C	0.784851	0.620313	0.490549
C37	C	0.203301	0.113378	-0.008896
C38	C	0.703301	0.613378	0.491104
C39	C	0.184501	0.255843	-0.020244
C40	C	0.684501	0.755843	0.479756
C41	C	0.266046	0.262777	-0.020807
C42	C	0.766046	0.762777	0.479193
C43	C	0.316217	0.195012	-0.015405
C44	C	0.816217	0.695012	0.484595
C45	C	0.447236	0.137736	-0.010853
C46	C	0.947236	0.637736	0.489147
C47	C	0.399567	0.202107	-0.015974
C48	C	0.899567	0.702107	0.484026
C49	C	0.929270	0.026096	-0.001968
C50	C	1.429270	0.526096	0.498032
C51	C	0.927824	-0.061571	0.005005
C52	C	1.427824	0.438429	0.505005
C53	C	0.927163	-0.102755	-0.075490
C54	C	1.427163	0.397245	0.424510
C55	C	0.925800	-0.185127	-0.068936
C56	C	1.425800	0.314873	0.431064
C57	C	0.925103	-0.226314	0.018115
C58	C	1.425103	0.273686	0.518115
C59	C	0.925761	-0.185124	0.098617
C60	C	1.425761	0.314876	0.598617
C61	C	0.927119	-0.102753	0.092061
C62	C	1.427119	0.397247	0.592061
C63	C	0.920998	-0.475021	0.042100
C64	C	1.420998	0.024979	0.542100
C65	C	0.919642	-0.557398	0.048649
C66	C	1.419642	-0.057398	0.548649
C67	C	0.919680	-0.557395	-0.118904
C68	C	1.419680	-0.057395	0.381096
C69	C	0.921042	-0.475023	-0.125452
C70	C	1.421042	0.024977	0.374548
C71	C	0.921696	-0.433840	-0.044950
C72	C	1.421696	0.066160	0.455050
C73	C	0.923712	-0.310511	0.024817
C74	C	1.423712	0.189489	0.524817
C75	C	0.923082	-0.349643	-0.051653
C76	C	1.423082	0.150357	0.448347
C77	C	1.066343	0.173757	-0.013706
C78	C	1.566343	0.673757	0.486294
C79	C	1.153130	0.181138	-0.014289
C80	C	1.653130	0.681138	0.485711
C81	C	0.917536	0.313751	-0.024867
C82	C	1.417536	0.813751	0.475133
C83	C	0.918982	0.401418	-0.031846
C84	C	1.418982	0.901418	0.468154
N85	N	0.923365	0.169931	0.205287
N86	N	1.423365	0.669931	0.705287
N87	N	0.923447	0.169911	-0.232120
N88	N	1.423447	0.669911	0.267880
C89	C	0.923420	0.169918	0.579380
C90	C	1.423420	0.669918	1.079380
C91	C	0.858908	0.230175	0.535409
C92	C	1.358908	0.730175	1.035409
C93	C	0.859056	0.230420	0.428301
C94	C	1.359056	0.730420	0.928301
C95	C	0.923392	0.169924	0.393788
C96	C	1.423392	0.669924	0.893788
C97	C	1.004945	0.193374	0.430768
C98	C	1.504945	0.693374	0.930768
C99	C	1.004582	0.193809	0.537855
C100	C	1.504582	0.693809	1.037855
C101	C	0.907107	0.086068	0.546582
C102	C	1.407107	0.586068	1.046582
C103	C	0.905236	0.086494	0.439420
C104	C	1.405236	0.586494	0.939420
C105	C	0.923381	0.169926	0.288900
C106	C	1.423381	0.669926	0.788900
C107	C	0.923436	0.169917	0.684268
C108	C	1.423436	0.669917	1.184268
H109	H	0.927735	-0.069227	-0.146377
H110	H	1.427735	0.430773	0.353623
C111	C	0.434079	0.284275	-0.022521
C112	C	0.934079	0.784275	0.477479
N113	N	0.460080	0.346164	-0.027458
N114	N	0.960080	0.846164	0.472542
H115	H	0.669040	0.287298	-0.022793
H116	H	1.169040	0.787298	0.477207
H117	H	0.923644	-0.316105	-0.122530
H118	H	1.423644	0.183895	0.377470
C119	C	0.824187	0.062625	0.407027
C120	C	1.324187	0.562625	0.907027
N121	N	0.763141	0.044649	0.382624
N122	N	1.263141	0.544649	0.882624
H123	H	0.421684	0.076915	-0.005980
H124	H	0.921684	0.576915	0.494020
H125	H	0.925266	-0.218656	-0.134484
H126	H	1.425266	0.281344	0.365516
C127	C	0.922945	-0.355825	0.120571
C128	C	1.422945	0.144175	0.620571
N129	N	0.922364	-0.389958	0.192693
N130	N	1.422364	0.110042	0.692693
C131	C	1.024848	0.275320	0.388004
C132	C	1.524848	0.775320	0.888004
N133	N	1.039833	0.337045	0.355799
N134	N	1.539833	0.837045	0.855799
H135	H	0.521113	0.274708	-0.021774
H136	H	1.021113	0.774708	0.478226
H137	H	0.703158	0.028828	-0.002197
H138	H	1.203158	0.528828	0.497803
C139	C	0.300548	0.344953	-0.027341
C140	C	0.800548	0.844953	0.472659
N141	N	0.326535	0.406849	-0.032260
N142	N	0.826535	0.906849	0.467740
C143	C	0.921809	-0.429724	-0.221214
C144	C	1.421809	0.070276	0.278786
N145	N	0.922390	-0.395604	-0.293344
N146	N	1.422390	0.104396	0.206656
H147	H	0.919146	-0.590935	-0.184443
H148	H	1.419146	-0.090935	0.315557
C149	C	0.964612	0.022507	0.408371
C150	C	1.464612	0.522507	0.908371
N151	N	1.009346	-0.025685	0.384992
N152	N	1.509346	0.474315	0.884992
H153	H	0.848935	0.064878	0.575330
H154	H	1.348935	0.564878	1.075330
C155	C	0.129307	0.330380	-0.026174
C156	C	0.629307	0.830380	0.473826
N157	N	0.087735	0.386524	-0.030636
N158	N	0.587735	0.886524	0.469364
C159	C	0.918872	-0.602701	0.144416
C160	C	1.418872	-0.102701	0.644416
N161	N	0.918294	-0.636824	0.216544
N162	N	1.418294	-0.136824	0.716544
H163	H	0.177762	0.052545	-0.004049
H164	H	0.677762	0.552545	0.495951
H165	H	0.925189	-0.218664	0.169495
H166	H	1.425189	0.281336	0.669495
H167	H	0.921546	-0.441500	0.107650
H168	H	1.421546	0.058500	0.607650
H169	H	0.798089	0.215558	0.562353
H170	H	1.298089	0.715558	1.062353
C171	C	0.970660	0.025401	0.585640
C172	C	1.470660	0.525401	1.085640
N173	N	1.018530	-0.020288	0.615065
N174	N	1.518530	0.479712	1.115065
C175	C	0.777153	0.210468	0.394407
C176	C	1.277153	0.710468	0.894407
N177	N	0.715459	0.195445	0.368882
N178	N	1.215459	0.695445	0.868882
C179	C	0.340028	0.045768	-0.003515
C180	C	0.840028	0.545768	0.496485
N181	N	0.381591	-0.010383	0.000956
N182	N	0.881591	0.489617	0.500956
H183	H	0.927646	-0.069221	0.157609
H184	H	1.427646	0.430779	0.657609
H185	H	0.555217	0.016243	-0.001171
H186	H	1.055217	0.516243	0.498829
C187	C	0.872772	0.313603	0.565121
C188	C	1.372772	0.813603	1.065121
N189	N	0.883216	0.376441	0.587501
N190	N	1.383216	0.876441	1.087501
C191	C	0.873122	0.314327	0.386989
C192	C	1.373122	0.814327	0.886989
N193	N	0.883720	0.377528	0.355873
N194	N	1.383720	0.877528	0.855873
H195	H	1.018971	0.255127	0.557951
H196	H	1.518971	0.755127	1.057951
C197	C	1.071393	0.137179	0.577372
C198	C	1.571393	0.637179	1.077372
N199	N	1.121723	0.094537	0.607131
N200	N	1.621723	0.594537	1.107131
C201	C	1.071345	0.135973	0.400918
C202	C	1.571345	0.635973	0.900918
N203	N	1.121357	0.092737	0.378432
N204	N	1.621357	0.592737	0.878432
