data_functionalizedCrystal
_audit_creation_method	'MofGen! by Chris Wilmer'
_symmetry_space_group_name_H-M	'P1'
_symmetry_Int_Tables_number	1
_symmetry_cell_setting	triclinic
loop_
_symmetry_equiv_pos_as_xyz
  x,y,z
_cell_length_a	19.121321
_cell_length_b	19.120786
_cell_length_c	19.121595
_cell_angle_alpha	85.200660
_cell_angle_beta	89.881083
_cell_angle_gamma	90.133760
loop_
_atom_site_label
_atom_site_type_symbol
_atom_site_fract_x
_atom_site_fract_y
_atom_site_fract_z
Zn1	Zn	1.074811	-0.311010	-0.337957
Zn2	Zn	1.064301	-0.433235	-0.215735
Zn3	Zn	0.952601	-0.310610	-0.225754
Zn4	Zn	0.952562	-0.423208	-0.338346
O5	O	1.011069	-0.369516	-0.279448
O6	O	1.171325	-0.331587	-0.317388
O7	O	1.045101	-0.420997	-0.118794
O8	O	0.973228	-0.212389	-0.244668
O9	O	1.163603	-0.421385	-0.227593
O10	O	1.063015	-0.212683	-0.327103
O11	O	0.963036	-0.330905	-0.126155
O12	O	0.854688	-0.321183	-0.245045
O13	O	0.973161	-0.404296	-0.436564
O14	O	0.854659	-0.403908	-0.327766
O15	O	1.062977	-0.321864	-0.436279
O16	O	1.045063	-0.530179	-0.227970
O17	O	0.962970	-0.522812	-0.318051
C18	C	0.829287	-0.361414	-0.287535
C19	C	0.751520	-0.357965	-0.291011
C20	C	0.311891	-0.336057	-0.313053
C21	C	0.384960	-0.339311	-0.309782
C22	C	0.417466	-0.387620	-0.261326
C23	C	0.376897	-0.432683	-0.216141
C24	C	0.303829	-0.429432	-0.219415
C25	C	0.637883	-0.399776	-0.249101
C26	C	0.710957	-0.403023	-0.245828
C27	C	0.719015	-0.309651	-0.339471
C28	C	0.645945	-0.306401	-0.342738
C29	C	0.605383	-0.351467	-0.297556
C30	C	0.492154	-0.390947	-0.257980
C31	C	0.530695	-0.348143	-0.300905
C32	C	1.002891	-0.551977	-0.271980
C33	C	0.999458	-0.630037	-0.268805
C34	C	1.044561	-0.666799	-0.310271
C35	C	1.041332	-0.740144	-0.307290
C36	C	0.993003	-0.776726	-0.262839
C37	C	0.947896	-0.739958	-0.221371
C38	C	0.951122	-0.666614	-0.224356
C39	C	0.980923	-0.998173	-0.251679
C40	C	0.977702	-1.071522	-0.248695
C41	C	1.071138	-1.071702	-0.334616
C42	C	1.074362	-0.998357	-0.337594
C43	C	1.029252	-0.961596	-0.296129
C44	C	0.989703	-0.851696	-0.259789
C45	C	1.032549	-0.886626	-0.299183
C46	C	1.193561	-0.377649	-0.271330
C47	C	1.271328	-0.381115	-0.267870
C48	C	1.019237	-0.362006	-0.462614
C49	C	1.022718	-0.358806	-0.540669
C50	C	1.019298	-0.186342	-0.286960
C51	C	1.022805	-0.108284	-0.290161
C52	C	0.977592	-0.400217	-0.577489
C53	C	0.980869	-0.397210	-0.650829
C54	C	1.029268	-0.352788	-0.687348
C55	C	1.074399	-0.311376	-0.650523
C56	C	1.071125	-0.314387	-0.577184
C57	C	1.041495	-0.341554	-0.908778
C58	C	1.044764	-0.338545	-0.982122
C59	C	0.951234	-0.424380	-0.982423
C60	C	0.947962	-0.427384	-0.909083
C61	C	0.993095	-0.385974	-0.872264
C62	C	1.032617	-0.349712	-0.762314
C63	C	0.989749	-0.389054	-0.797299
C64	C	1.002975	-0.376947	-0.096995
C65	C	0.999638	-0.379955	-0.018942
H66	H	0.518629	-0.430278	-0.218524
N67	N	0.262393	-0.475445	-0.173250
N68	N	0.220724	-0.450682	-0.131385
H69	H	0.191460	-0.483181	-0.098780
H70	H	1.107872	-0.280665	-0.547206
N71	N	0.905042	-0.629059	-0.182010
N72	N	0.840321	-0.634244	-0.189156
H73	H	0.807772	-0.607721	-0.159251
N74	N	0.934760	-0.439505	-0.688431
N75	N	0.893107	-0.411137	-0.732350
H76	H	0.860539	-0.441012	-0.758903
N77	N	1.081915	-0.849272	-0.344595
N78	N	1.079760	-0.854575	-0.409267
H79	H	1.114627	-0.828188	-0.441338
N80	N	0.497502	-0.298805	-0.350414
N81	N	0.508358	-0.301278	-0.414644
H82	H	0.484909	-0.266434	-0.449610
N83	N	0.612732	-0.257067	-0.392240
N84	N	0.547493	-0.254173	-0.395158
H85	H	0.524035	-0.219329	-0.430119
N86	N	0.596443	-0.445798	-0.202954
N87	N	0.554766	-0.487765	-0.227575
H88	H	0.525493	-0.520267	-0.194982
N89	N	0.278687	-0.286723	-0.362561
N90	N	0.238813	-0.307865	-0.408078
H91	H	0.215363	-0.273025	-0.443048
N92	N	0.928350	-1.108916	-0.203286
N93	N	0.949229	-1.152767	-0.155805
H94	H	0.914381	-1.179184	-0.123735
H95	H	1.084174	-0.302365	-1.011854
N96	N	1.093938	-0.629446	-0.355676
N97	N	1.134204	-0.662282	-0.392696
H98	H	1.169077	-0.635903	-0.424765
H99	H	0.417984	-0.302623	-0.346577
N100	N	1.087604	-0.299255	-0.871185
N101	N	1.130814	-0.259598	-0.903802
H102	H	1.163382	-0.229723	-0.877250
N103	N	0.898517	-0.472762	-0.871793
N104	N	0.858229	-0.509733	-0.904677
H105	H	0.823305	-0.541780	-0.878342
H106	H	1.078065	-0.770073	-0.341051
N107	N	1.123736	-0.961003	-0.383001
N108	N	1.164004	-0.993836	-0.420022
H109	H	1.198877	-0.967455	-0.452090
N110	N	0.934832	-0.960627	-0.209341
N111	N	0.893120	-0.916749	-0.237675
H112	H	0.860559	-0.890232	-0.207776
N113	N	0.760458	-0.263626	-0.385614
N114	N	0.825697	-0.266532	-0.382686
H115	H	0.854968	-0.234025	-0.415278
N116	N	1.123840	-0.266010	-0.687834
N117	N	1.126757	-0.263327	-0.753315
H118	H	1.161676	-0.231286	-0.779666
H119	H	1.072023	-0.313543	-0.792056
N120	N	0.744150	-0.452370	-0.196318
N121	N	0.707928	-0.492599	-0.155977
H122	H	0.731370	-0.527447	-0.121009
N123	N	0.410109	-0.482032	-0.166653
N124	N	0.475349	-0.484930	-0.163735
H125	H	0.498805	-0.519783	-0.128783
H126	H	1.107863	-1.101641	-0.368375
N127	N	0.940301	-0.434425	-0.760011
N128	N	0.900006	-0.471394	-0.792890
H129	H	0.865080	-0.503435	-0.766551
H130	H	0.950356	-0.881490	-0.223594
N131	N	0.905139	-0.466671	-1.020045
N132	N	0.908065	-0.463978	-1.085525
H133	H	0.875510	-0.493849	-1.112096
H134	H	0.938172	-0.436381	-0.547761
H135	H	0.908543	-0.769749	-0.185181
