data_functionalizedCrystal
_audit_creation_method	'MofGen! by Chris Wilmer'
_symmetry_space_group_name_H-M	'P1'
_symmetry_Int_Tables_number	1
_symmetry_cell_setting	triclinic
loop_
_symmetry_equiv_pos_as_xyz
  x,y,z
_cell_length_a	12.759394
_cell_length_b	14.908618
_cell_length_c	14.908854
_cell_angle_alpha	90.206001
_cell_angle_beta	86.673619
_cell_angle_gamma	93.290508
loop_
_atom_site_label
_atom_site_type_symbol
_atom_site_fract_x
_atom_site_fract_y
_atom_site_fract_z
Zn1	Zn	-0.469343	-1.345352	-0.587641
Zn2	Zn	-0.655733	-1.353943	-0.437281
Zn3	Zn	-0.470531	-1.203662	-0.428631
Zn4	Zn	-0.635440	-1.194974	-0.578932
O5	O	-0.557762	-1.274483	-0.508121
O6	O	-0.502064	-1.472318	-0.574960
O7	O	-0.640155	-1.341239	-0.310306
O8	O	-0.323353	-1.222499	-0.449749
O9	O	-0.639004	-1.478630	-0.464492
O10	O	-0.322480	-1.326598	-0.566572
O11	O	-0.504088	-1.230829	-0.303951
O12	O	-0.484411	-1.076683	-0.441304
O13	O	-0.604417	-1.207691	-0.705914
O14	O	-0.605569	-1.070300	-0.551729
O15	O	-0.482386	-1.318173	-0.712313
O16	O	-0.800061	-1.332814	-0.456047
O17	O	-0.785152	-1.216021	-0.560117
C18	C	-0.542917	-1.040866	-0.494633
C19	C	-0.536591	-0.940922	-0.488884
C20	C	-0.651084	-0.746528	-0.592913
C21	C	-0.645142	-0.652622	-0.587514
C22	C	-0.518761	-0.659202	-0.472694
C23	C	-0.524703	-0.753108	-0.478093
C24	C	-0.590867	-0.796768	-0.538203
C25	C	-0.596814	-0.890676	-0.543596
C26	C	-0.470428	-0.897254	-0.428781
C27	C	-0.464487	-0.803348	-0.423383
C28	C	-0.830727	-1.274430	-0.508096
C29	C	-0.947506	-1.274488	-0.508120
C30	C	-0.962977	-1.396187	-0.399843
C31	C	-1.025574	-1.457059	-0.345717
C32	C	-1.135297	-1.457110	-0.345744
C33	C	-1.182425	-1.396285	-0.399906
C34	C	-1.119828	-1.335412	-0.454033
C35	C	-1.010103	-1.335366	-0.453997
C36	C	-1.104357	-1.213719	-0.562313
C37	C	-0.994634	-1.213662	-0.562282
C38	C	-1.151485	-1.152894	-0.616475
C39	C	-1.088888	-1.092016	-0.670598
C40	C	-0.979159	-1.091967	-0.670568
C41	C	-0.932037	-1.152790	-0.616409
C42	C	-0.283730	-1.274559	-0.508167
C43	C	-0.166954	-1.274592	-0.508187
C44	C	-0.541005	-1.261004	-0.742651
C45	C	-0.533865	-1.255260	-0.842594
C46	C	-0.572657	-0.509012	-0.521656
C47	C	-0.578984	-0.608956	-0.527406
C48	C	-0.662132	-1.359458	-1.037018
C49	C	-0.655427	-1.354065	-1.130924
C50	C	-0.513744	-1.239084	-1.124312
C51	C	-0.520449	-1.244478	-1.030407
C52	C	-0.594647	-1.304666	-0.986763
C53	C	-0.601357	-1.310055	-0.892856
C54	C	-0.459670	-1.195080	-0.886247
C55	C	-0.452964	-1.189686	-0.980152
C56	C	-0.574380	-1.287961	-0.274506
C57	C	-0.581236	-1.293879	-0.174574
H58	H	-0.873636	-1.396140	-0.399803
Br59	Br	-0.702057	-1.391733	-0.833625
H60	H	-0.694174	-0.611720	-0.632067
H61	H	-1.127269	-1.042501	-0.714697
H62	H	-0.421398	-0.938170	-0.384230
Br63	Br	-1.331338	-1.395959	-0.399497
Br64	Br	-0.961612	-1.539610	-0.272222
H65	H	-0.410615	-0.767787	-0.374445
Br66	Br	-1.300398	-1.152566	-0.616068
H67	H	-0.928197	-1.042400	-0.714648
H68	H	-0.404719	-1.150463	-0.845319
Br69	Br	-0.747013	-1.428433	-1.199125
Br70	Br	-0.413042	-1.157419	-1.183559
H71	H	-0.392552	-1.140685	-1.015700
H72	H	-0.842696	-1.152750	-0.616373
H73	H	-0.722543	-1.408470	-1.001483
Br74	Br	-0.686612	-0.949928	-0.625169
Br75	Br	-0.740890	-0.805786	-0.674476
H76	H	-0.464887	-0.623638	-0.423761
H77	H	-1.186264	-1.506682	-0.301675
