data_functionalizedCrystal
_audit_creation_method	'MofGen! by Chris Wilmer'
_symmetry_space_group_name_H-M	'P1'
_symmetry_Int_Tables_number	1
_symmetry_cell_setting	triclinic
loop_
_symmetry_equiv_pos_as_xyz
  x,y,z
_cell_length_a	10.540539
_cell_length_b	15.995350
_cell_length_c	9.016244
_cell_angle_alpha	89.999993
_cell_angle_beta	89.994699
_cell_angle_gamma	84.008933
loop_
_atom_site_label
_atom_site_type_symbol
_atom_site_fract_x
_atom_site_fract_y
_atom_site_fract_z
O1	O	1.684271	0.117994	-0.123262
O2	O	1.314706	0.129112	-0.123280
O3	O	1.509591	0.001726	-0.123269
O4	O	1.489386	0.245380	-0.123273
O5	O	1.509562	0.001729	0.123411
O6	O	1.314677	0.129115	0.123401
O7	O	1.684243	0.117997	0.123418
Cu8	Cu	1.499457	0.123556	0.145934
Cu9	Cu	1.499491	0.123553	-0.145795
O10	O	1.489358	0.245383	0.123408
C11	C	1.267400	0.128280	0.000058
C12	C	1.126486	0.125785	0.000051
C13	C	0.944373	0.030202	0.000629
C14	C	1.090956	0.032730	0.000057
C15	C	1.064214	0.170565	-0.140811
C16	C	0.917713	0.167389	-0.140913
C17	C	0.917166	0.169286	0.139609
C18	C	1.064137	0.170143	0.141455
C19	C	1.508741	-0.029472	0.000068
C20	C	1.506237	-0.122438	0.000060
C21	C	1.497244	-0.460239	0.000064
C22	C	1.358450	-0.413635	-0.000496
C23	C	1.360955	-0.316930	0.000061
C24	C	1.501705	-0.292652	0.000061
C25	C	1.570146	-0.333318	0.140929
C26	C	1.566660	-0.429975	0.141046
C27	C	1.569559	-0.430319	-0.139476
C28	C	1.569527	-0.333374	-0.141337
C29	C	1.504233	-0.197939	0.000064
C30	C	1.494719	-0.554952	0.000071
C31	C	1.731549	0.118829	0.000077
C32	C	1.872462	0.121324	0.000074
C33	C	1.490207	0.276581	0.000067
C34	C	1.492711	0.369547	0.000066
N35	N	1.499443	0.123558	0.351120
N36	N	1.499516	0.123544	-0.350981
C37	C	1.394878	0.191473	0.586147
C38	C	1.395104	0.191727	0.414256
C39	C	1.631893	0.143433	0.413464
C40	C	1.631320	0.143914	0.585409
C41	C	1.472879	0.035546	0.585663
C42	C	1.469826	0.036116	0.413709
H43	H	1.107242	0.139456	-0.245643
H44	H	1.105536	0.137429	0.245665
H45	H	1.085628	0.238902	-0.146053
H46	H	1.378402	0.016630	0.629106
H47	H	1.654792	0.208115	0.625498
H48	H	0.916281	-0.006559	0.101649
H49	H	1.711609	0.095309	0.372564
H50	H	1.296652	0.179768	0.372107
H51	H	1.655918	0.206909	0.370387
H52	H	1.302987	-0.432500	-0.101514
H53	H	1.087429	0.237986	0.149959
H54	H	1.372395	0.021051	0.372962
H55	H	1.711615	0.096432	0.626996
H56	H	1.541081	-0.016861	0.370737
H57	H	1.296115	0.179697	0.627535
H58	H	1.411653	0.256390	0.629340
H59	H	1.522587	-0.305220	0.245757
H60	H	1.412106	0.257014	0.373109
H61	H	1.549185	-0.015013	0.626319
H62	H	1.524193	-0.451131	-0.246245
H63	H	1.303210	-0.433558	0.099956
H64	H	1.134043	-0.002504	0.101034
H65	H	1.516728	-0.448574	0.246346
H66	H	0.886022	0.139172	0.246381
H67	H	1.307154	-0.288831	-0.100919
H68	H	0.914680	-0.006406	-0.099828
H69	H	1.133201	-0.002755	-0.101093
H70	H	0.889970	0.134290	-0.246208
H71	H	1.306769	-0.289388	0.101207
H72	H	0.868825	0.234313	-0.147308
H73	H	0.869016	0.236498	0.140559
H74	H	1.668559	-0.461614	0.147438
H75	H	1.673551	-0.318574	0.146168
H76	H	1.519487	-0.306426	-0.245547
H77	H	1.672168	-0.317398	-0.149842
H78	H	1.671891	-0.461468	-0.140422
