data_functionalizedCrystal
_audit_creation_method	'MofGen! by Chris Wilmer'
_symmetry_space_group_name_H-M	'P1'
_symmetry_Int_Tables_number	1
_symmetry_cell_setting	triclinic
loop_
_symmetry_equiv_pos_as_xyz
  x,y,z
_cell_length_a	19.805407
_cell_length_b	12.645330
_cell_length_c	19.805399
_cell_angle_alpha	89.978279
_cell_angle_beta	89.980427
_cell_angle_gamma	90.017692
loop_
_atom_site_label
_atom_site_type_symbol
_atom_site_fract_x
_atom_site_fract_y
_atom_site_fract_z
Zn1	Zn	1.034777	-0.422064	-0.382747
Zn2	Zn	1.534777	0.077936	0.117253
Zn3	Zn	1.034709	-0.599342	-0.269571
Zn4	Zn	1.534709	-0.099342	0.230429
Zn5	Zn	0.921591	-0.422093	-0.269572
Zn6	Zn	1.421591	0.077907	0.230428
Zn7	Zn	0.921572	-0.599286	-0.382717
Zn8	Zn	1.421572	-0.099286	0.117283
O9	O	0.978162	-0.510696	-0.326152
O10	O	1.478162	-0.010696	0.173848
O11	O	1.129484	-0.445592	-0.367746
O12	O	1.629484	0.054408	0.132254
O13	O	1.019683	-0.575865	-0.174854
O14	O	1.519683	-0.075865	0.325146
O15	O	0.936642	-0.273742	-0.284598
O16	O	1.436642	0.226258	0.215402
O17	O	1.129434	-0.575837	-0.284596
O18	O	1.629434	-0.075837	0.215404
O19	O	1.019799	-0.273721	-0.367747
O20	O	1.519799	0.226279	0.132253
O21	O	0.936576	-0.445641	-0.174855
O22	O	1.436576	0.054359	0.325145
O23	O	0.826872	-0.445587	-0.284569
O24	O	1.326872	0.054413	0.215431
O25	O	0.936609	-0.575741	-0.477438
O26	O	1.436609	-0.075741	0.022562
O27	O	0.826858	-0.575769	-0.367696
O28	O	1.326858	-0.075769	0.132304
O29	O	1.019780	-0.445537	-0.477460
O30	O	1.519780	0.054463	0.022540
O31	O	1.019664	-0.747682	-0.284567
O32	O	1.519664	-0.247682	0.215433
O33	O	0.936543	-0.747641	-0.367695
O34	O	1.436543	-0.247641	0.132305
C35	C	0.802306	-0.510676	-0.326130
C36	C	1.302306	-0.010676	0.173870
C37	C	0.727074	-0.510693	-0.326137
C38	C	1.227074	-0.010693	0.173863
C39	C	0.691740	-0.578581	-0.369351
C40	C	1.191740	-0.078581	0.130649
C41	C	0.621052	-0.578583	-0.369361
C42	C	1.121052	-0.078583	0.130639
C43	C	0.585699	-0.510701	-0.326152
C44	C	1.085699	-0.010701	0.173848
C45	C	0.621037	-0.442805	-0.282935
C46	C	1.121037	0.057195	0.217065
C47	C	0.691725	-0.442799	-0.282930
C48	C	1.191725	0.057201	0.217070
C49	C	0.335964	-0.442829	-0.282958
C50	C	0.835964	0.057171	0.217042
C51	C	0.265272	-0.442843	-0.282965
C52	C	0.765272	0.057157	0.217035
C53	C	0.265292	-0.578613	-0.369388
C54	C	0.765292	-0.078613	0.130612
C55	C	0.335979	-0.578606	-0.369383
C56	C	0.835979	-0.078606	0.130617
C57	C	0.371311	-0.510707	-0.326169
C58	C	0.871311	-0.010707	0.173831
C59	C	0.447960	-0.510705	-0.326160
C60	C	0.947960	-0.010705	0.173840
C61	C	0.509051	-0.510708	-0.326157
C62	C	1.009051	-0.010708	0.173843
C63	C	0.978113	-0.786126	-0.326142
C64	C	1.478113	-0.286126	0.173858
C65	C	0.978154	-0.903956	-0.326161
C66	C	1.478154	-0.403956	0.173839
C67	C	0.926078	-1.071538	-0.378618
C68	C	1.426078	-0.571538	0.121382
C69	C	0.925811	-0.948979	-0.378450
C70	C	1.425811	-0.448979	0.121550
C71	C	0.958847	-0.948544	-0.254828
C72	C	1.458847	-0.448544	0.245172
C73	C	0.958530	-1.071142	-0.255147
C74	C	1.458530	-0.571142	0.244853
C75	C	1.049854	-1.071047	-0.344457
C76	C	1.549854	-0.571047	0.155543
C77	C	1.049415	-0.948440	-0.346017
C78	C	1.549415	-0.448440	0.153983
C79	C	1.154705	-0.510717	-0.326174
C80	C	1.654705	-0.010717	0.173826
C81	C	1.229937	-0.510726	-0.326184
C82	C	1.729937	-0.010726	0.173816
C83	C	0.978200	-0.510629	-0.502695
C84	C	1.478200	-0.010629	-0.002695
C85	C	0.978216	-0.510601	-0.577927
C86	C	1.478216	-0.010601	-0.077927
C87	C	0.978230	-0.234191	-0.326176
C88	C	1.478230	0.265809	0.173824
C89	C	0.978259	-0.116361	-0.326186
C90	C	1.478259	0.383639	0.173814
C91	C	1.021524	-0.442800	-0.613283
C92	C	1.521524	0.057200	-0.113283
C93	C	1.021531	-0.442770	-0.683972
C94	C	1.521531	0.057230	-0.183972
C95	C	0.978233	-0.510546	-0.719302
C96	C	1.478233	-0.010546	-0.219302
C97	C	0.934920	-0.578349	-0.683941
C98	C	1.434920	-0.078349	-0.183941
C99	C	0.934910	-0.578374	-0.613253
C100	C	1.434910	-0.078374	-0.113253
C101	C	0.934958	-0.578250	-0.969014
C102	C	1.434958	-0.078250	-0.469014
C103	C	0.934973	-0.578223	-1.039706
C104	C	1.434973	-0.078223	-0.539706
C105	C	1.021579	-0.442646	-1.039732
C106	C	1.521579	0.057354	-0.539732
C107	C	1.021570	-0.442671	-0.969045
C108	C	1.521570	0.057329	-0.469045
C109	C	0.978255	-0.510470	-0.933690
C110	C	1.478255	-0.010470	-0.433690
C111	C	0.978247	-0.510501	-0.857041
C112	C	1.478247	-0.010501	-0.357041
C113	C	0.978244	-0.510521	-0.795949
C114	C	1.478244	-0.010521	-0.295949
C115	C	0.978163	-0.510686	-0.150296
C116	C	1.478163	-0.010686	0.349704
C117	C	0.978278	-0.510416	-0.075064
C118	C	1.478278	-0.010416	0.424936
H119	H	0.720520	-0.633862	-0.404534
H120	H	1.220520	-0.133862	0.095466
H121	H	0.364760	-0.633886	-0.404566
H122	H	0.864760	-0.133886	0.095434
N123	N	0.582908	-0.369597	-0.236327
N124	N	1.082908	0.130403	0.263673
H125	H	0.616020	-0.326588	-0.208950
H126	H	1.116020	0.173412	0.291050
H127	H	0.553596	-0.320598	-0.263932
H128	H	1.053596	0.179402	0.236068
N129	N	0.227185	-0.651840	-0.416007
N130	N	0.727185	-0.151840	0.083993
H131	H	0.239470	-0.727559	-0.405407
H132	H	0.739470	-0.227559	0.094593
H133	H	0.177052	-0.641456	-0.409438
H134	H	0.677052	-0.141456	0.090562
N135	N	0.374077	-0.369614	-0.236349
N136	N	0.874077	0.130386	0.263651
H137	H	0.403422	-0.320542	-0.263909
H138	H	0.903422	0.179458	0.236091
H139	H	0.340918	-0.326682	-0.208981
H140	H	0.840918	0.173318	0.291019
N141	N	0.582941	-0.651820	-0.415960
N142	N	1.082941	-0.151820	0.084040
H143	H	0.616063	-0.694831	-0.443325
H144	H	1.116063	-0.194831	0.056675
H145	H	0.553597	-0.700815	-0.388346
H146	H	1.053597	-0.200815	0.111654
N147	N	1.068268	-0.369565	-0.930941
N148	N	1.568268	0.130435	-0.430941
H149	H	1.061690	-0.379870	-0.880796
H150	H	1.561690	0.120130	-0.380796
H151	H	1.116606	-0.386066	-0.943305
H152	H	1.616606	0.113934	-0.443305
H153	H	1.056846	-0.387437	-1.068527
H154	H	1.556846	0.112563	-0.568527
N155	N	0.856209	-1.112458	-0.362788
N156	N	1.356209	-0.612458	0.137212
H157	H	0.825088	-1.050952	-0.353350
H158	H	1.325088	-0.550952	0.146650
H159	H	0.838575	-1.153949	-0.402621
H160	H	1.338575	-0.653949	0.097379
N161	N	0.227141	-0.369623	-0.236358
N162	N	0.727141	0.130377	0.263642
H163	H	0.197827	-0.320565	-0.263921
H164	H	0.697827	0.179435	0.236079
H165	H	0.197836	-0.412726	-0.204957
H166	H	0.697836	0.087274	0.295043
N167	N	0.729842	-0.369585	-0.236318
N168	N	1.229842	0.130415	0.263682
H169	H	0.759187	-0.320514	-0.263878
H170	H	1.259187	0.179486	0.236122
H171	H	0.696681	-0.326653	-0.208952
H172	H	1.196681	0.173347	0.291048
H173	H	0.937890	-0.918829	-0.431342
H174	H	1.437890	-0.418829	0.068658
N175	N	0.888224	-0.651458	-0.722046
N176	N	1.388224	-0.151458	-0.222046
H177	H	0.860787	-0.694413	-0.688919
H178	H	1.360787	-0.194413	-0.188919
H179	H	0.856916	-0.608295	-0.751375
H180	H	1.356916	-0.108295	-0.251375
H181	H	0.906193	-1.099832	-0.239669
H182	H	1.406193	-0.599832	0.260331
H183	H	0.938046	-1.100955	-0.431684
H184	H	1.438046	-0.600955	0.068316
N185	N	1.101351	-1.109443	-0.293876
N186	N	1.601351	-0.609443	0.206124
H187	H	1.137478	-1.151319	-0.317960
H188	H	1.637478	-0.651319	0.182040
H189	H	1.122567	-1.046729	-0.270500
H190	H	1.622567	-0.546729	0.229500
N191	N	0.855509	-0.910237	-0.362408
N192	N	1.355509	-0.410237	0.137592
H193	H	0.822958	-0.937088	-0.397710
H194	H	1.322958	-0.437088	0.102290
H195	H	0.841482	-0.937309	-0.316516
H196	H	1.341482	-0.437309	0.183484
N197	N	0.888205	-0.651504	-0.575111
N198	N	1.388205	-0.151504	-0.075111
H199	H	0.856847	-0.608423	-0.545782
H200	H	1.356847	-0.108423	-0.045782
H201	H	0.860821	-0.694427	-0.608256
H202	H	1.360821	-0.194427	-0.108256
H203	H	0.994887	-1.100796	-0.214749
H204	H	1.494887	-0.600796	0.285251
H205	H	1.056785	-0.387612	-0.584522
H206	H	1.556785	0.112388	-0.084522
H207	H	1.056799	-0.387562	-0.712756
H208	H	1.556799	0.112438	-0.212756
H209	H	0.995649	-0.919382	-0.214695
H210	H	1.495649	-0.419382	0.285305
N211	N	0.890240	-0.908016	-0.233958
N212	N	1.390240	-0.408016	0.266042
H213	H	0.878266	-0.937149	-0.187997
H214	H	1.378266	-0.437149	0.312003
H215	H	0.891213	-0.828223	-0.231991
H216	H	1.391213	-0.328223	0.268009
H217	H	1.063974	-0.919294	-0.398514
H218	H	1.563974	-0.419294	0.101486
N219	N	1.073189	-1.111905	-0.412185
N220	N	1.573189	-0.611905	0.087815
H221	H	1.037582	-1.160210	-0.431711
H222	H	1.537582	-0.660210	0.068289
H223	H	1.080888	-1.050371	-0.443790
H224	H	1.580888	-0.550371	0.056210
H225	H	0.899712	-0.633416	-1.068470
H226	H	1.399712	-0.133416	-0.568470
N227	N	0.888220	-0.651338	-0.930886
N228	N	1.388220	-0.151338	-0.430886
H229	H	0.860789	-0.694259	-0.963996
H230	H	1.360789	-0.194259	-0.463996
H231	H	0.915730	-0.700425	-0.901543
H232	H	1.415730	-0.200425	-0.401543
H233	H	1.090340	-0.917787	-0.310610
H234	H	1.590340	-0.417787	0.189390
