data_functionalizedCrystal
_audit_creation_method	'MofGen! by Chris Wilmer'
_symmetry_space_group_name_H-M	'P1'
_symmetry_Int_Tables_number	1
_symmetry_cell_setting	triclinic
loop_
_symmetry_equiv_pos_as_xyz
  x,y,z
_cell_length_a	18.215407
_cell_length_b	21.295417
_cell_length_c	18.215399
_cell_angle_alpha	89.967650
_cell_angle_beta	90.017368
_cell_angle_gamma	89.966979
loop_
_atom_site_label
_atom_site_type_symbol
_atom_site_fract_x
_atom_site_fract_y
_atom_site_fract_z
Zn1	Zn	1.125017	0.250659	0.416045
Zn2	Zn	1.375017	0.500659	0.666045
Zn3	Zn	1.625017	0.750659	0.916045
Zn4	Zn	1.875017	1.000659	1.166045
Zn5	Zn	1.124903	0.355930	0.292969
Zn6	Zn	1.374903	0.605930	0.542969
Zn7	Zn	1.624903	0.855930	0.792969
Zn8	Zn	1.874903	1.105930	1.042969
Zn9	Zn	1.001950	0.250674	0.292998
Zn10	Zn	1.251950	0.500674	0.542998
Zn11	Zn	1.501950	0.750674	0.792998
Zn12	Zn	1.751950	1.000674	1.042998
Zn13	Zn	1.001893	0.355889	0.415999
Zn14	Zn	1.251893	0.605889	0.665999
Zn15	Zn	1.501893	0.855889	0.915999
Zn16	Zn	1.751893	1.105889	1.165999
O17	O	1.063441	0.303288	0.354503
O18	O	1.313441	0.553288	0.604503
O19	O	1.563441	0.803288	0.854503
O20	O	1.813441	1.053288	1.104503
O21	O	1.227986	0.264634	0.399726
O22	O	1.477986	0.514634	0.649726
O23	O	1.727986	0.764634	0.899726
O24	O	1.977986	1.014634	1.149726
O25	O	1.108569	0.341991	0.189989
O26	O	1.358569	0.591991	0.439989
O27	O	1.608569	0.841991	0.689989
O28	O	1.858569	1.091991	0.939989
O29	O	1.018347	0.162582	0.309351
O30	O	1.268347	0.412582	0.559351
O31	O	1.518347	0.662582	0.809351
O32	O	1.768347	0.912582	1.059351
O33	O	1.227902	0.341976	0.309303
O34	O	1.477902	0.591976	0.559303
O35	O	1.727902	0.841976	0.809303
O36	O	1.977902	1.091976	1.059303
O37	O	1.108764	0.162571	0.399753
O38	O	1.358764	0.412571	0.649753
O39	O	1.608764	0.662571	0.899753
O40	O	1.858764	0.912571	1.149753
O41	O	1.018236	0.264659	0.190010
O42	O	1.268236	0.514659	0.440010
O43	O	1.518236	0.764659	0.690010
O44	O	1.768236	1.014659	0.940010
O45	O	0.898958	0.264620	0.309307
O46	O	1.148958	0.514620	0.559307
O47	O	1.398958	0.764620	0.809307
O48	O	1.648958	1.014620	1.059307
O49	O	1.018249	0.341907	0.518990
O50	O	1.268249	0.591907	0.768990
O51	O	1.518249	0.841907	1.018990
O52	O	1.768249	1.091907	1.268990
O53	O	0.898916	0.341921	0.399676
O54	O	1.148916	0.591921	0.649676
O55	O	1.398916	0.841921	0.899676
O56	O	1.648916	1.091921	1.149676
O57	O	1.108709	0.264594	0.519023
O58	O	1.358709	0.514594	0.769023
O59	O	1.608709	0.764594	1.019023
O60	O	1.858709	1.014594	1.269023
O61	O	1.108513	0.444014	0.309258
O62	O	1.358513	0.694014	0.559258
O63	O	1.608513	0.944014	0.809258
O64	O	1.858513	1.194014	1.059258
O65	O	1.018138	0.443984	0.399648
O66	O	1.268138	0.693984	0.649648
O67	O	1.518138	0.943984	0.899648
O68	O	1.768138	1.193984	1.149648
C69	C	0.872234	0.303268	0.354490
C70	C	1.122234	0.553268	0.604490
C71	C	1.372234	0.803268	0.854490
C72	C	1.622234	1.053268	1.104490
C73	C	0.790435	0.303275	0.354502
C74	C	1.040435	0.553275	0.604502
C75	C	1.290435	0.803275	0.854502
C76	C	1.540435	1.053275	1.104502
C77	C	0.602284	0.263086	0.401660
C78	C	0.852284	0.513086	0.651660
C79	C	1.102284	0.763086	0.901660
C80	C	1.352284	1.013086	1.151660
C81	C	0.525426	0.263092	0.401662
C82	C	0.775426	0.513092	0.651662
C83	C	1.025426	0.763092	0.901662
C84	C	1.275426	1.013092	1.151662
C85	C	0.525349	0.343507	0.307359
C86	C	0.775349	0.593507	0.557359
C87	C	1.025349	0.843507	0.807359
C88	C	1.275349	1.093507	1.057359
C89	C	0.602206	0.343498	0.307353
C90	C	0.852206	0.593498	0.557353
C91	C	1.102206	0.843498	0.807353
C92	C	1.352206	1.093498	1.057353
C93	C	0.640672	0.303289	0.354508
C94	C	0.890672	0.553289	0.604508
C95	C	1.140672	0.803289	0.854508
C96	C	1.390672	1.053289	1.104508
C97	C	0.486956	0.303303	0.354516
C98	C	0.736956	0.553303	0.604516
C99	C	0.986956	0.803303	0.854516
C100	C	1.236956	1.053303	1.104516
C101	C	0.403622	0.303309	0.354518
C102	C	0.653622	0.553309	0.604518
C103	C	0.903622	0.803309	0.854518
C104	C	1.153622	1.053309	1.104518
C105	C	0.724011	0.303281	0.354505
C106	C	0.974011	0.553281	0.604505
C107	C	1.224011	0.803281	0.854505
C108	C	1.474011	1.053281	1.104505
C109	C	1.063327	0.466839	0.354461
C110	C	1.313327	0.716839	0.604461
C111	C	1.563327	0.966839	0.854461
C112	C	1.813327	1.216839	1.104461
C113	C	1.063346	0.536808	0.354468
C114	C	1.313346	0.786808	0.604468
C115	C	1.563346	1.036808	0.854468
C116	C	1.813346	1.286808	1.104468
C117	C	1.110395	0.569611	0.401574
C118	C	1.360395	0.819611	0.651574
C119	C	1.610395	1.069611	0.901574
C120	C	1.860395	1.319611	1.151574
C121	C	1.110413	0.635354	0.401590
C122	C	1.360413	0.885354	0.651590
C123	C	1.610413	1.135354	0.901590
C124	C	1.860413	1.385354	1.151590
C125	C	1.063390	0.668290	0.354488
C126	C	1.313390	0.918290	0.604488
C127	C	1.563390	1.168290	0.854488
C128	C	1.813390	1.418290	1.104488
C129	C	1.016331	0.635478	0.307379
C130	C	1.266331	0.885478	0.557379
C131	C	1.516331	1.135478	0.807379
C132	C	1.766331	1.385478	1.057379
C133	C	1.016309	0.569737	0.307370
C134	C	1.266309	0.819737	0.557370
C135	C	1.516309	1.069737	0.807370
C136	C	1.766309	1.319737	1.057370
N137	N	1.057819	0.771552	0.290079
N138	N	1.307819	1.021552	0.540079
N139	N	1.557819	1.271552	0.790079
N140	N	1.807819	1.521552	1.040079
N141	N	1.057844	0.834004	0.290091
N142	N	1.307844	1.084004	0.540091
N143	N	1.557844	1.334004	0.790091
N144	N	1.807844	1.584004	1.040091
C145	C	1.063452	0.866365	0.354516
C146	C	1.313452	1.116365	0.604516
C147	C	1.563452	1.366365	0.854516
C148	C	1.813452	1.616365	1.104516
N149	N	1.069049	0.833915	0.418931
N150	N	1.319049	1.083915	0.668931
N151	N	1.569049	1.333915	0.918931
N152	N	1.819049	1.583915	1.168931
N153	N	1.069027	0.771458	0.418919
N154	N	1.319027	1.021458	0.668919
N155	N	1.569027	1.271458	0.918919
N156	N	1.819027	1.521458	1.168919
C157	C	1.063408	0.739575	0.354494
C158	C	1.313408	0.989575	0.604494
C159	C	1.563408	1.239575	0.854494
C160	C	1.813408	1.489575	1.104494
C161	C	1.110524	0.970454	0.401643
C162	C	1.360524	1.220454	0.651643
C163	C	1.610524	1.470454	0.901643
C164	C	1.860524	1.720454	1.151643
C165	C	1.110536	1.036198	0.401661
C166	C	1.360536	1.286198	0.651661
C167	C	1.610536	1.536198	0.901661
C168	C	1.860536	1.786198	1.151661
C169	C	1.016458	1.036321	0.307444
C170	C	1.266458	1.286321	0.557444
C171	C	1.516458	1.536321	0.807444
C172	C	1.766458	1.786321	1.057444
C173	C	1.016442	0.970579	0.307433
C174	C	1.266442	1.220579	0.557433
C175	C	1.516442	1.470579	0.807433
C176	C	1.766442	1.720579	1.057433
C177	C	1.063478	0.937649	0.354532
C178	C	1.313478	1.187649	0.604532
C179	C	1.563478	1.437649	0.854532
C180	C	1.813478	1.687649	1.104532
C181	C	1.255393	0.303308	0.354516
C182	C	1.505393	0.553308	0.604516
C183	C	1.755393	0.803308	0.854516
C184	C	2.005393	1.053308	1.104516
C185	C	1.337192	0.303316	0.354522
C186	C	1.587192	0.553316	0.604522
C187	C	1.837192	0.803316	0.854522
C188	C	2.087192	1.053316	1.104522
C189	C	1.063485	0.303244	0.546456
C190	C	1.313485	0.553244	0.796456
C191	C	1.563485	0.803244	1.046456
C192	C	1.813485	1.053244	1.296456
C193	C	1.063505	0.303226	0.628255
C194	C	1.313505	0.553226	0.878255
C195	C	1.563505	0.803226	1.128255
C196	C	1.813505	1.053226	1.378255
C197	C	1.063544	1.139098	0.354554
C198	C	1.313544	1.389098	0.604554
C199	C	1.563544	1.639098	0.854554
C200	C	1.813544	1.889098	1.104554
C201	C	1.063512	1.069129	0.354560
C202	C	1.313512	1.319129	0.604560
C203	C	1.563512	1.569129	0.854560
C204	C	1.813512	1.819129	1.104560
C205	C	1.063438	0.303286	0.163297
C206	C	1.313438	0.553286	0.413297
C207	C	1.563438	0.803286	0.663297
C208	C	1.813438	1.053286	0.913297
C209	C	1.063562	0.303127	0.081498
C210	C	1.313562	0.553127	0.331498
C211	C	1.563562	0.803127	0.581498
C212	C	1.813562	1.053127	0.831498
C213	C	1.110624	0.262932	0.816467
C214	C	1.360624	0.512932	1.066467
C215	C	1.610624	0.762932	1.316467
C216	C	1.860624	1.012932	1.566467
C217	C	1.110632	0.262913	0.893326
C218	C	1.360632	0.512913	1.143326
C219	C	1.610632	0.762913	1.393326
C220	C	1.860632	1.012913	1.643326
C221	C	1.016438	0.343423	0.893280
C222	C	1.266438	0.593423	1.143280
C223	C	1.516438	0.843423	1.393280
C224	C	1.766438	1.093423	1.643280
C225	C	1.016426	0.343438	0.816423
C226	C	1.266426	0.593438	1.066423
C227	C	1.516426	0.843438	1.316423
C228	C	1.766426	1.093438	1.566423
C229	C	1.063523	0.303193	0.778018
C230	C	1.313523	0.553193	1.028018
C231	C	1.563523	0.803193	1.278018
C232	C	1.813523	1.053193	1.528018
C233	C	1.063544	0.303160	0.931734
C234	C	1.313544	0.553160	1.181734
C235	C	1.563544	0.803160	1.431734
C236	C	1.813544	1.053160	1.681734
C237	C	1.063553	0.303140	1.015068
C238	C	1.313553	0.553140	1.265068
C239	C	1.563553	0.803140	1.515068
C240	C	1.813553	1.053140	1.765068
C241	C	1.063513	0.303211	0.694679
C242	C	1.313513	0.553211	0.944679
C243	C	1.563513	0.803211	1.194679
C244	C	1.813513	1.053211	1.444679
H245	H	0.494174	0.230354	0.440057
H246	H	0.744174	0.480354	0.690057
H247	H	0.994174	0.730354	0.940057
H248	H	1.244174	0.980354	1.190057
O249	O	1.161161	0.670750	0.452395
O250	O	1.411161	0.920750	0.702395
O251	O	1.661161	1.170750	0.952395
O252	O	1.911161	1.420750	1.202395
H253	H	1.218923	0.658104	0.439813
H254	H	1.468923	0.908104	0.689813
H255	H	1.718923	1.158104	0.939813
H256	H	1.968923	1.408104	1.189813
H257	H	0.978094	0.376190	0.924558
H258	H	1.228094	0.626190	1.174558
H259	H	1.478094	0.876190	1.424558
H260	H	1.728094	1.126190	1.674558
H261	H	0.633462	0.376236	0.268953
H262	H	0.883462	0.626236	0.518953
H263	H	1.133462	0.876236	0.768953
H264	H	1.383462	1.126236	1.018953
H265	H	1.148971	0.230160	0.785201
H266	H	1.398971	0.480160	1.035201
H267	H	1.648971	0.730160	1.285201
H268	H	1.898971	0.980160	1.535201
H269	H	1.148985	0.230128	0.924628
H270	H	1.398985	0.480128	1.174628
H271	H	1.648985	0.730128	1.424628
H272	H	1.898985	0.980128	1.674628
O273	O	0.965601	0.386846	0.774944
O274	O	1.215601	0.636846	1.024944
O275	O	1.465601	0.886846	1.274944
O276	O	1.715601	1.136846	1.524944
H277	H	0.932853	0.414828	0.814559
H278	H	1.182853	0.664828	1.064559
H279	H	1.432853	0.914828	1.314559
H280	H	1.682853	1.164828	1.564559
O281	O	0.483856	0.386875	0.256505
O282	O	0.733856	0.636875	0.506505
O283	O	0.983856	0.886875	0.756505
O284	O	1.233856	1.136875	1.006505
H285	H	0.523464	0.414824	0.223711
H286	H	0.773464	0.664824	0.473711
H287	H	1.023464	0.914824	0.723711
H288	H	1.273464	1.164824	0.973711
O289	O	0.965613	0.671002	0.256578
O290	O	1.215613	0.921002	0.506578
O291	O	1.465613	1.171002	0.756578
O292	O	1.715613	1.421002	1.006578
H293	H	0.932887	0.637144	0.223823
H294	H	1.182887	0.887144	0.473823
H295	H	1.432887	1.137144	0.723823
H296	H	1.682887	1.387144	0.973823
O297	O	0.643776	0.219711	0.452506
O298	O	0.893776	0.469711	0.702506
O299	O	1.143776	0.719711	0.952506
O300	O	1.393776	0.969711	1.202506
H301	H	0.604167	0.191751	0.485287
H302	H	0.854167	0.441751	0.735287
H303	H	1.104167	0.691751	0.985287
H304	H	1.354167	0.941751	1.235287
H305	H	0.977995	0.543028	0.269010
H306	H	1.227995	0.793028	0.519010
H307	H	1.477995	1.043028	0.769010
H308	H	1.727995	1.293028	1.019010
O309	O	1.161138	0.534093	0.452357
O310	O	1.411138	0.784093	0.702357
O311	O	1.661138	1.034093	0.952357
O312	O	1.911138	1.284093	1.202357
H313	H	1.193860	0.567953	0.485113
H314	H	1.443860	0.817953	0.735113
H315	H	1.693860	1.067953	0.985113
H316	H	1.943860	1.317953	1.235113
H317	H	1.148821	0.943642	0.439996
H318	H	1.398821	1.193642	0.689996
H319	H	1.648821	1.443642	0.939996
H320	H	1.898821	1.693642	1.189996
H321	H	1.148850	1.062905	0.440023
H322	H	1.398850	1.312905	0.690023
H323	H	1.648850	1.562905	0.940023
H324	H	1.898850	1.812905	1.190023
O325	O	0.965741	1.071834	0.256635
O326	O	1.215741	1.321834	0.506635
O327	O	1.465741	1.571834	0.756635
O328	O	1.715741	1.821834	1.006635
H329	H	0.973664	1.123060	0.264551
H330	H	1.223664	1.373060	0.514551
H331	H	1.473664	1.623060	0.764551
H332	H	1.723664	1.873060	1.014551
H333	H	0.978133	0.943868	0.269072
H334	H	1.228133	1.193868	0.519072
H335	H	1.478133	1.443868	0.769072
H336	H	1.728133	1.693868	1.019072
