data_functionalizedCrystal
_audit_creation_method	'MofGen! by Chris Wilmer'
_symmetry_space_group_name_H-M	'P1'
_symmetry_Int_Tables_number	1
_symmetry_cell_setting	triclinic
loop_
_symmetry_equiv_pos_as_xyz
  x,y,z
_cell_length_a	15.944551
_cell_length_b	8.559649
_cell_length_c	7.681452
_cell_angle_alpha	82.935289
_cell_angle_beta	83.569896
_cell_angle_gamma	76.638701
loop_
_atom_site_label
_atom_site_type_symbol
_atom_site_fract_x
_atom_site_fract_y
_atom_site_fract_z
O1	O	-1.095006	-0.192606	-0.146240
O2	O	-0.848814	-0.218009	-0.146283
O3	O	-0.993600	0.027292	-0.146256
O4	O	-0.950220	-0.437907	-0.146267
O5	O	-1.006043	0.000323	0.146604
O6	O	-0.861258	-0.244978	0.146577
O7	O	-1.107449	-0.219575	0.146620
Zn8	Zn	-0.986329	-0.236558	0.193096
Zn9	Zn	-0.969934	-0.201026	-0.192759
O10	O	-0.962664	-0.464876	0.146593
C11	C	-0.823810	-0.230438	0.000141
C12	C	-0.730767	-0.227275	0.000125
C13	C	-1.132453	-0.207145	0.000192
C14	C	-1.225495	-0.210308	0.000197
C15	C	-1.003109	0.073337	0.000171
C16	C	-1.012894	0.250717	0.000163
C17	C	-0.526213	-0.067669	0.000163
C18	C	-0.454274	-0.128489	-0.144234
C19	C	-0.560412	-0.221556	0.000146
C20	C	-0.466562	-0.155115	0.144503
C21	C	-0.395857	-0.216021	0.000174
C22	C	-0.489693	-0.282407	-0.144371
C23	C	-0.501995	-0.309023	0.144496
C24	C	-0.430065	-0.369951	0.000064
C25	C	-0.655207	-0.224740	0.000128
C26	C	-0.301061	-0.212848	0.000179
C27	C	-0.953155	-0.510921	0.000162
C28	C	-0.943369	-0.688299	0.000158
N29	N	-0.997524	-0.260807	0.456433
N30	N	-0.958747	-0.176764	-0.456096
H31	H	-0.567781	0.060061	-0.000013
Cl32	Cl	-1.116361	0.379618	0.000205
Cl33	Cl	-1.058643	-0.393243	0.572540
Cl34	Cl	-0.897614	-0.044340	0.427791
Cl35	Cl	-0.839908	0.182804	0.000144
H36	H	-0.433178	-0.052159	-0.266309
Cl37	Cl	-0.534609	-0.426789	0.332980
Cl38	Cl	-0.506050	-0.365446	-0.333057
H39	H	-0.388652	-0.497790	-0.000020
Cl40	Cl	-0.450048	-0.071942	0.332977
