data_functionalizedCrystal
_audit_creation_method	'MofGen! by Chris Wilmer'
_symmetry_space_group_name_H-M	'P1'
_symmetry_Int_Tables_number	1
_symmetry_cell_setting	triclinic
loop_
_symmetry_equiv_pos_as_xyz
  x,y,z
_cell_length_a	16.109301
_cell_length_b	17.666332
_cell_length_c	19.188935
_cell_angle_alpha	89.996178
_cell_angle_beta	83.304024
_cell_angle_gamma	89.996724
loop_
_atom_site_label
_atom_site_type_symbol
_atom_site_fract_x
_atom_site_fract_y
_atom_site_fract_z
O1	O	1.102838	-0.062899	0.089744
O2	O	0.860739	-0.062911	0.100913
O3	O	0.988773	-0.062901	-0.006311
O4	O	0.974804	-0.062909	0.196968
O5	O	0.988758	0.062995	-0.006313
O6	O	0.860725	0.062986	0.100910
O7	O	1.102823	0.062997	0.089742
Cu8	Cu	0.981773	0.074487	0.095326
Cu9	Cu	0.981790	-0.074401	0.095329
O10	O	0.974789	0.062987	0.196965
C11	C	0.829759	0.000036	0.100459
C12	C	0.737468	0.000031	0.099103
N13	N	0.981766	0.179206	0.095323
C14	C	0.514996	0.000038	0.159573
C15	C	0.428280	0.000042	0.158293
C16	C	0.448573	0.000044	0.031076
C17	C	0.535288	0.000045	0.032357
C18	C	0.568497	0.000038	0.096607
C19	C	0.395066	0.000042	0.094047
C20	C	0.301044	0.000047	0.092659
C21	C	0.662524	0.000034	0.097996
C22	C	1.038494	0.781261	0.047861
C23	C	1.038496	0.702013	0.047863
C24	C	0.981788	0.662388	0.095323
C25	C	0.925089	0.702016	0.142798
C26	C	0.925095	0.781263	0.142800
N27	N	0.908185	0.537971	0.104199
N28	N	0.908182	0.462691	0.104193
C29	C	0.981769	0.423624	0.095322
N30	N	1.055362	0.462681	0.086442
N31	N	1.055364	0.537968	0.086445
C32	C	0.981776	0.576459	0.095327
C33	C	1.038471	0.298075	0.047855
C34	C	1.038474	0.218826	0.047862
C35	C	0.925059	0.218831	0.142793
C36	C	0.925064	0.298079	0.142790
C37	C	0.981769	0.337696	0.095317
C38	C	1.133804	0.000049	0.090195
C39	C	1.226095	0.000048	0.091552
N40	N	0.981799	0.820880	0.095327
C41	C	0.988313	0.000046	-0.032324
C42	C	0.986953	0.000044	-0.109831
C43	C	0.975250	0.000038	0.222978
C44	C	0.976609	0.000035	0.300486
C45	C	0.986332	-0.068581	0.853764
C46	C	0.985049	-0.068584	0.780938
C47	C	0.984403	0.000042	0.744518
C48	C	0.985019	0.068676	0.780931
C49	C	0.986294	0.068677	0.853757
N50	N	1.029705	0.051126	0.624966
N51	N	1.028495	0.051120	0.555784
C52	C	0.980559	0.000042	0.525099
N53	N	0.933889	-0.051040	0.566207
N54	N	0.935102	-0.051037	0.635394
C55	C	0.983020	0.000048	0.665551
C56	C	0.978546	-0.068591	0.409728
C57	C	0.977257	-0.068591	0.336901
C58	C	0.977235	0.068671	0.336895
C59	C	0.978516	0.068669	0.409721
C60	C	0.979175	0.000036	0.446133
H61	H	0.542031	0.000037	0.211890
C62	C	0.979258	-0.144084	0.449788
C63	C	0.980667	-0.144086	0.529892
C64	C	0.981377	-0.219579	0.569950
C65	C	0.980679	-0.295069	0.529903
C66	C	0.979270	-0.295070	0.449794
C67	C	0.978560	-0.219577	0.409737
H68	H	0.981183	-0.088201	0.559541
H69	H	0.982420	-0.219578	0.629252
H70	H	0.981205	-0.350954	0.559557
H71	H	0.978753	-0.350955	0.420145
H72	H	0.977517	-0.219578	0.350434
C73	C	0.976574	-0.144086	0.296855
C74	C	1.048946	-0.200689	0.298926
C75	C	1.048264	-0.276185	0.258880
C76	C	0.975211	-0.295079	0.216763
C77	C	0.902834	-0.238475	0.214690
C78	C	0.903515	-0.162978	0.254736
H79	H	1.103029	-0.186704	0.330105
H80	H	1.101843	-0.318087	0.260415
H81	H	0.974706	-0.350966	0.187119
H82	H	0.848751	-0.252460	0.183511
H83	H	0.849937	-0.121076	0.253202
C84	C	0.987046	-0.144074	0.893820
C85	C	0.915746	-0.162952	0.951828
C86	C	0.916458	-0.238444	0.991888
C87	C	0.988469	-0.295057	0.973938
C88	C	1.059775	-0.276180	0.915927
C89	C	1.059063	-0.200688	0.875867
H90	H	0.862434	-0.121043	0.965118
H91	H	0.863672	-0.252418	1.034832
H92	H	0.988996	-0.350941	1.003592
H93	H	1.113087	-0.318090	0.902637
H94	H	1.111849	-0.186714	0.832924
C95	C	0.976538	0.144158	0.296834
C96	C	1.048892	0.200772	0.298899
C97	C	1.048197	0.276260	0.258831
C98	C	0.975149	0.295133	0.216698
C99	C	0.902789	0.238516	0.214630
C100	C	0.903484	0.163029	0.254699
H101	H	1.102972	0.186803	0.330091
H102	H	1.101763	0.318171	0.260362
H103	H	0.974635	0.351013	0.187037
H104	H	0.848710	0.252486	0.183439
H105	H	0.849918	0.121118	0.253168
C106	C	0.862708	0.658433	0.195004
C107	C	0.862694	0.571265	0.195002
C108	C	0.800314	0.527683	0.247214
C109	C	0.737947	0.571269	0.299427
C110	C	0.737958	0.658441	0.299431
C111	C	0.800339	0.702023	0.247220
H112	H	0.908864	0.538996	0.156349
H113	H	0.800306	0.463152	0.247211
H114	H	0.691769	0.539007	0.338077
H115	H	0.691789	0.690710	0.338084
H116	H	0.800347	0.766554	0.247223
H117	H	0.878926	0.813521	0.181453
C118	C	0.594145	0.000045	-0.036910
C119	C	0.656543	0.065422	-0.053525
C120	C	0.715400	0.065426	-0.122788
C121	C	0.711859	0.000052	-0.175438
C122	C	0.649459	-0.065331	-0.158825
C123	C	0.590602	-0.065335	-0.089561
H124	H	0.659167	0.113821	-0.014549
H125	H	0.761593	0.113827	-0.135086
H126	H	0.755428	0.000054	-0.226711
H127	H	0.646835	-0.113730	-0.197800
H128	H	0.544409	-0.113736	-0.077263
H129	H	0.384722	0.000044	0.209566
H130	H	1.084646	0.330333	0.009202
H131	H	0.979028	0.124551	0.439362
C132	C	0.984368	-0.144075	0.740879
C133	C	1.055674	-0.162932	0.682869
C134	C	1.054993	-0.238421	0.642812
C135	C	0.983005	-0.295053	0.660764
C136	C	0.911693	-0.276197	0.718776
C137	C	0.912375	-0.200708	0.758834
H138	H	1.108969	-0.121008	0.669578
H139	H	1.107783	-0.252379	0.599867
H140	H	0.982501	-0.350934	0.631111
H141	H	0.858399	-0.318121	0.732068
H142	H	0.859585	-0.186750	0.801779
C143	C	0.412041	0.000043	-0.039596
C144	C	0.316659	0.000036	-0.041009
C145	C	0.280130	0.000031	-0.111684
C146	C	0.338982	0.000033	-0.180945
C147	C	0.434369	0.000039	-0.179535
C148	C	0.470899	0.000044	-0.108861
H149	H	0.273088	0.000036	0.010265
H150	H	0.209517	0.000027	-0.112727
H151	H	0.311940	0.000029	-0.233263
H152	H	0.477940	0.000040	-0.230809
H153	H	0.541512	0.000048	-0.107817
C154	C	0.862681	0.175252	0.195002
C155	C	0.862674	0.088084	0.195002
C156	C	0.800297	0.044500	0.247214
C157	C	0.737927	0.088083	0.299426
C158	C	0.737931	0.175255	0.299428
C159	C	0.800308	0.218840	0.247215
H160	H	0.908847	0.055817	0.156350
H161	H	0.800294	-0.020031	0.247213
H162	H	0.691751	0.055819	0.338077
H163	H	0.691758	0.207523	0.338080
H164	H	0.800311	0.283371	0.247217
H165	H	0.984490	0.124552	0.751274
H166	H	0.878894	0.330339	0.181438
H167	H	1.084666	0.669749	0.009210
C168	C	1.100874	0.824842	-0.004350
C169	C	1.163261	0.781259	-0.056548
C170	C	1.225642	0.824843	-0.108757
C171	C	1.225635	0.912011	-0.108768
C172	C	1.163246	0.955599	-0.056568
C173	C	1.100865	0.912014	-0.004359
H174	H	1.163268	0.716728	-0.056541
H175	H	1.271826	0.792576	-0.147399
H176	H	1.271813	0.944275	-0.147417
H177	H	1.163239	1.020130	-0.056575
H178	H	1.054681	0.944282	0.034283
C179	C	1.100842	0.175240	-0.004353
C180	C	1.068542	0.120764	-0.057751
C181	C	1.130911	0.077175	-0.109967
C182	C	1.225580	0.088063	-0.108784
C183	C	1.257885	0.142541	-0.055383
C184	C	1.195516	0.186130	-0.003168
H185	H	0.998459	0.112702	-0.058629
H186	H	1.106996	0.036847	-0.149497
H187	H	1.271749	0.055796	-0.147436
H188	H	1.327968	0.150603	-0.054506
H189	H	1.219430	0.226459	0.036363
H190	H	0.986796	0.124562	0.883398
