data_functionalizedCrystal
_audit_creation_method	'MofGen! by Chris Wilmer'
_symmetry_space_group_name_H-M	'P1'
_symmetry_Int_Tables_number	1
_symmetry_cell_setting	triclinic
loop_
_symmetry_equiv_pos_as_xyz
  x,y,z
_cell_length_a	16.974800
_cell_length_b	10.489741
_cell_length_c	16.053802
_cell_angle_alpha	87.407852
_cell_angle_beta	88.925812
_cell_angle_gamma	83.963381
loop_
_atom_site_label
_atom_site_type_symbol
_atom_site_fract_x
_atom_site_fract_y
_atom_site_fract_z
O1	O	1.050000	0.162593	-0.001544
O2	O	0.820649	0.182119	0.013960
O3	O	0.940543	-0.013302	0.005850
O4	O	0.930106	0.358013	0.006566
O5	O	0.933944	-0.002590	-0.132562
O6	O	0.814050	0.192831	-0.124452
O7	O	1.043401	0.173305	-0.139957
Zn8	Zn	0.927677	0.184769	-0.154181
Zn9	Zn	0.936373	0.170655	0.028184
O10	O	0.923507	0.368725	-0.131847
C11	C	0.787981	0.186536	-0.053261
C12	C	0.700473	0.183723	-0.047345
C13	C	0.655768	0.188238	-0.120017
C14	C	0.573546	0.185575	-0.114461
C15	C	0.536029	0.178406	-0.036233
C16	C	0.580740	0.173888	0.036444
C17	C	0.662961	0.176541	0.030887
C18	C	0.290510	0.169835	-0.011524
C19	C	0.208282	0.167185	-0.005972
C20	C	0.201094	0.178870	-0.156878
C21	C	0.283317	0.181531	-0.162428
C22	C	0.328021	0.177006	-0.089751
N23	N	0.451984	0.175688	-0.030552
N24	N	0.412065	0.179714	-0.095433
C25	C	0.936455	-0.055468	-0.063302
C26	C	0.934097	-0.197071	-0.063141
C27	C	0.857812	-0.264336	-0.057978
C28	C	0.890594	-0.351590	-0.128659
C29	C	0.897119	-0.362126	0.007804
C30	C	0.966908	-0.282456	-0.133880
C31	C	0.973425	-0.292987	0.002644
C32	C	1.006262	-0.380214	-0.068057
C33	C	1.076069	0.168888	-0.072734
C34	C	1.163578	0.171700	-0.078644
C35	C	0.927595	0.410892	-0.062692
C36	C	0.929953	0.552494	-0.062848
N37	N	0.921749	0.194400	-0.278640
C38	C	0.972783	0.111278	-0.325786
C39	C	0.968643	0.118028	-0.412913
C40	C	0.913473	0.207906	-0.452892
C41	C	0.862433	0.291031	-0.405739
C42	C	0.866570	0.284275	-0.318614
C43	C	0.895404	0.237383	-0.713079
C44	C	0.891273	0.244135	-0.800211
C45	C	0.997482	0.071129	-0.807378
C46	C	1.001617	0.064386	-0.720251
C47	C	0.950575	0.147507	-0.673106
N48	N	0.909242	0.214810	-0.541949
N49	N	0.954803	0.140596	-0.584050
N50	N	0.942307	0.161014	0.152643
H51	H	0.177738	0.161351	0.057734
H52	H	0.537152	0.189230	-0.173638
H53	H	0.825012	0.351960	-0.280228
N54	N	0.860053	-0.406128	0.082913
N55	N	0.790030	-0.365126	0.099824
H56	H	0.763845	-0.396198	0.152867
H57	H	0.326898	0.166145	0.047655
N58	N	0.155443	0.183468	-0.231119
N59	N	0.188951	0.189860	-0.300960
H60	H	0.156712	0.193102	-0.353397
H61	H	1.010199	0.050342	-0.451299
H62	H	0.313858	0.187363	-0.226130
H63	H	0.686307	0.194086	-0.183719
N64	N	0.708631	0.171906	0.105119
N65	N	0.708614	0.077864	0.155795
H66	H	0.740869	0.074582	0.208224
N67	N	1.003893	-0.238642	-0.209086
N68	N	0.974822	-0.255984	-0.278120
H69	H	1.000939	-0.225038	-0.331235
N70	N	0.779123	-0.201149	-0.052747
N71	N	0.730293	-0.214778	-0.108143
H72	H	0.674719	-0.170152	-0.104453
H73	H	0.550188	0.168042	0.100139
H74	H	1.008427	-0.266778	0.058163
H75	H	0.855565	-0.377766	-0.184173
N76	N	0.806076	0.382824	-0.446587
N77	N	0.802390	0.388846	-0.524377
H78	H	0.762587	0.453678	-0.553226
N79	N	1.085010	-0.443125	-0.073442
N80	N	1.104730	-0.512855	-0.133045
H81	H	1.160345	-0.557288	-0.136853
N82	N	1.029101	0.019392	-0.284962
N83	N	1.074630	-0.054868	-0.327069
H84	H	1.114388	-0.119797	-0.298239
N85	N	0.843278	0.322277	-0.664913
N86	N	0.796436	0.277830	-0.612989
H87	H	0.759622	0.337791	-0.578965
N88	N	1.058113	-0.027212	-0.679438
N89	N	1.103766	-0.101278	-0.721550
H90	H	1.143719	-0.165887	-0.692730
N91	N	1.049612	-0.013762	-0.855548
N92	N	1.045915	-0.007722	-0.933338
H93	H	1.082731	-0.067682	-0.967359
H94	H	0.846344	0.317330	-0.832758
