data_functionalizedCrystal
_audit_creation_method	'MofGen! by Chris Wilmer'
_symmetry_space_group_name_H-M	'P1'
_symmetry_Int_Tables_number	1
_symmetry_cell_setting	triclinic
loop_
_symmetry_equiv_pos_as_xyz
  x,y,z
_cell_length_a	19.121241
_cell_length_b	19.120786
_cell_length_c	19.805399
_cell_angle_alpha	92.468930
_cell_angle_beta	92.462271
_cell_angle_gamma	94.790376
loop_
_atom_site_label
_atom_site_type_symbol
_atom_site_fract_x
_atom_site_fract_y
_atom_site_fract_z
Zn1	Zn	1.063748	-0.234359	0.416871
Zn2	Zn	1.058642	-0.352035	0.298631
Zn3	Zn	0.946082	-0.239388	0.298644
Zn4	Zn	0.941028	-0.357005	0.406732
O5	O	1.002375	-0.295697	0.355220
O6	O	1.161536	-0.245784	0.405424
O7	O	1.043688	-0.337117	0.203914
O8	O	0.965942	-0.140249	0.318576
O9	O	1.157785	-0.332241	0.318554
O10	O	1.052392	-0.136555	0.405437
O11	O	0.960991	-0.254355	0.203924
O12	O	0.846946	-0.259174	0.308745
O13	O	0.957330	-0.340711	0.502795
O14	O	0.843233	-0.345587	0.388156
O15	O	1.047491	-0.250604	0.510244
O16	O	1.038788	-0.451166	0.308722
O17	O	0.952378	-0.454817	0.388143
C18	C	0.819559	-0.303466	0.347352
C19	C	0.741348	-0.306807	0.344001
C20	C	0.706556	-0.263435	0.387719
C21	C	0.633069	-0.266571	0.384565
C22	C	0.594375	-0.313083	0.337696
C23	C	0.629173	-0.356457	0.293974
C24	C	0.702659	-0.353317	0.297125
C25	C	0.372399	-0.324808	0.325913
C26	C	0.298908	-0.327946	0.322767
C27	C	0.302809	-0.238059	0.413357
C28	C	0.376295	-0.234926	0.416507
C29	C	0.411087	-0.278297	0.372782
C30	C	0.519260	-0.316291	0.334473
C31	C	0.486201	-0.275085	0.376003
C32	C	0.994500	-0.478523	0.347347
C33	C	0.991195	-0.556734	0.344004
C34	C	1.034619	-0.591495	0.387691
C35	C	1.031511	-0.664983	0.384551
C36	C	0.984982	-0.703708	0.337721
C37	C	0.941554	-0.668942	0.294032
C38	C	0.944659	-0.595456	0.297175
C39	C	0.973354	-0.925689	0.325968
C40	C	0.970254	-0.999180	0.322827
C41	C	1.060210	-0.995216	0.413347
C42	C	1.063314	-0.921728	0.416484
C43	C	1.019883	-0.886969	0.372797
C44	C	0.981806	-0.778825	0.334509
C45	C	1.023056	-0.811854	0.376013
C46	C	1.185906	-0.287897	0.363118
C47	C	1.264115	-0.284574	0.366484
C48	C	1.002416	-0.295651	0.531766
C49	C	1.002434	-0.295631	0.606999
C50	C	1.010300	-0.112156	0.363139
C51	C	1.013678	-0.033941	0.366514
C52	C	1.002377	-0.295690	0.179364
C53	C	1.002504	-0.295506	0.104145
C54	C	1.049382	-0.248710	0.646224
C55	C	1.049391	-0.248689	0.716913
C56	C	1.002453	-0.295594	0.748377
C57	C	0.955500	-0.342517	0.709148
C58	C	0.955489	-0.342534	0.638460
C59	C	0.955542	-0.342450	0.994226
C60	C	0.955558	-0.342431	1.064920
C61	C	1.049444	-0.248605	1.072680
C62	C	1.049433	-0.248622	1.001991
C63	C	1.002478	-0.295542	0.962768
C64	C	1.002468	-0.295563	0.886118
C65	C	1.002465	-0.295577	0.825026
H66	H	0.400717	-0.360125	0.290310
N67	N	0.738212	-0.397623	0.252480
N68	N	0.803823	-0.394814	0.255300
H69	H	0.828934	-0.426105	0.223767
N70	N	0.589662	-0.403966	0.246089
N71	N	0.598049	-0.398862	0.184197
H72	H	0.570146	-0.432418	0.150377
N73	N	0.928998	-0.890178	0.281350
N74	N	0.955499	-0.848111	0.241061
H75	H	0.924167	-0.823024	0.209553
N76	N	0.894025	-0.708508	0.246205
N77	N	0.891258	-0.774119	0.243403
H78	H	0.857690	-0.802063	0.209624
H79	H	0.604744	-0.231254	0.420166
N80	N	1.097328	-0.200787	0.614098
N81	N	1.095463	-0.136052	0.624598
H82	H	1.129324	-0.102202	0.601912
N83	N	0.922741	-1.038762	0.274989
N84	N	0.945812	-1.078716	0.231201
H85	H	0.912263	-1.106677	0.197417
N86	N	1.075867	-0.700480	0.429186
N87	N	1.117407	-0.665896	0.470995
H88	H	1.148734	-0.690964	0.502522
H89	H	0.917318	-0.380665	0.962299
H90	H	1.060937	-0.780322	0.414145
H91	H	0.267405	-0.365825	0.284600
N92	N	0.907533	-0.390455	0.598380
N93	N	0.863761	-0.367606	0.558072
H94	H	0.829889	-0.401449	0.529765
N95	N	1.097378	-0.200699	0.969865
N96	N	1.095513	-0.135964	0.980364
H97	H	1.129374	-0.102115	0.957676
N98	N	0.746066	-0.215923	0.435602
N99	N	0.714988	-0.177201	0.474630
H100	H	0.742890	-0.143642	0.508449
N101	N	1.097349	-0.200770	0.756990
N102	N	1.097353	-0.200758	0.820103
H103	H	1.131224	-0.166913	0.848408
N104	N	0.900294	-0.559957	0.252549
N105	N	0.858752	-0.594539	0.210741
H106	H	0.827414	-0.569470	0.179224
H107	H	0.487748	-0.354161	0.296312
N108	N	0.525722	-0.227566	0.423867
N109	N	0.568645	-0.180942	0.403810
H110	H	0.596562	-0.147381	0.437615
N111	N	0.907553	-0.390420	0.741296
N112	N	0.907568	-0.390399	0.804411
H113	H	0.873706	-0.424232	0.827115
N114	N	1.104566	-1.030712	0.457982
N115	N	1.146103	-0.996128	0.499794
H116	H	1.177430	-1.021195	0.531322
N117	N	1.097405	-0.200679	1.112756
N118	N	1.097411	-0.200667	1.175870
H119	H	1.131284	-0.166823	1.204174
N120	N	0.934285	-0.818362	0.286654
N121	N	0.869697	-0.812973	0.288622
H122	H	0.836137	-0.840893	0.254819
H123	H	0.407794	-0.197054	0.454675
N124	N	1.082159	-0.551943	0.435518
N125	N	1.146745	-0.557337	0.433521
H126	H	1.180322	-0.529405	0.467300
N127	N	0.267258	-0.193764	0.458014
N128	N	0.201647	-0.196572	0.455197
H129	H	0.176538	-0.165287	0.486737
H130	H	1.101201	-0.890200	0.454617
N131	N	0.907603	-0.390348	1.097050
N132	N	0.865680	-0.432235	1.062022
H133	H	0.831812	-0.466074	1.084714
