data_functionalizedCrystal
_audit_creation_method	'MofGen! by Chris Wilmer'
_symmetry_space_group_name_H-M	'P1'
_symmetry_Int_Tables_number	1
_symmetry_cell_setting	triclinic
loop_
_symmetry_equiv_pos_as_xyz
  x,y,z
_cell_length_a	16.109301
_cell_length_b	18.266242
_cell_length_c	16.109301
_cell_angle_alpha	90.007769
_cell_angle_beta	83.461481
_cell_angle_gamma	90.006317
loop_
_atom_site_label
_atom_site_type_symbol
_atom_site_fract_x
_atom_site_fract_y
_atom_site_fract_z
O1	O	1.103137	0.060837	0.106868
O2	O	1.603137	0.560837	0.606868
O3	O	0.861075	0.060849	0.120168
O4	O	1.361075	0.560849	0.620168
O5	O	0.988756	0.060835	-0.007513
O6	O	1.488756	0.560835	0.492487
O7	O	0.975457	0.060851	0.234549
O8	O	1.475457	0.560851	0.734549
O9	O	0.988734	-0.060927	-0.007519
O10	O	1.488734	0.439073	0.492481
O11	O	0.861054	-0.060913	0.120161
O12	O	1.361054	0.439087	0.620161
O13	O	1.103116	-0.060925	0.106862
O14	O	1.603116	0.439075	0.606862
Zn15	Zn	0.982081	-0.080251	0.113510
Zn16	Zn	1.482081	0.419749	0.613510
Zn17	Zn	0.982110	0.080175	0.113519
Zn18	Zn	1.482110	0.580175	0.613519
O19	O	0.975435	-0.060911	0.234543
O20	O	1.475435	0.439089	0.734543
C21	C	0.830090	-0.000031	0.119626
C22	C	1.330090	0.499969	0.619626
C23	C	0.737794	-0.000026	0.118011
C24	C	1.237794	0.499974	0.618011
C25	C	0.515522	-0.000030	0.190018
C26	C	1.015522	0.499970	0.690018
C27	C	0.428801	-0.000035	0.188494
C28	C	0.928801	0.499965	0.688494
C29	C	0.448676	-0.000042	0.037006
C30	C	0.948676	0.499958	0.537006
C31	C	0.535394	-0.000042	0.038530
C32	C	1.035394	0.499958	0.538530
C33	C	0.568815	-0.000033	0.115039
C34	C	1.068815	0.499967	0.615039
C35	C	0.395376	-0.000037	0.111990
C36	C	0.895376	0.499963	0.611990
C37	C	0.301350	-0.000042	0.110337
C38	C	0.801350	0.499958	0.610337
C39	C	0.662847	-0.000029	0.116693
C40	C	1.162847	0.499971	0.616693
N41	N	0.982068	-0.189738	0.113504
N42	N	1.482068	0.310262	0.613504
C43	C	1.038623	-0.228053	0.056995
C44	C	1.538623	0.271947	0.556995
C45	C	1.038629	-0.304698	0.056991
C46	C	1.538629	0.195302	0.556991
C47	C	0.982086	-0.343025	0.113511
C48	C	1.482086	0.156975	0.613511
C49	C	0.925520	-0.304701	0.170024
C50	C	1.425520	0.195299	0.670024
C51	C	0.925511	-0.228058	0.170021
C52	C	1.425511	0.271942	0.670021
N53	N	0.971484	-0.463353	0.187080
N54	N	1.471484	0.036647	0.687080
N55	N	0.971498	-0.536161	0.187081
N56	N	1.471498	-0.036161	0.687081
C57	C	0.982110	-0.573948	0.113523
C58	C	1.482110	-0.073948	0.613523
N59	N	0.992723	-0.536176	0.039962
N60	N	1.492723	-0.036176	0.539962
N61	N	0.992714	-0.463361	0.039962
N62	N	1.492714	0.036639	0.539962
C63	C	0.982090	-0.426132	0.113520
C64	C	1.482090	0.073868	0.613520
C65	C	1.038674	-0.695370	0.057005
C66	C	1.538674	-0.195370	0.557005
C67	C	1.038673	-0.772016	0.057000
C68	C	1.538673	-0.272016	0.557000
C69	C	0.925569	-0.772017	0.170040
C70	C	1.425569	-0.272017	0.670040
C71	C	0.925565	-0.695373	0.170038
C72	C	1.425565	-0.195373	0.670038
C73	C	0.982122	-0.657053	0.113521
C74	C	1.482122	-0.157053	0.613521
C75	C	1.134101	-0.000044	0.107404
C76	C	1.634101	0.499956	0.607404
C77	C	1.226397	-0.000043	0.109019
C78	C	1.726397	0.499957	0.609019
C79	C	0.988206	-0.000046	-0.038491
C80	C	1.488206	0.499954	0.461509
C81	C	0.986591	-0.000047	-0.130786
C82	C	1.486591	0.499953	0.369214
N83	N	0.982130	0.189662	0.113519
N84	N	1.482130	0.689662	0.613519
C85	C	1.058599	-0.000039	-0.353059
C86	C	1.558599	0.499961	0.146941
C87	C	1.057075	-0.000033	-0.439779
C88	C	1.557075	0.499967	0.060221
C89	C	0.905586	-0.000028	-0.419905
C90	C	1.405586	0.499972	0.080095
C91	C	0.907111	-0.000029	-0.333186
C92	C	1.407111	0.499971	0.166814
C93	C	0.983620	-0.000038	-0.299766
C94	C	1.483620	0.499962	0.200234
C95	C	0.980571	-0.000031	-0.473205
C96	C	1.480571	0.499969	0.026795
C97	C	0.978918	-0.000025	-0.567231
C98	C	1.478918	0.499975	-0.067231
C99	C	0.985273	-0.000044	-0.205734
C100	C	1.485273	0.499956	0.294266
C101	C	0.975984	-0.000028	0.265521
C102	C	1.475984	0.499972	0.765521
C103	C	0.977600	-0.000023	0.357816
C104	C	1.477600	0.499977	0.857816
H105	H	0.578788	-0.000046	-0.022530
H106	H	1.078788	0.499954	0.477470
Br107	Br	0.848823	-0.824026	0.246737
Br108	Br	1.348823	-0.324026	0.746737
Br109	Br	0.403314	-0.000052	-0.066823
Br110	Br	0.903314	0.499948	0.433177
H111	H	0.385413	-0.000034	0.249550
H112	H	0.885413	0.499966	0.749550
Br113	Br	0.560876	-0.000020	0.293851
Br114	Br	1.060876	0.499980	0.793851
H115	H	1.120897	-0.000045	-0.325851
H116	H	1.620897	0.499955	0.174149
H117	H	1.084684	-0.335900	0.010973
H118	H	1.584684	0.164100	0.510973
Br119	Br	1.115374	-0.176048	-0.019707
Br120	Br	1.615374	0.323952	0.480293
H121	H	0.843295	-0.000022	-0.447127
H122	H	1.343295	0.499978	0.052873
H123	H	0.879481	-0.335911	0.216042
H124	H	1.379481	0.164089	0.716042
Br125	Br	1.158837	-0.000030	-0.512103
Br126	Br	1.658837	0.499970	-0.012103
Br127	Br	0.848750	-0.176054	0.246717
Br128	Br	1.348750	0.323946	0.746717
Br129	Br	1.115426	-0.643363	-0.019699
Br130	Br	1.615426	-0.143363	0.480301
H131	H	1.084725	-0.803213	0.010979
H132	H	1.584725	-0.303213	0.510979
Br133	Br	0.848811	-0.643368	0.246735
Br134	Br	1.348811	-0.143368	0.746735
H135	H	0.846050	-0.000026	-0.289792
H136	H	1.346050	0.499974	0.210208
