data_functionalizedCrystal
_audit_creation_method	'MofGen! by Chris Wilmer'
_symmetry_space_group_name_H-M	'P1'
_symmetry_Int_Tables_number	1
_symmetry_cell_setting	triclinic
loop_
_symmetry_equiv_pos_as_xyz
  x,y,z
_cell_length_a	12.837943
_cell_length_b	9.198806
_cell_length_c	10.723024
_cell_angle_alpha	89.997736
_cell_angle_beta	90.351595
_cell_angle_gamma	90.002625
loop_
_atom_site_label
_atom_site_type_symbol
_atom_site_fract_x
_atom_site_fract_y
_atom_site_fract_z
O1	O	1.377762	0.120859	-0.324662
O2	O	1.075842	0.120868	-0.308624
O3	O	1.233766	0.120858	-0.135824
O4	O	1.219838	0.120870	-0.497463
O5	O	1.233754	-0.120927	-0.135821
O6	O	1.075830	-0.120917	-0.308622
O7	O	1.377750	-0.120926	-0.324659
Cu8	Cu	1.226789	-0.142998	-0.316640
Cu9	Cu	1.226803	0.142941	-0.316644
O10	O	1.219826	-0.120916	-0.497460
C11	C	1.037177	-0.000023	-0.303205
C12	C	0.921985	-0.000020	-0.287047
N13	N	1.226787	-0.344112	-0.316638
C14	C	1.232747	-0.000032	-0.089212
C15	C	1.229714	-0.000027	0.049671
C16	C	0.682408	-0.000034	-0.481303
C17	C	0.574174	-0.000032	-0.466126
C18	C	0.597282	-0.000024	-0.241518
C19	C	0.705515	-0.000026	-0.256694
C20	C	0.748074	-0.000029	-0.376591
C21	C	0.856310	-0.000021	-0.391766
C22	C	0.879415	-0.000023	-0.167159
C23	C	0.771182	-0.000020	-0.151982
C24	C	1.416415	-0.000031	-0.330079
C25	C	1.531607	-0.000025	-0.346237
C26	C	1.293258	-0.583717	-0.243929
C27	C	1.293245	-0.416305	-0.243929
N28	N	1.226813	0.344055	-0.316637
C29	C	1.220845	-0.000022	-0.544071
C30	C	1.223878	-0.000017	-0.682955
C31	C	1.318080	-0.000028	0.115056
C32	C	1.314948	-0.000022	0.258600
H33	H	0.890959	-0.000026	-0.489392
Cl34	Cl	1.107072	-0.000028	0.230266
H35	H	1.396052	-0.000039	0.064766
H36	H	1.169894	-0.406216	-0.378885
H37	H	1.151742	-0.000015	0.099962
H38	H	1.350127	-0.354192	-0.181675
H39	H	1.390596	-0.000029	0.314817
H40	H	0.717060	-0.000035	-0.578927
H41	H	0.520712	-0.000041	-0.551394
H42	H	0.562611	-0.000141	-0.143903
H43	H	0.736515	-0.000035	-0.054366
H44	H	0.932893	-0.000008	-0.081895
Cl45	Cl	1.381113	-0.679583	-0.147823
H46	H	1.169921	-0.593844	-0.378890
