data_functionalizedCrystal
_audit_creation_method	'MofGen! by Chris Wilmer'
_symmetry_space_group_name_H-M	'P1'
_symmetry_Int_Tables_number	1
_symmetry_cell_setting	triclinic
loop_
_symmetry_equiv_pos_as_xyz
  x,y,z
_cell_length_a	12.827893
_cell_length_b	12.645330
_cell_length_c	12.827885
_cell_angle_alpha	89.968887
_cell_angle_beta	89.980538
_cell_angle_gamma	90.012617
loop_
_atom_site_label
_atom_site_type_symbol
_atom_site_fract_x
_atom_site_fract_y
_atom_site_fract_z
Zn1	Zn	1.597691	-0.421989	-0.590839
Zn2	Zn	1.597593	-0.599289	-0.416095
Zn3	Zn	1.422932	-0.422040	-0.416113
Zn4	Zn	1.422927	-0.599211	-0.590795
O5	O	1.510286	-0.510632	-0.503461
O6	O	1.743914	-0.445520	-0.567670
O7	O	1.574386	-0.575832	-0.269861
O8	O	1.446158	-0.273686	-0.439316
O9	O	1.743842	-0.575782	-0.439286
O10	O	1.574553	-0.273648	-0.567687
O11	O	1.446063	-0.445608	-0.269874
O12	O	1.276696	-0.445531	-0.439274
O13	O	1.446148	-0.575647	-0.737037
O14	O	1.276691	-0.575697	-0.567612
O15	O	1.574547	-0.445443	-0.737069
O16	O	1.574380	-0.747626	-0.439244
O17	O	1.446053	-0.747568	-0.567595
C18	C	1.238776	-0.510612	-0.503441
C19	C	1.122623	-0.510629	-0.503457
C20	C	0.950768	-0.446152	-0.440082
C21	C	1.070819	-0.446133	-0.440064
C22	C	1.510234	-0.786062	-0.503436
C23	C	1.510307	-0.903892	-0.503460
C24	C	1.590908	-1.071448	-0.422551
C25	C	1.591170	-0.948888	-0.422749
C26	C	1.540174	-0.948266	-0.613614
C27	C	1.540813	-1.070864	-0.613184
C28	C	1.399807	-1.071222	-0.475302
C29	C	1.400337	-0.948617	-0.472832
C30	C	1.782856	-0.510654	-0.503481
C31	C	1.899009	-0.510663	-0.503490
C32	C	1.510358	-0.510531	-0.776031
C33	C	1.510389	-0.510487	-0.892184
C34	C	1.510367	-0.234127	-0.503508
C35	C	1.510401	-0.116297	-0.503529
C36	C	1.446911	-0.446036	-0.943975
C37	C	1.446941	-0.445989	-1.064026
C38	C	1.510274	-0.510657	-0.231951
C39	C	1.510446	-0.510402	-0.115798
H40	H	1.078118	-0.565865	-0.557743
C41	C	1.373518	-0.371440	-1.124185
C42	C	1.291548	-0.417409	-1.199233
C43	C	1.218122	-0.342857	-1.259395
C44	C	1.226668	-0.222336	-1.244509
C45	C	1.308642	-0.176361	-1.169458
C46	C	1.382067	-0.250913	-1.109297
H47	H	1.285219	-0.506631	-1.210255
H48	H	1.157440	-0.376892	-1.314952
H49	H	1.172314	-0.167149	-1.289045
H50	H	1.314970	-0.087139	-1.158436
H51	H	1.442750	-0.216878	-1.053739
C52	C	0.959200	-0.585261	-0.576814
C53	C	1.034234	-0.668355	-0.531311
C54	C	1.094422	-0.742956	-0.604637
C55	C	1.079576	-0.734464	-0.723466
C56	C	1.004539	-0.651368	-0.768975
C57	C	0.944351	-0.576766	-0.695649
H58	H	1.045227	-0.674644	-0.443341
H59	H	1.149970	-0.804470	-0.570948
H60	H	1.124131	-0.789689	-0.777746
H61	H	0.993546	-0.645078	-0.856945
H62	H	0.888803	-0.515253	-0.729338
H63	H	1.564756	-0.565633	-0.936721
H64	H	1.672381	-1.102177	-0.441011
H65	H	1.621652	-1.099375	-0.637094
H66	H	1.564799	-0.565580	-1.071266
H67	H	1.572455	-1.101007	-0.340634
C68	C	1.701826	-0.909151	-0.447982
C69	C	1.793650	-0.939072	-0.376526
C70	C	1.904310	-0.899337	-0.401766
C71	C	1.923148	-0.829681	-0.498463
C72	C	1.831321	-0.799756	-0.569926
C73	C	1.720661	-0.839491	-0.544685
H74	H	1.779708	-0.990639	-0.304939
H75	H	1.972286	-0.921490	-0.348864
H76	H	2.005065	-0.800267	-0.517147
H77	H	1.845263	-0.748189	-0.641512
H78	H	1.652685	-0.817338	-0.597587
C79	C	0.890572	-0.371553	-0.366762
C80	C	0.815538	-0.288464	-0.412272
C81	C	0.755343	-0.213863	-0.338951
C82	C	0.770182	-0.222351	-0.220121
C83	C	0.845220	-0.305443	-0.174605
C84	C	0.905415	-0.380044	-0.247926
H85	H	0.804550	-0.282178	-0.500242
H86	H	0.699795	-0.152352	-0.372646
H87	H	0.725622	-0.167126	-0.165845
H88	H	0.856208	-0.311729	-0.086635
H89	H	0.960963	-0.441555	-0.214232
C90	C	1.565945	-0.908379	-0.312397
C91	C	1.637138	-0.938028	-0.220279
C92	C	1.611924	-0.897537	-0.109916
C93	C	1.515516	-0.827397	-0.091672
C94	C	1.444316	-0.797745	-0.183793
C95	C	1.469530	-0.838236	-0.294155
H96	H	1.708511	-0.989952	-0.233783
H97	H	1.664632	-0.919488	-0.041723
H98	H	1.496852	-0.797424	-0.009974
H99	H	1.372944	-0.745821	-0.170289
H100	H	1.416823	-0.816285	-0.362349
C101	C	1.465047	-1.110947	-0.697475
C102	C	1.404157	-1.031398	-0.764966
C103	C	1.328399	-1.071474	-0.849260
C104	C	1.313530	-1.191100	-0.866063
C105	C	1.374422	-1.270657	-0.798570
C106	C	1.450180	-1.230580	-0.714276
H107	H	1.415163	-0.942837	-0.752529
H108	H	1.283323	-1.012581	-0.899222
H109	H	1.257450	-1.220768	-0.928463
H110	H	1.363417	-1.359218	-0.811008
H111	H	1.495256	-1.289474	-0.664314
H112	H	1.483322	-0.919116	-0.675565
C113	C	1.648152	-0.906686	-0.646456
C114	C	1.744580	-0.931552	-0.579314
C115	C	1.852562	-0.889973	-0.612150
C116	C	1.864115	-0.823529	-0.712128
C117	C	1.767684	-0.798660	-0.779276
C118	C	1.659703	-0.840238	-0.746441
H119	H	1.736031	-0.980741	-0.505299
H120	H	1.923946	-0.908384	-0.562441
H121	H	1.944049	-0.792751	-0.736435
H122	H	1.776234	-0.749471	-0.853292
H123	H	1.588318	-0.821828	-0.796149
H124	H	1.115331	-0.390906	-0.385774
C125	C	1.318765	-1.110407	-0.554967
C126	C	1.299493	-1.229793	-0.568696
C127	C	1.218460	-1.268985	-0.648364
C128	C	1.156698	-1.188792	-0.714302
C129	C	1.175968	-1.069399	-0.700575
C130	C	1.257001	-1.030206	-0.620908
H131	H	1.345215	-1.289164	-0.519883
H132	H	1.204196	-1.357368	-0.658525
H133	H	1.096713	-1.217804	-0.773276
H134	H	1.130246	-1.010028	-0.749388
H135	H	1.271265	-0.941823	-0.610746
C136	C	1.369909	-0.909446	-0.363323
C137	C	1.270633	-0.842716	-0.348314
C138	C	1.240211	-0.803535	-0.238805
C139	C	1.309064	-0.831085	-0.144306
C140	C	1.408346	-0.897819	-0.159312
C141	C	1.438768	-0.937000	-0.268821
H142	H	1.219658	-0.822318	-0.418271
H143	H	1.166716	-0.754134	-0.227697
H144	H	1.286544	-0.802082	-0.063241
H145	H	1.459321	-0.918217	-0.089355
H146	H	1.512263	-0.986401	-0.279929
H147	H	1.372647	-1.102236	-0.396377
H148	H	1.337118	-0.917999	-0.527488
H149	H	1.392538	-0.390895	-0.899439
