data_functionalizedCrystal
_audit_creation_method	'MofGen! by Chris Wilmer'
_symmetry_space_group_name_H-M	'P1'
_symmetry_Int_Tables_number	1
_symmetry_cell_setting	triclinic
loop_
_symmetry_equiv_pos_as_xyz
  x,y,z
_cell_length_a	10.654550
_cell_length_b	15.944551
_cell_length_c	9.130313
_cell_angle_alpha	89.994529
_cell_angle_beta	89.999724
_cell_angle_gamma	83.991834
loop_
_atom_site_label
_atom_site_type_symbol
_atom_site_fract_x
_atom_site_fract_y
_atom_site_fract_z
O1	O	1.666313	0.117977	-0.121694
O2	O	1.300689	0.129217	-0.121721
O3	O	1.493485	0.001379	-0.121693
O4	O	1.473517	0.245814	-0.121721
O5	O	1.493472	0.001376	0.121906
O6	O	1.300676	0.129213	0.121878
O7	O	1.666300	0.117973	0.121905
Cu8	Cu	1.483487	0.123592	0.144134
Cu9	Cu	1.483502	0.123597	-0.143950
O10	O	1.473503	0.245810	0.121878
C11	C	1.253895	0.128389	0.000075
C12	C	1.114484	0.125920	0.000065
C13	C	1.034024	0.201189	0.000061
C14	C	0.903034	0.198863	0.000087
C15	C	0.932975	0.045995	0.000115
C16	C	1.063963	0.048321	0.000100
C17	C	1.492650	-0.029921	0.000106
C18	C	1.490165	-0.123182	0.000107
C19	C	1.364720	-0.338764	0.000077
C20	C	1.422966	-0.399446	0.120191
C21	C	1.485668	-0.293933	0.000095
C22	C	1.423007	-0.399426	-0.119979
C23	C	1.481317	-0.458871	0.000078
C24	C	1.543947	-0.353387	0.120308
C25	C	1.543972	-0.353360	-0.119969
C26	C	1.602306	-0.414024	0.000173
C27	C	1.488172	-0.198917	0.000107
C28	C	1.478822	-0.553887	0.000077
C29	C	1.713094	0.118800	0.000106
C30	C	1.852505	0.121269	0.000106
C31	C	1.474339	0.277110	0.000075
C32	C	1.476824	0.370371	0.000065
N33	N	1.483485	0.123589	0.346757
N34	N	1.483514	0.123594	-0.346572
C35	C	1.568884	0.067007	0.423421
C36	C	1.568896	0.067007	0.576758
C37	C	1.398106	0.180179	0.576753
C38	C	1.398089	0.180174	0.423419
H39	H	0.837528	0.260155	0.000086
H40	H	1.075154	0.264375	0.000044
O41	O	1.315212	0.235261	0.651060
C42	C	1.241667	0.380861	0.698003
C43	C	1.335598	0.318571	0.613741
H44	H	1.258134	0.448230	0.667885
H45	H	1.141061	0.369354	0.667843
H46	H	1.256327	0.371107	0.820758
H47	H	1.321054	0.328288	0.490967
H48	H	1.436171	0.330094	0.644023
O49	O	1.722195	-0.452859	0.000516
C50	C	1.921347	-0.473387	0.127417
C51	C	1.785601	-0.429368	0.127220
H52	H	1.972659	-0.454397	0.229831
H53	H	1.918662	-0.544676	0.126541
H54	H	1.973246	-0.453631	0.025950
H55	H	1.733624	-0.449056	0.228670
H56	H	1.788378	-0.358088	0.128021
H57	H	1.328541	0.226250	0.360995
H58	H	1.595090	-0.332933	-0.221513
H59	H	1.371804	-0.419852	0.221729
H60	H	0.891824	-0.017184	0.000152
H61	H	1.129477	-0.012976	0.000108
H62	H	1.264327	-0.306038	0.000190
H63	H	1.595055	-0.333102	0.221966
H64	H	1.371841	-0.419797	-0.221532
O65	O	1.651701	0.011904	0.349049
C66	C	1.725294	-0.133714	0.302342
C67	C	1.631416	-0.071389	0.386605
H68	H	1.708944	-0.201069	0.332699
H69	H	1.710646	-0.124097	0.179553
H70	H	1.825865	-0.122106	0.332470
H71	H	1.530808	-0.082959	0.356600
H72	H	1.646174	-0.081019	0.509374
H73	H	1.638433	0.020931	0.639173
