data_functionalizedCrystal
_audit_creation_method	'MofGen! by Chris Wilmer'
_symmetry_space_group_name_H-M	'P1'
_symmetry_Int_Tables_number	1
_symmetry_cell_setting	triclinic
loop_
_symmetry_equiv_pos_as_xyz
  x,y,z
_cell_length_a	25.639239
_cell_length_b	16.120566
_cell_length_c	16.120297
_cell_angle_alpha	89.874982
_cell_angle_beta	92.868703
_cell_angle_gamma	92.865350
loop_
_atom_site_label
_atom_site_type_symbol
_atom_site_fract_x
_atom_site_fract_y
_atom_site_fract_z
Zn1	Zn	-0.264877	-1.247326	-0.534603
Zn2	Zn	-0.348108	-1.254242	-0.395537
Zn3	Zn	-0.256042	-1.115321	-0.388515
Zn4	Zn	-0.347628	-1.108199	-0.527499
O5	O	-0.304164	-1.181272	-0.461539
O6	O	-0.279816	-1.364608	-0.522068
O7	O	-0.332400	-1.241689	-0.278241
O8	O	-0.184053	-1.132918	-0.407929
O9	O	-0.340966	-1.369689	-0.419897
O10	O	-0.190544	-1.229902	-0.515259
O11	O	-0.264759	-1.139624	-0.273082
O12	O	-0.264293	-0.998012	-0.401040
O13	O	-0.340147	-1.120780	-0.644806
O14	O	-0.331580	-0.992780	-0.503150
O15	O	-0.279350	-1.222996	-0.650026
O16	O	-0.421206	-1.234784	-0.413007
O17	O	-0.420853	-1.127486	-0.509959
C18	C	-0.296926	-0.965224	-0.450562
C19	C	-0.293843	-0.872796	-0.445886
C20	C	-0.288202	-0.703570	-0.437356
C21	C	-0.320171	-0.659815	-0.485727
C22	C	-0.317032	-0.565652	-0.480981
C23	C	-0.291340	-0.797742	-0.442101
C24	C	-0.440001	-1.181134	-0.461493
C25	C	-0.498116	-1.181150	-0.461506
C26	C	-0.858662	-1.237276	-0.411154
C27	C	-0.913268	-1.237308	-0.411166
O28	O	-0.941655	-1.284885	-0.368306
N29	N	-0.940409	-1.181416	-0.461601
C30	C	-0.912943	-1.125494	-0.512033
O31	O	-0.941043	-1.077957	-0.554933
C32	C	-0.858338	-1.125467	-0.512024
C33	C	-0.831199	-1.181357	-0.461579
C34	C	-0.831523	-1.293162	-0.360714
C35	C	-0.776921	-1.293129	-0.360700
C36	C	-0.749458	-1.237210	-0.411126
C37	C	-0.776597	-1.181324	-0.461566
C38	C	-0.830873	-1.069550	-0.562459
C39	C	-0.776265	-1.069528	-0.562446
C40	C	-0.749126	-1.125418	-0.512002
C41	C	-0.694532	-1.125372	-0.511978
N42	N	-0.667391	-1.181264	-0.461543
C43	C	-0.694854	-1.237183	-0.411117
C44	C	-1.027616	-1.125556	-0.512049
C45	C	-1.082219	-1.125578	-0.512054
C46	C	-1.082540	-1.237393	-0.411188
C47	C	-1.027936	-1.237366	-0.411179
C48	C	-1.000474	-1.181448	-0.461614
C49	C	-0.580185	-1.237109	-0.411092
C50	C	-0.525578	-1.237069	-0.411080
C51	C	-0.525262	-1.125257	-0.511948
C52	C	-0.579864	-1.125294	-0.511957
C53	C	-0.607325	-1.181227	-0.461526
O54	O	-0.666111	-1.077821	-0.554819
O55	O	-0.666747	-1.284720	-0.368232
C56	C	-0.167798	-1.181432	-0.461603
C57	C	-0.109687	-1.181501	-0.461631
C58	C	-0.310680	-1.170322	-0.678431
C59	C	-0.313457	-1.165656	-0.770858
C60	C	-0.311431	-0.398165	-0.472545
C61	C	-0.314531	-0.490594	-0.477200
C62	C	-0.318514	-1.157106	-0.940082
C63	C	-0.289663	-1.205602	-0.983855
C64	C	-0.292476	-1.200845	-1.078017
C65	C	-0.315701	-1.161863	-0.845911
C66	C	-0.297637	-1.192227	-0.245492
C67	C	-0.294718	-1.197055	-0.153074
H68	H	-0.258479	-0.670312	-0.392383
C69	C	-0.496210	-1.297847	-0.356284
C70	C	-0.531954	-1.346840	-0.312146
C71	C	-0.504922	-1.402844	-0.261671
H72	H	-0.472786	-1.267984	-0.318336
H73	H	-0.477057	-1.332480	-0.389940
H74	H	-0.551099	-1.312212	-0.278493
H75	H	-0.555380	-1.376721	-0.350073
H76	H	-0.485769	-1.437477	-0.295327
H77	H	-0.481499	-1.372974	-0.223728
H78	H	-0.529171	-1.436097	-0.231724
H79	H	-0.345326	-1.112020	-0.973322
C80	C	-0.253864	-1.265595	-0.939434
C81	C	-0.217323	-1.221019	-0.887168
C82	C	-0.184340	-1.276253	-0.846226
H83	H	-0.236082	-1.295415	-0.979195
H84	H	-0.274063	-1.303475	-0.907338
H85	H	-0.197126	-1.183154	-0.919261
H86	H	-0.235090	-1.191202	-0.847391
H87	H	-0.204539	-1.314134	-0.814131
H88	H	-0.166561	-1.306070	-0.885993
H89	H	-0.159546	-1.246017	-0.810753
C90	C	-0.495531	-1.064465	-0.566732
C91	C	-0.530981	-1.015512	-0.610903
C92	C	-0.503611	-0.959501	-0.661379
H93	H	-0.476354	-1.094322	-0.604660
H94	H	-0.472100	-1.029806	-0.533074
H95	H	-0.554403	-1.050166	-0.644559
H96	H	-0.550159	-0.985636	-0.572996
H97	H	-0.480180	-0.924843	-0.627721
H98	H	-0.484435	-0.989365	-0.699302
H99	H	-0.527659	-0.926275	-0.691349
H100	H	-0.602538	-1.282657	-0.370028
C101	C	-0.609351	-1.064512	-0.566576
C102	C	-0.637542	-1.013636	-0.516756
C103	C	-0.664701	-0.957631	-0.567047
H104	H	-0.632812	-1.094377	-0.604469
H105	H	-0.585185	-1.031156	-0.596584
H106	H	-0.661705	-1.046988	-0.486761
H107	H	-0.614093	-0.983753	-0.478864
H108	H	-0.640535	-0.924275	-0.597056
H109	H	-0.688159	-0.987502	-0.604938
H110	H	-0.683828	-0.923100	-0.533251
C111	C	-0.747557	-1.353914	-0.305915
C112	C	-0.783306	-1.402903	-0.261783
C113	C	-0.756280	-1.458921	-0.211316
H114	H	-0.724129	-1.324062	-0.267963
H115	H	-0.728408	-1.388548	-0.339576
H116	H	-0.802446	-1.368274	-0.228124
H117	H	-0.806735	-1.432773	-0.299713
H118	H	-0.737131	-1.493555	-0.244978
H119	H	-0.732853	-1.429062	-0.173370
H120	H	-0.780532	-1.492172	-0.181372
H121	H	-1.104311	-1.080060	-0.553122
C122	C	-0.997894	-1.064739	-0.566829
C123	C	-1.033355	-1.015788	-0.610977
C124	C	-1.005998	-0.959750	-0.661441
H125	H	-0.978714	-1.094575	-0.604770
H126	H	-0.974466	-1.030082	-0.533164
H127	H	-1.056774	-1.050441	-0.644640
H128	H	-1.052536	-0.985934	-0.573057
H129	H	-0.982570	-0.925092	-0.627776
H130	H	-0.986819	-0.989593	-0.699377
H131	H	-1.030053	-0.926525	-0.691396
C132	C	-0.861352	-1.354030	-0.306136
C133	C	-0.895823	-1.404947	-0.356004
C134	C	-0.923292	-1.461060	-0.305764
H135	H	-0.880587	-1.324249	-0.268226
H136	H	-0.837363	-1.387349	-0.276147
H137	H	-0.919808	-1.371632	-0.385979
H138	H	-0.876602	-1.434746	-0.393913
H139	H	-0.899304	-1.494379	-0.275775
H140	H	-0.942524	-1.431272	-0.267856
H141	H	-0.946680	-1.495619	-0.339592
C142	C	-0.359830	-0.704002	-0.545777
C143	C	-0.388701	-0.645124	-0.589483
C144	C	-0.425235	-0.685802	-0.644810
H145	H	-0.382775	-0.739461	-0.515661
H146	H	-0.342079	-0.736067	-0.583789
H147	H	-0.406451	-0.613074	-0.551477
H148	H	-0.365770	-0.609663	-0.619616
H149	H	-0.407485	-0.717866	-0.682822
H150	H	-0.448177	-0.721260	-0.614687
H151	H	-0.444826	-0.645859	-0.674477
C152	C	-0.998570	-1.298143	-0.356388
C153	C	-1.034316	-1.347127	-0.312245
C154	C	-1.007287	-1.403134	-0.261770
H155	H	-0.975142	-1.268282	-0.318442
H156	H	-0.979420	-1.332781	-0.390044
H157	H	-1.053457	-1.312494	-0.278592
H158	H	-1.057744	-1.377006	-0.350170
H159	H	-0.988137	-1.437772	-0.295427
H160	H	-0.983860	-1.373266	-0.223830
H161	H	-1.031536	-1.436382	-0.231820
H162	H	-1.104911	-1.282929	-0.370132
H163	H	-0.852960	-1.024034	-0.603532
H164	H	-0.753908	-1.023993	-0.603519
