data_functionalizedCrystal
_audit_creation_method	'MofGen! by Chris Wilmer'
_symmetry_space_group_name_H-M	'P1'
_symmetry_Int_Tables_number	1
_symmetry_cell_setting	triclinic
loop_
_symmetry_equiv_pos_as_xyz
  x,y,z
_cell_length_a	14.908571
_cell_length_b	29.839131
_cell_length_c	14.908308
_cell_angle_alpha	86.746001
_cell_angle_beta	89.824947
_cell_angle_gamma	86.730696
loop_
_atom_site_label
_atom_site_type_symbol
_atom_site_fract_x
_atom_site_fract_y
_atom_site_fract_z
Zn1	Zn	1.345180	-0.234441	0.587474
Zn2	Zn	1.678513	0.098893	0.920807
Zn3	Zn	2.011847	0.432226	1.254141
Zn4	Zn	1.353725	-0.305498	0.437082
Zn5	Zn	1.687059	0.027836	0.770415
Zn6	Zn	2.020392	0.361169	1.103748
Zn7	Zn	1.203500	-0.225812	0.428476
Zn8	Zn	1.536833	0.107521	0.761809
Zn9	Zn	1.870166	0.440855	1.095142
Zn10	Zn	1.194753	-0.304964	0.578733
Zn11	Zn	1.528087	0.028369	0.912067
Zn12	Zn	1.861420	0.361703	1.245400
O13	O	1.274290	-0.267679	0.507941
O14	O	1.607623	0.065655	0.841275
O15	O	1.940956	0.398988	1.174608
O16	O	1.472138	-0.247701	0.574784
O17	O	1.805471	0.085632	0.908117
O18	O	2.138804	0.418966	1.241450
O19	O	1.341034	-0.291539	0.310117
O20	O	1.674368	0.041794	0.643450
O21	O	2.007701	0.375127	0.976784
O22	O	1.222378	-0.164093	0.449624
O23	O	1.555711	0.169240	0.782957
O24	O	1.889044	0.502573	1.116290
O25	O	1.478416	-0.299906	0.464291
O26	O	1.811749	0.033427	0.797624
O27	O	2.145083	0.366760	1.130958
O28	O	1.326470	-0.170433	0.566439
O29	O	1.659803	0.162900	0.899772
O30	O	1.993137	0.496234	1.233106
O31	O	1.230664	-0.232995	0.303794
O32	O	1.563997	0.100339	0.637128
O33	O	1.897331	0.433672	0.970461
O34	O	1.076515	-0.232477	0.441148
O35	O	1.409849	0.100856	0.774482
O36	O	1.743182	0.434190	1.107815
O37	O	1.207471	-0.298997	0.705716
O38	O	1.540805	0.034337	1.039049
O39	O	1.874138	0.367670	1.372383
O40	O	1.070090	-0.290630	0.551542
O41	O	1.403423	0.042704	0.884875
O42	O	1.736756	0.376037	1.218209
O43	O	1.317989	-0.247183	0.712138
O44	O	1.651322	0.086150	1.045471
O45	O	1.984656	0.419483	1.378804
O46	O	1.332553	-0.368290	0.455816
O47	O	1.665887	-0.034957	0.789149
O48	O	1.999220	0.298377	1.122482
O49	O	1.215757	-0.367898	0.559887
O50	O	1.549091	-0.034565	0.893220
O51	O	1.882424	0.298769	1.226553
C52	C	1.040678	-0.260560	0.494463
C53	C	1.374011	0.072774	0.827797
C54	C	1.707344	0.406107	1.161130
C55	C	0.940736	-0.257525	0.488719
C56	C	1.274069	0.075808	0.822052
C57	C	1.607403	0.409141	1.155385
C58	C	0.746301	-0.312463	0.592722
C59	C	1.079635	0.020870	0.926056
C60	C	1.412968	0.354203	1.259389
C61	C	0.652397	-0.309614	0.587328
C62	C	0.985731	0.023719	0.920661
C63	C	1.319064	0.357053	1.253995
C64	C	0.659022	-0.248975	0.472541
C65	C	0.992355	0.084358	0.805874
C66	C	1.325688	0.417691	1.139207
C67	C	0.752926	-0.251825	0.477935
C68	C	1.086259	0.081509	0.811268
C69	C	1.419592	0.414842	1.144602
C70	C	0.796562	-0.283570	0.538027
C71	C	1.129896	0.049763	0.871360
C72	C	1.463229	0.383096	1.204694
C73	C	0.890468	-0.286421	0.543416
C74	C	1.223802	0.046912	0.876750
C75	C	1.557135	0.380245	1.210083
C76	C	0.897091	-0.225781	0.428634
C77	C	1.230424	0.107552	0.761967
C78	C	1.563757	0.440886	1.095301
C79	C	0.803187	-0.222932	0.423240
C80	C	1.136520	0.110402	0.756573
C81	C	1.469853	0.443735	1.089906
C82	C	1.274157	-0.384395	0.507858
C83	C	1.607490	-0.051062	0.841191
C84	C	1.940824	0.282272	1.174524
C85	C	1.274181	-0.434330	0.507857
C86	C	1.607514	-0.100997	0.841190
C87	C	1.940847	0.232337	1.174523
C88	C	1.328473	-0.747247	0.568848
C89	C	1.661806	-0.413914	0.902181
C90	C	1.995140	-0.080580	1.235515
C91	C	1.328568	-0.934924	0.568908
C92	C	1.661901	-0.601591	0.902241
C93	C	1.995234	-0.268258	1.235574
O94	O	1.374598	-0.961967	0.620701
O95	O	1.707931	-0.628633	0.954034
O96	O	2.041264	-0.295300	1.287368
N97	N	1.274437	-0.955128	0.508050
N98	N	1.607770	-0.621795	0.841383
N99	N	1.941103	-0.288461	1.174716
C100	C	1.220274	-0.928409	0.447176
C101	C	1.553607	-0.595076	0.780510
C102	C	1.886940	-0.261742	1.113843
O103	O	1.174227	-0.949900	0.395420
O104	O	1.507561	-0.616567	0.728754
O105	O	1.840894	-0.283233	1.062087
C106	C	1.220175	-0.740733	0.447122
C107	C	1.553508	-0.407399	0.780455
C108	C	1.886842	-0.074066	1.113788
C109	C	1.274316	-0.720532	0.507978
C110	C	1.607650	-0.387198	0.841311
C111	C	1.940983	-0.053865	1.174644
C112	C	1.382609	-0.727046	0.629700
C113	C	1.715943	-0.393712	0.963033
C114	C	2.049276	-0.060379	1.296366
C115	C	1.382589	-0.680129	0.629681
C116	C	1.715922	-0.346796	0.963014
C117	C	2.049255	-0.013462	1.296348
C118	C	1.328432	-0.653414	0.568811
C119	C	1.661765	-0.320080	0.902144
C120	C	1.995099	0.013253	1.235477
C121	C	1.274296	-0.673615	0.507959
C122	C	1.607629	-0.340282	0.841292
C123	C	1.940963	-0.006948	1.174626
C124	C	1.166008	-0.714015	0.386253
C125	C	1.499341	-0.380681	0.719587
C126	C	1.832675	-0.047348	1.052920
C127	C	1.165986	-0.667093	0.386247
C128	C	1.499320	-0.333759	0.719580
C129	C	1.832653	-0.000426	1.052913
C130	C	1.220128	-0.646892	0.447103
C131	C	1.553461	-0.313558	0.780436
C132	C	1.886794	0.019775	1.113769
C133	C	1.220119	-0.599983	0.447070
C134	C	1.553452	-0.266650	0.780403
C135	C	1.886785	0.066684	1.113736
N136	N	1.274250	-0.579779	0.507928
N137	N	1.607583	-0.246446	0.841261
N138	N	1.940916	0.086887	1.174594
C139	C	1.328406	-0.606495	0.568798
C140	C	1.661740	-0.273161	0.902132
C141	C	1.995073	0.060172	1.235465
C142	C	1.220331	-1.026942	0.447208
C143	C	1.553664	-0.693609	0.780542
C144	C	1.886997	-0.360276	1.113875
C145	C	1.220356	-1.073861	0.447221
C146	C	1.553690	-0.740528	0.780554
C147	C	1.887023	-0.407194	1.113887
C148	C	1.328649	-1.080373	0.568953
C149	C	1.661982	-0.747040	0.902287
C150	C	1.995316	-0.413707	1.235620
C151	C	1.328628	-1.033453	0.568936
C152	C	1.661961	-0.700120	0.902269
C153	C	1.995294	-0.366787	1.235603
C154	C	1.274462	-1.006739	0.508066
C155	C	1.607795	-0.673405	0.841400
C156	C	1.941128	-0.340072	1.174733
C157	C	1.328360	-0.507966	0.568754
C158	C	1.661693	-0.174633	0.902087
C159	C	1.995026	0.158700	1.235420
C160	C	1.328337	-0.461045	0.568727
C161	C	1.661671	-0.127712	0.902060
C162	C	1.995004	0.205621	1.235394
C163	C	1.220041	-0.454537	0.446998
C164	C	1.553375	-0.121204	0.780331
C165	C	1.886708	0.212129	1.113664
C166	C	1.220067	-0.501454	0.447021
C167	C	1.553400	-0.168121	0.780354
C168	C	1.886734	0.165212	1.113688
C169	C	1.274229	-0.528168	0.507906
C170	C	1.607562	-0.194835	0.841240
C171	C	1.940895	0.138499	1.174573
O172	O	1.174105	-0.572913	0.395310
O173	O	1.507438	-0.239580	0.728644
O174	O	1.840772	0.093754	1.061977
O175	O	1.374431	-0.584995	0.620560
O176	O	1.707764	-0.251662	0.953893
O177	O	2.041098	0.081671	1.287226
C178	C	1.328494	-0.794163	0.568867
C179	C	1.661827	-0.460830	0.902200
C180	C	1.995160	-0.127497	1.235534
C181	C	1.274357	-0.814365	0.508015
C182	C	1.607691	-0.481031	0.841349
C183	C	1.941024	-0.147698	1.174682
C184	C	1.220201	-0.787649	0.447145
C185	C	1.553534	-0.454316	0.780478
C186	C	1.886867	-0.120983	1.113812
C187	C	1.274383	-0.861284	0.508028
C188	C	1.607716	-0.527950	0.841361
C189	C	1.941050	-0.194617	1.174694
C190	C	1.328540	-0.887999	0.568898
C191	C	1.661873	-0.554666	0.902231
C192	C	1.995206	-0.221332	1.235565
C193	C	1.382671	-0.867795	0.629756
C194	C	1.716004	-0.534462	0.963089
C195	C	2.049337	-0.201129	1.296423
C196	C	1.382650	-0.820879	0.629737
C197	C	1.715984	-0.487545	0.963071
C198	C	2.049317	-0.154212	1.296404
C199	C	1.166070	-0.807853	0.386287
C200	C	1.499403	-0.474520	0.719620
C201	C	1.832736	-0.141186	1.052953
C202	C	1.166095	-0.854770	0.386310
C203	C	1.499429	-0.521437	0.719643
C204	C	1.832762	-0.188103	1.052977
C205	C	1.220252	-0.881485	0.447180
C206	C	1.553585	-0.548152	0.780514
C207	C	1.886919	-0.214819	1.113847
C208	C	1.508814	-0.274826	0.521472
C209	C	1.842147	0.058508	0.854806
C210	C	2.175481	0.391841	1.188139
C211	C	1.608754	-0.277871	0.527238
C212	C	1.942087	0.055462	0.860572
C213	C	2.275421	0.388795	1.193905
C214	C	1.260801	-0.273993	0.742464
C215	C	1.594135	0.059340	1.075797
C216	C	1.927468	0.392674	1.409130
C217	C	1.255053	-0.276684	0.842403
C218	C	1.588387	0.056649	1.175736
C219	C	1.921720	0.389983	1.509070
C220	C	1.274446	-0.150508	0.508046
C221	C	1.607780	0.182826	0.841380
C222	C	1.941113	0.516159	1.174713
C223	C	1.274513	-0.100576	0.508091
C224	C	1.607846	0.232757	0.841424
C225	C	1.941180	0.566090	1.174758
C226	C	1.287777	-0.261358	0.274334
C227	C	1.621110	0.071976	0.607668
C228	C	1.954444	0.405309	0.941001
C229	C	1.293699	-0.258546	0.174405
C230	C	1.627033	0.074788	0.507739
C231	C	1.960366	0.408121	0.841072
C232	C	1.359332	-0.227777	1.036888
C233	C	1.692666	0.105557	1.370222
C234	C	2.025999	0.438890	1.703555
C235	C	1.353934	-0.230304	1.130791
C236	C	1.687268	0.103030	1.464124
C237	C	2.020601	0.436363	1.797457
C238	C	1.238856	-0.284262	1.124111
C239	C	1.572189	0.049072	1.457444
C240	C	1.905523	0.382405	1.790778
C241	C	1.244254	-0.281735	1.030209
C242	C	1.577587	0.051598	1.363542
C243	C	1.910921	0.384932	1.696876
C244	C	1.304495	-0.253492	0.986601
C245	C	1.637828	0.079841	1.319934
C246	C	1.971162	0.413175	1.653268
C247	C	1.309897	-0.250968	0.892697
C248	C	1.643230	0.082366	1.226031
C249	C	1.976563	0.415699	1.559364
C250	C	1.194814	-0.304923	0.886019
C251	C	1.528148	0.028410	1.219353
C252	C	1.861481	0.361743	1.552686
C253	C	1.189417	-0.307450	0.979922
C254	C	1.522750	0.025883	1.313255
C255	C	1.856083	0.359216	1.646588
H256	H	0.611478	-0.333141	0.631869
H257	H	0.944811	0.000193	0.965202
H258	H	1.278145	0.333526	1.298535
H259	H	0.623476	-0.223127	0.423623
H260	H	0.956809	0.110206	0.756956
H261	H	1.290143	0.443539	1.090289
H262	H	1.121875	-0.645343	0.336680
H263	H	1.455208	-0.312010	0.670013
H264	H	1.788542	0.021323	1.003347
H265	H	0.767645	-0.197084	0.374317
H266	H	1.100978	0.136249	0.707650
H267	H	1.434311	0.469582	1.040984
H268	H	1.175950	-0.432779	0.397435
H269	H	1.509284	-0.099445	0.730768
H270	H	1.842617	0.233888	1.064102
H271	H	1.150164	-0.325864	0.845065
H272	H	1.483497	0.007469	1.178399
H273	H	1.816831	0.340803	1.511732
H274	H	1.398586	-0.209362	1.171731
H275	H	1.731920	0.123971	1.505064
H276	H	2.065253	0.457304	1.838398
H277	H	1.176279	-1.090305	0.397657
H278	H	1.509613	-0.756971	0.730990
H279	H	1.842946	-0.423638	1.064323
H280	H	0.938024	-0.202255	0.384095
H281	H	1.271357	0.131078	0.717428
H282	H	1.604690	0.464412	1.050762
H283	H	1.372457	-0.529711	0.618338
H284	H	1.705790	-0.196378	0.951671
H285	H	2.039124	0.136955	1.285005
H286	H	0.925996	-0.312271	0.592345
H287	H	1.259329	0.021062	0.925678
H288	H	1.592663	0.354396	1.259012
H289	H	1.175988	-0.517903	0.397460
H290	H	1.509322	-0.184569	0.730794
H291	H	1.842655	0.148764	1.064127
H292	H	1.189811	-0.307256	1.159633
H293	H	1.523144	0.026078	1.492966
H294	H	1.856477	0.359411	1.826300
H295	H	1.426770	-0.889555	0.679316
H296	H	1.760104	-0.556222	1.012649
H297	H	2.093437	-0.222889	1.345983
H298	H	1.372429	-0.444600	0.618283
H299	H	1.705762	-0.111266	0.951617
H300	H	2.039095	0.222067	1.284950
H301	H	1.140368	-0.330444	1.015440
H302	H	1.473702	0.002889	1.348773
H303	H	1.807035	0.336223	1.682107
H304	H	1.372747	-1.102133	0.618516
H305	H	1.706080	-0.768800	0.951849
H306	H	2.039413	-0.435466	1.285182
H307	H	1.358949	-0.227972	0.857193
H308	H	1.692283	0.105362	1.190527
H309	H	2.025616	0.438695	1.523860
H310	H	0.781831	-0.338314	0.641647
H311	H	1.115165	-0.004981	0.974980
H312	H	1.448498	0.328353	1.308314
H313	H	1.426672	-0.663684	0.679238
H314	H	1.760006	-0.330351	1.012571
H315	H	2.093339	0.002982	1.345904
H316	H	1.426710	-0.748793	0.679273
H317	H	1.760043	-0.415459	1.012607
H318	H	2.093376	-0.082126	1.345940
H319	H	1.372714	-1.017009	0.618491
H320	H	1.706047	-0.683675	0.951824
H321	H	2.039380	-0.350342	1.285157
H322	H	1.176221	-1.005194	0.397638
H323	H	1.509554	-0.671860	0.730972
H324	H	1.842888	-0.338527	1.064305
H325	H	1.426737	-0.804435	0.679292
H326	H	1.760070	-0.471101	1.012625
H327	H	2.093404	-0.137768	1.345959
H328	H	1.121921	-0.730454	0.336698
H329	H	1.455254	-0.397120	0.670031
H330	H	1.788587	-0.063787	1.003364
H331	H	1.122009	-0.871213	0.336745
H332	H	1.455342	-0.537880	0.670079
H333	H	1.788676	-0.204546	1.003412
H334	H	1.121968	-0.786105	0.336720
H335	H	1.455301	-0.452771	0.670053
H336	H	1.788634	-0.119438	1.003386
H337	H	1.408387	-0.204783	1.001382
H338	H	1.741721	0.128551	1.334716
H339	H	2.075054	0.461884	1.668049
