data_functionalizedCrystal
_audit_creation_method	'MofGen! by Chris Wilmer'
_symmetry_space_group_name_H-M	'P1'
_symmetry_Int_Tables_number	1
_symmetry_cell_setting	triclinic
loop_
_symmetry_equiv_pos_as_xyz
  x,y,z
_cell_length_a	26.210047
_cell_length_b	11.026607
_cell_length_c	11.026607
_cell_angle_alpha	108.586017
_cell_angle_beta	90.007718
_cell_angle_gamma	89.989682
loop_
_atom_site_label
_atom_site_type_symbol
_atom_site_fract_x
_atom_site_fract_y
_atom_site_fract_z
O1	O	0.042428	-1.726740	-0.533608
O2	O	0.042429	-1.360160	-0.472844
O3	O	0.042426	-1.513068	-0.319936
O4	O	0.042430	-1.573832	-0.686516
O5	O	-0.042432	-1.513037	-0.319958
O6	O	-0.042429	-1.360129	-0.472866
O7	O	-0.042430	-1.726709	-0.533630
Cu8	Cu	-0.050178	-1.543416	-0.503250
Cu9	Cu	0.050176	-1.543453	-0.503224
O10	O	-0.042428	-1.573801	-0.686538
C11	C	-0.000000	-1.312485	-0.461645
C12	C	-0.000000	-1.170471	-0.428228
N13	N	-0.120762	-1.543399	-0.503270
C14	C	-0.000002	-1.501843	-0.272287
C15	C	-0.000000	-1.468426	-0.130273
C16	C	-0.473277	-1.611156	-0.435534
C17	C	-0.686936	-1.611180	-0.435522
O18	O	-0.714558	-1.668741	-0.377925
N19	N	-0.713656	-1.543453	-0.503197
C20	C	-0.686958	-1.475709	-0.570873
O21	O	-0.714588	-1.418093	-0.628424
C22	C	-0.473301	-1.475678	-0.570877
C23	C	-0.446583	-1.543420	-0.503208
C24	C	-0.446559	-1.678891	-0.367869
C25	C	-0.393148	-1.678890	-0.367878
C26	C	-0.366454	-1.611154	-0.435552
C27	C	-0.393172	-1.543419	-0.503217
C28	C	-0.446604	-1.407927	-0.638544
C29	C	-0.393186	-1.407923	-0.638537
C30	C	-0.366469	-1.475664	-0.570868
C31	C	-0.313066	-1.475682	-0.570900
N32	N	-0.286346	-1.543408	-0.503225
C33	C	-0.313040	-1.611144	-0.435551
C34	C	-0.799132	-1.475732	-0.570869
C35	C	-0.852546	-1.475741	-0.570870
C36	C	-0.852519	-1.611211	-0.435517
C37	C	-0.799104	-1.611208	-0.435524
C38	C	-0.772411	-1.543459	-0.503194
C39	C	-0.200872	-1.611138	-0.435576
C40	C	-0.147456	-1.611135	-0.435596
C41	C	-0.147487	-1.475661	-0.570943
C42	C	-0.200898	-1.475668	-0.570930
C43	C	-0.227590	-1.543410	-0.503237
O44	O	-0.285411	-1.418139	-0.628455
O45	O	-0.285401	-1.668729	-0.377986
C46	C	-0.526689	-1.611157	-0.435524
C47	C	-0.553406	-1.543422	-0.503189
C48	C	-0.526712	-1.475686	-0.570863
C49	C	-0.606820	-1.543431	-0.503190
C50	C	-0.633514	-1.611167	-0.435516
C51	C	-0.606794	-1.678894	-0.367841
C52	C	-0.553382	-1.678893	-0.367851
C53	C	-0.553433	-1.407959	-0.638538
C54	C	-0.606844	-1.407967	-0.638525
C55	C	-0.633538	-1.475703	-0.570851
N56	N	0.120760	-1.543477	-0.503196
C57	C	-0.000000	-1.774384	-0.544828
C58	C	0.000003	-1.916398	-0.578245
C59	C	0.000001	-1.116821	-0.520498
C60	C	0.000002	-0.970043	-0.485962
C61	C	0.000001	-1.585026	-0.734187
C62	C	0.000003	-1.618443	-0.876200
C63	C	0.000000	-1.560695	-0.076624
C64	C	0.000002	-1.526160	0.070155
H65	H	-0.222598	-1.666297	-0.380453
O66	O	-0.773182	-1.409767	-0.636419
C67	C	-0.712873	-1.241688	-0.625485
C68	C	-0.742236	-1.316258	-0.551080
H69	H	-0.687839	-1.166088	-0.556525
H70	H	-0.741126	-1.193198	-0.673819
H71	H	-0.687889	-1.310648	-0.701225
H72	H	-0.767221	-1.247384	-0.475280
H73	H	-0.713955	-1.364767	-0.502836
O74	O	-0.367337	-1.342092	-0.704391
C75	C	-0.373005	-1.207654	-0.838569
C76	C	-0.402341	-1.282171	-0.764066
H77	H	-0.401293	-1.159167	-0.886813
H78	H	-0.348013	-1.276527	-0.914363
H79	H	-0.347985	-1.132024	-0.769600
H80	H	-0.427389	-1.357803	-0.832936
H81	H	-0.427302	-1.213219	-0.688256
H82	H	-0.000001	-1.179555	-0.625061
O83	O	0.000070	-1.743151	0.048846
C84	C	0.044048	-1.909391	-0.113697
C85	C	0.044028	-1.768130	-0.028911
H86	H	0.079589	-1.929638	-0.176565
H87	H	0.008559	-1.929680	-0.176771
H88	H	0.044023	-1.973460	-0.050444
H89	H	0.044071	-1.703969	-0.092065
H90	H	0.079514	-1.747945	0.034172
H91	H	-0.874263	-1.666366	-0.380416
O92	O	-0.472604	-1.342021	-0.704085
C93	C	-0.532885	-1.173812	-0.693063
C94	C	-0.503484	-1.248379	-0.618686
H95	H	-0.557850	-1.098068	-0.624046
H96	H	-0.557927	-1.242645	-0.768755
H97	H	-0.504611	-1.125463	-0.741451
H98	H	-0.531721	-1.296734	-0.570219
H99	H	-0.478434	-1.179487	-0.543065
O100	O	0.000094	-1.401388	0.144925
C101	C	0.044043	-1.198998	0.203337
C102	C	0.044008	-1.340277	0.118606
H103	H	0.079538	-1.149542	0.182069
H104	H	0.044078	-1.193294	0.308403
H105	H	0.008514	-1.149543	0.182202
H106	H	0.079531	-1.389820	0.139628
H107	H	0.043946	-1.345889	0.013565
O108	O	-0.000091	-1.095696	-0.303463
C109	C	-0.044037	-1.037271	-0.101063
C110	C	-0.044004	-1.122002	-0.242342
H111	H	-0.079532	-1.058527	-0.051598
H112	H	-0.044069	-0.932204	-0.095359
H113	H	-0.008507	-1.058416	-0.051616
H114	H	-0.079527	-1.100968	-0.291876
H115	H	-0.043945	-1.227042	-0.247954
O116	O	-0.226776	-1.409753	-0.636682
C117	C	-0.221158	-1.275422	-0.770970
C118	C	-0.191794	-1.350013	-0.696554
H119	H	-0.192888	-1.227125	-0.819418
H120	H	-0.246146	-1.199664	-0.702036
H121	H	-0.246186	-1.344342	-0.846624
H122	H	-0.166739	-1.281192	-0.620898
H123	H	-0.166838	-1.425787	-0.765567
H124	H	0.000014	-0.907314	-0.381393
O125	O	-0.527512	-1.744712	-0.301997
C126	C	-0.533143	-1.879139	-0.167807
C127	C	-0.562500	-1.804627	-0.242315
H128	H	-0.561418	-1.927622	-0.119557
H129	H	-0.508152	-1.810262	-0.092017
H130	H	-0.508120	-1.954772	-0.236774
H131	H	-0.587551	-1.728993	-0.173447
H132	H	-0.587459	-1.873583	-0.318121
H133	H	0.000003	-1.363863	-0.067540
H134	H	-0.628594	-1.352808	-0.693641
H135	H	-0.125704	-1.666303	-0.380493
O136	O	-0.632809	-1.744580	-0.302121
C137	C	-0.715092	-1.804658	-0.242200
C138	C	-0.685692	-1.730205	-0.316658
H139	H	-0.757853	-1.793085	-0.253949
H140	H	-0.704627	-1.765751	-0.136466
H141	H	-0.704557	-1.910346	-0.281137
H142	H	-0.696211	-1.624507	-0.277830
H143	H	-0.696160	-1.769217	-0.422383
H144	H	-0.371398	-1.734046	-0.312772
O145	O	0.000074	-0.991079	-0.703048
C146	C	0.044059	-1.049584	-0.905399
C147	C	0.044035	-0.964919	-0.764096
H148	H	0.079603	-1.028484	-0.954791
H149	H	0.008572	-1.028403	-0.954977
H150	H	0.044034	-1.154624	-0.911010
H151	H	0.044078	-0.859852	-0.758368
H152	H	0.079519	-0.986209	-0.714581
H153	H	-0.000003	-1.665258	-0.139357
H154	H	-0.468289	-1.734048	-0.312755
H155	H	-0.777354	-1.666368	-0.380421
H156	H	-0.125744	-1.420515	-0.626047
H157	H	-0.531703	-1.352798	-0.693645
H158	H	-0.874296	-1.420596	-0.625989
