data_functionalizedCrystal
_audit_creation_method	'MofGen! by Chris Wilmer'
_symmetry_space_group_name_H-M	'P1'
_symmetry_Int_Tables_number	1
_symmetry_cell_setting	triclinic
loop_
_symmetry_equiv_pos_as_xyz
  x,y,z
_cell_length_a	16.992694
_cell_length_b	11.295483
_cell_length_c	16.992695
_cell_angle_alpha	85.625069
_cell_angle_beta	90.668223
_cell_angle_gamma	94.379711
loop_
_atom_site_label
_atom_site_type_symbol
_atom_site_fract_x
_atom_site_fract_y
_atom_site_fract_z
O1	O	1.055813	0.098876	0.161955
O2	O	1.555813	0.598876	0.661955
O3	O	0.827415	0.098911	0.160122
O4	O	1.327415	0.598911	0.660122
O5	O	0.940698	0.098884	0.046839
O6	O	1.440698	0.598884	0.546839
O7	O	0.942530	0.098903	0.275238
O8	O	1.442530	0.598903	0.775238
O9	O	0.930747	-0.099164	0.056773
O10	O	1.430747	0.400836	0.556773
O11	O	0.817464	-0.099137	0.170056
O12	O	1.317464	0.400863	0.670056
O13	O	1.045862	-0.099172	0.171889
O14	O	1.545862	0.400828	0.671889
Cu15	Cu	0.930755	-0.117238	0.171879
Cu16	Cu	1.430755	0.382762	0.671879
Cu17	Cu	0.942523	0.116977	0.160132
Cu18	Cu	1.442523	0.616977	0.660132
O19	O	0.932579	-0.099146	0.285172
O20	O	1.432579	0.400854	0.785172
C21	C	0.793080	-0.000109	0.162733
C22	C	1.293080	0.499891	0.662733
C23	C	0.705596	-0.000096	0.155703
C24	C	1.205596	0.499904	0.655703
N25	N	0.922483	-0.281973	0.180142
N26	N	1.422483	0.218027	0.680142
C27	C	0.659605	-0.000091	0.223521
C28	C	1.159605	0.499909	0.723521
C29	C	0.577403	-0.000108	0.216913
C30	C	1.077403	0.499892	0.716913
C31	C	0.541194	-0.000121	0.142486
C32	C	1.041194	0.499879	0.642486
C33	C	0.587191	-0.000129	0.074664
C34	C	1.087191	0.499871	0.574664
C35	C	0.669391	-0.000121	0.081273
C36	C	1.169391	0.499879	0.581273
C37	C	0.295878	-0.000155	0.115093
C38	C	0.795878	0.499845	0.615093
C39	C	0.213673	-0.000160	0.108489
C40	C	0.713673	0.499840	0.608489
C41	C	0.203891	-0.000141	0.250739
C42	C	0.703891	0.499859	0.750739
C43	C	0.286093	-0.000125	0.257342
C44	C	0.786093	0.499875	0.757342
C45	C	0.332082	-0.000140	0.189519
C46	C	0.832082	0.499860	0.689519
N47	N	0.457172	-0.000135	0.135730
N48	N	0.957172	0.499865	0.635730
N49	N	0.416103	-0.000135	0.196277
N50	N	0.916103	0.499865	0.696277
C51	C	1.010339	-0.531283	0.092341
C52	C	1.510339	-0.031283	0.592341
C53	C	1.004094	-0.655945	0.098591
C54	C	1.504094	-0.155945	0.598591
C55	C	0.903745	-0.655961	0.198887
C56	C	1.403745	-0.155961	0.698887
C57	C	0.909990	-0.531299	0.192637
C58	C	1.409990	-0.031299	0.692637
C59	C	0.963290	-0.468964	0.139363
C60	C	1.463290	0.031036	0.639363
C61	C	0.969538	-0.344300	0.133118
C62	C	1.469538	0.155700	0.633118
C63	C	0.869186	-0.344319	0.233409
C64	C	1.369186	0.155681	0.733409
C65	C	0.862941	-0.468981	0.239659
C66	C	1.362941	0.031019	0.739659
C67	C	1.080198	-0.000150	0.169278
C68	C	1.580198	0.499850	0.669278
C69	C	1.167682	-0.000155	0.176307
C70	C	1.667682	0.499845	0.676307
C71	C	0.933367	-0.000139	0.022446
C72	C	1.433367	0.499861	0.522446
C73	C	0.926338	-0.000138	-0.065039
C74	C	1.426338	0.499862	0.434961
N75	N	0.950800	0.281711	0.151863
N76	N	1.450800	0.781711	0.651863
C77	C	0.994156	-0.000150	-0.111029
C78	C	1.494156	0.499850	0.388971
C79	C	0.987547	-0.000137	-0.193231
C80	C	1.487547	0.499863	0.306769
C81	C	0.913120	-0.000122	-0.229440
C82	C	1.413120	0.499878	0.270560
C83	C	0.845298	-0.000107	-0.183444
C84	C	1.345298	0.499893	0.316556
C85	C	0.851908	-0.000111	-0.101244
C86	C	1.351908	0.499889	0.398756
C87	C	0.885727	-0.000101	-0.474755
C88	C	1.385727	0.499899	0.025245
C89	C	0.879122	-0.000101	-0.556960
C90	C	1.379122	0.499899	-0.056960
C91	C	1.021372	-0.000130	-0.566742
C92	C	1.521372	0.499870	-0.066742
C93	C	1.027975	-0.000141	-0.484540
C94	C	1.527975	0.499859	0.015460
C95	C	0.960153	-0.000119	-0.438552
C96	C	1.460153	0.499881	0.061448
N97	N	0.906364	-0.000113	-0.313462
N98	N	1.406364	0.499887	0.186538
N99	N	0.966911	-0.000119	-0.354531
N100	N	1.466911	0.499881	0.145469
C101	C	0.939911	-0.000119	0.309565
C102	C	1.439911	0.499881	0.809565
C103	C	0.946940	-0.000113	0.397049
C104	C	1.446940	0.499887	0.897049
H105	H	0.539961	-0.000103	0.272138
H106	H	1.039961	0.499897	0.772138
H107	H	0.830877	-0.293565	0.271700
H108	H	1.330877	0.206435	0.771700
N109	N	1.054848	-0.723163	0.047883
N110	N	1.554848	-0.223163	0.547883
H111	H	1.043374	-0.701473	-0.009649
H112	H	1.543374	-0.201473	0.490351
H113	H	1.112349	-0.701421	0.059464
H114	H	1.612349	-0.201421	0.559464
H115	H	0.784698	-0.000087	-0.212932
H116	H	1.284698	0.499913	0.287068
N117	N	0.846252	-0.723204	0.256332
N118	N	1.346252	-0.223204	0.756332
H119	H	0.849435	-0.811632	0.253150
H120	H	1.349435	-0.311632	0.753150
H121	H	0.859931	-0.701422	0.311662
H122	H	1.359931	-0.201422	0.811662
H123	H	0.315569	-0.000101	0.317947
H124	H	0.815569	0.499899	0.817947
N125	N	0.154289	-0.000128	0.323887
N126	N	0.654289	0.499872	0.823887
H127	H	0.096722	-0.000136	0.308410
H128	H	0.596722	0.499864	0.808410
H129	H	0.162841	-0.073543	0.359783
H130	H	0.662841	0.426457	0.859783
H131	H	0.819543	-0.519748	0.283032
H132	H	1.319543	-0.019748	0.783032
N133	N	0.548139	-0.000132	-0.005612
N134	N	1.048139	0.499868	0.494388
H135	H	0.589750	-0.000135	-0.047571
H136	H	1.089750	0.499865	0.452429
H137	H	0.510564	-0.073552	-0.007771
H138	H	1.010564	0.426448	0.492229
N139	N	1.060692	-0.000157	-0.242835
N140	N	1.560692	0.499843	0.257165
H141	H	1.108843	-0.000178	-0.207423
H142	H	1.608843	0.499822	0.292577
H143	H	1.057352	-0.073576	-0.273474
H144	H	1.557352	0.426424	0.226526
H145	H	1.053743	-0.480529	0.048969
H146	H	1.553743	0.019471	0.548969
H147	H	1.054762	-0.000170	-0.081554
H148	H	1.554762	0.499830	0.418446
H149	H	0.706836	-0.000124	0.026048
H150	H	1.206836	0.499876	0.526048
H151	H	0.333313	-0.000168	0.059867
H152	H	0.833313	0.499832	0.559867
N153	N	1.108249	-0.000164	-0.445487
N154	N	1.608249	0.499836	0.054513
H155	H	1.150210	-0.000170	-0.487096
H156	H	1.650210	0.499830	0.012904
H157	H	1.117781	0.073250	-0.415272
H158	H	1.617781	0.573250	0.084728
H159	H	1.076589	-0.000145	-0.604195
H160	H	1.576589	0.499855	-0.104195
H161	H	0.818511	-0.000108	-0.586438
H162	H	1.318511	0.499892	-0.086438
H163	H	0.830501	-0.000084	-0.437321
H164	H	1.330501	0.499916	0.062679
N165	N	0.174627	-0.000193	0.028206
N166	N	0.674627	0.499807	0.528206
H167	H	0.137059	-0.073613	0.025984
H168	H	0.637059	0.426387	0.525984
H169	H	0.144467	0.073268	0.018647
H170	H	0.644467	0.573268	0.518647
N171	N	0.778768	-0.000103	-0.051627
N172	N	1.278768	0.499897	0.448373
H173	H	0.750211	0.073318	-0.067469
H174	H	1.250211	0.573318	0.432531
H175	H	0.742892	-0.073564	-0.060128
H176	H	1.242892	0.426436	0.439872
N177	N	0.698650	-0.000066	0.303799
N178	N	1.198650	0.499934	0.803799
H179	H	0.678525	-0.073482	0.337426
H180	H	1.178525	0.426518	0.837426
H181	H	0.757695	-0.000012	0.297633
H182	H	1.257695	0.499988	0.797633
N183	N	1.027025	-0.277062	0.075665
N184	N	1.527025	0.222938	0.575665
H185	H	1.055881	-0.335462	0.046824
H186	H	1.555881	0.164538	0.546824
H187	H	0.997298	-0.225345	0.036367
H188	H	1.497298	0.274655	0.536367
