data_functionalizedCrystal
_audit_creation_method	'MofGen! by Chris Wilmer'
_symmetry_space_group_name_H-M	'P1'
_symmetry_Int_Tables_number	1
_symmetry_cell_setting	triclinic
loop_
_symmetry_equiv_pos_as_xyz
  x,y,z
_cell_length_a	14.421503
_cell_length_b	11.792241
_cell_length_c	11.792241
_cell_angle_alpha	84.193416
_cell_angle_beta	90.004173
_cell_angle_gamma	89.996519
loop_
_atom_site_label
_atom_site_type_symbol
_atom_site_fract_x
_atom_site_fract_y
_atom_site_fract_z
O1	O	0.077022	-1.506916	-0.155552
O2	O	0.327022	-1.256916	0.094448
O3	O	0.577022	-1.006916	0.344448
O4	O	0.827022	-0.756916	0.594448
O5	O	0.077044	-1.176575	-0.171585
O6	O	0.327044	-0.926575	0.078415
O7	O	0.577044	-0.676575	0.328415
O8	O	0.827044	-0.426575	0.578415
O9	O	0.077026	-1.349761	0.001602
O10	O	0.327026	-1.099761	0.251602
O11	O	0.577026	-0.849761	0.501602
O12	O	0.827026	-0.599761	0.751602
O13	O	0.077040	-1.333729	-0.328739
O14	O	0.327040	-1.083729	-0.078739
O15	O	0.577040	-0.833729	0.171261
O16	O	0.827040	-0.583729	0.421261
O17	O	-0.077198	-1.349733	0.001576
O18	O	0.172802	-1.099733	0.251576
O19	O	0.422802	-0.849733	0.501576
O20	O	0.672802	-0.599733	0.751576
O21	O	-0.077180	-1.176546	-0.171611
O22	O	0.172820	-0.926546	0.078389
O23	O	0.422820	-0.676546	0.328389
O24	O	0.672820	-0.426546	0.578389
O25	O	-0.077201	-1.506887	-0.155578
O26	O	0.172799	-1.256887	0.094422
O27	O	0.422799	-1.006887	0.344422
O28	O	0.672799	-0.756887	0.594422
Cu29	Cu	-0.091272	-1.341714	-0.163597
Cu30	Cu	0.158728	-1.091714	0.086403
Cu31	Cu	0.408728	-0.841714	0.336403
Cu32	Cu	0.658728	-0.591714	0.586403
Cu33	Cu	0.091115	-1.341748	-0.163566
Cu34	Cu	0.341115	-1.091748	0.086434
Cu35	Cu	0.591115	-0.841748	0.336434
Cu36	Cu	0.841115	-0.591748	0.586434
O37	O	-0.077184	-1.333700	-0.328765
O38	O	0.172816	-1.083700	-0.078765
O39	O	0.422816	-0.833700	0.171235
O40	O	0.672816	-0.583700	0.421235
C41	C	-0.000065	-1.134269	-0.170591
C42	C	0.249935	-0.884269	0.079409
C43	C	0.499935	-0.634269	0.329409
C44	C	0.749935	-0.384269	0.579409
C45	C	-0.000057	-1.008255	-0.167576
C46	C	0.249943	-0.758255	0.082424
C47	C	0.499943	-0.508255	0.332424
C48	C	0.749943	-0.258255	0.582424
N49	N	-0.219554	-1.341698	-0.163618
N50	N	0.030446	-1.091698	0.086382
N51	N	0.280446	-0.841698	0.336382
N52	N	0.530446	-0.591698	0.586382
C53	C	-0.000086	-1.348740	0.043880
C54	C	0.249914	-1.098740	0.293880
C55	C	0.499914	-0.848740	0.543880
C56	C	0.749914	-0.598740	0.793880
C57	C	-0.000084	-1.345726	0.169894
C58	C	0.249916	-1.095726	0.419894
C59	C	0.499916	-0.845726	0.669894
C60	C	0.749916	-0.595726	0.919894
C61	C	-0.469199	-1.261602	-0.243663
C62	C	-0.219199	-1.011602	0.006337
C63	C	0.030801	-0.761602	0.256337
C64	C	0.280801	-0.511602	0.506337
C65	C	-0.531008	-1.364297	-0.266324
C66	C	-0.281008	-1.114297	-0.016324
C67	C	-0.031008	-0.864297	0.233676
C68	C	0.218992	-0.614297	0.483676
C69	C	-0.408715	-1.341726	-0.163591
C70	C	-0.158715	-1.091726	0.086409
C71	C	0.091285	-0.841726	0.336409
C72	C	0.341285	-0.591726	0.586409
C73	C	-0.531001	-1.239057	-0.140956
C74	C	-0.281001	-0.989057	0.109044
C75	C	-0.031001	-0.739057	0.359044
C76	C	0.218999	-0.489057	0.609044
C77	C	-0.591437	-1.341743	-0.163567
C78	C	-0.341437	-1.091743	0.086433
C79	C	-0.091437	-0.841743	0.336433
C80	C	0.158563	-0.591743	0.586433
C81	C	-0.469163	-1.444473	-0.186303
C82	C	-0.219163	-1.194473	0.063697
C83	C	0.030837	-0.944473	0.313697
C84	C	0.280837	-0.694473	0.563697
C85	C	-0.469150	-1.319165	-0.060891
C86	C	-0.219150	-1.069165	0.189109
C87	C	0.030850	-0.819165	0.439109
C88	C	0.280850	-0.569165	0.689109
C89	C	-0.530931	-1.421934	-0.083508
C90	C	-0.280931	-1.171934	0.166492
C91	C	-0.030931	-0.921934	0.416492
C92	C	0.219069	-0.671934	0.666492
C93	C	-0.303454	-1.341714	-0.163607
C94	C	-0.053454	-1.091714	0.086393
C95	C	0.196546	-0.841714	0.336393
C96	C	0.446546	-0.591714	0.586393
C97	C	-0.696695	-1.341766	-0.163550
C98	C	-0.446695	-1.091766	0.086450
C99	C	-0.196695	-0.841766	0.336450
C100	C	0.053305	-0.591766	0.586450
N101	N	0.219396	-1.341772	-0.163537
N102	N	0.469396	-1.091772	0.086463
N103	N	0.719396	-0.841772	0.336463
N104	N	0.969396	-0.591772	0.586463
C105	C	-0.000090	-1.549192	-0.156572
C106	C	0.249910	-1.299192	0.093428
C107	C	0.499910	-1.049192	0.343428
C108	C	0.749910	-0.799192	0.593428
C109	C	-0.000092	-1.675206	-0.159587
C110	C	0.249908	-1.425206	0.090413
C111	C	0.499908	-1.175206	0.340413
C112	C	0.749908	-0.925206	0.590413
C113	C	-0.000084	-0.777543	-0.162034
C114	C	0.249916	-0.527543	0.087966
C115	C	0.499916	-0.277543	0.337966
C116	C	0.749916	-0.027543	0.587966
C117	C	-0.000069	-0.905928	-0.165113
C118	C	0.249931	-0.655928	0.084887
C119	C	0.499931	-0.405928	0.334887
C120	C	0.749931	-0.155928	0.584887
C121	C	-0.000070	-1.334721	-0.371043
C122	C	0.249930	-1.084721	-0.121043
C123	C	0.499930	-0.834721	0.128957
C124	C	0.749930	-0.584721	0.378957
C125	C	-0.000065	-1.337736	-0.497057
C126	C	0.249935	-1.087736	-0.247057
C127	C	0.499935	-0.837736	0.002943
C128	C	0.749935	-0.587736	0.252943
C129	C	-0.000069	-1.340183	0.400606
C130	C	0.249931	-1.090183	0.650606
C131	C	0.499931	-0.840183	0.900606
C132	C	0.749931	-0.590183	1.150606
C133	C	-0.000077	-1.343262	0.272221
C134	C	0.249923	-1.093262	0.522221
C135	C	0.499923	-0.843262	0.772221
C136	C	0.749923	-0.593262	1.022221
H137	H	-0.442094	-1.193914	-0.311433
H138	H	-0.192094	-0.943914	-0.061433
H139	H	0.057906	-0.693914	0.188567
H140	H	0.307906	-0.443914	0.438567
H141	H	-0.557866	-1.489774	-0.015780
H142	H	-0.307866	-1.239774	0.234220
H143	H	-0.057866	-0.989774	0.484220
H144	H	0.192134	-0.739774	0.734220
Br145	Br	-0.576293	-1.396135	-0.411062
Br146	Br	-0.326293	-1.146135	-0.161062
Br147	Br	-0.076293	-0.896135	0.088938
Br148	Br	0.173707	-0.646135	0.338938
H149	H	-0.441959	-1.300034	0.025923
H150	H	-0.191959	-1.050034	0.275923
H151	H	0.058041	-0.800034	0.525923
H152	H	0.308041	-0.550034	0.775923
H153	H	-0.442114	-1.531325	-0.205540
H154	H	-0.192114	-1.281325	0.044460
H155	H	0.057886	-1.031325	0.294460
H156	H	0.307886	-0.781325	0.544460
H157	H	-0.558166	-1.152225	-0.121823
H158	H	-0.308166	-0.902225	0.128177
H159	H	-0.058166	-0.652225	0.378177
H160	H	0.191834	-0.402225	0.628177
