data_functionalizedCrystal
_audit_creation_method	'MofGen! by Chris Wilmer'
_symmetry_space_group_name_H-M	'P1'
_symmetry_Int_Tables_number	1
_symmetry_cell_setting	triclinic
loop_
_symmetry_equiv_pos_as_xyz
  x,y,z
_cell_length_a	19.188930
_cell_length_b	23.532407
_cell_length_c	18.266242
_cell_angle_alpha	89.988983
_cell_angle_beta	89.977082
_cell_angle_gamma	82.996728
loop_
_atom_site_label
_atom_site_type_symbol
_atom_site_fract_x
_atom_site_fract_y
_atom_site_fract_z
O1	O	0.925922	0.071102	-0.061124
O2	O	0.722581	0.080673	-0.061074
O3	O	0.830383	-0.007031	-0.061087
O4	O	0.818120	0.158806	-0.061111
O5	O	0.830365	-0.007035	0.060675
O6	O	0.722562	0.080669	0.060688
O7	O	0.925904	0.071097	0.060638
Zn8	Zn	0.824230	0.075882	0.079995
Zn9	Zn	0.824254	0.075888	-0.080431
O10	O	0.818102	0.158802	0.060651
C11	C	0.696561	0.080361	-0.000187
C12	C	0.619060	0.079431	-0.000168
C13	C	0.573972	0.130893	-0.000187
C14	C	0.501151	0.130019	-0.000194
C15	C	0.473421	0.077680	-0.000198
C16	C	0.518519	0.026211	-0.000175
C17	C	0.591339	0.027086	-0.000160
N18	N	0.365575	0.037674	-0.041663
N19	N	0.296399	0.036846	-0.041679
C20	C	0.254021	0.075038	-0.000243
N21	N	0.283431	0.114099	0.041201
N22	N	0.352613	0.114929	0.041214
C23	C	0.394462	0.076724	-0.000214
C24	C	0.129971	0.125556	-0.000269
C25	C	0.057149	0.124680	-0.000272
C26	C	0.074520	0.020870	-0.000260
C27	C	0.147340	0.021748	-0.000250
C28	C	0.175061	0.074092	-0.000257
C29	C	0.830062	-0.028250	-0.000204
C30	C	0.829123	-0.091469	-0.000198
C31	C	0.887029	-0.490449	-0.000252
C32	C	0.886157	-0.549851	-0.000258
O33	O	0.939837	-0.586482	-0.000298
N34	N	0.822068	-0.572613	-0.000242
C35	C	0.758848	-0.535970	-0.000228
O36	O	0.704255	-0.560786	-0.000215
C37	C	0.759721	-0.476569	-0.000228
C38	C	0.823814	-0.453810	-0.000236
C39	C	0.951117	-0.467690	-0.000262
C40	C	0.951989	-0.408292	-0.000255
C41	C	0.888773	-0.371653	-0.000239
C42	C	0.824685	-0.394412	-0.000230
C43	C	0.696501	-0.439927	-0.000219
C44	C	0.697379	-0.380523	-0.000219
C45	C	0.761472	-0.357764	-0.000228
C46	C	0.762342	-0.298376	-0.000207
N47	N	0.826430	-0.275614	-0.000223
C48	C	0.889646	-0.312252	-0.000239
C49	C	0.757019	-0.660717	-0.000229
C50	C	0.756146	-0.720116	-0.000224
C51	C	0.883455	-0.733993	-0.000256
C52	C	0.884328	-0.674592	-0.000255
C53	C	0.821108	-0.637954	-0.000245
C54	C	0.891472	-0.187512	-0.000224
C55	C	0.892339	-0.128108	-0.000214
C56	C	0.765029	-0.114236	-0.000187
C57	C	0.764163	-0.173634	-0.000193
C58	C	0.827390	-0.210272	-0.000214
O59	O	0.708690	-0.261710	-0.000170
O60	O	0.944230	-0.287428	-0.000261
C61	C	0.951923	0.071410	-0.000251
C62	C	1.029425	0.072340	-0.000275
C63	C	0.818423	0.180021	-0.000234
C64	C	0.819362	0.243240	-0.000244
N65	N	0.824219	0.075878	0.189482
N66	N	0.824271	0.075888	-0.189918
C67	C	0.871970	0.037062	0.227785
C68	C	0.871974	0.037059	0.304430
C69	C	0.824235	0.075883	0.342769
C70	C	0.776475	0.114702	0.304457
C71	C	0.776468	0.114700	0.227813
N72	N	0.814998	0.126298	0.463096
N73	N	0.815010	0.126298	0.535904
C74	C	0.824254	0.075891	0.573691
N75	N	0.833500	0.025481	0.535921
N76	N	0.833492	0.025482	0.463106
C77	C	0.824238	0.075889	0.425876
C78	C	0.872012	0.037068	0.695102
C79	C	0.872012	0.037065	0.771748
C80	C	0.776516	0.114713	0.771773
C81	C	0.776513	0.114711	0.695128
C82	C	0.824265	0.075890	0.656797
H83	H	0.051943	-0.021745	-0.000309
H84	H	0.713561	-0.084394	-0.000171
O85	O	0.730074	0.152338	0.341777
C86	C	0.687211	0.121924	0.386132
H87	H	0.715333	0.077303	0.397611
H88	H	0.676007	0.145719	0.440026
H89	H	0.635635	0.118156	0.356625
H90	H	0.705535	-0.630888	-0.000215
O91	O	0.191043	-0.028295	-0.000272
C92	C	0.150957	-0.074680	-0.000258
H93	H	0.096515	-0.060088	-0.023322
H94	H	0.178090	-0.110726	-0.035600
H95	H	0.145850	-0.090735	0.058158
O96	O	0.693904	-0.742248	-0.000080
C97	C	0.689581	-0.776217	0.062969
H98	H	0.725961	-0.762267	0.107041
H99	H	0.633270	-0.770752	0.084148
H100	H	0.706018	-0.823098	0.048702
O101	O	0.634179	-0.461930	-0.000247
C102	C	0.578580	-0.416844	-0.000219
H103	H	0.597880	-0.376536	-0.023269
H104	H	0.533814	-0.429138	-0.035566
H105	H	0.559087	-0.408400	0.058199
H106	H	0.737582	0.146309	0.196626
O107	O	0.918417	-0.000700	0.657975
C108	C	0.960572	-0.034958	0.708223
H109	H	0.931956	-0.035543	0.762871
H110	H	0.971539	-0.080462	0.686084
H111	H	1.012308	-0.016571	0.716344
O112	O	0.635240	-0.022854	-0.000116
C113	C	0.705457	-0.010857	-0.000126
H114	H	0.707927	0.033867	0.022923
H115	H	0.738663	-0.043673	0.035231
H116	H	0.726562	-0.013065	-0.058539
O117	O	0.918304	-0.000701	0.808990
C118	C	0.881169	-0.035756	0.853365
H119	H	0.826115	-0.036612	0.830296
H120	H	0.909977	-0.081079	0.854230
H121	H	0.877388	-0.017926	0.911449
H122	H	0.944533	-0.109581	-0.000220
H123	H	0.464433	0.171927	-0.000208
H124	H	1.002598	-0.497516	-0.000278
H125	H	0.645897	-0.350694	-0.000212
O126	O	0.918279	-0.000806	0.190696
C127	C	0.907215	-0.057101	0.209625
H128	H	0.851282	-0.057162	0.230654
H129	H	0.915468	-0.085808	0.159326
H130	H	0.945948	-0.073855	0.254200
H131	H	0.737643	0.146322	0.802988
H132	H	0.936518	-0.656067	-0.000263
H133	H	0.495937	-0.016404	-0.000188
O134	O	0.918266	-0.000703	0.341685
C135	C	0.881128	-0.035752	0.386066
H136	H	0.826075	-0.036611	0.362994
H137	H	0.909936	-0.081075	0.386944
H138	H	0.877342	-0.017912	0.444146
O139	O	0.730202	0.152503	0.657951
C140	C	0.741150	0.208857	0.676673
H141	H	0.797048	0.209021	0.697712
H142	H	0.732914	0.237456	0.626266
H143	H	0.702340	0.225663	0.721178
O144	O	0.600783	0.181788	-0.000154
C145	C	0.545365	0.227023	-0.000189
H146	H	0.495989	0.211181	0.022851
H147	H	0.560308	0.263576	0.035162
H148	H	0.534985	0.242891	-0.058609
H149	H	0.152543	0.168178	-0.000265
O150	O	0.013447	0.174725	-0.000321
C151	C	0.053534	0.221110	-0.000307
H152	H	0.108000	0.206518	-0.023349
H153	H	0.026439	0.257157	-0.035669
H154	H	0.058579	0.237164	0.058106
O155	O	0.701950	-0.195815	-0.000276
C156	C	0.697639	-0.229731	-0.063353
H157	H	0.752778	-0.244649	-0.084392
H158	H	0.670084	-0.268569	-0.049174
H159	H	0.666570	-0.203402	-0.107499
O160	O	0.952954	-0.223014	-0.000209
C161	C	1.009699	-0.190178	-0.000234
H162	H	0.991646	-0.145806	0.022824
H163	H	1.053963	-0.212194	0.035108
H164	H	1.029375	-0.185981	-0.058653
H165	H	1.004180	-0.389768	-0.000265
H166	H	0.934929	-0.763836	-0.000272
