data_functionalizedCrystal
_audit_creation_method	'MofGen! by Chris Wilmer'
_symmetry_space_group_name_H-M	'P1'
_symmetry_Int_Tables_number	1
_symmetry_cell_setting	triclinic
loop_
_symmetry_equiv_pos_as_xyz
  x,y,z
_cell_length_a	8.497374
_cell_length_b	8.497374
_cell_length_c	16.625548
_cell_angle_alpha	89.997839
_cell_angle_beta	90.003540
_cell_angle_gamma	90.005237
loop_
_atom_site_label
_atom_site_type_symbol
_atom_site_fract_x
_atom_site_fract_y
_atom_site_fract_z
Zn1	Zn	0.892183	0.628285	1.232665
Zn2	Zn	0.628448	0.892030	1.232658
Zn3	Zn	0.628402	0.628263	1.097867
Zn4	Zn	0.892171	0.892021	1.097847
O5	O	0.760301	0.760150	1.165259
O6	O	0.857222	0.663284	1.345496
O7	O	0.407680	0.857036	1.214783
O8	O	0.663378	0.407503	1.115759
O9	O	0.663458	0.857057	1.345492
O10	O	0.857177	0.407519	1.214794
O11	O	0.407646	0.663247	1.115752
O12	O	0.663367	0.663238	0.985032
O13	O	1.112935	0.857041	1.115726
O14	O	0.857158	0.857020	0.985017
O15	O	1.112944	0.663275	1.214775
O16	O	0.663447	1.112791	1.214765
O17	O	0.857203	1.112785	1.115719
C18	C	0.760257	0.760127	0.955768
C19	C	0.760275	0.760156	0.866147
C20	C	1.171781	0.760152	1.165253
C21	C	1.350425	0.760169	1.165255
C22	C	0.760324	1.170030	1.165249
C23	C	0.760298	1.348674	1.165271
C24	C	0.760343	0.760166	0.537972
C25	C	0.760319	0.760159	0.629280
C26	C	0.760308	0.760162	0.702057
C27	C	0.760287	0.760153	0.793371
C28	C	0.760346	0.760174	1.375568
C29	C	0.760365	0.760184	1.465189
