data_functionalizedCrystal
_audit_creation_method	'MofGen! by Chris Wilmer'
_symmetry_space_group_name_H-M	'P1'
_symmetry_Int_Tables_number	1
_symmetry_cell_setting	triclinic
loop_
_symmetry_equiv_pos_as_xyz
  x,y,z
_cell_length_a	10.723022
_cell_length_b	15.944493
_cell_length_c	9.798715
_cell_angle_alpha	90.002726
_cell_angle_beta	89.996609
_cell_angle_gamma	83.971135
loop_
_atom_site_label
_atom_site_type_symbol
_atom_site_fract_x
_atom_site_fract_y
_atom_site_fract_z
O1	O	1.655664	0.117805	-0.113463
O2	O	2.155664	0.617805	0.386537
O3	O	1.292365	0.129083	-0.113465
O4	O	1.792365	0.629083	0.386535
O5	O	1.483973	0.001223	-0.113475
O6	O	1.983973	0.501223	0.386525
O7	O	1.464056	0.245665	-0.113453
O8	O	1.964056	0.745665	0.386547
O9	O	1.483959	0.001222	0.113507
O10	O	1.983959	0.501222	0.613507
O11	O	1.292351	0.129083	0.113517
O12	O	1.792351	0.629083	0.613517
O13	O	1.655649	0.117804	0.113520
O14	O	2.155649	0.617804	0.613520
Zn15	Zn	1.473998	0.123444	0.149557
Zn16	Zn	1.973998	0.623444	0.649557
Zn17	Zn	1.474017	0.123444	-0.149502
Zn18	Zn	1.974017	0.623444	0.350498
O19	O	1.464042	0.245665	0.113529
O20	O	1.964042	0.745665	0.613529
C21	C	1.245869	0.128262	0.000025
C22	C	1.745869	0.628262	0.500025
C23	C	1.107346	0.125808	0.000023
C24	C	1.607346	0.625808	0.500023
C25	C	0.888275	0.194813	0.000027
C26	C	1.388275	0.694813	0.500027
C27	C	1.031445	0.197351	0.000029
C28	C	1.531445	0.697351	0.500029
C29	C	1.483152	-0.030077	0.000010
C30	C	1.983152	0.469923	0.500010
C31	C	1.480711	-0.123339	-0.000007
C32	C	1.980711	0.376661	0.499993
C33	C	1.593496	-0.358454	0.000019
C34	C	2.093496	0.141546	0.500019
C35	C	1.532682	-0.409370	-0.111894
C36	C	2.032682	0.090630	0.388106
C37	C	1.476189	-0.294086	0.000009
C38	C	1.976189	0.205914	0.500009
C39	C	1.532641	-0.409347	0.111892
C40	C	2.032641	0.090653	0.611892
C41	C	1.471830	-0.459021	0.000031
C42	C	1.971830	0.040979	0.500031
C43	C	1.415407	-0.343774	-0.111997
C44	C	1.915407	0.156226	0.388003
C45	C	1.415383	-0.343747	0.111890
C46	C	1.915383	0.156253	0.611890
C47	C	1.354483	-0.394630	-0.000051
C48	C	1.854483	0.105370	0.499949
C49	C	1.478704	-0.199072	-0.000005
C50	C	1.978704	0.300928	0.499995
C51	C	1.469306	-0.554032	0.000036
C52	C	1.969306	-0.054032	0.500036
C53	C	1.702146	0.118625	0.000026
C54	C	2.202146	0.618625	0.500026
C55	C	1.840668	0.121080	0.000019
C56	C	2.340668	0.621080	0.500019
C57	C	1.464863	0.276964	0.000041
C58	C	1.964863	0.776964	0.500041
C59	C	1.467303	0.370227	0.000050
C60	C	1.967303	0.870227	0.500050
N61	N	1.473994	0.123443	0.353656
N62	N	1.973994	0.623443	0.853656
N63	N	1.474030	0.123438	-0.353602
N64	N	1.974030	0.623438	0.146398
C65	C	1.554448	0.069521	0.421429
C66	C	2.054448	0.569521	0.921429
C67	C	1.554468	0.069518	0.578592
C68	C	2.054468	0.569518	1.078592
H69	H	0.823040	0.256058	0.000024
H70	H	1.323040	0.756058	0.500024
H71	H	1.582229	-0.438032	-0.206510
H72	H	2.082229	0.061968	0.293490
Br73	Br	1.332895	-0.296218	-0.269867
Br74	Br	1.832895	0.203782	0.230133
H75	H	1.405151	0.169608	0.588125
H76	H	1.905151	0.669608	1.088125
Br77	Br	1.099762	0.302578	0.000056
Br78	Br	1.599762	0.802578	0.500056
H79	H	1.582200	-0.437994	0.206501
H80	H	2.082200	0.062006	0.706501
Br81	Br	1.668919	-0.007636	0.324224
Br82	Br	2.168919	0.492364	0.824224
Br83	Br	1.185940	-0.421376	-0.000145
Br84	Br	1.685940	0.078624	0.499855
Br85	Br	1.359198	0.200381	0.450861
Br86	Br	1.859198	0.700381	0.950861
Br87	Br	1.332899	-0.295925	0.269597
Br88	Br	1.832899	0.204075	0.769597
Br89	Br	1.669290	-0.007423	0.675724
Br90	Br	2.169290	0.492577	1.175724
H91	H	1.066360	0.062675	-0.000019
H92	H	1.566360	0.562675	0.499981
H93	H	0.905903	0.059834	0.000006
H94	H	1.405903	0.559834	0.500006
H95	H	1.694541	-0.342248	-0.000092
H96	H	2.194541	0.157752	0.499908
