data_functionalizedCrystal
_audit_creation_method	'MofGen! by Chris Wilmer'
_symmetry_space_group_name_H-M	'P1'
_symmetry_Int_Tables_number	1
_symmetry_cell_setting	triclinic
loop_
_symmetry_equiv_pos_as_xyz
  x,y,z
_cell_length_a	10.723023
_cell_length_b	15.625429
_cell_length_c	9.198806
_cell_angle_alpha	71.919667
_cell_angle_beta	89.996513
_cell_angle_gamma	84.344239
loop_
_atom_site_label
_atom_site_type_symbol
_atom_site_fract_x
_atom_site_fract_y
_atom_site_fract_z
O1	O	1.655907	0.126439	-0.187522
O2	O	1.292632	0.138543	-0.193908
O3	O	1.483975	0.001315	-0.121564
O4	O	1.464564	0.263667	-0.259865
O5	O	1.483960	0.001315	0.120221
O6	O	1.292617	0.138543	0.047878
O7	O	1.655892	0.126439	0.054264
Cu8	Cu	1.474253	0.132491	0.073148
Cu9	Cu	1.474271	0.132491	-0.212792
O10	O	1.464549	0.263667	-0.018080
C11	C	1.246134	0.137662	-0.072551
C12	C	1.107606	0.135027	-0.071165
C13	C	1.045838	0.133852	0.054705
C14	C	0.902663	0.131129	0.056141
C15	C	1.483089	-0.032277	0.017034
C16	C	1.480456	-0.132373	0.069790
C17	C	1.471800	-0.461575	-0.415631
C18	C	1.469320	-0.555630	-0.366014
C19	C	1.469304	-0.555616	-0.102436
C20	C	1.471790	-0.461561	-0.152032
C21	C	1.473037	-0.414547	-0.308631
C22	C	1.473027	-0.414533	-0.045032
C23	C	1.475506	-0.320484	-0.094624
C24	C	1.476749	-0.273464	-0.251217
C25	C	1.475516	-0.320499	-0.358224
C26	C	1.471771	-0.461547	0.111567
C27	C	1.473008	-0.414519	0.218567
C28	C	1.475496	-0.320470	0.168976
C29	C	1.476739	-0.273449	0.012383
C30	C	1.476729	-0.273435	0.275982
C31	C	1.479209	-0.179386	0.226390
C32	C	1.479219	-0.179401	-0.037210
C33	C	1.702390	0.127320	-0.067096
C34	C	1.840918	0.129955	-0.068492
C35	C	1.465435	0.297260	-0.156681
C36	C	1.468069	0.397355	-0.209447
N37	N	1.474250	0.132490	0.274262
N38	N	1.474284	0.132485	-0.413902
C39	C	1.554592	0.074618	0.376968
C40	C	1.554611	0.074615	0.544382
H41	H	0.894028	0.130970	-0.176265
H42	H	1.623358	0.025070	0.340962
H43	H	1.623400	0.025071	0.632586
H44	H	1.478755	-0.196883	-0.291593
H45	H	0.849543	0.130124	0.163903
H46	H	1.054492	0.134015	-0.177862
H47	H	1.480189	-0.141093	0.313519
H48	H	1.480245	-0.141121	-0.164728
H49	H	1.476543	-0.282219	-0.485742
H50	H	1.468284	-0.593907	0.025068
H51	H	1.472827	-0.423295	-0.543150
H52	H	1.468302	-0.593915	-0.453159
H53	H	1.469739	-0.538126	0.151939
H54	H	1.471988	-0.452810	0.346071
H55	H	1.475702	-0.311726	0.403485
H56	H	1.405501	0.182038	0.497898
H57	H	1.098954	0.134858	0.161407
H58	H	1.405475	0.182031	0.310273
