data_functionalizedCrystal
_audit_creation_method	'MofGen! by Chris Wilmer'
_symmetry_space_group_name_H-M	'P1'
_symmetry_Int_Tables_number	1
_symmetry_cell_setting	triclinic
loop_
_symmetry_equiv_pos_as_xyz
  x,y,z
_cell_length_a	19.805407
_cell_length_b	19.805405
_cell_length_c	19.805399
_cell_angle_alpha	89.973385
_cell_angle_beta	89.980427
_cell_angle_gamma	90.026726
loop_
_atom_site_label
_atom_site_type_symbol
_atom_site_fract_x
_atom_site_fract_y
_atom_site_fract_z
Zn1	Zn	1.034734	-0.269479	-0.382724
Zn2	Zn	1.034648	-0.382667	-0.269538
Zn3	Zn	0.921549	-0.269498	-0.269549
Zn4	Zn	0.921512	-0.382631	-0.382685
O5	O	0.978111	-0.326069	-0.326124
O6	O	1.129439	-0.284501	-0.367722
O7	O	1.019625	-0.367678	-0.174823
O8	O	0.936615	-0.174778	-0.284583
O9	O	1.129376	-0.367660	-0.284564
O10	O	1.019771	-0.174765	-0.367732
O11	O	0.936531	-0.284533	-0.174831
O12	O	0.826827	-0.284498	-0.284544
O13	O	0.936551	-0.367598	-0.477406
O14	O	0.826800	-0.367617	-0.367665
O15	O	1.019735	-0.284466	-0.477436
O16	O	1.019589	-0.477379	-0.284526
O17	O	0.936468	-0.477353	-0.367654
C18	C	0.802255	-0.326056	-0.326102
C19	C	0.727023	-0.326067	-0.326109
C20	C	0.691682	-0.369412	-0.369319
C21	C	0.620994	-0.369413	-0.369329
C22	C	0.585647	-0.326072	-0.326124
C23	C	0.620993	-0.282722	-0.282911
C24	C	0.691680	-0.282718	-0.282906
C25	C	0.335920	-0.282737	-0.282934
C26	C	0.265227	-0.282746	-0.282941
C27	C	0.265233	-0.369432	-0.369357
C28	C	0.335920	-0.369428	-0.369351
C29	C	0.371260	-0.326076	-0.326142
C30	C	0.447908	-0.326074	-0.326133
C31	C	0.509000	-0.326076	-0.326129
C32	C	0.978034	-0.501925	-0.326099
C33	C	0.978063	-0.577157	-0.326112
C34	C	1.021337	-0.612436	-0.369441
C35	C	1.021361	-0.683124	-0.369454
C36	C	0.978114	-0.718532	-0.326133
C37	C	0.934835	-0.683249	-0.282801
C38	C	0.934808	-0.612561	-0.282792
C39	C	0.934944	-0.968322	-0.282836
C40	C	0.934976	-1.039014	-0.282846
C41	C	1.021497	-1.038884	-0.369497
C42	C	1.021470	-0.968197	-0.369489
C43	C	0.978189	-0.932920	-0.326160
C44	C	0.978162	-0.856271	-0.326147
C45	C	0.978144	-0.795179	-0.326141
C46	C	1.154653	-0.326082	-0.326146
C47	C	1.229885	-0.326088	-0.326156
C48	C	0.978149	-0.326026	-0.502667
C49	C	0.978165	-0.326008	-0.577899
C50	C	0.978207	-0.149526	-0.326163
C51	C	0.978248	-0.074294	-0.326180
C52	C	1.021480	-0.282719	-0.613259
C53	C	1.021487	-0.282699	-0.683948
C54	C	0.978182	-0.325973	-0.719274
C55	C	0.934862	-0.369264	-0.683909
C56	C	0.934852	-0.369279	-0.613222
C57	C	0.934900	-0.369201	-0.968982
C58	C	0.934915	-0.369183	-1.039675
C59	C	1.021535	-0.282620	-1.039708
C60	C	1.021525	-0.282636	-0.969021
C61	C	0.978203	-0.325924	-0.933662
C62	C	0.978195	-0.325944	-0.857013
C63	C	0.978193	-0.325957	-0.795922
C64	C	0.978112	-0.326062	-0.150268
C65	C	0.978227	-0.325890	-0.075036
H66	H	0.236450	-0.247448	-0.247758
F67	F	1.067612	-0.236648	-0.721578
H68	H	0.899574	-0.404523	-0.584432
F69	F	0.888793	-0.415272	-0.931360
H70	H	1.056746	-0.247482	-0.584501
F71	F	0.729294	-0.415545	-0.415302
F72	F	0.888749	-0.575015	-0.236675
F73	F	1.067618	-0.236581	-0.931427
F74	F	0.583373	-0.236591	-0.236933
H75	H	0.720453	-0.247418	-0.247723
H76	H	1.056737	-1.067616	-0.404780
H77	H	0.364696	-0.404723	-0.404531
F78	F	1.067640	-0.236546	-1.077346
H79	H	0.899648	-0.404423	-1.068436
F80	F	0.583385	-0.415547	-0.415320
H81	H	0.236451	-0.404729	-0.404543
F82	F	0.373521	-0.236596	-0.236948
H83	H	1.056556	-0.583611	-0.404715
H84	H	0.899600	-0.404495	-0.712678
H85	H	1.056605	-0.711845	-0.404732
F86	F	0.888944	-1.076697	-0.236736
F87	F	0.888875	-0.930786	-0.236726
F88	F	1.067501	-0.930517	-0.415595
H89	H	0.899620	-0.712084	-0.247531
