data_functionalizedCrystal
_audit_creation_method	'MofGen! by Chris Wilmer'
_symmetry_space_group_name_H-M	'P1'
_symmetry_Int_Tables_number	1
_symmetry_cell_setting	triclinic
loop_
_symmetry_equiv_pos_as_xyz
  x,y,z
_cell_length_a	14.519709
_cell_length_b	9.065218
_cell_length_c	7.540329
_cell_angle_alpha	89.996962
_cell_angle_beta	89.997398
_cell_angle_gamma	95.651985
loop_
_atom_site_label
_atom_site_type_symbol
_atom_site_fract_x
_atom_site_fract_y
_atom_site_fract_z
O1	O	-0.135225	1.957864	-0.147459
O2	O	-0.146317	1.528372	-0.147459
O3	O	-0.006616	1.754505	-0.147475
O4	O	-0.274926	1.731731	-0.147443
O5	O	-0.006614	1.754492	0.147490
O6	O	-0.146315	1.528358	0.147506
O7	O	-0.135223	1.957851	0.147506
Cu8	Cu	-0.140769	1.743103	0.174438
Cu9	Cu	-0.140771	1.743119	-0.174392
O10	O	-0.274924	1.731717	0.147522
C11	C	-0.145250	1.473398	0.000023
C12	C	-0.142063	1.309615	0.000021
C13	C	-0.309293	1.732785	0.000043
C14	C	-0.411697	1.735966	0.000055
C15	C	-0.786679	1.747675	-0.000015
C16	C	-0.682347	1.744423	0.000005
C17	C	-0.599192	1.741821	0.000022
C18	C	-0.494853	1.738568	0.000039
C19	C	0.027752	1.753437	-0.000001
C20	C	0.130157	1.750257	-0.000024
C21	C	-0.136290	2.012824	0.000020
C22	C	-0.139478	2.176607	0.000010
N23	N	-0.140767	1.743103	0.419787
N24	N	-0.140766	1.743131	-0.419740
