data_functionalizedCrystal
_audit_creation_method	'MofGen! by Chris Wilmer'
_symmetry_space_group_name_H-M	'P1'
_symmetry_Int_Tables_number	1
_symmetry_cell_setting	triclinic
loop_
_symmetry_equiv_pos_as_xyz
  x,y,z
_cell_length_a	10.654550
_cell_length_b	14.044220
_cell_length_c	9.130313
_cell_angle_alpha	89.997493
_cell_angle_beta	89.996220
_cell_angle_gamma	88.836890
loop_
_atom_site_label
_atom_site_type_symbol
_atom_site_fract_x
_atom_site_fract_y
_atom_site_fract_z
O1	O	1.681222	0.133227	-0.121925
O2	O	2.181222	0.633227	0.378075
O3	O	1.317019	0.145921	-0.121902
O4	O	1.817019	0.645921	0.378098
O5	O	1.493654	0.001554	-0.121899
O6	O	1.993654	0.501554	0.378101
O7	O	1.504587	0.277595	-0.121929
O8	O	2.004587	0.777595	0.378071
O9	O	1.493652	0.001557	0.121700
O10	O	1.993652	0.501557	0.621700
O11	O	1.317017	0.145925	0.121696
O12	O	1.817017	0.645925	0.621696
O13	O	1.681220	0.133231	0.121673
O14	O	2.181220	0.633231	0.621673
Cu15	Cu	1.499119	0.139578	0.143927
Cu16	Cu	1.999119	0.639578	0.643927
Cu17	Cu	1.499121	0.139574	-0.144156
Cu18	Cu	1.999121	0.639574	0.355844
O19	O	1.504585	0.277598	0.121670
O20	O	2.004585	0.777598	0.621670
C21	C	1.270127	0.144991	-0.000100
C22	C	1.770127	0.644991	0.499900
C23	C	1.130403	0.142202	-0.000091
C24	C	1.630403	0.642202	0.499909
C25	C	1.059459	0.227203	-0.000121
C26	C	1.559459	0.727203	0.499879
C27	C	0.928175	0.224578	-0.000146
C28	C	1.428175	0.724578	0.499854
C29	C	0.938790	0.051942	-0.000116
C30	C	1.438790	0.551942	0.499884
C31	C	1.070072	0.054569	-0.000081
C32	C	1.570072	0.554569	0.499919
C33	C	1.119790	0.314837	-0.000131
C34	C	1.619790	0.814837	0.499869
C35	C	1.048846	0.399845	-0.000163
C36	C	1.548846	0.899845	0.499837
C37	C	0.917561	0.397219	-0.000188
C38	C	1.417561	0.897219	0.499812
C39	C	0.857221	0.309585	-0.000181
C40	C	1.357221	0.809585	0.499819
C41	C	1.488867	-0.033790	-0.000099
C42	C	1.988867	0.466210	0.499901
C43	C	1.474592	-0.139110	-0.000096
C44	C	1.974592	0.360890	0.499904
C45	C	1.448493	-0.331943	-0.000116
C46	C	1.948493	0.168057	0.499884
C47	C	1.549741	-0.388911	-0.000126
C48	C	2.049741	0.111089	0.499874
C49	C	1.535219	-0.496210	-0.000137
C50	C	2.035219	0.003790	0.499863
C51	C	1.463013	-0.224634	-0.000105
C52	C	1.963013	0.275366	0.499895
C53	C	1.728113	0.134161	-0.000132
C54	C	2.228113	0.634161	0.499868
C55	C	1.867836	0.136950	-0.000151
C56	C	2.367836	0.636950	0.499849
C57	C	1.509372	0.312942	-0.000133
C58	C	2.009372	0.812942	0.499867
C59	C	1.523648	0.418262	-0.000146
C60	C	2.023648	0.918262	0.499854
N61	N	1.499126	0.139581	0.346550
N62	N	1.999126	0.639581	0.846550
N63	N	1.499122	0.139564	-0.346779
N64	N	1.999122	0.639564	0.153221
C65	C	1.577364	0.075677	0.423203
C66	C	2.077364	0.575677	0.923203
C67	C	1.577359	0.075666	0.576540
C68	C	2.077359	0.575666	1.076540
C69	C	1.420876	0.203470	0.576557
C70	C	1.920876	0.703470	1.076557
C71	C	1.420875	0.203477	0.423223
C72	C	1.920875	0.703477	0.923223
C73	C	1.655615	0.011782	0.346531
C74	C	2.155615	0.511782	0.846531
C75	C	1.733861	-0.052127	0.423184
C76	C	2.233861	0.447873	0.923184
C77	C	1.733856	-0.052138	0.576521
C78	C	2.233856	0.447862	1.076521
C79	C	1.655606	0.011759	0.653204
C80	C	2.155606	0.511759	1.153204
H81	H	1.226688	0.316985	-0.000117
H82	H	1.726688	0.816985	0.499883
Br83	Br	1.166362	-0.060791	-0.000031
Br84	Br	1.666362	0.439209	0.499969
Br85	Br	1.285849	-0.384963	-0.000118
Br86	Br	1.785849	0.115037	0.499882
Br87	Br	1.712395	-0.335893	-0.000124
Br88	Br	2.212395	0.164107	0.499876
H89	H	1.097984	0.471193	-0.000156
H90	H	1.597984	0.971193	0.499844
Br91	Br	1.655590	0.011729	0.861306
Br92	Br	2.155590	0.511729	1.361306
Br93	Br	1.655633	0.011801	0.138432
Br94	Br	2.155633	0.511801	0.638432
H95	H	1.797562	-0.104155	0.360741
H96	H	2.297562	0.395845	0.860741
H97	H	0.859801	0.466437	-0.000200
H98	H	1.359801	0.966437	0.499800
Br99	Br	1.314683	0.290200	0.319188
Br100	Br	1.814683	0.790200	0.819188
H101	H	1.797557	-0.104181	0.638931
H102	H	2.297557	0.395819	1.138931
Br103	Br	0.856900	-0.066982	-0.000110
Br104	Br	1.356900	0.433018	0.499890
H105	H	0.750320	0.307454	-0.000179
H106	H	1.250320	0.807454	0.499821
H107	H	1.357169	0.255494	0.639002
H108	H	1.857169	0.755494	1.139002
