data_functionalizedCrystal
_audit_creation_method	'MofGen! by Chris Wilmer'
_symmetry_space_group_name_H-M	'P1'
_symmetry_Int_Tables_number	1
_symmetry_cell_setting	triclinic
loop_
_symmetry_equiv_pos_as_xyz
  x,y,z
_cell_length_a	11.792241
_cell_length_b	17.019294
_cell_length_c	15.500215
_cell_angle_alpha	97.060225
_cell_angle_beta	93.161413
_cell_angle_gamma	83.793186
loop_
_atom_site_label
_atom_site_type_symbol
_atom_site_fract_x
_atom_site_fract_y
_atom_site_fract_z
O1	O	1.511016	0.111787	0.080187
O2	O	2.011016	0.611787	0.580187
O3	O	1.180614	0.122969	0.081040
O4	O	1.680614	0.622969	0.581040
O5	O	1.354473	0.002192	0.072028
O6	O	1.854473	0.502192	0.572028
O7	O	1.337158	0.232564	0.089199
O8	O	1.837158	0.732564	0.589199
O9	O	1.345023	-0.004416	-0.072354
O10	O	1.845023	0.495584	0.427646
O11	O	1.171165	0.116361	-0.063341
O12	O	1.671165	0.616361	0.436659
O13	O	1.501567	0.105179	-0.064194
O14	O	2.001567	0.605179	0.435806
Cu15	Cu	1.335503	0.110167	-0.076951
Cu16	Cu	1.835503	0.610167	0.423049
Cu17	Cu	1.346678	0.117982	0.093797
Cu18	Cu	1.846678	0.617982	0.593797
O19	O	1.327708	0.225956	-0.055182
O20	O	1.827708	0.725956	0.444818
C21	C	1.133603	0.118963	0.008800
C22	C	1.633603	0.618963	0.508800
C23	C	1.007601	0.116861	0.008651
C24	C	1.507601	0.616861	0.508651
C25	C	0.776909	0.112995	0.008338
C26	C	1.276909	0.612995	0.508338
C27	C	0.905283	0.115143	0.008511
C28	C	1.405283	0.615143	0.508511
C29	C	1.348905	-0.030604	-0.002359
C30	C	1.848905	0.469396	0.497641
C31	C	1.346380	-0.118483	-0.008904
C32	C	1.846380	0.381517	0.491096
C33	C	1.350348	-0.156162	0.066723
C34	C	1.850348	0.343838	0.566723
C35	C	1.347968	-0.238733	0.060571
C36	C	1.847968	0.261267	0.560571
C37	C	1.341629	-0.283624	-0.021208
C38	C	1.841629	0.216376	0.478792
C39	C	1.337657	-0.245939	-0.096841
C40	C	1.837657	0.254061	0.403159
C41	C	1.340029	-0.163369	-0.090688
C42	C	1.840029	0.336631	0.409312
C43	C	1.334202	-0.533113	-0.043723
C44	C	1.834202	-0.033113	0.456277
C45	C	1.331834	-0.615689	-0.049870
C46	C	1.831834	-0.115689	0.450130
C47	C	1.342142	-0.608477	0.107543
C48	C	1.842142	-0.108477	0.607543
C49	C	1.344520	-0.525906	0.113689
C50	C	1.844520	-0.025906	0.613689
C51	C	1.340543	-0.488228	0.038056
C52	C	1.840543	0.011772	0.538056
C53	C	1.339199	-0.368025	-0.027498
C54	C	1.839199	0.131975	0.472502
C55	C	1.342964	-0.403827	0.044347
C56	C	1.842964	0.096173	0.544347
C57	C	1.548579	0.109186	0.008048
C58	C	2.048579	0.609186	0.508048
C59	C	1.674580	0.111288	0.008203
C60	C	2.174580	0.611288	0.508203
C61	C	1.333276	0.258753	0.019207
C62	C	1.833276	0.758753	0.519207
C63	C	1.335801	0.346632	0.025757
C64	C	1.835801	0.846632	0.525757
N65	N	1.327651	0.104670	-0.197045
N66	N	1.827651	0.604670	0.302955
C67	C	1.393670	0.150923	-0.238875
C68	C	1.893670	0.650923	0.261125
C69	C	1.387747	0.146761	-0.329758
C70	C	1.887747	0.646761	0.170242
C71	C	1.315798	0.096350	-0.378810
C72	C	1.815798	0.596350	0.121190
C73	C	1.249776	0.050091	-0.336974
C74	C	1.749776	0.550091	0.163026
C75	C	1.255706	0.054250	-0.246093
C76	C	1.755706	0.554250	0.253907
C77	C	1.294447	0.081372	-0.653393
C78	C	1.794447	0.581372	-0.153393
C79	C	1.288520	0.077219	-0.744280
C80	C	1.788520	0.577219	-0.244280
C81	C	1.426493	0.173888	-0.737057
C82	C	1.926493	0.673888	-0.237057
C83	C	1.432412	0.178046	-0.646175
C84	C	1.932412	0.678046	-0.146175
C85	C	1.366395	0.131784	-0.604347
C86	C	1.866395	0.631784	-0.104347
C87	C	1.309739	0.092096	-0.471707
C88	C	1.809739	0.592096	0.028293
C89	C	1.372460	0.136034	-0.511452
C90	C	1.872460	0.636034	-0.011452
N91	N	1.354539	0.123472	0.213891
N92	N	1.854539	0.623472	0.713891
H93	H	1.355516	-0.119618	0.133317
H94	H	1.855516	0.380382	0.633317
H95	H	1.334042	-0.404585	-0.094084
H96	H	1.834042	0.095415	0.405916
N97	N	1.223246	0.031478	-0.608285
N98	N	1.723246	0.531478	-0.108285
H99	H	1.176766	-0.001085	-0.653152
H100	H	1.676766	0.498915	-0.153152
H101	H	1.170333	0.067451	-0.568025
H102	H	1.670333	0.567451	-0.068025
H103	H	1.431045	0.177076	-0.471511
H104	H	1.931045	0.677076	0.028489
N105	N	1.510028	0.232411	-0.593274
N106	N	2.010028	0.732411	-0.093274
H107	H	1.463204	0.272649	-0.552698
H108	H	1.963204	0.772649	-0.052698
H109	H	1.550939	0.261023	-0.633626
H110	H	2.050939	0.761023	-0.133626
H111	H	1.480242	0.211551	-0.771123
H112	H	1.980242	0.711551	-0.271123
H113	H	1.348118	-0.367273	0.110932
H114	H	1.848118	0.132727	0.610932
N115	N	1.232127	0.037738	-0.524623
N116	N	1.732127	0.537738	-0.024623
H117	H	1.150633	0.053692	-0.507681
H118	H	1.650633	0.553692	-0.007681
H119	H	1.255447	-0.019010	-0.513080
H120	H	1.755447	0.480990	-0.013080
N121	N	1.210898	0.022855	-0.797188
N122	N	1.710898	0.522855	-0.297188
H123	H	1.169972	-0.005819	-0.756901
H124	H	1.669972	0.494181	-0.256901
H125	H	1.257789	-0.017331	-0.837770
H126	H	1.757789	0.482669	-0.337770
H127	H	1.191198	0.009041	-0.376920
H128	H	1.691198	0.509041	0.123080
N129	N	1.352410	-0.279388	0.142139
N130	N	1.852410	0.220612	0.642139
H131	H	1.356848	-0.238426	0.194879
H132	H	1.856848	0.261574	0.694879
H133	H	1.421993	-0.319569	0.142466
H134	H	1.921993	0.180431	0.642466
H135	H	1.345378	-0.639163	0.169119
H136	H	1.845378	-0.139163	0.669119
H137	H	1.452253	0.191979	-0.198943
H138	H	1.952253	0.691979	0.301057
N139	N	1.325000	-0.664110	-0.138079
N140	N	1.825000	-0.164110	0.361921
H141	H	1.322839	-0.627713	-0.185059
H142	H	1.822839	-0.127713	0.314941
H143	H	1.253501	-0.692416	-0.143595
H144	H	1.753501	-0.192416	0.356405
H145	H	1.201945	0.016585	-0.212037
H146	H	1.701945	0.516585	0.287963
N147	N	1.335753	-0.122720	-0.172253
N148	N	1.835753	0.377280	0.327747
H149	H	1.262796	-0.132551	-0.207272
H150	H	1.762796	0.367449	0.292728
H151	H	1.403431	-0.144794	-0.208126
H152	H	1.903431	0.355206	0.291874
N153	N	1.458976	0.196656	-0.374846
N154	N	1.958976	0.696656	0.125154
H155	H	1.407248	0.233449	-0.409689
H156	H	1.907248	0.733449	0.090311
H157	H	1.511966	0.160681	-0.415044
H158	H	2.011966	0.660681	0.084956
N159	N	1.351389	-0.477522	0.201911
N160	N	1.851389	0.022478	0.701911
H161	H	1.423528	-0.496463	0.234758
H162	H	1.923528	0.003537	0.734758
H163	H	1.282895	-0.484228	0.235647
H164	H	1.782895	0.015772	0.735647
N165	N	1.329930	-0.492480	-0.125294
N166	N	1.829930	0.007520	0.374706
H167	H	1.256977	-0.502316	-0.160317
H168	H	1.756977	-0.002316	0.339683
H169	H	1.397613	-0.514562	-0.161158
H170	H	1.897613	-0.014562	0.338842
N171	N	1.330831	-0.294354	-0.185048
N172	N	1.830831	0.205646	0.314952
H173	H	1.329941	-0.352381	-0.177472
H174	H	1.829941	0.147619	0.322528
H175	H	1.399297	-0.287602	-0.218791
H176	H	1.899297	0.212398	0.281209
