data_functionalizedCrystal
_audit_creation_method	'MofGen! by Chris Wilmer'
_symmetry_space_group_name_H-M	'P1'
_symmetry_Int_Tables_number	1
_symmetry_cell_setting	triclinic
loop_
_symmetry_equiv_pos_as_xyz
  x,y,z
_cell_length_a	27.731993
_cell_length_b	27.732048
_cell_length_c	26.210047
_cell_angle_alpha	89.999521
_cell_angle_beta	90.002578
_cell_angle_gamma	82.631525
loop_
_atom_site_label
_atom_site_type_symbol
_atom_site_fract_x
_atom_site_fract_y
_atom_site_fract_z
O1	O	0.640948	0.057384	-0.042297
O2	O	0.974282	0.390718	0.291036
O3	O	1.307615	0.724051	0.624370
O4	O	0.500151	0.066158	-0.042329
O5	O	0.833485	0.399491	0.291004
O6	O	1.166818	0.732824	0.624338
O7	O	0.574923	-0.008627	-0.042302
O8	O	0.908256	0.324707	0.291031
O9	O	1.241589	0.658040	0.624364
O10	O	0.566177	0.132169	-0.042324
O11	O	0.899510	0.465502	0.291010
O12	O	1.232844	0.798835	0.624343
O13	O	0.574908	-0.008615	0.042556
O14	O	0.908242	0.324718	0.375889
O15	O	1.241575	0.658052	0.709222
O16	O	0.500137	0.066169	0.042529
O17	O	0.833470	0.399503	0.375862
O18	O	1.166803	0.732836	0.709196
O19	O	0.640934	0.057396	0.042561
O20	O	0.974267	0.390729	0.375894
O21	O	1.307601	0.724063	0.709228
Cu22	Cu	0.570534	0.061784	0.050293
Cu23	Cu	0.903867	0.395117	0.383626
Cu24	Cu	1.237201	0.728450	0.716960
Cu25	Cu	0.570551	0.061770	-0.050061
Cu26	Cu	0.903885	0.395103	0.283272
Cu27	Cu	1.237218	0.728437	0.616605
O28	O	0.566163	0.132180	0.042534
O29	O	0.899496	0.465514	0.375868
O30	O	1.232829	0.798847	0.709201
C31	C	0.482137	0.065983	0.000096
C32	C	0.815470	0.399317	0.333429
C33	C	1.148803	0.732650	0.666763
C34	C	0.428480	0.065441	0.000084
C35	C	0.761814	0.398774	0.333418
C36	C	1.095147	0.732108	0.666751
C37	C	0.045328	0.061504	-0.046147
C38	C	0.378661	0.394837	0.287187
C39	C	0.711995	0.728171	0.620520
C40	C	0.246985	0.063571	-0.046161
C41	C	0.580319	0.396904	0.287173
C42	C	0.913652	0.730238	0.620506
O43	O	0.273065	0.063813	-0.085501
O44	O	0.606399	0.397147	0.247833
O45	O	0.939732	0.730480	0.581166
N46	N	0.272198	0.063836	0.000094
N47	N	0.605531	0.397169	0.333428
N48	N	0.938864	0.730503	0.666761
C49	C	0.246993	0.063581	0.046356
C50	C	0.580327	0.396914	0.379690
C51	C	0.913660	0.730248	0.713023
O52	O	0.273066	0.063849	0.085699
O53	O	0.606399	0.397182	0.419032
O54	O	0.939732	0.730516	0.752365
C55	C	0.045337	0.061511	0.046370
C56	C	0.378671	0.394844	0.379703
C57	C	0.712004	0.728177	0.713037
C58	C	0.020127	0.061251	0.000112
C59	C	0.353460	0.394584	0.333445
C60	C	0.686793	0.727917	0.666778
C61	C	0.020118	0.061243	-0.092401
C62	C	0.353451	0.394577	0.240933
C63	C	0.686784	0.727910	0.574266
C64	C	-0.030294	0.060729	-0.092397
C65	C	0.303039	0.394063	0.240937
C66	C	0.636373	0.727396	0.574270
C67	C	-0.055495	0.060476	-0.046139
C68	C	0.277838	0.393809	0.287195
C69	C	0.611171	0.727143	0.620528
C70	C	-0.030285	0.060736	0.000116
C71	C	0.303048	0.394070	0.333449
C72	C	0.636382	0.727403	0.666782
C73	C	0.020134	0.061252	0.092631
C74	C	0.353467	0.394585	0.425965
C75	C	0.686801	0.727919	0.759298
C76	C	-0.030283	0.060733	0.092630
C77	C	0.303050	0.394067	0.425964
C78	C	0.636384	0.727400	0.759297
C79	C	-0.055493	0.060473	0.046372
C80	C	0.277840	0.393807	0.379706
C81	C	0.611173	0.727140	0.713039
C82	C	-0.105898	0.059969	0.046378
C83	C	0.227435	0.393302	0.379711
C84	C	0.560769	0.726636	0.713045
N85	N	-0.131110	0.059704	0.000123
N86	N	0.202223	0.393037	0.333456
N87	N	0.535556	0.726371	0.666790
C88	C	-0.105909	0.059957	-0.046135
C89	C	0.227424	0.393291	0.287198
C90	C	0.560758	0.726624	0.620531
C91	C	0.352865	0.064669	0.046346
C92	C	0.686199	0.398002	0.379679
C93	C	1.019532	0.731336	0.713012
C94	C	0.403279	0.065188	0.046343
C95	C	0.736612	0.398521	0.379676
C96	C	1.069946	0.731854	0.713009
C97	C	0.403268	0.065177	-0.046175
C98	C	0.736601	0.398510	0.287159
C99	C	1.069935	0.731843	0.620492
C100	C	0.352853	0.064662	-0.046171
C101	C	0.686186	0.397995	0.287163
C102	C	1.019519	0.731328	0.620496
C103	C	0.327653	0.064404	0.000091
C104	C	0.660986	0.397737	0.333424
C105	C	0.994320	0.731071	0.666757
C106	C	-0.211777	0.058878	-0.046123
C107	C	0.121556	0.392212	0.287210
C108	C	0.454889	0.725545	0.620543
C109	C	-0.262194	0.058366	-0.046115
C110	C	0.071140	0.391699	0.287218
C111	C	0.404473	0.725033	0.620551
C112	C	-0.262178	0.058375	0.046402
C113	C	0.071156	0.391708	0.379735
C114	C	0.404489	0.725041	0.713068
C115	C	-0.211766	0.058889	0.046394
C116	C	0.121567	0.392223	0.379727
C117	C	0.454901	0.725556	0.713060
C118	C	-0.186567	0.059139	0.000127
C119	C	0.146766	0.392473	0.333461
C120	C	0.480100	0.725806	0.666794
O121	O	-0.132008	0.059721	0.085698
O122	O	0.201325	0.393054	0.419031
O123	O	0.534659	0.726387	0.752364
O124	O	-0.131989	0.059679	-0.085472
O125	O	0.201345	0.393012	0.247862
O126	O	0.534678	0.726345	0.581195
C127	C	0.095740	0.062018	-0.046151
C128	C	0.429073	0.395351	0.287183
C129	C	0.762406	0.728685	0.620516
C130	C	0.120950	0.062279	0.000104
C131	C	0.454283	0.395612	0.333437
C132	C	0.787617	0.728945	0.666770
C133	C	0.095749	0.062025	0.046362
C134	C	0.429082	0.395359	0.379695
C135	C	0.762416	0.728692	0.713029
C136	C	0.171364	0.062797	0.000101
C137	C	0.504697	0.396131	0.333434
C138	C	0.838030	0.729464	0.666767
C139	C	0.196565	0.063051	-0.046158
C140	C	0.529898	0.396384	0.287176
C141	C	0.863232	0.729717	0.620509
C142	C	0.171353	0.062786	-0.092413
C143	C	0.504686	0.396119	0.240920
C144	C	0.838019	0.729452	0.574254
C145	C	0.120941	0.062272	-0.092409
C146	C	0.454274	0.395605	0.240925
C147	C	0.787608	0.728938	0.574258
C148	C	0.120961	0.062290	0.092617
C149	C	0.454295	0.395624	0.425950
C150	C	0.787628	0.728957	0.759284
C151	C	0.171373	0.062805	0.092609
C152	C	0.504706	0.396138	0.425943
C153	C	0.838040	0.729471	0.759276
C154	C	0.196574	0.063058	0.046351
C155	C	0.529908	0.396392	0.379684
C156	C	0.863241	0.729725	0.713018
C157	C	0.574732	-0.026628	0.000128
C158	C	0.908065	0.306706	0.333461
C159	C	1.241399	0.640039	0.666795
C160	C	0.574179	-0.080282	0.000132
C161	C	0.907512	0.253051	0.333465
C162	C	1.240846	0.586384	0.666799
C163	C	0.614884	-0.419105	0.000115
C164	C	0.948217	-0.085772	0.333448
C165	C	1.281551	0.247561	0.666782
C166	C	0.612833	-0.620765	0.000108
C167	C	0.946166	-0.287431	0.333441
C168	C	1.279500	0.045902	0.666774
O169	O	0.650055	-0.652028	0.000094
O170	O	0.983388	-0.318694	0.333427
O171	O	1.316721	0.014639	0.666760
N172	N	0.568497	-0.639880	0.000098
N173	N	0.901830	-0.306546	0.333431
N174	N	1.235163	0.026787	0.666765
C175	C	0.524670	-0.608576	0.000087
C176	C	0.858003	-0.275243	0.333420
C177	C	1.191336	0.058090	0.666754
O178	O	0.486912	-0.629462	0.000073
O179	O	0.820245	-0.296129	0.333407
O180	O	1.153579	0.037204	0.666740
C181	C	0.526721	-0.406918	0.000091
C182	C	0.860055	-0.073585	0.333424
C183	C	1.193388	0.259748	0.666757
C184	C	0.571061	-0.387806	0.000106
C185	C	0.904394	-0.054473	0.333439
C186	C	1.237727	0.278860	0.666772
C187	C	0.659220	-0.399993	0.000129
C188	C	0.992553	-0.066660	0.333463
C189	C	1.325886	0.266674	0.666796
C190	C	0.659732	-0.349581	0.000134
C191	C	0.993065	-0.016248	0.333467
C192	C	1.326399	0.317086	0.666801
C193	C	0.615909	-0.318282	0.000124
C194	C	0.949242	0.015052	0.333458
C195	C	1.282575	0.348385	0.666791
C196	C	0.571573	-0.337394	0.000110
C197	C	0.904906	-0.004061	0.333444
C198	C	1.238240	0.329272	0.666777
C199	C	0.482895	-0.375616	0.000076
C200	C	0.816228	-0.042283	0.333409
C201	C	1.149562	0.291051	0.666743
C202	C	0.483412	-0.325199	0.000076
C203	C	0.816745	0.008135	0.333409
C204	C	1.150079	0.341468	0.666742
C205	C	0.527751	-0.306087	0.000091
C206	C	0.861085	0.027247	0.333424
C207	C	1.194418	0.360580	0.666757
C208	C	0.528262	-0.255683	0.000105
C209	C	0.861595	0.077650	0.333439
C210	C	1.194928	0.410983	0.666772
N211	N	0.572598	-0.236568	0.000115
N212	N	0.905932	0.096765	0.333448
N213	N	1.239265	0.430098	0.666782
C214	C	0.616422	-0.267867	0.000124
C215	C	0.949755	0.065466	0.333458
C216	C	1.283088	0.398799	0.666791
C217	C	0.523596	-0.714450	0.000086
C218	C	0.856929	-0.381117	0.333419
C219	C	1.190262	-0.047784	0.666753
C220	C	0.523083	-0.764865	0.000086
C221	C	0.856416	-0.431531	0.333419
C222	C	1.189749	-0.098198	0.666752
C223	C	0.611246	-0.777049	0.000105
C224	C	0.944579	-0.443716	0.333439
C225	C	1.277913	-0.110383	0.666772
C226	C	0.611759	-0.726634	0.000109
C227	C	0.945092	-0.393301	0.333442
C228	C	1.278425	-0.059967	0.666776
C229	C	0.567932	-0.695335	0.000095
C230	C	0.901266	-0.362002	0.333429
C231	C	1.234599	-0.028669	0.666762
C232	C	0.617494	-0.161998	0.000135
C233	C	0.950827	0.171335	0.333468
C234	C	1.284161	0.504668	0.666801
C235	C	0.618003	-0.111582	0.000142
C236	C	0.951336	0.221752	0.333475
C237	C	1.284669	0.555085	0.666808
C238	C	0.529839	-0.099401	0.000119
C239	C	0.863173	0.233932	0.333453
C240	C	1.196506	0.567265	0.666786
C241	C	0.529331	-0.149814	0.000115
C242	C	0.862664	0.183520	0.333448
C243	C	1.195997	0.516853	0.666782
C244	C	0.573162	-0.181112	0.000121
C245	C	0.906495	0.152222	0.333454
C246	C	1.239829	0.485555	0.666788
O247	O	0.491060	-0.224392	0.000114
O248	O	0.824393	0.108941	0.333447
O249	O	1.157727	0.442275	0.666780
O250	O	0.654174	-0.246972	0.000127
O251	O	0.987507	0.086361	0.333460
O252	O	1.320841	0.419694	0.666793
C253	C	0.614372	-0.469517	0.000110
C254	C	0.947705	-0.136184	0.333444
C255	C	1.281038	0.197149	0.666777
C256	C	0.570036	-0.488630	0.000096
C257	C	0.903369	-0.155297	0.333430
C258	C	1.236703	0.178037	0.666763
C259	C	0.526213	-0.457331	0.000087
C260	C	0.859546	-0.123997	0.333420
C261	C	1.192879	0.209336	0.666753
C262	C	0.569523	-0.539044	0.000096
C263	C	0.902856	-0.205711	0.333429
C264	C	1.236190	0.127622	0.666763
C265	C	0.613346	-0.570343	0.000106
C266	C	0.946680	-0.237010	0.333439
C267	C	1.280013	0.096323	0.666772
C268	C	0.657683	-0.551228	0.000115
C269	C	0.991016	-0.217895	0.333449
C270	C	1.324349	0.115438	0.666782
C271	C	0.658195	-0.500817	0.000120
C272	C	0.991528	-0.167483	0.333453
C273	C	1.324862	0.165850	0.666787
C274	C	0.481876	-0.476446	0.000077
C275	C	0.815210	-0.143112	0.333410
C276	C	1.148543	0.190221	0.666744
C277	C	0.481368	-0.526858	0.000073
C278	C	0.814701	-0.193525	0.333406
C279	C	1.148034	0.139809	0.666740
C280	C	0.525191	-0.558157	0.000083
C281	C	0.858524	-0.224824	0.333416
C282	C	1.191858	0.108509	0.666749
C283	C	0.658949	0.057570	0.000135
C284	C	0.992282	0.390904	0.333468
C285	C	1.325615	0.724237	0.666801
C286	C	0.712605	0.058113	0.000143
C287	C	1.045938	0.391446	0.333476
C288	C	1.379272	0.724779	0.666810
C289	C	0.566353	0.150181	0.000103
C290	C	0.899687	0.483515	0.333436
C291	C	1.233020	0.816848	0.666769
C292	C	0.566906	0.203836	0.000095
C293	C	0.900239	0.537169	0.333429
C294	C	1.233573	0.870503	0.666762
N295	N	0.570526	0.061793	0.120877
N296	N	0.903859	0.395126	0.454210
N297	N	1.237192	0.728460	0.787544
N298	N	0.570564	0.061757	-0.120645
N299	N	0.903897	0.395090	0.212688
N300	N	1.237230	0.728423	0.546021
C301	C	0.603657	0.028663	0.473403
C302	C	0.936990	0.361996	0.806736
C303	C	1.270323	0.695330	1.140070
C304	C	0.603667	0.028656	0.687062
C305	C	0.937001	0.361990	1.020395
C306	C	1.270334	0.695323	1.353728
O307	O	0.631818	0.000490	0.714693
O308	O	0.965151	0.333823	1.048027
O309	O	1.298484	0.667157	1.381360
N310	N	0.570554	0.061759	0.713771
N311	N	0.903887	0.395093	1.047104
N312	N	1.237220	0.728426	1.380438
C313	C	0.537433	0.094864	0.687063
C314	C	0.870767	0.428198	1.020396
C315	C	1.204100	0.761531	1.353729
O316	O	0.509265	0.123017	0.714683
O317	O	0.842598	0.456350	1.048016
O318	O	1.175932	0.789684	1.381350
C319	C	0.537421	0.094868	0.473405
C320	C	0.870754	0.428202	0.806738
C321	C	1.204087	0.761535	1.140072
C322	C	0.570540	0.061766	0.446698
C323	C	0.903873	0.395100	0.780032
C324	C	1.237206	0.728433	1.113365
C325	C	0.636772	-0.004437	0.446696
C326	C	0.970106	0.328897	0.780030
C327	C	1.303439	0.662230	1.113363
C328	C	0.636771	-0.004433	0.393285
C329	C	0.970104	0.328900	0.726618
C330	C	1.303438	0.662234	1.059951
C331	C	0.603654	0.028671	0.366580
C332	C	0.936987	0.362004	0.699913
C333	C	1.270321	0.695337	1.033247
C334	C	0.570538	0.061770	0.393287
C335	C	0.903872	0.395104	0.726620
C336	C	1.237205	0.728437	1.059953
C337	C	0.504298	0.127971	0.446697
C338	C	0.837631	0.461304	0.780031
C339	C	1.170965	0.794638	1.113364
C340	C	0.504297	0.127968	0.393280
C341	C	0.837630	0.461301	0.726613
C342	C	1.170964	0.794635	1.059946
C343	C	0.537416	0.094866	0.366573
C344	C	0.870749	0.428199	0.699906
C345	C	1.204083	0.761533	1.033240
C346	C	0.537420	0.094877	0.313171
C347	C	0.870753	0.428211	0.646504
C348	C	1.204087	0.761544	0.979837
N349	N	0.570533	0.061774	0.286461
N350	N	0.903867	0.395108	0.619794
N351	N	1.237200	0.728441	0.953128
C352	C	0.603650	0.028671	0.313166
C353	C	0.936984	0.362004	0.646499
C354	C	1.270317	0.695338	0.979833
C355	C	0.537443	0.094861	0.799236
C356	C	0.870776	0.428194	1.132569
C357	C	1.204109	0.761527	1.465903
C358	C	0.537446	0.094860	0.852650
C359	C	0.870780	0.428193	1.185983
C360	C	1.204113	0.761527	1.519317
C361	C	0.603680	0.028651	0.852645
C362	C	0.937013	0.361985	1.185979
C363	C	1.270347	0.695318	1.519312
C364	C	0.603678	0.028654	0.799230
C365	C	0.937012	0.361988	1.132564
C366	C	1.270345	0.695321	1.465897
C367	C	0.570556	0.061757	0.772526
C368	C	0.903890	0.395091	1.105860
C369	C	1.237223	0.728424	1.439193
C370	C	0.603646	0.028682	0.200998
C371	C	0.936979	0.362015	0.534331
C372	C	1.270312	0.695348	0.867665
C373	C	0.603643	0.028690	0.147582
C374	C	0.936976	0.362023	0.480915
C375	C	1.270309	0.695356	0.814248
C376	C	0.537408	0.094897	0.147591
C377	C	0.870741	0.428230	0.480924
C378	C	1.204074	0.761563	0.814258
C379	C	0.537412	0.094891	0.201003
C380	C	0.870745	0.428224	0.534336
C381	C	1.204079	0.761557	0.867669
C382	C	0.570533	0.061779	0.227705
C383	C	0.903866	0.395112	0.561038
C384	C	1.237200	0.728446	0.894371
O385	O	0.509281	0.123025	0.285506
O386	O	0.842614	0.456359	0.618839
O387	O	1.175947	0.789692	0.952172
O388	O	0.631807	0.000515	0.285536
O389	O	0.965141	0.333849	0.618869
O390	O	1.298474	0.667182	0.952203
C391	C	0.603658	0.028659	0.526814
C392	C	0.936991	0.361993	0.860148
C393	C	1.270325	0.695326	1.193481
C394	C	0.570542	0.061759	0.553521
C395	C	0.903875	0.395092	0.886854
C396	C	1.237209	0.728426	1.220188
C397	C	0.537425	0.094862	0.526816
C398	C	0.870758	0.428196	0.860150
C399	C	1.204092	0.761529	1.193483
C400	C	0.570546	0.061759	0.606935
C401	C	0.903879	0.395092	0.940269
C402	C	1.237212	0.728425	1.273602
C403	C	0.603663	0.028655	0.633640
C404	C	0.936996	0.361988	0.966973
C405	C	1.270329	0.695322	1.300307
C406	C	0.636776	-0.004448	0.606931
C407	C	0.970110	0.328885	0.940264
C408	C	1.303443	0.662219	1.273597
C409	C	0.636775	-0.004444	0.553519
C410	C	0.970108	0.328889	0.886852
C411	C	1.303442	0.662222	1.220186
C412	C	0.504311	0.127965	0.553526
C413	C	0.837645	0.461299	0.886859
C414	C	1.170978	0.794632	1.220193
C415	C	0.504316	0.127959	0.606937
C416	C	0.837649	0.461293	0.940271
C417	C	1.170982	0.794626	1.273604
C418	C	0.537433	0.094856	0.633642
C419	C	0.870766	0.428189	0.966975
C420	C	1.204100	0.761523	1.300309
H421	H	0.040652	0.061462	0.130300
H422	H	0.373985	0.394796	0.463633
H423	H	0.707319	0.728129	0.796966
H424	H	0.477343	0.154922	0.531787
H425	H	0.810676	0.488255	0.865120
H426	H	1.144010	0.821588	1.198454
C427	C	-0.058018	0.060431	-0.143281
C428	C	0.275316	0.393764	0.190052
C429	C	0.608649	0.727097	0.523386
H430	H	-0.035781	0.060649	-0.170827
H431	H	0.297552	0.393982	0.162506
H432	H	0.630885	0.727315	0.495839
H433	H	-0.081588	0.088425	-0.145217
H434	H	0.251745	0.421758	0.188116
H435	H	0.585079	0.755092	0.521449
H436	H	-0.073778	0.032023	-0.145196
H437	H	0.259555	0.365356	0.188138
H438	H	0.592889	0.698690	0.521471
C439	C	0.467884	0.164374	0.636311
C440	C	0.801217	0.497707	0.969645
C441	C	1.134551	0.831040	1.302978
H442	H	0.472626	0.159636	0.671949
H443	H	0.805959	0.492969	1.005282
H444	H	1.139292	0.826302	1.338615
H445	H	0.435665	0.159350	0.627552
H446	H	0.768998	0.492683	0.960886
H447	H	1.102332	0.826017	1.294219
H448	H	0.472892	0.196601	0.627559
H449	H	0.806225	0.529934	0.960892
H450	H	1.139559	0.863268	1.294226
C451	C	-0.058000	0.060453	0.143520
C452	C	0.275333	0.393787	0.476853
C453	C	0.608666	0.727120	0.810186
H454	H	-0.035763	0.060686	0.171065
H455	H	0.297570	0.394019	0.504398
H456	H	0.630904	0.727353	0.837732
H457	H	-0.073768	0.032054	0.145449
H458	H	0.259565	0.365387	0.478783
H459	H	0.592898	0.698721	0.812116
H460	H	-0.081565	0.088456	0.145442
H461	H	0.251768	0.421790	0.478775
H462	H	0.585102	0.755123	0.812109
H463	H	-0.191240	0.059111	0.084061
H464	H	0.142093	0.392444	0.417394
H465	H	0.475427	0.725777	0.750727
C466	C	0.665707	-0.196419	0.000146
C467	C	0.999041	0.136914	0.333479
C468	C	1.332374	0.470248	0.666812
H469	H	0.692182	-0.177810	0.000160
H470	H	1.025515	0.155524	0.333493
H471	H	1.358849	0.488857	0.666826
H472	H	0.667352	-0.216340	-0.029446
H473	H	1.000685	0.116994	0.303888
H474	H	1.334018	0.450327	0.637221
H475	H	0.667335	-0.216338	0.029742
H476	H	1.000668	0.116995	0.363075
H477	H	1.334002	0.450329	0.696408
H478	H	0.040631	0.061448	-0.130072
H479	H	0.373965	0.394782	0.203261
H480	H	0.707298	0.728115	0.536595
H481	H	0.654110	-0.096024	0.000155
H482	H	0.987444	0.237310	0.333488
H483	H	1.320777	0.570643	0.666822
C484	C	0.708505	-0.328564	0.000140
C485	C	1.041839	0.004769	0.333474
C486	C	1.375172	0.338103	0.666807
H487	H	0.734528	-0.354431	0.000140
H488	H	1.067861	-0.021097	0.333473
H489	H	1.401195	0.312236	0.666806
H490	H	0.710541	-0.309150	0.029731
H491	H	1.043875	0.024183	0.363064
H492	H	1.377208	0.357517	0.696398
H493	H	0.710542	-0.309154	-0.029456
H494	H	1.043875	0.024180	0.303877
H495	H	1.377209	0.357513	0.637210
H496	H	-0.282718	0.058156	-0.083786
H497	H	0.050615	0.391489	0.249548
H498	H	0.383949	0.724822	0.582881
H499	H	-0.282706	0.058170	0.084064
H500	H	0.050627	0.391503	0.417397
H501	H	0.383961	0.724837	0.750731
C502	C	0.707430	-0.434415	0.000144
C503	C	1.040763	-0.101082	0.333477
C504	C	1.374096	0.232252	0.666811
H505	H	0.733904	-0.415804	0.000156
H506	H	1.067237	-0.082471	0.333490
H507	H	1.400570	0.250862	0.666823
H508	H	0.709076	-0.454339	-0.029445
H509	H	1.042409	-0.121005	0.303888
H510	H	1.375743	0.212328	0.637221
H511	H	0.709057	-0.454331	0.029742
H512	H	1.042391	-0.120998	0.363075
H513	H	1.375724	0.212335	0.696409
C514	C	0.430996	0.065454	-0.097058
C515	C	0.764329	0.398787	0.236276
C516	C	1.097662	0.732120	0.569609
H517	H	0.464630	0.065796	-0.090430
H518	H	0.797964	0.399130	0.242903
H519	H	1.131297	0.732463	0.576237
H520	H	0.418834	0.093564	-0.116073
H521	H	0.752168	0.426897	0.217261
H522	H	1.085501	0.760230	0.550594
H523	H	0.426636	0.037162	-0.116056
H524	H	0.759969	0.370495	0.217277
H525	H	1.093303	0.703828	0.550610
C526	C	0.673202	-0.040863	0.636313
C527	C	1.006535	0.292471	0.969646
C528	C	1.339869	0.625804	1.302979
H529	H	0.668453	-0.036123	0.671948
H530	H	1.001787	0.297210	1.005281
H531	H	1.335120	0.630544	1.338615
H532	H	0.705425	-0.035846	0.627564
H533	H	1.038758	0.297487	0.960898
H534	H	1.372092	0.630821	1.294231
H535	H	0.668190	-0.073089	0.627559
H536	H	1.001523	0.260245	0.960892
H537	H	1.334856	0.593578	1.294226
C538	C	0.660531	-0.705615	0.000121
C539	C	0.993864	-0.372282	0.333454
C540	C	1.327198	-0.038949	0.666787
H541	H	0.686555	-0.731480	0.000124
H542	H	1.019888	-0.398147	0.333457
H543	H	1.353221	-0.064814	0.666790
H544	H	0.662562	-0.686200	0.029711
H545	H	0.995895	-0.352867	0.363045
H546	H	1.329228	-0.019534	0.696378
H547	H	0.662570	-0.686205	-0.029476
H548	H	0.995904	-0.352872	0.303857
H549	H	1.329237	-0.019538	0.637191
H550	H	0.446789	-0.391168	0.000061
H551	H	0.780123	-0.057834	0.333394
H552	H	1.113456	0.275499	0.666728
C553	C	0.640079	-0.007738	0.230363
C554	C	0.973413	0.325595	0.563696
C555	C	1.306746	0.658928	0.897029
H556	H	0.659802	-0.027445	0.206801
H557	H	0.993135	0.305888	0.540134
H558	H	1.326469	0.639221	0.873468
H559	H	0.622848	-0.027743	0.251199
H560	H	0.956182	0.305591	0.584532
H561	H	1.289515	0.638924	0.917866
H562	H	0.660074	0.009510	0.251199
H563	H	0.993407	0.342843	0.584532
H564	H	1.326741	0.676176	0.917866
H565	H	0.493226	-0.165375	0.000117
H566	H	0.826559	0.167958	0.333451
H567	H	1.159893	0.501291	0.666784
H568	H	0.694301	-0.485261	0.000132
H569	H	1.027634	-0.151927	0.333465
H570	H	1.360967	0.181406	0.666798
H571	H	0.332330	0.064450	-0.083838
H572	H	0.665663	0.397783	0.249495
H573	H	0.998996	0.731116	0.582828
C574	C	-0.184066	0.059159	-0.097015
C575	C	0.149267	0.392492	0.236318
C576	C	0.482601	0.725826	0.569651
H577	H	-0.206307	0.058935	-0.124558
H578	H	0.127026	0.392268	0.208775
H579	H	0.460359	0.725602	0.542108
H580	H	-0.160499	0.031162	-0.098944
H581	H	0.172835	0.364495	0.234389
H582	H	0.506168	0.697829	0.567723
H583	H	-0.168303	0.087564	-0.098943
H584	H	0.165031	0.420897	0.234391
H585	H	0.498364	0.754231	0.567724
H586	H	0.477324	0.154924	0.371540
H587	H	0.810657	0.488258	0.704873
H588	H	1.143990	0.821591	1.038207
C589	C	0.093246	0.062016	0.143504
C590	C	0.426579	0.395349	0.476837
C591	C	0.759913	0.728683	0.810171
H592	H	0.115485	0.062252	0.171048
H593	H	0.448818	0.395585	0.504381
H594	H	0.782152	0.728918	0.837714
H595	H	0.077476	0.033618	0.145440
H596	H	0.410810	0.366952	0.478773
H597	H	0.744143	0.700285	0.812106
H598	H	0.069683	0.090020	0.145424
H599	H	0.403016	0.423354	0.478758
H600	H	0.736349	0.756687	0.812091
H601	H	0.646929	-0.802542	0.000113
H602	H	0.980262	-0.469209	0.333447
H603	H	1.313596	-0.135875	0.666780
H604	H	0.445259	-0.542414	0.000065
H605	H	0.778592	-0.209080	0.333399
H606	H	1.111925	0.124253	0.666732
H607	H	0.630646	0.001698	0.874397
H608	H	0.963979	0.335031	1.207731
H609	H	1.297313	0.668364	1.541064
H610	H	0.486977	-0.780421	0.000083
H611	H	0.820311	-0.447088	0.333416
H612	H	1.153644	-0.113754	0.666749
H613	H	0.423800	0.065407	0.084011
H614	H	0.757133	0.398741	0.417344
H615	H	1.090467	0.732074	0.750677
C616	C	0.475383	-0.680027	0.000078
C617	C	0.808717	-0.346694	0.333411
C618	C	1.142050	-0.013361	0.666744
H619	H	0.448909	-0.698637	0.000078
H620	H	0.782242	-0.365303	0.333411
H621	H	1.115575	-0.031970	0.666744
H622	H	0.473749	-0.660105	-0.029513
H623	H	0.807082	-0.326772	0.303820
H624	H	1.140415	0.006561	0.637154
H625	H	0.473746	-0.660110	0.029675
H626	H	0.807079	-0.326776	0.363008
H627	H	1.140413	0.006557	0.696341
H628	H	0.332353	0.064458	0.084020
H629	H	0.665686	0.397791	0.417353
H630	H	0.999019	0.731124	0.750686
H631	H	0.447722	-0.299717	0.000064
H632	H	0.781056	0.033616	0.333397
H633	H	1.114389	0.366950	0.666731
H634	H	0.494160	-0.073909	0.000113
H635	H	0.827493	0.259425	0.333447
H636	H	1.160826	0.592758	0.666780
C637	C	0.705887	-0.585664	0.000122
C638	C	1.039220	-0.252331	0.333455
C639	C	1.372554	0.081003	0.666788
H640	H	0.699227	-0.618425	0.000113
H641	H	1.032560	-0.285091	0.333446
H642	H	1.365894	0.048242	0.666779
H643	H	0.724084	-0.579912	0.029716
H644	H	1.057417	-0.246579	0.363050
H645	H	1.390750	0.086754	0.696383
H646	H	0.724085	-0.579905	-0.029471
H647	H	1.057418	-0.246572	0.303862
H648	H	1.390752	0.086761	0.637195
C649	C	0.433668	-0.442023	0.000072
C650	C	0.767001	-0.108689	0.333405
C651	C	1.100334	0.224644	0.666739
H652	H	0.407193	-0.460632	0.000070
H653	H	0.740526	-0.127298	0.333403
H654	H	1.073859	0.206035	0.666737
H655	H	0.432033	-0.422098	-0.029517
H656	H	0.765366	-0.088765	0.303817
H657	H	1.098700	0.244569	0.637150
H658	H	0.432031	-0.422108	0.029671
H659	H	0.765364	-0.088775	0.363004
H660	H	1.098698	0.244559	0.696338
C661	C	0.640073	-0.007726	0.118207
C662	C	0.973406	0.325607	0.451541
C663	C	1.306739	0.658941	0.784874
H664	H	0.659792	-0.027444	0.141765
H665	H	0.993125	0.305889	0.475098
H666	H	1.326458	0.639222	0.808431
H667	H	0.660064	0.009519	0.097371
H668	H	0.993398	0.342853	0.430704
H669	H	1.326731	0.676186	0.764038
H670	H	0.622832	-0.027727	0.097370
H671	H	0.956165	0.305607	0.430704
H672	H	1.289499	0.638940	0.764037
H673	H	0.663738	-0.031389	0.371543
H674	H	0.997071	0.301945	0.704877
H675	H	1.330405	0.635278	1.038210
C676	C	0.673207	-0.040851	0.476063
C677	C	1.006540	0.292482	0.809397
C678	C	1.339874	0.625815	1.142730
H679	H	0.692928	-0.060558	0.452500
H680	H	1.026261	0.272775	0.785834
H681	H	1.359595	0.606108	1.119167
H682	H	0.655979	-0.060856	0.496903
H683	H	0.989313	0.272478	0.830236
H684	H	1.322646	0.605811	1.163570
H685	H	0.693203	-0.023601	0.496896
H686	H	1.026536	0.309732	0.830229
H687	H	1.359869	0.643066	1.163563
C688	C	0.093216	0.061981	-0.143293
C689	C	0.426550	0.395315	0.190040
C690	C	0.759883	0.728648	0.523374
H691	H	0.115452	0.062202	-0.170839
H692	H	0.448785	0.395535	0.162494
H693	H	0.782119	0.728869	0.495827
H694	H	0.069649	0.089978	-0.145224
H695	H	0.402982	0.423312	0.188110
H696	H	0.736315	0.756645	0.521443
H697	H	0.077452	0.033576	-0.145213
H698	H	0.410786	0.366910	0.188120
H699	H	0.744119	0.700243	0.521453
H700	H	0.630646	0.001700	0.777489
H701	H	0.963980	0.335033	1.110822
H702	H	1.297313	0.668366	1.444155
C703	C	0.501016	0.131273	0.882022
C704	C	0.834349	0.464606	1.215355
C705	C	1.167683	0.797939	1.548688
H706	H	0.481290	0.150982	0.858463
H707	H	0.814623	0.484315	1.191796
H708	H	1.147957	0.817649	1.525129
H709	H	0.518247	0.151275	0.902861
H710	H	0.851581	0.484609	1.236194
H711	H	1.184914	0.817942	1.569528
H712	H	0.481025	0.114020	0.902855
H713	H	0.814358	0.447353	1.236189
H714	H	1.147692	0.780686	1.569522
C715	C	0.500964	0.131283	0.230381
C716	C	0.834298	0.464617	0.563714
C717	C	1.167631	0.797950	0.897048
H718	H	0.481234	0.150991	0.206825
H719	H	0.814567	0.484325	0.540158
H720	H	1.147900	0.817658	0.873491
H721	H	0.518177	0.151290	0.251235
H722	H	0.851511	0.484623	0.584569
H723	H	1.184844	0.817957	0.917902
H724	H	0.480980	0.114009	0.251200
H725	H	0.814313	0.447343	0.584533
H726	H	1.147647	0.780676	0.917867
H727	H	0.510470	0.121818	0.777497
H728	H	0.843803	0.455152	1.110831
H729	H	1.177137	0.788485	1.444164
H730	H	0.191880	0.062995	-0.130078
H731	H	0.525213	0.396328	0.203255
H732	H	0.858547	0.729662	0.536589
H733	H	0.477330	0.154925	0.468435
H734	H	0.810663	0.488258	0.801768
H735	H	1.143996	0.821592	1.135101
H736	H	0.510445	0.121851	0.125840
H737	H	0.843779	0.455184	0.459173
H738	H	1.177112	0.788517	0.792507
H739	H	0.191894	0.063021	0.130281
H740	H	0.525228	0.396354	0.463614
H741	H	0.858561	0.729687	0.796948
H742	H	0.663743	-0.031399	0.531778
H743	H	0.997077	0.301934	0.865112
H744	H	1.330410	0.635268	1.198445
