data_functionalizedCrystal
_audit_creation_method	'MofGen! by Chris Wilmer'
_symmetry_space_group_name_H-M	'P1'
_symmetry_Int_Tables_number	1
_symmetry_cell_setting	triclinic
loop_
_symmetry_equiv_pos_as_xyz
  x,y,z
_cell_length_a	29.839133
_cell_length_b	29.839134
_cell_length_c	16.120297
_cell_angle_alpha	87.135127
_cell_angle_beta	92.878609
_cell_angle_gamma	89.978030
loop_
_atom_site_label
_atom_site_type_symbol
_atom_site_fract_x
_atom_site_fract_y
_atom_site_fract_z
Zn1	Zn	-0.191844	-0.673899	-0.471728
Zn2	Zn	0.308156	-0.173899	0.028272
Zn3	Zn	-0.263163	-0.677646	-0.332335
Zn4	Zn	0.236837	-0.177646	0.167665
Zn5	Zn	-0.188037	-0.602582	-0.332299
Zn6	Zn	0.311963	-0.102582	0.167701
Zn7	Zn	-0.266936	-0.598746	-0.471666
Zn8	Zn	0.233064	-0.098746	0.028334
O9	O	-0.227495	-0.638218	-0.402007
O10	O	0.272505	-0.138218	0.097993
O11	O	-0.201319	-0.737262	-0.453278
O12	O	0.298681	-0.237262	0.046722
O13	O	-0.250025	-0.670862	-0.215668
O14	O	0.249975	-0.170862	0.284332
O15	O	-0.125675	-0.612079	-0.350806
O16	O	0.374325	-0.112079	0.149194
O17	O	-0.253717	-0.740015	-0.350867
O18	O	0.246283	-0.240015	0.149133
O19	O	-0.128472	-0.664475	-0.453244
O20	O	0.371528	-0.164475	0.046756
O21	O	-0.194830	-0.615713	-0.215642
O22	O	0.305170	-0.115713	0.284358
O23	O	-0.198489	-0.539207	-0.350746
O24	O	0.301511	-0.039207	0.149254
O25	O	-0.260147	-0.605542	-0.588337
O26	O	0.239853	-0.105542	-0.088337
O27	O	-0.256456	-0.536389	-0.453138
O28	O	0.243544	-0.036389	0.046862
O29	O	-0.204977	-0.660756	-0.588382
O30	O	0.295023	-0.160756	-0.088382
O31	O	-0.326530	-0.667143	-0.350806
O32	O	0.173470	-0.167143	0.149194
O33	O	-0.329302	-0.609176	-0.453172
O34	O	0.170698	-0.109176	0.046828
C35	C	-0.227469	-0.521498	-0.401932
C36	C	0.272531	-0.021498	0.098068
C37	C	-0.227469	-0.471564	-0.401919
C38	C	0.272531	0.028436	0.098081
C39	C	-0.197268	-0.116427	-0.348771
C40	C	0.302732	0.383573	0.151229
C41	C	-0.197255	-0.304101	-0.348731
C42	C	0.302745	0.195899	0.151269
O43	O	-0.171540	-0.329600	-0.303483
O44	O	0.328460	0.170400	0.196517
N45	N	-0.227476	-0.326117	-0.401953
N46	N	0.272524	0.173883	0.098047
C47	C	-0.257700	-0.301213	-0.455193
C48	C	0.242300	0.198787	0.044807
O49	O	-0.283402	-0.324245	-0.500466
O50	O	0.216598	0.175755	-0.000466
C51	C	-0.257710	-0.113539	-0.455236
C52	C	0.242290	0.386461	0.044764
C53	C	-0.227491	-0.091525	-0.402005
C54	C	0.272509	0.408475	0.097995
C55	C	-0.167050	-0.094412	-0.295545
C56	C	0.332950	0.405588	0.204455
C57	C	-0.167055	-0.047497	-0.295552
C58	C	0.332945	0.452503	0.204448
C59	C	-0.197278	-0.022595	-0.348786
C60	C	0.302722	0.477405	0.151214
C61	C	-0.227496	-0.044610	-0.402012
C62	C	0.272504	0.455390	0.097988
C63	C	-0.287932	-0.088635	-0.508480
C64	C	0.212068	0.411365	-0.008480
C65	C	-0.287931	-0.041714	-0.508487
C66	C	0.212069	0.458286	-0.008487
C67	C	-0.257711	-0.019700	-0.455256
C68	C	0.242289	0.480300	0.044744
C69	C	-0.257723	0.027208	-0.455253
C70	C	0.242277	0.527208	0.044747
N71	N	-0.227503	0.049224	-0.402031
N72	N	0.272497	0.549224	0.097969
C73	C	-0.197280	0.024323	-0.348798
C74	C	0.302720	0.524323	0.151202
C75	C	-0.257693	-0.399744	-0.455165
C76	C	0.242307	0.100256	0.044835
C77	C	-0.257692	-0.446662	-0.455153
C78	C	0.242308	0.053338	0.044847
C79	C	-0.197246	-0.449547	-0.348692
C80	C	0.302754	0.050453	0.151308
C81	C	-0.197250	-0.402628	-0.348700
C82	C	0.302750	0.097372	0.151300
C83	C	-0.227473	-0.377727	-0.401943
C84	C	0.272527	0.122273	0.098057
C85	C	-0.197293	0.122849	-0.348817
C86	C	0.302707	0.622849	0.151183
C87	C	-0.197302	0.169769	-0.348826
C88	C	0.302698	0.669769	0.151174
C89	C	-0.257746	0.172650	-0.455290
C90	C	0.242254	0.672650	0.044710
C91	C	-0.257739	0.125734	-0.455277
C92	C	0.242261	0.625734	0.044723
C93	C	-0.227509	0.100835	-0.402038
C94	C	0.272491	0.600835	0.097962
O95	O	-0.283422	0.052735	-0.500484
O96	O	0.216578	0.552735	-0.000484
O97	O	-0.171576	0.047364	-0.303544
O98	O	0.328424	0.547364	0.196456
C99	C	-0.197263	-0.163342	-0.348764
C100	C	0.302737	0.336658	0.151236
C101	C	-0.227480	-0.185356	-0.401990
C102	C	0.272520	0.314644	0.098010
C103	C	-0.257703	-0.160455	-0.455224
C104	C	0.242297	0.339545	0.044776
C105	C	-0.227479	-0.232275	-0.401978
C106	C	0.272521	0.267725	0.098022
C107	C	-0.197256	-0.257176	-0.348745
C108	C	0.302744	0.242824	0.151255
C109	C	-0.167035	-0.235159	-0.295523
C110	C	0.332965	0.264841	0.204477
C111	C	-0.167040	-0.188244	-0.295530
C112	C	0.332960	0.311756	0.204470
C113	C	-0.287924	-0.182472	-0.508446
C114	C	0.212076	0.317528	-0.008446
C115	C	-0.287917	-0.229388	-0.508434
C116	C	0.212083	0.270612	-0.008434
C117	C	-0.257694	-0.254289	-0.455200
C118	C	0.242306	0.245711	0.044800
C119	C	-0.344217	-0.638161	-0.402005
C120	C	0.155783	-0.138161	0.097995
C121	C	-0.394153	-0.638177	-0.402032
C122	C	0.105847	-0.138177	0.097968
C123	C	-0.752162	-0.665516	-0.455408
C124	C	-0.252162	-0.165516	0.044592
C125	C	-0.564489	-0.665473	-0.455407
C126	C	-0.064489	-0.165473	0.044593
O127	O	-0.541434	-0.688660	-0.500777
O128	O	-0.041434	-0.188660	-0.000777
N129	N	-0.539598	-0.638213	-0.402030
N130	N	-0.039598	-0.138213	0.097970
C131	C	-0.561627	-0.610963	-0.348645
C132	C	-0.061627	-0.110963	0.151355
O133	O	-0.536149	-0.587779	-0.303239
O134	O	-0.036149	-0.087779	0.196761
C135	C	-0.749299	-0.611008	-0.348643
C136	C	-0.249299	-0.111008	0.151357
C137	C	-0.774189	-0.638267	-0.402029
C138	C	-0.274189	-0.138267	0.097971
C139	C	-0.777051	-0.692773	-0.508789
C140	C	-0.277051	-0.192773	-0.008789
C141	C	-0.823967	-0.692781	-0.508792
C142	C	-0.323967	-0.192781	-0.008792
C143	C	-0.845993	-0.665533	-0.455414
C144	C	-0.345993	-0.165533	0.044586
C145	C	-0.821104	-0.638276	-0.402032
C146	C	-0.321104	-0.138276	0.097968
C147	C	-0.771328	-0.583761	-0.295255
C148	C	-0.271328	-0.083761	0.204745
C149	C	-0.818249	-0.583776	-0.295257
C150	C	-0.318249	-0.083776	0.204743
C151	C	-0.843138	-0.611035	-0.348644
C152	C	-0.343138	-0.111035	0.151356
C153	C	-0.890046	-0.611036	-0.348656
C154	C	-0.390046	-0.111036	0.151344
N155	N	-0.914937	-0.638296	-0.402033
N156	N	-0.414937	-0.138296	0.097967
C157	C	-0.892911	-0.665545	-0.455412
C158	C	-0.392911	-0.165545	0.044588
C159	C	-0.463097	-0.610941	-0.348652
C160	C	0.036903	-0.110941	0.151348
C161	C	-0.416179	-0.610929	-0.348653
C162	C	0.083821	-0.110929	0.151347
C163	C	-0.419044	-0.665439	-0.455414
C164	C	0.080956	-0.165439	0.044586
C165	C	-0.465963	-0.665449	-0.455416
C166	C	0.034037	-0.165449	0.044584
C167	C	-0.487988	-0.638201	-0.402029
C168	C	0.012012	-0.138201	0.097971
C169	C	-0.991437	-0.665560	-0.455415
C170	C	-0.491437	-0.165560	0.044585
C171	C	-1.038357	-0.665565	-0.455415
C172	C	-0.538357	-0.165565	0.044585
C173	C	-1.035487	-0.611056	-0.348652
C174	C	-0.535487	-0.111056	0.151348
C175	C	-0.988572	-0.611049	-0.348654
C176	C	-0.488572	-0.111049	0.151346
C177	C	-0.966548	-0.638305	-0.402038
C178	C	-0.466548	-0.138305	0.097962
O179	O	-0.913131	-0.587865	-0.303304
O180	O	-0.413131	-0.087865	0.196696
O181	O	-0.918397	-0.688733	-0.500799
O182	O	-0.418397	-0.188733	-0.000799
C183	C	-0.705247	-0.665507	-0.455405
C184	C	-0.205247	-0.165507	0.044595
C185	C	-0.680357	-0.638250	-0.402023
C186	C	-0.180357	-0.138250	0.097977
C187	C	-0.702384	-0.611002	-0.348645
C188	C	-0.202384	-0.111002	0.151355
C189	C	-0.633440	-0.638238	-0.402025
C190	C	-0.133440	-0.138238	0.097975
C191	C	-0.611413	-0.665487	-0.455403
C192	C	-0.111413	-0.165487	0.044597
C193	C	-0.636305	-0.692747	-0.508781
C194	C	-0.136305	-0.192747	-0.008781
C195	C	-0.683220	-0.692756	-0.508783
C196	C	-0.183220	-0.192756	-0.008783
C197	C	-0.677492	-0.583741	-0.295268
C198	C	-0.177492	-0.083741	0.204732
C199	C	-0.630577	-0.583734	-0.295270
C200	C	-0.130577	-0.083734	0.204730
C201	C	-0.608551	-0.610983	-0.348648
C202	C	-0.108551	-0.110983	0.151352
C203	C	-0.110317	-0.638287	-0.402028
C204	C	0.389683	-0.138287	0.097972
C205	C	-0.060383	-0.638316	-0.402037
C206	C	0.439617	-0.138316	0.097963
C207	C	-0.233408	-0.632303	-0.619454
C208	C	0.266592	-0.132303	-0.119454
C209	C	-0.235928	-0.629783	-0.712117
C210	C	0.264072	-0.129783	-0.212117
C211	C	-0.227520	0.244605	-0.402069
C212	C	0.272480	0.744605	0.097931
C213	C	-0.227525	0.194671	-0.402060
C214	C	0.272475	0.694671	0.097940
C215	C	-0.240518	-0.625164	-0.881774
C216	C	0.259482	-0.125164	-0.381774
C217	C	-0.214337	-0.651360	-0.923092
C218	C	0.285663	-0.151360	-0.423092
C219	C	-0.216891	-0.648791	-1.017495
C220	C	0.283109	-0.148791	-0.517495
C221	C	-0.237964	-0.627734	-0.787363
C222	C	0.262036	-0.127734	-0.287363
C223	C	-0.221573	-0.644136	-0.185406
C224	C	0.278427	-0.144136	0.314594
C225	C	-0.218926	-0.646743	-0.092743
C226	C	0.281074	-0.146743	0.407257
H227	H	-0.172693	0.187691	-0.305476
H228	H	0.327307	0.687691	0.194524
Br229	Br	-0.606403	-0.729724	-0.581227
Br230	Br	-0.106403	-0.229724	-0.081227
Br231	Br	-0.156266	0.089065	-0.276562
Br232	Br	0.343734	0.589065	0.223438
Br233	Br	-0.126036	-0.017628	-0.223314
Br234	Br	0.373964	0.482372	0.276686
Br235	Br	-0.848137	-0.546797	-0.222795
Br236	Br	-0.348137	-0.046797	0.277205
Br237	Br	-0.126026	-0.128199	-0.223292
Br238	Br	0.373974	0.371801	0.276708
Br239	Br	-0.328947	-0.118499	-0.580727
Br240	Br	0.171053	0.381501	-0.080727
H241	H	-0.968307	-0.588848	-0.305190
H242	H	-0.468307	-0.088848	0.194810
H243	H	-0.481025	-0.588751	-0.305175
H244	H	0.018975	-0.088751	0.194825
Br245	Br	-0.328948	-0.007922	-0.580753
Br246	Br	0.171052	0.492078	-0.080753
H247	H	-0.264849	-0.600810	-0.917296
H248	H	0.235151	-0.100810	-0.417296
Br249	Br	-0.173792	-0.691968	-0.863887
Br250	Br	0.326208	-0.191968	-0.363887
Br251	Br	-0.156237	-0.372757	-0.276455
Br252	Br	0.343763	0.127243	0.223545
Br253	Br	-0.857738	-0.729776	-0.581253
Br254	Br	-0.357738	-0.229776	-0.081253
Br255	Br	-0.156230	-0.483351	-0.276445
Br256	Br	0.343770	0.016649	0.223555
H257	H	-0.282304	-0.464582	-0.498490
H258	H	0.217696	0.035418	0.001510
H259	H	-0.282306	-0.379474	-0.498523
H260	H	0.217694	0.120526	0.001477
H261	H	-0.759122	-0.714964	-0.552256
H262	H	-0.259122	-0.214964	-0.052256
H263	H	-0.282349	0.107809	-0.498616
H264	H	0.217651	0.607809	0.001384
H265	H	-1.058620	-0.687762	-0.498894
H266	H	-0.558620	-0.187762	0.001106
H267	H	-0.486225	-0.687643	-0.498891
H268	H	0.013775	-0.187643	0.001109
H269	H	-0.401103	-0.687626	-0.498878
H270	H	0.098897	-0.187626	0.001122
Br271	Br	-0.737561	-0.546760	-0.222805
Br272	Br	-0.237561	-0.046760	0.277195
H273	H	-0.395917	-0.588727	-0.305190
H274	H	0.104083	-0.088727	0.194810
Br275	Br	-0.596804	-0.546732	-0.222818
Br276	Br	-0.096804	-0.046732	0.277182
H277	H	-0.282354	0.192933	-0.498628
H278	H	0.217646	0.692933	0.001372
H279	H	-1.053430	-0.588870	-0.305194
H280	H	-0.553430	-0.088870	0.194806
H281	H	-0.703481	-0.714952	-0.552257
H282	H	-0.203481	-0.214952	-0.052257
H283	H	-0.142432	-0.170324	-0.252184
H284	H	0.357568	0.329676	0.247816
H285	H	-0.142428	-0.255442	-0.252175
H286	H	0.357572	0.244558	0.247825
H287	H	-0.312529	-0.247307	-0.551780
H288	H	0.187471	0.252693	-0.051780
H289	H	-0.312535	-0.162202	-0.551797
H290	H	0.187465	0.337798	-0.051797
H291	H	-0.973511	-0.687755	-0.498884
H292	H	-0.473511	-0.187755	0.001116
H293	H	-0.695421	-0.561552	-0.251798
H294	H	-0.195421	-0.061552	0.248202
