data_functionalizedCrystal
_audit_creation_method	'MofGen! by Chris Wilmer'
_symmetry_space_group_name_H-M	'P1'
_symmetry_Int_Tables_number	1
_symmetry_cell_setting	triclinic
loop_
_symmetry_equiv_pos_as_xyz
  x,y,z
_cell_length_a	26.210047
_cell_length_b	27.732048
_cell_length_c	27.732048
_cell_angle_alpha	82.642655
_cell_angle_beta	89.999521
_cell_angle_gamma	89.996535
loop_
_atom_site_label
_atom_site_type_symbol
_atom_site_fract_x
_atom_site_fract_y
_atom_site_fract_z
O1	O	0.042369	-0.640931	-0.057510
O2	O	0.542369	-0.140931	0.442490
O3	O	0.042385	-0.500138	-0.066256
O4	O	0.542385	-0.000138	0.433744
O5	O	0.042367	-0.574907	0.008514
O6	O	0.542367	-0.074907	0.508514
O7	O	0.042387	-0.566162	-0.132279
O8	O	0.542387	-0.066162	0.367721
O9	O	-0.042491	-0.574893	0.008502
O10	O	0.457509	-0.074893	0.508502
O11	O	-0.042473	-0.500123	-0.066267
O12	O	0.457527	-0.000123	0.433733
O13	O	-0.042489	-0.640917	-0.057522
O14	O	0.457511	-0.140917	0.442478
Cu15	Cu	-0.050229	-0.570519	-0.061896
Cu16	Cu	0.449771	-0.070519	0.438104
Cu17	Cu	0.050125	-0.570536	-0.061882
Cu18	Cu	0.550125	-0.070536	0.438118
O19	O	-0.042471	-0.566147	-0.132291
O20	O	0.457529	-0.066147	0.367709
C21	C	-0.000042	-0.482124	-0.066078
C22	C	0.499958	0.017876	0.433922
C23	C	-0.000036	-0.428469	-0.065525
C24	C	0.499964	0.071531	0.434475
C25	C	-0.000064	-0.574716	0.026515
C26	C	0.499936	-0.074716	0.526515
C27	C	-0.000068	-0.574164	0.080170
C28	C	0.499932	-0.074164	0.580170
N29	N	-0.120813	-0.570510	-0.061905
N30	N	0.379187	-0.070510	0.438095
C31	C	-0.473336	-0.603640	-0.028781
C32	C	0.026664	-0.103640	0.471219
C33	C	-0.686994	-0.603651	-0.028774
C34	C	-0.186994	-0.103651	0.471226
O35	O	-0.714623	-0.631801	-0.000614
O36	O	-0.214623	-0.131801	0.499386
N37	N	-0.713707	-0.570538	-0.061871
N38	N	-0.213707	-0.070538	0.438129
C39	C	-0.687003	-0.537419	-0.094970
C40	C	-0.187003	-0.037419	0.405030
O41	O	-0.714626	-0.509251	-0.123117
O42	O	-0.214626	-0.009251	0.376883
C43	C	-0.473345	-0.537406	-0.094974
C44	C	0.026655	-0.037406	0.405026
C45	C	-0.446635	-0.570524	-0.061878
C46	C	0.053365	-0.070524	0.438122
C47	C	-0.446625	-0.636755	0.004312
C48	C	0.053375	-0.136755	0.504312
C49	C	-0.393214	-0.636754	0.004308
C50	C	0.106786	-0.136754	0.504308
C51	C	-0.366513	-0.603638	-0.028789
C52	C	0.133487	-0.103638	0.471211
C53	C	-0.393223	-0.570523	-0.061882
C54	C	0.106777	-0.070523	0.438118
C55	C	-0.446641	-0.504284	-0.128070
C56	C	0.053359	-0.004284	0.371930
C57	C	-0.393223	-0.504283	-0.128067
C58	C	0.106777	-0.004283	0.371933
C59	C	-0.366513	-0.537401	-0.094971
C60	C	0.133487	-0.037401	0.405029
C61	C	-0.313111	-0.537405	-0.094983
C62	C	0.186889	-0.037405	0.405017
N63	N	-0.286397	-0.570518	-0.061886
N64	N	0.213603	-0.070518	0.438114
C65	C	-0.313098	-0.603634	-0.028789
C66	C	0.186902	-0.103634	0.471211
C67	C	-0.799176	-0.537428	-0.094966
C68	C	-0.299176	-0.037428	0.405034
C69	C	-0.852590	-0.537432	-0.094965
C70	C	-0.352590	-0.037432	0.405035
C71	C	-0.852578	-0.603664	-0.028769
C72	C	-0.352578	-0.103664	0.471231
C73	C	-0.799163	-0.603662	-0.028773
C74	C	-0.299163	-0.103662	0.471227
C75	C	-0.772463	-0.570541	-0.061869
C76	C	-0.272463	-0.070541	0.438131
C77	C	-0.200931	-0.603629	-0.028800
C78	C	0.299069	-0.103629	0.471200
C79	C	-0.147514	-0.603626	-0.028808
C80	C	0.352486	-0.103626	0.471192
C81	C	-0.147531	-0.537393	-0.095002
C82	C	0.352469	-0.037393	0.404998
C83	C	-0.200943	-0.537397	-0.094996
C84	C	0.299057	-0.037397	0.405004
C85	C	-0.227641	-0.570517	-0.061891
C86	C	0.272359	-0.070517	0.438109
O87	O	-0.285449	-0.509267	-0.123125
O88	O	0.214551	-0.009267	0.376875
O89	O	-0.285466	-0.631790	-0.000639
O90	O	0.214534	-0.131790	0.499361
C91	C	-0.526747	-0.603641	-0.028777
C92	C	-0.026747	-0.103641	0.471223
C93	C	-0.553457	-0.570527	-0.061871
C94	C	-0.053457	-0.070527	0.438129
C95	C	-0.526756	-0.537410	-0.094968
C96	C	-0.026756	-0.037410	0.405032
C97	C	-0.606872	-0.570530	-0.061870
C98	C	-0.106872	-0.070530	0.438130
C99	C	-0.633573	-0.603646	-0.028773
C100	C	-0.133573	-0.103646	0.471227
C101	C	-0.606859	-0.636759	0.004323
C102	C	-0.106859	-0.136759	0.504323
C103	C	-0.553448	-0.636758	0.004320
C104	C	-0.053448	-0.136758	0.504320
C105	C	-0.553470	-0.504298	-0.128064
C106	C	-0.053470	-0.004298	0.371936
C107	C	-0.606881	-0.504302	-0.128058
C108	C	-0.106881	-0.004302	0.371942
C109	C	-0.633582	-0.537418	-0.094961
C110	C	-0.133582	-0.037418	0.405039
N111	N	0.120709	-0.570548	-0.061868
N112	N	0.620709	-0.070548	0.438132
C113	C	-0.000061	-0.658931	-0.057699
C114	C	0.499939	-0.158931	0.442301
C115	C	-0.000064	-0.712586	-0.058252
C116	C	0.499936	-0.212586	0.441748
C117	C	-0.000053	-0.089654	-0.106229
C118	C	0.499947	0.410346	0.393771
C119	C	-0.000057	0.112006	-0.104178
C120	C	0.499943	0.612006	0.395822
O121	O	-0.000074	0.143262	-0.141398
O122	O	0.499926	0.643262	0.358602
N123	N	-0.000063	0.131130	-0.059843
N124	N	0.499937	0.631130	0.440157
C125	C	-0.000071	0.099835	-0.016017
C126	C	0.499929	0.599835	0.483983
O127	O	-0.000081	0.120728	0.021740
O128	O	0.499919	0.620728	0.521740
C129	C	-0.000069	-0.101824	-0.018068
C130	C	0.499931	0.398176	0.481932
C131	C	-0.000059	-0.120944	-0.062407
C132	C	0.499941	0.379056	0.437593
C133	C	-0.000043	-0.108775	-0.150563
C134	C	0.499957	0.391225	0.349437
C135	C	-0.000039	-0.159187	-0.151076
C136	C	0.499961	0.340813	0.348924
C137	C	-0.000045	-0.190477	-0.107253
C138	C	0.499955	0.309523	0.392747
C139	C	-0.000055	-0.171356	-0.062919
C140	C	0.499945	0.328644	0.437081
C141	C	-0.000081	-0.133117	0.025757
C142	C	0.499919	0.366883	0.525757
C143	C	-0.000082	-0.183535	0.025240
C144	C	0.499918	0.316465	0.525240
C145	C	-0.000071	-0.202655	-0.019098
C146	C	0.499929	0.297345	0.480902
C147	C	-0.000057	-0.253059	-0.019609
C148	C	0.499943	0.246941	0.480391
N149	N	-0.000051	-0.272183	-0.063944
N150	N	0.499949	0.227817	0.436056
C151	C	-0.000045	-0.240892	-0.107766
C152	C	0.499955	0.259108	0.392234
C153	C	-0.000070	0.205709	-0.014943
C154	C	0.499930	0.705709	0.485057
C155	C	-0.000070	0.256124	-0.014430
C156	C	0.499930	0.756124	0.485570
C157	C	-0.000057	0.268291	-0.102591
C158	C	0.499943	0.768291	0.397409
C159	C	-0.000054	0.217876	-0.103104
C160	C	0.499946	0.717876	0.396896
C161	C	-0.000065	0.186585	-0.059278
C162	C	0.499935	0.686585	0.440722
C163	C	-0.000036	-0.346761	-0.108839
C164	C	0.499964	0.153239	0.391161
C165	C	-0.000030	-0.397178	-0.109347
C166	C	0.499970	0.102822	0.390653
C167	C	-0.000045	-0.409341	-0.021186
C168	C	0.499955	0.090659	0.478814
C169	C	-0.000049	-0.358929	-0.020678
C170	C	0.499951	0.141071	0.479322
C171	C	-0.000046	-0.327639	-0.064508
C172	C	0.499954	0.172361	0.435492
O173	O	-0.000046	-0.284343	0.017592
O174	O	0.499954	0.215657	0.517592
O175	O	-0.000047	-0.261794	-0.145518
O176	O	0.499953	0.238206	0.354482
C177	C	-0.000057	-0.039242	-0.105716
C178	C	0.499943	0.460758	0.394284
C179	C	-0.000067	-0.020120	-0.061382
C180	C	0.499933	0.479880	0.438618
C181	C	-0.000073	-0.051411	-0.017560
C182	C	0.499927	0.448589	0.482440
C183	C	-0.000066	0.030294	-0.060869
C184	C	0.499934	0.530294	0.439131
C185	C	-0.000060	0.061585	-0.104691
C186	C	0.499940	0.561585	0.395309
C187	C	-0.000054	0.042461	-0.149026
C188	C	0.499946	0.542461	0.350974
C189	C	-0.000050	-0.007951	-0.149539
C190	C	0.499950	0.492049	0.350461
C191	C	-0.000078	-0.032287	0.026775
C192	C	0.499922	0.467713	0.526775
C193	C	-0.000082	0.018125	0.027284
C194	C	0.499918	0.518125	0.527284
C195	C	-0.000076	0.049416	-0.016538
C196	C	0.499924	0.549416	0.483462
C197	C	-0.000040	-0.566338	-0.150292
C198	C	0.499960	-0.066338	0.349708
C199	C	-0.000032	-0.566891	-0.203947
C200	C	0.499968	-0.066891	0.296053
C201	C	-0.000046	-0.614867	0.418985
C202	C	0.499954	-0.114867	0.918985
C203	C	-0.000039	-0.612816	0.620645
C204	C	0.499961	-0.112816	1.120645
O205	O	-0.000021	-0.650037	0.651900
O206	O	0.499979	-0.150037	1.151900
N207	N	-0.000034	-0.568481	0.639768
N208	N	0.499966	-0.068481	1.139768
C209	C	-0.000028	-0.524656	0.608474
C210	C	0.499972	-0.024656	1.108474
O211	O	-0.000019	-0.486899	0.629367
O212	O	0.499981	0.013101	1.129367
C213	C	-0.000032	-0.526707	0.406815
C214	C	0.499968	-0.026707	0.906815
C215	C	-0.000042	-0.571045	0.387694
C216	C	0.499958	-0.071045	0.887694
C217	C	-0.000056	-0.659202	0.399864
C218	C	0.499944	-0.159202	0.899864
C219	C	-0.000060	-0.659714	0.349452
C220	C	0.499940	-0.159714	0.849452
C221	C	-0.000056	-0.615892	0.318161
C222	C	0.499944	-0.115892	0.818161
C223	C	-0.000046	-0.571557	0.337282
C224	C	0.499954	-0.071557	0.837282
C225	C	-0.000022	-0.482882	0.375521
C226	C	0.499978	0.017118	0.875521
C227	C	-0.000022	-0.483399	0.325104
C228	C	0.499978	0.016601	0.825104
C229	C	-0.000032	-0.527737	0.305983
C230	C	0.499968	-0.027737	0.805983
C231	C	-0.000046	-0.528247	0.255580
C232	C	0.499954	-0.028247	0.755580
N233	N	-0.000051	-0.572583	0.236456
N234	N	0.499949	-0.072583	0.736456
C235	C	-0.000056	-0.616405	0.267747
C236	C	0.499944	-0.116405	0.767747
C237	C	-0.000027	-0.523582	0.714348
C238	C	0.499973	-0.023582	1.214348
C239	C	-0.000027	-0.523069	0.764762
C240	C	0.499973	-0.023069	1.264762
C241	C	-0.000037	-0.611230	0.776930
C242	C	0.499963	-0.111230	1.276930
C243	C	-0.000041	-0.611742	0.726514
C244	C	0.499959	-0.111742	1.226514
C245	C	-0.000032	-0.567917	0.695224
C246	C	0.499968	-0.067917	1.195224
C247	C	-0.000066	-0.617477	0.161878
C248	C	0.499934	-0.117477	0.661878
C249	C	-0.000073	-0.617986	0.111461
C250	C	0.499927	-0.117986	0.611461
C251	C	-0.000060	-0.529825	0.099298
C252	C	0.499940	-0.029825	0.599298
C253	C	-0.000056	-0.529316	0.149710
C254	C	0.499944	-0.029316	0.649710
C255	C	-0.000057	-0.573147	0.180999
C256	C	0.499943	-0.073147	0.680999
O257	O	-0.000059	-0.491047	0.224296
O258	O	0.499941	0.008953	0.724296
O259	O	-0.000054	-0.654156	0.246844
O260	O	0.499946	-0.154156	0.746844
C261	C	-0.000042	-0.614355	0.469397
C262	C	0.499958	-0.114355	0.969397
C263	C	-0.000033	-0.570021	0.488518
C264	C	0.499967	-0.070021	0.988518
C265	C	-0.000028	-0.526198	0.457228
C266	C	0.499972	-0.026198	0.957228
C267	C	-0.000033	-0.569508	0.538933
C268	C	0.499967	-0.069508	1.038933
C269	C	-0.000037	-0.613330	0.570223
C270	C	0.499963	-0.113330	1.070223
C271	C	-0.000042	-0.657665	0.551100
C272	C	0.499958	-0.157665	1.051100
C273	C	-0.000046	-0.658177	0.500688
C274	C	0.499954	-0.158177	1.000688
C275	C	-0.000023	-0.481863	0.476351
C276	C	0.499977	0.018137	0.976351
C277	C	-0.000019	-0.481355	0.526764
C278	C	0.499981	0.018645	1.026764
C279	C	-0.000024	-0.525177	0.558054
C280	C	0.499976	-0.025177	1.058054
H281	H	-0.125768	-0.630597	-0.001858
H282	H	0.374232	-0.130597	0.498142
O283	O	0.000036	0.298671	-0.145174
O284	O	0.500036	0.798671	0.354826
C285	C	0.043979	0.290048	-0.172123
C286	C	0.543979	0.790048	0.327877
H287	H	0.074697	0.272625	-0.146474
H288	H	0.574697	0.772625	0.353526
H289	H	0.058729	0.325965	-0.191776
H290	H	0.558729	0.825965	0.308224
H291	H	0.034043	0.264584	-0.199909
H292	H	0.534043	0.764584	0.300091
O293	O	-0.000171	-0.062700	0.069333
O294	O	0.499829	0.437300	0.569333
C295	C	-0.044109	-0.092237	0.071673
C296	C	0.455891	0.407763	0.571673
H297	H	-0.074828	-0.073596	0.046810
H298	H	0.425172	0.426404	0.546810
H299	H	-0.058862	-0.098187	0.110653
H300	H	0.441138	0.401813	0.610653
H301	H	-0.034167	-0.128812	0.059447
H302	H	0.465833	0.371188	0.559447
H303	H	-0.000066	-0.695819	0.333889
H304	H	0.499934	-0.195819	0.833889
O305	O	-0.527584	-0.668945	0.036518
O306	O	-0.027584	-0.168945	0.536518
C307	C	-0.562614	-0.698178	0.065719
C308	C	-0.062614	-0.198178	0.565719
H309	H	-0.600690	-0.678362	0.066124
H310	H	-0.100690	-0.178362	0.566124
H311	H	-0.547186	-0.705843	0.104376
H312	H	-0.047186	-0.205843	0.604376
H313	H	-0.568293	-0.733967	0.050270
H314	H	-0.068293	-0.233967	0.550270
O315	O	-0.000066	-0.026441	-0.192652
O316	O	0.499934	0.473559	0.307348
C317	C	-0.000049	0.011996	-0.231215
C318	C	0.499951	0.511996	0.268785
H319	H	-0.016117	0.046147	-0.217922
H320	H	0.483883	0.546147	0.282078
H321	H	-0.024681	0.001693	-0.262198
H322	H	0.475319	0.501693	0.237802
H323	H	0.040664	0.019228	-0.244708
H324	H	0.540664	0.519228	0.255292
H325	H	-0.000054	-0.694282	0.485125
H326	H	0.499946	-0.194282	0.985125
H327	H	-0.222691	-0.510434	-0.121950
H328	H	0.277309	-0.010434	0.378050
O329	O	-0.000015	-0.653755	0.807399
O330	O	0.499985	-0.153755	1.307399
C331	C	-0.000025	-0.643789	0.855994
C332	C	0.499975	-0.143789	1.355994
H333	H	0.016038	-0.605835	0.857643
H334	H	0.516038	-0.105835	1.357643
H335	H	0.024616	-0.671742	0.879042
H336	H	0.524616	-0.171742	1.379042
H337	H	-0.040734	-0.645731	0.870592
H338	H	0.459266	-0.145731	1.370592
O339	O	-0.121531	-0.505290	-0.127169
O340	O	0.378469	-0.005290	0.372831
C341	C	-0.090640	-0.530949	-0.156822
C342	C	0.409360	-0.030949	0.343178
H343	H	-0.082639	-0.568920	-0.137313
H344	H	0.417361	-0.068920	0.362687
H345	H	-0.053079	-0.510717	-0.164601
H346	H	0.446921	-0.010717	0.335399
H347	H	-0.111221	-0.533957	-0.192530
H348	H	0.388779	-0.033957	0.307470
H349	H	-0.874334	-0.510469	-0.121920
H350	H	-0.374334	-0.010469	0.378080
H351	H	-0.000058	-0.694889	0.425336
H352	H	0.499942	-0.194889	0.925336
O353	O	-0.000170	-0.661046	0.092864
O354	O	0.499830	-0.161046	0.592864
C355	C	-0.044114	-0.663971	0.064060
C356	C	0.455886	-0.163971	0.564060
H357	H	-0.074829	-0.638798	0.075799
H358	H	0.425171	-0.138798	0.575799
H359	H	-0.058869	-0.702961	0.068873
H360	H	0.441131	-0.202961	0.568873
H361	H	-0.034180	-0.652521	0.024216
H362	H	0.465820	-0.152521	0.524216
H363	H	-0.000050	-0.343360	0.015426
H364	H	0.499950	0.156640	0.515426
O365	O	-0.000097	0.274614	0.028683
O366	O	0.499903	0.774614	0.528683
C367	C	-0.000090	0.236179	0.067248
C368	C	0.499910	0.736179	0.567248
H369	H	-0.016153	0.202029	0.053953
H370	H	0.483847	0.702029	0.553953
H371	H	-0.024732	0.246488	0.098223
H372	H	0.475268	0.746488	0.598223
H373	H	0.040618	0.228942	0.080752
H374	H	0.540618	0.728942	0.580752
O375	O	-0.000137	-0.660022	0.192316
O376	O	0.499863	-0.160022	0.692316
C377	C	-0.044091	-0.662364	0.221835
C378	C	0.455909	-0.162364	0.721835
H379	H	-0.058736	-0.624013	0.224112
H380	H	0.441264	-0.124013	0.724112
H381	H	-0.034209	-0.680668	0.259859
H382	H	0.465791	-0.180668	0.759859
H383	H	-0.074871	-0.684303	0.205405
H384	H	0.425129	-0.184303	0.705405
H385	H	-0.000048	-0.647846	0.710950
H386	H	0.499952	-0.147846	1.210950
O387	O	-0.632826	-0.668861	0.036522
O388	O	-0.132826	-0.168861	0.536522
C389	C	-0.663733	-0.643192	0.066154
C390	C	-0.163733	-0.143192	0.566154
H391	H	-0.647633	-0.605081	0.066706
H392	H	-0.147633	-0.105081	0.566706
H393	H	-0.664343	-0.663200	0.104713
H394	H	-0.164343	-0.163200	0.604713
H395	H	-0.704213	-0.640541	0.051004
H396	H	-0.204213	-0.140541	0.551004
O397	O	0.000081	-0.439798	0.394063
O398	O	0.500081	0.060202	0.894063
C399	C	0.044030	-0.413119	0.378023
C400	C	0.544030	0.086881	0.878023
H401	H	0.074739	-0.439065	0.367730
H402	H	0.574739	0.060935	0.867730
H403	H	0.058790	-0.392784	0.408410
H404	H	0.558790	0.107216	0.908410
H405	H	0.034098	-0.385937	0.344960
H406	H	0.534098	0.114063	0.844960
O407	O	-0.878464	-0.635812	0.003450
O408	O	-0.378464	-0.135812	0.503450
C409	C	-0.865425	-0.628299	0.051247
C410	C	-0.365425	-0.128299	0.551247
H411	H	-0.826643	-0.609670	0.051058
H412	H	-0.326643	-0.109670	0.551058
H413	H	-0.863600	-0.664808	0.075308
H414	H	-0.363600	-0.164808	0.575308
H415	H	-0.895488	-0.604347	0.066023
H416	H	-0.395488	-0.104347	0.566023
H417	H	-0.000079	0.180236	0.020747
H418	H	0.499921	0.680236	0.520747
O419	O	-0.000119	-0.114632	0.068870
O420	O	0.499881	0.385368	0.568870
C421	C	-0.000116	-0.153070	0.107432
C422	C	0.499884	0.346930	0.607432
H423	H	-0.016173	-0.187219	0.094131
H424	H	0.483827	0.312781	0.594131
H425	H	-0.024765	-0.142766	0.138404
H426	H	0.475235	0.357234	0.638404
H427	H	0.040591	-0.160305	0.120942
H428	H	0.540591	0.339695	0.620942
O429	O	-0.773322	-0.505236	-0.127167
O430	O	-0.273322	-0.005236	0.372833
C431	C	-0.808360	-0.476008	-0.156368
C432	C	-0.308360	0.023992	0.343632
H433	H	-0.846431	-0.495828	-0.156770
H434	H	-0.346431	0.004172	0.343230
H435	H	-0.792934	-0.468343	-0.195026
H436	H	-0.292934	0.031657	0.304974
H437	H	-0.814048	-0.440218	-0.140920
H438	H	-0.314048	0.059782	0.359080
H439	H	-0.000039	-0.083302	-0.186251
H440	H	0.499961	0.416698	0.313749
O441	O	0.000045	-0.700222	0.581520
O442	O	0.500045	-0.200222	1.081520
C443	C	0.043990	-0.702557	0.611050
C444	C	0.543990	-0.202557	1.111050
H445	H	0.074708	-0.677703	0.592398
H446	H	0.574708	-0.177703	1.092398
H447	H	0.058741	-0.741539	0.617010
H448	H	0.558741	-0.241539	1.117010
H449	H	0.034058	-0.690319	0.647622
H450	H	0.534058	-0.190319	1.147622
O451	O	-0.000045	-0.480041	0.783414
O452	O	0.499955	0.019959	1.283414
C453	C	-0.000031	-0.488979	0.834621
C454	C	0.499969	0.011021	1.334621
H455	H	-0.016104	-0.526787	0.846741
H456	H	0.483896	-0.026787	1.346741
H457	H	-0.024662	-0.460624	0.849892
H458	H	0.475338	0.039376	1.349892
H459	H	0.040680	-0.486751	0.848638
H460	H	0.540680	0.013249	1.348638
O461	O	-0.000089	-0.439324	0.445910
O462	O	0.499911	0.060676	0.945910
C463	C	-0.044047	-0.436968	0.416396
C464	C	0.455953	0.063032	0.916396
H465	H	-0.058702	-0.475313	0.414123
H466	H	0.441298	0.024687	0.914123
H467	H	-0.034165	-0.418669	0.378370
H468	H	0.465835	0.081331	0.878370
H469	H	-0.074818	-0.415017	0.432829
H470	H	0.425182	0.084983	0.932829
O471	O	-0.367286	-0.668795	0.036600
O472	O	0.132714	-0.168795	0.536600
C473	C	-0.336506	-0.643020	0.066239
C474	C	0.163494	-0.143020	0.566239
H475	H	-0.328434	-0.605112	0.046615
H476	H	0.171566	-0.105112	0.546615
H477	H	-0.298974	-0.663250	0.074223
H478	H	0.201026	-0.163250	0.574223
H479	H	-0.357221	-0.639855	0.101845
H480	H	0.142779	-0.139855	0.601845
O481	O	-0.000008	-0.316440	-0.151459
O482	O	0.499992	0.183560	0.348541
C483	C	-0.000009	-0.344137	-0.190694
C484	C	0.499991	0.155863	0.309306
H485	H	0.016053	-0.381858	-0.178127
H486	H	0.516053	0.118142	0.321873
H487	H	0.024635	-0.325321	-0.221372
H488	H	0.524635	0.174679	0.278628
H489	H	-0.040717	-0.347627	-0.204311
H490	H	0.459283	0.152373	0.295689
O491	O	0.000012	-0.438238	0.545254
O492	O	0.500012	0.061762	1.045254
C493	C	0.000004	-0.399673	0.506819
C494	C	0.500004	0.100327	1.006819
H495	H	0.016060	-0.412970	0.472666
H496	H	0.516060	0.087030	0.972666
H497	H	0.024650	-0.368701	0.517123
H498	H	0.524650	0.131299	1.017123
H499	H	-0.040705	-0.386164	0.499589
H500	H	0.459295	0.113836	0.999589
H501	H	-0.222662	-0.630598	-0.001842
H502	H	0.277338	-0.130598	0.498158
H503	H	-0.000086	0.033688	0.063392
H504	H	0.499914	0.533688	0.563392
H505	H	-0.000091	-0.209009	0.060929
H506	H	0.499909	0.290991	0.560929
H507	H	-0.777418	-0.630629	-0.001823
H508	H	-0.277418	-0.130629	0.498177
O509	O	0.000045	-0.480975	0.684005
O510	O	0.500045	0.019025	1.184005
C511	C	0.044001	-0.454045	0.692619
C512	C	0.544001	0.045955	1.192619
H513	H	0.058654	-0.466216	0.730952
H514	H	0.558654	0.033784	1.230952
H515	H	0.034119	-0.413702	0.688786
H516	H	0.534119	0.086298	1.188786
H517	H	0.074775	-0.460441	0.665086
H518	H	0.574775	0.039559	1.165086
H519	H	-0.468360	-0.663722	0.031266
H520	H	0.031640	-0.163722	0.531266
O521	O	-0.472500	-0.472065	-0.160237
O522	O	0.027500	0.027935	0.339763
C523	C	-0.437469	-0.442847	-0.189450
C524	C	0.062531	0.057153	0.310550
H525	H	-0.399395	-0.442456	-0.169631
H526	H	0.100605	0.057544	0.330369
H527	H	-0.452899	-0.404187	-0.197088
H528	H	0.047101	0.095813	0.302912
H529	H	-0.431785	-0.458268	-0.225254
H530	H	0.068215	0.041732	0.274746
H531	H	-0.000048	-0.434827	0.014492
H532	H	0.499952	0.065173	0.514492
H533	H	-0.371487	-0.477311	-0.155018
H534	H	0.128513	0.022689	0.344982
H535	H	-0.628625	-0.477334	-0.155013
H536	H	-0.128625	0.022666	0.344987
H537	H	-0.000014	-0.447710	0.299629
H538	H	0.499986	0.052290	0.799629
O539	O	0.000019	0.072911	-0.191564
O540	O	0.500019	0.572911	0.308436
C541	C	0.043973	0.102428	-0.193902
C542	C	0.543973	0.602428	0.306098
H543	H	0.058620	0.104690	-0.155551
H544	H	0.558620	0.604690	0.344449
H545	H	0.034088	0.140457	-0.212192
H546	H	0.534088	0.640457	0.287808
H547	H	0.074751	0.086005	-0.215853
H548	H	0.574751	0.586005	0.284147
O549	O	-0.000026	-0.486205	0.168206
O550	O	0.499974	0.013795	0.668206
C551	C	-0.000038	-0.447637	0.129775
C552	C	0.499962	0.052363	0.629775
H553	H	0.016017	-0.460930	0.095619
H554	H	0.516017	0.039070	0.595619
H555	H	0.024609	-0.416665	0.140080
H556	H	0.524609	0.083335	0.640080
H557	H	-0.040747	-0.434128	0.122549
H558	H	0.459253	0.065872	0.622549
H559	H	-0.000058	-0.494146	0.073812
H560	H	0.499942	0.005854	0.573812
O561	O	-0.000114	0.199245	-0.146142
O562	O	0.499886	0.699245	0.353858
C563	C	-0.044069	0.170463	-0.149093
C564	C	0.455931	0.670463	0.350907
H565	H	-0.058730	0.157625	-0.110902
H566	H	0.441270	0.657625	0.389098
H567	H	-0.034182	0.137588	-0.168111
H568	H	0.465818	0.637588	0.331889
H569	H	-0.074839	0.192900	-0.170652
H570	H	0.425161	0.692900	0.329348
O571	O	-0.527561	-0.472176	-0.160285
O572	O	-0.027561	0.027824	0.339715
C573	C	-0.540633	-0.479672	-0.208079
C574	C	-0.040633	0.020328	0.291921
H575	H	-0.555310	-0.518373	-0.208041
H576	H	-0.055310	-0.018373	0.291959
H577	H	-0.505513	-0.473928	-0.232387
H578	H	-0.005513	0.026072	0.267613
H579	H	-0.571647	-0.452780	-0.222456
H580	H	-0.071647	0.047220	0.277544
O581	O	-0.000057	-0.177676	-0.194189
O582	O	0.499943	0.322324	0.305811
C583	C	-0.000041	-0.139240	-0.232752
C584	C	0.499959	0.360760	0.267248
H585	H	-0.016106	-0.105088	-0.219458
H586	H	0.483894	0.394912	0.280542
H587	H	-0.024677	-0.149542	-0.263733
H588	H	0.475323	0.350458	0.236267
H589	H	0.040670	-0.132009	-0.246248
H590	H	0.540670	0.367991	0.253752
H591	H	-0.000021	-0.412743	-0.145454
H592	H	0.499979	0.087257	0.354546
