data_functionalizedCrystal
_audit_creation_method	'MofGen! by Chris Wilmer'
_symmetry_space_group_name_H-M	'P1'
_symmetry_Int_Tables_number	1
_symmetry_cell_setting	triclinic
loop_
_symmetry_equiv_pos_as_xyz
  x,y,z
_cell_length_a	27.731993
_cell_length_b	27.732048
_cell_length_c	26.210047
_cell_angle_alpha	89.999521
_cell_angle_beta	90.002578
_cell_angle_gamma	82.631525
loop_
_atom_site_label
_atom_site_type_symbol
_atom_site_fract_x
_atom_site_fract_y
_atom_site_fract_z
O1	O	0.640948	0.057384	-0.042297
O2	O	1.140948	0.557384	0.457703
O3	O	0.500151	0.066158	-0.042329
O4	O	1.000151	0.566158	0.457671
O5	O	0.574923	-0.008627	-0.042302
O6	O	1.074923	0.491373	0.457698
O7	O	0.566177	0.132169	-0.042324
O8	O	1.066177	0.632169	0.457676
O9	O	0.574908	-0.008615	0.042556
O10	O	1.074908	0.491385	0.542556
O11	O	0.500137	0.066169	0.042529
O12	O	1.000137	0.566169	0.542529
O13	O	0.640934	0.057396	0.042561
O14	O	1.140934	0.557396	0.542561
Cu15	Cu	0.570534	0.061784	0.050293
Cu16	Cu	1.070534	0.561784	0.550293
Cu17	Cu	0.570551	0.061770	-0.050061
Cu18	Cu	1.070551	0.561770	0.449939
O19	O	0.566163	0.132180	0.042534
O20	O	1.066163	0.632180	0.542534
C21	C	0.482137	0.065983	0.000096
C22	C	0.982137	0.565983	0.500096
C23	C	0.428480	0.065441	0.000084
C24	C	0.928480	0.565441	0.500084
C25	C	0.045328	0.061504	-0.046147
C26	C	0.545328	0.561504	0.453853
C27	C	0.246985	0.063571	-0.046161
C28	C	0.746985	0.563571	0.453839
O29	O	0.273065	0.063813	-0.085501
O30	O	0.773065	0.563813	0.414499
N31	N	0.272198	0.063836	0.000094
N32	N	0.772198	0.563836	0.500094
C33	C	0.246993	0.063581	0.046356
C34	C	0.746993	0.563581	0.546356
O35	O	0.273066	0.063849	0.085699
O36	O	0.773066	0.563849	0.585699
C37	C	0.045337	0.061511	0.046370
C38	C	0.545337	0.561511	0.546370
C39	C	0.020127	0.061251	0.000112
C40	C	0.520127	0.561251	0.500112
C41	C	0.020118	0.061243	-0.092401
C42	C	0.520118	0.561243	0.407599
C43	C	-0.030294	0.060729	-0.092397
C44	C	0.469706	0.560729	0.407603
C45	C	-0.055495	0.060476	-0.046139
C46	C	0.444505	0.560476	0.453861
C47	C	-0.030285	0.060736	0.000116
C48	C	0.469715	0.560736	0.500116
C49	C	0.020134	0.061252	0.092631
C50	C	0.520134	0.561252	0.592631
C51	C	-0.030283	0.060733	0.092630
C52	C	0.469717	0.560733	0.592630
C53	C	-0.055493	0.060473	0.046372
C54	C	0.444507	0.560473	0.546372
C55	C	-0.105898	0.059969	0.046378
C56	C	0.394102	0.559969	0.546378
N57	N	-0.131110	0.059704	0.000123
N58	N	0.368890	0.559704	0.500123
C59	C	-0.105909	0.059957	-0.046135
C60	C	0.394091	0.559957	0.453865
C61	C	0.352865	0.064669	0.046346
C62	C	0.852865	0.564669	0.546346
C63	C	0.403279	0.065188	0.046343
C64	C	0.903279	0.565188	0.546343
C65	C	0.403268	0.065177	-0.046175
C66	C	0.903268	0.565177	0.453825
C67	C	0.352853	0.064662	-0.046171
C68	C	0.852853	0.564662	0.453829
C69	C	0.327653	0.064404	0.000091
C70	C	0.827653	0.564404	0.500091
C71	C	-0.211777	0.058878	-0.046123
C72	C	0.288223	0.558878	0.453877
C73	C	-0.262194	0.058366	-0.046115
C74	C	0.237806	0.558366	0.453885
C75	C	-0.262178	0.058375	0.046402
C76	C	0.237822	0.558375	0.546402
C77	C	-0.211766	0.058889	0.046394
C78	C	0.288234	0.558889	0.546394
C79	C	-0.186567	0.059139	0.000127
C80	C	0.313433	0.559139	0.500127
O81	O	-0.132008	0.059721	0.085698
O82	O	0.367992	0.559721	0.585698
O83	O	-0.131989	0.059679	-0.085472
O84	O	0.368011	0.559679	0.414528
C85	C	0.095740	0.062018	-0.046151
C86	C	0.595740	0.562018	0.453849
C87	C	0.120950	0.062279	0.000104
C88	C	0.620950	0.562279	0.500104
C89	C	0.095749	0.062025	0.046362
C90	C	0.595749	0.562025	0.546362
C91	C	0.171364	0.062797	0.000101
C92	C	0.671364	0.562797	0.500101
C93	C	0.196565	0.063051	-0.046158
C94	C	0.696565	0.563051	0.453842
C95	C	0.171353	0.062786	-0.092413
C96	C	0.671353	0.562786	0.407587
C97	C	0.120941	0.062272	-0.092409
C98	C	0.620941	0.562272	0.407591
C99	C	0.120961	0.062290	0.092617
C100	C	0.620961	0.562290	0.592617
C101	C	0.171373	0.062805	0.092609
C102	C	0.671373	0.562805	0.592609
C103	C	0.196574	0.063058	0.046351
C104	C	0.696574	0.563058	0.546351
C105	C	0.574732	-0.026628	0.000128
C106	C	1.074732	0.473372	0.500128
C107	C	0.574179	-0.080282	0.000132
C108	C	1.074179	0.419718	0.500132
C109	C	0.614884	-0.419105	0.000115
C110	C	1.114884	0.080895	0.500115
C111	C	0.612833	-0.620765	0.000108
C112	C	1.112833	-0.120765	0.500108
O113	O	0.650055	-0.652028	0.000094
O114	O	1.150055	-0.152028	0.500094
N115	N	0.568497	-0.639880	0.000098
N116	N	1.068497	-0.139880	0.500098
C117	C	0.524670	-0.608576	0.000087
C118	C	1.024670	-0.108576	0.500087
O119	O	0.486912	-0.629462	0.000073
O120	O	0.986912	-0.129462	0.500073
C121	C	0.526721	-0.406918	0.000091
C122	C	1.026721	0.093082	0.500091
C123	C	0.571061	-0.387806	0.000106
C124	C	1.071061	0.112194	0.500106
C125	C	0.659220	-0.399993	0.000129
C126	C	1.159220	0.100007	0.500129
C127	C	0.659732	-0.349581	0.000134
C128	C	1.159732	0.150419	0.500134
C129	C	0.615909	-0.318282	0.000124
C130	C	1.115909	0.181718	0.500124
C131	C	0.571573	-0.337394	0.000110
C132	C	1.071573	0.162606	0.500110
C133	C	0.482895	-0.375616	0.000076
C134	C	0.982895	0.124384	0.500076
C135	C	0.483412	-0.325199	0.000076
C136	C	0.983412	0.174801	0.500076
C137	C	0.527751	-0.306087	0.000091
C138	C	1.027751	0.193913	0.500091
C139	C	0.528262	-0.255683	0.000105
C140	C	1.028262	0.244317	0.500105
N141	N	0.572598	-0.236568	0.000115
N142	N	1.072598	0.263432	0.500115
C143	C	0.616422	-0.267867	0.000124
C144	C	1.116422	0.232133	0.500124
C145	C	0.523596	-0.714450	0.000086
C146	C	1.023596	-0.214450	0.500086
C147	C	0.523083	-0.764865	0.000086
C148	C	1.023083	-0.264865	0.500086
C149	C	0.611246	-0.777049	0.000105
C150	C	1.111246	-0.277049	0.500105
C151	C	0.611759	-0.726634	0.000109
C152	C	1.111759	-0.226634	0.500109
C153	C	0.567932	-0.695335	0.000095
C154	C	1.067932	-0.195335	0.500095
C155	C	0.617494	-0.161998	0.000135
C156	C	1.117494	0.338002	0.500135
C157	C	0.618003	-0.111582	0.000142
C158	C	1.118003	0.388418	0.500142
C159	C	0.529839	-0.099401	0.000119
C160	C	1.029839	0.400599	0.500119
C161	C	0.529331	-0.149814	0.000115
C162	C	1.029331	0.350186	0.500115
C163	C	0.573162	-0.181112	0.000121
C164	C	1.073162	0.318888	0.500121
O165	O	0.491060	-0.224392	0.000114
O166	O	0.991060	0.275608	0.500114
O167	O	0.654174	-0.246972	0.000127
O168	O	1.154174	0.253028	0.500127
C169	C	0.614372	-0.469517	0.000110
C170	C	1.114372	0.030483	0.500110
C171	C	0.570036	-0.488630	0.000096
C172	C	1.070036	0.011370	0.500096
C173	C	0.526213	-0.457331	0.000087
C174	C	1.026213	0.042669	0.500087
C175	C	0.569523	-0.539044	0.000096
C176	C	1.069523	-0.039044	0.500096
C177	C	0.613346	-0.570343	0.000106
C178	C	1.113346	-0.070343	0.500106
C179	C	0.657683	-0.551228	0.000115
C180	C	1.157683	-0.051228	0.500115
C181	C	0.658195	-0.500817	0.000120
C182	C	1.158195	-0.000817	0.500120
C183	C	0.481876	-0.476446	0.000077
C184	C	0.981876	0.023554	0.500077
C185	C	0.481368	-0.526858	0.000073
C186	C	0.981368	-0.026858	0.500073
C187	C	0.525191	-0.558157	0.000083
C188	C	1.025191	-0.058157	0.500083
C189	C	0.658949	0.057570	0.000135
C190	C	1.158949	0.557570	0.500135
C191	C	0.712605	0.058113	0.000143
C192	C	1.212605	0.558113	0.500143
C193	C	0.566353	0.150181	0.000103
C194	C	1.066353	0.650181	0.500103
C195	C	0.566906	0.203836	0.000095
C196	C	1.066906	0.703836	0.500095
N197	N	0.570526	0.061793	0.120877
N198	N	1.070526	0.561793	0.620877
N199	N	0.570564	0.061757	-0.120645
N200	N	1.070564	0.561757	0.379355
C201	C	0.603657	0.028663	0.473403
C202	C	1.103657	0.528663	0.973403
C203	C	0.603667	0.028656	0.687062
C204	C	1.103667	0.528656	1.187062
O205	O	0.631818	0.000490	0.714693
O206	O	1.131818	0.500490	1.214693
N207	N	0.570554	0.061759	0.713771
N208	N	1.070554	0.561759	1.213771
C209	C	0.537433	0.094864	0.687063
C210	C	1.037433	0.594864	1.187063
O211	O	0.509265	0.123017	0.714683
O212	O	1.009265	0.623017	1.214683
C213	C	0.537421	0.094868	0.473405
C214	C	1.037421	0.594868	0.973405
C215	C	0.570540	0.061766	0.446698
C216	C	1.070540	0.561766	0.946698
C217	C	0.636772	-0.004437	0.446696
C218	C	1.136772	0.495563	0.946696
C219	C	0.636771	-0.004433	0.393285
C220	C	1.136771	0.495567	0.893285
C221	C	0.603654	0.028671	0.366580
C222	C	1.103654	0.528671	0.866580
C223	C	0.570538	0.061770	0.393287
C224	C	1.070538	0.561770	0.893287
C225	C	0.504298	0.127971	0.446697
C226	C	1.004298	0.627971	0.946697
C227	C	0.504297	0.127968	0.393280
C228	C	1.004297	0.627968	0.893280
C229	C	0.537416	0.094866	0.366573
C230	C	1.037416	0.594866	0.866573
C231	C	0.537420	0.094877	0.313171
C232	C	1.037420	0.594877	0.813171
N233	N	0.570533	0.061774	0.286461
N234	N	1.070533	0.561774	0.786461
C235	C	0.603650	0.028671	0.313166
C236	C	1.103650	0.528671	0.813166
C237	C	0.537443	0.094861	0.799236
C238	C	1.037443	0.594861	1.299236
C239	C	0.537446	0.094860	0.852650
C240	C	1.037446	0.594860	1.352650
C241	C	0.603680	0.028651	0.852645
C242	C	1.103680	0.528651	1.352645
C243	C	0.603678	0.028654	0.799230
C244	C	1.103678	0.528654	1.299230
C245	C	0.570556	0.061757	0.772526
C246	C	1.070556	0.561757	1.272526
C247	C	0.603646	0.028682	0.200998
C248	C	1.103646	0.528682	0.700998
C249	C	0.603643	0.028690	0.147582
C250	C	1.103643	0.528690	0.647582
C251	C	0.537408	0.094897	0.147591
C252	C	1.037408	0.594897	0.647591
C253	C	0.537412	0.094891	0.201003
C254	C	1.037412	0.594891	0.701003
C255	C	0.570533	0.061779	0.227705
C256	C	1.070533	0.561779	0.727705
O257	O	0.509281	0.123025	0.285506
O258	O	1.009281	0.623025	0.785506
O259	O	0.631807	0.000515	0.285536
O260	O	1.131807	0.500515	0.785536
C261	C	0.603658	0.028659	0.526814
C262	C	1.103658	0.528659	1.026814
C263	C	0.570542	0.061759	0.553521
C264	C	1.070542	0.561759	1.053521
C265	C	0.537425	0.094862	0.526816
C266	C	1.037425	0.594862	1.026816
C267	C	0.570546	0.061759	0.606935
C268	C	1.070546	0.561759	1.106935
C269	C	0.603663	0.028655	0.633640
C270	C	1.103663	0.528655	1.133640
C271	C	0.636776	-0.004448	0.606931
C272	C	1.136776	0.495552	1.106931
C273	C	0.636775	-0.004444	0.553519
C274	C	1.136775	0.495556	1.053519
C275	C	0.504311	0.127965	0.553526
C276	C	1.004311	0.627965	1.053526
C277	C	0.504316	0.127959	0.606937
C278	C	1.004316	0.627959	1.106937
C279	C	0.537433	0.094856	0.633642
C280	C	1.037433	0.594856	1.133642
H281	H	0.332330	0.064450	-0.083838
H282	H	0.832330	0.564450	0.416162
H283	H	0.332353	0.064458	0.084020
H284	H	0.832353	0.564458	0.584020
H285	H	-0.282718	0.058156	-0.083786
H286	H	0.217282	0.558156	0.416214
H287	H	0.486977	-0.780421	0.000083
H288	H	0.986977	-0.280421	0.500083
F289	F	0.046954	0.061529	0.141866
F290	F	0.546954	0.561529	0.641866
F291	F	0.046931	0.061512	-0.141640
F292	F	0.546931	0.561512	0.358360
H293	H	0.447722	-0.299717	0.000064
H294	H	0.947722	0.200283	0.500064
H295	H	0.487905	-0.688970	0.000075
H296	H	0.987905	-0.188970	0.500075
F297	F	0.706924	-0.329247	0.000139
F298	F	1.206924	0.170753	0.500139
F299	F	0.502164	0.130127	0.119162
F300	F	1.002164	0.630127	0.619162
F301	F	0.672024	-0.039676	0.525102
F302	F	1.172024	0.460324	1.025102
F303	F	0.430103	0.065474	0.095577
F304	F	0.930103	0.565474	0.595577
H305	H	0.654110	-0.096024	0.000155
H306	H	1.154110	0.403976	0.500155
H307	H	0.694301	-0.485261	0.000132
H308	H	1.194301	0.014739	0.500132
H309	H	0.446789	-0.391168	0.000061
H310	H	0.946789	0.108832	0.500061
H311	H	0.477324	0.154924	0.371540
H312	H	0.977324	0.654924	0.871540
F313	F	0.198182	0.063058	-0.141644
F314	F	0.698182	0.563058	0.358356
F315	F	0.672023	-0.039678	0.635361
F316	F	1.172023	0.460322	1.135361
H317	H	0.646929	-0.802542	0.000113
H318	H	1.146929	-0.302542	0.500113
H319	H	-0.050799	0.060528	0.130303
H320	H	0.449201	0.560528	0.630303
H321	H	0.630614	0.001734	0.125839
H322	H	1.130614	0.501734	0.625839
F323	F	0.482140	-0.170155	0.000109
F324	F	0.982140	0.329845	0.500109
H325	H	-0.191240	0.059111	0.084061
H326	H	0.308760	0.559111	0.584061
H327	H	0.630615	0.001719	0.222733
H328	H	1.130615	0.501719	0.722733
F329	F	0.434172	-0.547192	0.000061
F330	F	0.934172	-0.047192	0.500061
F331	F	0.638926	-0.006580	0.881076
F332	F	1.138926	0.493420	1.381076
F333	F	0.483202	-0.066082	0.000109
F334	F	0.983202	0.433918	0.500109
H335	H	0.510470	0.121818	0.777497
H336	H	1.010470	0.621818	1.277497
H337	H	0.477347	0.154919	0.628678
H338	H	0.977347	0.654919	1.128678
H339	H	0.100448	0.062081	0.130287
H340	H	0.600448	0.562081	0.630287
H341	H	0.191894	0.063021	0.130281
H342	H	0.691894	0.563021	0.630281
H343	H	-0.282706	0.058170	0.084064
H344	H	0.217294	0.558170	0.584064
F345	F	0.664144	-0.195301	0.000141
F346	F	1.164144	0.304699	0.500141
F347	F	-0.057118	0.060449	-0.141631
F348	F	0.442882	0.560449	0.358369
F349	F	-0.184966	0.059145	-0.095365
F350	F	0.315034	0.559145	0.404635
F351	F	0.704323	-0.584548	0.000128
F352	F	1.204323	-0.084548	0.500128
F353	F	0.672022	-0.039673	0.475110
F354	F	1.172022	0.460327	0.975110
F355	F	0.435231	-0.443141	0.000065
F356	F	0.935231	0.056859	0.500065
H357	H	0.663738	-0.031389	0.371543
H358	H	1.163738	0.468611	0.871543
F359	F	0.094116	0.061994	-0.141643
F360	F	0.594116	0.561994	0.358357
H361	H	0.694908	-0.425472	0.000135
H362	H	1.194908	0.074528	0.500135
F363	F	0.638927	-0.006578	0.770812
F364	F	1.138927	0.493422	1.270812
H365	H	0.510483	0.121820	0.874391
H366	H	1.010483	0.621820	1.374391
F367	F	0.658950	-0.706298	0.000125
F368	F	1.158950	-0.206298	0.500125
F369	F	0.469048	0.163202	0.475111
F370	F	0.969048	0.663202	0.975111
H371	H	0.510448	0.121850	0.222748
H372	H	1.010448	0.621850	0.722748
F373	F	0.469062	0.163200	0.525111
F374	F	0.969062	0.663200	1.025111
H375	H	0.423795	0.065385	-0.083840
H376	H	0.923795	0.565385	0.416160
