data_functionalizedCrystal
_audit_creation_method	'MofGen! by Chris Wilmer'
_symmetry_space_group_name_H-M	'P1'
_symmetry_Int_Tables_number	1
_symmetry_cell_setting	triclinic
loop_
_symmetry_equiv_pos_as_xyz
  x,y,z
_cell_length_a	27.732064
_cell_length_b	27.732048
_cell_length_c	13.930277
_cell_angle_alpha	90.000326
_cell_angle_beta	89.998889
_cell_angle_gamma	82.646040
loop_
_atom_site_label
_atom_site_type_symbol
_atom_site_fract_x
_atom_site_fract_y
_atom_site_fract_z
O1	O	0.640924	0.057548	0.079670
O2	O	1.140924	0.557548	0.579670
O3	O	0.500132	0.066285	0.079711
O4	O	1.000132	0.566285	0.579711
O5	O	0.574901	-0.008480	0.079671
O6	O	1.074901	0.491520	0.579671
O7	O	0.566155	0.132313	0.079710
O8	O	1.066155	0.632313	0.579710
O9	O	0.574890	-0.008468	-0.079991
O10	O	1.074890	0.491532	0.420009
O11	O	0.500121	0.066297	-0.079951
O12	O	1.000121	0.566297	0.420049
O13	O	0.640913	0.057560	-0.079992
O14	O	1.140913	0.557560	0.420008
Zn15	Zn	0.570515	0.061930	-0.105321
Zn16	Zn	1.070515	0.561930	0.394679
Zn17	Zn	0.570530	0.061915	0.105040
Zn18	Zn	1.070530	0.561915	0.605040
O19	O	0.566144	0.132325	-0.079952
O20	O	1.066144	0.632325	0.420048
C21	C	0.482120	0.066106	-0.000115
C22	C	0.982120	0.566106	0.499885
C23	C	0.428465	0.065551	-0.000100
C24	C	0.928465	0.565551	0.499900
C25	C	0.051392	0.017583	-0.000168
C26	C	0.551392	0.517583	0.499832
C27	C	0.253053	0.019630	-0.000143
C28	C	0.753053	0.519630	0.499857
O29	O	0.284305	-0.017591	-0.000189
O30	O	0.784305	0.482409	0.499811
N31	N	0.272180	0.063964	-0.000126
N32	N	0.772180	0.563964	0.499874
C33	C	0.240889	0.107790	-0.000122
C34	C	0.740889	0.607790	0.499878
O35	O	0.261785	0.145546	-0.000118
O36	O	0.761785	0.645546	0.499882
C37	C	0.039230	0.105743	-0.000155
C38	C	0.539230	0.605743	0.499845
C39	C	0.020105	0.061406	-0.000162
C40	C	0.520105	0.561406	0.499838
C41	C	0.032267	-0.026750	-0.000176
C42	C	0.532267	0.473250	0.499824
C43	C	-0.018145	-0.027261	-0.000177
C44	C	0.481855	0.472739	0.499823
C45	C	-0.049432	0.016561	-0.000171
C46	C	0.450568	0.516561	0.499829
C47	C	-0.030307	0.060895	-0.000163
C48	C	0.469693	0.560895	0.499837
C49	C	0.007940	0.149568	-0.000158
C50	C	0.507940	0.649568	0.499842
C51	C	-0.042478	0.149053	-0.000168
C52	C	0.457522	0.649053	0.499832
C53	C	-0.061602	0.104716	-0.000175
C54	C	0.438398	0.604716	0.499825
C55	C	-0.112006	0.104206	-0.000157
C56	C	0.387994	0.604206	0.499843
N57	N	-0.131134	0.059872	-0.000174
N58	N	0.368866	0.559872	0.499826
C59	C	-0.099846	0.016049	-0.000180
C60	C	0.400154	0.516049	0.499820
C61	C	0.346763	0.108861	-0.000103
C62	C	0.846763	0.608861	0.499897
C63	C	0.397178	0.109373	-0.000094
C64	C	0.897178	0.609373	0.499906
C65	C	0.409338	0.021213	-0.000116
C66	C	0.909338	0.521213	0.499884
C67	C	0.358923	0.020701	-0.000119
C68	C	0.858923	0.520701	0.499881
C69	C	0.327636	0.064527	-0.000120
C70	C	0.827636	0.564527	0.499880
C71	C	-0.205716	0.014979	-0.000182
C72	C	0.294284	0.514979	0.499818
C73	C	-0.256133	0.014472	-0.000179
C74	C	0.243867	0.514472	0.499821
C75	C	-0.268289	0.102632	-0.000162
C76	C	0.231711	0.602632	0.499838
C77	C	-0.217876	0.103140	-0.000160
C78	C	0.282124	0.603140	0.499840
C79	C	-0.186590	0.059309	-0.000173
C80	C	0.313410	0.559309	0.499827
O81	O	-0.143287	0.141407	-0.000122
O82	O	0.356713	0.641407	0.499878
O83	O	-0.120752	-0.021701	-0.000207
O84	O	0.379248	0.478299	0.499793
C85	C	0.101805	0.018094	-0.000167
C86	C	0.601805	0.518094	0.499833
C87	C	0.120930	0.062428	-0.000159
C88	C	0.620930	0.562428	0.499841
C89	C	0.089642	0.106250	-0.000153
C90	C	0.589642	0.606250	0.499847
C91	C	0.171344	0.062940	-0.000149
C92	C	0.671344	0.562940	0.499851
C93	C	0.202631	0.019117	-0.000156
C94	C	0.702631	0.519117	0.499844
C95	C	0.183504	-0.025217	-0.000173
C96	C	0.683504	0.474783	0.499827
C97	C	0.133092	-0.025728	-0.000174
C98	C	0.633092	0.474272	0.499826
C99	C	0.108770	0.150585	-0.000136
C100	C	0.608770	0.650585	0.499864
C101	C	0.159183	0.151092	-0.000134
C102	C	0.659183	0.651092	0.499866
C103	C	0.190470	0.107270	-0.000140
C104	C	0.690470	0.607270	0.499860
C105	C	0.574712	-0.026481	-0.000163
C106	C	1.074712	0.473519	0.499837
C107	C	0.574159	-0.080136	-0.000171
C108	C	1.074159	0.419864	0.499829
C109	C	0.614862	-0.418948	-0.000133
C110	C	1.114862	0.081052	0.499867
C111	C	0.612811	-0.620608	-0.000119
C112	C	1.112811	-0.120608	0.499881
O113	O	0.650032	-0.651862	-0.000088
O114	O	1.150032	-0.151862	0.499912
N115	N	0.568476	-0.639735	-0.000107
N116	N	1.068476	-0.139735	0.499893
C117	C	0.524651	-0.608442	-0.000092
C118	C	1.024651	-0.108442	0.499908
O119	O	0.486895	-0.629338	-0.000072
O120	O	0.986895	-0.129338	0.499928
C121	C	0.526703	-0.406784	-0.000099
C122	C	1.026703	0.093216	0.499901
C123	C	0.571040	-0.387660	-0.000121
C124	C	1.071040	0.112340	0.499879
C125	C	0.659196	-0.399824	-0.000154
C126	C	1.159196	0.100176	0.499846
C127	C	0.659709	-0.349412	-0.000162
C128	C	1.159709	0.150588	0.499838
C129	C	0.615887	-0.318124	-0.000151
C130	C	1.115887	0.181876	0.499849
C131	C	0.571553	-0.337248	-0.000130
C132	C	1.071553	0.162752	0.499870
C133	C	0.482878	-0.375493	-0.000078
C134	C	0.982878	0.124507	0.499922
C135	C	0.483395	-0.325075	-0.000077
C136	C	0.983395	0.174925	0.499923
C137	C	0.527733	-0.305952	-0.000099
C138	C	1.027733	0.194048	0.499901
C139	C	0.528243	-0.255548	-0.000127
C140	C	1.028243	0.244452	0.499873
N141	N	0.572578	-0.236422	-0.000139
N142	N	1.072578	0.263578	0.499861
C143	C	0.616400	-0.267710	-0.000151
C144	C	1.116400	0.232290	0.499849
C145	C	0.523577	-0.714317	-0.000090
C146	C	1.023577	-0.214317	0.499910
C147	C	0.523064	-0.764731	-0.000090
C148	C	1.023064	-0.264731	0.499910
C149	C	0.611225	-0.776893	-0.000115
C150	C	1.111225	-0.276893	0.499885
C151	C	0.611737	-0.726478	-0.000122
C152	C	1.111737	-0.226478	0.499878
C153	C	0.567912	-0.695190	-0.000102
C154	C	1.067912	-0.195190	0.499898
C155	C	0.617472	-0.161841	-0.000170
C156	C	1.117472	0.338159	0.499830
C157	C	0.617981	-0.111424	-0.000182
C158	C	1.117981	0.388576	0.499818
C159	C	0.529821	-0.099266	-0.000152
C160	C	1.029821	0.400734	0.499848
C161	C	0.529312	-0.149679	-0.000145
C162	C	1.029312	0.350321	0.499855
C163	C	0.573142	-0.180965	-0.000150
C164	C	1.073142	0.319035	0.499850
O165	O	0.491043	-0.224267	-0.000147
O166	O	0.991043	0.275733	0.499853
O167	O	0.654151	-0.246805	-0.000150
O168	O	1.154151	0.253195	0.499850
C169	C	0.614350	-0.469360	-0.000124
C170	C	1.114350	0.030640	0.499876
C171	C	0.570016	-0.488484	-0.000104
C172	C	1.070016	0.011516	0.499896
C173	C	0.526194	-0.457196	-0.000092
C174	C	1.026194	0.042804	0.499908
C175	C	0.569503	-0.538899	-0.000104
C176	C	1.069503	-0.038899	0.499896
C177	C	0.613325	-0.570187	-0.000116
C178	C	1.113325	-0.070187	0.499884
C179	C	0.657660	-0.551060	-0.000128
C180	C	1.157660	-0.051060	0.499872
C181	C	0.658172	-0.500648	-0.000136
C182	C	1.158172	-0.000648	0.499864
C183	C	0.481859	-0.476323	-0.000080
C184	C	0.981859	0.023677	0.499920
C185	C	0.481351	-0.526735	-0.000072
C186	C	0.981351	-0.026735	0.499928
C187	C	0.525172	-0.558023	-0.000084
C188	C	1.025172	-0.058023	0.499916
C189	C	0.658925	0.057739	-0.000164
C190	C	1.158925	0.557739	0.499836
C191	C	0.712580	0.058295	-0.000172
C192	C	1.212580	0.558295	0.499828
C193	C	0.566333	0.150326	-0.000116
C194	C	1.066333	0.650326	0.499884
C195	C	0.566886	0.203981	-0.000102
C196	C	1.066886	0.703981	0.499898
N197	N	0.570509	0.061940	-0.248887
N198	N	1.070509	0.561940	0.251113
C199	C	0.599633	0.091024	-0.701147
C200	C	1.099633	0.591024	-0.201147
C201	C	0.541442	0.032786	-0.701136
C202	C	1.041442	0.532786	-0.201136
C203	C	0.541434	0.032794	-0.600640
C204	C	1.041434	0.532794	-0.100640
C205	C	0.570527	0.061917	-0.550393
C206	C	1.070527	0.561917	-0.050393
C207	C	0.599627	0.091032	-0.600642
C208	C	1.099627	0.591032	-0.100642
C209	C	0.512338	0.003676	-0.550384
C210	C	1.012338	0.503676	-0.050384
C211	C	0.512330	0.003682	-0.449882
C212	C	1.012330	0.503682	0.050118
C213	C	0.541421	0.032808	-0.399633
C214	C	1.041421	0.532808	0.100367
C215	C	0.570522	0.061925	-0.449888
C216	C	1.070522	0.561925	0.050112
C217	C	0.599615	0.091047	-0.399641
C218	C	1.099615	0.591047	0.100359
C219	C	0.628713	0.120167	-0.449894
C220	C	1.128713	0.620167	0.050106
C221	C	0.628718	0.120157	-0.550393
C222	C	1.128718	0.620157	-0.050393
C223	C	0.541416	0.032817	-0.299134
C224	C	1.041416	0.532817	0.200866
C225	C	0.599609	0.091055	-0.299136
C226	C	1.099609	0.591055	0.200864
N227	N	0.570540	0.061901	0.248606
N228	N	1.070540	0.561901	0.748606
H229	H	0.023502	0.185672	-0.000148
H230	H	0.523502	0.685672	0.499852
H231	H	0.652403	0.143876	-0.408970
H232	H	1.152403	0.643876	0.091030
C233	C	0.312354	0.157073	-0.000094
C234	C	0.812354	0.657073	0.499906
H235	H	0.330971	0.183546	-0.000072
H236	H	0.830971	0.683546	0.499928
H237	H	0.292435	0.158715	-0.055772
H238	H	0.792435	0.658715	0.444228
H239	H	0.292434	0.158703	0.055590
H240	H	0.792434	0.658703	0.555590
C241	C	0.509432	0.000762	-0.756400
C242	C	1.009432	0.500762	-0.256400
H243	H	0.492100	-0.016575	-0.712078
H244	H	0.992100	0.483425	-0.212078
H245	H	0.487045	0.020728	-0.795608
H246	H	0.987045	0.520728	-0.295608
H247	H	0.529405	-0.021629	-0.795601
H248	H	1.029405	0.478371	-0.295601
H249	H	-0.067950	0.184742	-0.000174
H250	H	0.432050	0.684742	0.499826
H251	H	0.694276	-0.485083	-0.000154
H252	H	1.194276	0.014917	0.499846
H253	H	0.494142	-0.073782	-0.000146
H254	H	0.994142	0.426218	0.499854
H255	H	0.446173	-0.450852	-0.000068
H256	H	0.946173	0.049148	0.499932
H257	H	0.623298	0.114773	-0.258232
H258	H	1.123298	0.614773	0.241768
H259	H	0.174748	0.187200	-0.000121
H260	H	0.674748	0.687200	0.499879
C261	C	0.660728	0.152179	-0.605673
C262	C	1.160728	0.652179	-0.105673
H263	H	0.656569	0.147998	-0.672722
H264	H	1.156569	0.647998	-0.172722
H265	H	0.651501	0.185318	-0.589220
H266	H	1.151501	0.685318	-0.089220
H267	H	0.693868	0.142967	-0.589191
H268	H	1.193868	0.642967	-0.089191
H269	H	0.447706	-0.299603	-0.000059
H270	H	0.947706	0.200397	0.499941
H271	H	0.623323	0.114734	-0.742068
H272	H	1.123323	0.614734	-0.242068
H273	H	0.693341	-0.576544	-0.000141
H274	H	1.193341	-0.076544	0.499859
H275	H	-0.271701	-0.021634	-0.000182
H276	H	0.228299	0.478366	0.499818
H277	H	0.083300	0.186271	-0.000132
H278	H	0.583300	0.686271	0.499868
C279	C	0.432576	-0.547765	-0.000045
C280	C	0.932576	-0.047765	0.499955
H281	H	0.406553	-0.521906	-0.000029
H282	H	0.906553	-0.021906	0.499971
H283	H	0.430532	-0.567183	-0.055714
H284	H	0.930532	-0.067183	0.444286
H285	H	0.430549	-0.567173	0.055648
H286	H	0.930549	-0.067173	0.555648
C287	C	0.660508	-0.705446	-0.000137
C288	C	1.160508	-0.205446	0.499863
H289	H	0.686531	-0.731305	-0.000139
H290	H	1.186531	-0.231305	0.499861
H291	H	0.662540	-0.686031	-0.055813
H292	H	1.162540	-0.186031	0.444187
H293	H	0.662546	-0.686036	0.055550
H294	H	1.162546	-0.186036	0.555550
H295	H	0.653163	-0.187309	-0.000170
H296	H	1.153163	0.312691	0.499830
C297	C	0.480542	-0.170716	-0.000119
C298	C	0.980542	0.329284	0.499881
H299	H	0.454517	-0.144859	-0.000107
H300	H	0.954517	0.355141	0.499893
H301	H	0.478501	-0.190136	-0.055785
H302	H	0.978501	0.309864	0.444215
H303	H	0.478518	-0.190122	0.055578
H304	H	0.978518	0.309878	0.555578
H305	H	-0.180248	-0.020712	-0.000193
H306	H	0.319752	0.479288	0.499807
H307	H	-0.202304	0.139243	-0.000153
H308	H	0.297696	0.639243	0.499847
H309	H	0.488657	-0.020038	-0.591302
H310	H	0.988657	0.479962	-0.091302
C311	C	0.480319	-0.028342	-0.394612
C312	C	0.980319	0.471658	0.105388
H313	H	0.462991	-0.045685	-0.438932
H314	H	0.962991	0.454315	0.061068
H315	H	0.500288	-0.050721	-0.355392
H316	H	1.000288	0.449279	0.144608
H317	H	0.457920	-0.008372	-0.355423
H318	H	0.957920	0.491628	0.144577
C319	C	0.509415	0.000789	-0.243855
C320	C	1.009415	0.500789	0.256145
H321	H	0.513580	0.004962	-0.176805
H322	H	1.013580	0.504962	0.323195
H323	H	0.476276	0.009990	-0.260333
H324	H	0.976276	0.509990	0.239667
H325	H	0.518653	-0.032349	-0.260315
H326	H	1.018653	0.467651	0.239685
C327	C	-0.039175	-0.076032	-0.000203
C328	C	0.460825	0.423968	0.499797
H329	H	-0.013316	-0.102054	-0.000218
H330	H	0.486684	0.397946	0.499782
H331	H	-0.058592	-0.078076	0.055467
H332	H	0.441408	0.421924	0.555467
H333	H	-0.058584	-0.078060	-0.055895
H334	H	0.441416	0.421940	0.444105
H335	H	0.057737	-0.062438	-0.000185
H336	H	0.557737	0.437562	0.499815
H337	H	0.343355	-0.015402	-0.000125
H338	H	0.843355	0.484598	0.499875
H339	H	0.434821	-0.014469	-0.000118
H340	H	0.934821	0.485531	0.499882
C341	C	0.666754	-0.090391	-0.000201
C342	C	1.166754	0.409609	0.499799
H343	H	0.692778	-0.116248	-0.000196
H344	H	1.192778	0.383752	0.499804
H345	H	0.668785	-0.070979	-0.055881
H346	H	1.168785	0.429021	0.444119
H347	H	0.668790	-0.070977	0.055482
H348	H	1.168790	0.429023	0.555482
C349	C	0.418210	0.158144	-0.000076
C350	C	0.918210	0.658144	0.499924
H351	H	0.392352	0.184167	-0.000083
H352	H	0.892352	0.684167	0.499917
H353	H	0.437621	0.160177	0.055603
H354	H	0.937621	0.660177	0.555603
H355	H	0.437624	0.160179	-0.055759
H356	H	0.937624	0.660179	0.444241
H357	H	0.117526	-0.061832	-0.000180
H358	H	0.617526	0.438168	0.499820
C359	C	-0.302710	0.150833	-0.000162
C360	C	0.197290	0.650833	0.499838
H361	H	-0.335473	0.144175	-0.000176
H362	H	0.164527	0.644175	0.499824
H363	H	-0.296954	0.169032	0.055515
H364	H	0.203046	0.669032	0.555515
H365	H	-0.296946	0.169027	-0.055848
H366	H	0.203054	0.669027	0.444152
H367	H	0.208987	-0.060899	-0.000173
H368	H	0.708987	0.439101	0.499827
H369	H	0.695813	-0.333847	-0.000176
H370	H	1.195813	0.166153	0.499824
H371	H	0.694883	-0.425295	-0.000160
H372	H	1.194883	0.074705	0.499840
C373	C	0.659429	-0.811314	-0.000123
C374	C	1.159429	-0.311314	0.499877
H375	H	0.685910	-0.792708	-0.000133
H376	H	1.185910	-0.292708	0.499867
H377	H	0.661059	-0.831233	0.055555
H378	H	1.161059	-0.331233	0.555555
H379	H	0.661058	-0.831233	-0.055807
H380	H	1.161058	-0.331233	0.444193
H381	H	0.486960	-0.780296	-0.000089
H382	H	0.986960	-0.280296	0.499911
H383	H	0.487888	-0.688846	-0.000074
H384	H	0.987888	-0.188846	0.499926
C385	C	0.434106	-0.396517	-0.000046
C386	C	0.934106	0.103483	0.499954
H387	H	0.408085	-0.370657	-0.000026
H388	H	0.908085	0.129343	0.499974
H389	H	0.432060	-0.415932	-0.055718
H390	H	0.932060	0.084068	0.444282
H391	H	0.432078	-0.415928	0.055645
H392	H	0.932078	0.084072	0.555645
