data_functionalizedCrystal
_audit_creation_method	'MofGen! by Chris Wilmer'
_symmetry_space_group_name_H-M	'P1'
_symmetry_Int_Tables_number	1
_symmetry_cell_setting	triclinic
loop_
_symmetry_equiv_pos_as_xyz
  x,y,z
_cell_length_a	16.625548
_cell_length_b	13.897448
_cell_length_c	13.897441
_cell_angle_alpha	90.030599
_cell_angle_beta	89.978130
_cell_angle_gamma	89.981240
loop_
_atom_site_label
_atom_site_type_symbol
_atom_site_fract_x
_atom_site_fract_y
_atom_site_fract_z
Zn1	Zn	1.232718	0.383957	-0.545410
Zn2	Zn	1.232629	0.545278	-0.384112
Zn3	Zn	1.097876	0.384002	-0.384126
Zn4	Zn	1.097861	0.545214	-0.545361
O5	O	1.165271	0.464613	-0.464752
O6	O	1.345538	0.405364	-0.524029
O7	O	1.214723	0.523930	-0.249132
O8	O	1.115807	0.249014	-0.405547
O9	O	1.345473	0.523886	-0.405523
O10	O	1.214874	0.248981	-0.524042
O11	O	1.115721	0.405441	-0.249142
O12	O	0.985042	0.405379	-0.405499
O13	O	1.115781	0.523777	-0.680349
O14	O	0.985031	0.523821	-0.523958
O15	O	1.214859	0.405302	-0.680386
O16	O	1.214708	0.680251	-0.405476
O17	O	1.115695	0.680204	-0.523945
C18	C	1.165212	0.715227	-0.464724
C19	C	1.165261	0.822441	-0.464745
C20	C	0.955780	0.464599	-0.464725
C21	C	0.866159	0.464616	-0.464737
C22	C	1.165328	0.464528	-0.716345
C23	C	1.165353	0.464491	-0.823559
C24	C	0.537983	0.464623	-0.464778
C25	C	0.629292	0.464618	-0.464763
C26	C	0.702068	0.464620	-0.464757
C27	C	0.793383	0.464615	-0.464743
C28	C	1.375580	0.464627	-0.464780
C29	C	1.465201	0.464634	-0.464792
C30	C	1.165352	0.213020	-0.464801
C31	C	1.165387	0.105806	-0.464822
C32	C	1.165345	1.018736	-0.464805
C33	C	1.165296	0.909504	-0.464774
C34	C	1.165374	0.464426	-1.019855
C35	C	1.165360	0.464465	-0.910622
C36	C	1.165260	0.464628	-0.214138
C37	C	1.165392	0.464393	-0.106925
