data_functionalizedCrystal
_audit_creation_method	'MofGen! by Chris Wilmer'
_symmetry_space_group_name_H-M	'P1'
_symmetry_Int_Tables_number	1
_symmetry_cell_setting	triclinic
loop_
_symmetry_equiv_pos_as_xyz
  x,y,z
_cell_length_a	17.917603
_cell_length_b	14.560438
_cell_length_c	14.560438
_cell_angle_alpha	60.000069
_cell_angle_beta	89.999714
_cell_angle_gamma	57.011185
loop_
_atom_site_label
_atom_site_type_symbol
_atom_site_fract_x
_atom_site_fract_y
_atom_site_fract_z
Zr1	Zr	0.754908	0.920723	-0.078228
O2	O	0.629784	1.126341	-0.231881
O3	O	0.793265	0.724825	-0.031128
O4	O	0.793265	0.916429	-0.222729
O5	O	0.629784	0.934734	0.110861
O6	O	0.922222	0.901985	-0.215507
O7	O	0.629783	0.934737	-0.040280
O8	O	0.922222	0.559241	0.127232
O9	O	0.629784	1.277479	-0.231878
O10	O	0.905863	0.791021	-0.005647
O11	O	0.809624	0.801799	0.101757
O12	O	0.809624	1.027388	-0.123828
O13	O	0.713385	1.038165	-0.016423
Zr14	Zr	0.960580	0.897682	0.174343
Zr15	Zr	0.960580	0.897686	-0.066710
Zr16	Zr	0.754908	0.920719	0.162824
Zr17	Zr	0.754908	1.161770	-0.078224
Zr18	Zr	0.960579	0.656635	0.174338
O19	O	0.922223	1.093580	0.127242
O20	O	0.922222	1.093586	-0.215503
O21	O	0.629784	1.126335	0.110864
O22	O	1.085704	0.692064	0.327995
O23	O	1.085704	0.692070	-0.014750
O24	O	0.793265	0.724819	0.311617
O25	O	1.085704	0.883671	-0.014746
O26	O	0.922223	0.901976	0.318843
O27	O	0.793266	0.916420	0.311621
O28	O	1.085704	0.883668	0.136395
O29	O	0.793265	1.259168	-0.222722
O30	O	0.922222	0.559237	0.318837
O31	O	1.085704	0.540926	0.327992
O32	O	1.085704	0.540930	0.136388
O33	O	0.629784	1.277475	-0.040274
O34	O	0.793266	1.259164	-0.031118
O35	O	0.905863	0.791017	0.219942
O36	O	1.002103	0.780240	0.112537
O37	O	0.905864	1.016606	-0.005643
O38	O	0.809624	1.027384	0.101762
C39	C	0.857743	0.607689	0.048051
C40	C	0.857743	0.505358	0.048049
C41	C	0.600480	0.938018	0.033649
C42	C	0.513167	0.947797	0.028759
C43	C	0.907977	0.451656	-0.008015
C44	C	0.907981	0.355497	-0.008004
C45	C	0.807509	0.366753	0.104136
C46	C	0.807511	0.462904	0.104132
C47	C	0.353322	0.965661	0.019829
C48	C	0.362158	0.852750	0.076283
C49	C	0.273215	0.862689	0.071314
C50	C	0.442272	0.955724	0.024796
C51	C	1.115008	0.880387	0.062465
C52	C	1.202321	0.870608	0.067355
C53	C	0.857743	0.909208	-0.253463
C54	C	0.857743	0.909210	-0.355796
C55	C	0.857744	1.210716	0.048063
C56	C	0.857744	1.313047	0.048065
C57	C	0.928787	0.901254	-0.399893
C58	C	0.928789	0.901242	-0.496038
C59	C	0.786697	0.917148	-0.503985
C60	C	0.786699	0.917150	-0.407836
C61	C	0.857744	0.909197	0.349577
C62	C	0.857744	0.909195	0.451910
C63	C	1.115007	0.578874	0.062460
C64	C	1.202320	0.466763	0.067348
C65	C	0.857744	0.607683	0.349571
C66	C	0.857744	0.505351	0.451902
C67	C	1.115008	0.578868	0.363979
C68	C	1.202321	0.466756	0.471200
C69	C	0.600480	1.239537	-0.267865
C70	C	0.513167	1.351649	-0.375086
C71	C	0.600480	1.239531	0.033655
C72	C	0.513167	1.351642	0.028767
C73	C	0.857744	1.210722	-0.253457
C74	C	0.857744	1.313055	-0.355788
C75	C	1.193087	0.419743	0.007942
C76	C	1.275119	0.314417	0.012512
C77	C	1.366383	0.256107	0.076495
C78	C	1.375614	0.303138	0.135902
C79	C	1.293583	0.408468	0.131325
C80	C	1.293568	0.408480	0.465489
C81	C	1.375616	0.303151	0.566225
C82	C	1.366414	0.256093	0.672673
C83	C	1.275157	0.314380	0.678382
C84	C	1.193111	0.419713	0.577646
C85	C	0.421919	1.409937	-0.369374
C86	C	0.339871	1.515295	-0.470111
C87	C	0.349073	1.562358	-0.576558
C88	C	0.440331	1.504066	-0.582267
C89	C	0.522376	1.398715	-0.481532
C90	C	0.522400	1.398673	0.088162
C91	C	0.440368	1.504025	0.083566
C92	C	0.349104	1.562338	0.019580
C93	C	0.339873	1.515303	-0.039823
C94	C	0.421904	1.409959	-0.035233
C95	C	0.907979	0.451645	0.561669
C96	C	0.907968	0.355502	0.657815
C97	C	0.807485	0.366777	0.534415
C98	C	0.807491	0.462924	0.438270
H99	H	0.948887	0.311773	-0.053655
H100	H	1.301114	0.446738	0.179708
H101	H	0.414373	1.371671	-0.083598
H102	H	1.118783	0.467217	-0.044174
N103	N	0.254834	1.103592	-0.049149
H104	H	0.247075	1.155990	-0.018726
H105	H	0.204404	1.091114	-0.042948
N106	N	0.450332	1.554760	0.147623
H107	H	0.418527	1.541617	0.205088
H108	H	0.418557	1.654817	0.091753
N109	N	0.450244	1.554825	-0.697084
H110	H	0.520498	1.501920	-0.685429
H111	H	0.418392	1.654913	-0.741319
H112	H	0.766579	0.506656	0.348887
N113	N	1.005410	0.892687	-0.343760
H114	H	1.050416	0.887642	-0.386287
H115	H	1.042671	0.808433	-0.261738
H116	H	0.948894	0.486190	0.572774
N117	N	1.005403	0.892688	-0.543616
H118	H	1.050402	0.887669	-0.496061
H119	H	0.974314	0.976260	-0.625289
N120	N	1.303507	0.459211	0.350686
H121	H	1.373768	0.406299	0.362371
H122	H	1.271653	0.559301	0.306438
N123	N	0.460653	0.714812	0.145249
H124	H	0.511145	0.727174	0.139066
H125	H	0.468310	0.662503	0.114773
N126	N	0.710074	0.925713	-0.560114
H127	H	0.720850	0.924507	-0.627718
H128	H	0.644883	1.013095	-0.586997
H129	H	0.596672	1.351258	-0.486196
N130	N	0.962160	0.497439	-0.068490
H131	H	0.916085	0.599116	-0.130324
H132	H	0.993982	0.448731	-0.103932
N133	N	1.265236	0.263608	0.793194
H134	H	1.228999	0.341006	0.800196
H135	H	1.331093	0.188010	0.856067
H136	H	1.449914	0.255705	0.561557
H137	H	0.414408	1.371625	-0.282709
H138	H	0.728846	0.923625	-0.371928
H139	H	0.948873	0.311781	0.747189
N140	N	1.454919	0.142465	0.781310
H141	H	1.454964	0.062668	0.827586
H142	H	1.454927	0.176015	0.827517
H143	H	1.267584	0.276139	-0.035866
H144	H	0.766604	0.506627	0.149791
H145	H	0.766573	0.332219	0.523330
N146	N	1.454855	0.142503	0.081424
H147	H	1.435149	0.121570	0.034080
H148	H	1.494308	0.058359	0.163402
H149	H	0.596704	1.351202	0.140274
N150	N	0.753333	0.320963	0.164623
H151	H	0.760951	0.251905	0.156117
H152	H	0.683079	0.402266	0.129777
N153	N	1.094695	0.482557	0.583815
H154	H	1.101325	0.436752	0.666537
H155	H	1.058472	0.469868	0.544469
H156	H	0.265574	1.562740	-0.465441
H157	H	0.282317	1.648115	0.015851
N158	N	1.474055	0.240229	0.204908
H159	H	1.510320	0.139648	0.266174
H160	H	1.467392	0.286088	0.241781
N161	N	0.260581	1.675979	-0.685209
H162	H	0.221098	1.760179	-0.687452
H163	H	0.221173	1.646809	-0.687387
N164	N	0.241436	1.578182	-0.108813
H165	H	0.190879	1.652040	-0.102689
H166	H	0.233846	1.505590	-0.078301
