data_functionalizedCrystal
_audit_creation_method	'MofGen! by Chris Wilmer'
_symmetry_space_group_name_H-M	'P1'
_symmetry_Int_Tables_number	1
_symmetry_cell_setting	triclinic
loop_
_symmetry_equiv_pos_as_xyz
  x,y,z
_cell_length_a	12.827892
_cell_length_b	11.169417
_cell_length_c	11.169409
_cell_angle_alpha	90.019513
_cell_angle_beta	90.033086
_cell_angle_gamma	90.016641
loop_
_atom_site_label
_atom_site_type_symbol
_atom_site_fract_x
_atom_site_fract_y
_atom_site_fract_z
Zn1	Zn	-0.415914	1.834920	0.678527
Zn2	Zn	0.084086	2.334920	1.178527
Zn3	Zn	-0.590701	1.834792	0.477841
Zn4	Zn	-0.090701	2.334792	0.977841
Zn5	Zn	-0.415978	1.634206	0.477862
Zn6	Zn	0.084022	2.134206	0.977862
Zn7	Zn	-0.590617	1.634196	0.678487
Zn8	Zn	-0.090617	2.134196	1.178487
O9	O	-0.503303	1.734528	0.578179
O10	O	-0.003303	2.234528	1.078179
O11	O	-0.439108	2.002853	0.651913
O12	O	0.060892	2.502853	1.151913
O13	O	-0.567586	1.808134	0.309894
O14	O	-0.067586	2.308134	0.809894
O15	O	-0.269734	1.660889	0.504506
O16	O	0.230266	2.160889	1.004506
O17	O	-0.567523	2.002759	0.504470
O18	O	-0.067523	2.502759	1.004470
O19	O	-0.269686	1.808353	0.651933
O20	O	0.230314	2.308353	1.151933
O21	O	-0.439218	1.660765	0.309909
O22	O	0.060782	2.160765	0.809909
O23	O	-0.439137	1.466255	0.504468
O24	O	0.060863	1.966255	1.004468
O25	O	-0.567380	1.660872	0.846442
O26	O	-0.067380	2.160872	1.346442
O27	O	-0.567443	1.466248	0.651866
O28	O	-0.067443	1.966248	1.151866
O29	O	-0.439026	1.808343	0.846471
O30	O	0.060974	2.308343	1.346471
O31	O	-0.736926	1.808124	0.504431
O32	O	-0.236926	2.308124	1.004431
O33	O	-0.736864	1.660747	0.651845
O34	O	-0.236864	2.160747	1.151845
C35	C	-0.503288	1.422704	0.578165
C36	C	-0.003288	1.922704	1.078165
C37	C	-0.503308	1.289304	0.578188
C38	C	-0.003308	1.789304	1.078188
C39	C	-0.774812	1.734453	0.578158
C40	C	-0.274812	2.234453	1.078158
C41	C	-0.890966	1.734531	0.578189
C42	C	-0.390966	2.234531	1.078189
C43	C	-0.942746	1.807544	0.505325
C44	C	-0.442746	2.307544	1.005325
C45	C	-1.062796	1.807626	0.505355
C46	C	-0.562796	2.307626	1.005355
C47	C	-0.230732	1.734637	0.578227
C48	C	0.269268	2.234637	1.078227
C49	C	-0.114579	1.734683	0.578247
C50	C	0.385421	2.234683	1.078247
C51	C	-0.503186	1.734621	0.891222
C52	C	-0.003186	2.234621	1.391222
C53	C	-0.503137	1.734660	1.024622
C54	C	-0.003137	2.234660	1.524622
C55	C	-0.503317	2.047571	0.578194
C56	C	-0.003317	2.547571	1.078194
C57	C	-0.503324	2.180971	0.578200
C58	C	-0.003324	2.680971	1.078200
C59	C	-0.503343	1.734506	0.266354
C60	C	-0.003343	2.234506	0.766354
C61	C	-0.503098	1.734699	0.132955
C62	C	-0.003098	2.234699	0.632955
H63	H	-1.107327	1.870133	0.442971
H64	H	-0.607327	2.370133	0.942971
O65	O	-1.061423	1.660275	0.652804
O66	O	-0.561423	2.160275	1.152804
C67	C	-0.937914	1.644090	0.814617
C68	C	-0.437914	2.144090	1.314617
C69	C	-0.998077	1.728491	0.730277
C70	C	-0.498077	2.228491	1.230277
H71	H	-0.886667	1.699208	0.877259
H72	H	-0.386667	2.199208	1.377259
H73	H	-0.995531	1.589203	0.869593
H74	H	-0.495531	2.089203	1.369593
H75	H	-0.886947	1.581357	0.759370
H76	H	-0.386947	2.081357	1.259370
H77	H	-1.049045	1.791297	0.785431
H78	H	-0.549045	2.291297	1.285431
H79	H	-0.940402	1.783294	0.675297
H80	H	-0.440402	2.283294	1.175297
O81	O	-0.889775	1.882158	0.430830
O82	O	-0.389775	2.382158	0.930830
C83	C	-0.901042	2.034456	0.278624
C84	C	-0.401042	2.534456	0.778624
C85	C	-0.961157	1.950038	0.362954
C86	C	-0.461157	2.450038	0.862954
H87	H	-0.958728	2.089341	0.223707
H88	H	-0.458728	2.589341	0.723707
H89	H	-0.849882	2.097179	0.333756
H90	H	-0.349882	2.597179	0.833756
H91	H	-0.850001	1.979272	0.215917
H92	H	-0.350001	2.479272	0.715917
H93	H	-1.012255	2.005125	0.425678
H94	H	-0.512255	2.505125	0.925678
H95	H	-1.012252	1.887311	0.307748
H96	H	-0.512252	2.387311	0.807748
O97	O	-0.943983	1.659860	0.652583
O98	O	-0.443983	2.159860	1.152583
C99	C	-0.977751	1.455734	0.710594
C100	C	-0.477751	1.955734	1.210594
C101	C	-0.917630	1.540165	0.626284
C102	C	-0.417630	2.040165	1.126284
H103	H	-0.956484	1.358941	0.689345
H104	H	-0.456484	1.858941	1.189345
H105	H	-0.956247	1.476624	0.807424
H106	H	-0.456247	1.976624	1.307424
H107	H	-1.065100	1.469138	0.697376
H108	H	-0.565100	1.969138	1.197376
H109	H	-0.830268	1.526808	0.639396
H110	H	-0.330268	2.026808	1.139396
H111	H	-0.939221	1.519254	0.529485
H112	H	-0.439221	2.019254	1.029485
