data_functionalizedCrystal
_audit_creation_method	'MofGen! by Chris Wilmer'
_symmetry_space_group_name_H-M	'P1'
_symmetry_Int_Tables_number	1
_symmetry_cell_setting	triclinic
loop_
_symmetry_equiv_pos_as_xyz
  x,y,z
_cell_length_a	28.938199
_cell_length_b	28.937346
_cell_length_c	28.934044
_cell_angle_alpha	60.005004
_cell_angle_beta	60.009897
_cell_angle_gamma	59.994060
loop_
_atom_site_label
_atom_site_type_symbol
_atom_site_fract_x
_atom_site_fract_y
_atom_site_fract_z
O1	O	0.064043	-0.675186	0.564597
O2	O	0.564043	-0.175186	1.064597
O3	O	0.024124	-0.525682	0.454913
O4	O	0.524124	-0.025682	0.954913
O5	O	0.118795	-0.620275	0.454833
O6	O	0.618795	-0.120275	0.954833
O7	O	-0.030629	-0.580593	0.564678
O8	O	0.469371	-0.080593	1.064678
O9	O	0.150204	-0.588870	0.486157
O10	O	0.650204	-0.088870	0.986157
O11	O	0.055533	-0.494276	0.486238
O12	O	0.555533	0.005724	0.986238
O13	O	0.095452	-0.643780	0.595921
O14	O	0.595452	-0.143780	1.095921
Cu15	Cu	0.078360	-0.566161	0.543940
Cu16	Cu	0.578360	-0.066161	1.043940
Cu17	Cu	0.041215	-0.603301	0.506895
Cu18	Cu	0.541215	-0.103301	1.006895
O19	O	0.000780	-0.549187	0.596002
O20	O	0.500780	-0.049187	1.096002
N21	N	0.104487	-0.540042	0.569998
N22	N	0.604487	-0.040042	1.069998
N23	N	0.015094	-0.629425	0.480837
N24	N	0.515094	-0.129425	0.980837
C25	C	0.165467	-0.323909	0.630915
C26	C	0.665467	0.176091	1.130915
C27	C	0.165587	-0.479117	0.786068
C28	C	0.665587	0.020883	1.286068
C29	C	0.165481	-0.479095	0.630906
C30	C	0.665481	0.020905	1.130906
C31	C	0.320696	-0.479083	0.630835
C32	C	0.820696	0.020917	1.130835
C33	C	0.182557	-0.375118	0.647971
C34	C	0.682557	0.124882	1.147971
C35	C	0.182626	-0.462038	0.734858
C36	C	0.682626	0.037962	1.234858
C37	C	0.269485	-0.462018	0.647928
C38	C	0.769485	0.037982	1.147928
C39	C	0.182566	-0.462025	0.647966
C40	C	0.682566	0.037975	1.147966
C41	C	0.143714	-0.258726	0.609206
C42	C	0.643714	0.241274	1.109206
C43	C	0.143738	-0.500820	0.609192
C44	C	0.643738	-0.000820	1.109192
C45	C	0.204309	-0.440300	0.669680
C46	C	0.704309	0.059700	1.169680
C47	C	0.415481	-0.462740	0.580919
C48	C	0.915481	0.037260	1.080919
C49	C	0.474732	-0.482485	0.561145
C50	C	0.974732	0.017515	1.061145
C51	C	0.474757	-0.578356	0.597704
C52	C	0.974757	-0.078356	1.097704
C53	C	0.415508	-0.558609	0.617479
C54	C	0.915508	-0.058609	1.117479
C55	C	0.157989	-0.229089	0.550957
C56	C	0.657989	0.270911	1.050957
C57	C	0.138212	-0.169834	0.531225
C58	C	0.638212	0.330166	1.031225
C59	C	0.089890	-0.169857	0.627992
C60	C	0.589890	0.330143	1.127992
C61	C	0.109667	-0.229112	0.647725
C62	C	0.609667	0.270888	1.147725
C63	C	0.085482	-0.486515	0.623535
C64	C	0.585482	0.013485	1.123535
C65	C	0.065722	-0.506265	0.603789
C66	C	0.565722	-0.006265	1.103789
C67	C	0.162467	-0.554625	0.555370
C68	C	0.662467	-0.054625	1.055370
C69	C	0.182230	-0.534875	0.575110
C70	C	0.682230	-0.034875	1.075110
C71	C	0.085661	-0.486557	0.880902
C72	C	0.585661	0.013443	1.380902
C73	C	0.065952	-0.506323	0.940155
C74	C	0.565952	-0.006323	1.440155
C75	C	0.162734	-0.554693	0.940102
C76	C	0.662734	-0.054693	1.440102
C77	C	0.182441	-0.534928	0.880847
C78	C	0.682441	-0.034928	1.380847
C79	C	0.143904	-0.500859	0.851249
C80	C	0.643904	-0.000859	1.351249
C81	C	0.385871	-0.500801	0.609083
C82	C	0.885871	-0.000801	1.109083
C83	C	-0.110907	-0.668480	0.441278
C84	C	0.389093	-0.168480	0.941278
C85	C	-0.024049	-0.668588	0.441475
C86	C	0.475951	-0.168588	0.941475
C87	C	-0.045729	-0.690282	0.419668
C88	C	0.454271	-0.190282	0.919668
C89	C	-0.062146	-0.785032	0.469507
C90	C	0.437854	-0.285032	0.969507
C91	C	-0.042446	-0.844287	0.489286
C92	C	0.457554	-0.344287	0.989286
C93	C	0.053426	-0.844399	0.452899
C94	C	0.553426	-0.344399	0.952899
C95	C	0.033725	-0.785144	0.433120
C96	C	0.533725	-0.285144	0.933120
C97	C	-0.140617	-0.682751	0.499509
C98	C	0.359383	-0.182751	0.999509
C99	C	-0.199867	-0.662928	0.519152
C100	C	0.300133	-0.162928	1.019152
C101	C	-0.199694	-0.614571	0.422330
C102	C	0.300306	-0.114571	0.922330
C103	C	-0.140443	-0.634393	0.402687
C104	C	0.359557	-0.134393	0.902687
C105	C	-0.038320	-0.610337	0.427144
C106	C	0.461680	-0.110337	0.927144
C107	C	-0.018610	-0.590621	0.446974
C108	C	0.481390	-0.090621	0.946974
C109	C	0.029642	-0.687402	0.495454
C110	C	0.529642	-0.187402	0.995454
C111	C	0.009933	-0.707121	0.475630
C112	C	0.509933	-0.207121	0.975630
C113	C	-0.038148	-0.610347	0.324832
C114	C	0.461852	-0.110347	0.824832
C115	C	-0.018301	-0.590634	0.265579
C116	C	0.481699	-0.090634	0.765579
C117	C	0.030035	-0.687421	0.265643
C118	C	0.530035	-0.187421	0.765643
C119	C	0.010190	-0.707133	0.324897
C120	C	0.510190	-0.207133	0.824897
C121	C	-0.023903	-0.668595	0.354491
C122	C	0.476097	-0.168595	0.854491
C123	C	-0.024062	-0.755463	0.441426
C124	C	0.475938	-0.255463	0.941426
N125	N	0.503527	-0.540005	0.569810
N126	N	1.003527	-0.040005	1.069810
O127	O	0.684453	-0.545211	0.434650
O128	O	1.184453	-0.045211	0.934650
O129	O	0.684643	-0.655237	0.584005
O130	O	1.184643	-0.155237	1.084005
O131	O	0.684567	-0.654986	0.489282
O132	O	1.184567	-0.154986	0.989282
O133	O	0.684529	-0.545462	0.529373
O134	O	1.184529	-0.045462	1.029373
O135	O	0.590438	-0.623674	0.520735
O136	O	1.090438	-0.123674	1.020735
O137	O	0.590513	-0.623924	0.615457
O138	O	1.090513	-0.123924	1.115457
O139	O	0.590323	-0.513899	0.466102
O140	O	1.090323	-0.013899	0.966102
Cu141	Cu	0.581823	-0.566053	0.543652
Cu142	Cu	1.081823	-0.066053	1.043652
Cu143	Cu	0.693143	-0.603083	0.506456
Cu144	Cu	1.193143	-0.103083	1.006456
O145	O	0.590399	-0.514149	0.560825
O146	O	1.090399	-0.014149	1.060825
N147	N	0.771439	-0.629131	0.480292
N148	N	1.271439	-0.129131	0.980292
N149	N	0.104456	-0.141061	0.570015
N150	N	0.604456	0.358939	1.070015
O151	O	-0.030629	0.039964	0.564688
O152	O	0.469371	0.539964	1.064688
O153	O	0.118732	0.039984	0.454661
O154	O	0.618732	0.539984	0.954661
O155	O	0.023980	0.039958	0.454946
O156	O	0.523980	0.539958	0.954946
O157	O	0.064123	0.039990	0.564403
O158	O	0.564123	0.539990	1.064403
O159	O	0.055392	-0.054179	0.486321
O160	O	0.555392	0.445821	0.986321
O161	O	0.150144	-0.054153	0.486036
O162	O	0.650144	0.445847	0.986036
O163	O	0.000784	-0.054173	0.596063
O164	O	0.500784	0.445827	1.096063
Cu165	Cu	0.078332	-0.062759	0.543914
Cu166	Cu	0.578332	0.437241	1.043914
Cu167	Cu	0.041183	0.048570	0.506810
Cu168	Cu	0.541183	0.548570	1.006810
O169	O	0.095535	-0.054147	0.595778
O170	O	0.595535	0.445853	1.095778
N171	N	0.015053	0.126872	0.480710
N172	N	0.515053	0.626872	0.980710
N173	N	0.104760	-0.540096	0.968910
N174	N	0.604760	-0.040096	1.468910
O175	O	0.099447	-0.675167	1.149923
O176	O	0.599447	-0.175167	1.649923
O177	O	-0.010552	-0.525757	1.149951
O178	O	0.489448	-0.025757	1.649951
O179	O	-0.010297	-0.620493	1.149918
O180	O	0.489703	-0.120493	1.649918
O181	O	0.099192	-0.580431	1.149956
O182	O	0.599192	-0.080431	1.649956
O183	O	0.021064	-0.589100	1.055785
O184	O	0.521064	-0.089100	1.555785
O185	O	0.020809	-0.494365	1.055818
O186	O	0.520809	0.005635	1.555818
O187	O	0.130808	-0.643774	1.055790
O188	O	0.630808	-0.143774	1.555790
Cu189	Cu	0.078672	-0.566203	1.047209
Cu190	Cu	0.578672	-0.066203	1.547209
Cu191	Cu	0.041584	-0.603328	1.158532
Cu192	Cu	0.541584	-0.103328	1.658532
O193	O	0.130553	-0.549038	1.055823
O194	O	0.630553	-0.049038	1.555823
N195	N	0.015495	-0.629442	1.236831
N196	N	0.515495	-0.129442	1.736831
C197	C	0.036087	-0.491140	0.455465
C198	C	0.536087	0.008860	0.955465
C199	C	0.153325	-0.608283	0.455364
C200	C	0.653325	-0.108283	0.955364
C201	C	0.083488	-0.678322	0.595370
C202	C	0.583488	-0.178322	1.095370
C203	C	-0.033750	-0.561180	0.595470
C204	C	0.466250	-0.061180	1.095470
C205	C	0.637601	-0.654732	0.618548
C206	C	1.137601	-0.154732	1.118548
C207	C	0.637509	-0.654422	0.501245
C208	C	1.137509	-0.154422	1.001245
C209	C	0.637362	-0.514403	0.431560
C210	C	1.137362	-0.014403	0.931560
C211	C	0.637458	-0.514713	0.548862
C212	C	1.137458	-0.014713	1.048862
C213	C	0.153215	-0.006966	0.455158
C214	C	0.653215	0.493034	0.955158
C215	C	0.035916	-0.007114	0.455550
C216	C	0.535916	0.492886	0.955550
C217	C	-0.033739	-0.007106	0.595527
C218	C	0.466261	0.492894	1.095527
C219	C	0.083600	-0.007076	0.595174
C220	C	0.583600	0.492924	1.095174
C221	C	-0.010020	-0.491238	1.102888
C222	C	0.489980	0.008762	1.602888
C223	C	-0.009698	-0.608550	1.102828
C224	C	0.490302	-0.108550	1.602828
C225	C	0.130276	-0.678293	1.102853
C226	C	0.630276	-0.178293	1.602853
C227	C	0.129961	-0.560974	1.102892
C228	C	0.629961	-0.060974	1.602892
H229	H	0.018524	-0.494668	0.964293
H230	H	0.518524	0.005332	1.464293
O231	O	0.171549	-0.729444	1.102819
O232	O	0.671549	-0.229444	1.602819
C233	C	0.266958	-0.787460	1.102855
C234	C	0.766958	-0.287460	1.602855
C235	C	0.220272	-0.729504	1.102880
C236	C	0.720272	-0.229504	1.602880
H237	H	0.306358	-0.787532	1.102916
H238	H	0.806358	-0.287532	1.602916
H239	H	0.277690	-0.795758	1.063442
H240	H	0.777690	-0.295758	1.563442
H241	H	0.251369	-0.822014	1.142231
H242	H	0.751369	-0.322014	1.642231
H243	H	0.235822	-0.694914	1.063530
H244	H	0.735822	-0.194914	1.563530
H245	H	0.209547	-0.721255	1.142319
H246	H	0.709547	-0.221255	1.642319
H247	H	-0.076633	-0.007113	0.630069
H248	H	0.423367	0.492887	1.130069
O249	O	0.170946	-0.550650	1.102873
O250	O	0.670946	-0.050650	1.602873
C251	C	0.196820	-0.483420	1.102927
C252	C	0.696820	0.016580	1.602927
C253	C	0.150359	-0.495032	1.102936
C254	C	0.650359	0.004968	1.602936
H255	H	0.180189	-0.438459	1.102990
H256	H	0.680189	0.061541	1.602990
H257	H	0.235445	-0.488444	1.063520
H258	H	0.735445	0.011556	1.563520
H259	H	0.209211	-0.514784	1.142309
H260	H	0.709211	-0.014784	1.642309
H261	H	0.137921	-0.463679	1.063580
H262	H	0.637921	0.036321	1.563580
H263	H	0.111764	-0.490029	1.142369
H264	H	0.611764	0.009971	1.642369
O265	O	0.637764	-0.695957	0.669696
O266	O	1.137764	-0.195957	1.169696
C267	C	0.686602	-0.755751	0.737830
C268	C	1.186602	-0.255751	1.237830
C269	C	0.686493	-0.709073	0.679889
C270	C	1.186493	-0.209073	1.179889
H271	H	0.725989	-0.766361	0.746095
H272	H	1.225989	-0.266361	1.246095
H273	H	0.686663	-0.795220	0.737914
H274	H	1.186663	-0.295220	1.237914
H275	H	0.647204	-0.740197	0.772398
H276	H	1.147204	-0.240197	1.272398
H277	H	0.725884	-0.724573	0.645289
H278	H	1.225884	-0.224573	1.145289
H279	H	0.686403	-0.669613	0.679854
H280	H	1.186403	-0.169613	1.179854
H281	H	0.054276	-0.458811	0.856808
H282	H	0.554276	0.041189	1.356808
H283	H	0.092195	-0.007066	0.629560
H284	H	0.592195	0.492934	1.129560
O285	O	0.637314	-0.473260	0.380352
O286	O	1.137314	0.026740	0.880352
C287	C	0.637177	-0.446927	0.287146
C288	C	1.137177	0.053073	0.787146
C289	C	0.637246	-0.493576	0.345108
C290	C	1.137246	0.006424	0.845108
H291	H	0.637110	-0.463331	0.258639
H292	H	1.137110	0.036669	0.758639
H293	H	0.676555	-0.434551	0.266755
H294	H	1.176555	0.065449	0.766755
H295	H	0.597769	-0.408343	0.293149
H296	H	1.097769	0.091657	0.793149
H297	H	0.676627	-0.532190	0.339154
H298	H	1.176627	-0.032190	0.839154
H299	H	0.597841	-0.505903	0.365479
H300	H	1.097841	-0.005903	0.865479
O301	O	-0.051152	-0.440000	1.102822
O302	O	0.448848	0.060000	1.602822
C303	C	-0.078507	-0.339308	1.054056
C304	C	0.421493	0.160692	1.554056
C305	C	-0.031873	-0.397296	1.054068
C306	C	0.468127	0.102704	1.554068
H307	H	-0.062941	-0.304768	1.014637
H308	H	0.437059	0.195232	1.514637
H309	H	-0.089187	-0.330977	1.093431
H310	H	0.410813	0.169023	1.593431
H311	H	-0.117937	-0.339256	1.054075
H312	H	0.382063	0.160744	1.554075
H313	H	0.007587	-0.397390	1.054029
H314	H	0.507587	0.102610	1.554029
H315	H	-0.021241	-0.405604	1.014696
H316	H	0.478759	0.094396	1.514696
O317	O	0.200246	-0.587800	0.968766
O318	O	0.700246	-0.087800	1.468766
C319	C	0.298320	-0.633669	0.962459
C320	C	0.798320	-0.133669	1.462459
C321	C	0.255901	-0.596175	0.929926
C322	C	0.755901	-0.096175	1.429926
H323	H	0.343326	-0.640442	0.931071
H324	H	0.843326	-0.140442	1.431071
H325	H	0.291555	-0.676318	0.990175
H326	H	0.791555	-0.176318	1.490175
H327	H	0.291477	-0.611970	0.990220
H328	H	0.791477	-0.111970	1.490220
H329	H	0.262718	-0.617824	0.902134
H330	H	0.762718	-0.117824	1.402134
H331	H	0.262676	-0.553528	0.902246
H332	H	0.762676	-0.053528	1.402246
O333	O	0.204330	-0.006722	0.413916
O334	O	0.704330	0.493278	0.913916
C335	C	0.305098	-0.055034	0.386215
C336	C	0.805098	0.444966	0.886215
C337	C	0.247247	-0.055372	0.432972
C338	C	0.747247	0.444628	0.932972
H339	H	0.339810	-0.094370	0.401601
H340	H	0.839810	0.405630	0.901601
H341	H	0.313205	-0.015572	0.375649
H342	H	0.813205	0.484428	0.875649
H343	H	0.305099	-0.054927	0.346761
H344	H	0.805099	0.445073	0.846761
H345	H	0.247204	-0.055500	0.472456
H346	H	0.747204	0.444500	0.972456
H347	H	0.239162	-0.094831	0.443490
H348	H	0.739162	0.405169	0.943490
H349	H	-0.076669	-0.552723	0.629962
H350	H	0.423331	-0.052723	1.129962
O351	O	0.025586	-0.007165	0.414600
O352	O	0.525586	0.492835	0.914600
C353	C	-0.041680	-0.007191	0.388745
C354	C	0.458320	0.492809	0.888745
C355	C	-0.030057	-0.007135	0.435171
C356	C	0.469943	0.492865	0.935171
H357	H	-0.086670	-0.007154	0.405355
H358	H	0.413330	0.492846	0.905355
H359	H	-0.010375	-0.046604	0.376391
H360	H	0.489625	0.453396	0.876391
H361	H	-0.036606	0.032189	0.350099
H362	H	0.463394	0.532189	0.850099
H363	H	-0.035137	-0.046488	0.473847
H364	H	0.464863	0.453512	0.973847
H365	H	-0.061359	0.032304	0.447476
H366	H	0.438641	0.532304	0.947476
O367	O	0.025959	-0.439955	0.414294
O368	O	0.525959	0.060045	0.914294
C369	C	0.020700	-0.389283	0.320020
C370	C	0.520700	0.110717	0.820020
C371	C	0.032197	-0.447286	0.366591
C372	C	0.532197	0.052714	0.866591
H373	H	0.025727	-0.395188	0.281445
H374	H	0.525727	0.104812	0.781445
H375	H	0.052073	-0.368874	0.307584
H376	H	0.552073	0.131126	0.807584
H377	H	-0.024256	-0.360836	0.336573
H378	H	0.475744	0.139164	0.836573
H379	H	0.077136	-0.475776	0.350078
H380	H	0.577136	0.024224	0.850078
H381	H	0.000789	-0.467649	0.379020
H382	H	0.500789	0.032351	0.879020
H383	H	0.637450	-0.480310	0.557440
H384	H	1.137450	0.019690	1.057440
H385	H	-0.044080	-0.617108	1.102779
H386	H	0.455920	-0.117108	1.602779
H387	H	0.229870	-0.546579	0.856706
H388	H	0.729870	-0.046579	1.356706
H389	H	-0.030233	-0.543188	0.435308
H390	H	0.469767	-0.043188	0.935308
O391	O	0.637500	-0.695401	0.490929
O392	O	1.137500	-0.195401	0.990929
C393	C	0.637495	-0.721305	0.423682
C394	C	1.137495	-0.221305	0.923682
C395	C	0.637492	-0.674844	0.435293
C396	C	1.137492	-0.174844	0.935293
H397	H	0.637500	-0.704706	0.378697
H398	H	1.137500	-0.204706	0.878697
H399	H	0.598122	-0.733704	0.455002
H400	H	1.098122	-0.233704	0.955002
H401	H	0.676909	-0.759922	0.428743
H402	H	1.176909	-0.259922	0.928743
H403	H	0.598105	-0.636197	0.430224
H404	H	1.098105	-0.136197	0.930224
H405	H	0.676891	-0.662493	0.403975
H406	H	1.176891	-0.162493	0.903975
O407	O	0.204520	-0.618461	0.414229
O408	O	0.704520	-0.118461	0.914229
C409	C	0.272648	-0.675689	0.354493
C410	C	0.772648	-0.175689	0.854493
C411	C	0.214666	-0.664232	0.401088
C412	C	0.714666	-0.164232	0.901088
H413	H	0.280864	-0.712687	0.343846
H414	H	0.780864	-0.212687	0.843846
H415	H	0.307228	-0.686473	0.370068
H416	H	0.807228	-0.186473	0.870068
H417	H	0.272759	-0.636353	0.315038
H418	H	0.772759	-0.136353	0.815038
H419	H	0.214500	-0.703548	0.440560
H420	H	0.714500	-0.203548	0.940560
H421	H	0.180111	-0.653423	0.385468
H422	H	0.680111	-0.153423	0.885468
O423	O	0.048014	-0.453417	0.656611
O424	O	0.548014	0.046583	1.156611
C425	C	-0.050033	-0.407555	0.702574
C426	C	0.449967	0.092445	1.202574
C427	C	-0.007662	-0.445033	0.665099
C428	C	0.492338	0.054967	1.165099
H429	H	-0.095056	-0.400775	0.709459
H430	H	0.404944	0.099225	1.209459
H431	H	-0.043263	-0.364908	0.680874
H432	H	0.456737	0.135092	1.180874
H433	H	-0.043143	-0.429272	0.745171
H434	H	0.456857	0.070728	1.245171
H435	H	-0.014526	-0.423366	0.622496
H436	H	0.485474	0.076634	1.122496
H437	H	-0.014442	-0.487678	0.686844
H438	H	0.485558	0.012322	1.186844
H439	H	0.018285	-0.494604	0.615454
H440	H	0.518285	0.005396	1.115454
O441	O	0.093741	-0.729596	0.636398
O442	O	0.593741	-0.229596	1.136398
C443	C	0.160915	-0.822764	0.662443
C444	C	0.660915	-0.322764	1.162443
C445	C	0.149375	-0.764727	0.615924
C446	C	0.649375	-0.264727	1.115924
H447	H	0.205898	-0.851180	0.645911
H448	H	0.705898	-0.351180	1.145911
H449	H	0.129588	-0.843202	0.674823
H450	H	0.629588	-0.343202	1.174823
H451	H	0.155811	-0.816861	0.701053
H452	H	0.655811	-0.316861	1.201053
H453	H	0.154486	-0.770581	0.577284
H454	H	0.654486	-0.270581	1.077284
H455	H	0.180700	-0.744310	0.603592
H456	H	0.680700	-0.244310	1.103592
H457	H	0.229667	-0.546519	0.563426
H458	H	0.729667	-0.046519	1.063426
O459	O	0.199888	-0.587624	0.522184
O460	O	0.699888	-0.087624	1.022184
C461	C	0.276530	-0.595181	0.434966
C462	C	0.776530	-0.095181	0.934966
C463	C	0.234174	-0.557750	0.472490
C464	C	0.734174	-0.057750	0.972490
H465	H	0.304269	-0.571047	0.394786
H466	H	0.804269	-0.071047	0.894786
H467	H	0.252434	-0.606831	0.423265
H468	H	0.752434	-0.106831	0.923265
H469	H	0.304270	-0.635399	0.459092
H470	H	0.804270	-0.135399	0.959092
H471	H	0.206423	-0.517508	0.448398
H472	H	0.706423	-0.017508	0.948398
H473	H	0.258305	-0.546145	0.484193
H474	H	0.758305	-0.046145	0.984193
O475	O	0.386834	-0.595658	0.644805
O476	O	0.886834	-0.095658	1.144805
C477	C	0.393122	-0.692839	0.679006
C478	C	0.893122	-0.192839	1.179006
C479	C	0.425664	-0.650940	0.648038
C480	C	0.925664	-0.150940	1.148038
H481	H	0.424501	-0.737546	0.681640
H482	H	0.924501	-0.237546	1.181640
H483	H	0.365376	-0.680991	0.654796
H484	H	0.865376	-0.180991	1.154796
H485	H	0.365390	-0.691001	0.723547
H486	H	0.865390	-0.191001	1.223547
H487	H	0.453426	-0.652756	0.603497
H488	H	0.953426	-0.152756	1.103497
H489	H	0.453374	-0.662802	0.672291
H490	H	0.953374	-0.162802	1.172291
H491	H	0.498841	-0.451490	0.538213
H492	H	0.998841	0.048510	1.038213
O493	O	0.386779	-0.406569	0.572740
O494	O	0.886779	0.093431	1.072740
C495	C	0.393011	-0.313559	0.534359
C496	C	0.893011	0.186441	1.034359
C497	C	0.425583	-0.377158	0.543598
C498	C	0.925583	0.122842	1.043598
H499	H	0.424371	-0.289761	0.510787
H500	H	0.924371	0.210239	1.010787
H501	H	0.365307	-0.306928	0.577073
H502	H	0.865307	0.193072	1.077073
H503	H	0.365235	-0.296900	0.508342
H504	H	0.865235	0.203100	1.008342
H505	H	0.453390	-0.393860	0.569595
H506	H	0.953390	0.106140	1.069595
H507	H	0.453252	-0.383752	0.500865
H508	H	0.953252	0.116248	1.000865
H509	H	0.185713	-0.253197	0.519589
H510	H	0.685713	0.246803	1.019589
O511	O	0.152148	-0.141128	0.474621
O512	O	0.652148	0.358872	0.974621
C513	C	0.202130	-0.147357	0.380721
C514	C	0.702130	0.352643	0.880721
C515	C	0.186404	-0.179934	0.444809
C516	C	0.686404	0.320066	0.944809
H517	H	0.229818	-0.178718	0.356599
H518	H	0.729818	0.321282	0.856599
H519	H	0.226279	-0.119622	0.369013
H520	H	0.726279	0.380378	0.869013
H521	H	0.161894	-0.119607	0.369106
H522	H	0.661894	0.380393	0.869106
H523	H	0.226610	-0.207715	0.456469
H524	H	0.726610	0.292285	0.956469
H525	H	0.162233	-0.207633	0.456482
H526	H	0.662233	0.292367	0.956482
O527	O	0.023868	-0.763725	0.489578
O528	O	0.523868	-0.263725	0.989578
C529	C	0.073783	-0.857642	0.539781
C530	C	0.573783	-0.357642	1.039781
C531	C	0.058052	-0.793556	0.524020
C532	C	0.558052	-0.293556	1.024020
H533	H	0.101412	-0.881779	0.567639
H534	H	0.601412	-0.381779	1.067639
H535	H	0.097995	-0.869363	0.499602
H536	H	0.597995	-0.369363	0.999602
H537	H	0.033546	-0.869228	0.563803
H538	H	0.533546	-0.369228	1.063803
H539	H	0.098259	-0.781924	0.500012
H540	H	0.598259	-0.281924	1.000012
H541	H	0.033817	-0.781869	0.564219
H542	H	0.533817	-0.281869	1.064219
H543	H	0.062174	-0.145744	0.659359
H544	H	0.562174	0.354256	1.159359
O545	O	0.095768	-0.257812	0.704327
O546	O	0.595768	0.242188	1.204327
C547	C	0.045719	-0.251578	0.798225
C548	C	0.545719	0.248422	1.298225
C549	C	0.061430	-0.219004	0.734137
C550	C	0.561430	0.280996	1.234137
H551	H	0.017944	-0.220216	0.822346
H552	H	0.517944	0.279784	1.322346
H553	H	0.085921	-0.279300	0.809903
H554	H	0.585921	0.220700	1.309903
H555	H	0.021627	-0.279340	0.809873
H556	H	0.521627	0.220660	1.309873
H557	H	0.085507	-0.191211	0.722444
H558	H	0.585507	0.308789	1.222444
H559	H	0.021206	-0.191317	0.722494
H560	H	0.521206	0.308683	1.222494
H561	H	0.498884	-0.625426	0.604536
H562	H	0.998884	-0.125426	1.104536
H563	H	-0.029909	-0.543201	0.241439
H564	H	0.470091	-0.043201	0.741439
H565	H	-0.065911	-0.578960	0.348925
H566	H	0.434089	-0.078960	0.848925
H567	H	0.057785	-0.718806	0.241554
H568	H	0.557785	-0.218806	0.741554
H569	H	-0.065985	-0.578958	0.399332
H570	H	0.434015	-0.078958	0.899332
O571	O	0.023961	-0.763724	0.353682
O572	O	0.523961	-0.263724	0.853682
C573	C	0.019429	-0.852434	0.371749
C574	C	0.519429	-0.352434	0.871749
C575	C	0.003788	-0.788353	0.339127
C576	C	0.503788	-0.288353	0.839127
H577	H	0.003137	-0.872368	0.359985
H578	H	0.503137	-0.372368	0.859985
H579	H	-0.000625	-0.859938	0.419189
H580	H	0.499375	-0.359938	0.919189
H581	H	0.067398	-0.872443	0.360195
H582	H	0.567398	-0.372443	0.860195
H583	H	-0.044173	-0.768301	0.350634
H584	H	0.455827	-0.268301	0.850634
H585	H	0.023883	-0.780889	0.291696
H586	H	0.523883	-0.280889	0.791696
O587	O	0.070786	-0.756482	0.405784
O588	O	0.570786	-0.256482	0.905784
C589	C	0.152984	-0.738432	0.326021
C590	C	0.652984	-0.238432	0.826021
C591	C	0.111061	-0.770937	0.356930
C592	C	0.611061	-0.270937	0.856930
H593	H	0.185550	-0.750098	0.286510
H594	H	0.685550	-0.250098	0.786510
H595	H	0.175447	-0.750113	0.355313
H596	H	0.675447	-0.250113	0.855313
H597	H	0.128963	-0.690985	0.313338
H598	H	0.628963	-0.190985	0.813338
H599	H	0.135040	-0.818391	0.369616
H600	H	0.635040	-0.318391	0.869616
H601	H	0.088599	-0.759209	0.327619
H602	H	0.588599	-0.259209	0.827619
O603	O	-0.079517	-0.872922	0.516537
O604	O	0.420483	-0.372922	1.016537
C605	C	-0.149208	-0.890955	0.511217
C606	C	0.350792	-0.390955	1.011217
C607	C	-0.107236	-0.858497	0.480263
C608	C	0.392764	-0.358497	0.980263
H609	H	-0.171623	-0.879314	0.481899
H610	H	0.328377	-0.379314	0.981899
H611	H	-0.181810	-0.879207	0.550678
H612	H	0.318190	-0.379207	1.050678
H613	H	-0.125231	-0.938409	0.523983
H614	H	0.374769	-0.438409	1.023983
H615	H	-0.131165	-0.811036	0.467459
H616	H	0.368835	-0.311036	0.967459
H617	H	-0.074636	-0.870292	0.440827
H618	H	0.425364	-0.370292	0.940827
O619	O	-0.118254	-0.756132	0.477467
O620	O	0.381746	-0.256132	0.977467
C621	C	-0.189821	-0.689193	0.433638
C622	C	0.310179	-0.189193	0.933638
C623	C	-0.126262	-0.721883	0.424549
C624	C	0.373738	-0.221883	0.924549
H625	H	-0.196316	-0.661505	0.390861
H626	H	0.303684	-0.161505	0.890861
H627	H	-0.206550	-0.661400	0.459658
H628	H	0.293450	-0.161400	0.959658
H629	H	-0.213655	-0.720511	0.457129
H630	H	0.286345	-0.220511	0.957129
H631	H	-0.102381	-0.690607	0.401042
H632	H	0.397619	-0.190607	0.901042
H633	H	-0.109576	-0.749686	0.398551
H634	H	0.390424	-0.249686	0.898551
H635	H	0.057315	-0.718782	0.523258
H636	H	0.557315	-0.218782	1.023258
H637	H	-0.116569	-0.710512	0.530934
H638	H	0.383431	-0.210512	1.030934
O639	O	-0.228302	-0.581450	0.384768
O640	O	0.271698	-0.081450	0.884768
C641	C	-0.221879	-0.535623	0.286658
C642	C	0.278121	-0.035623	0.786658
C643	C	-0.189412	-0.573126	0.329135
C644	C	0.310588	-0.073126	0.829135
H645	H	-0.190452	-0.528892	0.241670
H646	H	0.309548	-0.028892	0.741670
H647	H	-0.249589	-0.492957	0.293402
H648	H	0.250411	0.007043	0.793402
H649	H	-0.249640	-0.557293	0.293462
H650	H	0.250360	-0.057293	0.793462
H651	H	-0.161621	-0.551506	0.322357
H652	H	0.338379	-0.051506	0.822357
H653	H	-0.161738	-0.615791	0.322381
H654	H	0.338262	-0.115791	0.822381
H655	H	0.100481	-0.868567	0.446139
H656	H	0.600481	-0.368567	0.946139
O657	O	-0.228643	-0.676866	0.575740
O658	O	0.271357	-0.176866	1.075740
C659	C	-0.222566	-0.726905	0.669705
C660	C	0.277434	-0.226905	1.169705
C661	C	-0.189908	-0.711169	0.605637
C662	C	0.310092	-0.211169	1.105637
H663	H	-0.191262	-0.754631	0.693895
H664	H	0.308738	-0.254631	1.193895
H665	H	-0.250296	-0.751021	0.681328
H666	H	0.249704	-0.251021	1.181328
H667	H	-0.250323	-0.686672	0.681322
H668	H	0.249677	-0.186672	1.181322
H669	H	-0.162120	-0.751373	0.593974
H670	H	0.337880	-0.251373	1.093974
H671	H	-0.162213	-0.687032	0.594047
H672	H	0.337787	-0.187032	1.094047
H673	H	-0.116252	-0.622767	0.355267
H674	H	0.383748	-0.122767	0.855267
