data_functionalizedCrystal
_audit_creation_method	'MofGen! by Chris Wilmer'
_symmetry_space_group_name_H-M	'P1'
_symmetry_Int_Tables_number	1
_symmetry_cell_setting	triclinic
loop_
_symmetry_equiv_pos_as_xyz
  x,y,z
_cell_length_a	18.050589
_cell_length_b	12.759395
_cell_length_c	12.759387
_cell_angle_alpha	89.979491
_cell_angle_beta	90.029987
_cell_angle_gamma	89.970242
loop_
_atom_site_label
_atom_site_type_symbol
_atom_site_fract_x
_atom_site_fract_y
_atom_site_fract_z
Zn1	Zn	-0.295590	-1.606170	0.594011
Zn2	Zn	-0.419799	-1.606019	0.418334
Zn3	Zn	-0.295630	-1.430468	0.418348
Zn4	Zn	-0.419746	-1.430419	0.593973
O5	O	-0.357691	-1.518269	0.506166
O6	O	-0.312072	-1.753171	0.570717
O7	O	-0.403367	-1.582689	0.271315
O8	O	-0.191700	-1.453859	0.441672
O9	O	-0.403327	-1.753060	0.441648
O10	O	-0.191671	-1.582946	0.570731
O11	O	-0.312141	-1.453713	0.271325
O12	O	-0.312089	-1.283441	0.441635
O13	O	-0.403237	-1.453775	0.740999
O14	O	-0.403277	-1.283405	0.570666
O15	O	-0.312020	-1.582899	0.741027
O16	O	-0.523716	-1.582642	0.441611
O17	O	-0.523677	-1.453629	0.570652
C18	C	-0.357682	-1.245302	0.506148
C19	C	-0.357696	-1.128525	0.506166
C20	C	-0.550643	-1.518142	0.506149
C21	C	-0.633189	-1.518184	0.506177
C22	C	-0.357618	-1.518348	0.780200
C23	C	-0.357587	-1.518382	0.896977
C24	C	-0.832646	-1.448096	0.576325
C25	C	-0.882094	-1.422480	0.480456
C26	C	-0.784319	-1.518287	0.506190
C27	C	-0.881953	-1.543955	0.602070
C28	C	-0.930304	-1.518385	0.506212
C29	C	-0.832681	-1.492621	0.410271
C30	C	-0.832535	-1.614141	0.531950
C31	C	-0.881961	-1.588561	0.436015
C32	C	-0.700221	-1.518228	0.506179
C33	C	-1.014401	-1.518444	0.506212
C34	C	-0.163986	-1.518425	0.506207
C35	C	-0.081440	-1.518492	0.506224
C36	C	-0.357701	-1.792302	0.506185
C37	C	-0.357705	-1.909079	0.506193
C38	C	-0.452803	-1.128526	0.640308
C39	C	-0.500362	-1.073666	0.707383
C40	C	-0.500371	-0.963944	0.707395
C41	C	-0.452814	-0.909080	0.640329
C42	C	-0.405255	-0.963940	0.573255
C43	C	-0.405253	-1.073665	0.573247
C44	C	-0.310146	-0.963939	0.439119
C45	C	-0.310139	-1.073661	0.439099
C46	C	-0.262589	-0.909076	0.372052
C47	C	-0.215032	-0.963936	0.304971
C48	C	-0.215026	-1.073664	0.304960
C49	C	-0.262580	-1.128521	0.372025
C50	C	-0.357710	-1.518251	0.233199
C51	C	-0.357532	-1.518420	0.116423
C52	C	-0.262609	-1.652848	0.897026
C53	C	-0.215109	-1.720095	0.951911
C54	C	-0.215082	-1.720121	1.061633
C55	C	-0.262559	-1.652889	1.116472
C56	C	-0.310059	-1.585642	1.061586
C57	C	-0.310082	-1.585626	0.951862
C58	C	-0.405032	-1.451173	1.061538
C59	C	-0.405064	-1.451151	0.951816
C60	C	-0.452509	-1.383942	1.116376
C61	C	-0.500013	-1.316698	1.061491
C62	C	-0.500039	-1.316676	0.951763
C63	C	-0.452564	-1.383904	0.896931
H64	H	-0.903879	-1.341466	0.458688
O65	O	-0.551664	-0.904734	0.779715
H66	H	-0.589387	-0.854701	0.732566
O67	O	-0.262519	-1.652907	1.234814
H68	H	-0.303507	-1.594857	1.263726
O69	O	-0.452601	-1.383875	0.778588
H70	H	-0.396593	-1.362683	0.749665
H71	H	-0.176312	-0.919257	0.250376
O72	O	-0.803762	-1.721453	0.560921
H73	H	-0.742278	-1.720727	0.559955
H74	H	-0.903478	-1.647961	0.376645
O75	O	-0.452483	-1.383962	1.234719
H76	H	-0.411484	-1.442024	1.263674
H77	H	-0.538661	-1.261958	1.106150
O78	O	-0.163734	-1.132826	0.232600
H79	H	-0.105465	-1.111806	0.250761
H80	H	-0.810991	-1.388650	0.635551
O81	O	-0.262576	-1.246864	0.372006
H82	H	-0.247635	-1.275842	0.451283
H83	H	-0.538712	-1.261904	0.907082
O84	O	-0.910621	-1.572671	0.709461
H85	H	-0.890868	-1.514238	0.767511
H86	H	-0.452819	-0.819739	0.640355
O87	O	-0.452800	-1.246869	0.640279
H88	H	-0.437859	-1.275856	0.719553
O89	O	-0.804141	-1.463783	0.302845
H90	H	-0.742652	-1.463926	0.303690
O91	O	-0.262587	-0.790733	0.372041
H92	H	-0.277516	-0.761784	0.292749
O93	O	-0.551638	-1.132836	0.779742
H94	H	-0.543643	-1.218349	0.768471
H95	H	-0.176454	-1.774831	0.907249
O96	O	-0.262643	-1.652821	0.778683
H97	H	-0.221649	-1.710862	0.749771
O98	O	-0.163855	-1.792652	1.120841
H99	H	-0.130849	-1.839402	1.064281
