data_functionalizedCrystal
_audit_creation_method	'MofGen! by Chris Wilmer'
_symmetry_space_group_name_H-M	'P1'
_symmetry_Int_Tables_number	1
_symmetry_cell_setting	triclinic
loop_
_symmetry_equiv_pos_as_xyz
  x,y,z
_cell_length_a	11.026607
_cell_length_b	10.540539
_cell_length_c	9.482900
_cell_angle_alpha	99.430988
_cell_angle_beta	78.636152
_cell_angle_gamma	96.555754
loop_
_atom_site_label
_atom_site_type_symbol
_atom_site_fract_x
_atom_site_fract_y
_atom_site_fract_z
O1	O	1.633556	0.517017	-0.120883
O2	O	1.279725	0.456370	-0.120886
O3	O	1.464712	0.303756	-0.120883
O4	O	1.448568	0.669632	-0.120886
O5	O	1.427139	0.334914	0.120909
O6	O	1.242151	0.487529	0.120905
O7	O	1.595982	0.548176	0.120909
Cu8	Cu	1.415636	0.520697	0.142985
Cu9	Cu	1.460071	0.483849	-0.142962
O10	O	1.410994	0.700790	0.120905
C11	C	1.215630	0.460761	0.000009
C12	C	1.080627	0.427408	0.000008
C13	C	1.007620	0.519500	0.000006
C14	C	0.868087	0.485031	0.000004
C15	C	1.444715	0.271766	0.000011
C16	C	1.441094	0.130024	0.000003
C17	C	1.302374	-0.083877	-0.000541
C18	C	1.305961	0.063616	0.000003
C19	C	1.484669	0.100404	0.138078
C20	C	1.480039	-0.047136	0.138195
C21	C	1.525516	-0.082485	-0.136768
C22	C	1.527044	0.064534	-0.138593
C23	C	1.660077	0.543785	0.000010
C24	C	1.795082	0.577136	0.000002
C25	C	1.430992	0.732779	0.000009
C26	C	1.434615	0.874520	0.000007
N27	N	1.384391	0.546616	0.344104
N28	N	1.491325	0.457922	-0.344082
C29	C	1.450847	0.491485	0.416305
C30	C	1.424860	0.513061	0.583722
H31	H	0.835869	0.681507	0.000011
C32	C	1.348629	0.723202	0.630878
C33	C	1.322069	0.598348	0.667569
H34	H	1.285166	0.775848	0.682636
H35	H	1.426103	0.758558	0.655745
H36	H	1.352611	0.719875	0.529368
H37	H	1.318097	0.601674	0.769077
H38	H	1.244574	0.562984	0.642712
H39	H	1.233910	-0.113041	0.097919
H40	H	0.827302	0.380657	-0.000032
C41	C	1.737803	-0.078888	-0.260208
C42	C	1.657476	-0.117538	-0.138033
H43	H	1.819265	-0.100526	-0.260972
H44	H	1.710151	-0.121698	-0.345846
H45	H	1.738484	0.011778	-0.256647
H46	H	1.656788	-0.208207	-0.141599
H47	H	1.685136	-0.074731	-0.052373
C48	C	0.972760	0.245702	-0.124296
C49	C	1.025572	0.286516	0.000002
H50	H	0.938782	0.158716	-0.124301
H51	H	0.908879	0.299007	-0.124283
H52	H	1.034811	0.251685	-0.208603
H53	H	0.963518	0.280541	0.084310
H54	H	1.089459	0.233196	0.000003
H55	H	1.270172	0.082256	-0.098975
H56	H	1.567460	0.394739	0.593795
C57	C	1.527105	0.281350	0.369050
C58	C	1.553633	0.406222	0.332407
H59	H	1.590562	0.228719	0.317237
H60	H	1.523155	0.284643	0.470535
H61	H	1.449612	0.245994	0.344202
H62	H	1.631122	0.441583	0.357265
H63	H	1.557596	0.402934	0.230898
C64	C	1.004615	0.737047	0.124305
C65	C	1.062678	0.660392	0.000009
H66	H	1.038610	0.824027	0.124308
H67	H	0.918083	0.732363	0.124290
H68	H	1.017797	0.706746	0.208614
H69	H	1.049488	0.690687	-0.084301
H70	H	1.149231	0.665082	0.000011
C71	C	1.229028	-0.065736	-0.218001
C72	C	1.251079	-0.155496	-0.134210
H73	H	1.197371	-0.109960	-0.300530
H74	H	1.170286	-0.009818	-0.161293
H75	H	1.304482	-0.016568	-0.249024
H76	H	1.175624	-0.204657	-0.103178
H77	H	1.309824	-0.211437	-0.190928
H78	H	1.239026	0.106861	0.099145
H79	H	1.415939	-0.072562	0.241408
H80	H	1.423527	0.146349	0.240829
C81	C	1.691541	0.029872	0.151640
C82	C	1.609911	-0.082072	0.146679
H83	H	1.771712	0.008306	0.156893
H84	H	1.696005	0.068029	0.066507
H85	H	1.662272	0.089192	0.234903
H86	H	1.639175	-0.141389	0.063410
H87	H	1.605451	-0.120249	0.231821
C88	C	1.581011	0.155031	-0.361430
C89	C	1.484337	0.087983	-0.276495
H90	H	1.554643	0.169508	-0.446565
H91	H	1.603017	0.235517	-0.307212
H92	H	1.650928	0.105527	-0.388134
H93	H	1.414422	0.137492	-0.249782
H94	H	1.462314	0.007484	-0.330723
C95	C	1.167399	0.579747	0.391310
C96	C	1.281606	0.631895	0.427965
H97	H	1.103943	0.632393	0.443088
H98	H	1.171385	0.576448	0.289817
H99	H	1.149408	0.495038	0.416190
H100	H	1.299602	0.716601	0.403075
H101	H	1.277621	0.635209	0.529481
C102	C	1.670152	0.222539	-0.031888
C103	C	1.661801	0.124900	-0.149852
H104	H	1.753350	0.259798	-0.038828
H105	H	1.617019	0.287074	-0.033063
H106	H	1.645768	0.186952	0.056230
H107	H	1.686176	0.160489	-0.237970
H108	H	1.714952	0.060354	-0.148690
H109	H	1.583109	0.145156	0.143213
H110	H	1.498043	-0.137104	-0.241420
