data_functionalizedCrystal
_audit_creation_method	'MofGen! by Chris Wilmer'
_symmetry_space_group_name_H-M	'P1'
_symmetry_Int_Tables_number	1
_symmetry_cell_setting	triclinic
loop_
_symmetry_equiv_pos_as_xyz
  x,y,z
_cell_length_a	18.050589
_cell_length_b	18.050591
_cell_length_c	17.077396
_cell_angle_alpha	89.971318
_cell_angle_beta	90.024642
_cell_angle_gamma	89.978696
loop_
_atom_site_label
_atom_site_type_symbol
_atom_site_fract_x
_atom_site_fract_y
_atom_site_fract_z
Zn1	Zn	-0.295796	-1.135327	0.444056
Zn2	Zn	-0.419994	-1.135227	0.312799
Zn3	Zn	-0.295807	-1.011136	0.312783
Zn4	Zn	-0.419934	-1.011094	0.444001
O5	O	-0.357883	-1.073196	0.378410
O6	O	-0.312292	-1.239238	0.426674
O7	O	-0.403549	-1.118742	0.202950
O8	O	-0.191881	-1.027669	0.330213
O9	O	-0.403539	-1.239165	0.330240
O10	O	-0.191873	-1.118912	0.426658
O11	O	-0.312310	-1.027573	0.202938
O12	O	-0.312252	-0.907206	0.330160
O13	O	-0.403438	-1.027598	0.553855
O14	O	-0.403448	-0.907175	0.426565
O15	O	-0.312234	-1.118871	0.553896
O16	O	-0.523910	-1.118702	0.330187
O17	O	-0.523867	-1.027502	0.426581
C18	C	-0.357845	-0.880244	0.378355
C19	C	-0.357847	-0.797698	0.378351
C20	C	-0.308187	-0.598243	0.326035
C21	C	-0.375923	-0.548822	0.306720
C22	C	-0.357862	-0.646568	0.378378
C23	C	-0.290143	-0.548907	0.397682
C24	C	-0.357870	-0.500583	0.378402
C25	C	-0.425633	-0.598234	0.359025
C26	C	-0.339807	-0.598324	0.450021
C27	C	-0.407589	-0.548925	0.430733
C28	C	-0.357856	-0.730666	0.378361
C29	C	-0.357884	-0.416486	0.378418
C30	C	-0.550835	-1.073106	0.378397
C31	C	-0.633381	-1.073136	0.378417
C32	C	-0.832835	-1.023590	0.430818
C33	C	-0.882274	-1.005487	0.359186
C34	C	-0.784511	-1.073209	0.378428
C35	C	-0.882153	-1.091349	0.450068
C36	C	-0.930496	-1.073278	0.378444
C37	C	-0.832863	-1.055070	0.306757
C38	C	-0.832738	-1.140964	0.397688
C39	C	-0.882155	-1.122886	0.326006
C40	C	-0.700413	-1.073167	0.378419
C41	C	-1.014593	-1.073320	0.378444
C42	C	-0.164177	-1.073306	0.378440
C43	C	-0.081631	-1.073353	0.378453
C44	C	-0.357828	-1.073241	0.583154
C45	C	-0.357805	-1.073260	0.670404
C46	C	-0.357908	-0.266902	0.378450
C47	C	-0.357886	-0.349447	0.378431
C48	C	-0.357884	-1.073194	0.174462
C49	C	-0.357698	-1.073319	0.087212
C50	C	-0.310311	-1.120788	0.711416
C51	C	-0.310286	-1.120797	0.793397
C52	C	-0.357760	-1.073281	0.834363
C53	C	-0.405255	-1.025748	0.793345
C54	C	-0.405276	-1.025736	0.711366
C55	C	-0.405211	-1.025778	0.964215
C56	C	-0.405191	-1.025791	1.046200
C57	C	-0.310221	-1.120839	1.046246
C58	C	-0.310242	-1.120827	0.964267
C59	C	-0.357739	-1.073295	0.923254
H60	H	-0.266227	-0.619897	0.281726
H61	H	-0.811178	-0.981567	0.475060
Br62	Br	-0.245885	-1.185283	0.655826
H63	H	-0.904049	-0.948221	0.342910
Br64	Br	-0.796932	-1.029437	0.205758
Br65	Br	-0.469613	-0.961298	1.101798
H66	H	-0.271614	-1.159500	0.826785
Br67	Br	-0.469669	-0.961267	0.908556
Br68	Br	-0.918023	-1.192877	0.252093
Br69	Br	-0.401392	-0.512581	0.205756
Br70	Br	-0.796446	-1.236390	0.424871
H71	H	-0.903805	-1.106664	0.510647
Br72	Br	-0.469680	-0.961257	0.848942
Br73	Br	-0.245820	-1.185319	0.908669
H74	H	-0.482923	-0.619811	0.342641
Br75	Br	-0.245764	-1.185350	1.101904
Br76	Br	-0.469729	-0.961227	0.655705
H77	H	-0.324507	-0.620084	0.510580
Br78	Br	-0.194687	-0.512784	0.424877
Br79	Br	-0.477688	-0.513057	0.504531
