data_functionalizedCrystal
_audit_creation_method	'MofGen! by Chris Wilmer'
_symmetry_space_group_name_H-M	'P1'
_symmetry_Int_Tables_number	1
_symmetry_cell_setting	triclinic
loop_
_symmetry_equiv_pos_as_xyz
  x,y,z
_cell_length_a	17.699083
_cell_length_b	9.565339
_cell_length_c	17.699083
_cell_angle_alpha	89.992190
_cell_angle_beta	96.716984
_cell_angle_gamma	89.991220
loop_
_atom_site_label
_atom_site_type_symbol
_atom_site_fract_x
_atom_site_fract_y
_atom_site_fract_z
O1	O	1.004068	0.116086	-0.095708
O2	O	0.783690	0.116134	-0.108160
O3	O	0.900105	0.116075	0.008255
O4	O	0.887653	0.116145	-0.212123
O5	O	0.900110	-0.116446	0.008252
O6	O	0.783695	-0.116386	-0.108164
O7	O	1.004073	-0.116434	-0.095711
Zn8	Zn	0.893885	-0.153328	-0.101938
Zn9	Zn	0.893878	0.153028	-0.101933
O10	O	0.887658	-0.116375	-0.212127
C11	C	0.755495	-0.000120	-0.107716
C12	C	0.671477	-0.000103	-0.106377
C13	C	0.622856	-0.000081	-0.174711
C14	C	0.543913	-0.000100	-0.173448
C15	C	0.513592	-0.000130	-0.103852
C16	C	0.562219	-0.000156	-0.035513
C17	C	0.641161	-0.000147	-0.036776
C18	C	0.243856	-0.000192	-0.030418
C19	C	0.164908	-0.000196	-0.029160
C20	C	0.146608	-0.000145	-0.167090
C21	C	0.225550	-0.000136	-0.168353
C22	C	0.274170	-0.000169	-0.100015
C23	C	0.359769	-0.000152	-0.101384
C24	C	0.427995	-0.000137	-0.102481
N25	N	0.893895	-0.362407	-0.101940
C26	C	0.947750	-0.453600	-0.048106
C27	C	0.879384	-0.546761	-0.033531
C28	C	0.962234	-0.546802	-0.116466
C29	C	0.825494	-0.453516	-0.087332
C30	C	0.908390	-0.453548	-0.170297
C31	C	0.839974	-0.546667	-0.155751
C32	C	1.032268	-0.000177	-0.096156
C33	C	1.116286	-0.000185	-0.097494
C34	C	0.899662	-0.000191	0.036451
C35	C	0.898323	-0.000208	0.120469
N36	N	0.893874	0.362107	-0.101925
C37	C	0.966656	-0.000234	0.169090
C38	C	0.965394	-0.000237	0.248033
C39	C	0.895798	-0.000224	0.278354
C40	C	0.827459	-0.000194	0.229727
C41	C	0.828722	-0.000181	0.150785
C42	C	0.822364	-0.000245	0.548090
C43	C	0.821106	-0.000262	0.627038
C44	C	0.959036	-0.000301	0.645338
C45	C	0.960299	-0.000288	0.566396
C46	C	0.891961	-0.000250	0.517776
C47	C	0.893330	-0.000244	0.432177
C48	C	0.894427	-0.000240	0.363951
C49	C	0.888102	-0.000156	0.759678
C50	C	0.889440	-0.000278	0.675660
H51	H	0.250232	-0.000105	-0.225025
H52	H	0.537526	-0.000200	0.021154
H53	H	0.140225	-0.000223	0.027517
H54	H	1.016971	-0.000305	0.541714
N55	N	0.293503	-0.000220	0.039392
N56	N	0.266418	-0.000239	0.101525
H57	H	0.301483	-0.000255	0.150832
N58	N	1.034739	-0.598203	-0.131910
N59	N	1.039647	-0.672935	-0.189061
H60	H	1.090854	-0.709234	-0.199965
H61	H	1.021038	-0.000261	0.287618
H62	H	0.107012	-0.000125	-0.222734
N63	N	0.752958	-0.402364	-0.071831
N64	N	0.694417	-0.433127	-0.115155
H65	H	0.643189	-0.396999	-0.104208
N66	N	1.028851	-0.000339	0.694993
N67	N	1.075168	-0.098368	0.692303
H68	H	1.124475	-0.098401	0.727369
N69	N	0.923796	-0.402131	-0.242804
N70	N	0.880751	-0.433622	-0.301412
H71	H	0.891637	-0.397306	-0.352622
H72	H	0.764429	-0.000254	0.651721
H73	H	0.773078	-0.000160	0.111198
N74	N	1.004841	-0.402320	0.009019
N75	N	1.073075	-0.433907	0.006780
H76	H	1.113394	-0.397688	0.047125
N77	N	0.756369	-0.000217	0.260699
N78	N	0.710339	-0.098227	0.245756
H79	H	0.660130	-0.098253	0.267629
N80	N	0.690818	-0.000185	0.033032
N81	N	0.663739	-0.000218	0.095167
H82	H	0.698808	-0.000253	0.144472
H83	H	1.023330	-0.000253	0.144409
N84	N	0.752554	-0.000216	0.498443
N85	N	0.690421	-0.000216	0.525528
H86	H	0.641114	-0.000201	0.490463
N87	N	0.494238	-0.000093	-0.243242
N88	N	0.423755	-0.000126	-0.242108
H89	H	0.388670	-0.000135	-0.291403
N90	N	0.653824	-0.000082	-0.245803
N91	N	0.695840	-0.098091	-0.261896
H92	H	0.717710	-0.098099	-0.312107
H93	H	0.867110	-0.587706	0.024283
N94	N	0.782762	-0.597606	-0.212854
N95	N	0.714457	-0.567408	-0.209894
H96	H	0.674049	-0.603387	-0.250220
