data_functionalizedCrystal
_audit_creation_method	'MofGen! by Chris Wilmer'
_symmetry_space_group_name_H-M	'P1'
_symmetry_Int_Tables_number	1
_symmetry_cell_setting	triclinic
loop_
_symmetry_equiv_pos_as_xyz
  x,y,z
_cell_length_a	19.805407
_cell_length_b	14.908520
_cell_length_c	19.805399
_cell_angle_alpha	93.269050
_cell_angle_beta	89.983114
_cell_angle_gamma	93.320773
loop_
_atom_site_label
_atom_site_type_symbol
_atom_site_fract_x
_atom_site_fract_y
_atom_site_fract_z
Zn1	Zn	1.019185	-0.359168	-0.398269
Zn2	Zn	1.519185	0.140832	0.101731
Zn3	Zn	1.012581	-0.510037	-0.291612
Zn4	Zn	1.512581	-0.010037	0.208388
Zn5	Zn	0.906004	-0.359197	-0.285095
Zn6	Zn	1.406004	0.140803	0.214905
Zn7	Zn	0.899441	-0.509986	-0.404757
Zn8	Zn	1.399441	-0.009986	0.095243
O9	O	0.959303	-0.434597	-0.344933
O10	O	1.459303	0.065403	0.155067
O11	O	1.113026	-0.379191	-0.384133
O12	O	1.613026	0.120809	0.115867
O13	O	0.998426	-0.490062	-0.196032
O14	O	1.498426	0.009938	0.303968
O15	O	0.926528	-0.232948	-0.294665
O16	O	1.426528	0.267052	0.205335
O17	O	1.108173	-0.490034	-0.305773
O18	O	1.608173	0.009966	0.194227
O19	O	1.009682	-0.232927	-0.377813
O20	O	1.509682	0.267073	0.122187
O21	O	0.920124	-0.379240	-0.191244
O22	O	1.420124	0.120760	0.308756
O23	O	0.810417	-0.379190	-0.300956
O24	O	1.310417	0.120810	0.199044
O25	O	0.915343	-0.489946	-0.498611
O26	O	1.415343	0.010054	0.001389
O27	O	0.805596	-0.489974	-0.388871
O28	O	1.305596	0.010026	0.111129
O29	O	1.003319	-0.379141	-0.493845
O30	O	1.503319	0.120859	0.006155
O31	O	0.992063	-0.636275	-0.312064
O32	O	1.492063	-0.136275	0.187936
O33	O	0.908939	-0.636238	-0.395190
O34	O	1.408939	-0.136238	0.104810
C35	C	0.783448	-0.434580	-0.344910
C36	C	1.283448	0.065420	0.155090
C37	C	0.708215	-0.434594	-0.344918
C38	C	1.208215	0.065406	0.155082
C39	C	0.670374	-0.492366	-0.390629
C40	C	1.170374	0.007634	0.109371
C41	C	0.599686	-0.492368	-0.390638
C42	C	1.099686	0.007632	0.109362
C43	C	0.566839	-0.434601	-0.344933
C44	C	1.066839	0.065399	0.155067
C45	C	0.604685	-0.376823	-0.299220
C46	C	1.104685	0.123177	0.200780
C47	C	0.675373	-0.376817	-0.299214
C48	C	1.175373	0.123183	0.200786
C49	C	0.319611	-0.376843	-0.299243
C50	C	0.819611	0.123157	0.200757
C51	C	0.248919	-0.376854	-0.299251
C52	C	0.748919	0.123146	0.200749
C53	C	0.243924	-0.492393	-0.390667
C54	C	0.743924	0.007607	0.109333
C55	C	0.314612	-0.492388	-0.390662
C56	C	0.814612	0.007612	0.109338
C57	C	0.352452	-0.434606	-0.344951
C58	C	0.852452	0.065394	0.155049
C59	C	0.429100	-0.434604	-0.344942
C60	C	0.929100	0.065396	0.155058
C61	C	0.490192	-0.434607	-0.344938
C62	C	0.990192	0.065393	0.155062
C63	C	0.949091	-0.668990	-0.355053
C64	C	1.449091	-0.168990	0.144947
C65	C	0.944783	-0.769265	-0.359405
C66	C	1.444783	-0.269265	0.140595
C67	C	1.023335	-0.957670	-0.281093
C68	C	1.523335	-0.457670	0.218907
C69	C	1.019291	-1.051887	-0.285180
C70	C	1.519291	-0.551887	0.214820
C71	C	0.932654	-1.051917	-0.371669
C72	C	1.432654	-0.551917	0.128331
C73	C	0.936698	-0.957700	-0.367582
C74	C	1.436698	-0.457700	0.132418
C75	C	0.982040	-0.910580	-0.322292
C76	C	1.482040	-0.410580	0.177708
C77	C	0.986081	-0.816361	-0.318202
C78	C	1.486081	-0.316361	0.181798
C79	C	0.899447	-0.816394	-0.404694
C80	C	1.399447	-0.316394	0.095306
C81	C	0.895403	-0.910610	-0.408781
C82	C	1.395403	-0.410610	0.091219
C83	C	1.135845	-0.434615	-0.344956
C84	C	1.635845	0.065385	0.155044
C85	C	1.211077	-0.434623	-0.344966
C86	C	1.711077	0.065377	0.155034
C87	C	0.959335	-0.434534	-0.521473
C88	C	1.459335	0.065466	-0.021473
C89	C	0.959349	-0.434508	-0.596704
C90	C	1.459349	0.065492	-0.096704
C91	C	0.969574	-0.199288	-0.334788
C92	C	1.469574	0.300712	0.165212
C93	C	0.973951	-0.099014	-0.330465
C94	C	1.473951	0.400986	0.169535
C95	C	0.918590	-0.376797	-0.629554
C96	C	1.418590	0.123203	-0.129554
C97	C	0.918600	-0.376780	-0.700242
C98	C	1.418600	0.123220	-0.200242
C99	C	0.959374	-0.434469	-0.738078
C100	C	1.459374	0.065531	-0.238078
C101	C	1.000134	-0.492185	-0.705223
C102	C	1.500134	0.007815	-0.205223
C103	C	1.000120	-0.492207	-0.634537
C104	C	1.500120	0.007793	-0.134537
C105	C	1.000192	-0.492101	-0.990293
C106	C	1.500192	0.007899	-0.490293
C107	C	1.000204	-0.492073	-1.060984
C108	C	1.500204	0.007927	-0.560984
C109	C	0.918672	-0.376674	-1.055998
C110	C	1.418672	0.123326	-0.555998
C111	C	0.918658	-0.376695	-0.985312
C112	C	1.418658	0.123305	-0.485312
C113	C	0.959415	-0.434415	-0.952463
C114	C	1.459415	0.065585	-0.452463
C115	C	0.959403	-0.434435	-0.875816
C116	C	1.459403	0.065565	-0.375816
C117	C	0.959390	-0.434445	-0.814724
C118	C	1.459390	0.065555	-0.314724
C119	C	0.959313	-0.434594	-0.169077
C120	C	1.459313	0.065406	0.330923
C121	C	0.959441	-0.434367	-0.093835
C122	C	1.459441	0.065633	0.406165
H123	H	0.577936	-0.329784	-0.262009
H124	H	1.077936	0.170216	0.237991
C125	C	1.080724	-0.606263	-0.703047
C126	C	1.580724	-0.106263	-0.203047
C127	C	1.044953	-0.555601	-0.746810
C128	C	1.544953	-0.055601	-0.246810
H129	H	1.108391	-0.645415	-0.728721
H130	H	1.608391	-0.145415	-0.228721
H131	H	1.108322	-0.566969	-0.673786
H132	H	1.608322	-0.066969	-0.173786
H133	H	1.049714	-0.640775	-0.676960
H134	H	1.549714	-0.140775	-0.176960
H135	H	1.075963	-0.521083	-0.772894
H136	H	1.575963	-0.021083	-0.272894
H137	H	1.017352	-0.594900	-0.776082
H138	H	1.517352	-0.094900	-0.276082
H139	H	0.341352	-0.539430	-0.427877
H140	H	0.841352	-0.039430	0.072123
C141	C	0.785952	-0.325502	-0.258616
C142	C	1.285952	0.174498	0.241384
C143	C	0.716971	-0.313313	-0.248967
C144	C	1.216971	0.186687	0.251033
H145	H	0.811631	-0.286289	-0.227599
H146	H	1.311631	0.213711	0.272401
H147	H	0.794891	-0.386091	-0.251248
H148	H	1.294891	0.113909	0.248752
H149	H	0.798116	-0.312377	-0.303545
H150	H	1.298116	0.187623	0.196455
H151	H	0.704806	-0.326445	-0.204040
H152	H	1.204806	0.173555	0.295960
H153	H	0.708028	-0.252710	-0.256330
H154	H	1.208028	0.247290	0.243670
C155	C	1.004205	-0.613584	-0.560277
C156	C	1.504205	-0.113584	-0.060277
C157	C	1.044923	-0.555644	-0.598424
C158	C	1.544923	-0.055644	-0.098424
H159	H	1.031864	-0.652754	-0.537987
H160	H	1.531864	-0.152754	-0.037987
H161	H	0.979926	-0.579228	-0.527632
H162	H	1.479926	-0.079228	-0.027632
H163	H	0.973217	-0.648075	-0.589345
H164	H	1.473217	-0.148075	-0.089345
H165	H	1.075908	-0.521148	-0.569356
H166	H	1.575908	-0.021148	-0.069356
H167	H	1.069213	-0.590004	-0.631073
H168	H	1.569213	-0.090004	-0.131073
C169	C	1.132691	-1.080739	-0.253586
C170	C	1.632691	-0.580739	0.246414
C171	C	1.064696	-1.103628	-0.239890
C172	C	1.564696	-0.603628	0.260110
H173	H	1.160726	-1.112673	-0.225621
H174	H	1.660726	-0.612673	0.274379
H175	H	1.141895	-1.096143	-0.299734
H176	H	1.641895	-0.596143	0.200266
H177	H	1.141567	-1.017877	-0.244679
H178	H	1.641567	-0.517877	0.255321
H179	H	1.055818	-1.166489	-0.248802
H180	H	1.555818	-0.666489	0.251198
H181	H	1.055488	-1.088230	-0.193731
H182	H	1.555488	-0.588230	0.306269
H183	H	0.895743	-1.090299	-0.408546
H184	H	1.395743	-0.590299	0.091454
C185	C	0.850730	-1.055053	-0.453446
C186	C	1.350730	-0.555053	0.046554
C187	C	0.845562	-0.962410	-0.458558
C188	C	1.345562	-0.462410	0.041442
H189	H	0.819955	-1.087028	-0.484173
H190	H	1.319955	-0.587028	0.015827
H191	H	0.895534	-1.070426	-0.464070
H192	H	1.395534	-0.570426	0.035930
H193	H	0.840195	-1.070533	-0.408627
H194	H	1.340195	-0.570533	0.091373
H195	H	0.856102	-0.946929	-0.503376
H196	H	1.356102	-0.446929	-0.003376
H197	H	0.800748	-0.947031	-0.447938
H198	H	1.300748	-0.447031	0.052062
H199	H	1.033371	-0.539110	-0.963557
H200	H	1.533371	-0.039110	-0.463557
H201	H	0.697113	-0.539409	-0.427845
H202	H	1.197113	-0.039409	0.072155
C203	C	1.071315	-0.825798	-0.233126
C204	C	1.571315	-0.325798	0.266874
C205	C	1.035920	-0.764564	-0.268421
C206	C	1.535920	-0.264564	0.231579
H207	H	1.102087	-0.793820	-0.202397
H208	H	1.602087	-0.293820	0.297603
H209	H	1.040264	-0.862601	-0.208804
H210	H	1.540264	-0.362601	0.291196
H211	H	1.095606	-0.862492	-0.264243
H212	H	1.595606	-0.362492	0.235757
H213	H	1.011624	-0.727874	-0.237305
H214	H	1.511624	-0.227874	0.262695
H215	H	1.066975	-0.727746	-0.292745
H216	H	1.566975	-0.227746	0.207255
C217	C	0.867176	-0.671981	-0.436836
C218	C	1.367176	-0.171981	0.063164
C219	C	0.854053	-0.764630	-0.449986
C220	C	1.354053	-0.264630	0.050014
H221	H	0.839153	-0.640027	-0.464799
H222	H	1.339153	-0.140027	0.035201
H223	H	0.857960	-0.656597	-0.390687
H224	H	1.357960	-0.156597	0.109313
H225	H	0.913313	-0.656486	-0.446116
H226	H	1.413313	-0.156486	0.053884
H227	H	0.807917	-0.780127	-0.440701
H228	H	1.307917	-0.280127	0.059299
H229	H	0.863263	-0.780021	-0.496145
H230	H	1.363263	-0.280021	0.003855
C231	C	0.133347	-0.543705	-0.431283
C232	C	0.633347	-0.043705	0.068717
C233	C	0.202329	-0.555900	-0.440922
C234	C	0.702329	-0.055900	0.059078
H235	H	0.107671	-0.582909	-0.462309
H236	H	0.607671	-0.082909	0.037691
H237	H	0.121175	-0.556832	-0.386363
H238	H	0.621175	-0.056832	0.113637
H239	H	0.124413	-0.483106	-0.438651
H240	H	0.624413	0.016894	0.061349
H241	H	0.211264	-0.616498	-0.433549
H242	H	0.711264	-0.116498	0.066451
H243	H	0.214505	-0.542780	-0.485852
H244	H	0.714505	-0.042780	0.014148
H245	H	0.885392	-0.329815	-0.598753
H246	H	1.385392	0.170185	-0.098753
H247	H	0.568879	-0.539412	-0.427860
H248	H	1.068879	-0.039412	0.072140
C249	C	0.260953	-0.262622	-0.208893
C250	C	0.760953	0.237378	0.291107
C251	C	0.212812	-0.313345	-0.249013
C252	C	0.712812	0.186655	0.250987
H253	H	0.238661	-0.223414	-0.177883
H254	H	0.738661	0.276586	0.322117
H255	H	0.286804	-0.301874	-0.184643
H256	H	0.786804	0.198126	0.315357
H257	H	0.290035	-0.228166	-0.236945
H258	H	0.790035	0.271834	0.263055
H259	H	0.183733	-0.347806	-0.220961
H260	H	0.683733	0.152194	0.279039
H261	H	0.186950	-0.274088	-0.273265
H262	H	0.686950	0.225912	0.226735
C263	C	0.914498	-0.255424	-0.774524
C264	C	1.414498	0.244576	-0.274524
C265	C	0.873792	-0.313357	-0.736361
C266	C	1.373792	0.186643	-0.236361
H267	H	0.886830	-0.216278	-0.796827
H268	H	1.386830	0.283722	-0.296827
H269	H	0.945479	-0.220915	-0.745471
H270	H	1.445479	0.279085	-0.245471
H271	H	0.938783	-0.289792	-0.807166
H272	H	1.438783	0.210208	-0.307166
H273	H	0.849510	-0.278989	-0.703716
H274	H	1.349510	0.221011	-0.203716
H275	H	0.842799	-0.347870	-0.765417
H276	H	1.342799	0.152130	-0.265417
C277	C	0.838058	-0.262629	-0.987485
C278	C	1.338058	0.237371	-0.487485
C279	C	0.873836	-0.313285	-0.943723
C280	C	1.373836	0.186715	-0.443723
H281	H	0.810383	-0.223488	-0.961810
H282	H	1.310383	0.276512	-0.461810
H283	H	0.869058	-0.228113	-1.013569
H284	H	1.369058	0.271887	-0.513569
H285	H	0.810460	-0.301935	-1.016749
H286	H	1.310460	0.198065	-0.516749
H287	H	0.901438	-0.273980	-0.914462
H288	H	1.401438	0.226020	-0.414462
H289	H	0.842832	-0.347804	-0.917628
H290	H	1.342832	0.152196	-0.417628
C291	C	0.882474	-0.325402	-1.162142
C292	C	1.382474	0.174598	-0.662142
C293	C	0.873859	-0.313237	-1.092108
C294	C	1.373859	0.186763	-0.592108
H295	H	0.854806	-0.286242	-1.184431
H296	H	1.354806	0.213758	-0.684431
H297	H	0.928523	-0.312197	-1.173162
H298	H	1.428523	0.187803	-0.673162
H299	H	0.869922	-0.386015	-1.176328
H300	H	1.369922	0.113985	-0.676328
H301	H	0.886416	-0.252624	-1.077920
H302	H	1.386416	0.247376	-0.577920
H303	H	0.827800	-0.326435	-1.081082
H304	H	1.327800	0.173565	-0.581082
C305	C	1.080789	-0.606169	-1.058817
C306	C	1.580789	-0.106169	-0.558817
C307	C	1.045020	-0.555497	-1.102576
C308	C	1.545020	-0.055497	-0.602576
H309	H	1.108451	-0.645324	-1.084496
H310	H	1.608451	-0.145324	-0.584496
H311	H	1.108392	-0.566881	-1.029557
H312	H	1.608392	-0.066881	-0.529557
H313	H	1.049778	-0.640679	-1.032730
H314	H	1.549778	-0.140679	-0.532730
H315	H	1.076031	-0.520982	-1.128660
H316	H	1.576031	-0.020982	-0.628660
H317	H	1.017414	-0.594790	-1.131847
H318	H	1.517414	-0.094790	-0.631847
H319	H	1.060250	-0.919304	-0.244211
H320	H	1.560250	-0.419304	0.255789
H321	H	0.350412	-0.329800	-0.262018
H322	H	0.850412	0.170200	0.237982
