data_functionalizedCrystal
_audit_creation_method	'MofGen! by Chris Wilmer'
_symmetry_space_group_name_H-M	'P1'
_symmetry_Int_Tables_number	1
_symmetry_cell_setting	triclinic
loop_
_symmetry_equiv_pos_as_xyz
  x,y,z
_cell_length_a	19.805407
_cell_length_b	16.959453
_cell_length_c	19.805399
_cell_angle_alpha	90.027222
_cell_angle_beta	90.017803
_cell_angle_gamma	90.020042
loop_
_atom_site_label
_atom_site_type_symbol
_atom_site_fract_x
_atom_site_fract_y
_atom_site_fract_z
Zn1	Zn	1.034753	-0.314756	0.382689
Zn2	Zn	1.034675	-0.446939	0.269502
Zn3	Zn	0.921568	-0.314772	0.269517
Zn4	Zn	0.921538	-0.446891	0.382652
O5	O	0.978134	-0.380840	0.326090
O6	O	1.129459	-0.332304	0.367684
O7	O	1.019651	-0.429433	0.174787
O8	O	0.936627	-0.204159	0.284552
O9	O	1.129402	-0.429418	0.284525
O10	O	1.019784	-0.204148	0.367699
O11	O	0.936551	-0.332331	0.174799
O12	O	0.826847	-0.332284	0.284516
O13	O	0.936577	-0.429336	0.477374
O14	O	0.826826	-0.429351	0.367635
O15	O	1.019755	-0.332258	0.477401
O16	O	1.019622	-0.557543	0.284489
O17	O	0.936501	-0.557508	0.367620
C18	C	0.802278	-0.380815	0.326074
C19	C	0.727046	-0.380823	0.326083
C20	C	0.691732	-0.330346	0.369449
C21	C	0.621043	-0.330350	0.369452
C22	C	0.585670	-0.380836	0.326091
C23	C	0.620989	-0.431316	0.282720
C24	C	0.691676	-0.431307	0.282714
C25	C	0.335915	-0.431352	0.282740
C26	C	0.265223	-0.431358	0.282751
C27	C	0.265283	-0.330394	0.369478
C28	C	0.335970	-0.330385	0.369473
C29	C	0.371283	-0.380862	0.326099
C30	C	0.447931	-0.380856	0.326096
C31	C	0.509023	-0.380847	0.326097
C32	C	0.978069	-0.586206	0.326064
C33	C	0.978103	-0.674062	0.326075
C34	C	0.934859	-0.715411	0.282754
C35	C	1.021375	-0.715268	0.369411
C36	C	1.021407	-0.797814	0.369426
C37	C	0.978163	-0.839162	0.326105
C38	C	0.934888	-0.797964	0.282768
C39	C	1.064676	-0.839018	0.412766
C40	C	1.064709	-0.921568	0.412783
C41	C	1.021468	-0.962918	0.369458
C42	C	0.978192	-0.921715	0.326119
C43	C	0.934949	-0.963063	0.282798
C44	C	0.891676	-0.921862	0.239456
C45	C	0.891648	-0.839314	0.239443
C46	C	1.021496	-1.045467	0.369471
C47	C	0.934978	-1.045617	0.282813
C48	C	1.154676	-0.380865	0.326107
C49	C	1.229908	-0.380876	0.326114
C50	C	0.978171	-0.380790	0.502633
C51	C	0.978188	-0.380769	0.577865
C52	C	0.978217	-0.174671	0.326131
C53	C	0.978253	-0.086815	0.326149
C54	C	0.978135	-0.380832	0.150234
C55	C	0.978250	-0.380631	0.075003
C56	C	1.021500	-0.330217	0.613224
C57	C	1.021506	-0.330194	0.683913
C58	C	0.978204	-0.380727	0.719241
C59	C	0.934888	-0.431281	0.683876
C60	C	0.934878	-0.431299	0.613189
C61	C	0.934926	-0.431207	0.968950
C62	C	0.934941	-0.431186	1.039642
C63	C	1.021555	-0.330102	1.039674
C64	C	1.021545	-0.330121	0.968986
C65	C	0.978226	-0.380671	0.933628
C66	C	0.978218	-0.380694	0.856980
C67	C	0.978215	-0.380709	0.795888
H68	H	0.592294	-0.289247	0.404766
H69	H	0.899629	-0.681862	0.247463
H70	H	0.236523	-0.289291	0.404792
H71	H	0.856416	-0.805763	0.204156
O72	O	0.370179	-0.480501	0.240684
C73	C	0.352880	-0.559303	0.255347
H74	H	0.333475	-0.563378	0.309417
H75	H	0.399353	-0.598343	0.249447
H76	H	0.311824	-0.579910	0.219036
H77	H	1.056763	-0.289070	0.584466
H78	H	0.236424	-0.472472	0.247439
H79	H	0.592182	-0.472419	0.247411
H80	H	0.856463	-0.955539	0.204187
H81	H	0.364768	-0.289277	0.404784
H82	H	0.899676	-0.472338	1.068404
O83	O	1.063357	-0.674983	0.411428
C84	C	1.054037	-0.593289	0.402137
H85	H	1.031898	-0.582077	0.349879
H86	H	1.104721	-0.561864	0.406770
H87	H	1.017958	-0.569866	0.442247
O88	O	1.063646	-0.281067	0.718156
C89	C	1.101855	-0.236460	0.671818
H90	H	1.104176	-0.268852	0.621424
H91	H	1.155190	-0.228036	0.692252
H92	H	1.077097	-0.176424	0.664307
H93	H	0.720427	-0.472411	0.247400
O94	O	0.892818	-0.480374	0.934713
C95	C	0.854587	-0.524951	0.981055
H96	H	0.882327	-0.527695	1.031441
H97	H	0.847317	-0.587227	0.960612
H98	H	0.803204	-0.495977	0.988584
H99	H	0.899765	-1.079277	0.247533
O100	O	0.892760	-0.480395	0.718087
C101	C	0.854542	-0.525031	0.671717
H102	H	0.852202	-0.492666	0.621336
H103	H	0.801213	-0.533452	0.692131
H104	H	0.879303	-0.585067	0.664188
H105	H	1.099880	-0.805349	0.448041
H106	H	0.899602	-0.472455	0.584400
H107	H	1.099946	-0.955108	0.448074
O108	O	1.063484	-1.085407	0.411666
C109	C	1.048615	-1.065211	0.479106
H110	H	1.022579	-1.005293	0.480468
H111	H	1.097435	-1.062328	0.509515
H112	H	1.013807	-1.111680	0.501867
H113	H	1.056808	-0.288974	0.940226
H114	H	1.056825	-0.288939	1.068471
H115	H	0.720528	-0.289236	0.404761
