data_functionalizedCrystal
_audit_creation_method	'MofGen! by Chris Wilmer'
_symmetry_space_group_name_H-M	'P1'
_symmetry_Int_Tables_number	1
_symmetry_cell_setting	triclinic
loop_
_symmetry_equiv_pos_as_xyz
  x,y,z
_cell_length_a	14.044209
_cell_length_b	13.101039
_cell_length_c	14.044220
_cell_angle_alpha	93.667477
_cell_angle_beta	93.188415
_cell_angle_gamma	86.340786
loop_
_atom_site_label
_atom_site_type_symbol
_atom_site_fract_x
_atom_site_fract_y
_atom_site_fract_z
O1	O	-1.281968	0.085094	-0.225339
O2	O	-0.781968	0.585094	0.274661
O3	O	-1.005298	0.085123	-0.217034
O4	O	-0.505298	0.585123	0.282966
O5	O	-1.139480	0.085099	-0.082851
O6	O	-0.639480	0.585099	0.417149
O7	O	-1.147787	0.085118	-0.359521
O8	O	-0.647787	0.585118	0.140479
O9	O	-1.129854	-0.085329	-0.092496
O10	O	-0.629854	0.414671	0.407504
O11	O	-0.995672	-0.085305	-0.226679
O12	O	-0.495672	0.414695	0.273321
O13	O	-1.272342	-0.085334	-0.234984
O14	O	-0.772342	0.414666	0.265016
Zn15	Zn	-1.132479	-0.112379	-0.232362
Zn16	Zn	-0.632479	0.387621	0.267638
Zn17	Zn	-1.145161	0.112168	-0.219655
Zn18	Zn	-0.645161	0.612168	0.280345
O19	O	-1.138161	-0.085310	-0.369166
O20	O	-0.638161	0.414690	0.130834
C21	C	-0.964864	-0.000087	-0.218221
C22	C	-0.464864	0.499913	0.281779
C23	C	-0.858721	-0.000077	-0.207376
C24	C	-0.358721	0.499923	0.292624
C25	C	-0.664383	-0.000096	-0.187553
C26	C	-0.164383	0.499904	0.312447
C27	C	-0.613253	-0.000094	-0.264467
C28	C	-0.113253	0.499906	0.235533
C29	C	-0.505116	-0.000105	-0.253437
C30	C	-0.005116	0.499895	0.246563
C31	C	-0.772529	-0.000085	-0.198581
C32	C	-0.272529	0.499915	0.301419
N33	N	-1.123830	-0.265626	-0.241035
N34	N	-0.623830	0.234374	0.258965
C35	C	-1.112064	-0.474666	-0.252843
C36	C	-0.612064	0.025334	0.247157
C37	C	-1.165580	-0.525551	-0.199170
C38	C	-0.665580	-0.025551	0.300830
C39	C	-1.159033	-0.641869	-0.205740
C40	C	-0.659033	-0.141869	0.294260
C41	C	-1.118610	-0.358338	-0.246274
C42	C	-0.618610	0.141662	0.253726
C43	C	-0.312777	-0.000118	-0.233798
C44	C	0.187223	0.499882	0.266202
C45	C	-0.418920	-0.000114	-0.244648
C46	C	0.081080	0.499886	0.255352
C47	C	-1.131031	-0.000115	-0.052052
C48	C	-0.631031	0.499885	0.447948
C49	C	-1.120187	-0.000115	0.054091
C50	C	-0.620187	0.499885	0.554091
N51	N	-1.153817	0.265415	-0.210975
N52	N	-0.653817	0.765415	0.289025
C53	C	-1.146609	-0.000093	-0.399965
C54	C	-0.646609	0.499907	0.100035
C55	C	-1.157454	-0.000087	-0.506108
C56	C	-0.657454	0.499913	-0.006108
C57	C	-1.100361	-0.000099	0.248429
C58	C	-0.600361	0.499901	0.748429
C59	C	-1.177275	-0.000103	0.299560
C60	C	-0.677275	0.499897	0.799560
C61	C	-1.166244	-0.000094	0.407696
C62	C	-0.666244	0.499906	0.907696
C63	C	-1.111391	-0.000108	0.140283
C64	C	-0.611391	0.499892	0.640283
H65	H	-0.626945	-0.000106	-0.113426
H66	H	-0.126945	0.499894	0.386574
N67	N	-1.007358	-0.000089	0.295369
N68	N	-0.507358	0.499911	0.795369
N69	N	-0.954924	0.071747	0.285685
N70	N	-0.454924	0.571747	0.785685
H71	H	-0.889239	0.071749	0.318843
H72	H	-0.389239	0.571749	0.818843
H73	H	-0.650693	-0.000085	-0.338600
H74	H	-0.150693	0.499915	0.161400
H75	H	-1.216314	-0.481758	-0.148286
H76	H	-0.716314	0.018242	0.351714
H77	H	-1.251412	-0.000042	0.262125
H78	H	-0.751412	0.499958	0.762125
H79	H	-1.061335	-0.518454	-0.303725
H80	H	-0.561335	-0.018454	0.196275
