data_functionalizedCrystal
_audit_creation_method	'MofGen! by Chris Wilmer'
_symmetry_space_group_name_H-M	'P1'
_symmetry_Int_Tables_number	1
_symmetry_cell_setting	triclinic
loop_
_symmetry_equiv_pos_as_xyz
  x,y,z
_cell_length_a	12.759395
_cell_length_b	19.121111
_cell_length_c	12.759387
_cell_angle_alpha	92.405643
_cell_angle_beta	90.019431
_cell_angle_gamma	87.529972
loop_
_atom_site_label
_atom_site_type_symbol
_atom_site_fract_x
_atom_site_fract_y
_atom_site_fract_z
Zn1	Zn	1.588324	0.279579	0.611780
Zn2	Zn	1.580676	0.397046	0.443581
Zn3	Zn	1.412620	0.279613	0.436122
Zn4	Zn	1.405079	0.396993	0.619220
O5	O	1.496675	0.338308	0.527676
O6	O	1.734330	0.295169	0.589476
O7	O	1.558338	0.381505	0.295573
O8	O	1.442285	0.181325	0.453188
O9	O	1.728711	0.381472	0.465901
O10	O	1.571374	0.181299	0.582243
O11	O	1.434868	0.295228	0.290093
O12	O	1.264599	0.295176	0.460403
O13	O	1.429432	0.381381	0.765252
O14	O	1.259059	0.381414	0.594924
O15	O	1.564061	0.295117	0.759785
O16	O	1.551025	0.495323	0.473115
O17	O	1.422015	0.495284	0.602156
C18	C	1.223708	0.338294	0.527662
C19	C	1.106931	0.338305	0.527682
C20	C	1.112754	0.248583	0.656587
C21	C	1.060804	0.203730	0.721048
C22	C	0.951082	0.203743	0.721062
C23	C	0.893306	0.248611	0.656605
C24	C	0.945256	0.293464	0.592144
C25	C	1.054981	0.293448	0.592139
C26	C	0.939433	0.383181	0.463235
C27	C	1.049156	0.383173	0.463225
C28	C	0.881658	0.428049	0.398778
C29	C	0.933608	0.472906	0.334321
C30	C	1.043337	0.472892	0.334310
C31	C	1.101105	0.428025	0.398764
C32	C	1.484900	0.520788	0.539275
C33	C	1.479959	0.598853	0.544273
C34	C	1.544859	0.635526	0.479492
C35	C	1.540218	0.708877	0.484198
C36	C	1.470672	0.745554	0.553681
C37	C	1.405769	0.708876	0.618470
C38	C	1.410416	0.635526	0.613768
C39	C	1.453283	0.967022	0.571241
C40	C	1.448639	1.040377	0.575936
C41	C	1.583089	1.040373	0.441665
C42	C	1.587726	0.967022	0.436965
C43	C	1.522827	0.930350	0.501757
C44	C	1.465924	0.820530	0.558491
C45	C	1.527581	0.855375	0.496952
C46	C	1.770707	0.338322	0.527690
C47	C	1.887484	0.338328	0.527696
C48	C	1.496759	0.338239	0.801705
C49	C	1.496794	0.338210	0.918480
C50	C	1.508515	1.155115	0.516067
C51	C	1.513538	1.077050	0.511154
C52	C	1.496655	0.338326	0.254709
C53	C	1.496836	0.338157	0.137922
C54	C	1.636993	0.248389	0.912808
C55	C	1.707108	0.203468	0.964832
C56	C	1.707135	0.203443	1.074552
C57	C	1.637038	0.248341	1.132251
C58	C	1.566923	0.293262	1.080226
C59	C	1.566906	0.293284	0.970504
C60	C	1.426721	0.383078	1.085898
C61	C	1.426697	0.383108	0.976178
C62	C	1.356624	0.427976	1.143597
C63	C	1.286513	0.472902	1.091573
C64	C	1.286489	0.472926	0.981846
C65	C	1.356583	0.428029	0.924154
H66	H	0.908785	0.167216	0.773546
H67	H	1.356574	0.428047	0.834814
O68	O	1.637052	0.248305	1.250591
H69	H	1.654849	0.301274	1.282893
O70	O	1.373633	1.079941	0.650889
H71	H	1.329293	1.042119	0.695162
H72	H	1.644356	0.937161	0.380386
O73	O	0.774963	0.248618	0.656613
H74	H	0.746925	0.234354	0.576502
H75	H	1.593065	0.738732	0.431445
H76	H	1.635927	1.070238	0.388916
O77	O	1.210857	0.521376	0.925742
H78	H	1.222606	0.513850	0.839752
H79	H	1.400438	0.937170	0.623995
H80	H	1.349148	0.738744	0.675049
O81	O	0.871294	0.521289	0.264798
H82	H	0.888811	0.576427	0.286169
O83	O	0.763315	0.428062	0.398781
H84	H	0.733496	0.442335	0.478893
O85	O	1.356646	0.427952	1.261938
H86	H	1.417182	0.389179	1.288423
H87	H	1.357570	0.605668	0.666521
O88	O	1.602603	0.815817	0.422027
H89	H	1.557725	0.782451	0.366395
H90	H	1.409297	0.850401	0.615063
H91	H	1.085628	0.509414	0.281814
H92	H	1.107857	0.167198	0.773526
H93	H	1.190448	0.428006	0.398756
O94	O	1.636965	0.248421	0.794467
H95	H	1.697480	0.209653	0.763086
O96	O	1.619874	0.595967	0.404553
H97	H	1.664231	0.633794	0.360307
O98	O	1.782720	0.155049	0.902605
H99	H	1.770936	0.162617	0.817569
H100	H	1.202096	0.248565	0.656577
O101	O	1.782758	0.154997	1.130675
H102	H	1.831501	0.123784	1.072126
O103	O	1.210908	0.521320	1.153799
H104	H	1.222704	0.513754	1.238833
