data_functionalizedCrystal
_audit_creation_method	'MofGen! by Chris Wilmer'
_symmetry_space_group_name_H-M	'P1'
_symmetry_Int_Tables_number	1
_symmetry_cell_setting	triclinic
loop_
_symmetry_equiv_pos_as_xyz
  x,y,z
_cell_length_a	17.641144
_cell_length_b	17.639664
_cell_length_c	17.637815
_cell_angle_alpha	109.602254
_cell_angle_beta	65.718816
_cell_angle_gamma	92.110848
loop_
_atom_site_label
_atom_site_type_symbol
_atom_site_fract_x
_atom_site_fract_y
_atom_site_fract_z
Zn1	Zn	-0.121479	-1.185950	0.232153
Zn2	Zn	-0.220168	-1.230306	0.111011
Zn3	Zn	-0.121531	-1.076030	0.122192
Zn4	Zn	-0.287100	-1.075936	0.287837
O5	O	-0.187569	-1.142055	0.188298
O6	O	-0.106538	-1.302441	0.188100
O7	O	-0.179095	-1.228443	-0.007527
O8	O	-0.010931	-1.072087	0.118154
O9	O	-0.179044	-1.335028	0.099097
O10	O	-0.010893	-1.152845	0.198941
O11	O	-0.106626	-1.115097	0.000687
O12	O	-0.171526	-0.965411	0.172148
O13	O	-0.293119	-1.071928	0.400471
O14	O	-0.293169	-0.965342	0.293847
O15	O	-0.171438	-1.152755	0.359561
O16	O	-0.339640	-1.228352	0.153092
O17	O	-0.388814	-1.114937	0.283005
C18	C	-0.239617	-0.936698	0.240254
C19	C	-0.261907	-0.848845	0.262504
C20	C	-0.356703	-0.725031	0.357145
C21	C	-0.335751	-0.807582	0.336229
C22	C	-0.208983	-0.807564	0.209668
C23	C	-0.229922	-0.725010	0.230575
C24	C	-0.303784	-0.683750	0.304314
C25	C	-0.177003	-0.683730	0.177744
C26	C	-0.197943	-0.601184	0.198647
C27	C	-0.271803	-0.559919	0.272381
C28	C	-0.324724	-0.601205	0.325217
C29	C	-0.103145	-0.724993	0.104002
C30	C	-0.050226	-0.683712	0.051171
C31	C	-0.071163	-0.601164	0.072078
C32	C	-0.145022	-0.559898	0.145812
C33	C	-0.018241	-0.559878	0.019242
C34	C	-0.039182	-0.477332	0.040145
C35	C	-0.165962	-0.477353	0.166715
C36	C	-0.392902	-1.176466	0.222891
C37	C	-0.480732	-1.191255	0.237700
C38	C	-0.769870	-1.029975	0.075827
C39	C	-0.852397	-1.043884	0.089741
C40	C	-0.852271	-1.127855	0.173949
C41	C	-0.769744	-1.113949	0.160045
C42	C	-0.728549	-1.065010	0.110983
C43	C	-0.728423	-1.148984	0.195201
C44	C	-0.645901	-1.135083	0.181295
C45	C	-0.604700	-1.086147	0.132232
C46	C	-0.646027	-1.051109	0.097076
C47	C	-0.769617	-1.197928	0.244258
C48	C	-0.728296	-1.232962	0.279414
C49	C	-0.645775	-1.219057	0.265513
C50	C	-0.604574	-1.170122	0.216451
C51	C	-0.604448	-1.254096	0.300669
C52	C	-0.521926	-1.240195	0.286763
C53	C	-0.522052	-1.156221	0.202544
C54	C	0.018566	-1.107529	0.153583
C55	C	0.106408	-1.092816	0.138790
C56	C	-0.239739	-1.107383	0.412006
C57	C	-0.261970	-1.092608	0.507338
C58	C	-0.135317	-0.348216	0.136133
C59	C	-0.113043	-0.436072	0.113884
C60	C	-0.135534	-1.176629	-0.034561
C61	C	-0.113041	-1.191520	-0.129968
C62	C	-0.018345	-1.254425	0.714373
C63	C	-0.039255	-1.240536	0.803957
C64	C	-0.165950	-1.156378	0.846543
C65	C	-0.145053	-1.170264	0.756961
C66	C	-0.071249	-1.219287	0.690883
C67	C	-0.197957	-1.135125	0.733471
C68	C	-0.177059	-1.149007	0.643897
C69	C	-0.103256	-1.198026	0.577814
C70	C	-0.050350	-1.233169	0.601309
C71	C	-0.271758	-1.086097	0.799551
C72	C	-0.324661	-1.050959	0.776061
C73	C	-0.303767	-1.064845	0.686485
C74	C	-0.229965	-1.113864	0.620402
C75	C	-0.356673	-1.029702	0.662990
C76	C	-0.335775	-1.043584	0.573416
C77	C	-0.209066	-1.127746	0.530828
H78	H	0.009911	-0.717318	-0.008869
O79	O	0.017815	-1.278411	0.829310
H80	H	-0.016875	-1.318217	0.865915
H81	H	-0.537504	-1.074834	0.120907
O82	O	-0.392829	-1.005683	0.548071
H83	H	-0.455428	-1.026969	0.572260
O84	O	-0.245549	-1.103500	0.917813
H85	H	-0.251196	-1.099751	0.984047
O86	O	-0.392814	-0.852116	0.393218
H87	H	-0.455387	-0.848971	0.392868
O88	O	0.029252	-1.286052	0.530035
H89	H	0.013586	-1.338516	0.485012
H90	H	-0.384864	-0.567606	0.385270
O91	O	-0.896967	-1.006107	0.051811
H92	H	-0.953743	-0.966264	0.106677
H93	H	-0.885822	-1.167704	0.213892
H94	H	-0.488513	-1.116362	0.162601
O95	O	-0.858615	-1.212969	0.259263
H96	H	-0.899611	-1.154361	0.295326
O97	O	-0.601587	-0.998325	0.044157
H98	H	-0.636624	-0.936686	0.077183
O99	O	-0.477349	-1.277981	0.324676
H100	H	-0.512317	-1.256604	0.398090
O101	O	-0.436265	-0.976817	0.734265
H102	H	-0.477034	-1.012598	0.772897
O103	O	-0.725427	-0.977190	0.022910
H104	H	-0.768021	-0.955163	0.000795
H105	H	-0.226102	-0.443754	0.226768
H106	H	0.041892	-0.593486	-0.040801
O107	O	-0.772738	-1.285734	0.332341
H108	H	-0.791173	-1.338249	0.290148
O109	O	-0.294416	-0.470889	0.294944
H110	H	-0.244439	-0.436415	0.307876
H111	H	-0.416843	-0.691432	0.417197
O112	O	-0.129324	-0.852069	0.130133
H113	H	-0.074796	-0.823532	0.138520
O114	O	-0.648883	-1.306875	0.353589
H115	H	-0.713209	-1.310652	0.357357
H116	H	-0.384752	-1.011042	0.829873
H117	H	-0.086243	-1.209328	0.504878
O118	O	-0.080559	-0.814027	0.081448
H119	H	-0.019515	-0.823104	0.083325
H120	H	-0.288765	-1.074788	0.872487
O121	O	0.017894	-0.432797	-0.016827
H122	H	0.072777	-0.475353	-0.071608
O123	O	-0.129468	-1.180628	0.459543
H124	H	-0.074884	-1.154020	0.469715
H125	H	0.041752	-1.294350	0.660567
