data_functionalizedCrystal
_audit_creation_method	'MofGen! by Chris Wilmer'
_symmetry_space_group_name_H-M	'P1'
_symmetry_Int_Tables_number	1
_symmetry_cell_setting	triclinic
loop_
_symmetry_equiv_pos_as_xyz
  x,y,z
_cell_length_a	12.759394
_cell_length_b	10.686154
_cell_length_c	10.686551
_cell_angle_alpha	90.306020
_cell_angle_beta	94.406554
_cell_angle_gamma	85.606228
loop_
_atom_site_label
_atom_site_type_symbol
_atom_site_fract_x
_atom_site_fract_y
_atom_site_fract_z
Zn1	Zn	-0.256214	-1.972293	0.562445
Zn2	Zn	-0.446374	-1.956064	0.352683
Zn3	Zn	-0.283082	-1.746411	0.368755
Zn4	Zn	-0.444237	-1.762493	0.578454
O5	O	-0.357477	-1.859315	0.465584
O6	O	-0.271089	-2.145682	0.521194
O7	O	-0.436851	-1.914730	0.179269
O8	O	-0.132491	-1.776436	0.394475
O9	O	-0.410799	-2.133759	0.367082
O10	O	-0.112752	-1.942390	0.536779
O11	O	-0.316881	-1.760699	0.191077
O12	O	-0.314809	-1.573002	0.409998
O13	O	-0.407158	-1.803846	0.751877
O14	O	-0.433210	-1.584818	0.564063
O15	O	-0.269018	-1.957985	0.740115
O16	O	-0.593117	-1.930325	0.382605
O17	O	-0.591548	-1.788110	0.548479
C18	C	-0.376694	-1.533394	0.490513
C19	C	-0.384938	-1.393965	0.501207
C20	C	-0.630451	-1.859238	0.465560
C21	C	-0.747221	-1.859322	0.465583
C22	C	-0.748786	-2.007541	0.292970
C23	C	-0.804427	-2.081684	0.206675
C24	C	-0.914142	-2.081760	0.206704
C25	C	-0.968218	-2.007688	0.293038
C26	C	-0.912578	-1.933545	0.379332
C27	C	-0.802861	-1.933474	0.379292
C28	C	-0.911011	-1.785335	0.551949
C29	C	-0.801297	-1.785250	0.551917
C30	C	-0.965087	-1.711263	0.638284
C31	C	-0.909447	-1.637111	0.724574
C32	C	-0.799726	-1.637037	0.724541
C33	C	-0.745656	-1.711107	0.638211
C34	C	-0.083433	-1.859429	0.465634
C35	C	0.033348	-1.859478	0.465655
C36	C	-0.334852	-1.884520	0.792786
C37	C	-0.325211	-1.895261	0.932220
C38	C	-0.338176	-1.186509	0.440551
C39	C	-0.329926	-1.325938	0.429863
C40	C	-0.379933	-1.834281	0.139650
C41	C	-0.389264	-1.823783	0.000199
H42	H	-0.276522	-1.374363	0.360600
Br43	Br	-0.221517	-2.010975	1.013006
H44	H	-0.656322	-1.711045	0.638168
H45	H	-0.953484	-1.576814	0.794866
Br46	Br	-0.473973	-1.313253	0.616642
Br47	Br	-0.599837	-2.007861	0.293284
H48	H	-0.451481	-1.754374	0.951727
H49	H	-0.760388	-2.141995	0.136385
H50	H	-1.054422	-1.711336	0.638306
Br51	Br	-0.989658	-2.182393	0.089600
H52	H	-1.057553	-2.007768	0.293064
Br53	Br	-0.724221	-1.536420	0.841671
