data_functionalizedCrystal
_audit_creation_method	'MofGen! by Chris Wilmer'
_symmetry_space_group_name_H-M	'P1'
_symmetry_Int_Tables_number	1
_symmetry_cell_setting	triclinic
loop_
_symmetry_equiv_pos_as_xyz
  x,y,z
_cell_length_a	13.897449
_cell_length_b	13.032721
_cell_length_c	13.032268
_cell_angle_alpha	76.710373
_cell_angle_beta	97.163294
_cell_angle_gamma	82.794330
loop_
_atom_site_label
_atom_site_type_symbol
_atom_site_fract_x
_atom_site_fract_y
_atom_site_fract_z
Zn1	Zn	1.339434	0.499048	-0.654185
Zn2	Zn	1.339329	0.654133	-0.499133
Zn3	Zn	1.201593	0.476547	-0.476607
Zn4	Zn	1.154642	0.676611	-0.676677
O5	O	1.258750	0.576585	-0.576651
O6	O	1.474399	0.519630	-0.633632
O7	O	1.340663	0.611751	-0.347525
O8	O	1.239572	0.330901	-0.481323
O9	O	1.474321	0.633570	-0.519716
O10	O	1.340843	0.347432	-0.611789
O11	O	1.239470	0.481279	-0.330975
O12	O	1.060386	0.503076	-0.503132
O13	O	1.159550	0.671881	-0.822314
O14	O	1.025891	0.650062	-0.650123
O15	O	1.295316	0.541427	-0.805789
O16	O	1.295136	0.805745	-0.541525
O17	O	1.159448	0.822260	-0.671966
C18	C	1.222209	0.852544	-0.611654
C19	C	1.206660	0.970605	-0.626664
C20	C	1.008140	0.576567	-0.576625
C21	C	0.900922	0.576589	-0.576642
C22	C	1.222207	0.611671	-0.853665
C23	C	1.206635	0.626623	-0.971711
C24	C	0.704623	0.576596	-0.576670
C25	C	0.813858	0.576588	-0.576651
C26	C	1.510337	0.576603	-0.576677
C27	C	1.617549	0.576611	-0.576689
C28	C	1.295456	0.299551	-0.541534
C29	C	1.311098	0.181495	-0.526569
C30	C	1.266909	1.015041	-0.568865
C31	C	1.250841	1.137063	-0.584377
C32	C	1.266867	0.568743	-1.016164
C33	C	1.250774	0.584195	-1.138171
C34	C	1.295215	0.541558	-0.300705
C35	C	1.311014	0.526307	-0.182621
H36	H	1.330391	0.962750	-0.507900
H37	H	1.143186	1.022899	-0.687636
C38	C	1.165004	0.666597	-1.208774
N39	N	1.100404	0.728660	-1.261954
C40	C	1.352626	0.486339	-0.945557
N41	N	1.417223	0.424270	-0.892377
C42	C	1.165077	1.207701	-0.666747
N43	N	1.100479	1.260907	-0.728786
C44	C	1.396862	1.110859	-0.444196
N45	N	1.461456	1.057656	-0.382153
H46	H	1.374495	0.465303	-1.130357
C47	C	1.120870	0.709021	-1.042318
N48	N	1.056270	0.771084	-1.095497
