data_functionalizedCrystal
_audit_creation_method	'MofGen! by Chris Wilmer'
_symmetry_space_group_name_H-M	'P1'
_symmetry_Int_Tables_number	1
_symmetry_cell_setting	triclinic
loop_
_symmetry_equiv_pos_as_xyz
  x,y,z
_cell_length_a	12.645331
_cell_length_b	18.050589
_cell_length_c	12.645331
_cell_angle_alpha	90.011256
_cell_angle_beta	90.009996
_cell_angle_gamma	90.027200
loop_
_atom_site_label
_atom_site_type_symbol
_atom_site_fract_x
_atom_site_fract_y
_atom_site_fract_z
Zn1	Zn	1.620521	-0.295778	0.599442
Zn2	Zn	1.620409	-0.419946	0.422180
Zn3	Zn	1.443275	-0.295772	0.422186
Zn4	Zn	1.443185	-0.419928	0.599395
O5	O	1.531847	-0.357856	0.510801
O6	O	1.768853	-0.312259	0.575944
O7	O	1.596903	-0.403479	0.273834
O8	O	1.466871	-0.191848	0.445721
O9	O	1.768771	-0.403485	0.445711
O10	O	1.597093	-0.191852	0.575950
O11	O	1.466763	-0.312249	0.273838
O12	O	1.294916	-0.312232	0.445676
O13	O	1.466718	-0.403454	0.747749
O14	O	1.294849	-0.403449	0.575871
O15	O	1.597006	-0.312242	0.747783
O16	O	1.596816	-0.523868	0.445666
O17	O	1.466610	-0.523855	0.575865
C18	C	1.256418	-0.357838	0.510770
C19	C	1.138588	-0.357849	0.510782
C20	C	0.971030	-0.300200	0.429328
C21	C	1.093590	-0.300349	0.428969
C22	C	1.094054	-0.436077	0.480266
C23	C	0.971455	-0.435762	0.479710
C24	C	0.971419	-0.338014	0.623066
C25	C	1.094025	-0.336266	0.622443
C26	C	1.531719	-0.550808	0.510783
C27	C	1.531762	-0.633354	0.510811
C28	C	1.461025	-0.832825	0.581589
C29	C	1.435200	-0.882250	0.484854
C30	C	1.531866	-0.784484	0.510825
C31	C	1.557743	-0.882141	0.607571
C32	C	1.531964	-0.930469	0.510847
C33	C	1.505990	-0.832823	0.414039
C34	C	1.628578	-0.832709	0.536821
C35	C	1.602789	-0.882112	0.440019
C36	C	1.531806	-0.700386	0.510814
C37	C	1.532024	-1.014566	0.510847
C38	C	1.808353	-0.357874	0.510832
C39	C	1.926183	-0.357882	0.510845
C40	C	1.531864	-0.357847	0.787306
C41	C	1.531872	-0.357843	0.905136
C42	C	1.532005	-0.164150	0.510842
C43	C	1.532072	-0.081605	0.510859
C44	C	1.614117	-0.300670	1.072721
C45	C	1.613881	-0.300432	0.950162
C46	C	1.420185	-0.336585	0.949614
C47	C	1.420657	-0.336183	1.072213
C48	C	1.560320	-0.436454	1.072333
C49	C	1.562792	-0.436027	0.949727
C50	C	1.531835	-0.357877	1.235371
C51	C	1.531863	-0.357865	1.117541
H52	H	0.941787	-0.480193	0.536495
H53	H	1.123199	-0.480202	0.537776
N54	N	0.930567	-0.263750	0.659799
H55	H	0.960592	-0.252087	0.731927
H56	H	0.850839	-0.265326	0.663970
H57	H	1.710299	-0.810934	0.558835
H58	H	1.401030	-0.811182	0.641347
H59	H	1.124722	-0.453218	0.399108
N60	N	1.132404	-0.317736	0.318816
H61	H	1.069873	-0.325339	0.270305
H62	H	1.176599	-0.364310	0.320564
N63	N	1.326923	-0.911068	0.455716
H64	H	1.273421	-0.893143	0.509200
H65	H	1.328027	-0.967013	0.455245
H66	H	0.940197	-0.313185	0.346657
H67	H	1.484048	-0.811249	0.332209
H68	H	1.696699	-0.313744	0.920091
N69	N	0.932005	-0.223128	0.454372
H70	H	0.955948	-0.208578	0.527696
H71	H	0.852217	-0.222245	0.451011
N72	N	1.132597	-0.260014	0.652922
H73	H	1.174902	-0.263256	0.720516
H74	H	1.069947	-0.226206	0.663958
N75	N	1.671661	-0.457269	0.911224
H76	H	1.700839	-0.416423	0.865087
H77	H	1.667004	-0.504647	0.868977
N78	N	1.682206	-0.910602	0.360683
H79	H	1.662562	-0.892564	0.287677
H80	H	1.682217	-0.966549	0.361647
N81	N	1.586686	-0.910844	0.715927
H82	H	1.533085	-0.892916	0.769309
H83	H	1.659198	-0.892044	0.736013
N84	N	1.134591	-0.387858	0.707205
H85	H	1.182643	-0.426125	0.674277
H86	H	1.072907	-0.413455	0.742416
N87	N	1.724169	-0.318079	1.111796
H88	H	1.771967	-0.328178	1.049461
H89	H	1.721694	-0.363199	1.158951
N90	N	0.933009	-0.393662	0.703525
H91	H	0.886533	-0.431561	0.667519
H92	H	0.891136	-0.367288	0.760154
H93	H	1.595519	-0.242774	1.103546
H94	H	1.595054	-0.242198	0.920849
H95	H	0.942823	-0.452613	0.397671
H96	H	1.640324	-0.455824	1.103318
H97	H	1.357288	-0.376028	1.101859
H98	H	1.507249	-0.480917	0.919074
N99	N	1.480965	-0.492901	1.110722
H100	H	1.482190	-0.494767	1.190539
H101	H	1.499691	-0.543249	1.081354
N102	N	1.388700	-0.260089	1.110121
H103	H	1.374441	-0.227122	1.047192
H104	H	1.447676	-0.238162	1.153987
N105	N	1.336807	-0.390044	0.910985
H106	H	1.370713	-0.428648	0.864167
H107	H	1.281490	-0.362116	0.869420
N108	N	1.387664	-0.261313	0.908974
H109	H	1.315700	-0.248128	0.938034
H110	H	1.384600	-0.262420	0.829179
N111	N	1.133487	-0.223510	0.454295
H112	H	1.071433	-0.189236	0.465793
H113	H	1.177725	-0.204667	0.393484
