data_functionalizedCrystal
_audit_creation_method	'MofGen! by Chris Wilmer'
_symmetry_space_group_name_H-M	'P1'
_symmetry_Int_Tables_number	1
_symmetry_cell_setting	triclinic
loop_
_symmetry_equiv_pos_as_xyz
  x,y,z
_cell_length_a	14.519709
_cell_length_b	17.699083
_cell_length_c	13.596369
_cell_angle_alpha	89.998715
_cell_angle_beta	89.999684
_cell_angle_gamma	83.481580
loop_
_atom_site_label
_atom_site_type_symbol
_atom_site_fract_x
_atom_site_fract_y
_atom_site_fract_z
O1	O	-1.223448	-0.099209	0.081665
O2	O	-0.723448	0.400791	0.581665
O3	O	-0.954922	-0.110892	0.081696
O4	O	-0.454922	0.389108	0.581696
O5	O	-1.096772	0.005117	0.081671
O6	O	-0.596772	0.505117	0.581671
O7	O	-1.081599	-0.215218	0.081690
O8	O	-0.581599	0.284782	0.581690
O9	O	-1.096754	0.005111	-0.081912
O10	O	-0.596754	0.505111	0.418088
O11	O	-0.954904	-0.110899	-0.081887
O12	O	-0.454904	0.389101	0.418113
O13	O	-1.223431	-0.099215	-0.081918
O14	O	-0.723431	0.400785	0.418082
Zn15	Zn	-1.089165	-0.105058	-0.107875
Zn16	Zn	-0.589165	0.394942	0.392125
Zn17	Zn	-1.089188	-0.105049	0.107653
Zn18	Zn	-0.589188	0.394951	0.607653
O19	O	-1.081581	-0.215224	-0.081893
O20	O	-0.581581	0.284776	0.418107
C21	C	-0.920556	-0.110351	-0.000092
C22	C	-0.420556	0.389649	0.499908
C23	C	-0.818181	-0.108719	-0.000081
C24	C	-0.318181	0.391281	0.499919
C25	C	-1.257797	-0.099756	-0.000128
C26	C	-0.757797	0.400244	0.499872
C27	C	-1.360171	-0.101388	-0.000133
C28	C	-0.860171	0.398612	0.499867
C29	C	-1.096219	0.033312	-0.000121
C30	C	-0.596219	0.533312	0.499879
C31	C	-1.094588	0.117335	-0.000121
C32	C	-0.594588	0.617335	0.499879
C33	C	-0.443311	-0.102712	-0.000126
C34	C	0.056689	0.397288	0.499874
C35	C	-0.547612	-0.104380	-0.000113
C36	C	-0.047612	0.395620	0.499887
C37	C	-0.630743	-0.105716	-0.000102
C38	C	-0.130743	0.394284	0.499898
C39	C	-0.735050	-0.107384	-0.000091
C40	C	-0.235050	0.392616	0.499909
C41	C	-1.082134	-0.243420	-0.000099
C42	C	-0.582134	0.256580	0.499901
C43	C	-1.083765	-0.327442	-0.000093
C44	C	-0.583765	0.172558	0.499907
N45	N	-1.089156	-0.105063	-0.254967
N46	N	-0.589156	0.394937	0.245033
C47	C	-1.177851	0.165718	-0.000132
C48	C	-0.677851	0.665718	0.499868
C49	C	-1.176313	0.244665	-0.000123
C50	C	-0.676313	0.744665	0.499877
C51	C	-1.091511	0.275229	-0.000110
C52	C	-0.591511	0.775229	0.499890
C53	C	-1.008242	0.226840	-0.000096
C54	C	-0.508242	0.726840	0.499904
C55	C	-1.009781	0.147894	-0.000098
C56	C	-0.509781	0.647894	0.499902
C57	C	-1.002033	0.545221	-0.000088
C58	C	-0.502033	1.045221	0.499912
C59	C	-1.000501	0.624173	-0.000089
C60	C	-0.500501	1.124173	0.499911
C61	C	-1.168566	0.641992	-0.000112
C62	C	-0.668566	1.141992	0.499888
C63	C	-1.170105	0.563046	-0.000114
C64	C	-0.670105	1.063046	0.499886
C65	C	-1.086836	0.514664	-0.000095
C66	C	-0.586836	1.014664	0.499905
C67	C	-1.088505	0.429060	-0.000103
C68	C	-0.588505	0.929060	0.499897
C69	C	-1.089841	0.360831	-0.000109
C70	C	-0.589841	0.860831	0.499891
C71	C	-1.089161	-0.105065	-0.343964
C72	C	-0.589161	0.394935	0.156036
C73	C	-1.089170	-0.105060	-0.455616
C74	C	-0.589170	0.394940	0.044384
C75	C	-1.089182	-0.105051	-0.544606
C76	C	-0.589182	0.394949	-0.044606
C77	C	-1.089192	-0.105047	-0.656265
C78	C	-0.589192	0.394953	-0.156265
N79	N	-1.089204	-0.105038	0.254745
N80	N	-0.589204	0.394962	0.754745
H81	H	-1.244114	0.284056	-0.000134
H82	H	-0.744114	0.784056	0.499866
H83	H	-0.939195	0.251731	-0.000080
H84	H	-0.439195	0.751731	0.499920
C85	C	-1.263388	0.529427	-0.000123
C86	C	-0.763388	1.029427	0.499877
C87	C	-1.354978	0.582647	-0.000125
C88	C	-0.854978	1.082647	0.499875
C89	C	-1.448263	0.549029	-0.000128
C90	C	-0.948263	1.049029	0.499872
C91	C	-1.449958	0.462192	-0.000127
C92	C	-0.949958	0.962192	0.499873
C93	C	-1.358364	0.408967	-0.000125
C94	C	-0.858364	0.908967	0.499875
C95	C	-1.265079	0.442584	-0.000122
C96	C	-0.765079	0.942584	0.499878
H97	H	-1.353727	0.646934	-0.000125
H98	H	-0.853727	1.146934	0.499875
H99	H	-1.516067	0.588430	-0.000129
H100	H	-1.016067	1.088430	0.499871
H101	H	-1.519013	0.437306	-0.000129
H102	H	-1.019013	0.937306	0.499871
H103	H	-1.359615	0.344680	-0.000124
H104	H	-0.859615	0.844680	0.499876
H105	H	-1.197275	0.403183	-0.000120
H106	H	-0.697275	0.903183	0.499880
H107	H	-1.236367	0.681395	-0.000123
H108	H	-0.736367	1.181395	0.499877
C109	C	-0.907213	0.657794	-0.000066
C110	C	-0.407213	1.157794	0.499934
C111	C	-0.838076	0.639589	-0.084993
C112	C	-0.338076	1.139589	0.415007
C113	C	-0.744794	0.673211	-0.084972
C114	C	-0.244794	1.173211	0.415028
C115	C	-0.720648	0.725038	-0.000024
C116	C	-0.220648	1.225038	0.499976
C117	C	-0.789786	0.743246	0.084908
C118	C	-0.289786	1.243246	0.584908
C119	C	-0.883068	0.709625	0.084887
C120	C	-0.383068	1.209625	0.584887
H121	H	-0.855949	0.601220	-0.147881
H122	H	-0.355949	1.101220	0.352119
H123	H	-0.693613	0.659731	-0.147845
H124	H	-0.193613	1.159731	0.352155
H125	H	-0.651595	0.749927	-0.000009
H126	H	-0.151595	1.249927	0.499991
H127	H	-0.771913	0.781615	0.147797
H128	H	-0.271913	1.281615	0.647797
H129	H	-0.934249	0.723104	0.147760
H130	H	-0.434249	1.223104	0.647760
H131	H	-0.934231	0.505837	-0.000073
H132	H	-0.434231	1.005837	0.499927
C133	C	-0.918191	0.094669	-0.000088
C134	C	-0.418191	0.594669	0.499912
C135	C	-0.848663	0.098172	0.084866
C136	C	-0.348663	0.598172	0.584866
C137	C	-0.757070	0.044947	0.084883
C138	C	-0.257070	0.544947	0.584883
C139	C	-0.735006	-0.011780	-0.000055
C140	C	-0.235006	0.488220	0.499945
C141	C	-0.804535	-0.015285	-0.085016
C142	C	-0.304535	0.484715	0.414984
C143	C	-0.896128	0.037940	-0.085032
C144	C	-0.396128	0.537940	0.414968
H145	H	-0.864995	0.140167	0.147748
H146	H	-0.364995	0.640167	0.647748
H147	H	-0.705600	0.047542	0.147776
H148	H	-0.205600	0.547542	0.647776
H149	H	-0.667203	-0.051180	-0.000043
H150	H	-0.167203	0.448820	0.499957
H151	H	-0.788203	-0.057280	-0.147898
H152	H	-0.288203	0.442720	0.352102
H153	H	-0.947598	0.035345	-0.147926
H154	H	-0.447598	0.535345	0.352074
H155	H	-1.246907	0.140840	-0.000148
H156	H	-0.746907	0.640840	0.499852
