data_functionalizedCrystal
_audit_creation_method	'MofGen! by Chris Wilmer'
_symmetry_space_group_name_H-M	'P1'
_symmetry_Int_Tables_number	1
_symmetry_cell_setting	triclinic
loop_
_symmetry_equiv_pos_as_xyz
  x,y,z
_cell_length_a	19.902436
_cell_length_b	17.052862
_cell_length_c	17.052977
_cell_angle_alpha	45.842756
_cell_angle_beta	77.687034
_cell_angle_gamma	70.261738
loop_
_atom_site_label
_atom_site_type_symbol
_atom_site_fract_x
_atom_site_fract_y
_atom_site_fract_z
Zr1	Zr	0.804858	0.878466	-0.240868
O2	O	0.747353	1.045928	-0.394888
O3	O	0.804206	0.711012	-0.175729
O4	O	0.861168	0.878459	-0.369024
O5	O	0.666253	0.878483	-0.069507
O6	O	0.971742	0.878444	-0.369011
O7	O	0.690391	0.878481	-0.201593
O8	O	0.869848	0.578912	-0.023241
O9	O	0.768148	1.178015	-0.415277
O10	O	0.908535	0.779873	-0.169593
O11	O	0.808000	0.779886	-0.071029
O12	O	0.875066	0.977033	-0.298609
O13	O	0.774532	0.977046	-0.200045
Zr14	Zr	0.942715	0.878444	-0.030186
Zr15	Zr	0.981212	0.878441	-0.240847
Zr16	Zr	0.766362	0.878469	-0.030207
Zr17	Zr	0.838024	1.089129	-0.273386
Zr18	Zr	0.909549	0.667781	0.002332
O19	O	0.943367	1.045897	-0.095325
O20	O	0.998105	1.045893	-0.394858
O21	O	0.692615	1.045932	-0.095355
O22	O	1.000220	0.710981	0.123834
O23	O	1.054958	0.710977	-0.175699
O24	O	0.749469	0.711017	0.123804
O25	O	1.081320	0.878426	-0.201546
O26	O	0.886405	0.878450	0.097970
O27	O	0.775831	0.878466	0.097957
O28	O	1.057182	0.878428	-0.069461
O29	O	0.908325	1.177995	-0.415260
O30	O	0.839248	0.578914	0.144206
O31	O	0.979425	0.578895	0.144223
O32	O	1.010025	0.578892	-0.023225
O33	O	0.737548	1.178017	-0.247829
O34	O	0.877725	1.177998	-0.247813
O35	O	0.872507	0.779876	0.027555
O36	O	0.973041	0.779863	-0.071009
O37	O	0.939573	0.977023	-0.200025
O38	O	0.839039	0.977036	-0.101461
C39	C	0.832301	0.614947	-0.094852
C40	C	0.818222	0.525515	-0.081047
C41	C	0.653195	0.878486	-0.135553
C42	C	0.578329	0.878496	-0.135562
C43	C	0.988445	0.273402	-0.247947
C44	C	1.001674	0.357433	-0.260924
C45	C	0.955812	0.399457	-0.215956
C46	C	0.896720	0.357444	-0.158008
C47	C	0.883487	0.273411	-0.145037
C48	C	0.850854	0.399466	-0.113046
C49	C	0.791761	0.357452	-0.055098
C50	C	0.778532	0.273427	-0.042129
C51	C	0.824393	0.231403	-0.087097
C52	C	0.864086	0.483498	-0.126017
C53	C	0.759128	0.483507	-0.023107
C54	C	0.745900	0.399477	-0.010130
C55	C	0.306311	0.878441	-0.135515
C56	C	0.313634	1.002813	-0.216603
C57	C	0.391547	1.002891	-0.216959
C58	C	0.441262	0.878469	-0.135539
C59	C	0.437413	0.816702	-0.171350
C60	C	0.359394	0.817497	-0.171930
C61	C	0.332004	0.814945	-0.018451
C62	C	0.409324	0.817282	-0.018976
C63	C	0.517532	0.878478	-0.135550
C64	C	0.230043	0.878427	-0.135507
C65	C	1.094378	0.878424	-0.135501
C66	C	1.169244	0.878413	-0.135492
C67	C	0.921940	0.878451	-0.399032
C68	C	0.938283	0.878450	-0.488463
C69	C	0.915272	1.141962	-0.176202
C70	C	0.929351	1.231394	-0.190007
C71	C	1.006881	0.878444	-0.530467
C72	C	1.022243	0.878436	-0.614487
C73	C	0.969006	0.878442	-0.656518
C74	C	0.900405	0.878456	-0.614519
C75	C	0.885043	0.878455	-0.530484
C76	C	0.847168	0.878453	-0.656535
C77	C	0.778567	0.878467	-0.614536
C78	C	0.763208	0.878467	-0.530510
C79	C	0.816445	0.878461	-0.488480
C80	C	0.862530	0.878454	-0.740570
C81	C	0.740692	0.878465	-0.740587
C82	C	0.725330	0.878474	-0.656567
C83	C	0.825633	0.878459	0.127978
C84	C	0.809290	0.878460	0.217409
C85	C	1.052893	0.614916	-0.094826
C86	C	1.113680	0.525474	-0.081012
C87	C	0.784148	0.614951	0.168653
C88	C	0.753725	0.525520	0.271889
C89	C	1.004739	0.614920	0.168679
C90	C	1.049183	0.525479	0.271924
C91	C	0.742834	1.141990	-0.439733
C92	C	0.698390	1.231431	-0.542978
C93	C	0.694681	1.141993	-0.176228
C94	C	0.633894	1.231436	-0.190042
C95	C	0.963425	1.141959	-0.439707
C96	C	0.993848	1.231389	-0.542943
C97	C	1.108556	0.483476	-0.125994
C98	C	1.165670	0.399447	-0.113036
C99	C	1.227906	0.357411	-0.055089
C100	C	1.233030	0.399417	-0.010108
C101	C	1.175918	0.483451	-0.023072
C102	C	0.773109	0.483517	0.371838
C103	C	0.744521	0.399499	0.468845
C104	C	0.696553	0.357480	0.465902
C105	C	0.677168	0.399491	0.365941
C106	C	0.705752	0.483514	0.268936
C107	C	1.122540	0.483469	0.268959
C108	C	1.164310	0.399441	0.365959
C109	C	1.132721	0.357419	0.465923
C110	C	1.059358	0.399436	0.468884
C111	C	1.017590	0.483468	0.371885
C112	C	0.625035	1.273450	-0.540015
C113	C	0.583269	1.357504	-0.637018
C114	C	0.614859	1.399532	-0.736983
C115	C	0.688221	1.357509	-0.739943
C116	C	0.729987	1.273462	-0.642942
C117	C	0.639021	1.273443	-0.145071
C118	C	0.581914	1.357495	-0.158055
C119	C	0.519679	1.399533	-0.216005
C120	C	0.514554	1.357523	-0.260982
C121	C	0.571662	1.273478	-0.248004
C122	C	1.041814	1.273382	-0.539964
C123	C	1.070412	1.357400	-0.636955
C124	C	1.051039	1.399431	-0.736925
C125	C	1.003070	1.357430	-0.739901
C126	C	0.974477	1.273407	-0.642910
H127	H	0.966586	0.467879	-0.226526
C128	C	0.930973	0.612300	-0.191600
C129	C	0.929040	0.529670	-0.189704
H130	H	0.971075	0.640805	-0.230924
H131	H	0.934718	0.579514	-0.118849
H132	H	0.888442	0.672629	-0.226330
H133	H	0.971570	0.469336	-0.154966
H134	H	0.925302	0.562455	-0.262468
H135	H	0.981517	0.878436	-0.724931
H136	H	0.463875	1.391764	-0.308165
C137	C	1.042804	1.383339	-0.898115
C138	C	0.981777	1.403649	-0.849799
H139	H	1.029656	1.411886	-0.965967
H140	H	1.064679	1.304007	-0.850961
H141	H	1.075461	1.420368	-0.910200
H142	H	0.949123	1.366612	-0.837706
H143	H	0.959892	1.482996	-0.896963
C144	C	0.971964	0.304924	0.597081
C145	C	1.024636	0.353244	0.578766
H146	H	0.950526	0.276412	0.664915
H147	H	0.993047	0.244606	0.599020
H148	H	0.936593	0.360993	0.539732
H149	H	1.060010	0.297172	0.636111
H150	H	1.003553	0.413569	0.576835
H151	H	0.580842	1.467967	-0.815960
C152	C	1.099887	0.878416	-0.743277
C153	C	1.097644	0.878423	-0.660652
H154	H	1.146441	0.878401	-0.771772
H155	H	1.066203	0.944254	-0.800130
H156	H	1.088549	0.812575	-0.713957
H157	H	1.108977	0.944268	-0.689975
H158	H	1.131339	0.812578	-0.603790
C159	C	0.620903	0.975534	-0.625580
C160	C	0.649927	0.878480	-0.610388
H161	H	0.574354	0.975532	-0.597064
H162	H	0.618246	1.041360	-0.701436
H163	H	0.650420	0.975519	-0.588526
H164	H	0.620413	0.878499	-0.647449
H165	H	0.652580	0.812637	-0.534518
H166	H	0.760315	0.365304	0.550227
C167	C	1.129310	0.314654	-0.273401
C168	C	1.066628	0.403603	-0.324609
H169	H	1.169412	0.343160	-0.312716
H170	H	1.127988	0.258608	-0.272115
H171	H	1.133043	0.281882	-0.200645
H172	H	1.062892	0.436370	-0.397362
H173	H	1.067950	0.459669	-0.325906
C174	C	0.810990	0.042393	0.038736
C175	C	0.809861	0.139023	-0.072826
H176	H	0.802026	-0.014642	0.047544
H177	H	0.775214	0.061410	0.073793
H178	H	0.856502	0.014867	0.070526
H179	H	0.764347	0.166554	-0.104615
H180	H	0.845639	0.120005	-0.107898
C181	C	0.415060	0.914632	-0.357315
C182	C	0.467905	0.874604	-0.285831
H183	H	0.433886	0.950375	-0.427989
H184	H	0.375513	0.967853	-0.361303
H185	H	0.399952	0.852806	-0.331138
H186	H	0.483009	0.936431	-0.312003
H187	H	0.507465	0.821379	-0.281846
H188	H	1.057595	1.239174	-0.458573
H189	H	0.276623	1.051630	-0.193878
H190	H	1.148273	0.517672	0.187573
C191	C	0.658777	0.975537	-0.499540
C192	C	0.687802	0.878481	-0.484344
H193	H	0.612225	0.975542	-0.471035
H194	H	0.656127	1.041362	-0.575396
H195	H	0.688289	0.975518	-0.462477
H196	H	0.658292	0.878504	-0.521414
H197	H	0.690447	0.812639	-0.408474
C198	C	1.167469	0.236327	-0.078937
C199	C	1.160025	0.353273	-0.162471
H200	H	1.163986	0.207823	-0.109458
H201	H	1.130763	0.222563	-0.028121
H202	H	1.212715	0.199282	-0.042592
H203	H	1.114777	0.390319	-0.198811
H204	H	1.196734	0.367046	-0.213306
H205	H	0.713935	1.391738	-0.821346
H206	H	0.789716	1.239250	-0.645366
H207	H	0.812164	0.517720	0.374255
C208	C	1.263843	0.407878	0.254461
C209	C	1.244947	0.353256	0.362687
H210	H	1.313622	0.379359	0.252444
H211	H	1.252700	0.487205	0.211579
H212	H	1.238027	0.394095	0.225971
H213	H	1.270758	0.367046	0.391176
H214	H	1.256096	0.273911	0.405585
C215	C	1.304702	0.168387	0.070727
C216	C	1.290678	0.265030	-0.040832
H217	H	1.343455	0.111356	0.079527
H218	H	1.263507	0.140868	0.102510
H219	H	1.316667	0.187393	0.105798
H220	H	1.278708	0.246025	-0.075902
H221	H	1.331882	0.292552	-0.072629
C222	C	0.654236	1.348980	-0.054978
C223	C	0.587554	1.403649	-0.108597
H224	H	0.657715	1.377467	-0.024439
H225	H	0.690947	1.362749	-0.105789
H226	H	0.659262	1.269647	0.001672
H227	H	0.582530	1.482981	-0.165252
H228	H	0.550833	1.389889	-0.057782
C229	C	0.451582	0.802096	0.114002
C230	C	0.410020	0.878068	0.017387
H231	H	0.452007	0.839625	0.136452
H232	H	0.499009	0.775474	0.101498
H233	H	0.431905	0.739674	0.169587
H234	H	0.429700	0.940487	-0.038201
H235	H	0.362583	0.904708	0.029886
H236	H	0.638109	0.365267	0.363561
H237	H	0.697342	0.878467	-0.774805
H238	H	0.473183	1.467968	-0.226565
H239	H	0.295036	0.854745	0.013285
H240	H	1.025778	0.239187	-0.284562
C241	C	0.987580	0.781385	-0.702901
C242	C	0.937932	0.878443	-0.786732
H243	H	1.034133	0.781384	-0.731401
H244	H	0.976243	0.715561	-0.673608
H245	H	0.986041	0.781397	-0.646848
H246	H	0.939467	0.878427	-0.842781
H247	H	0.949272	0.944283	-0.816041
H248	H	0.471983	0.725219	-0.114319
H249	H	1.050222	0.878430	-0.496235
C250	C	0.499325	1.281945	-0.351020
C251	C	0.566015	1.227296	-0.297426
H252	H	0.495835	1.253430	-0.381527
H253	H	0.494294	1.361268	-0.407680
H254	H	0.462618	1.268181	-0.300191
H255	H	0.602722	1.241067	-0.348257
H256	H	0.571053	1.147955	-0.240760
C257	C	1.284678	0.304857	0.160847
C258	C	1.301439	0.353188	0.053602
H259	H	1.326911	0.276315	0.200182
H260	H	1.264358	0.244559	0.195538
H261	H	1.251406	0.360928	0.159552
H262	H	1.334707	0.297114	0.054898
H263	H	1.321770	0.413492	0.018903
C264	C	1.249695	0.237043	0.548817
C265	C	1.178638	0.265039	0.572542
H266	H	1.278042	0.180005	0.614639
H267	H	1.266948	0.302606	0.500691
H268	H	1.252285	0.209513	0.515046
H269	H	1.176047	0.292578	0.606306
H270	H	1.161380	0.199464	0.620686
H271	H	0.957858	0.517662	0.374314
H272	H	1.109467	1.391589	-0.634511
C273	C	1.156975	1.451156	-0.837227
C274	C	1.082471	1.491796	-0.843534
H275	H	1.176378	1.508183	-0.903039
H276	H	1.169707	1.385610	-0.827120
H277	H	1.175367	1.432130	-0.777253
H278	H	1.064077	1.510813	-0.903504
H279	H	1.069732	1.557361	-0.853654
H280	H	0.599300	1.239237	-0.458627
C281	C	1.028598	0.646621	-0.279512
C282	C	1.040151	0.529675	-0.189697
H283	H	0.986368	0.675140	-0.318840
H284	H	1.068114	0.660382	-0.326037
H285	H	1.023467	0.683655	-0.254567
H286	H	1.045288	0.492640	-0.214643
H287	H	1.000626	0.515905	-0.143165
C288	C	0.692295	0.237122	0.660886
C289	C	0.665143	0.265113	0.572540
H290	H	0.672909	0.180092	0.726722
H291	H	0.679551	0.302689	0.650745
H292	H	0.742841	0.209583	0.665115
H293	H	0.614597	0.292660	0.568307
H294	H	0.677882	0.199533	0.582684
H295	H	1.180097	0.517635	0.013565
C296	C	0.483728	1.349014	-0.525513
C297	C	0.502630	1.403673	-0.633744
H298	H	0.433945	1.377511	-0.523492
H299	H	0.509528	1.362781	-0.496999
H300	H	0.494882	1.269681	-0.482650
H301	H	0.491480	1.483006	-0.676606
H302	H	0.476821	1.389916	-0.662272
H303	H	0.935419	1.239226	-0.645351
H304	H	0.689966	0.517701	0.187558
H305	H	0.730410	0.239231	0.005046
H306	H	0.697786	0.365258	0.037050
H307	H	0.392422	1.051599	-0.194298
C308	C	0.732808	0.612311	0.002713
C309	C	0.708712	0.529690	0.026329
H310	H	0.701686	0.640821	0.033235
H311	H	0.733401	0.672628	-0.074288
H312	H	0.779675	0.579506	0.033195
H313	H	0.661847	0.562497	-0.004160
H314	H	0.708112	0.469362	0.103345
C315	C	0.489447	1.069082	-0.334827
C316	C	0.419043	1.068691	-0.333926
H317	H	0.506421	1.109704	-0.407041
H318	H	0.518774	0.993209	-0.287397
H319	H	0.490890	1.104620	-0.310670
H320	H	0.417601	1.033146	-0.358075
H321	H	0.389708	1.144579	-0.381372
C322	C	0.423731	0.620130	-0.050197
C323	C	0.355712	0.694318	-0.096004
H324	H	0.421459	0.544088	-0.003333
H325	H	0.439994	0.629474	-0.009310
H326	H	0.455867	0.636507	-0.106886
H327	H	0.323577	0.677947	-0.039315
H328	H	0.339440	0.684969	-0.136892
C329	C	0.513395	0.671810	0.017304
C330	C	0.455257	0.694734	0.067433
H331	H	0.541750	0.596147	0.070648
H332	H	0.541415	0.723058	-0.015586
H333	H	0.496448	0.680660	-0.037137
H334	H	0.472205	0.685892	0.121869
H335	H	0.427234	0.643471	0.100341
H336	H	0.295743	1.051387	-0.302748
C337	C	0.257402	0.689835	0.067018
C338	C	0.327997	0.691260	0.063193
H339	H	0.254926	0.613480	0.117421
H340	H	0.241820	0.727760	-0.003557
H341	H	0.227584	0.727285	0.089804
H342	H	0.357813	0.653818	0.040399
H343	H	0.343587	0.653319	0.133783
H344	H	0.803938	0.878472	-0.420067
H345	H	0.344186	0.861389	-0.257637
H346	H	0.689689	1.239221	-0.097876
