data_functionalizedCrystal
_audit_creation_method	'MofGen! by Chris Wilmer'
_symmetry_space_group_name_H-M	'P1'
_symmetry_Int_Tables_number	1
_symmetry_cell_setting	triclinic
loop_
_symmetry_equiv_pos_as_xyz
  x,y,z
_cell_length_a	14.853558
_cell_length_b	14.853567
_cell_length_c	8.140239
_cell_angle_alpha	89.999724
_cell_angle_beta	90.002197
_cell_angle_gamma	83.633032
loop_
_atom_site_label
_atom_site_type_symbol
_atom_site_fract_x
_atom_site_fract_y
_atom_site_fract_z
O1	O	1.196368	0.117663	0.136579
O2	O	0.933907	0.131693	0.136585
O3	O	1.072148	-0.006552	0.136587
O4	O	1.058127	0.255908	0.136577
O5	O	1.072141	-0.006554	-0.136640
O6	O	0.933899	0.131692	-0.136642
O7	O	1.196360	0.117661	-0.136648
Zn8	Zn	1.065129	0.124676	-0.180026
Zn9	Zn	1.065139	0.124678	0.179963
O10	O	1.058119	0.255906	-0.136650
C11	C	0.900314	0.131058	-0.000027
C12	C	0.800230	0.129158	-0.000024
C13	C	0.753214	0.128267	0.148918
C14	C	0.753204	0.128255	-0.148965
C15	C	0.659171	0.126464	-0.148967
C16	C	0.612155	0.125574	-0.000025
C17	C	0.659172	0.126474	0.148920
C18	C	0.612147	0.125555	-0.297910
C19	C	0.518108	0.123763	-0.297918
C20	C	0.471089	0.122879	-0.148974
C21	C	0.518113	0.123781	-0.000023
C22	C	0.471097	0.122890	0.148919
C23	C	0.518117	0.123798	0.297872
C24	C	0.612154	0.125590	0.297864
C25	C	0.377053	0.121087	-0.148966
C26	C	0.377055	0.121097	0.148921
C27	C	1.071509	-0.040141	-0.000022
C28	C	1.069605	-0.140225	-0.000007
C29	C	0.979439	-0.552756	-0.000037
C30	C	1.143673	-0.574042	-0.000040
C31	C	1.145463	-0.480009	-0.000031
C32	C	1.064240	-0.422344	-0.000027
C33	C	0.981227	-0.458713	-0.000032
C34	C	1.228474	-0.443632	-0.000042
C35	C	1.230268	-0.349593	-0.000034
C36	C	1.149044	-0.291927	-0.000018
C37	C	1.066027	-0.328301	-0.000022
C38	C	0.984805	-0.270637	-0.000018
C39	C	0.901787	-0.307009	-0.000010
C40	C	0.900003	-0.401047	-0.000016
C41	C	1.150828	-0.197890	-0.000012
C42	C	0.986592	-0.176594	-0.000013
C43	C	1.229953	0.118296	-0.000032
C44	C	1.330037	0.120197	-0.000024
C45	C	1.058758	0.289496	-0.000037
C46	C	1.060662	0.389580	-0.000041
N47	N	1.065128	0.124674	-0.425708
N48	N	1.065146	0.124673	0.425645
H49	H	0.650436	0.126272	-0.419170
O50	O	0.803915	0.129213	-0.309598
H51	H	0.755421	0.128280	-0.413167
H52	H	0.479832	0.123023	-0.419205
H53	H	0.338772	0.120357	-0.270241
O54	O	0.662869	0.126542	0.458511
H55	H	0.736159	0.127920	0.433483
O56	O	0.898986	-0.114398	-0.000023
H57	H	0.840965	-0.155491	-0.000034
H58	H	0.911848	-0.582375	-0.000024
O59	O	0.814182	-0.244813	-0.000019
H60	H	0.811070	-0.201461	0.111344
H61	H	0.791502	0.129010	0.270192
O62	O	1.231274	-0.636233	-0.000067
H63	H	1.234397	-0.679589	0.111292
H64	H	1.294601	-0.490589	-0.000061
H65	H	1.218419	-0.168279	-0.000029
H66	H	0.832414	-0.430670	-0.000011
H67	H	1.297865	-0.319987	-0.000039
H68	H	0.338780	0.120377	0.270210
H69	H	0.479825	0.123068	0.419141
