data_functionalizedCrystal
_audit_creation_method	'MofGen! by Chris Wilmer'
_symmetry_space_group_name_H-M	'P1'
_symmetry_Int_Tables_number	1
_symmetry_cell_setting	triclinic
loop_
_symmetry_equiv_pos_as_xyz
  x,y,z
_cell_length_a	16.959455
_cell_length_b	18.101397
_cell_length_c	16.959447
_cell_angle_alpha	90.033674
_cell_angle_beta	90.014322
_cell_angle_gamma	90.017413
loop_
_atom_site_label
_atom_site_type_symbol
_atom_site_fract_x
_atom_site_fract_y
_atom_site_fract_z
Zn1	Zn	1.208382	-0.294875	0.446890
Zn2	Zn	1.208303	-0.418728	0.314704
Zn3	Zn	1.076210	-0.294899	0.314728
Zn4	Zn	1.076174	-0.418673	0.446843
O5	O	1.142267	-0.356794	0.380791
O6	O	1.318982	-0.311318	0.429365
O7	O	1.190763	-0.402335	0.204096
O8	O	1.093791	-0.191263	0.332289
O9	O	1.318924	-0.402312	0.332249
O10	O	1.190897	-0.191245	0.429389
O11	O	1.093715	-0.311358	0.204114
O12	O	0.965594	-0.311304	0.332243
O13	O	1.093729	-0.402218	0.557460
O14	O	0.965568	-0.402241	0.429307
O15	O	1.190862	-0.311264	0.557495
O16	O	1.190728	-0.522354	0.332203
O17	O	1.093653	-0.522313	0.429284
C18	C	0.936901	-0.356769	0.380773
C19	C	0.849044	-0.356777	0.380784
C20	C	0.477558	-0.309404	0.330355
C21	C	0.477579	-0.404244	0.431272
C22	C	0.560125	-0.404234	0.431267
C23	C	0.601391	-0.356808	0.380805
C24	C	0.560112	-0.309394	0.330347
C25	C	0.601411	-0.451652	0.481718
C26	C	0.683962	-0.451644	0.481715
C27	C	0.725230	-0.404215	0.431256
C28	C	0.683945	-0.356798	0.380797
C29	C	0.725211	-0.309373	0.330334
C30	C	0.683928	-0.261951	0.279879
C31	C	0.601379	-0.261964	0.279888
C32	C	0.807778	-0.404202	0.431246
C33	C	0.807765	-0.309362	0.330326
C34	C	1.142200	-0.549204	0.380753
C35	C	1.142243	-0.631518	0.380763
C36	C	1.142344	-0.930609	0.380835
C37	C	1.203250	-0.899279	0.319590
C38	C	1.203461	-0.813660	0.319749
C39	C	1.142294	-0.782227	0.380799
C40	C	1.164869	-0.813231	0.464115
C41	C	1.165340	-0.898876	0.463781
C42	C	1.058699	-0.899115	0.359484
C43	C	1.059113	-0.813466	0.357625
C44	C	1.142264	-0.698367	0.380783
C45	C	1.142375	-1.014469	0.380856
C46	C	1.348435	-0.356819	0.380810
C47	C	1.436292	-0.356829	0.380818
C48	C	1.142300	-0.356732	0.586959
C49	C	1.142314	-0.356706	0.674816
C50	C	1.142357	-0.163632	0.380847
C51	C	1.142395	-0.081318	0.380871
C52	C	1.142280	-0.356801	0.175425
C53	C	1.142419	-0.356619	0.087569
C54	C	1.091836	-0.403984	1.046276
C55	C	1.192981	-0.309273	1.046308
C56	C	1.192960	-0.309289	0.963762
C57	C	1.142377	-0.356653	0.922469
C58	C	1.091815	-0.404002	0.963723
C59	C	1.243527	-0.261946	0.922502
C60	C	1.243508	-0.261960	0.839951
C61	C	1.192921	-0.309322	0.798657
C62	C	1.142356	-0.356672	0.839916
C63	C	1.091773	-0.404037	0.798623
C64	C	1.041204	-0.451384	0.839880
C65	C	1.041228	-0.451364	0.922429
C66	C	1.192897	-0.309342	0.716109
C67	C	1.091752	-0.404055	0.716069
H68	H	0.443942	-0.270793	0.289278
F69	F	1.108654	-0.786623	0.525364
H70	H	1.038161	-0.920778	0.299784
F71	F	0.557489	-0.502141	0.535399
H72	H	0.717568	-0.490257	0.522799
F73	F	1.036858	-0.786986	0.277485
F74	F	0.851711	-0.454671	0.484936
H75	H	1.225325	-0.791726	0.482506
F76	F	1.297362	-0.211546	0.966452
H77	H	1.013320	-0.919376	0.404092
H78	H	1.284684	-0.223407	0.806367
F79	F	0.727856	-0.211484	0.226171
H80	H	1.050554	-0.442619	0.682455
H81	H	1.189338	-0.792701	0.257971
F82	F	1.185019	-0.926267	0.238598
F83	F	0.433659	-0.454727	0.484960
H84	H	1.264871	-0.920749	0.333554
F85	F	1.245255	-0.924917	0.487419
F86	F	1.284446	-0.786808	0.338216
F87	F	0.996605	-0.785509	0.411660
H88	H	1.122922	-0.919598	0.510986
F89	F	0.987376	-0.501795	0.795924
H90	H	1.000059	-0.489914	0.956027
H91	H	1.050662	-0.442530	1.079871
F92	F	1.246817	-0.258872	1.090256
H93	H	1.234072	-0.270794	0.682521
H94	H	0.567759	-0.223357	0.238809
F95	F	0.851677	-0.258881	0.276620
