data_functionalizedCrystal
_audit_creation_method	'MofGen! by Chris Wilmer'
_symmetry_space_group_name_H-M	'P1'
_symmetry_Int_Tables_number	1
_symmetry_cell_setting	triclinic
loop_
_symmetry_equiv_pos_as_xyz
  x,y,z
_cell_length_a	14.044220
_cell_length_b	10.654550
_cell_length_c	9.730223
_cell_angle_alpha	89.995798
_cell_angle_beta	90.006515
_cell_angle_gamma	91.163110
loop_
_atom_site_label
_atom_site_type_symbol
_atom_site_fract_x
_atom_site_fract_y
_atom_site_fract_z
O1	O	0.133233	-1.681223	0.114408
O2	O	0.145926	-1.317020	0.114387
O3	O	0.001559	-1.493655	0.114384
O4	O	0.277600	-1.504588	0.114411
O5	O	0.001552	-1.493651	-0.114196
O6	O	0.145919	-1.317017	-0.114193
O7	O	0.133226	-1.681220	-0.114172
Zn8	Zn	0.139571	-1.499118	-0.150474
Zn9	Zn	0.139581	-1.499122	0.150689
O10	O	0.277593	-1.504585	-0.114169
C11	C	0.144991	-1.270127	0.000094
C12	C	0.142202	-1.130403	0.000085
N13	N	0.139580	-1.499125	0.356226
C14	C	-0.033790	-1.488867	0.000093
C15	C	-0.139110	-1.474592	0.000090
C16	C	-0.331943	-1.448493	0.000108
C17	C	-0.388911	-1.549741	0.000119
C18	C	-0.496210	-1.535219	0.000129
C19	C	-0.224634	-1.463013	0.000098
C20	C	0.312942	-1.509372	0.000125
C21	C	0.418262	-1.523648	0.000137
C22	C	0.134161	-1.728113	0.000124
C23	C	0.136950	-1.867836	0.000142
C24	C	0.227203	-1.059459	0.000114
C25	C	0.224578	-0.928175	0.000137
C26	C	0.051942	-0.938790	0.000109
C27	C	0.054569	-1.070072	0.000076
C28	C	0.314837	-1.119790	0.000123
C29	C	0.399845	-1.048846	0.000153
C30	C	0.397219	-0.917561	0.000177
C31	C	0.309585	-0.857221	0.000170
N32	N	0.139564	-1.499124	-0.356011
C33	C	0.075780	-1.577510	0.428151
C34	C	0.075774	-1.577514	0.572034
C35	C	0.203371	-1.420735	0.572054
C36	C	0.203381	-1.420739	0.428174
C37	C	0.011979	-1.655896	0.356202
C38	C	-0.051827	-1.734287	0.428127
C39	C	-0.051833	-1.734290	0.572010
C40	C	0.011967	-1.655902	0.643968
H41	H	-0.363754	-1.350913	0.000106
H42	H	0.316985	-1.226688	0.000110
C43	C	0.496234	-1.115214	0.000159
H44	H	0.485626	-1.203563	0.000154
H45	H	0.531271	-1.091502	-0.079541
H46	H	0.531266	-1.091534	0.079891
H47	H	0.466437	-0.859801	0.000187
C48	C	0.306698	-0.712811	0.000200
H49	H	0.369873	-0.679197	0.000225
H50	H	0.274221	-0.685045	-0.079504
H51	H	0.274230	-0.685099	0.079928
C52	C	0.273541	-1.334508	0.651198
H53	H	0.311546	-1.287831	0.587754
H54	H	0.238966	-1.278460	0.707310
H55	H	0.313416	-1.384045	0.707342
C56	C	-0.345941	-1.681573	0.000096
H57	H	-0.278415	-1.674169	0.000072
H58	H	-0.366430	-1.725957	0.079801
H59	H	-0.366457	-1.725916	-0.079631
C60	C	-0.044445	-0.872418	0.000122
H61	H	-0.033835	-0.784070	0.000160
H62	H	-0.079489	-0.896087	-0.079595
H63	H	-0.079473	-0.896139	0.079836
C64	C	-0.038930	-1.148115	0.000064
H65	H	-0.091497	-1.093384	0.000087
H66	H	-0.041499	-1.199533	-0.079656
H67	H	-0.041483	-1.199564	0.079776
H68	H	0.011976	-1.655898	0.239046
H69	H	0.255334	-1.356912	0.369612
H70	H	-0.103766	-1.798115	0.369531
H71	H	-0.103780	-1.798128	0.630570
C72	C	0.011967	-1.655908	0.802236
H73	H	0.059102	-1.598002	0.834786
H74	H	-0.048818	-1.632076	0.834773
H75	H	0.025637	-1.737655	0.834789
