data_functionalizedCrystal
_audit_creation_method	'MofGen! by Chris Wilmer'
_symmetry_space_group_name_H-M	'P1'
_symmetry_Int_Tables_number	1
_symmetry_cell_setting	triclinic
loop_
_symmetry_equiv_pos_as_xyz
  x,y,z
_cell_length_a	18.215407
_cell_length_b	16.959454
_cell_length_c	18.215399
_cell_angle_alpha	89.976304
_cell_angle_beta	89.980167
_cell_angle_gamma	90.020523
loop_
_atom_site_label
_atom_site_type_symbol
_atom_site_fract_x
_atom_site_fract_y
_atom_site_fract_z
Zn1	Zn	1.125097	-0.314680	-0.416138
Zn2	Zn	1.125015	-0.446866	-0.293080
Zn3	Zn	1.002029	-0.314706	-0.293085
Zn4	Zn	1.002005	-0.446822	-0.416105
O5	O	1.063537	-0.380768	-0.354602
O6	O	1.228070	-0.332222	-0.399825
O7	O	1.108677	-0.429364	-0.190097
O8	O	1.018398	-0.204092	-0.309424
O9	O	1.228010	-0.429339	-0.309416
O10	O	1.108815	-0.204073	-0.399830
O11	O	1.018319	-0.332267	-0.190100
O12	O	0.899042	-0.332224	-0.309392
O13	O	1.018358	-0.429264	-0.519094
O14	O	0.899024	-0.429289	-0.399775
O15	O	1.108792	-0.332180	-0.519118
O16	O	1.108654	-0.557471	-0.309385
O17	O	1.018279	-0.557438	-0.399770
C18	C	0.872330	-0.380755	-0.354581
C19	C	0.790531	-0.380768	-0.354589
C20	C	1.063475	-0.586135	-0.354590
C21	C	1.063516	-0.673991	-0.354609
C22	C	0.602348	-0.431389	-0.401593
C23	C	0.525489	-0.431392	-0.401602
C24	C	0.525478	-0.330162	-0.307628
C25	C	0.602335	-0.330156	-0.307623
C26	C	0.640768	-0.380774	-0.354604
C27	C	0.487052	-0.380782	-0.354618
C28	C	0.403718	-0.380785	-0.354628
C29	C	0.724107	-0.380771	-0.354596
C30	C	1.016547	-1.045480	-0.401661
C31	C	1.110731	-1.045454	-0.307618
C32	C	1.110706	-0.962908	-0.307611
C33	C	1.063599	-0.921644	-0.354629
C34	C	1.016518	-0.962926	-0.401654
C35	C	1.157781	-0.921619	-0.260582
C36	C	1.157756	-0.839068	-0.260573
C37	C	1.110653	-0.797803	-0.307595
C38	C	1.063570	-0.839091	-0.354622
C39	C	1.016464	-0.797827	-0.401640
C40	C	0.969384	-0.839113	-0.448672
C41	C	0.969414	-0.921661	-0.448676
C42	C	1.110623	-0.715255	-0.307591
C43	C	1.016435	-0.715273	-0.401634
C44	C	1.255489	-0.380783	-0.354624
C45	C	1.337288	-0.380789	-0.354633
C46	C	1.063581	-0.380714	-0.546555
C47	C	1.063601	-0.380691	-0.628354
C48	C	1.063619	-0.174600	-0.354631
C49	C	1.063653	-0.086744	-0.354643
C50	C	1.110707	-0.330092	-0.816562
C51	C	1.110716	-0.330069	-0.893420
C52	C	1.016546	-0.431167	-0.893384
C53	C	1.016534	-0.431186	-0.816527
C54	C	1.063619	-0.380649	-0.778118
C55	C	1.063639	-0.380608	-0.931834
C56	C	1.063649	-0.380583	-1.015168
C57	C	1.063609	-0.380672	-0.694779
C58	C	1.063534	-0.380766	-0.163396
C59	C	1.063658	-0.380566	-0.081597
H60	H	0.633638	-0.472604	-0.439850
C61	C	0.965369	-0.670333	-0.452656
C62	C	0.975428	-0.589203	-0.442597
C63	C	0.928406	-0.547781	-0.489593
H64	H	0.915903	-0.683814	-0.441890
H65	H	0.976125	-0.683779	-0.502130
H66	H	0.964666	-0.575763	-0.393135
H67	H	1.024884	-0.575699	-0.453368
H68	H	0.939163	-0.561226	-0.539067
H69	H	0.878944	-0.561268	-0.478823
H70	H	0.935230	-0.492730	-0.482780
H71	H	0.931084	-0.955284	-0.486966
C72	C	0.483881	-0.275127	-0.256588
C73	C	0.533981	-0.230784	-0.215450
C74	C	0.495691	-0.180072	-0.168428
H75	H	0.453876	-0.305237	-0.224412
H76	H	0.453934	-0.240685	-0.284777
H77	H	0.563915	-0.265223	-0.187263
H78	H	0.563987	-0.200659	-0.247606
H79	H	0.465745	-0.145629	-0.196618
H80	H	0.465688	-0.210188	-0.136258
H81	H	0.529678	-0.149974	-0.140516
H82	H	1.149058	-0.288899	-0.924718
H83	H	0.633617	-0.288934	-0.269359
H84	H	0.978214	-0.472314	-0.924667
H85	H	0.494211	-0.472606	-0.439866
H86	H	1.148950	-0.681644	-0.269295
H87	H	0.978184	-0.472355	-0.785225
H88	H	0.931026	-0.805506	-0.486951
H89	H	0.978218	-1.079098	-0.439955
H90	H	1.149079	-1.079055	-0.269334
C91	C	1.208818	-0.966561	-0.209541
C92	C	1.198747	-1.047690	-0.219597
C93	C	1.245725	-1.089119	-0.172562
H94	H	1.198044	-0.953125	-0.160078
H95	H	1.258296	-0.953076	-0.220288
H96	H	1.149280	-1.061169	-0.208845
H97	H	1.209526	-1.061150	-0.269050
H98	H	1.295204	-1.075634	-0.183310
H99	H	1.234948	-1.075675	-0.123103
H100	H	1.238904	-1.144168	-0.179384
C101	C	1.161728	-0.275086	-0.774899
C102	C	1.145717	-0.196875	-0.793594
C103	C	1.192695	-0.146178	-0.755225
H104	H	1.211200	-0.286544	-0.787472
H105	H	1.154974	-0.282282	-0.723612
H106	H	1.152477	-0.189683	-0.844870
H107	H	1.096254	-0.185392	-0.781019
H108	H	1.185941	-0.153374	-0.703938
H109	H	1.242164	-0.157644	-0.767801
H110	H	1.181833	-0.093106	-0.767899
C111	C	1.208955	-0.794390	-0.209491
C112	C	1.250227	-0.848197	-0.168330
C113	C	1.297408	-0.807067	-0.121275
H114	H	1.180897	-0.762220	-0.177331
H115	H	1.241033	-0.762169	-0.237657
H116	H	1.218153	-0.880404	-0.140166
H117	H	1.278300	-0.880369	-0.200470
H118	H	1.329486	-0.774846	-0.149442
H119	H	1.269344	-0.774898	-0.089121
H120	H	1.325421	-0.843568	-0.093347
