data_functionalizedCrystal
_audit_creation_method	'MofGen! by Chris Wilmer'
_symmetry_space_group_name_H-M	'P1'
_symmetry_Int_Tables_number	1
_symmetry_cell_setting	triclinic
loop_
_symmetry_equiv_pos_as_xyz
  x,y,z
_cell_length_a	16.109302
_cell_length_b	12.811415
_cell_length_c	15.186229
_cell_angle_alpha	84.565396
_cell_angle_beta	89.994701
_cell_angle_gamma	83.753707
loop_
_atom_site_label
_atom_site_type_symbol
_atom_site_fract_x
_atom_site_fract_y
_atom_site_fract_z
O1	O	1.103626	0.134916	-0.084040
O2	O	0.861626	0.151705	-0.085374
O3	O	0.988714	-0.009484	-0.072502
O4	O	0.976538	0.296105	-0.096913
O5	O	0.988706	-0.009487	0.073956
O6	O	0.861617	0.151702	0.061083
O7	O	1.103618	0.134914	0.062417
Zn8	Zn	0.982616	0.143308	0.085004
Zn9	Zn	0.982627	0.143311	-0.107960
O10	O	0.976529	0.296102	0.049545
C11	C	0.830644	0.151023	-0.012090
C12	C	0.738342	0.148984	-0.011924
C13	C	0.525979	0.144267	0.068277
C14	C	0.439252	0.142340	0.068428
C15	C	0.439271	0.142348	-0.091248
C16	C	0.525998	0.144268	-0.091397
C17	C	0.569348	0.145233	-0.011632
C18	C	0.395895	0.141385	-0.011332
C19	C	0.301862	0.139296	-0.011169
C20	C	0.663388	0.147321	-0.011795
C21	C	0.988027	-0.048589	0.003849
C22	C	0.985984	-0.165107	0.013151
C23	C	0.982139	-0.384041	-0.129056
C24	C	0.980219	-0.493520	-0.120320
C25	C	0.980218	-0.493543	0.039358
C26	C	0.982138	-0.384065	0.030622
C27	C	0.983099	-0.329318	-0.053588
C28	C	0.985025	-0.219838	-0.062323
C29	C	0.985019	-0.219863	0.097354
C30	C	0.983099	-0.329341	0.106090
C31	C	1.134599	0.135595	-0.010869
C32	C	1.226902	0.137634	-0.011040
C33	C	0.977216	0.335208	-0.026808
C34	C	0.979260	0.451725	-0.036116
N35	N	0.982615	0.143305	0.216696
N36	N	0.982636	0.143305	-0.239653
C37	C	1.038909	0.071954	0.448117
C38	C	1.038911	0.071952	0.540307
C39	C	0.926336	0.214659	0.528920
C40	C	0.926330	0.214655	0.436732
C41	C	0.982621	0.143304	0.396333
C42	C	0.982629	0.143305	0.580711
C43	C	0.982632	0.143303	0.680667
C44	C	0.982618	0.143305	0.296371
H45	H	0.985811	-0.175266	-0.130890
H46	H	0.880506	0.272753	0.561822
N47	N	0.983107	-0.324926	-0.219856
H48	H	1.035359	-0.287986	-0.226389
H49	H	0.982155	-0.376222	-0.266319
N50	N	0.865610	0.291606	0.380872
H51	H	0.829953	0.336811	0.420451
H52	H	0.897591	0.338019	0.338903
H53	H	0.982313	-0.373931	0.174651
H54	H	0.985805	-0.175296	0.158806
H55	H	0.979428	-0.538136	0.107917
N56	N	0.572738	0.145308	0.154305
H57	H	0.532100	0.144402	0.204950
H58	H	0.615238	0.081077	0.162914
H59	H	0.403964	0.141563	-0.156190
N60	N	0.392474	0.141293	0.154617
H61	H	0.433172	0.141457	0.205178
H62	H	0.350371	0.205898	0.153203
N63	N	0.572784	0.145296	-0.177589
H64	H	0.532162	0.144399	-0.228097
H65	H	0.602256	0.211118	-0.186324
N66	N	0.979216	-0.552551	-0.201716
H67	H	0.980128	-0.501255	-0.256384
H68	H	1.029910	-0.606483	-0.200868
H69	H	1.084743	0.013855	0.415227
H70	H	1.084745	0.013851	0.582468
