data_functionalizedCrystal
_audit_creation_method	'MofGen! by Chris Wilmer'
_symmetry_space_group_name_H-M	'P1'
_symmetry_Int_Tables_number	1
_symmetry_cell_setting	triclinic
loop_
_symmetry_equiv_pos_as_xyz
  x,y,z
_cell_length_a	19.288835
_cell_length_b	13.930277
_cell_length_c	14.853567
_cell_angle_alpha	89.999243
_cell_angle_beta	83.379446
_cell_angle_gamma	89.984310
loop_
_atom_site_label
_atom_site_type_symbol
_atom_site_fract_x
_atom_site_fract_y
_atom_site_fract_z
O1	O	-0.921744	0.080011	-0.112333
O2	O	-0.421744	0.580011	0.387667
O3	O	-0.719531	0.079971	-0.127533
O4	O	-0.219531	0.579971	0.372467
O5	O	-0.826039	0.079995	0.011328
O6	O	-0.326039	0.579995	0.511328
O7	O	-0.815236	0.079987	-0.251194
O8	O	-0.315236	0.579987	0.248806
O9	O	-0.826024	-0.079667	0.011331
O10	O	-0.326024	0.420333	0.511331
O11	O	-0.719516	-0.079691	-0.127530
O12	O	-0.219516	0.420309	0.372470
O13	O	-0.921729	-0.079651	-0.112330
O14	O	-0.421729	0.420349	0.387670
Zn15	Zn	-0.820620	-0.105021	-0.119930
Zn16	Zn	-0.320620	0.394979	0.380070
Zn17	Zn	-0.820640	0.105341	-0.119933
Zn18	Zn	-0.320640	0.605341	0.380067
O19	O	-0.815221	-0.079675	-0.251191
O20	O	-0.315221	0.420325	0.248809
C21	C	-0.693645	0.000135	-0.127047
C22	C	-0.193645	0.500135	0.372953
C23	C	-0.616536	0.000120	-0.125592
C24	C	-0.116536	0.500120	0.374408
C25	C	-0.580338	0.087153	-0.124895
C26	C	-0.080338	0.587153	0.375105
C27	C	-0.507886	0.087162	-0.123518
C28	C	-0.007886	0.587162	0.376482
C29	C	-0.471637	0.000134	-0.122820
C30	C	0.028363	0.500134	0.377180
C31	C	-0.507843	-0.086910	-0.123523
C32	C	-0.007843	0.413090	0.376477
C33	C	-0.580293	-0.086918	-0.124909
C34	C	-0.080293	0.413082	0.375091
C35	C	-0.362117	-0.066529	-0.067818
C36	C	0.137883	0.433471	0.432182
C37	C	-0.289670	-0.066519	-0.066427
C38	C	0.210330	0.433481	0.433573
C39	C	-0.248178	0.000152	-0.118550
C40	C	0.251822	0.500152	0.381450
C41	C	-0.279145	0.066829	-0.172053
C42	C	0.220855	0.566829	0.327947
C43	C	-0.351594	0.066822	-0.173439
C44	C	0.148406	0.566822	0.326561
C45	C	-0.393078	0.000132	-0.121318
C46	C	0.106922	0.500132	0.378682
C47	C	-0.133420	0.087202	-0.116361
C48	C	0.366580	0.587202	0.383639
C49	C	-0.060966	0.087208	-0.114990
C50	C	0.439034	0.587208	0.385010
C51	C	-0.060925	-0.086868	-0.114986
C52	C	0.439075	0.413132	0.385014
C53	C	-0.133377	-0.086871	-0.116366
C54	C	0.366623	0.413129	0.383634
C55	C	-0.169620	0.000166	-0.117050
C56	C	0.330380	0.500166	0.382950
N57	N	-0.820612	-0.248587	-0.119926
N58	N	-0.320612	0.251413	0.380074
C59	C	-0.773476	-0.700867	-0.181397
C60	C	-0.273476	-0.200867	0.318603
C61	C	-0.867822	-0.700815	-0.058463
C62	C	-0.367822	-0.200815	0.441537
C63	C	-0.867814	-0.600319	-0.058460
C64	C	-0.367814	-0.100319	0.441540
C65	C	-0.820637	-0.550092	-0.119927
C66	C	-0.320637	-0.050092	0.380073
C67	C	-0.773468	-0.600362	-0.181398
C68	C	-0.273468	-0.100362	0.318602
C69	C	-0.914987	-0.550042	0.003003
C70	C	-0.414987	-0.050042	0.503003
C71	C	-0.914981	-0.449540	0.003008
C72	C	-0.414981	0.050460	0.503008
C73	C	-0.867800	-0.399312	-0.058456
C74	C	-0.367800	0.100688	0.441544
C75	C	-0.820629	-0.449587	-0.119928
C76	C	-0.320629	0.050413	0.380072
C77	C	-0.773452	-0.399361	-0.181396
C78	C	-0.273452	0.100639	0.318604
C79	C	-0.726276	-0.449634	-0.242865
C80	C	-0.226276	0.050366	0.257135
C81	C	-0.726287	-0.550133	-0.242862
C82	C	-0.226287	-0.050133	0.257138
C83	C	-0.867789	-0.298813	-0.058459
C84	C	-0.367789	0.201187	0.441541
C85	C	-0.773443	-0.298856	-0.181397
C86	C	-0.273443	0.201144	0.318603
C87	C	0.052386	0.000180	-0.112822
C88	C	0.552386	0.500180	0.387178
C89	C	-0.024722	0.000179	-0.114294
C90	C	0.475278	0.500179	0.385706
C91	C	-0.825542	0.000167	0.044916
C92	C	-0.325542	0.500167	0.544916
C93	C	-0.824075	0.000175	0.144991
C94	C	-0.324075	0.500175	0.644991
N95	N	-0.820654	0.248907	-0.119929
N96	N	-0.320654	0.748907	0.380071
C97	C	-0.815718	0.000156	-0.284778
C98	C	-0.315718	0.500156	0.215222
C99	C	-0.817185	0.000154	-0.384854
C100	C	-0.317185	0.500154	0.115146
C101	C	-0.754607	0.000143	0.557120
C102	C	-0.254607	0.500143	1.057120
C103	C	-0.881140	0.000168	0.579138
C104	C	-0.381140	0.500168	1.079138
C105	C	-0.882519	0.000174	0.485112
C106	C	-0.382519	0.500174	0.985112
C107	C	-0.819941	0.000163	0.427086
C108	C	-0.319941	0.500163	0.927086
C109	C	-0.755984	0.000146	0.463085
C110	C	-0.255984	0.500146	0.963085
C111	C	-0.946476	0.000181	0.449106
C112	C	-0.446476	0.500181	0.949106
C113	C	-0.947857	0.000186	0.355075
C114	C	-0.447857	0.500186	0.855075
C115	C	-0.885278	0.000182	0.297047
C116	C	-0.385278	0.500182	0.797047
C117	C	-0.821319	0.000166	0.333051
C118	C	-0.321319	0.500166	0.833051
C119	C	-0.758741	0.000155	0.275025
C120	C	-0.258741	0.500155	0.775025
C121	C	-0.694780	0.000146	0.311027
C122	C	-0.194780	0.500146	0.811027
C123	C	-0.693405	0.000141	0.405057
C124	C	-0.193405	0.500141	0.905057
C125	C	-0.886653	0.000186	0.203017
C126	C	-0.386653	0.500186	0.703017
C127	C	-0.760118	0.000158	0.180990
C128	C	-0.260118	0.500158	0.680990
H129	H	-0.162850	-0.157743	-0.116928
H130	H	0.337150	0.342257	0.383072
H131	H	-0.687879	-0.591072	-0.292908
H132	H	-0.187879	-0.091072	0.207092
C133	C	-1.015306	0.000187	0.512939
C134	C	-0.515306	0.500187	1.012939
N135	N	-1.067152	0.000192	0.561024
N136	N	-0.567152	0.500192	1.061024
H137	H	-0.264463	-0.120806	-0.022857
H138	H	0.235537	0.379194	0.477143
C139	C	-0.173288	0.182944	-0.117129
C140	C	0.326712	0.682944	0.382871
N141	N	-0.203315	0.255058	-0.117711
N142	N	0.296685	0.755058	0.382289
H143	H	-0.709158	0.000153	0.133750
H144	H	-0.209158	0.500153	0.633750
C145	C	-0.407751	-0.139876	-0.010472
C146	C	0.092249	0.360124	0.489528
N147	N	-0.442122	-0.195117	0.032721
N148	N	0.057878	0.304883	0.532721
C149	C	-0.674384	-0.394372	-0.310478
C150	C	-0.174384	0.105628	0.189522
N151	N	-0.635299	-0.352745	-0.361401
N152	N	-0.135299	0.147255	0.138599
H153	H	-0.953400	-0.590940	0.053044
H154	H	-0.453400	-0.090940	0.553044
H155	H	-0.953392	-0.408614	0.053059
H156	H	-0.453392	0.091386	0.553059
H157	H	-0.999938	0.000195	0.325770
H158	H	-0.499938	0.500195	0.825770
H159	H	-0.643829	0.000130	0.263770
H160	H	-0.143829	0.500130	0.763770
H161	H	-0.932088	0.000169	0.626388
H162	H	-0.432088	0.500169	1.126388
C163	C	-0.623055	0.000111	0.444668
C164	C	-0.123055	0.500111	0.944668
N165	N	-0.570068	0.000080	0.474507
N166	N	-0.070068	0.500080	0.974507
H167	H	-0.702532	0.000139	0.586438
H168	H	-0.202532	0.500139	1.086438
C169	C	-0.721581	-0.756168	-0.249003
C170	C	-0.221581	-0.256168	0.250997
N171	N	-0.682492	-0.797822	-0.299923
N172	N	-0.182492	-0.297822	0.200077
C173	C	-0.919714	-0.756067	0.009148
C174	C	-0.419714	-0.256067	0.509148
N175	N	-0.958800	-0.797687	0.060076
N176	N	-0.458800	-0.297687	0.560076
C177	C	-0.385650	0.140122	-0.232339
C178	C	0.114350	0.640122	0.267661
N179	N	-0.411298	0.195316	-0.276722
N180	N	0.088702	0.695316	0.223278
C181	C	-0.721561	-0.243615	-0.249040
C182	C	-0.221561	0.256385	0.250960
N183	N	-0.682490	-0.202008	-0.299999
N184	N	-0.182490	0.297992	0.200001
H185	H	-0.938729	0.000187	0.173708
H186	H	-0.438729	0.500187	0.673708
H187	H	-0.478324	-0.157770	-0.122957
H188	H	0.021676	0.342230	0.377043
H189	H	-0.609843	0.158026	-0.125451
H190	H	-0.109843	0.658026	0.374549
H191	H	-0.245363	0.121116	-0.214501
H192	H	0.254637	0.621116	0.285499
C193	C	-0.468061	0.182909	-0.122745
C194	C	0.031939	0.682909	0.377255
N195	N	-0.438067	0.255026	-0.122160
N196	N	0.061933	0.755026	0.377840
C197	C	-0.021055	-0.182600	-0.114220
C198	C	0.478945	0.317400	0.385780
N199	N	0.008978	-0.254709	-0.113644
N200	N	0.508978	0.245291	0.386356
C201	C	-0.021149	0.182956	-0.114219
C202	C	0.478851	0.682956	0.385781
N203	N	0.008841	0.255076	-0.113635
N204	N	0.508841	0.755076	0.386365
H205	H	-0.906202	-0.257885	-0.008416
H206	H	-0.406202	0.242115	0.491584
C207	C	-0.620112	-0.182665	-0.125668
C208	C	-0.120112	0.317335	0.374332
N209	N	-0.650106	-0.254784	-0.126237
N210	N	-0.150106	0.245216	0.373763
