data_functionalizedCrystal
_audit_creation_method	'MofGen! by Chris Wilmer'
_symmetry_space_group_name_H-M	'P1'
_symmetry_Int_Tables_number	1
_symmetry_cell_setting	triclinic
loop_
_symmetry_equiv_pos_as_xyz
  x,y,z
_cell_length_a	19.805407
_cell_length_b	16.959453
_cell_length_c	19.805399
_cell_angle_alpha	90.026715
_cell_angle_beta	90.019573
_cell_angle_gamma	90.019988
loop_
_atom_site_label
_atom_site_type_symbol
_atom_site_fract_x
_atom_site_fract_y
_atom_site_fract_z
Zn1	Zn	1.034766	-0.314700	0.382724
Zn2	Zn	1.534766	0.185300	0.882724
Zn3	Zn	1.034693	-0.446882	0.269537
Zn4	Zn	1.534693	0.053118	0.769537
Zn5	Zn	0.921581	-0.314722	0.269548
Zn6	Zn	1.421581	0.185278	0.769548
Zn7	Zn	0.921557	-0.446840	0.382684
Zn8	Zn	1.421557	0.053160	0.882684
O9	O	0.978149	-0.380786	0.326123
O10	O	1.478149	0.119214	0.826123
O11	O	1.129473	-0.332243	0.367721
O12	O	1.629473	0.167757	0.867721
O13	O	1.019668	-0.429378	0.174822
O14	O	1.519668	0.070622	0.674822
O15	O	0.936635	-0.204108	0.284583
O16	O	1.436635	0.295892	0.784583
O17	O	1.129420	-0.429356	0.284564
O18	O	1.629420	0.070644	0.784564
O19	O	1.019792	-0.204092	0.367732
O20	O	1.519792	0.295908	0.867732
O21	O	0.936565	-0.332280	0.174830
O22	O	1.436565	0.167720	0.674830
O23	O	0.826861	-0.332239	0.284544
O24	O	1.326861	0.167761	0.784544
O25	O	0.936595	-0.429285	0.477406
O26	O	1.436595	0.070715	0.977406
O27	O	0.826843	-0.429306	0.367664
O28	O	1.326843	0.070694	0.867664
O29	O	1.019769	-0.332202	0.477435
O30	O	1.519769	0.167798	0.977435
O31	O	1.019645	-0.557488	0.284525
O32	O	1.519645	-0.057488	0.784525
O33	O	0.936524	-0.557457	0.367653
O34	O	1.436524	-0.057457	0.867653
C35	C	0.802293	-0.380771	0.326101
C36	C	1.302293	0.119229	0.826101
C37	C	0.727061	-0.380783	0.326108
C38	C	1.227061	0.119217	0.826108
C39	C	0.691726	-0.431402	0.369319
C40	C	1.191726	0.068598	0.869319
C41	C	0.621037	-0.431404	0.369328
C42	C	1.121037	0.068596	0.869328
C43	C	0.585686	-0.380790	0.326123
C44	C	1.085686	0.119210	0.826123
C45	C	0.621026	-0.330165	0.282911
C46	C	1.121026	0.169835	0.782911
C47	C	0.691713	-0.330160	0.282905
C48	C	1.191713	0.169840	0.782905
C49	C	0.335953	-0.330183	0.282933
C50	C	0.835953	0.169817	0.782933
C51	C	0.265261	-0.330193	0.282941
C52	C	0.765261	0.169807	0.782941
C53	C	0.265277	-0.431426	0.369356
C54	C	0.765277	0.068574	0.869356
C55	C	0.335964	-0.431421	0.369351
C56	C	0.835964	0.068579	0.869351
C57	C	0.371298	-0.380794	0.326141
C58	C	0.871298	0.119206	0.826141
C59	C	0.447947	-0.380792	0.326132
C60	C	0.947947	0.119208	0.826132
C61	C	0.509038	-0.380795	0.326128
C62	C	1.009038	0.119205	0.826128
C63	C	0.978093	-0.586152	0.326098
C64	C	1.478093	-0.086152	0.826098
C65	C	0.978130	-0.674009	0.326111
C66	C	1.478130	-0.174009	0.826111
C67	C	1.021504	-1.045418	0.369501
C68	C	1.521504	-0.545418	0.869501
C69	C	0.934983	-1.045551	0.282846
C70	C	1.434983	-0.545551	0.782846
C71	C	0.934958	-0.963005	0.282831
C72	C	1.434958	-0.463005	0.782831
C73	C	0.978206	-0.921662	0.326152
C74	C	1.478206	-0.421662	0.826152
C75	C	1.021479	-0.962864	0.369488
C76	C	1.521479	-0.462864	0.869488
C77	C	0.891681	-0.921797	0.239500
C78	C	1.391681	-0.421797	0.739500
C79	C	0.891653	-0.839246	0.239483
C80	C	1.391653	-0.339246	0.739483
C81	C	0.934905	-0.797901	0.282801
C82	C	1.434905	-0.297901	0.782801
C83	C	0.978181	-0.839108	0.326139
C84	C	1.478181	-0.339108	0.826139
C85	C	1.021429	-0.797765	0.369460
C86	C	1.521429	-0.297765	0.869460
C87	C	1.064708	-0.838971	0.412795
C88	C	1.564708	-0.338971	0.912795
C89	C	1.064731	-0.921519	0.412806
C90	C	1.564731	-0.421519	0.912806
C91	C	0.934882	-0.715352	0.282790
C92	C	1.434882	-0.215352	0.782790
C93	C	1.021404	-0.715211	0.369447
C94	C	1.521404	-0.215211	0.869447
C95	C	1.154692	-0.380802	0.326146
C96	C	1.654692	0.119198	0.826146
C97	C	1.229924	-0.380808	0.326155
C98	C	1.729924	0.119192	0.826155
C99	C	0.978187	-0.380736	0.502666
C100	C	1.478187	0.119264	1.002666
C101	C	0.978203	-0.380715	0.577898
C102	C	1.478203	0.119285	1.077898
C103	C	0.978224	-0.174618	0.326163
C104	C	1.478224	0.325382	0.826163
C105	C	0.978256	-0.086761	0.326180
C106	C	1.478256	0.413239	0.826180
C107	C	0.978150	-0.380779	0.150267
C108	C	1.478150	0.119221	0.650267
C109	C	0.978265	-0.380577	0.075036
C110	C	1.478265	0.119423	0.575036
C111	C	1.021513	-0.330161	0.613259
C112	C	1.521513	0.169839	1.113259
C113	C	1.021520	-0.330138	0.683947
C114	C	1.521520	0.169862	1.183947
C115	C	0.978220	-0.380674	0.719274
C116	C	1.478220	0.119326	1.219274
C117	C	0.934905	-0.431230	0.683908
C118	C	1.434905	0.068770	1.183908
C119	C	0.934896	-0.431248	0.613221
C120	C	1.434896	0.068752	1.113221
C121	C	0.934944	-0.431156	0.968982
C122	C	1.434944	0.068844	1.468982
C123	C	0.934958	-0.431135	1.039674
C124	C	1.434958	0.068865	1.539674
C125	C	1.021568	-0.330046	1.039708
C126	C	1.521568	0.169954	1.539708
C127	C	1.021558	-0.330065	0.969021
C128	C	1.521558	0.169935	1.469021
C129	C	0.978241	-0.380617	0.933661
C130	C	1.478241	0.119383	1.433661
C131	C	0.978234	-0.380641	0.857013
C132	C	1.478234	0.119359	1.357013
C133	C	0.978231	-0.380655	0.795921
C134	C	1.478231	0.119345	1.295921
H135	H	0.236499	-0.472646	0.404542
H136	H	0.736499	0.027354	0.904542
H137	H	0.899621	-0.472406	0.584432
H138	H	1.399621	0.027594	1.084432
C139	C	0.887992	-1.090539	0.235924
C140	C	1.387992	-0.590539	0.735924
C141	C	0.844611	-1.137951	0.274213
C142	C	1.344611	-0.637951	0.774213
C143	C	0.801320	-1.179416	0.231008
C144	C	1.301320	-0.679416	0.731008
H145	H	0.862153	-1.054268	0.210095
H146	H	1.362153	-0.554268	0.710095
H147	H	0.913896	-1.122789	0.206476
H148	H	1.413896	-0.622789	0.706476
H149	H	0.818710	-1.105703	0.303649
H150	H	1.318710	-0.605703	0.803649
H151	H	0.870432	-1.174235	0.300041
H152	H	1.370432	-0.674235	0.800041
H153	H	0.827224	-1.211666	0.201561
H154	H	1.327224	-0.711666	0.701561
H155	H	0.775486	-1.143140	0.205182
H156	H	1.275486	-0.643140	0.705182
H157	H	0.771886	-1.211595	0.256981
H158	H	1.271886	-0.711595	0.756981
C159	C	0.844694	-0.966788	0.192577
C160	C	1.344694	-0.466788	0.692577
C161	C	0.801319	-1.014210	0.230865
C162	C	1.301319	-0.514210	0.730865
C163	C	0.758033	-1.055681	0.187659
C164	C	1.258033	-0.555681	0.687659
H165	H	0.818849	-0.930521	0.166749
H166	H	1.318849	-0.430521	0.666749
H167	H	0.870601	-0.999033	0.163128
H168	H	1.370601	-0.499033	0.663128
H169	H	0.775414	-0.981968	0.260302
H170	H	1.275414	-0.481968	0.760302
H171	H	0.827145	-1.050491	0.256691
H172	H	1.327145	-0.550491	0.756691
H173	H	0.783941	-1.087925	0.158210
H174	H	1.283941	-0.587925	0.658210
H175	H	0.732193	-1.019408	0.161834
H176	H	1.232193	-0.519408	0.661834
H177	H	0.728603	-1.087866	0.213631
H178	H	1.228603	-0.587866	0.713631
C179	C	1.111593	-0.966307	0.459941
C180	C	1.611593	-0.466307	0.959941
C181	C	1.073242	-1.013674	0.503299
C182	C	1.573242	-0.513674	1.003299
C183	C	1.116381	-1.054942	0.546735
C184	C	1.616381	-0.554942	1.046735
H185	H	1.141119	-0.998575	0.434163
H186	H	1.641119	-0.498575	0.934163
H187	H	1.137338	-0.929895	0.485784
H188	H	1.637338	-0.429895	0.985784
H189	H	1.047507	-1.050082	0.477459
H190	H	1.547507	-0.550082	0.977459
H191	H	1.043717	-0.981426	0.529092
H192	H	1.543717	-0.481426	1.029092
H193	H	1.142127	-1.018531	0.572578
H194	H	1.642127	-0.518531	1.072578
H195	H	1.145906	-1.087206	0.520952
H196	H	1.645906	-0.587206	1.020952
H197	H	1.090366	-1.087081	0.576163
H198	H	1.590366	-0.587081	1.076163
H199	H	1.099918	-0.805299	0.448070
H200	H	1.599918	-0.305299	0.948070
C201	C	0.374392	-0.275350	0.235975
C202	C	0.874392	0.224650	0.735975
C203	C	0.414959	-0.320030	0.192530
C204	C	0.914959	0.179970	0.692530
C205	C	0.450387	-0.269542	0.149266
C206	C	0.950387	0.230458	0.649266
H207	H	0.343287	-0.245195	0.210181
H208	H	0.843287	0.254805	0.710181
H209	H	0.402025	-0.240955	0.261895
H210	H	0.902025	0.259045	0.761895
H211	H	0.387329	-0.354411	0.166612
H212	H	0.887329	0.145589	0.666612
H213	H	0.446076	-0.350183	0.218305
H214	H	0.946076	0.149817	0.718305
H215	H	0.478019	-0.235147	0.175186
H216	H	0.978019	0.264853	0.675186
H217	H	0.419277	-0.239390	0.123476
H218	H	0.919277	0.260610	0.623476
H219	H	0.477920	-0.299850	0.119787
H220	H	0.977920	0.200150	0.619787
H221	H	0.592270	-0.472623	0.404514
H222	H	1.092270	0.027377	0.904514
H223	H	0.592237	-0.288951	0.247735
H224	H	1.092237	0.211049	0.747735
H225	H	0.856414	-0.805701	0.204197
H226	H	1.356414	-0.305701	0.704197
C227	C	1.068575	-0.275376	0.722431
C228	C	1.568575	0.224624	1.222431
C229	C	1.111932	-0.320117	0.763033
C230	C	1.611932	0.179883	1.263033
C231	C	1.155278	-0.269691	0.798503
C232	C	1.655278	0.230309	1.298503
H233	H	1.094429	-0.245261	0.691350
H234	H	1.594429	0.254739	1.191350
H235	H	1.042710	-0.240941	0.750042
H236	H	1.542710	0.259059	1.250042
H237	H	1.137794	-0.354538	0.735425
H238	H	1.637794	0.145462	1.235425
H239	H	1.086096	-0.350231	0.794126
H240	H	1.586096	0.149769	1.294126
H241	H	1.129414	-0.235256	0.826114
H242	H	1.629414	0.264744	1.326114
H243	H	1.181128	-0.239579	0.767417
H244	H	1.681128	0.260421	1.267417
H245	H	1.184697	-0.300040	0.826060
H246	H	1.684697	0.199960	1.326060
H247	H	1.056743	-1.078971	0.404781
H248	H	1.556743	-0.578971	0.904781
H249	H	0.899642	-0.681806	0.247510
H250	H	1.399642	-0.181806	0.747510
H251	H	1.056836	-0.288881	1.068506
H252	H	1.556836	0.211119	1.568506
H253	H	0.899647	-0.472373	0.712677
H254	H	1.399647	0.027627	1.212677
H255	H	1.056775	-0.289012	0.584501
H256	H	1.556775	0.210988	1.084501
C257	C	1.068250	-0.670225	0.416522
C258	C	1.568250	-0.170225	0.916522
C259	C	1.029885	-0.622821	0.459853
C260	C	1.529885	-0.122821	0.959853
C261	C	1.073016	-0.581361	0.503221
C262	C	1.573016	-0.081361	1.003221
H263	H	1.094042	-0.706498	0.442395
H264	H	1.594042	-0.206498	0.942395
H265	H	1.097734	-0.637969	0.390672
H266	H	1.597734	-0.137969	0.890672
H267	H	1.000413	-0.655074	0.485700
H268	H	1.500413	-0.155074	0.985700
H269	H	1.004094	-0.586534	0.433999
H270	H	1.504094	-0.086534	0.933999
H271	H	1.102500	-0.549106	0.477371
H272	H	1.602500	-0.049106	0.977371
H273	H	1.098806	-0.617640	0.529089
H274	H	1.598806	-0.117640	1.029089
H275	H	1.046992	-0.549188	0.532622
H276	H	1.546992	-0.049188	1.032622
C277	C	0.887866	-0.486031	1.077908
C278	C	1.387866	0.013969	1.577908
C279	C	0.849915	-0.530292	1.031814
C280	C	1.349915	-0.030292	1.531814
C281	C	0.806524	-0.580859	1.067010
C282	C	1.306524	-0.080859	1.567010
H283	H	0.913673	-0.520539	1.105483
H284	H	1.413673	-0.020539	1.605483
H285	H	0.858359	-0.455797	1.105471
H286	H	1.358359	0.044203	1.605471
H287	H	0.879418	-0.560524	1.004263
H288	H	1.379418	-0.060524	1.504263
H289	H	0.824094	-0.495805	1.004238
H290	H	1.324094	0.004195	1.504238
H291	H	0.777016	-0.550625	1.094573
H292	H	1.277016	-0.050625	1.594573
H293	H	0.832335	-0.615361	1.094584
H294	H	1.332335	-0.115361	1.594584
H295	H	0.780764	-0.610891	1.035741
H296	H	1.280764	-0.110891	1.535741
C297	C	0.226755	-0.275330	0.236049
C298	C	0.726755	0.224670	0.736049
C299	C	0.157288	-0.286195	0.245286
C300	C	0.657288	0.213805	0.745286
C301	C	0.121796	-0.235686	0.202094
C302	C	0.621796	0.264314	0.702094
H303	H	0.238266	-0.222200	0.245987
H304	H	0.738266	0.277800	0.745987
H305	H	0.238283	-0.286840	0.190541
H306	H	0.738283	0.213160	0.690541
H307	H	0.145764	-0.274680	0.290784
H308	H	0.645764	0.225320	0.790784
H309	H	0.145756	-0.339315	0.235344
H310	H	0.645756	0.160685	0.735344
H311	H	0.133324	-0.247196	0.156585
H312	H	0.633324	0.252804	0.656585
H313	H	0.133312	-0.182559	0.212035
H314	H	0.633312	0.317441	0.712035
H315	H	0.074659	-0.243056	0.208350
H316	H	0.574659	0.256944	0.708350
H317	H	1.056820	-0.288916	0.940261
H318	H	1.556820	0.211084	1.440261
C319	C	0.888024	-0.486092	0.930519
C320	C	1.388024	0.013908	1.430519
C321	C	0.926311	-0.536764	0.889919
C322	C	1.426311	-0.036764	1.389919
C323	C	0.883107	-0.587378	0.854472
C324	C	1.383107	-0.087378	1.354472
H325	H	0.862228	-0.516257	0.961613
H326	H	1.362228	-0.016257	1.461613
H327	H	0.858545	-0.455884	0.902909
H328	H	1.358545	0.044116	1.402909
H329	H	0.955778	-0.566969	0.917527
H330	H	1.455778	-0.066969	1.417527
H331	H	0.952105	-0.506621	0.858812
H332	H	1.452105	-0.006621	1.358812
H333	H	0.853629	-0.557170	0.826861
H334	H	1.353629	-0.057170	1.326861
H335	H	0.857314	-0.617537	0.885571
H336	H	1.357314	-0.117537	1.385571
H337	H	0.909079	-0.621760	0.826916
H338	H	1.409079	-0.121760	1.326916
H339	H	0.720504	-0.472621	0.404499
H340	H	1.220504	0.027379	0.904499
C341	C	0.730046	-0.275305	0.235874
C342	C	1.230046	0.224695	0.735874
C343	C	0.712834	-0.292430	0.168880
C344	C	1.212834	0.207570	0.668880
C345	C	0.748140	-0.241919	0.125536
C346	C	1.248140	0.258081	0.625536
H347	H	0.718510	-0.222183	0.245770
H348	H	1.218510	0.277817	0.745770
H349	H	0.777214	-0.282558	0.242014
H350	H	1.277214	0.217442	0.742014
H351	H	0.665677	-0.285171	0.162743
H352	H	1.165677	0.214829	0.662743
H353	H	0.724372	-0.345543	0.158963
H354	H	1.224372	0.154457	0.658963
H355	H	0.795307	-0.249172	0.131676
H356	H	1.295307	0.250828	0.631676
H357	H	0.736600	-0.188799	0.135438
H358	H	1.236600	0.311201	0.635438
H359	H	0.736471	-0.253536	0.080076
H360	H	1.236471	0.246464	0.580076
H361	H	0.364744	-0.472639	0.404530
H362	H	0.864744	0.027361	0.904530
