data_functionalizedCrystal
_audit_creation_method	'MofGen! by Chris Wilmer'
_symmetry_space_group_name_H-M	'P1'
_symmetry_Int_Tables_number	1
_symmetry_cell_setting	triclinic
loop_
_symmetry_equiv_pos_as_xyz
  x,y,z
_cell_length_a	10.654545
_cell_length_b	19.188924
_cell_length_c	9.730223
_cell_angle_alpha	90.005873
_cell_angle_beta	90.002141
_cell_angle_gamma	83.812522
loop_
_atom_site_label
_atom_site_type_symbol
_atom_site_fract_x
_atom_site_fract_y
_atom_site_fract_z
O1	O	1.665762	0.098047	0.114283
O2	O	1.300085	0.107393	0.114290
O3	O	1.493481	0.001133	0.114270
O4	O	1.472366	0.204307	0.114303
O5	O	1.493471	0.001131	-0.114310
O6	O	1.300075	0.107391	-0.114290
O7	O	1.665752	0.098045	-0.114297
Zn8	Zn	1.482912	0.102717	-0.150586
Zn9	Zn	1.482925	0.102720	0.150578
O10	O	1.472356	0.204305	-0.114277
C11	C	1.253296	0.106706	0.000000
C12	C	1.113896	0.104655	0.000002
C13	C	1.048407	0.103688	-0.124598
C14	C	0.917428	0.101750	-0.124598
C15	C	0.917440	0.101747	0.124612
C16	C	1.048417	0.103681	0.124611
C17	C	1.492793	-0.024884	-0.000021
C18	C	1.490745	-0.102402	-0.000025
C19	C	1.489795	-0.138806	0.124574
C20	C	1.487852	-0.211642	0.124585
C21	C	1.486886	-0.248072	-0.000011
C22	C	1.487829	-0.211658	-0.124627
C23	C	1.489759	-0.138824	-0.124634
N24	N	1.555315	-0.367289	-0.092746
N25	N	1.553484	-0.436479	-0.092731
C26	C	1.481069	-0.467519	0.000002
N27	N	1.410569	-0.426756	0.092741
N28	N	1.412405	-0.357560	0.092730
C29	C	1.484792	-0.327049	-0.000017
C30	C	1.478011	-0.582899	0.124622
C31	C	1.476060	-0.655736	0.124627
C32	C	1.476050	-0.655752	-0.124588
C33	C	1.477988	-0.582916	-0.124590
C34	C	1.478974	-0.546495	0.000019
C35	C	1.712541	0.098731	-0.000004
C36	C	1.851941	0.100782	0.000003
C37	C	1.473044	0.230321	0.000017
C38	C	1.475092	0.307839	0.000030
N39	N	1.482912	0.102715	-0.356122
C40	C	1.568582	0.055681	-0.571949
C41	C	1.568575	0.055682	-0.428066
C42	C	1.397260	0.149756	-0.428068
C43	C	1.397275	0.149758	-0.571949
N44	N	1.482935	0.102716	0.356115
H45	H	1.101741	0.104466	0.226082
H46	H	1.638334	0.017378	-0.630516
C47	C	1.303030	0.201493	-0.348925
N48	N	1.232050	0.240460	-0.289315
H49	H	1.478772	-0.553276	-0.226052
C50	C	0.845394	0.100694	-0.261668
N51	N	0.791138	0.099902	-0.364915
H52	H	1.638318	0.017382	-0.369499
C53	C	1.303049	0.201502	-0.651083
N54	N	1.232082	0.240474	-0.710688
H55	H	1.490594	-0.109156	0.226041
C56	C	1.120431	0.104752	-0.261671
N57	N	1.174677	0.105549	-0.364919
H58	H	1.487071	-0.241287	0.226052
C59	C	0.845399	0.100681	0.261675
N60	N	0.791139	0.099880	0.364914
H61	H	1.487039	-0.241324	-0.226073
H62	H	1.490528	-0.109183	-0.226100
H63	H	1.478806	-0.553243	0.226085
C64	C	1.475078	-0.695784	0.261703
N65	N	1.474364	-0.725951	0.364952
H66	H	1.475253	-0.685412	-0.226037
