data_functionalizedCrystal
_audit_creation_method	'MofGen! by Chris Wilmer'
_symmetry_space_group_name_H-M	'P1'
_symmetry_Int_Tables_number	1
_symmetry_cell_setting	triclinic
loop_
_symmetry_equiv_pos_as_xyz
  x,y,z
_cell_length_a	8.559649
_cell_length_b	14.044220
_cell_length_c	7.681481
_cell_angle_alpha	83.732834
_cell_angle_beta	94.913240
_cell_angle_gamma	81.483771
loop_
_atom_site_label
_atom_site_type_symbol
_atom_site_fract_x
_atom_site_fract_y
_atom_site_fract_z
O1	O	2.101908	-0.021858	-0.146399
O2	O	1.643608	0.026593	-0.146411
O3	O	1.865881	-0.135117	-0.146388
O4	O	1.879635	0.139853	-0.146422
O5	O	1.893233	-0.155061	0.146473
O6	O	1.670961	0.006649	0.146449
O7	O	2.129260	-0.041802	0.146461
Zn8	Zn	1.904453	-0.020743	0.192953
Zn9	Zn	1.868415	0.005534	-0.192903
O10	O	1.906988	0.119909	0.146438
C11	C	1.598278	0.020293	0.000018
C12	C	1.422455	0.031222	0.000014
C13	C	1.873534	-0.179966	0.000043
C14	C	1.855571	-0.283884	0.000045
C15	C	1.822727	-0.474153	0.000018
C16	C	1.950133	-0.541060	0.000016
C17	C	1.931858	-0.646933	0.000002
C18	C	1.840999	-0.368270	0.000033
C19	C	2.174590	-0.035501	0.000029
C20	C	2.350412	-0.046430	0.000021
C21	C	1.899334	0.164757	0.000003
C22	C	1.917296	0.268676	-0.000010
N23	N	1.929059	-0.038678	0.456290
N24	N	1.843820	0.023461	-0.456240
H25	H	1.349615	0.106070	-0.000005
C26	C	2.113754	-0.511240	0.000131
C27	C	2.099599	-0.410638	0.000192
C28	C	2.250287	-0.383130	0.000327
H29	H	2.160191	-0.529042	-0.101963
H30	H	2.179133	-0.543012	0.102305
H31	H	2.034244	-0.378877	-0.101972
H32	H	2.053188	-0.392811	0.102277
H33	H	2.315667	-0.414902	0.102501
H34	H	2.296713	-0.400938	-0.101768
H35	H	2.240705	-0.314871	0.000384
H36	H	1.756808	0.086886	0.468554
C37	C	1.659137	-0.503989	0.000113
C38	C	1.673316	-0.604598	0.000151
C39	C	1.522658	-0.632132	0.000271
H40	H	1.593626	-0.472270	-0.101978
H41	H	1.612841	-0.486151	0.102289
H42	H	1.719590	-0.622426	-0.102014
H43	H	1.738799	-0.636340	0.102235
H44	H	1.476361	-0.614294	0.102446
H45	H	1.457158	-0.600407	-0.101822
H46	H	1.532259	-0.700398	0.000313
C47	C	2.044975	-0.123383	0.556344
C48	C	2.001849	-0.210641	0.511610
C49	C	2.108600	-0.288690	0.603727
H50	H	2.042402	-0.121569	0.679331
H51	H	2.149224	-0.118957	0.526158
H52	H	1.897627	-0.215066	0.541807
H53	H	2.004431	-0.212487	0.388638
H54	H	2.212848	-0.284264	0.573542
H55	H	2.106018	-0.286866	0.726710
H56	H	2.079362	-0.347903	0.573376
H57	H	1.423241	-0.121272	0.000022
