data_functionalizedCrystal
_audit_creation_method	'MofGen! by Chris Wilmer'
_symmetry_space_group_name_H-M	'P1'
_symmetry_Int_Tables_number	1
_symmetry_cell_setting	triclinic
loop_
_symmetry_equiv_pos_as_xyz
  x,y,z
_cell_length_a	17.077404
_cell_length_b	12.594516
_cell_length_c	17.077396
_cell_angle_alpha	90.024014
_cell_angle_beta	90.018362
_cell_angle_gamma	90.016143
loop_
_atom_site_label
_atom_site_type_symbol
_atom_site_fract_x
_atom_site_fract_y
_atom_site_fract_z
Zn1	Zn	1.200080	-0.423800	0.443843
Zn2	Zn	1.533414	-0.090466	0.777177
Zn3	Zn	1.866747	0.242867	1.110510
Zn4	Zn	1.199998	-0.601801	0.312587
Zn5	Zn	1.533332	-0.268467	0.645921
Zn6	Zn	1.866665	0.064866	0.979254
Zn7	Zn	1.068812	-0.423830	0.312594
Zn8	Zn	1.402145	-0.090497	0.645927
Zn9	Zn	1.735479	0.242837	0.979260
Zn10	Zn	1.068791	-0.601730	0.443814
Zn11	Zn	1.402124	-0.268397	0.777147
Zn12	Zn	1.735458	0.064936	1.110480
O13	O	1.134420	-0.512790	0.378210
O14	O	1.467754	-0.179457	0.711543
O15	O	1.801087	0.153876	1.044876
O16	O	1.309916	-0.447429	0.426442
O17	O	1.643250	-0.114095	0.759775
O18	O	1.976583	0.219238	1.093108
O19	O	1.182571	-0.578234	0.202741
O20	O	1.515904	-0.244901	0.536075
O21	O	1.849237	0.088432	0.869408
O22	O	1.086268	-0.274880	0.330019
O23	O	1.419602	0.058453	0.663353
O24	O	1.752935	0.391786	0.996686
O25	O	1.309856	-0.578205	0.330009
O26	O	1.643189	-0.244872	0.663342
O27	O	1.976523	0.088462	0.996675
O28	O	1.182711	-0.274858	0.426448
O29	O	1.516044	0.058475	0.759781
O30	O	1.849377	0.391809	1.093114
O31	O	1.086189	-0.447480	0.202746
O32	O	1.419522	-0.114147	0.536079
O33	O	1.752855	0.219186	0.869413
O34	O	0.958962	-0.447412	0.329991
O35	O	1.292296	-0.114079	0.663324
O36	O	1.625629	0.219254	0.996657
O37	O	1.086232	-0.578085	0.553665
O38	O	1.419566	-0.244752	0.886998
O39	O	1.752899	0.088581	1.220331
O40	O	0.958947	-0.578115	0.426397
O41	O	1.292280	-0.244782	0.759731
O42	O	1.625613	0.088552	1.093064
O43	O	1.182690	-0.447361	0.553686
O44	O	1.516023	-0.114027	0.887020
O45	O	1.849357	0.219306	1.220353
O46	O	1.182550	-0.750737	0.329980
O47	O	1.515883	-0.417404	0.663313
O48	O	1.849217	-0.084070	0.996647
O49	O	1.086153	-0.750685	0.426391
O50	O	1.419486	-0.417352	0.759725
O51	O	1.752819	-0.084019	1.093058
C52	C	0.930473	-0.512760	0.378192
C53	C	1.263806	-0.179427	0.711525
C54	C	1.597139	0.153907	1.044859
C55	C	0.843223	-0.512773	0.378203
C56	C	1.176556	-0.179439	0.711536
C57	C	1.509889	0.153894	1.044870
C58	C	0.802265	-0.444799	0.428492
C59	C	1.135598	-0.111465	0.761826
C60	C	1.468931	0.221868	1.095159
C61	C	0.720284	-0.444805	0.428496
C62	C	1.053618	-0.111472	0.761829
C63	C	1.386951	0.221861	1.095163
C64	C	0.679263	-0.512793	0.378214
C65	C	1.012597	-0.179459	0.711547
C66	C	1.345930	0.153874	1.044880
C67	C	0.720227	-0.580770	0.327919
C68	C	1.053560	-0.247436	0.661252
C69	C	1.386894	0.085897	0.994585
C70	C	0.802206	-0.580757	0.327912
C71	C	1.135539	-0.247423	0.661245
C72	C	1.468873	0.085910	0.994578
C73	C	0.549357	-0.580794	0.327938
C74	C	0.882690	-0.247461	0.661272
C75	C	1.216024	0.085873	0.994605
C76	C	0.467372	-0.580809	0.327946
C77	C	0.800706	-0.247475	0.661279
C78	C	1.134039	0.085858	0.994613
C79	C	0.467435	-0.444843	0.428522
C80	C	0.800769	-0.111509	0.761856
C81	C	1.134102	0.221824	1.095189
C82	C	0.549414	-0.444830	0.428515
C83	C	0.882748	-0.111496	0.761849
C84	C	1.216081	0.221837	1.095182
C85	C	0.590372	-0.512808	0.378221
C86	C	0.923706	-0.179475	0.711555
C87	C	1.257039	0.153858	1.044888
C88	C	1.134361	-0.789331	0.378199
C89	C	1.467695	-0.455998	0.711532
C90	C	1.801028	-0.122665	1.044865
C91	C	1.134408	-0.907637	0.378220
C92	C	1.467741	-0.574303	0.711554
C93	C	1.801075	-0.240970	1.044887
C94	C	1.082020	-1.047664	0.430632
C95	C	1.415353	-0.714331	0.763965
C96	C	1.748687	-0.380997	1.097299
C97	C	1.153582	-0.976757	0.449889
C98	C	1.486916	-0.643424	0.783223
C99	C	1.820249	-0.310091	1.116556
C100	C	1.062853	-0.976971	0.358998
C101	C	1.396186	-0.643638	0.692331
C102	C	1.729519	-0.310305	1.025665
C103	C	1.206136	-1.047516	0.397544
C104	C	1.539470	-0.714182	0.730877
C105	C	1.872803	-0.380849	1.064211
C106	C	1.115358	-1.047736	0.306619
C107	C	1.448692	-0.714402	0.639953
C108	C	1.782025	-0.381069	0.973286
C109	C	1.186970	-0.976861	0.325850
C110	C	1.520304	-0.643528	0.659183
C111	C	1.853637	-0.310195	0.992516
C112	C	1.339165	-0.512821	0.378228
C113	C	1.672498	-0.179488	0.711561
C114	C	2.005831	0.153845	1.044894
C115	C	1.426414	-0.512835	0.378235
C116	C	1.759748	-0.179501	0.711569
C117	C	2.093081	0.153832	1.044902
C118	C	1.134468	-0.512712	0.582954
C119	C	1.467801	-0.179378	0.916287
C120	C	1.801135	0.153955	1.249621
C121	C	1.134488	-0.512678	0.670204
C122	C	1.467821	-0.179345	1.003537
C123	C	1.801155	0.153988	1.336870
C124	C	1.134501	-0.235169	0.378238
C125	C	1.467834	0.098164	0.711571
C126	C	1.801168	0.431497	1.044904
C127	C	1.134535	-0.116864	0.378249
C128	C	1.467869	0.216469	0.711583
C129	C	1.801202	0.549803	1.044916
C130	C	1.134418	-0.512792	0.174262
C131	C	1.467752	-0.179458	0.507595
C132	C	1.801085	0.153875	0.840928
C133	C	1.134550	-0.512525	0.087012
C134	C	1.467883	-0.179192	0.420346
C135	C	1.801217	0.154142	0.753679
C136	C	1.184716	-0.444604	0.711206
C137	C	1.518049	-0.111271	1.044540
C138	C	1.851382	0.222062	1.377873
C139	C	1.184725	-0.444569	0.793187
C140	C	1.518058	-0.111236	1.126520
C141	C	1.851392	0.222098	1.459854
C142	C	1.134510	-0.512614	0.834163
C143	C	1.467844	-0.179280	1.167497
C144	C	1.801177	0.154053	1.500830
C145	C	1.084277	-0.580691	0.793155
C146	C	1.417611	-0.247357	1.126488
C147	C	1.750944	0.085976	1.459821
C148	C	1.084265	-0.580720	0.711176
C149	C	1.417598	-0.247387	1.044509
C150	C	1.750931	0.085947	1.377842
C151	C	1.084309	-0.580627	0.964025
C152	C	1.417642	-0.247293	1.297358
C153	C	1.750976	0.086040	1.630692
C154	C	1.084323	-0.580599	1.046010
C155	C	1.417656	-0.247266	1.379343
C156	C	1.750989	0.086067	1.712676
C157	C	1.184769	-0.444476	1.046036
C158	C	1.518103	-0.111142	1.379369
C159	C	1.851436	0.222191	1.712703
C160	C	1.184757	-0.444505	0.964057
C161	C	1.518090	-0.111172	1.297390
C162	C	1.851423	0.222162	1.630724
C163	C	1.134524	-0.512584	0.923054
C164	C	1.467858	-0.179250	1.256388
C165	C	1.801191	0.154083	1.589721
H166	H	0.434083	-0.389490	0.469472
H167	H	0.767417	-0.056156	0.802806
H168	H	1.100750	0.277177	1.136139
H169	H	1.266722	-1.078376	0.413885
H170	H	1.600055	-0.745043	0.747218
H171	H	1.933388	-0.411710	1.080551
H172	H	1.225669	-0.389042	1.079425
H173	H	1.559002	-0.055708	1.412758
H174	H	1.892336	0.277625	1.746091
H175	H	0.686821	-0.636121	0.286974
H176	H	1.020155	-0.302788	0.620308
H177	H	1.353488	0.030546	0.953641
H178	H	1.043432	-0.636005	1.079370
H179	H	1.376765	-0.302672	1.412704
H180	H	1.710099	0.030662	1.746037
H181	H	0.835553	-0.636108	0.286960
H182	H	1.168886	-0.302774	0.620294
H183	H	1.502220	0.030559	0.953627
H184	H	1.002285	-0.945978	0.342728
H185	H	1.335618	-0.612645	0.676061
H186	H	1.668952	-0.279311	1.009395
H187	H	1.169753	-0.945583	0.510453
H188	H	1.503087	-0.612250	0.843786
H189	H	1.836420	-0.278916	1.177120
H190	H	1.037719	-1.078749	0.474976
H191	H	1.371052	-0.745415	0.808310
H192	H	1.704385	-0.412082	1.141643
H193	H	1.043356	-0.636142	0.677792
H194	H	1.376690	-0.302809	1.011126
H195	H	1.710023	0.030524	1.344459
H196	H	1.231377	-0.945971	0.281539
H197	H	1.564711	-0.612637	0.614872
H198	H	1.898044	-0.279304	0.948206
H199	H	1.099166	-1.078934	0.246073
H200	H	1.432500	-0.745601	0.579407
H201	H	1.765833	-0.412268	0.912740
H202	H	1.225650	-0.389103	0.930696
H203	H	1.558983	-0.055769	1.264030
H204	H	1.892317	0.277564	1.597363
H205	H	1.225609	-0.389197	0.677849
H206	H	1.558942	-0.055864	1.011183
H207	H	1.892275	0.277469	1.344516
H208	H	1.225627	-0.389139	0.826568
H209	H	1.558960	-0.055805	1.159901
H210	H	1.892294	0.277528	1.493234
H211	H	0.686940	-0.389456	0.469448
H212	H	1.020273	-0.056123	0.802781
H213	H	1.353607	0.277211	1.136115
H214	H	1.043392	-0.636047	0.930643
H215	H	1.376726	-0.302714	1.263976
H216	H	1.710059	0.030620	1.597310
H217	H	0.835658	-0.389438	0.469440
H218	H	1.168991	-0.056105	0.802774
H219	H	1.502325	0.277229	1.136107
H220	H	0.582811	-0.389475	0.469464
H221	H	0.916145	-0.056141	0.802798
H222	H	1.249478	0.277192	1.136131
H223	H	1.043389	-0.636090	0.826524
H224	H	1.376722	-0.302757	1.159857
H225	H	1.710056	0.030577	1.493191
H226	H	0.433975	-0.636171	0.287002
H227	H	0.767309	-0.302837	0.620336
H228	H	1.100642	0.030496	0.953669
H229	H	0.582703	-0.636147	0.286981
H230	H	0.916036	-0.302814	0.620315
H231	H	1.249369	0.030520	0.953648
