data_functionalizedCrystal
_audit_creation_method	'MofGen! by Chris Wilmer'
_symmetry_space_group_name_H-M	'P1'
_symmetry_Int_Tables_number	1
_symmetry_cell_setting	triclinic
loop_
_symmetry_equiv_pos_as_xyz
  x,y,z
_cell_length_a	12.827892
_cell_length_b	12.827893
_cell_length_c	12.827885
_cell_angle_alpha	89.980728
_cell_angle_beta	89.970214
_cell_angle_gamma	90.015553
loop_
_atom_site_label
_atom_site_type_symbol
_atom_site_fract_x
_atom_site_fract_y
_atom_site_fract_z
Zn1	Zn	-0.415978	1.597670	-0.590849
Zn2	Zn	0.084022	2.097670	-0.090849
Zn3	Zn	-0.590755	1.597564	-0.416109
Zn4	Zn	-0.090755	2.097564	0.083891
Zn5	Zn	-0.416029	1.422911	-0.416122
Zn6	Zn	0.083971	1.922911	0.083878
Zn7	Zn	-0.590678	1.422896	-0.590809
Zn8	Zn	-0.090678	1.922896	-0.090809
O9	O	-0.503360	1.510260	-0.503472
O10	O	-0.003360	2.010260	-0.003472
O11	O	-0.439173	1.743892	-0.567680
O12	O	0.060827	2.243892	-0.067680
O13	O	-0.567631	1.574357	-0.269875
O14	O	-0.067631	2.074357	0.230125
O15	O	-0.269787	1.446144	-0.439322
O16	O	0.230213	1.946144	0.060678
O17	O	-0.567582	1.743814	-0.439300
O18	O	-0.067582	2.243814	0.060700
O19	O	-0.269749	1.574538	-0.567693
O20	O	0.230251	2.074538	-0.067693
O21	O	-0.439261	1.446041	-0.269884
O22	O	0.060739	1.946041	0.230116
O23	O	-0.439186	1.276673	-0.439284
O24	O	0.060814	1.776673	0.060716
O25	O	-0.567450	1.446118	-0.737050
O26	O	-0.067450	1.946118	-0.237050
O27	O	-0.567500	1.276662	-0.567625
O28	O	-0.067500	1.776662	-0.067625
O29	O	-0.439098	1.574524	-0.737080
O30	O	0.060902	2.074524	-0.237080
O31	O	-0.736981	1.574343	-0.439261
O32	O	-0.236981	2.074343	0.060739
O33	O	-0.736924	1.446016	-0.567612
O34	O	-0.236924	1.946016	-0.067612
C35	C	-0.503341	1.238750	-0.503452
C36	C	-0.003341	1.738750	-0.003452
C37	C	-0.503358	1.122597	-0.503469
C38	C	-0.003358	1.622597	-0.003469
C39	C	-0.439930	1.070851	-0.567094
C40	C	0.060070	1.570851	-0.067094
C41	C	-0.439946	0.950800	-0.567113
C42	C	0.060054	1.450800	-0.067113
C43	C	-0.774870	1.510195	-0.503454
C44	C	-0.274870	2.010195	-0.003454
C45	C	-0.891023	1.510262	-0.503481
C46	C	-0.391023	2.010262	-0.003481
C47	C	-0.942801	1.573838	-0.440039
C48	C	-0.442801	2.073838	0.059961
C49	C	-1.062852	1.573910	-0.440066
C50	C	-0.562852	2.073910	0.059934
C51	C	-0.230790	1.510354	-0.503514
C52	C	0.269210	2.010354	-0.003514
C53	C	-0.114637	1.510394	-0.503531
C54	C	0.385363	2.010394	-0.003531
C55	C	-0.503260	1.510331	-0.776043
C56	C	-0.003260	2.010331	-0.276043
C57	C	-0.503217	1.510362	-0.892196
C58	C	-0.003217	2.010362	-0.392196
C59	C	-0.503380	1.782830	-0.503493
C60	C	-0.003380	2.282830	-0.003493
C61	C	-0.503389	1.898983	-0.503502
C62	C	-0.003389	2.398983	-0.003502
C63	C	-0.439692	1.573907	-0.943995
C64	C	0.060308	2.073907	-0.443995
C65	C	-0.439647	1.573940	-1.064045
C66	C	0.060353	2.073940	-0.564045
C67	C	-0.503385	1.510249	-0.231962
C68	C	-0.003385	2.010249	0.268038
C69	C	-0.503133	1.510422	-0.115810
C70	C	-0.003133	2.010422	0.384190
H71	H	-0.385612	1.115425	-0.621549
H72	H	0.114388	1.615425	-0.121549
H73	H	-0.385647	0.906300	-0.621588
H74	H	0.114353	1.406300	-0.121588
C75	C	-0.882637	1.647303	-0.366634
C76	C	-0.382637	2.147303	0.133366
H77	H	-0.930689	1.687204	-0.326840
H78	H	-0.430689	2.187204	0.173160
H79	H	-0.840123	1.607292	-0.321097
H80	H	-0.340123	2.107292	0.178903
H81	H	-0.839993	1.692754	-0.406687
H82	H	-0.339993	2.192754	0.093313
C83	C	-1.122997	1.647438	-0.366684
C84	C	-0.622997	2.147438	0.133316
H85	H	-1.195794	1.637843	-0.376331
H86	H	-0.695794	2.137843	0.123669
H87	H	-1.105223	1.632188	-0.296438
H88	H	-0.605223	2.132188	0.203562
H89	H	-1.105092	1.717654	-0.382025
H90	H	-0.605092	2.217654	0.117975
C91	C	-0.951188	1.436802	-0.576889
C92	C	-0.451188	1.936802	-0.076889
H93	H	-0.903135	1.396911	-0.616694
H94	H	-0.403135	1.896911	-0.116694
H95	H	-0.993840	1.391356	-0.536849
H96	H	-0.493840	1.891356	-0.036849
H97	H	-0.993694	1.476825	-0.622433
H98	H	-0.493694	1.976825	-0.122433
H99	H	-0.557526	1.456019	-1.071270
H100	H	-0.057526	1.956019	-0.571270
H101	H	-0.385336	1.628283	-0.899465
H102	H	0.114664	2.128283	-0.399465
H103	H	-1.070117	1.455957	-0.557845
H104	H	-0.570117	1.955957	-0.057845
H105	H	-0.557700	0.943477	-0.449032
H106	H	-0.057700	1.443477	0.050968
C107	C	-0.366173	1.647442	-1.124210
C108	C	0.133827	2.147442	-0.624210
H109	H	-0.326354	1.687294	-1.076160
H110	H	0.173646	2.187294	-0.576160
H111	H	-0.320661	1.607460	-1.166797
H112	H	0.179339	2.107460	-0.666797
H113	H	-0.406183	1.692939	-1.166782
H114	H	0.093817	2.192939	-0.666782
C115	C	-0.576736	1.062396	-0.429894
C116	C	-0.076736	1.562396	0.070106
H117	H	-0.616524	1.110428	-0.389968
H118	H	-0.116524	1.610428	0.110032
H119	H	-0.622282	1.019827	-0.469834
H120	H	-0.122282	1.519827	0.030166
H121	H	-0.536667	1.019804	-0.384470
H122	H	-0.036667	1.519804	0.115530
C123	C	-0.576646	1.436893	-0.952336
C124	C	-0.076646	1.936893	-0.452336
H125	H	-0.616502	1.397016	-0.904270
H126	H	-0.116502	1.897016	-0.404270
H127	H	-0.622125	1.476901	-0.994915
H128	H	-0.122125	1.976901	-0.494915
H129	H	-0.536605	1.391420	-0.994914
H130	H	-0.036605	1.891420	-0.494914
