data_functionalizedCrystal
_audit_creation_method	'MofGen! by Chris Wilmer'
_symmetry_space_group_name_H-M	'P1'
_symmetry_Int_Tables_number	1
_symmetry_cell_setting	triclinic
loop_
_symmetry_equiv_pos_as_xyz
  x,y,z
_cell_length_a	14.044220
_cell_length_b	14.044220
_cell_length_c	11.295483
_cell_angle_alpha	94.468632
_cell_angle_beta	85.525227
_cell_angle_gamma	93.188878
loop_
_atom_site_label
_atom_site_type_symbol
_atom_site_fract_x
_atom_site_fract_y
_atom_site_fract_z
O1	O	1.283048	0.224289	-0.098902
O2	O	1.533048	0.474289	0.151098
O3	O	1.783048	0.724289	0.401098
O4	O	2.033048	0.974289	0.651098
O5	O	1.006378	0.215982	-0.098932
O6	O	1.256378	0.465982	0.151068
O7	O	1.506378	0.715982	0.401068
O8	O	1.756378	0.965982	0.651068
O9	O	1.140559	0.081800	-0.098906
O10	O	1.390559	0.331800	0.151094
O11	O	1.640559	0.581800	0.401094
O12	O	1.890559	0.831800	0.651094
O13	O	1.148866	0.358470	-0.098929
O14	O	1.398866	0.608470	0.151071
O15	O	1.648866	0.858470	0.401071
O16	O	1.898866	1.108470	0.651071
O17	O	1.128772	0.093566	0.099143
O18	O	1.378772	0.343566	0.349143
O19	O	1.628772	0.593566	0.599143
O20	O	1.878772	0.843566	0.849143
O21	O	0.994591	0.227747	0.099116
O22	O	1.244591	0.477747	0.349116
O23	O	1.494591	0.727747	0.599116
O24	O	1.744591	0.977747	0.849116
O25	O	1.271261	0.236055	0.099146
O26	O	1.521261	0.486055	0.349146
O27	O	1.771261	0.736055	0.599146
O28	O	2.021261	0.986055	0.849146
Cu29	Cu	1.131850	0.232975	0.117215
Cu30	Cu	1.381850	0.482975	0.367215
Cu31	Cu	1.631850	0.732975	0.617215
Cu32	Cu	1.881850	0.982975	0.867215
Cu33	Cu	1.145789	0.219061	-0.117001
Cu34	Cu	1.395789	0.469061	0.132999
Cu35	Cu	1.645789	0.719061	0.382999
Cu36	Cu	1.895789	0.969061	0.632999
O37	O	1.137079	0.370236	0.099120
O38	O	1.387079	0.620236	0.349120
O39	O	1.637079	0.870236	0.599120
O40	O	1.887079	1.120236	0.849120
C41	C	0.964863	0.218229	0.000088
C42	C	1.214863	0.468229	0.250088
C43	C	1.464863	0.718229	0.500088
C44	C	1.714863	0.968229	0.750088
C45	C	0.858721	0.207383	0.000077
C46	C	1.108721	0.457383	0.250077
C47	C	1.358721	0.707383	0.500077
C48	C	1.608721	0.957383	0.750077
C49	C	1.131030	0.052061	0.000118
C50	C	1.381030	0.302061	0.250118
C51	C	1.631030	0.552061	0.500118
C52	C	1.881030	0.802061	0.750118
C53	C	1.120186	-0.054081	0.000119
C54	C	1.370186	0.195919	0.250119
C55	C	1.620186	0.445919	0.500119
C56	C	1.870186	0.695919	0.750119
C57	C	0.664382	0.187559	0.000102
C58	C	0.914382	0.437559	0.250102
C59	C	1.164382	0.687559	0.500102
C60	C	1.414382	0.937559	0.750102
C61	C	0.613252	0.264473	0.000101
C62	C	0.863252	0.514473	0.250101
C63	C	1.113252	0.764473	0.500101
C64	C	1.363252	1.014473	0.750101
C65	C	0.505115	0.253442	0.000115
C66	C	0.755115	0.503442	0.250115
C67	C	1.005115	0.753442	0.500115
C68	C	1.255115	1.003442	0.750115
C69	C	0.772528	0.198588	0.000088
C70	C	1.022528	0.448588	0.250088
C71	C	1.272528	0.698588	0.500088
C72	C	1.522528	0.948588	0.750088
C73	C	1.100360	-0.248420	0.000099
C74	C	1.350360	0.001580	0.250099
C75	C	1.600360	0.251580	0.500099
C76	C	1.850360	0.501580	0.750099
C77	C	1.177275	-0.299550	0.000104
C78	C	1.427275	-0.049550	0.250104
C79	C	1.677275	0.200450	0.500104
C80	C	1.927275	0.450450	0.750104
C81	C	1.166244	-0.407687	0.000093
C82	C	1.416244	-0.157687	0.250093
C83	C	1.666244	0.092313	0.500093
C84	C	1.916244	0.342313	0.750093
C85	C	1.111390	-0.140274	0.000110
C86	C	1.361390	0.109726	0.250110
C87	C	1.611390	0.359726	0.500110
C88	C	1.861390	0.609726	0.750110
C89	C	1.312776	0.233808	0.000123
C90	C	1.562776	0.483808	0.250123
C91	C	1.812776	0.733808	0.500123
C92	C	2.062776	0.983808	0.750123
C93	C	1.418919	0.244652	0.000126
C94	C	1.668919	0.494652	0.250126
C95	C	1.918919	0.744652	0.500126
C96	C	2.168919	0.994652	0.750126
C97	C	1.146609	0.399975	0.000093
C98	C	1.396609	0.649975	0.250093
C99	C	1.646609	0.899975	0.500093
C100	C	1.896609	1.149975	0.750093
C101	C	1.157454	0.506117	0.000085
C102	C	1.407454	0.756117	0.250085
C103	C	1.657454	1.006117	0.500085
C104	C	1.907454	1.256117	0.750085
N105	N	1.122052	0.242762	0.281949
N106	N	1.372052	0.492762	0.531949
N107	N	1.622052	0.742762	0.781949
N108	N	1.872052	0.992762	1.031949
N109	N	1.155594	0.209268	-0.281735
N110	N	1.405594	0.459268	-0.031735
N111	N	1.655594	0.709268	0.218265
N112	N	1.905594	0.959268	0.468265
C113	C	1.226117	0.138766	0.531259
C114	C	1.476117	0.388766	0.781259
C115	C	1.726117	0.638766	1.031259
C116	C	1.976117	0.888766	1.281259
C117	C	1.218720	0.146169	0.655921
C118	C	1.468720	0.396169	0.905921
C119	C	1.718720	0.646169	1.155921
C120	C	1.968720	0.896169	1.405921
C121	C	1.099858	0.264966	0.655938
C122	C	1.349858	0.514966	0.905938
C123	C	1.599858	0.764966	1.155938
C124	C	1.849858	1.014966	1.405938
C125	C	1.107254	0.257562	0.531276
C126	C	1.357254	0.507562	0.781276
C127	C	1.607254	0.757562	1.031276
C128	C	1.857254	1.007562	1.281276
C129	C	1.170387	0.194462	0.468941
C130	C	1.420387	0.444462	0.718941
C131	C	1.670387	0.694462	0.968941
C132	C	1.920387	0.944462	1.218941
C133	C	1.177788	0.187064	0.344276
C134	C	1.427788	0.437064	0.594276
C135	C	1.677788	0.687064	0.844276
C136	C	1.927788	0.937064	1.094276
C137	C	1.058921	0.305855	0.344295
C138	C	1.308921	0.555855	0.594295
C139	C	1.558921	0.805855	0.844295
C140	C	1.808921	1.055855	1.094295
C141	C	1.051525	0.313258	0.468957
C142	C	1.301525	0.563258	0.718957
C143	C	1.551525	0.813258	0.968957
C144	C	1.801525	1.063258	1.218957
H145	H	0.650692	0.338606	0.000089
H146	H	0.900692	0.588606	0.250089
H147	H	1.150692	0.838606	0.500089
H148	H	1.400692	1.088606	0.750089
H149	H	0.626944	0.113432	0.000115
H150	H	0.876944	0.363432	0.250115
H151	H	1.126944	0.613432	0.500115
H152	H	1.376944	0.863432	0.750115
H153	H	1.277529	0.087393	0.480505
H154	H	1.527529	0.337393	0.730505
H155	H	1.777529	0.587393	0.980505
H156	H	2.027529	0.837393	1.230505
H157	H	1.264099	0.100814	0.706657
H158	H	1.514099	0.350814	0.956657
H159	H	1.764099	0.600814	1.206657
H160	H	2.014099	0.850814	1.456657
H161	H	1.048450	0.316334	0.706707
H162	H	1.298450	0.566334	0.956707
H163	H	1.548450	0.816334	1.206707
H164	H	1.798450	1.066334	1.456707
H165	H	1.251412	-0.262115	0.000032
H166	H	1.501412	-0.012115	0.250032
H167	H	1.751412	0.237885	0.500032
H168	H	2.001412	0.487885	0.750032
H169	H	1.026234	-0.285858	0.000089
H170	H	1.276234	-0.035858	0.250089
H171	H	1.526234	0.214142	0.500089
H172	H	1.776234	0.464142	0.750089
H173	H	1.229196	0.135687	0.293524
H174	H	1.479196	0.385687	0.543524
H175	H	1.729196	0.635687	0.793524
H176	H	1.979196	0.885687	1.043524
H177	H	1.000120	0.364631	0.519725
H178	H	1.250120	0.614631	0.769725
H179	H	1.500120	0.864631	1.019725
H180	H	1.750120	1.114631	1.269725
H181	H	1.013545	0.351209	0.293541
H182	H	1.263545	0.601209	0.543541
H183	H	1.513545	0.851209	0.793541
H184	H	1.763545	1.101209	1.043541
