data_functionalizedCrystal
_audit_creation_method	'MofGen! by Chris Wilmer'
_symmetry_space_group_name_H-M	'P1'
_symmetry_Int_Tables_number	1
_symmetry_cell_setting	triclinic
loop_
_symmetry_equiv_pos_as_xyz
  x,y,z
_cell_length_a	15.698487
_cell_length_b	21.606444
_cell_length_c	21.606444
_cell_angle_alpha	60.001331
_cell_angle_beta	90.001483
_cell_angle_gamma	59.999624
loop_
_atom_site_label
_atom_site_type_symbol
_atom_site_fract_x
_atom_site_fract_y
_atom_site_fract_z
Zr1	Zr	0.820595	0.677465	-0.081210
O2	O	0.684571	0.806586	-0.180031
O3	O	0.862295	0.548346	-0.050919
O4	O	0.862284	0.677470	-0.180037
O5	O	0.684589	0.677457	0.050941
O6	O	1.002465	0.677473	-0.180039
O7	O	0.684582	0.677462	-0.050913
O8	O	1.002484	0.446494	0.050930
O9	O	0.684570	0.908436	-0.180028
O10	O	0.984693	0.601456	-0.037998
O11	O	0.880083	0.601451	0.038016
O12	O	0.880070	0.753478	-0.114004
O13	O	0.775460	0.753473	-0.037991
Zr14	Zr	1.044179	0.677462	0.081233
Zr15	Zr	1.044168	0.677469	-0.081212
Zr16	Zr	0.820606	0.677458	0.081236
Zr17	Zr	0.820593	0.839906	-0.081205
Zr18	Zr	1.044181	0.515022	0.081228
O19	O	1.002479	0.806581	0.050942
O20	O	1.002463	0.806591	-0.180035
O21	O	0.684588	0.806576	0.050946
O22	O	1.180202	0.548342	0.180054
O23	O	1.180186	0.548352	-0.050922
O24	O	0.862311	0.548337	0.180058
O25	O	1.180184	0.677470	-0.050918
O26	O	1.002490	0.677457	0.180060
O27	O	0.862309	0.677455	0.180062
O28	O	1.180191	0.677466	0.050936
O29	O	0.862280	0.908439	-0.180030
O30	O	1.002493	0.446488	0.180053
O31	O	1.180204	0.446491	0.180051
O32	O	1.180195	0.446497	0.050928
O33	O	0.684579	0.908431	-0.050905
O34	O	0.862289	0.908434	-0.050907
O35	O	0.984704	0.601450	0.114027
O36	O	1.089314	0.601455	0.038014
O37	O	0.984691	0.753476	-0.037993
O38	O	0.880081	0.753471	0.038021
C39	C	0.932390	0.474276	0.000005
C40	C	0.932391	0.405316	0.000003
C41	C	0.986994	0.372921	-0.039677
C42	C	0.986998	0.308121	-0.039672
C43	C	0.932391	0.275721	0.000009
C44	C	0.877787	0.308119	0.039693
C45	C	0.877790	0.372913	0.039692
C46	C	0.877774	0.046810	0.039700
C47	C	0.877773	-0.017987	0.039696
C48	C	0.986982	-0.017983	-0.039664
C49	C	0.986985	0.046811	-0.039665
C50	C	0.932386	0.079200	0.000022
C51	C	0.932384	0.149462	0.000017
C52	C	0.932387	0.205465	0.000010
C53	C	0.652732	0.677459	0.000015
C54	C	0.557819	0.677457	0.000016
C55	C	0.384034	0.677473	0.000009
C56	C	0.480738	0.677468	0.000011
C57	C	1.212042	0.677469	0.000008
C58	C	1.306955	0.677470	0.000007
C59	C	0.932373	0.677473	-0.203183
C60	C	0.932368	0.677476	-0.272145
C61	C	0.932384	0.880652	0.000018
C62	C	0.932383	0.949612	0.000020
C63	C	0.877755	0.756829	-0.344219
C64	C	0.877764	0.756826	-0.409014
C65	C	0.932380	0.677470	-0.401734
C66	C	0.987000	0.598110	-0.329653
C67	C	0.986996	0.598114	-0.264859
C68	C	0.987016	0.598095	-0.590956
C69	C	0.987013	0.598098	-0.655757
C70	C	0.877784	0.756808	-0.735110
C71	C	0.877781	0.756811	-0.670317
C72	C	0.932404	0.677452	-0.598242
C73	C	0.932395	0.677456	-0.527984
C74	C	0.932384	0.677465	-0.471989
C75	C	0.932401	0.677455	0.203206
C76	C	0.932406	0.677452	0.272169
C77	C	1.212045	0.474281	0.000002
C78	C	1.306959	0.405322	-0.000001
C79	C	0.932404	0.474267	0.203200
C80	C	0.932410	0.405304	0.272160
C81	C	1.212059	0.474272	0.203196
C82	C	1.306978	0.405311	0.272156
C83	C	0.652714	0.880656	-0.203173
C84	C	0.557796	0.949617	-0.272132
C85	C	0.652729	0.880647	0.000021
C86	C	0.557815	0.949605	0.000025
C87	C	0.932370	0.880661	-0.203176
C88	C	0.932364	0.949624	-0.272137
C89	C	1.296920	0.372939	-0.039687
C90	C	1.386093	0.308154	-0.039705
C91	C	1.485303	0.275749	-0.000033
C92	C	1.495340	0.308139	0.039654
C93	C	1.406168	0.372927	0.039667
C94	C	0.987024	0.372917	0.344228
C95	C	0.987025	0.308128	0.409030
C96	C	0.932418	0.275723	0.401761
C97	C	0.877798	0.308115	0.329685
C98	C	0.877791	0.372908	0.264885
C99	C	1.406167	0.372928	0.264861
C100	C	1.495362	0.308141	0.329649
C101	C	1.485364	0.275732	0.401731
C102	C	1.386164	0.308121	0.409024
C103	C	1.296972	0.372912	0.344237
C104	C	0.458607	0.982007	-0.264838
C105	C	0.369412	1.046815	-0.329626
C106	C	0.379410	1.079227	-0.401708
C107	C	0.478610	1.046834	-0.409001
C108	C	0.567802	0.982032	-0.344214
C109	C	0.567854	0.981995	0.039703
C110	C	0.478681	1.046798	0.039704
C111	C	0.379471	1.079205	0.000029
C112	C	0.369434	1.046813	-0.039654
C113	C	0.458606	0.982016	-0.039659
C114	C	0.986981	0.982009	-0.264844
C115	C	0.986996	1.046799	-0.329633
C116	C	0.932387	1.079206	-0.401714
C117	C	0.877768	1.046814	-0.409006
C118	C	0.877760	0.982022	-0.344217
H119	H	0.833323	0.399291	0.072001
H120	H	1.031460	0.281744	-0.071981
C121	C	1.417228	0.408532	0.083335
N122	N	1.425567	0.435346	0.116230
C123	C	0.817745	1.082441	-0.488302
N124	N	0.772547	1.109269	-0.548031
H125	H	0.450446	0.955621	-0.206151
H126	H	0.833331	0.281730	0.072006
H127	H	0.833279	0.955661	-0.350166
C128	C	1.187796	0.408578	-0.083338
N129	N	1.105607	0.435421	-0.116222
C130	C	0.817740	0.272455	0.321703
N131	N	0.772511	0.245589	0.315692
H132	H	1.031447	0.073192	-0.071980
H133	H	1.576126	0.281776	0.323698
H134	H	0.833304	-0.044366	0.072011
H135	H	1.031472	1.073165	-0.323682
H136	H	0.306775	1.131993	-0.454456
H137	H	1.031445	-0.044364	-0.071977
C138	C	0.676908	0.946399	-0.352250
N139	N	0.759087	0.919563	-0.358309
C140	C	0.260302	1.082434	-0.321587
N141	N	0.178123	1.109260	-0.315529
H142	H	0.833320	0.073170	0.072019
C143	C	0.676977	0.946363	0.083347
N144	N	0.759167	0.919534	0.116218
C145	C	0.817641	0.844121	-0.488294
N146	N	0.772337	0.909876	-0.548010
C147	C	1.047093	0.408557	0.352242
N148	N	1.092334	0.435401	0.358284
C149	C	0.489745	1.082410	0.083367
N150	N	0.498081	1.109230	0.116257
H151	H	0.486737	1.073232	-0.467698
H152	H	0.306870	1.131967	0.000039
H153	H	1.216211	0.399269	0.350187
C154	C	0.260292	1.082459	-0.083281
N155	N	0.178084	1.109302	-0.116133
C156	C	0.447545	0.946384	-0.083301
N157	N	0.439207	0.919548	-0.116174
C158	C	1.375184	0.272455	0.488322
N159	N	1.366918	0.245584	0.548051
H160	H	1.031451	0.955633	-0.206158
C161	C	1.047126	0.272500	0.488306
N162	N	1.092398	0.245664	0.548015
H163	H	0.932402	1.131965	-0.454463
H164	H	1.576129	0.281745	0.071953
C165	C	0.817702	0.844109	-0.678331
N166	N	0.772454	0.909864	-0.684370
H167	H	1.031455	0.399300	-0.071993
C168	C	1.047094	0.510798	-0.511680
N169	N	1.092344	0.445042	-0.451966
H170	H	1.377900	0.281791	-0.072023
C171	C	1.047076	0.510817	-0.321646
N172	N	1.092322	0.445066	-0.315615
C173	C	1.583385	0.204474	-0.000050
N174	N	1.657257	0.150787	-0.000062
C175	C	0.817721	0.408516	0.185611
N176	N	0.772474	0.435332	0.125903
H177	H	0.833273	0.821450	-0.350155
C178	C	1.583489	0.204454	0.472992
N179	N	1.657401	0.150763	0.526664
H180	H	0.833310	0.821425	-0.793803
H181	H	1.414327	0.399306	0.206174
H182	H	1.031467	0.533496	-0.206174
H183	H	1.031492	0.533473	-0.649821
H184	H	0.932432	0.222964	0.454532
