data_functionalizedCrystal
_audit_creation_method	'MofGen! by Chris Wilmer'
_symmetry_space_group_name_H-M	'P1'
_symmetry_Int_Tables_number	1
_symmetry_cell_setting	triclinic
loop_
_symmetry_equiv_pos_as_xyz
  x,y,z
_cell_length_a	19.077236
_cell_length_b	16.625545
_cell_length_c	19.076919
_cell_angle_alpha	92.272080
_cell_angle_beta	89.887323
_cell_angle_gamma	92.318364
loop_
_atom_site_label
_atom_site_type_symbol
_atom_site_fract_x
_atom_site_fract_y
_atom_site_fract_z
Zn1	Zn	1.058286	-0.292691	-0.440544
Zn2	Zn	1.391620	0.040642	-0.107211
Zn3	Zn	1.724953	0.373975	0.226123
Zn4	Zn	1.062924	-0.421908	-0.323038
Zn5	Zn	1.396258	-0.088574	0.010295
Zn6	Zn	1.729591	0.244759	0.343628
Zn7	Zn	0.945502	-0.292269	-0.318324
Zn8	Zn	1.278835	0.041065	0.015009
Zn9	Zn	1.612169	0.374398	0.348343
Zn10	Zn	0.940743	-0.432665	-0.435777
Zn11	Zn	1.274077	-0.099331	-0.102443
Zn12	Zn	1.607410	0.234002	0.230890
O13	O	1.001864	-0.359883	-0.379421
O14	O	1.335197	-0.026550	-0.046087
O15	O	1.668531	0.306784	0.287246
O16	O	1.157235	-0.305507	-0.428925
O17	O	1.490569	0.027826	-0.095591
O18	O	1.823902	0.361159	0.237742
O19	O	1.051280	-0.400032	-0.224082
O20	O	1.384614	-0.066699	0.109251
O21	O	1.717947	0.266635	0.442585
O22	O	0.960514	-0.179491	-0.334559
O23	O	1.293847	0.153842	-0.001226
O24	O	1.627180	0.487176	0.332108
O25	O	1.160643	-0.400442	-0.342594
O26	O	1.493976	-0.067109	-0.009261
O27	O	1.827309	0.266225	0.324073
O28	O	1.043376	-0.179802	-0.424354
O29	O	1.376709	0.153532	-0.091020
O30	O	1.710043	0.486865	0.242313
O31	O	0.965011	-0.304787	-0.220619
O32	O	1.298344	0.028547	0.112715
O33	O	1.631677	0.361880	0.446048
O34	O	0.846537	-0.315217	-0.329936
O35	O	1.179870	0.018116	0.003397
O36	O	1.513204	0.351449	0.336730
O37	O	0.952403	-0.418776	-0.534740
O38	O	1.285736	-0.085442	-0.201406
O39	O	1.619070	0.247891	0.131927
O40	O	0.843041	-0.418366	-0.416228
O41	O	1.176374	-0.085032	-0.082895
O42	O	1.509707	0.248301	0.250439
O43	O	1.038762	-0.315938	-0.538242
O44	O	1.372095	0.017395	-0.204909
O45	O	1.705428	0.350729	0.128424
O46	O	1.046666	-0.536168	-0.337971
O47	O	1.379999	-0.202835	-0.004638
O48	O	1.713333	0.130498	0.328696
O49	O	0.956900	-0.544071	-0.420799
O50	O	1.290234	-0.210738	-0.087466
O51	O	1.623567	0.122595	0.245867
C52	C	0.819292	-0.367914	-0.372054
C53	C	1.152625	-0.034580	-0.038720
C54	C	1.485959	0.298753	0.294613
C55	C	0.741186	-0.371369	-0.368919
C56	C	1.074519	-0.038036	-0.035585
C57	C	1.407853	0.295297	0.297748
C58	C	0.702716	-0.323651	-0.412462
C59	C	1.036049	0.009683	-0.079129
C60	C	1.369382	0.343016	0.254204
C61	C	0.629327	-0.326893	-0.409511
C62	C	0.962661	0.006440	-0.076177
C63	C	1.295994	0.339773	0.257156
C64	C	0.594410	-0.377860	-0.363018
C65	C	0.927744	-0.044526	-0.029685
C66	C	1.261077	0.288807	0.303648
C67	C	0.632886	-0.425580	-0.319470
C68	C	0.966220	-0.092247	0.013863
C69	C	1.299553	0.241086	0.347197
C70	C	0.706273	-0.422333	-0.322419
C71	C	1.039607	-0.088999	0.010915
C72	C	1.372940	0.244334	0.344248
C73	C	0.375117	-0.392860	-0.349369
C74	C	0.708450	-0.059526	-0.016036
C75	C	1.041784	0.273807	0.317298
C76	C	0.301724	-0.396105	-0.346425
C77	C	0.635058	-0.062772	-0.013092
C78	C	0.968391	0.270561	0.320242
C79	C	0.298171	-0.297417	-0.436465
C80	C	0.631504	0.035916	-0.103132
C81	C	0.964837	0.369250	0.230201
C82	C	0.371559	-0.294177	-0.439413
C83	C	0.704893	0.039156	-0.106080
C84	C	1.038226	0.372489	0.227254
C85	C	0.410029	-0.341895	-0.395862
C86	C	0.743362	-0.008561	-0.062529
C87	C	1.076695	0.324772	0.270805
N88	N	0.519396	-0.381177	-0.360002
N89	N	0.852729	-0.047844	-0.026668
N90	N	1.186062	0.285489	0.306665
N91	N	0.485042	-0.338572	-0.398876
N92	N	0.818376	-0.005239	-0.065542
N93	N	1.151709	0.328094	0.267791
C94	C	1.001788	-0.569376	-0.379396
C95	C	1.335122	-0.236043	-0.046062
C96	C	1.668455	0.097290	0.287271
C97	C	1.001820	-0.658997	-0.379411
C98	C	1.335153	-0.325663	-0.046078
C99	C	1.668486	0.007670	0.287256
C100	C	1.001846	-0.731779	-0.379426
C101	C	1.335180	-0.398445	-0.046093
C102	C	1.668513	-0.065112	0.287241
C103	C	1.001887	-0.823086	-0.379443
C104	C	1.335220	-0.489753	-0.046110
C105	C	1.668553	-0.156419	0.287224
C106	C	1.001923	-0.895861	-0.379453
C107	C	1.335256	-0.562528	-0.046120
C108	C	1.668589	-0.229194	0.287213
C109	C	1.001962	-0.987174	-0.379470
C110	C	1.335296	-0.653841	-0.046136
C111	C	1.668629	-0.320508	0.287197
C112	C	1.185149	-0.351822	-0.386817
C113	C	1.518482	-0.018489	-0.053484
C114	C	1.851815	0.314845	0.279850
C115	C	1.263254	-0.348387	-0.389969
C116	C	1.596587	-0.015053	-0.056635
C117	C	1.929921	0.318280	0.276698
C118	C	0.994534	-0.368604	-0.562700
C119	C	1.327868	-0.035271	-0.229367
C120	C	1.661201	0.298063	0.103967
C121	C	0.991411	-0.372320	-0.640803
C122	C	1.324744	-0.038987	-0.307470
C123	C	1.658077	0.294346	0.025864
C124	C	1.001958	-0.149572	-0.379462
C125	C	1.335292	0.183762	-0.046129
C126	C	1.668625	0.517095	0.287204
C127	C	1.001998	-0.059950	-0.379480
C128	C	1.335332	0.273384	-0.046147
C129	C	1.668665	0.606717	0.287187
C130	C	1.034903	-0.320526	-0.679320
C131	C	1.368236	0.012807	-0.345987
C132	C	1.701570	0.346140	-0.012654
C133	C	1.031960	-0.324016	-0.752706
C134	C	1.365293	0.009318	-0.419372
C135	C	1.698626	0.342651	-0.086039
C136	C	0.985527	-0.379303	-0.787573
C137	C	1.318860	-0.045970	-0.454239
C138	C	1.652194	0.287364	-0.120906
C139	C	0.942030	-0.431099	-0.749050
C140	C	1.275363	-0.097766	-0.415716
C141	C	1.608696	0.235568	-0.082383
C142	C	0.944970	-0.427605	-0.675665
C143	C	1.278303	-0.094272	-0.342332
C144	C	1.611637	0.239061	-0.008999
C145	C	0.971908	-0.395489	-1.006852
C146	C	1.305242	-0.062156	-0.673519
C147	C	1.638575	0.271177	-0.340185
C148	C	0.968973	-0.398981	-1.080242
C149	C	1.302306	-0.065647	-0.746908
C150	C	1.635639	0.267686	-0.413575
C151	C	1.058902	-0.291896	-1.083893
C152	C	1.392236	0.041438	-0.750559
C153	C	1.725569	0.374771	-0.417226
C154	C	1.061841	-0.288410	-1.010507
C155	C	1.395175	0.044923	-0.677174
C156	C	1.728508	0.378256	-0.343840
C157	C	1.018342	-0.340203	-0.971990
C158	C	1.351675	-0.006870	-0.638657
C159	C	1.685008	0.326463	-0.305324
N160	N	0.982519	-0.382873	-0.862584
N161	N	1.315852	-0.049539	-0.529251
N162	N	1.649185	0.283794	-0.195918
N163	N	1.021347	-0.336629	-0.896980
N164	N	1.354680	-0.003296	-0.563647
N165	N	1.688014	0.330037	-0.230313
C166	C	1.009206	-0.351136	-0.196856
C167	C	1.342539	-0.017803	0.136477
C168	C	1.675872	0.315530	0.469811
C169	C	1.012465	-0.347187	-0.118759
C170	C	1.345799	-0.013854	0.214574
C171	C	1.679132	0.319480	0.547907
H172	H	0.399983	-0.252678	-0.477274
H173	H	0.733317	0.080655	-0.143941
H174	H	1.066650	0.413988	0.189392
C175	C	0.594475	-0.481643	-0.268327
C176	C	0.927808	-0.148309	0.065007
C177	C	1.261142	0.185024	0.398340
N178	N	0.565545	-0.523872	-0.229806
N179	N	0.898878	-0.190539	0.103527
N180	N	1.232211	0.142794	0.436860
C181	C	0.417424	-0.445354	-0.301464
C182	C	0.750757	-0.112021	0.031869
C183	C	1.084090	0.221312	0.365202
N184	N	0.449292	-0.484897	-0.265381
N185	N	0.782625	-0.151563	0.067953
N186	N	1.115958	0.181770	0.401286
C187	C	0.255849	-0.244917	-0.484356
C188	C	0.589182	0.088416	-0.151023
C189	C	0.922516	0.421750	0.182311
N190	N	0.223972	-0.205366	-0.520425
N191	N	0.557305	0.127967	-0.187091
N192	N	0.890639	0.461301	0.146242
H193	H	1.094316	-0.249728	-1.115261
H194	H	1.427650	0.083606	-0.781927
H195	H	1.760983	0.416939	-0.448594
C196	C	0.587013	-0.274401	-0.457415
C197	C	0.920346	0.058932	-0.124081
C198	C	1.253680	0.392266	0.209252
N199	N	0.555142	-0.234862	-0.493498
N200	N	0.888475	0.098472	-0.160165
N201	N	1.221809	0.431805	0.173168
H202	H	0.931159	-0.444004	-1.108628
H203	H	1.264493	-0.110671	-0.775295
H204	H	1.597826	0.222662	-0.441961
H205	H	0.273297	-0.437612	-0.308565
H206	H	0.606631	-0.104279	0.024768
H207	H	0.939964	0.229054	0.358102
H208	H	0.904221	-0.476112	-0.777444
H209	H	1.237554	-0.142779	-0.444111
H210	H	1.570887	0.190554	-0.110777
C211	C	0.897126	-0.484584	-0.633297
C212	C	1.230459	-0.151251	-0.299963
C213	C	1.563793	0.182083	0.033370
N214	N	0.861087	-0.527501	-0.601385
N215	N	1.194420	-0.194168	-0.268052
N216	N	1.527754	0.139166	0.065282
H217	H	0.737595	-0.461190	-0.286960
H218	H	1.070929	-0.127857	0.046373
H219	H	1.404262	0.205477	0.379706
H220	H	1.072716	-0.275508	-0.650937
H221	H	1.406049	0.057826	-0.317604
H222	H	1.739383	0.391159	0.015729
C223	C	0.741117	-0.267582	-0.463607
C224	C	1.074451	0.065751	-0.130274
C225	C	1.407784	0.399084	0.203059
N226	N	0.770039	-0.225347	-0.502129
N227	N	1.103373	0.107986	-0.168796
N228	N	1.436706	0.441320	0.164538
H229	H	1.067378	-0.281841	-0.784064
H230	H	1.400711	0.051492	-0.450730
H231	H	1.734044	0.384825	-0.117397
C232	C	1.112914	-0.227582	-0.972159
C233	C	1.446248	0.105751	-0.638826
C234	C	1.779581	0.439085	-0.305492
N235	N	1.151382	-0.181764	-0.943275
N236	N	1.484715	0.151569	-0.609942
N237	N	1.818049	0.484902	-0.276608
C238	C	0.924055	-0.452461	-0.964493
C239	C	1.257388	-0.119128	-0.631160
C240	C	1.590721	0.214205	-0.297827
N241	N	0.888008	-0.495374	-0.932586
N242	N	1.221341	-0.162041	-0.599253
N243	N	1.554674	0.171293	-0.265919
