data_functionalizedCrystal
_audit_creation_method	'MofGen! by Chris Wilmer'
_symmetry_space_group_name_H-M	'P1'
_symmetry_Int_Tables_number	1
_symmetry_cell_setting	triclinic
loop_
_symmetry_equiv_pos_as_xyz
  x,y,z
_cell_length_a	10.540539
_cell_length_b	23.532407
_cell_length_c	9.016244
_cell_angle_alpha	89.993097
_cell_angle_beta	89.994699
_cell_angle_gamma	83.687085
loop_
_atom_site_label
_atom_site_type_symbol
_atom_site_fract_x
_atom_site_fract_y
_atom_site_fract_z
O1	O	1.683259	0.080251	-0.123287
O2	O	1.313598	0.087813	-0.123307
O3	O	1.509576	0.001174	-0.123270
O4	O	1.487282	0.166890	-0.123325
O5	O	1.509547	0.001176	0.123411
O6	O	1.313570	0.087815	0.123373
O7	O	1.683231	0.080253	0.123393
Cu8	Cu	1.498398	0.084034	0.145907
Cu9	Cu	1.498431	0.084032	-0.145821
O10	O	1.487253	0.166892	0.123356
C11	C	1.266300	0.087246	0.000031
C12	C	1.125407	0.085550	0.000024
C13	C	0.944114	0.020541	0.000622
C14	C	1.090676	0.022261	0.000050
C15	C	1.062751	0.116006	-0.140847
C16	C	0.916278	0.113846	-0.140949
C17	C	0.915715	0.115136	0.139573
C18	C	1.062677	0.115719	0.141419
C19	C	1.508994	-0.020045	0.000075
C20	C	1.507287	-0.083273	0.000086
C21	C	1.612557	-0.481681	0.000010
C22	C	1.610971	-0.541092	-0.000001
O23	O	1.708557	-0.577192	-0.000051
N24	N	1.494462	-0.564488	-0.000006
C25	C	1.379532	-0.528469	-0.000015
O26	O	1.280287	-0.553824	-0.000022
C27	C	1.381119	-0.469060	-0.000015
C28	C	1.497635	-0.445667	0.000006
C29	C	1.729064	-0.458288	0.000029
C30	C	1.730649	-0.398882	0.000043
C31	C	1.615727	-0.362868	0.000038
C32	C	1.499220	-0.386261	0.000020
C33	C	1.266190	-0.433042	-0.000034
C34	C	1.267787	-0.373629	-0.000035
C35	C	1.384303	-0.350237	-0.000014
C36	C	1.385883	-0.290840	0.000029
N37	N	1.502392	-0.267444	0.000035
C38	C	1.617314	-0.303458	0.000039
C39	C	1.376208	-0.653234	-0.000019
C40	C	1.374620	-0.712642	-0.000010
C41	C	1.606059	-0.725261	0.000002
C42	C	1.607646	-0.665851	0.000003
C43	C	1.492717	-0.629838	-0.000014
C44	C	1.620634	-0.178700	0.000070
C45	C	1.622209	-0.119287	0.000090
C46	C	1.390770	-0.106674	0.000071
C47	C	1.389194	-0.166081	0.000059
C48	C	1.504137	-0.202093	0.000053
O49	O	1.288349	-0.254705	0.000073
O50	O	1.716543	-0.278095	0.000026
C51	C	1.730530	0.080819	0.000052
C52	C	1.871422	0.082516	0.000048
C53	C	1.487835	0.188111	0.000008
C54	C	1.489542	0.251339	-0.000013
N55	N	1.498383	0.084035	0.351093
N56	N	1.498456	0.084026	-0.351007
C57	C	1.393236	0.130226	0.586106
C58	C	1.393460	0.130399	0.414215
C59	C	1.630663	0.097553	0.413434
C60	C	1.630086	0.097880	0.585378
C61	C	1.472574	0.024176	0.585655
C62	C	1.469516	0.024564	0.413701
H63	H	0.866987	0.160849	0.140509
C64	C	1.959249	-0.417340	0.000038
C65	C	1.858728	-0.373174	0.000045
H66	H	2.038323	-0.401471	0.000027
H67	H	1.953804	-0.440251	0.086056
H68	H	1.953802	-0.440245	-0.085991
H69	H	1.864169	-0.350271	0.086081
H70	H	1.864176	-0.350254	-0.085981
H71	H	1.104358	0.093470	0.245635
C72	C	0.988878	0.067356	-0.367329
C73	C	0.879200	0.083452	-0.283073
H74	H	0.965990	0.048587	-0.455065
H75	H	1.028268	0.100407	-0.393075
H76	H	1.046749	0.042149	-0.310990
H77	H	0.821332	0.108662	-0.339408
H78	H	0.839790	0.050396	-0.257329
C79	C	0.969841	-0.068188	-0.133196
C80	C	0.904457	-0.013076	-0.134970
H81	H	0.945350	-0.088941	-0.216903
H82	H	1.059137	-0.065725	-0.136518
H83	H	0.949360	-0.087278	-0.044969
H84	H	0.924946	0.006015	-0.223192
H85	H	0.815141	-0.015537	-0.131661
C86	C	0.808285	0.040654	0.249052
C87	C	0.874255	0.087417	0.283730
H88	H	0.782763	0.023516	0.338045
H89	H	0.734955	0.053272	0.191742
H90	H	0.862409	0.013456	0.193868
H91	H	0.820128	0.114618	0.338904
H92	H	0.947595	0.074800	0.341063
H93	H	1.409454	0.174378	0.629285
H94	H	1.699635	-0.754594	-0.000000
H95	H	1.133225	-0.001874	-0.101092
H96	H	0.916337	-0.004461	0.101650
H97	H	1.279741	-0.731682	-0.000000
C98	C	1.727426	-0.033823	0.000125
C99	C	1.750291	-0.093575	0.000108
H100	H	1.806498	-0.017952	0.000142
H101	H	1.680160	-0.021490	-0.085893
H102	H	1.680131	-0.021505	0.086154
H103	H	1.797578	-0.105894	-0.085928
H104	H	1.797578	-0.105913	0.086134
H105	H	1.134064	-0.001703	0.101034
C106	C	0.941486	0.213880	-0.154729
C107	C	0.849496	0.175288	-0.149636
H108	H	0.900259	0.251810	-0.160112
H109	H	0.992662	0.209781	-0.067874
H110	H	0.993909	0.206227	-0.239672
H111	H	0.797078	0.182939	-0.064686
H112	H	0.798298	0.179390	-0.236500
H113	H	1.409902	0.174802	0.373054
H114	H	1.297204	-0.077341	0.000073
H115	H	1.083579	0.162484	-0.146104
H116	H	1.714231	-0.208014	0.000060
H117	H	1.822652	-0.487605	0.000027
H118	H	1.702524	-0.646810	0.000018
C119	C	1.180222	0.112642	0.478104
C120	C	1.260687	0.119430	0.357307
H121	H	1.098248	0.105876	0.442974
H122	H	1.214991	0.081092	0.536429
H123	H	1.172843	0.146359	0.536820
H124	H	1.268074	0.085711	0.298597
H125	H	1.225910	0.150982	0.298958
H126	H	1.294574	0.122217	0.627497
C127	C	1.169495	0.190509	0.032515
C128	C	1.093313	0.178013	0.152877
H129	H	1.188397	0.228970	0.039577
H130	H	1.246681	0.165540	0.033715
H131	H	1.125060	0.185500	-0.057378
H132	H	1.137752	0.183018	0.242770
H133	H	1.016114	0.202989	0.151691
H134	H	1.106046	0.094848	-0.245672
H135	H	1.549314	-0.010211	0.626322
C136	C	1.679891	0.191516	0.517023
C137	C	1.661015	0.156827	0.639491
H138	H	1.698975	0.227909	0.550428
H139	H	1.748901	0.174165	0.459216
H140	H	1.604585	0.196006	0.458382
H141	H	1.736325	0.152333	0.698127
H142	H	1.591998	0.174182	0.697322
C143	C	1.147278	-0.646737	-0.000006
C144	C	1.249865	-0.613650	-0.000009
H145	H	1.069282	-0.622301	0.000008
H146	H	1.151485	-0.670165	-0.086027
H147	H	1.151486	-0.670179	0.086020
H148	H	1.245662	-0.590211	-0.086041
H149	H	1.245656	-0.590212	0.086020
C150	C	1.253112	-0.225579	0.126847
C151	C	1.261116	-0.191795	0.000052
H152	H	1.174036	-0.241447	0.126834
H153	H	1.321314	-0.255531	0.126829
H154	H	1.258537	-0.202669	0.212870
H155	H	1.255701	-0.214706	-0.085972
H156	H	1.192896	-0.161839	0.000057
C157	C	1.263739	-0.000485	0.524752
C158	C	1.345226	0.006814	0.644246
H159	H	1.185121	-0.011202	0.560926
H160	H	1.248458	0.034357	0.471207
H161	H	1.302371	-0.029569	0.461095
H162	H	1.306598	0.035901	0.707897
H163	H	1.360505	-0.028032	0.697815
H164	H	1.171310	-0.452077	-0.000060
C165	C	1.071019	-0.344579	-0.126867
C166	C	1.141448	-0.334045	-0.000049
H167	H	0.993021	-0.320144	-0.126866
H168	H	1.118837	-0.337425	-0.212866
H169	H	1.053417	-0.383312	-0.126860
H170	H	1.159058	-0.295313	-0.000061
H171	H	1.093620	-0.341194	0.085972
C172	C	1.501853	-0.063300	0.276591
C173	C	1.566321	-0.024079	0.355707
H174	H	1.561629	-0.093326	0.240782
H175	H	1.442288	-0.078674	0.340039
H176	H	1.457938	-0.044501	0.195280
H177	H	1.610229	-0.042877	0.437025
H178	H	1.625909	-0.008705	0.292256
H179	H	1.710788	0.065586	0.626975
H180	H	1.710792	0.064822	0.372544
H181	H	1.654144	0.140724	0.370343
H182	H	1.372214	0.014317	0.372958
