data_functionalizedCrystal
_audit_creation_method	'MofGen! by Chris Wilmer'
_symmetry_space_group_name_H-M	'P1'
_symmetry_Int_Tables_number	1
_symmetry_cell_setting	triclinic
loop_
_symmetry_equiv_pos_as_xyz
  x,y,z
_cell_length_a	6.817900
_cell_length_b	16.418049
_cell_length_c	14.858572
_cell_angle_alpha	95.075873
_cell_angle_beta	104.524003
_cell_angle_gamma	103.389670
loop_
_atom_site_label
_atom_site_type_symbol
_atom_site_fract_x
_atom_site_fract_y
_atom_site_fract_z
V1	V	-4.037872	-0.116414	-0.290289
O2	O	-4.025632	0.005052	-0.284426
O3	O	-3.988873	-0.230307	-0.288628
O4	O	-3.994518	-0.114861	-0.416746
O5	O	-4.019948	-0.111194	-0.155421
V6	V	-4.520924	-0.101857	-0.274118
O7	O	-4.300165	-0.148345	-0.325761
O8	O	-4.708829	-0.069925	-0.238647
O9	O	-4.346717	0.012037	-0.275780
O10	O	-4.650562	-0.223322	-0.279981
O11	O	-4.656246	-0.107077	-0.408987
O12	O	-4.341072	-0.103410	-0.147661
C13	C	-3.833565	-0.258065	-0.284132
C14	C	-3.874823	-0.351175	-0.283617
C15	C	-3.840765	-0.110800	-0.447559
C16	C	-3.886598	-0.110285	-0.550940
C17	C	-4.151994	-0.569671	-0.287100
C18	C	-4.190749	-0.657160	-0.286624
C19	C	-3.826160	-0.648599	-0.277313
C20	C	-3.787412	-0.561113	-0.277796
C21	C	-3.950333	-0.521651	-0.282685
C22	C	-4.027837	-0.696625	-0.281726
C23	C	-4.069856	-0.791484	-0.281210
C24	C	-3.908314	-0.426786	-0.283203
C25	C	-4.054347	-0.108399	-0.929503
C26	C	-4.007666	-0.108924	-0.824175
C27	C	-3.970474	-0.109343	-0.740225
C28	C	-3.923790	-0.109866	-0.634890
C29	C	-4.165367	0.039789	-0.280273
C30	C	-4.103347	0.132900	-0.280794
C31	C	-4.158167	-0.107473	-0.116844
C32	C	-4.091573	-0.107985	-0.013461
H33	H	-4.284658	-0.537544	-0.291080
N34	N	-4.408257	-0.708955	-0.291391
H35	H	-4.505578	-0.670678	-0.294562
H36	H	-4.402636	-0.737205	-0.233454
N37	N	-3.650433	-0.691158	-0.272016
H38	H	-3.705572	-0.753865	-0.272370
H39	H	-3.534440	-0.665748	-0.212118
N40	N	-3.569899	-0.509313	-0.273045
H41	H	-3.472566	-0.547585	-0.269870
H42	H	-3.516232	-0.464586	-0.215103
