data_functionalizedCrystal
_audit_creation_method	'MofGen! by Chris Wilmer'
_symmetry_space_group_name_H-M	'P1'
_symmetry_Int_Tables_number	1
_symmetry_cell_setting	triclinic
loop_
_symmetry_equiv_pos_as_xyz
  x,y,z
_cell_length_a	12.759401
_cell_length_b	17.077396
_cell_length_c	12.759399
_cell_angle_alpha	89.973998
_cell_angle_beta	90.015542
_cell_angle_gamma	89.983471
loop_
_atom_site_label
_atom_site_type_symbol
_atom_site_fract_x
_atom_site_fract_y
_atom_site_fract_z
Zn1	Zn	1.606231	-0.443794	-0.418254
Zn2	Zn	1.606130	-0.312534	-0.593955
Zn3	Zn	1.430539	-0.312549	-0.418292
Zn4	Zn	1.430520	-0.443764	-0.593893
O5	O	1.518355	-0.378160	-0.506099
O6	O	1.753238	-0.426388	-0.441572
O7	O	1.582804	-0.202689	-0.570694
O8	O	1.453895	-0.329978	-0.271266
O9	O	1.753164	-0.329952	-0.570658
O10	O	1.582975	-0.426403	-0.271238
O11	O	1.453797	-0.202700	-0.441635
O12	O	1.283516	-0.329949	-0.441576
O13	O	1.453863	-0.553615	-0.570553
O14	O	1.283502	-0.426352	-0.570589
O15	O	1.582956	-0.553637	-0.441512
O16	O	1.582785	-0.329923	-0.740968
O17	O	1.453765	-0.426337	-0.740922
C18	C	1.245388	-0.378149	-0.506081
C19	C	1.128611	-0.378163	-0.506098
C20	C	1.073788	-0.428455	-0.439004
C21	C	0.964064	-0.428460	-0.439015
C22	C	0.963995	-0.327879	-0.573222
C23	C	1.073717	-0.327871	-0.573206
C24	C	1.518419	-0.582904	-0.506021
C25	C	1.518446	-0.670154	-0.505988
C26	C	1.585667	-0.711157	-0.438791
C27	C	1.585680	-0.793138	-0.438756
C28	C	1.518475	-0.834114	-0.505924
C29	C	1.451246	-0.793105	-0.573125
C30	C	1.451229	-0.711126	-0.573153
C31	C	1.451289	-0.963975	-0.573061
C32	C	1.451307	-1.045960	-0.573034
C33	C	1.585739	-1.045987	-0.438664
C34	C	1.585722	-0.964008	-0.438693
C35	C	1.518494	-0.923005	-0.505895
C36	C	1.792388	-0.378172	-0.506117
C37	C	1.909165	-0.378177	-0.506126
C38	C	1.518291	-0.378142	-0.779066
C39	C	1.518359	-0.378161	-0.895843
C40	C	1.518352	-0.174212	-0.506100
C41	C	1.518529	-0.086963	-0.505837
C42	C	1.585617	-0.328015	-0.950693
C43	C	1.585684	-0.328041	-1.060417
C44	C	1.451228	-0.428362	-1.060430
C45	C	1.451166	-0.428339	-0.950708
C46	C	1.518448	-0.378195	-0.232065
C47	C	1.518488	-0.378210	-0.115289
H48	H	1.118479	-0.469403	-0.384358
H49	H	1.396520	-0.469213	-1.105115
H50	H	1.396581	-1.079321	-0.627726
Cl51	Cl	1.366613	-0.491389	-0.881748
H52	H	1.640396	-0.677800	-0.384098
Cl53	Cl	0.895148	-0.491686	-0.354663
H54	H	0.919288	-0.286934	-0.627860
H55	H	1.640452	-0.930647	-0.384004
H56	H	1.118355	-0.286913	-0.627842
H57	H	1.640331	-0.287158	-0.906024
Cl58	Cl	1.670238	-0.844681	-0.354322
H59	H	1.640477	-1.079375	-0.383944
Cl60	Cl	1.366771	-0.912430	-0.657544
Cl61	Cl	1.366756	-0.844618	-0.657562
Cl62	Cl	1.366715	-0.659579	-0.657630
Cl63	Cl	1.670243	-0.265000	-1.129368
