data_functionalizedCrystal
_audit_creation_method	'MofGen! by Chris Wilmer'
_symmetry_space_group_name_H-M	'P1'
_symmetry_Int_Tables_number	1
_symmetry_cell_setting	triclinic
loop_
_symmetry_equiv_pos_as_xyz
  x,y,z
_cell_length_a	13.897448
_cell_length_b	12.759401
_cell_length_c	13.897441
_cell_angle_alpha	90.020302
_cell_angle_beta	89.969401
_cell_angle_gamma	89.986705
loop_
_atom_site_label
_atom_site_type_symbol
_atom_site_fract_x
_atom_site_fract_y
_atom_site_fract_z
Zn1	Zn	-0.384097	-1.606236	-0.545370
Zn2	Zn	-0.134097	-1.356236	-0.295370
Zn3	Zn	0.115903	-1.106236	-0.045370
Zn4	Zn	0.365903	-0.856236	0.204630
Zn5	Zn	-0.545419	-1.606120	-0.384071
Zn6	Zn	-0.295419	-1.356120	-0.134071
Zn7	Zn	-0.045419	-1.106120	0.115929
Zn8	Zn	0.204581	-0.856120	0.365929
Zn9	Zn	-0.384127	-1.430537	-0.384090
Zn10	Zn	-0.134127	-1.180537	-0.134090
Zn11	Zn	0.115873	-0.930537	0.115910
Zn12	Zn	0.365873	-0.680537	0.365910
Zn13	Zn	-0.545340	-1.430517	-0.545325
Zn14	Zn	-0.295340	-1.180517	-0.295325
Zn15	Zn	-0.045340	-0.930517	-0.045325
Zn16	Zn	0.204660	-0.680517	0.204675
O17	O	-0.464746	-1.518352	-0.464714
O18	O	-0.214746	-1.268352	-0.214714
O19	O	0.035254	-1.018352	0.035286
O20	O	0.285254	-0.768352	0.285286
O21	O	-0.405518	-1.753241	-0.523985
O22	O	-0.155518	-1.503241	-0.273985
O23	O	0.094482	-1.253241	-0.023985
O24	O	0.344482	-1.003241	0.226015
O25	O	-0.524069	-1.582789	-0.249092
O26	O	-0.274069	-1.332789	0.000908
O27	O	-0.024069	-1.082789	0.250908
O28	O	0.225931	-0.832789	0.500908
O29	O	-0.249142	-1.453900	-0.405510
O30	O	0.000858	-1.203900	-0.155510
O31	O	0.250858	-0.953900	0.094490
O32	O	0.500858	-0.703900	0.344490
O33	O	-0.524040	-1.753156	-0.405479
O34	O	-0.274040	-1.503156	-0.155479
O35	O	-0.024040	-1.253156	0.094521
O36	O	0.225960	-1.003156	0.344521
O37	O	-0.249120	-1.582985	-0.524002
O38	O	0.000880	-1.332985	-0.274002
O39	O	0.250880	-1.082985	-0.024002
O40	O	0.500880	-0.832985	0.225998
O41	O	-0.405569	-1.453788	-0.249105
O42	O	-0.155569	-1.203788	0.000895
O43	O	0.094431	-0.953788	0.250895
O44	O	0.344431	-0.703788	0.500895
O45	O	-0.405492	-1.283513	-0.405467
O46	O	-0.155492	-1.033513	-0.155467
O47	O	0.094508	-0.783513	0.094533
O48	O	0.344508	-0.533513	0.344533
O49	O	-0.523905	-1.453866	-0.680313
O50	O	-0.273905	-1.203866	-0.430313
O51	O	-0.023905	-0.953866	-0.180313
O52	O	0.226095	-0.703866	0.069687
O53	O	-0.523934	-1.283499	-0.523926
O54	O	-0.273934	-1.033499	-0.273926
O55	O	-0.023934	-0.783499	-0.023926
O56	O	0.226066	-0.533499	0.226074
O57	O	-0.405441	-1.582966	-0.680346
O58	O	-0.155441	-1.332966	-0.430346
O59	O	0.094559	-1.082966	-0.180346
O60	O	0.344559	-0.832966	0.069654
O61	O	-0.680390	-1.582769	-0.405436
O62	O	-0.430390	-1.332769	-0.155436
O63	O	-0.180390	-1.082769	0.094564
O64	O	0.069610	-0.832769	0.344564
O65	O	-0.680332	-1.453755	-0.523908
O66	O	-0.430332	-1.203755	-0.273908
O67	O	-0.180332	-0.953755	-0.023908
O68	O	0.069668	-0.703755	0.226092
C69	C	-0.464708	-1.245385	-0.464694
C70	C	-0.214708	-0.995385	-0.214694
C71	C	0.035292	-0.745385	0.035306
C72	C	0.285292	-0.495385	0.285306
C73	C	-0.464715	-1.128608	-0.464708
C74	C	-0.214715	-0.878608	-0.214708
C75	C	0.035285	-0.628608	0.035292
C76	C	0.285285	-0.378608	0.285292
C77	C	-0.403125	-0.964054	-0.526512
C78	C	-0.153125	-0.714054	-0.276512
C79	C	0.096875	-0.464054	-0.026512
C80	C	0.346875	-0.214054	0.223488
C81	C	-0.403112	-1.073778	-0.526508
C82	C	-0.153112	-0.823778	-0.276508
C83	C	0.096888	-0.573778	-0.026508
C84	C	0.346888	-0.323778	0.223492
C85	C	-0.526342	-1.073709	-0.402915
C86	C	-0.276342	-0.823709	-0.152915
C87	C	-0.026342	-0.573709	0.097085
C88	C	0.223658	-0.323709	0.347085
C89	C	-0.526359	-0.963987	-0.402925
C90	C	-0.276359	-0.713987	-0.152925
C91	C	-0.026359	-0.463987	0.097075
C92	C	0.223641	-0.213987	0.347075
C93	C	-0.715360	-1.518276	-0.464686
C94	C	-0.465360	-1.268276	-0.214686
C95	C	-0.215360	-1.018276	0.035314
C96	C	0.034640	-0.768276	0.285314
C97	C	-0.822574	-1.518339	-0.464706
C98	C	-0.572574	-1.268339	-0.214706
C99	C	-0.322574	-1.018339	0.035294
C100	C	-0.072574	-0.768339	0.285294
C101	C	-1.018869	-1.518449	-0.464767
C102	C	-0.768869	-1.268449	-0.214767
C103	C	-0.518869	-1.018449	0.035233
C104	C	-0.268869	-0.768449	0.285233
C105	C	-0.909637	-1.518385	-0.464736
C106	C	-0.659637	-1.268385	-0.214736
C107	C	-0.409637	-1.018385	0.035264
C108	C	-0.159637	-0.768385	0.285264
C109	C	-0.213153	-1.518458	-0.464763
C110	C	0.036847	-1.268458	-0.214763
C111	C	0.286847	-1.018458	0.035237
C112	C	0.536847	-0.768458	0.285237
C113	C	-0.105939	-1.518503	-0.464784
C114	C	0.144061	-1.268503	-0.214784
C115	C	0.394061	-1.018503	0.035216
C116	C	0.644061	-0.768503	0.285216
C117	C	-0.464661	-1.518427	-0.716307
C118	C	-0.214661	-1.268427	-0.466307
C119	C	0.035339	-1.018427	-0.216307
C120	C	0.285339	-0.768427	0.033693
C121	C	-0.464624	-1.518459	-0.823521
C122	C	-0.214624	-1.268459	-0.573521
C123	C	0.035376	-1.018459	-0.323521
C124	C	0.285376	-0.768459	-0.073521
C125	C	-0.464770	-0.792386	-0.464729
C126	C	-0.214770	-0.542386	-0.214729
C127	C	0.035230	-0.292386	0.035271
C128	C	0.285230	-0.042386	0.285271
C129	C	-0.464745	-0.909162	-0.464722
C130	C	-0.214745	-0.659162	-0.214722
C131	C	0.035255	-0.409162	0.035278
C132	C	0.285255	-0.159162	0.285278
C133	C	-0.464559	-1.518487	-1.019816
C134	C	-0.214559	-1.268487	-0.769816
C135	C	0.035441	-1.018487	-0.519816
C136	C	0.285441	-0.768487	-0.269816
C137	C	-0.464598	-1.518468	-0.910584
C138	C	-0.214598	-1.268468	-0.660584
C139	C	0.035402	-1.018468	-0.410584
C140	C	0.285402	-0.768468	-0.160584
C141	C	-0.464761	-1.518339	-0.214100
C142	C	-0.214761	-1.268339	0.035900
C143	C	0.035239	-1.018339	0.285900
C144	C	0.285239	-0.768339	0.535900
C145	C	-0.464526	-1.518510	-0.106886
C146	C	-0.214526	-1.268510	0.143114
C147	C	0.035474	-1.018510	0.393114
C148	C	0.285474	-0.768510	0.643114
H149	H	-0.576542	-0.919293	-0.352607
H150	H	-0.326542	-0.669293	-0.102607
H151	H	-0.076542	-0.419293	0.147393
H152	H	0.173458	-0.169293	0.397393
O153	O	-0.592778	-1.132845	-0.336251
O154	O	-0.342778	-0.882845	-0.086251
O155	O	-0.092778	-0.632845	0.163749
O156	O	0.157222	-0.382845	0.413749
H157	H	-0.641894	-1.182864	-0.379327
H158	H	-0.391894	-0.932864	-0.129327
H159	H	-0.141894	-0.682864	0.120673
H160	H	0.108106	-0.432864	0.370673
O161	O	-0.336647	-1.132978	-0.593155
O162	O	-0.086647	-0.882978	-0.343155
O163	O	0.163353	-0.632978	-0.093155
O164	O	0.413353	-0.382978	0.156845
H165	H	-0.346991	-1.218487	-0.582777
H166	H	-0.096991	-0.968487	-0.332777
H167	H	0.153009	-0.718487	-0.082777
H168	H	0.403009	-0.468487	0.167223
O169	O	-0.336683	-0.904916	-0.593169
O170	O	-0.086683	-0.654916	-0.343169
O171	O	0.163317	-0.404916	-0.093169
O172	O	0.413317	-0.154916	0.156831
H173	H	-0.293840	-0.961525	-0.636141
H174	H	-0.043840	-0.711525	-0.386141
H175	H	0.206160	-0.461525	-0.136141
H176	H	0.456160	-0.211525	0.113859
