data_functionalizedCrystal
_audit_creation_method	'MofGen! by Chris Wilmer'
_symmetry_space_group_name_H-M	'P1'
_symmetry_Int_Tables_number	1
_symmetry_cell_setting	triclinic
loop_
_symmetry_equiv_pos_as_xyz
  x,y,z
_cell_length_a	16.625548
_cell_length_b	25.639240
_cell_length_c	16.625539
_cell_angle_alpha	90.038438
_cell_angle_beta	90.020568
_cell_angle_gamma	90.033826
loop_
_atom_site_label
_atom_site_type_symbol
_atom_site_fract_x
_atom_site_fract_y
_atom_site_fract_z
Zn1	Zn	1.232623	-0.208135	0.455853
Zn2	Zn	1.565956	0.125198	0.789186
Zn3	Zn	1.899289	0.458532	1.122519
Zn4	Zn	1.232502	-0.295573	0.320996
Zn5	Zn	1.565835	0.037760	0.654329
Zn6	Zn	1.899168	0.371094	0.987663
Zn7	Zn	1.097785	-0.208155	0.321033
Zn8	Zn	1.431118	0.125178	0.654366
Zn9	Zn	1.764451	0.458512	0.987700
Zn10	Zn	1.097731	-0.295543	0.455786
Zn11	Zn	1.431064	0.037791	0.789119
Zn12	Zn	1.764397	0.371124	1.122452
O13	O	1.165160	-0.251851	0.388417
O14	O	1.498493	0.081482	0.721750
O15	O	1.831827	0.414815	1.055084
O16	O	1.345439	-0.219738	0.437976
O17	O	1.678772	0.113595	0.771309
O18	O	2.012106	0.446929	1.104643
O19	O	1.214603	-0.283998	0.208168
O20	O	1.547936	0.049336	0.541502
O21	O	1.881270	0.382669	0.874835
O22	O	1.115744	-0.134987	0.338961
O23	O	1.449078	0.198346	0.672294
O24	O	1.782411	0.531680	1.005627
O25	O	1.345350	-0.283978	0.338897
O26	O	1.678684	0.049355	0.672231
O27	O	2.012017	0.382688	1.005564
O28	O	1.214809	-0.134972	0.438012
O29	O	1.548143	0.198361	0.771345
O30	O	1.881476	0.531694	1.104679
O31	O	1.115627	-0.219772	0.208196
O32	O	1.448960	0.113561	0.541529
O33	O	1.782294	0.446895	0.874862
O34	O	0.984945	-0.219743	0.338896
O35	O	1.318278	0.113590	0.672229
O36	O	1.651612	0.446924	1.005563
O37	O	1.115653	-0.283927	0.568627
O38	O	1.448986	0.049406	0.901960
O39	O	1.782319	0.382740	1.235294
O40	O	0.984906	-0.283946	0.437898
O41	O	1.318239	0.049387	0.771232
O42	O	1.651572	0.382720	1.104565
O43	O	1.214757	-0.219709	0.568676
O44	O	1.548091	0.113624	0.902009
O45	O	1.881424	0.446958	1.235343
O46	O	1.214551	-0.368734	0.338833
O47	O	1.547884	-0.035401	0.672166
O48	O	1.881218	0.297933	1.005499
O49	O	1.115535	-0.368712	0.437862
O50	O	1.448869	-0.035379	0.771195
O51	O	1.782202	0.297955	1.104529
C52	C	0.955669	-0.251844	0.388394
C53	C	1.289002	0.081489	0.721728
C54	C	1.622336	0.414823	1.055061
C55	C	0.866048	-0.251853	0.388404
C56	C	1.199381	0.081480	0.721737
C57	C	1.532715	0.414813	1.055070
C58	C	0.537872	-0.251857	0.388438
C59	C	0.871206	0.081477	0.721772
C60	C	1.204539	0.414810	1.055105
C61	C	0.629181	-0.251854	0.388426
C62	C	0.962514	0.081479	0.721759
C63	C	1.295848	0.414812	1.055093
C64	C	0.701957	-0.251855	0.388420
C65	C	1.035291	0.081478	0.721754
C66	C	1.368624	0.414811	1.055087
C67	C	0.793272	-0.251852	0.388409
C68	C	1.126605	0.081481	0.721743
C69	C	1.459938	0.414814	1.055076
C70	C	1.165046	-0.387694	0.388354
C71	C	1.498379	-0.054361	0.721687
C72	C	1.831713	0.278973	1.055020
C73	C	1.165071	-0.445808	0.388354
C74	C	1.498404	-0.112475	0.721687
C75	C	1.831738	0.220859	1.055020
C76	C	1.216769	-0.806125	0.440086
C77	C	1.550102	-0.472792	0.773419
C78	C	1.883435	-0.139458	1.106753
C79	C	1.216793	-0.860729	0.440102
C80	C	1.550126	-0.527396	0.773436
C81	C	1.883459	-0.194063	1.106769
O82	O	1.260612	-0.888927	0.484022
O83	O	1.593946	-0.555593	0.817355
O84	O	1.927279	-0.222260	1.150689
N85	N	1.165272	-0.888090	0.388495
N86	N	1.498605	-0.554757	0.721828
N87	N	1.831939	-0.221424	1.055161
C88	C	1.113718	-0.860844	0.336873
C89	C	1.447052	-0.527511	0.670207
C90	C	1.780385	-0.194178	1.003540
O91	O	1.069898	-0.889131	0.292979
O92	O	1.403231	-0.555798	0.626312
O93	O	1.736564	-0.222465	0.959646
C94	C	1.113691	-0.806241	0.336862
C95	C	1.447024	-0.472908	0.670195
C96	C	1.780358	-0.139574	1.003528
C97	C	1.165221	-0.778883	0.388467
C98	C	1.498554	-0.445549	0.721800
C99	C	1.831888	-0.112216	1.055133
C100	C	1.268294	-0.778767	0.491687
C101	C	1.601627	-0.445433	0.825021
C102	C	1.934960	-0.112100	1.158354
C103	C	1.268271	-0.724166	0.491670
C104	C	1.601604	-0.390833	0.825003
C105	C	1.934938	-0.057499	1.158336
C106	C	1.216723	-0.696924	0.440051
C107	C	1.550056	-0.363591	0.773384
C108	C	1.883390	-0.030257	1.106717
C109	C	1.165198	-0.724282	0.388449
C110	C	1.498531	-0.390949	0.721782
C111	C	1.831865	-0.057616	1.055116
C112	C	1.062134	-0.778996	0.285245
C113	C	1.395467	-0.445663	0.618578
C114	C	1.728801	-0.112330	0.951911
C115	C	1.062111	-0.724389	0.285238
C116	C	1.395444	-0.391056	0.618571
C117	C	1.728777	-0.057722	0.951905
C118	C	1.113641	-0.697031	0.336843
C119	C	1.446974	-0.363697	0.670176
C120	C	1.780307	-0.030364	1.003510
C121	C	1.113627	-0.642440	0.336812
C122	C	1.446960	-0.309106	0.670146
C123	C	1.780294	0.024227	1.003479
N124	N	1.165148	-0.615078	0.388420
N125	N	1.498481	-0.281745	0.721753
N126	N	1.831814	0.051588	1.055086
C127	C	1.216696	-0.642321	0.440039
C128	C	1.550029	-0.308987	0.773372
C129	C	1.883362	0.024346	1.106706
C130	C	1.113778	-0.975515	0.336903
C131	C	1.447112	-0.642182	0.670236
C132	C	1.780445	-0.308848	1.003570
C133	C	1.113809	-1.030117	0.336910
C134	C	1.447142	-0.696784	0.670243
C135	C	1.780476	-0.363451	1.003577
C136	C	1.216883	-1.029998	0.440140
C137	C	1.550216	-0.696665	0.773473
C138	C	1.883549	-0.363332	1.106807
C139	C	1.216855	-0.975395	0.440128
C140	C	1.550189	-0.642062	0.773462
C141	C	1.883522	-0.308728	1.106795
C142	C	1.165299	-0.948154	0.388510
C143	C	1.498632	-0.614821	0.721844
C144	C	1.831966	-0.281487	1.055177
C145	C	1.216644	-0.527655	0.439997
C146	C	1.549977	-0.194322	0.773331
C147	C	1.883311	0.139011	1.106664
C148	C	1.216619	-0.473050	0.439973
C149	C	1.549952	-0.139717	0.773306
C150	C	1.883286	0.193617	1.106639
C151	C	1.113543	-0.473174	0.336746
C152	C	1.446876	-0.139841	0.670079
C153	C	1.780210	0.193493	1.003413
C154	C	1.113571	-0.527774	0.336767
C155	C	1.446904	-0.194441	0.670100
C156	C	1.780237	0.138892	1.003434
C157	C	1.165124	-0.555014	0.388399
C158	C	1.498457	-0.221681	0.721733
C159	C	1.831791	0.111653	1.055066
O160	O	1.069827	-0.614207	0.292917
O161	O	1.403161	-0.280874	0.626251
O162	O	1.736494	0.052459	0.959584
O163	O	1.260502	-0.614027	0.483933
O164	O	1.593835	-0.280694	0.817266
O165	O	1.927168	0.052640	1.150600
C166	C	1.375469	-0.251859	0.388440
C167	C	1.708802	0.081474	0.721773
C168	C	2.042136	0.414807	1.055107
C169	C	1.465090	-0.251863	0.388450
C170	C	1.798423	0.081471	0.721783
C171	C	2.131757	0.414804	1.055116
C172	C	1.165212	-0.251812	0.598726
C173	C	1.498546	0.081521	0.932059
C174	C	1.831879	0.414854	1.265393
C175	C	1.165235	-0.251796	0.688347
C176	C	1.498568	0.081538	1.021680
C177	C	1.831901	0.414871	1.355014
C178	C	1.165296	-0.115478	0.388498
C179	C	1.498630	0.217855	0.721831
C180	C	1.831963	0.551188	1.055165
C181	C	1.165354	-0.057364	0.388532
C182	C	1.498688	0.275969	0.721866
C183	C	1.832021	0.609302	1.055199
C184	C	1.165154	-0.251852	0.178926
C185	C	1.498488	0.081481	0.512259
C186	C	1.831821	0.414814	0.845593
C187	C	1.165288	-0.251722	0.089305
C188	C	1.498621	0.081612	0.422639
C189	C	1.831955	0.414945	0.755972
C190	C	1.165272	-0.251737	1.016523
C191	C	1.498605	0.081596	1.349856
C192	C	1.831939	0.414929	1.683190
C193	C	1.165259	-0.251755	0.925214
C194	C	1.498593	0.081578	1.258548
C195	C	1.831926	0.414911	1.591881
C196	C	1.165254	-0.251767	0.852438
C197	C	1.498587	0.081566	1.185771
C198	C	1.831920	0.414900	1.519105
C199	C	1.165240	-0.251784	0.761124
C200	C	1.498574	0.081549	1.094457
C201	C	1.831907	0.414883	1.427790
H202	H	1.258584	-0.450777	0.481996
H203	H	1.591917	-0.117443	0.815329
H204	H	1.925250	0.215890	1.148662
F205	F	1.271514	-0.556638	0.494949
F206	F	1.604847	-0.223305	0.828283
F207	F	1.938181	0.110029	1.161616
F208	F	1.271699	-0.946283	0.495054
F209	F	1.605032	-0.612950	0.828387
F210	F	1.938366	-0.279616	1.161721
H211	H	1.071857	-1.052388	0.294879
H212	H	1.405190	-0.719055	0.628212
H213	H	1.738524	-0.385721	0.961546
F214	F	1.323112	-0.695056	0.546600
F215	F	1.656445	-0.361723	0.879934
F216	F	1.989778	-0.028389	1.213267
H217	H	1.071798	-0.953338	0.294863
H218	H	1.405131	-0.620005	0.628196
H219	H	1.738464	-0.286671	0.961529
H220	H	1.310270	-0.800941	0.533727
H221	H	1.643604	-0.467608	0.867060
H222	H	1.976937	-0.134275	1.200393
H223	H	1.258854	-1.052189	0.482173
H224	H	1.592188	-0.718855	0.815506
H225	H	1.925521	-0.385522	1.148839
F226	F	1.007286	-0.808101	0.230321
F227	F	1.340619	-0.474768	0.563654
F228	F	1.673952	-0.141435	0.896987
H229	H	1.020125	-0.702212	0.243205
H230	H	1.353458	-0.368879	0.576538
H231	H	1.686791	-0.035545	0.909872
H232	H	1.071617	-0.550051	0.294740
H233	H	1.404951	-0.216717	0.628073
H234	H	1.738284	0.116616	0.961406
F235	F	1.058686	-0.444171	0.281811
F236	F	1.392019	-0.110838	0.615144
F237	F	1.725352	0.222495	0.948478
