data_functionalizedCrystal
_audit_creation_method	'MofGen! by Chris Wilmer'
_symmetry_space_group_name_H-M	'P1'
_symmetry_Int_Tables_number	1
_symmetry_cell_setting	triclinic
loop_
_symmetry_equiv_pos_as_xyz
  x,y,z
_cell_length_a	14.908979
_cell_length_b	16.625545
_cell_length_c	14.908308
_cell_angle_alpha	93.266177
_cell_angle_beta	96.371071
_cell_angle_gamma	93.327235
loop_
_atom_site_label
_atom_site_type_symbol
_atom_site_fract_x
_atom_site_fract_y
_atom_site_fract_z
Zn1	Zn	1.354213	-0.273365	-0.432038
Zn2	Zn	1.854213	0.226635	0.067962
Zn3	Zn	1.362838	-0.399960	-0.280685
Zn4	Zn	1.862838	0.100040	0.219315
Zn5	Zn	1.211587	-0.273403	-0.289417
Zn6	Zn	1.711587	0.226597	0.210583
Zn7	Zn	1.202807	-0.416422	-0.440717
Zn8	Zn	1.702807	0.083578	0.059283
O9	O	1.282861	-0.340788	-0.360714
O10	O	1.782861	0.159212	0.139286
O11	O	1.482021	-0.283252	-0.404674
O12	O	1.982021	0.216748	0.095326
O13	O	1.350058	-0.376299	-0.155182
O14	O	1.850058	0.123701	0.344818
O15	O	1.230571	-0.160564	-0.308358
O16	O	1.730571	0.339436	0.191642
O17	O	1.488357	-0.376261	-0.293476
O18	O	1.988357	0.123739	0.206524
O19	O	1.335358	-0.160535	-0.413141
O20	O	1.835358	0.339465	0.086859
O21	O	1.238934	-0.283318	-0.161598
O22	O	1.738934	0.216682	0.338402
O23	O	1.083759	-0.299281	-0.316774
O24	O	1.583759	0.200719	0.183226
O25	O	1.215608	-0.404319	-0.566227
O26	O	1.715608	0.095681	-0.066227
O27	O	1.077309	-0.404356	-0.427933
O28	O	1.577309	0.095644	0.072067
O29	O	1.326845	-0.299215	-0.559850
O30	O	1.826845	0.200785	-0.059850
O31	O	1.341545	-0.514979	-0.301892
O32	O	1.841545	-0.014979	0.198108
O33	O	1.223971	-0.527073	-0.419466
O34	O	1.723971	-0.027073	0.080534
C35	C	1.047691	-0.353610	-0.374243
C36	C	1.547691	0.146390	0.125757
C37	C	0.947083	-0.359116	-0.380053
C38	C	1.447083	0.140884	0.119947
C39	C	0.801952	-0.421656	-0.446011
C40	C	1.301952	0.078344	0.053989
C41	C	0.896482	-0.416483	-0.440561
C42	C	1.396482	0.083517	0.059439
C43	C	0.903148	-0.306918	-0.324989
C44	C	1.403148	0.193082	0.175011
C45	C	0.808618	-0.312091	-0.330440
C46	C	1.308618	0.187909	0.169560
C47	C	0.758023	-0.369461	-0.390954
C48	C	1.258023	0.130539	0.109046
C49	C	0.663492	-0.374629	-0.396408
C50	C	1.163492	0.125371	0.103592
C51	C	0.670160	-0.265068	-0.280833
C52	C	1.170160	0.234932	0.219167
C53	C	0.764690	-0.259895	-0.275383
C54	C	1.264690	0.240105	0.224617
C55	C	1.282765	-0.550282	-0.360691
C56	C	1.782765	-0.050282	0.139309
C57	C	1.282804	-0.639902	-0.360707
C58	C	1.782804	-0.139902	0.139293
C59	C	1.282839	-0.712684	-0.360723
C60	C	1.782839	-0.212684	0.139277
C61	C	1.282890	-0.803990	-0.360740
C62	C	1.782890	-0.303990	0.139260
C63	C	1.282936	-0.876765	-0.360749
C64	C	1.782936	-0.376765	0.139251
C65	C	1.282987	-0.968077	-0.360764
C66	C	1.782987	-0.468077	0.139236
C67	C	1.518950	-0.327916	-0.347133
C68	C	2.018950	0.172084	0.152867
C69	C	1.619557	-0.322431	-0.341345
C70	C	2.119557	0.177569	0.158655
C71	C	1.269285	-0.353599	-0.596799
C72	C	1.769285	0.146401	-0.096799
C73	C	1.263500	-0.359058	-0.697404
C74	C	1.763500	0.140942	-0.197404
C75	C	1.282982	-0.130475	-0.360756
C76	C	1.782982	0.369525	0.139244
C77	C	1.283033	-0.040852	-0.360773
C78	C	1.783033	0.459148	0.139227
C79	C	1.368458	-0.259854	-0.879813
C80	C	1.868458	0.240146	-0.379813
C81	C	1.363025	-0.264980	-0.974341
C82	C	1.863025	0.235020	-0.474341
C83	C	1.247197	-0.374434	-0.980987
C84	C	1.747197	0.125566	-0.480987
C85	C	1.252630	-0.369307	-0.886460
C86	C	1.752630	0.130693	-0.386460
C87	C	1.313263	-0.312016	-0.835876
C88	C	1.813263	0.187984	-0.335876
C89	C	1.318700	-0.306894	-0.741347
C90	C	1.818700	0.193106	-0.241347
C91	C	1.202869	-0.416343	-0.747996
C92	C	1.702869	0.083657	-0.247996
C93	C	1.197436	-0.421469	-0.842523
C94	C	1.697436	0.078531	-0.342523
C95	C	1.296437	-0.327965	-0.125545
C96	C	1.796437	0.172035	0.374455
C97	C	1.302397	-0.322269	-0.024931
C98	C	1.802397	0.177731	0.475069
H99	H	0.805897	-0.213189	-0.226112
H100	H	1.305897	0.286811	0.273888
F101	F	1.144131	-0.471868	-0.701228
F102	F	1.644131	0.028132	-0.201228
H103	H	0.760757	-0.468362	-0.495292
H104	H	1.260757	0.031638	0.004708
F105	F	1.383233	-0.245923	-0.687513
F106	F	1.883233	0.254077	-0.187513
F107	F	0.623401	-0.209512	-0.222236
F108	F	1.123401	0.290488	0.277764
F109	F	0.943231	-0.472038	-0.499158
F110	F	1.443231	0.027962	0.000842
F111	F	1.432996	-0.198889	-0.825976
F112	F	1.932996	0.301111	-0.325976
H113	H	1.197832	-0.421077	-1.022189
H114	H	1.697832	0.078923	-0.522189
H115	H	1.407967	-0.222502	-1.010110
H116	H	1.907967	0.277498	-0.510110
H117	H	1.148068	-0.468113	-0.883721
H118	H	1.648068	0.031887	-0.383721
H119	H	0.622298	-0.421339	-0.445685
H120	H	1.122298	0.078661	0.054315
H121	H	0.944359	-0.260216	-0.275715
H122	H	1.444359	0.239784	0.224285
