data_functionalizedCrystal
_audit_creation_method	'MofGen! by Chris Wilmer'
_symmetry_space_group_name_H-M	'P1'
_symmetry_Int_Tables_number	1
_symmetry_cell_setting	triclinic
loop_
_symmetry_equiv_pos_as_xyz
  x,y,z
_cell_length_a	11.792254
_cell_length_b	19.288840
_cell_length_c	10.268362
_cell_angle_alpha	90.011822
_cell_angle_beta	90.003096
_cell_angle_gamma	96.337693
loop_
_atom_site_label
_atom_site_type_symbol
_atom_site_fract_x
_atom_site_fract_y
_atom_site_fract_z
O1	O	-0.141439	0.922167	0.108505
O2	O	0.358561	1.422167	0.608505
O3	O	-0.160567	0.720013	0.108459
O4	O	0.339433	1.220013	0.608459
O5	O	0.014242	0.825991	0.108489
O6	O	0.514242	1.325991	0.608489
O7	O	-0.316248	0.816189	0.108475
O8	O	0.183752	1.316189	0.608475
O9	O	0.014236	0.825981	-0.108111
O10	O	0.514236	1.325981	0.391889
O11	O	-0.160573	0.720003	-0.108142
O12	O	0.339427	1.220003	0.391858
O13	O	-0.141445	0.922157	-0.108095
O14	O	0.358555	1.422157	0.391905
Cu15	Cu	-0.151009	0.821079	-0.127896
Cu16	Cu	0.348991	1.321079	0.372104
Cu17	Cu	-0.151002	0.821091	0.128259
Cu18	Cu	0.348998	1.321091	0.628259
O19	O	-0.316254	0.816179	-0.108126
O20	O	0.183746	1.316179	0.391874
C21	C	-0.159960	0.694128	0.000153
C22	C	0.340040	1.194128	0.500153
C23	C	-0.158126	0.617013	0.000135
C24	C	0.341874	1.117013	0.500135
C25	C	-0.157242	0.580810	0.118208
C26	C	0.342758	1.080810	0.618208
C27	C	-0.155507	0.508353	0.118224
C28	C	0.344493	1.008353	0.618224
C29	C	-0.154633	0.472104	0.000161
C30	C	0.345367	0.972104	0.500161
C31	C	-0.155523	0.508315	-0.117927
C32	C	0.344477	1.008315	0.382073
C33	C	-0.157270	0.580770	-0.117940
C34	C	0.342730	1.080770	0.382060
C35	C	-0.085391	0.362377	-0.090271
C36	C	0.414609	0.862377	0.409729
C37	C	-0.083637	0.289924	-0.090254
C38	C	0.416363	0.789924	0.409746
C39	C	-0.149250	0.248630	0.000195
C40	C	0.350750	0.748630	0.500195
C41	C	-0.216602	0.279798	0.090648
C42	C	0.283398	0.779798	0.590648
C43	C	-0.218349	0.352252	0.090635
C44	C	0.281651	0.852252	0.590635
C45	C	-0.152739	0.393539	0.000161
C46	C	0.347261	0.893539	0.500161
C47	C	-0.146486	0.133861	0.118293
C48	C	0.353514	0.633861	0.618293
C49	C	-0.144758	0.061402	0.118304
C50	C	0.355242	0.561402	0.618304
C51	C	-0.144763	0.061366	-0.117851
C52	C	0.355237	0.561366	0.382149
C53	C	-0.146503	0.133822	-0.117858
C54	C	0.353497	0.633822	0.382142
C55	C	-0.147359	0.170066	0.000217
C56	C	0.352641	0.670066	0.500217
C57	C	-0.358532	0.816802	0.000173
C58	C	0.141468	1.316802	0.500173
C59	C	-0.484516	0.818650	0.000169
C60	C	0.015484	1.318650	0.500169
C61	C	-0.586830	0.820151	0.000177
C62	C	-0.086830	1.320151	0.500177
C63	C	-0.715188	0.822029	0.000193
C64	C	-0.215188	1.322029	0.500193
C65	C	0.056520	0.825369	0.000193
C66	C	0.556520	1.325369	0.500193
C67	C	0.182505	0.823521	0.000205
C68	C	0.682505	1.323521	0.500205
C69	C	-0.142052	0.948042	0.000214
C70	C	0.357948	1.448042	0.500214
C71	C	-0.143886	1.025157	0.000240
C72	C	0.356114	1.525157	0.500240
N73	N	-0.151014	0.821076	-0.308062
N74	N	0.348986	1.321076	0.191938
C75	C	-0.151014	0.821081	-0.425904
C76	C	0.348986	1.321081	0.074096
C77	C	-0.151004	0.821090	-0.573742
C78	C	0.348996	1.321090	-0.073742
N79	N	-0.150989	0.821100	0.308425
N80	N	0.349011	1.321100	0.808425
H81	H	-0.273192	0.377626	0.164282
H82	H	0.226808	0.877626	0.664282
N83	N	-0.158161	0.619901	0.245554
N84	N	0.341839	1.119901	0.745554
H85	H	-0.157336	0.585968	0.320356
H86	H	0.342664	1.085968	0.820356
H87	H	-0.229226	0.644593	0.250700
H88	H	0.270774	1.144593	0.750700
H89	H	-0.144058	0.031852	-0.213980
H90	H	0.355942	0.531852	0.286020
N91	N	-0.154534	0.469291	0.245573
N92	N	0.345466	0.969291	0.745573
H93	H	-0.224145	0.433856	0.250847
H94	H	0.275855	0.933856	0.750847
H95	H	-0.155298	0.503290	0.320299
H96	H	0.344702	1.003290	0.820299
H97	H	-0.147215	0.163300	-0.214006
H98	H	0.352785	0.663300	0.285994
H99	H	-0.270035	0.246177	0.164295
H100	H	0.229965	0.746177	0.664295
H101	H	-0.031958	0.395994	-0.163931
H102	H	0.468042	0.895994	0.336069
H103	H	-0.154814	0.478796	-0.214055
H104	H	0.345186	0.978796	0.285945
H105	H	-0.147195	0.163370	0.214437
H106	H	0.352805	0.663370	0.714437
N107	N	-0.143807	0.022350	0.245660
N108	N	0.356193	0.522350	0.745660
H109	H	-0.144611	0.056308	0.320452
H110	H	0.355389	0.556308	0.820452
H111	H	-0.072741	-0.002340	0.250799
H112	H	0.427259	0.497660	0.750799
N113	N	-0.010992	0.256310	-0.187801
N114	N	0.489008	0.756310	0.312199
H115	H	0.030298	0.293461	-0.245112
H116	H	0.530298	0.793461	0.254888
H117	H	-0.061263	0.222343	-0.243343
H118	H	0.438737	0.722343	0.256657
N119	N	-0.158228	0.619822	-0.245294
N120	N	0.341772	1.119822	0.254706
H121	H	-0.157417	0.585866	-0.320088
H122	H	0.342583	1.085866	0.179912
H123	H	-0.088610	0.655254	-0.250443
H124	H	0.411390	1.155254	0.249557
