data_functionalizedCrystal
_audit_creation_method	'MofGen! by Chris Wilmer'
_symmetry_space_group_name_H-M	'P1'
_symmetry_Int_Tables_number	1
_symmetry_cell_setting	triclinic
loop_
_symmetry_equiv_pos_as_xyz
  x,y,z
_cell_length_a	14.044220
_cell_length_b	14.044190
_cell_length_c	9.198806
_cell_angle_alpha	90.008268
_cell_angle_beta	89.999093
_cell_angle_gamma	93.190328
loop_
_atom_site_label
_atom_site_type_symbol
_atom_site_fract_x
_atom_site_fract_y
_atom_site_fract_z
O1	O	1.277173	0.230167	0.120767
O2	O	1.777173	0.730167	0.620767
O3	O	1.000501	0.221861	0.120803
O4	O	1.500501	0.721861	0.620803
O5	O	1.134681	0.087677	0.120757
O6	O	1.634681	0.587677	0.620757
O7	O	1.142994	0.364350	0.120813
O8	O	1.642994	0.864350	0.620813
O9	O	1.134669	0.087675	-0.121028
O10	O	1.634669	0.587675	0.378972
O11	O	1.000490	0.221859	-0.120982
O12	O	1.500490	0.721859	0.379018
O13	O	1.277161	0.230165	-0.121018
O14	O	1.777161	0.730165	0.378982
Cu15	Cu	1.138825	0.226011	-0.143077
Cu16	Cu	1.638825	0.726011	0.356923
Cu17	Cu	1.138838	0.226014	0.142862
Cu18	Cu	1.638838	0.726014	0.642862
O19	O	1.142982	0.364348	-0.120972
O20	O	1.642982	0.864348	0.379028
C21	C	1.131039	0.052054	-0.000139
C22	C	1.631039	0.552054	0.499861
C23	C	1.120191	-0.054089	-0.000150
C24	C	1.620191	0.445911	0.499850
C25	C	0.964874	0.218224	-0.000085
C26	C	1.464874	0.718224	0.499915
C27	C	0.858731	0.207380	-0.000073
C28	C	1.358731	0.707380	0.499927
C29	C	1.177292	-0.299547	-0.000101
C30	C	1.677292	0.200453	0.499899
C31	C	1.100375	-0.248422	-0.000101
C32	C	1.600375	0.251578	0.499899
C33	C	1.111404	-0.140285	-0.000129
C34	C	1.611404	0.359715	0.499871
C35	C	1.166265	-0.407694	-0.000073
C36	C	1.666265	0.092306	0.499927
C37	C	0.664392	0.187553	-0.000106
C38	C	1.164392	0.687553	0.499894
C39	C	0.613264	0.264468	-0.000096
C40	C	1.113264	0.764468	0.499904
C41	C	0.505128	0.253436	-0.000115
C42	C	1.005128	0.753436	0.499885
C43	C	0.772539	0.198583	-0.000087
C44	C	1.272539	0.698583	0.499913
C45	C	1.312789	0.233801	-0.000126
C46	C	1.812789	0.733801	0.499874
C47	C	1.418932	0.244646	-0.000129
C48	C	1.918932	0.744646	0.499871
C49	C	1.146624	0.399971	-0.000072
C50	C	1.646624	0.899971	0.499928
C51	C	1.157472	0.506114	-0.000051
C52	C	1.657472	1.006114	0.499949
N53	N	1.138822	0.226010	-0.344191
N54	N	1.638822	0.726010	0.155809
C55	C	1.198662	0.285564	-0.416384
C56	C	1.698662	0.785564	0.083616
C57	C	1.198677	0.285564	-0.583797
C58	C	1.698677	0.785564	-0.083797
N59	N	1.138848	0.226009	0.343976
N60	N	1.638848	0.726009	0.843976
H61	H	1.026243	-0.285865	-0.000083
H62	H	1.526243	0.214135	0.499917
H63	H	1.249904	0.336555	-0.645882
H64	H	1.749904	0.836555	-0.145882
H65	H	0.626954	0.113425	-0.000129
H66	H	1.126954	0.613425	0.499871
C67	C	1.266913	0.353707	-0.333738
C68	C	1.766913	0.853707	0.166262
C69	C	1.249014	0.447758	-0.370665
C70	C	1.749014	0.947758	0.129335
C71	C	1.311877	0.510558	-0.294577
C72	C	1.811877	1.010558	0.205423
H73	H	1.257889	0.344801	-0.232205
H74	H	1.757889	0.844801	0.267795
H75	H	1.330727	0.341423	-0.358633
H76	H	1.830727	0.841423	0.141367
H77	H	1.185215	0.460037	-0.345759
H78	H	1.685215	0.960037	0.154241
H79	H	1.258044	0.456694	-0.472184
H80	H	1.758044	0.956694	0.027816
H81	H	1.375692	0.498274	-0.319473
H82	H	1.875692	0.998274	0.180527
H83	H	1.302849	0.501644	-0.193048
H84	H	1.802849	1.001644	0.306952
H85	H	1.299748	0.574378	-0.319631
H86	H	1.799748	1.074378	0.180369
H87	H	1.087610	0.175024	-0.593948
H88	H	1.587610	0.675024	-0.093948
H89	H	1.087603	0.175021	-0.406323
H90	H	1.587603	0.675021	0.093677
H91	H	1.251418	-0.262106	-0.000125
H92	H	1.751418	0.237894	0.499875
H93	H	0.650706	0.338602	-0.000074
H94	H	1.150706	0.838602	0.499926
