data_functionalizedCrystal
_audit_creation_method	'MofGen! by Chris Wilmer'
_symmetry_space_group_name_H-M	'P1'
_symmetry_Int_Tables_number	1
_symmetry_cell_setting	triclinic
loop_
_symmetry_equiv_pos_as_xyz
  x,y,z
_cell_length_a	14.908558
_cell_length_b	14.908178
_cell_length_c	14.908308
_cell_angle_alpha	90.221621
_cell_angle_beta	89.824401
_cell_angle_gamma	89.819838
loop_
_atom_site_label
_atom_site_type_symbol
_atom_site_fract_x
_atom_site_fract_y
_atom_site_fract_z
Zn1	Zn	1.319972	-0.467750	0.559094
Zn2	Zn	1.653305	-0.134416	0.892428
Zn3	Zn	1.986638	0.198917	1.225761
Zn4	Zn	1.320876	-0.609515	0.400104
Zn5	Zn	1.654209	-0.276181	0.733437
Zn6	Zn	1.987543	0.057152	1.066771
Zn7	Zn	1.179219	-0.450532	0.401141
Zn8	Zn	1.512552	-0.117199	0.734475
Zn9	Zn	1.845886	0.216134	1.067808
Zn10	Zn	1.161961	-0.608447	0.541822
Zn11	Zn	1.495295	-0.275114	0.875155
Zn12	Zn	1.828628	0.058220	1.208489
O13	O	1.245507	-0.534061	0.475540
O14	O	1.578840	-0.200728	0.808874
O15	O	1.912174	0.132606	1.142207
O16	O	1.445503	-0.494207	0.544798
O17	O	1.778837	-0.160874	0.878132
O18	O	2.112170	0.172459	1.211465
O19	O	1.309686	-0.581666	0.274828
O20	O	1.643019	-0.248333	0.608162
O21	O	1.976352	0.085000	0.941495
O22	O	1.204734	-0.327399	0.429757
O23	O	1.538067	0.005934	0.763090
O24	O	1.871400	0.339267	1.096424
O25	O	1.446168	-0.598361	0.427989
O26	O	1.779501	-0.265028	0.761322
O27	O	2.112835	0.068305	1.094655
O28	O	1.308144	-0.340049	0.545804
O29	O	1.641478	-0.006715	0.879138
O30	O	1.974811	0.326618	1.212471
O31	O	1.205611	-0.464863	0.275591
O32	O	1.538944	-0.131530	0.608924
O33	O	1.872277	0.201804	0.942257
O34	O	1.051518	-0.463828	0.413009
O35	O	1.384851	-0.130495	0.746342
O36	O	1.718184	0.202839	1.079675
O37	O	1.175321	-0.596542	0.669526
O38	O	1.508654	-0.263209	1.002860
O39	O	1.841988	0.070125	1.336193
O40	O	1.038839	-0.579847	0.516366
O41	O	1.372172	-0.246514	0.849699
O42	O	1.705505	0.086819	1.183033
O43	O	1.291410	-0.493172	0.682216
O44	O	1.624744	-0.159839	1.015550
O45	O	1.958077	0.173494	1.348883
O46	O	1.292952	-0.734790	0.411240
O47	O	1.626285	-0.401457	0.744574
O48	O	1.959619	-0.068123	1.077907
O49	O	1.176198	-0.734006	0.515360
O50	O	1.509531	-0.400672	0.848693
O51	O	1.842865	-0.067339	1.182027
C52	C	1.012660	-0.519854	0.462926
C53	C	1.345994	-0.186521	0.796260
C54	C	1.679327	0.146813	1.129593
C55	C	0.913045	-0.513799	0.457550
C56	C	1.246378	-0.180466	0.790883
C57	C	1.579712	0.152868	1.124216
C58	C	0.779215	-0.444781	0.396258
C59	C	1.112549	-0.111448	0.729592
C60	C	1.445882	0.221886	1.062925
C61	C	0.872813	-0.450466	0.401307
C62	C	1.206147	-0.117132	0.734640
C63	C	1.539480	0.216201	1.067973
C64	C	0.859671	-0.571451	0.508750
C65	C	1.193005	-0.238117	0.842084
C66	C	1.526338	0.095216	1.175417
C67	C	0.766073	-0.565766	0.503702
C68	C	1.099407	-0.232433	0.837035
C69	C	1.432740	0.100901	1.170369
C70	C	0.725849	-0.502430	0.447453
C71	C	1.059182	-0.169097	0.780786
C72	C	1.392516	0.164237	1.114120
C73	C	0.632249	-0.496750	0.442401
C74	C	0.965583	-0.163417	0.775734
C75	C	1.298916	0.169916	1.109067
C76	C	0.619109	-0.617731	0.549848
C77	C	0.952442	-0.284397	0.883182
C78	C	1.285776	0.048936	1.216515
C79	C	0.712707	-0.623415	0.554897
C80	C	1.046040	-0.290082	0.888230
C81	C	1.379374	0.043252	1.221563
C82	C	1.232823	-0.766920	0.461334
C83	C	1.566157	-0.433586	0.794668
C84	C	1.899490	-0.100253	1.128001
C85	C	1.227478	-0.866544	0.455291
C86	C	1.560811	-0.533211	0.788625
C87	C	1.894144	-0.199877	1.121958
C88	C	1.325019	-1.066772	0.564894
C89	C	1.658352	-0.733439	0.898227
C90	C	1.991686	-0.400106	1.231561
C91	C	1.319999	-1.160379	0.559219
C92	C	1.653332	-0.827045	0.892552
C93	C	1.986666	-0.493712	1.225886
C94	C	1.212413	-1.147365	0.438272
C95	C	1.545747	-0.814032	0.771605
C96	C	1.879080	-0.480698	1.104938
C97	C	1.217433	-1.053759	0.443947
C98	C	1.550767	-0.720425	0.777280
C99	C	1.884100	-0.387092	1.110613
C100	C	1.273739	-1.013466	0.507259
C101	C	1.607072	-0.680133	0.840592
C102	C	1.940406	-0.346799	1.173926
C103	C	1.278763	-0.919858	0.512929
C104	C	1.612097	-0.586524	0.846262
C105	C	1.945430	-0.253191	1.179595
C106	C	1.171173	-0.906846	0.391986
C107	C	1.504507	-0.573512	0.725320
C108	C	1.837840	-0.240179	1.058653
C109	C	1.166153	-1.000452	0.386312
C110	C	1.499487	-0.667119	0.719645
C111	C	1.832820	-0.333785	1.052978
C112	C	1.479263	-0.548324	0.488204
C113	C	1.812596	-0.214991	0.821538
C114	C	2.145930	0.118343	1.154871
C115	C	1.578876	-0.554402	0.493601
C116	C	1.912209	-0.221069	0.826934
C117	C	2.245542	0.112265	1.160268
C118	C	1.231340	-0.546659	0.709299
C119	C	1.564673	-0.213325	1.042632
C120	C	1.898006	0.120008	1.375966
C121	C	1.225302	-0.552027	0.808913
C122	C	1.558636	-0.218694	1.142246
C123	C	1.891969	0.114640	1.475579
C124	C	1.258263	-0.300296	0.489823
C125	C	1.591597	0.033038	0.823156
C126	C	1.924930	0.366371	1.156490
C127	C	1.263699	-0.200679	0.495909
C128	C	1.597032	0.132655	0.829243
C129	C	1.930366	0.465988	1.162576
C130	C	1.259674	-0.521451	0.242698
C131	C	1.593008	-0.188117	0.576031
C132	C	1.926341	0.145216	0.909365
C133	C	1.265899	-0.515840	0.143109
C134	C	1.599232	-0.182507	0.476443
C135	C	1.932565	0.150826	0.809776
C136	C	1.334840	-0.454455	1.009315
C137	C	1.668174	-0.121122	1.342648
C138	C	2.001507	0.212212	1.675981
C139	C	1.329171	-0.459496	1.102911
C140	C	1.662504	-0.126163	1.436245
C141	C	1.995837	0.207171	1.769578
C142	C	1.208290	-0.567145	1.089704
C143	C	1.541623	-0.233812	1.423037
C144	C	1.874957	0.099521	1.756371
C145	C	1.213960	-0.562104	0.996108
C146	C	1.547293	-0.228771	1.329441
C147	C	1.880626	0.104563	1.662774
C148	C	1.277238	-0.505758	0.955916
C149	C	1.610571	-0.172425	1.289250
C150	C	1.943904	0.160909	1.622583
C151	C	1.282911	-0.500722	0.862318
C152	C	1.616244	-0.167389	1.195651
C153	C	1.949578	0.165944	1.528985
C154	C	1.162027	-0.608366	0.849113
C155	C	1.495360	-0.275033	1.182446
C156	C	1.828693	0.058301	1.515779
C157	C	1.156357	-0.613407	0.942709
C158	C	1.489690	-0.280074	1.276043
C159	C	1.823024	0.053259	1.609376
H160	H	0.599500	-0.445178	0.396601
H161	H	0.932834	-0.111845	0.729934
H162	H	1.266167	0.221488	1.063267
H163	H	1.370872	-1.033966	0.616439
H164	H	1.704205	-0.700632	0.949773
H165	H	2.037539	-0.367299	1.283106
H166	H	0.746464	-0.393212	0.350457
H167	H	1.079798	-0.059879	0.683790
H168	H	1.413131	0.273455	1.017123
F169	F	0.562305	-0.679084	0.604342
F170	F	0.895639	-0.345751	0.937676
F171	F	1.228972	-0.012418	1.271009
F172	F	1.350259	-0.440757	0.819545
F173	F	1.683592	-0.107424	1.152878
F174	F	2.016925	0.225909	1.486212
F175	F	1.140945	-0.627101	1.132494
F176	F	1.474279	-0.293768	1.465827
F177	F	1.807612	0.039565	1.799161
H178	H	1.376075	-0.417717	1.146385
H179	H	1.709408	-0.084384	1.479719
H180	H	2.042741	0.248949	1.813052
H181	H	1.386368	-0.408580	0.976591
H182	H	1.719701	-0.075247	1.309924
H183	H	2.053035	0.258086	1.643257
H184	H	0.892439	-0.623011	0.554550
H185	H	1.225772	-0.289678	0.887883
H186	H	1.559105	0.043655	1.221216
H187	H	1.166568	-1.180188	0.386730
H188	H	1.499901	-0.846855	0.720063
H189	H	1.833234	-0.513522	1.053397
H190	H	0.745471	-0.674979	0.600695
H191	H	1.078804	-0.341646	0.934028
H192	H	1.412137	-0.008312	1.267362
F193	F	1.089014	-0.673370	0.985494
F194	F	1.422348	-0.340036	1.318827
F195	F	1.755681	-0.006703	1.652160
F196	F	1.338691	-0.876976	0.580308
F197	F	1.672024	-0.543643	0.913641
F198	F	2.005358	-0.210310	1.246975
F199	F	1.374576	-1.217109	0.620564
F200	F	1.707909	-0.883775	0.953898
F201	F	2.041243	-0.550442	1.287231
H202	H	1.120309	-1.033272	0.334767
H203	H	1.453642	-0.699938	0.668100
H204	H	1.786975	-0.366605	1.001433
H205	H	1.115125	-0.650143	0.805625
H206	H	1.448458	-0.316810	1.138959
H207	H	1.781791	0.016523	1.472292
H208	H	0.916261	-0.403519	0.359622
H209	H	1.249595	-0.070185	0.692955
H210	H	1.582928	0.263148	1.026289
F211	F	1.116600	-0.850106	0.330638
F212	F	1.449933	-0.516773	0.663971
F213	F	1.783266	-0.183439	0.997304
