data_functionalizedCrystal
_audit_creation_method	'MofGen! by Chris Wilmer'
_symmetry_space_group_name_H-M	'P1'
_symmetry_Int_Tables_number	1
_symmetry_cell_setting	triclinic
loop_
_symmetry_equiv_pos_as_xyz
  x,y,z
_cell_length_a	42.795305
_cell_length_b	42.779661
_cell_length_c	42.784822
_cell_angle_alpha	89.990848
_cell_angle_beta	120.002739
_cell_angle_gamma	120.011937
loop_
_atom_site_label
_atom_site_type_symbol
_atom_site_fract_x
_atom_site_fract_y
_atom_site_fract_z
O1	O	-0.223712	-0.214463	-0.490109
O2	O	-0.159712	-0.169001	-0.380654
O3	O	-0.223699	-0.169000	-0.444655
O4	O	-0.159725	-0.214464	-0.426108
O5	O	-0.275683	-0.220997	-0.444655
O6	O	-0.211696	-0.220998	-0.380654
O7	O	-0.275695	-0.266460	-0.490109
Cu8	Cu	-0.248442	-0.248477	-0.435381
Cu9	Cu	-0.186965	-0.186985	-0.435381
O10	O	-0.211709	-0.266461	-0.426108
C11	C	-0.384312	-0.022793	-0.463533
C12	C	-0.365688	-0.041780	-0.463797
C13	C	-0.440909	-0.079406	-0.463533
C14	C	-0.422199	-0.098307	-0.463797
C15	C	-0.384324	-0.079405	-0.463533
C16	C	-0.422187	-0.041781	-0.463797
C17	C	-0.339483	0.113726	-0.453286
C18	C	-0.318768	0.152387	-0.450389
C19	C	-0.280043	0.171782	-0.448934
C20	C	-0.257575	0.213703	-0.445786
C21	C	-0.262037	0.152512	-0.450380
C22	C	-0.282756	0.113852	-0.453283
C23	C	-0.321481	0.094459	-0.454735
C24	C	-0.282430	-0.113973	-0.453286
C25	C	-0.261602	-0.131791	-0.450388
C26	C	-0.279488	-0.169074	-0.448932
C27	C	-0.256905	-0.188395	-0.445785
C28	C	-0.318209	-0.188539	-0.450378
C29	C	-0.339041	-0.170724	-0.453282
C30	C	-0.321145	-0.133437	-0.454733
C31	C	-0.567127	-0.113978	-0.453285
C32	C	-0.602874	-0.131795	-0.450383
C33	C	-0.620813	-0.169079	-0.448929
C34	C	-0.659570	-0.188400	-0.445780
C35	C	-0.603002	-0.188542	-0.450373
C36	C	-0.567255	-0.170723	-0.453274
C37	C	-0.549323	-0.133441	-0.454733
C38	C	-0.343942	0.052540	-0.457879
C39	C	-0.361847	0.019126	-0.460386
C40	C	-0.479667	-0.098725	-0.460386
C41	C	-0.510562	-0.114124	-0.457878
C42	C	-0.361738	-0.098723	-0.460386
C43	C	-0.343734	-0.114121	-0.457879
O44	O	-0.763149	-0.214475	-0.426107
O45	O	-0.672256	-0.169008	-0.444655
O46	O	-0.672253	-0.169010	-0.380654
O47	O	-0.763152	-0.214473	-0.490108
O48	O	-0.672264	-0.221006	-0.380654
O49	O	-0.672267	-0.221003	-0.444655
O50	O	-0.763160	-0.266471	-0.426107
Cu51	Cu	-0.717714	-0.248485	-0.435381
Cu52	Cu	-0.717702	-0.186994	-0.435381
O53	O	-0.763163	-0.266468	-0.490108
C54	C	-0.384401	-0.356296	-0.796973
C55	C	-0.422281	-0.393920	-0.815870
C56	C	-0.384399	-0.356297	-0.740373
C57	C	-0.422279	-0.393921	-0.759357
C58	C	-0.440999	-0.412908	-0.796973
C59	C	-0.365767	-0.337395	-0.759356
C60	C	-0.282479	-0.264594	-0.831534
C61	C	-0.261643	-0.246649	-0.849349
C62	C	-0.279531	-0.265993	-0.886625
C63	C	-0.256936	-0.246540	-0.905940
C64	C	-0.318257	-0.303281	-0.906086
C65	C	-0.339093	-0.321221	-0.888273
C66	C	-0.321202	-0.301876	-0.850995
C67	C	-0.567245	-0.549426	-0.888654
C68	C	-0.603001	-0.588087	-0.906595
C69	C	-0.620936	-0.607483	-0.887257
C70	C	-0.659700	-0.649402	-0.906703
C71	C	-0.603115	-0.588214	-0.849976
C72	C	-0.567365	-0.549553	-0.832038
C73	C	-0.549431	-0.530162	-0.851382
C74	C	-0.282471	-0.264599	-0.603883
C75	C	-0.261629	-0.246657	-0.565229
C76	C	-0.279514	-0.266002	-0.545839
C77	C	-0.256918	-0.246551	-0.503927
C78	C	-0.318238	-0.303289	-0.565104
C79	C	-0.339076	-0.321230	-0.603756
C80	C	-0.321190	-0.301880	-0.623144
C81	C	-0.343797	-0.321333	-0.831682
C82	C	-0.361807	-0.336842	-0.816287
C83	C	-0.361802	-0.336844	-0.698463
C84	C	-0.343790	-0.321337	-0.665056
C85	C	-0.479763	-0.454827	-0.816423
C86	C	-0.510663	-0.488241	-0.831927
C87	C	-0.051106	-0.412677	-0.407230
C88	C	-0.013231	-0.393690	-0.406966
C89	C	-0.051091	-0.356064	-0.407230
C90	C	-0.013216	-0.337163	-0.406966
C91	C	0.005493	-0.356065	-0.407230
C92	C	-0.069729	-0.393689	-0.406966
C93	C	-0.153042	-0.549196	-0.417478
C94	C	-0.173885	-0.587857	-0.420375
C95	C	-0.156009	-0.607252	-0.421829
C96	C	-0.178610	-0.649173	-0.424978
C97	C	-0.117288	-0.587982	-0.420383
C98	C	-0.096445	-0.549323	-0.417481
C99	C	-0.114324	-0.529930	-0.416028
C100	C	0.131710	-0.321498	-0.417477
C101	C	0.167460	-0.303680	-0.420374
C102	C	0.185400	-0.266398	-0.421830
C103	C	0.224158	-0.247077	-0.424977
C104	C	0.167590	-0.246932	-0.420384
C105	C	0.131847	-0.264747	-0.417480
C106	C	0.113906	-0.302034	-0.416029
C107	C	-0.152982	-0.321491	-0.417477
C108	C	-0.173812	-0.303673	-0.420380
C109	C	-0.155922	-0.266389	-0.421834
C110	C	-0.178507	-0.247069	-0.424982
C111	C	-0.117203	-0.246926	-0.420389
C112	C	-0.096376	-0.264746	-0.417489
C113	C	-0.114267	-0.302028	-0.416030
C114	C	-0.091723	-0.488010	-0.412885
C115	C	-0.073707	-0.454596	-0.410377
C116	C	-0.073676	-0.336745	-0.410377
C117	C	-0.091679	-0.321346	-0.412884
C118	C	0.044251	-0.336748	-0.410377
C119	C	0.075146	-0.321350	-0.412884
O120	O	-0.159844	0.337004	-0.426109
O121	O	-0.223855	0.227526	-0.444655
O122	O	-0.159853	0.291539	-0.380655
O123	O	-0.223846	0.272990	-0.490109
O124	O	-0.211824	0.291540	-0.380655
O125	O	-0.275826	0.227526	-0.444655
O126	O	-0.211815	0.337004	-0.426108
Cu127	Cu	-0.248566	0.282265	-0.435382
Cu128	Cu	-0.187104	0.282264	-0.435382
O129	O	-0.275817	0.272990	-0.490109
O130	O	-0.763290	-0.772706	-0.932247
O131	O	-0.672388	-0.663226	-0.886797
O132	O	-0.672394	-0.727236	-0.886793
O133	O	-0.763285	-0.708696	-0.932251
O134	O	-0.672396	-0.727235	-0.938778
O135	O	-0.672391	-0.663225	-0.938783
O136	O	-0.763292	-0.772705	-0.984232
Cu137	Cu	-0.717842	-0.717965	-0.966254
Cu138	Cu	-0.717839	-0.717966	-0.904775
O139	O	-0.763287	-0.708695	-0.984236
O140	O	-0.211709	-0.220990	-0.983982
O141	O	-0.275710	-0.266451	-0.938534
O142	O	-0.211720	-0.266449	-0.938523
O143	O	-0.275699	-0.220992	-0.983993
O144	O	-0.159739	-0.214450	-0.886540
O145	O	-0.223729	-0.214452	-0.886552
O146	O	-0.159728	-0.168991	-0.931999
Cu147	Cu	-0.186982	-0.186974	-0.904529
Cu148	Cu	-0.248456	-0.248468	-0.966004
O149	O	-0.223718	-0.168993	-0.932011
C150	C	0.005326	-0.022784	-0.073799
C151	C	-0.013393	-0.041771	-0.054903
C152	C	-0.051270	-0.079398	-0.130397
C153	C	-0.069903	-0.098299	-0.111414
C154	C	-0.051272	-0.079396	-0.073799
C155	C	-0.013391	-0.041773	-0.111414
C156	C	0.131567	0.113736	-0.039239
C157	C	0.167322	0.152397	-0.021426
C158	C	0.185256	0.171792	0.015849
C159	C	0.224018	0.213713	0.035163
C160	C	0.167436	0.152522	0.035309
C161	C	0.131688	0.113863	0.017497
C162	C	0.113753	0.094469	-0.019779
C163	C	-0.096082	-0.113964	0.017877
C164	C	-0.116793	-0.131783	0.035816
C165	C	-0.155522	-0.169065	0.016478
C166	C	-0.177986	-0.188387	0.035923
C167	C	-0.173535	-0.188531	-0.020801
C168	C	-0.152820	-0.170716	-0.038738
C169	C	-0.114092	-0.133429	-0.019394
C170	C	-0.096072	-0.113970	-0.266883
C171	C	-0.116785	-0.131788	-0.305536
C172	C	-0.155514	-0.169073	-0.324925
C173	C	-0.177975	-0.188394	-0.366836
C174	C	-0.173529	-0.188536	-0.305662
C175	C	-0.152816	-0.170716	-0.267010
C176	C	-0.114084	-0.133434	-0.247622
C177	C	0.074988	0.052550	-0.039092
C178	C	0.044089	0.019135	-0.054486
C179	C	-0.073728	-0.098717	-0.172306
C180	C	-0.091629	-0.114116	-0.205712
C181	C	-0.073732	-0.098714	-0.054351
C182	C	-0.091635	-0.114112	-0.038848
C183	C	-0.384307	-0.079176	-0.073790
C184	C	-0.365669	-0.041552	-0.054892
C185	C	-0.440894	-0.079174	-0.130389
C186	C	-0.422171	-0.041550	-0.111405
C187	C	-0.384294	-0.022564	-0.073789
C188	C	-0.422184	-0.098076	-0.111407
C189	C	-0.339528	-0.170876	-0.039232
C190	C	-0.318824	-0.188821	-0.021417
C191	C	-0.280098	-0.169477	0.015858
C192	C	-0.257643	-0.188929	0.035173
C193	C	-0.262079	-0.132189	0.035320
C194	C	-0.282786	-0.114249	0.017508
C195	C	-0.321512	-0.133595	-0.019770
C196	C	-0.282358	0.113953	0.017894
C197	C	-0.261516	0.152613	0.035836
C198	C	-0.279391	0.172010	0.016498
C199	C	-0.256793	0.213928	0.035945
C200	C	-0.318114	0.152740	-0.020783
C201	C	-0.338959	0.114080	-0.038721
C202	C	-0.321074	0.094689	-0.019378
C203	C	-0.567131	-0.170871	-0.266880
C204	C	-0.602880	-0.188813	-0.305534
C205	C	-0.620807	-0.169468	-0.324923
C206	C	-0.659567	-0.188919	-0.366835
C207	C	-0.602983	-0.132181	-0.305658
C208	C	-0.567234	-0.114241	-0.267006
C209	C	-0.549313	-0.133591	-0.247618
C210	C	-0.343960	-0.114137	-0.039083
C211	C	-0.361855	-0.098629	-0.054477
C212	C	-0.479654	-0.098627	-0.172299
C213	C	-0.510550	-0.114134	-0.205706
C214	C	-0.361693	0.019355	-0.054338
C215	C	-0.343678	0.052768	-0.038833
C216	C	-1.051139	-0.412687	-0.796965
C217	C	-1.069773	-0.393704	-0.815860
C218	C	-0.994542	-0.356076	-0.740365
C219	C	-1.013261	-0.337179	-0.759346
C220	C	-1.051141	-0.356082	-0.796961
C221	C	-1.013260	-0.393697	-0.759350
C222	C	-1.095942	-0.549195	-0.831533
C223	C	-1.116652	-0.587854	-0.849349
C224	C	-1.155381	-0.607250	-0.886624
C225	C	-1.177843	-0.649169	-0.905940
C226	C	-1.173397	-0.587985	-0.906082
C227	C	-1.152683	-0.549328	-0.888268
C228	C	-1.113954	-0.529933	-0.850992
C229	C	-1.153067	-0.321531	-0.888630
C230	C	-1.173904	-0.303718	-0.906568
C231	C	-1.156023	-0.266438	-0.887228
C232	C	-1.178615	-0.247123	-0.906670
C233	C	-1.117297	-0.246971	-0.849948
C234	C	-1.096456	-0.264781	-0.832014
C235	C	-1.114348	-0.302065	-0.851359
C236	C	-0.868300	-0.321497	-0.603882
C237	C	-0.832548	-0.303679	-0.565228
C238	C	-0.814613	-0.266398	-0.545837
C239	C	-0.775850	-0.247077	-0.503926
C240	C	-0.832434	-0.246939	-0.565099
C241	C	-0.868186	-0.264759	-0.603750
C242	C	-0.886113	-0.302038	-0.623140
C243	C	-1.091499	-0.488016	-0.831676
C244	C	-1.073598	-0.454604	-0.816280
C245	C	-0.955779	-0.336756	-0.698456
C246	C	-0.924880	-0.321356	-0.665051
C247	C	-1.073737	-0.336770	-0.816407
C248	C	-1.091748	-0.321376	-0.831908
C249	C	-0.051159	0.310416	-0.073790
C250	C	-0.013288	0.310680	-0.054893
C251	C	-0.051163	0.310417	-0.130390
C252	C	-0.013291	0.310681	-0.111407
C253	C	0.005425	0.310416	-0.073791
C254	C	-0.069789	0.310682	-0.111406
C255	C	-0.153058	0.300168	-0.039225
C256	C	-0.173890	0.297270	-0.021410
C257	C	-0.156007	0.295815	0.015866
C258	C	-0.178596	0.292666	0.035182
C259	C	-0.117289	0.297261	0.035327
C260	C	-0.096458	0.300163	0.017513
C261	C	-0.114344	0.301617	-0.019765
C262	C	0.131635	0.300164	0.017888
C263	C	0.167381	0.297266	0.035828
C264	C	0.185310	0.295809	0.016489
C265	C	0.224063	0.292661	0.035935
C266	C	0.167493	0.297256	-0.020792
C267	C	0.131754	0.300161	-0.038728
C268	C	0.113825	0.301613	-0.019384
C269	C	-0.153073	0.300170	-0.266879
C270	C	-0.173911	0.297268	-0.305534
C271	C	-0.156032	0.295813	-0.324924
C272	C	-0.178625	0.292665	-0.366836
C273	C	-0.117318	0.297258	-0.305660
C274	C	-0.096482	0.300158	-0.267008
C275	C	-0.114362	0.301618	-0.247619
C276	C	-0.091754	0.304761	-0.039079
C277	C	-0.073748	0.307269	-0.054475
C278	C	-0.073756	0.307270	-0.172300
C279	C	-0.091765	0.304763	-0.205707
C280	C	0.044178	0.307268	-0.054342
C281	C	0.075069	0.304759	-0.038838
O282	O	-0.211536	0.337233	0.061489
O283	O	-0.275556	0.227754	0.016036
O284	O	-0.211543	0.291766	0.016047
O285	O	-0.275549	0.273222	0.061479
O286	O	-0.159580	0.291760	0.068038
O287	O	-0.223593	0.227748	0.068028
O288	O	-0.159574	0.337227	0.113481
Cu289	Cu	-0.186839	0.282487	0.095502
Cu290	Cu	-0.248290	0.282494	0.034015
O291	O	-0.223587	0.273216	0.113470
C292	C	-0.440842	0.254114	-0.796974
C293	C	-0.422128	0.253849	-0.815871
C294	C	-0.384256	0.254113	-0.740374
C295	C	-0.365628	0.253848	-0.759357
C296	C	-0.384257	0.254113	-0.796973
C297	C	-0.422127	0.253849	-0.759358
C298	C	-0.567050	0.264364	-0.831539
C299	C	-0.602796	0.267263	-0.849355
C300	C	-0.620728	0.268718	-0.886630
C301	C	-0.659480	0.271868	-0.905947
C302	C	-0.602913	0.267272	-0.906091
C303	C	-0.567174	0.264368	-0.888277
C304	C	-0.549243	0.262915	-0.850999
C305	C	-0.339459	0.264363	-0.888652
C306	C	-0.318752	0.267261	-0.906592
C307	C	-0.280031	0.268717	-0.887252
C308	C	-0.257572	0.271865	-0.906698
C309	C	-0.262020	0.267270	-0.849971
C310	C	-0.282730	0.264365	-0.832035
C311	C	-0.321451	0.262915	-0.851379
C312	C	-0.339453	0.264360	-0.603884
C313	C	-0.318741	0.267262	-0.565230
C314	C	-0.280020	0.268716	-0.545840
C315	C	-0.257560	0.271865	-0.503928
C316	C	-0.262011	0.267271	-0.565103
C317	C	-0.282722	0.264371	-0.603756
C318	C	-0.321447	0.262912	-0.623145
C319	C	-0.510486	0.259770	-0.831685
C320	C	-0.479595	0.257262	-0.816289
C321	C	-0.361799	0.257259	-0.698464
C322	C	-0.343900	0.259767	-0.665057
C323	C	-0.361802	0.257261	-0.816422
C324	C	-0.343903	0.259769	-0.831925
H325	H	-0.268095	0.098166	-0.454462
H326	H	-0.437831	-0.026307	-0.126648
Cl327	Cl	-0.544783	0.262549	-0.912741
Cl328	Cl	0.010895	0.311333	-0.007176
H329	H	-0.100263	0.311108	-0.126645
Cl330	Cl	-0.446307	0.253197	-0.863588
Cl331	Cl	-0.544705	-0.525049	-0.912974
Cl332	Cl	-0.890840	-0.368364	-0.628256
Cl333	Cl	0.189842	-0.328153	-0.422196
Cl334	Cl	-0.625554	-0.235415	-0.448546
H335	H	-0.205434	0.296091	-0.321216
H336	H	-0.371061	-0.186632	-0.069584
Cl337	Cl	-0.890584	-0.240294	-0.627963
H338	H	-0.102731	0.296078	0.065677
Cl339	Cl	-0.625260	-0.107325	-0.448565
H340	H	-0.167635	0.301357	-0.251095
Cl341	Cl	-0.388144	0.262523	-0.912975
H342	H	-1.101982	-0.603537	-0.833503
Cl343	Cl	-0.047399	-0.067090	0.042191
Cl344	Cl	-0.446465	-0.417459	-0.735827
H345	H	0.182042	0.168316	0.065658
H346	H	-0.102125	-0.115931	0.066168
H347	H	-0.205411	-0.603543	-0.421553
H348	H	-0.437841	-0.026534	-0.464218
H349	H	-0.552859	-0.533867	-0.801685
H350	H	-0.167484	-0.186568	-0.251327
Cl351	Cl	-0.213346	0.269094	-0.825659
H352	H	-0.205066	-0.218891	-0.036545
H353	H	-0.229989	0.168299	0.066189
Cl354	Cl	-1.116830	-0.417240	-0.863577
H355	H	0.181883	0.296086	0.066181
H356	H	-0.167625	0.301353	-0.069577
H357	H	-0.997597	-0.408941	-0.744112
Cl358	Cl	-1.175330	-0.525111	-0.912729
Cl359	Cl	0.109462	-0.240275	-0.415661
Cl360	Cl	0.109289	0.089641	0.041961
Cl361	Cl	-0.340591	0.177120	-0.045093
H362	H	-0.167548	-0.351846	-0.416283
Cl363	Cl	-0.810150	-0.328145	-0.541016
H364	H	-0.552542	-0.186629	-0.251096
Cl365	Cl	-1.222080	-0.612368	-0.952940
H366	H	-0.371015	0.097939	-0.454470
Cl367	Cl	-0.625186	0.269084	-0.824889
Cl368	Cl	-0.259878	0.089576	0.042211
Cl369	Cl	-0.544578	-0.067106	-0.455113
Cl370	Cl	-0.341476	-0.235693	-0.045884
H371	H	-0.335196	-0.026313	-0.023982
H372	H	-0.205339	-0.319524	-0.421557
Cl373	Cl	-0.341392	0.269084	-0.953454
H374	H	-0.268116	-0.083892	0.033358
Cl375	Cl	-0.047702	-0.240276	-0.415671
H376	H	-0.102114	-0.115938	-0.321218
H377	H	0.117107	-0.351857	-0.416293
H378	H	-0.102636	-0.216567	-0.421574
H379	H	-0.817851	-0.216592	-0.549300
H380	H	-0.437947	-0.409162	-0.846778
Cl381	Cl	-0.222560	0.295452	-0.045875
H382	H	-1.102734	-0.216615	-0.834203
H383	H	-0.997615	-0.306277	-0.744092
H384	H	-0.230550	-0.116444	0.065671
Cl385	Cl	-0.446376	-0.145803	-0.134940
H386	H	-0.230112	-0.216290	-0.833500
Cl387	Cl	0.010981	-0.289434	-0.406304
H388	H	-0.205065	-0.218896	-0.321451
H389	H	-1.167635	-0.351887	-0.904385
H390	H	-0.370487	0.098393	-0.069074
Cl391	Cl	-1.047253	-0.524816	-0.784675
H392	H	-0.370605	-0.351590	-0.619439
H393	H	-0.552725	-0.083882	-0.251322
H394	H	-0.064934	0.301341	0.033360
H395	H	0.181827	0.168083	-0.037273
H396	H	-0.617580	-0.116429	-0.321448
H397	H	-0.268065	0.263185	-0.801682
Cl398	Cl	0.010937	-0.417229	-0.406319
Cl399	Cl	-0.175464	-0.195188	-0.085598
H400	H	-0.332819	-0.319027	-0.936437
H401	H	-0.617391	-0.219173	-0.321217
H402	H	-0.370568	-0.186576	-0.454461
H403	H	-1.205434	-0.319571	-0.936920
Cl404	Cl	-0.260082	0.262553	-0.627971
Cl405	Cl	-0.094841	0.295426	-0.330037
H406	H	-0.333430	0.168073	-0.449210
H407	H	-1.064926	-0.248928	-0.801663
Cl408	Cl	-0.213332	0.269099	-0.540728
H409	H	0.002278	-0.026528	-0.126652
H410	H	0.117043	0.301349	0.033642
Cl411	Cl	0.190035	0.295433	-0.045104
Cl412	Cl	0.109360	0.301982	-0.085591
H413	H	-0.064535	-0.083613	-0.251099
H414	H	0.002367	0.311105	-0.126651
H415	H	-0.437790	0.253424	-0.744119
Cl416	Cl	-0.047813	0.301975	-0.242793
H417	H	-0.167603	-0.533409	-0.416294
Cl418	Cl	-0.625399	-0.612308	-0.953458
Cl419	Cl	-0.094814	-0.612363	-0.422206
Cl420	Cl	-0.318580	0.253188	-0.735827
H421	H	-0.333406	0.268440	-0.549547
Cl422	Cl	-0.388132	0.262529	-0.628258
Cl423	Cl	-0.544511	0.262538	-0.784677
Cl424	Cl	-0.625663	-0.612594	-0.825664
H425	H	-0.370624	-0.351580	-0.904121
H426	H	-0.437863	-0.129217	-0.464211
Cl427	Cl	-0.318636	-0.018246	-0.464457
H428	H	-0.617517	0.268455	-0.936441
Cl429	Cl	-0.318704	-0.289668	-0.735824
Cl430	Cl	-0.259936	-0.067102	-0.455114
Cl431	Cl	-0.213359	0.176893	-0.448555
Cl432	Cl	-0.116786	-0.417224	-0.406313
Cl433	Cl	-0.212926	-0.107319	-0.448568
H434	H	-0.332776	-0.218898	-0.449198
H435	H	-0.230098	-0.216298	-0.549545
H436	H	-0.552755	-0.186573	-0.454449
H437	H	-0.267903	-0.248842	-0.619666
Cl438	Cl	-0.259987	-0.240271	-0.784673
H439	H	-0.332800	-0.319042	-0.549314
H440	H	-0.064917	-0.533636	-0.416301
H441	H	-0.100384	-0.129213	-0.126656
Cl442	Cl	0.190146	-0.200060	-0.422208
Cl443	Cl	0.109027	0.089358	-0.086098
Cl444	Cl	0.010793	-0.018237	-0.007186
