data_functionalizedCrystal
_audit_creation_method	'MofGen! by Chris Wilmer'
_symmetry_space_group_name_H-M	'P1'
_symmetry_Int_Tables_number	1
_symmetry_cell_setting	triclinic
loop_
_symmetry_equiv_pos_as_xyz
  x,y,z
_cell_length_a	8.497374
_cell_length_b	8.497374
_cell_length_c	25.574777
_cell_angle_alpha	89.998624
_cell_angle_beta	90.007201
_cell_angle_gamma	90.005237
loop_
_atom_site_label
_atom_site_type_symbol
_atom_site_fract_x
_atom_site_fract_y
_atom_site_fract_z
Zn1	Zn	0.628679	0.891976	0.801326
Zn2	Zn	0.892424	0.628241	0.801322
Zn3	Zn	0.628614	0.628217	0.713697
Zn4	Zn	0.892372	0.891987	0.713684
O5	O	0.760522	0.760105	0.757507
O6	O	0.663714	0.856996	0.874675
O7	O	0.857424	0.407476	0.789701
O8	O	0.407860	0.663191	0.725328
O9	O	0.857487	0.663232	0.874672
O10	O	0.407908	0.856973	0.789709
O11	O	0.663604	0.407458	0.725324
O12	O	0.663553	0.663202	0.640345
O13	O	0.857398	1.112748	0.725306
O14	O	0.857335	0.856992	0.640336
O15	O	0.663663	1.112740	0.789696
O16	O	1.113180	0.663243	0.789689
O17	O	1.113142	0.857016	0.725302
C18	C	0.760433	0.760096	0.621322
C19	C	0.760432	0.760130	0.563062
C20	C	0.659705	0.861183	0.535693
C21	C	0.659698	0.861201	0.480951
C22	C	0.760426	0.760173	0.453579
C23	C	0.861157	0.659109	0.480951
C24	C	0.861156	0.659084	0.535692
C25	C	0.861156	0.659170	0.366854
C26	C	0.861159	0.659197	0.312109
C27	C	0.659697	0.861287	0.312112
C28	C	0.659696	0.861262	0.366853
C29	C	0.760430	0.760200	0.394222
C30	C	1.170402	0.760128	0.757500
C31	C	1.349046	0.760102	0.757514
C32	C	0.760608	0.760126	0.894224
C33	C	0.760645	0.760127	0.953579
Zn34	Zn	0.628861	0.628100	1.133571
Zn35	Zn	0.892199	0.892290	1.133588
Zn36	Zn	0.892669	0.628507	1.045968
Zn37	Zn	0.628503	0.891820	1.045925
O38	O	0.760558	0.760179	1.089763
O39	O	0.663746	0.663172	1.206923
O40	O	1.113023	0.857666	1.121990
O41	O	0.858021	0.407691	1.057599
O42	O	0.857219	0.857271	1.206936
O43	O	0.664203	0.407392	1.121961
O44	O	1.113369	0.663865	1.057616
O45	O	0.857674	0.663409	0.972612
O46	O	0.407789	0.856470	1.057527
O47	O	0.663593	0.856865	0.972581
O48	O	0.408052	0.662716	1.121920
O49	O	0.856872	1.112990	1.121949
O50	O	0.663136	1.112644	1.057543
C51	C	0.760525	1.171586	0.757503
C52	C	0.760541	1.350230	0.757504
C53	C	0.759919	1.170058	1.089750
C54	C	0.759678	1.348702	1.089760
C55	C	0.349079	0.759381	1.089684
C56	C	0.170436	0.758771	1.089560
C57	C	0.760470	0.760228	1.226480
C58	C	0.760432	0.760249	1.284740
H59	H	0.577683	0.943537	0.389138
C60	C	0.550385	0.970841	0.282306
C61	C	0.571907	0.949212	0.228508
C62	C	0.471235	1.050096	0.201031
H63	H	0.573553	1.076861	0.291219
H64	H	0.444316	0.947903	0.291242
H65	H	0.677953	0.972162	0.219575
H66	H	0.548729	0.843214	0.219579
H67	H	0.365166	1.027157	0.209968
H68	H	0.494411	1.156109	0.209949
H69	H	0.485813	1.035424	0.164527
C70	C	0.550153	0.970662	0.451206
C71	C	0.448861	0.881511	0.419782
C72	C	0.347911	0.982296	0.392378
H73	H	0.610436	1.039341	0.429814
H74	H	0.490076	1.030810	0.475330
H75	H	0.508932	0.821389	0.395661
H76	H	0.388543	0.812836	0.441161
H77	H	0.287834	1.042444	0.416502
H78	H	0.408207	1.050970	0.370989
H79	H	0.279163	0.921821	0.371057
C80	C	0.970350	0.549432	0.565504
C81	C	0.948760	0.571000	0.619302
C82	C	1.049304	0.469994	0.646779
H83	H	1.076449	0.572263	0.556602
H84	H	0.947076	0.443441	0.556556
H85	H	0.972044	0.676968	0.628245
H86	H	0.842682	0.548158	0.628218
H87	H	1.026030	0.364002	0.637832
H88	H	1.155396	0.492833	0.637874
H89	H	1.034658	0.484603	0.683284
C90	C	0.970577	0.549335	0.282484
C91	C	1.058758	0.460786	0.318167
C92	C	1.159557	0.359552	0.290896
H93	H	1.039551	0.609415	0.261135
H94	H	0.910149	0.480622	0.261133
H95	H	1.119181	0.529489	0.339509
H96	H	0.989825	0.400673	0.339518
H97	H	1.099129	0.290839	0.269545
H98	H	1.228521	0.419645	0.269547
H99	H	1.219389	0.299449	0.315102
C100	C	0.970618	0.549707	0.396638
C101	C	1.071839	0.638875	0.428082
C102	C	1.172685	0.538103	0.455533
H103	H	1.030766	0.489507	0.372558
H104	H	0.910207	0.481074	0.418018
H105	H	1.132244	0.707481	0.406704
H106	H	1.011734	0.699072	0.452172
H107	H	1.112274	0.469470	0.476913
H108	H	1.232822	0.477908	0.431449
H109	H	1.241365	0.598587	0.476874
H110	H	0.577685	0.943456	0.557975
H111	H	0.943164	0.576843	0.458661
