data_functionalizedCrystal
_audit_creation_method	'MofGen! by Chris Wilmer'
_symmetry_space_group_name_H-M	'P1'
_symmetry_Int_Tables_number	1
_symmetry_cell_setting	triclinic
loop_
_symmetry_equiv_pos_as_xyz
  x,y,z
_cell_length_a	19.288840
_cell_length_b	15.995292
_cell_length_c	17.766277
_cell_angle_alpha	89.996830
_cell_angle_beta	89.983415
_cell_angle_gamma	83.297316
loop_
_atom_site_label
_atom_site_type_symbol
_atom_site_fract_x
_atom_site_fract_y
_atom_site_fract_z
O1	O	0.921617	0.104355	-0.062715
O2	O	1.254950	0.437688	0.270619
O3	O	1.588284	0.771021	0.603952
O4	O	0.719388	0.118467	-0.062688
O5	O	1.052721	0.451800	0.270645
O6	O	1.386055	0.785134	0.603979
O7	O	0.826052	-0.010502	-0.062703
O8	O	1.159385	0.322832	0.270630
O9	O	1.492718	0.656165	0.603963
O10	O	0.814953	0.233323	-0.062699
O11	O	1.148287	0.566657	0.270634
O12	O	1.481620	0.899990	0.603967
O13	O	0.826033	-0.010508	0.062485
O14	O	1.159366	0.322825	0.395819
O15	O	1.492700	0.656159	0.729152
O16	O	0.719369	0.118461	0.062501
O17	O	1.052703	0.451794	0.395834
O18	O	1.386036	0.785127	0.729167
O19	O	0.921598	0.104348	0.062474
O20	O	1.254932	0.437681	0.395807
O21	O	1.588265	0.771015	0.729140
Cu22	Cu	0.820482	0.111404	0.073918
Cu23	Cu	1.153815	0.444737	0.407251
Cu24	Cu	1.487149	0.778070	0.740585
Cu25	Cu	0.820504	0.111411	-0.074132
Cu26	Cu	1.153838	0.444745	0.259201
Cu27	Cu	1.487171	0.778078	0.592535
O28	O	0.814935	0.233317	0.062489
O29	O	1.148268	0.566650	0.395822
O30	O	1.481601	0.899984	0.729156
C31	C	0.693501	0.118013	-0.000090
C32	C	1.026834	0.451347	0.333243
C33	C	1.360167	0.784680	0.666576
C34	C	0.616393	0.116661	-0.000080
C35	C	0.949726	0.449994	0.333253
C36	C	1.283060	0.783327	0.666586
C37	C	0.580198	0.116014	-0.068323
C38	C	0.913531	0.449348	0.265011
C39	C	1.246865	0.782681	0.598344
C40	C	0.507748	0.114734	-0.068332
C41	C	0.841081	0.448067	0.265002
C42	C	1.174415	0.781401	0.598335
C43	C	0.471498	0.114083	-0.000095
C44	C	0.804831	0.447417	0.333238
C45	C	1.138164	0.780750	0.666572
C46	C	0.507701	0.114734	0.068156
C47	C	0.841034	0.448068	0.401490
C48	C	1.174367	0.781401	0.734823
C49	C	0.580148	0.116023	0.068164
C50	C	0.913482	0.449356	0.401497
C51	C	1.246815	0.782690	0.734830
C52	C	0.362038	0.062994	0.052173
C53	C	0.695372	0.396328	0.385506
C54	C	1.028705	0.729661	0.718839
C55	C	0.289593	0.061701	0.052163
C56	C	0.622926	0.395034	0.385496
C57	C	0.956259	0.728367	0.718829
C58	C	0.248044	0.110112	-0.000115
C59	C	0.581378	0.443446	0.333219
C60	C	0.914711	0.776779	0.666552
C61	C	0.278952	0.159807	-0.052394
C62	C	0.612285	0.493140	0.280939
C63	C	0.945619	0.826474	0.614272
C64	C	0.351400	0.161096	-0.052387
C65	C	0.684733	0.494429	0.280946
C66	C	1.018066	0.827763	0.614279
C67	C	0.392940	0.112686	-0.000095
C68	C	0.726274	0.446020	0.333238
C69	C	1.059607	0.779353	0.666571
C70	C	0.133291	0.108079	-0.068372
C71	C	0.466624	0.441412	0.264962
C72	C	0.799957	0.774746	0.598295
C73	C	0.060839	0.106804	-0.068378
C74	C	0.394172	0.440137	0.264955
C75	C	0.727506	0.773471	0.598289
C76	C	0.060794	0.106796	0.068112
C77	C	0.394127	0.440129	0.401445
C78	C	0.727460	0.773462	0.734779
C79	C	0.133243	0.108079	0.068116
C80	C	0.466577	0.441413	0.401450
C81	C	0.799910	0.774746	0.734783
C82	C	0.169488	0.108717	-0.000127
C83	C	0.502821	0.442050	0.333206
C84	C	0.836155	0.775383	0.666539
C85	C	0.825591	-0.041699	-0.000111
C86	C	1.158924	0.291635	0.333223
C87	C	1.492257	0.624968	0.666556
C88	C	0.824236	-0.134646	-0.000116
C89	C	1.157570	0.198687	0.333217
C90	C	1.490903	0.532020	0.666550
C91	C	0.819258	-0.472366	-0.000109
C92	C	1.152591	-0.139032	0.333225
C93	C	1.485925	0.194301	0.666558
C94	C	0.896245	-0.449352	0.000161
C95	C	1.229578	-0.116019	0.333494
C96	C	1.562911	0.217315	0.666827
C97	C	0.897708	-0.352682	-0.000124
C98	C	1.231041	-0.019349	0.333209
C99	C	1.564375	0.313985	0.666542
C100	C	0.821728	-0.304819	-0.000112
C101	C	1.155062	0.028514	0.333221
C102	C	1.488395	0.361847	0.666555
C103	C	0.783249	-0.333767	-0.071593
C104	C	1.116583	-0.000434	0.261740
C105	C	1.449916	0.332899	0.595073
C106	C	0.782322	-0.430554	-0.071650
C107	C	1.115656	-0.097221	0.261683
C108	C	1.448989	0.236113	0.595016
C109	C	0.780729	-0.430413	0.070713
C110	C	1.114062	-0.097079	0.404046
C111	C	1.447396	0.236254	0.737379
C112	C	0.783582	-0.333931	0.071654
C113	C	1.116915	-0.000598	0.404988
C114	C	1.450248	0.332736	0.738321
C115	C	0.823120	-0.210129	-0.000116
C116	C	1.156454	0.123205	0.333217
C117	C	1.489787	0.456538	0.666550
C118	C	0.817864	-0.567056	-0.000109
C119	C	1.151197	-0.233723	0.333224
C120	C	1.484530	0.099611	0.666557
C121	C	0.947485	0.104802	-0.000125
C122	C	1.280819	0.438135	0.333208
C123	C	1.614152	0.771469	0.666541
C124	C	1.024593	0.106155	-0.000140
C125	C	1.357927	0.439488	0.333193
C126	C	1.691260	0.772821	0.666526
C127	C	0.815396	0.264514	-0.000105
C128	C	1.148729	0.597847	0.333228
C129	C	1.482062	0.931181	0.666562
C130	C	0.816750	0.357462	-0.000105
C131	C	1.150083	0.690795	0.333229
C132	C	1.483417	1.024128	0.666562
N133	N	0.820472	0.111398	0.178048
N134	N	1.153805	0.444731	0.511382
N135	N	1.487138	0.778064	0.844715
N136	N	0.820520	0.111411	-0.178262
N137	N	1.153854	0.444744	0.155071
N138	N	1.487187	0.778077	0.488404
C139	C	0.867717	0.054318	0.217428
C140	C	1.201051	0.387652	0.550762
C141	C	1.534384	0.720985	0.884095
C142	C	0.867721	0.054314	0.296230
C143	C	1.201055	0.387648	0.629563
C144	C	1.534388	0.720981	0.962897
C145	C	0.820486	0.111404	0.335649
C146	C	1.153819	0.444738	0.668982
C147	C	1.487153	0.778071	1.002315
C148	C	0.773231	0.168488	0.296259
C149	C	1.106565	0.501822	0.629592
C150	C	1.439898	0.835155	0.962926
C151	C	0.773224	0.168485	0.217459
C152	C	1.106557	0.501818	0.550792
C153	C	1.439891	0.835152	0.884125
C154	C	0.811372	0.187698	0.460489
C155	C	1.144705	0.521032	0.793822
C156	C	1.478039	0.854365	1.127155
C157	C	0.811384	0.187703	0.539287
C158	C	1.144718	0.521036	0.872621
C159	C	1.478051	0.854369	1.205954
C160	C	0.820505	0.111415	0.578695
C161	C	1.153838	0.444748	0.912028
C162	C	1.487171	0.778081	1.245362
C163	C	0.829628	0.035119	0.539294
C164	C	1.162961	0.368452	0.872628
C165	C	1.496294	0.701785	1.205961
C166	C	0.829620	0.035115	0.460494
C167	C	1.162954	0.368449	0.793827
C168	C	1.496287	0.701782	1.127161
C169	C	0.820489	0.111414	0.421094
C170	C	1.153822	0.444747	0.754428
C171	C	1.487155	0.778081	1.087761
C172	C	0.867758	0.054326	0.703521
C173	C	1.201091	0.387659	1.036855
C174	C	1.534424	0.720993	1.370188
C175	C	0.867757	0.054321	0.782324
C176	C	1.201090	0.387654	1.115658
C177	C	1.534423	0.720988	1.448991
C178	C	0.773270	0.168502	0.782352
C179	C	1.106603	0.501836	1.115685
C180	C	1.439937	0.835169	1.449019
C181	C	0.773268	0.168500	0.703550
C182	C	1.106601	0.501833	1.036883
C183	C	1.439934	0.835167	1.370217
C184	C	0.820515	0.111413	0.664140
C185	C	1.153848	0.444746	0.997473
C186	C	1.487182	0.778079	1.330806
H187	H	0.395862	0.023570	0.094747
H188	H	0.729195	0.356903	0.428080
H189	H	1.062528	0.690236	0.761414
H190	H	0.925762	-0.478482	-0.050822
H191	H	1.259095	-0.145148	0.282512
H192	H	1.592429	0.188185	0.615845
H193	H	0.264434	0.021232	0.094728
H194	H	0.597767	0.354565	0.428062
H195	H	0.931101	0.687899	0.761395
O196	O	0.619193	0.116731	0.141770
O197	O	0.952527	0.450064	0.475103
O198	O	1.285860	0.783398	0.808437
H199	H	0.581817	0.116067	0.189220
H200	H	0.915151	0.449400	0.522554
H201	H	1.248484	0.782733	0.855887
H202	H	0.724061	-0.444183	0.071203
H203	H	1.057394	-0.110850	0.404537
H204	H	1.390727	0.222484	0.737870
O205	O	0.812662	-0.467965	0.142484
O206	O	1.145995	-0.134631	0.475817
O207	O	1.479328	0.198702	0.809151
H208	H	0.832623	-0.417748	0.176544
H209	H	1.165957	-0.084415	0.509877
H210	H	1.499290	0.248918	0.843211
O211	O	0.817699	-0.466413	-0.142339
O212	O	1.151033	-0.133080	0.190995
O213	O	1.484366	0.200253	0.524328
H214	H	0.863390	-0.511884	-0.126845
H215	H	1.196724	-0.178550	0.206488
H216	H	1.530057	0.154783	0.539822
H217	H	0.837054	-0.027003	0.571378
H218	H	1.170388	0.306331	0.904711
H219	H	1.503721	0.639664	1.238045
O220	O	0.801549	0.269988	0.581783
O221	O	1.134882	0.603321	0.915116
O222	O	1.468215	0.936655	1.248449
H223	H	0.847948	0.275217	0.617655
H224	H	1.181281	0.608551	0.950988
H225	H	1.514614	0.941884	1.284321
H226	H	0.928038	-0.334392	-0.051462
H227	H	1.261371	-0.001059	0.281871
H228	H	1.594704	0.332274	0.615204
H229	H	0.925911	-0.477467	0.051423
H230	H	1.259245	-0.144134	0.384756
H231	H	1.592578	0.189200	0.718089
O232	O	0.918705	-0.007252	0.661005
O233	O	1.252038	0.326081	0.994338
O234	O	1.585372	0.659414	1.327671
H235	H	0.951551	-0.046956	0.701631
H236	H	1.284885	0.286377	1.034964
H237	H	1.618218	0.619711	1.368298
O238	O	0.709188	-0.291273	-0.075116
O239	O	1.042521	0.042061	0.258217
O240	O	1.375855	0.375394	0.591551
H241	H	0.709716	-0.222014	-0.077627
H242	H	1.043049	0.111320	0.255706
H243	H	1.376382	0.444653	0.589040
O244	O	0.707557	-0.449550	-0.075939
O245	O	1.040890	-0.116217	0.257394
O246	O	1.374224	0.217116	0.590728
H247	H	0.700343	-0.486831	-0.127450
H248	H	1.033676	-0.153498	0.205883
H249	H	1.367009	0.179836	0.539217
O250	O	0.818834	-0.307644	-0.142074
O251	O	1.152168	0.025689	0.191259
O252	O	1.485501	0.359022	0.524592
H253	H	0.863896	-0.274014	-0.126374
H254	H	1.197230	0.059320	0.206960
H255	H	1.530563	0.392653	0.540293
H256	H	0.478272	0.114209	-0.123905
H257	H	0.811606	0.447543	0.209429
H258	H	1.144939	0.780876	0.542762
O259	O	0.839447	-0.047167	0.417994
O260	O	1.172781	0.286166	0.751327
O261	O	1.506114	0.619500	1.084660
H262	H	0.845785	-0.100219	0.458628
H263	H	1.179118	0.233115	0.791962
H264	H	1.512452	0.566448	1.125295
O265	O	0.918724	-0.007237	0.824805
O266	O	1.252058	0.326096	1.158138
O267	O	1.585391	0.659429	1.491472
H268	H	0.951582	-0.046922	0.784158
H269	H	1.284915	0.286411	1.117492
H270	H	1.618248	0.619744	1.450825
O271	O	0.468469	0.114137	0.141676
O272	O	0.801802	0.447470	0.475010
O273	O	1.135135	0.780803	0.808343
H274	H	0.488452	0.057366	0.174518
H275	H	0.821785	0.390699	0.507852
H276	H	1.155118	0.724032	0.841185
H277	H	0.811600	-0.315477	0.124536
H278	H	1.144934	0.017856	0.457869
H279	H	1.478267	0.351189	0.791202
H280	H	0.734808	0.214983	0.814446
H281	H	1.068141	0.548316	1.147779
H282	H	1.401474	0.881649	1.481113
H283	H	0.376562	0.201561	-0.094954
H284	H	0.709895	0.534894	0.238380
H285	H	1.043228	0.868228	0.571713
H286	H	0.609704	0.116534	-0.123892
H287	H	0.943037	0.449867	0.209441
H288	H	1.276371	0.783200	0.542775
O289	O	0.710127	-0.289960	0.077407
O290	O	1.043460	0.043374	0.410741
O291	O	1.376793	0.376707	0.744074
H292	H	0.699610	-0.246484	0.028983
H293	H	1.032944	0.086849	0.362317
H294	H	1.366277	0.420183	0.695650
H295	H	0.906187	0.007833	0.185343
H296	H	1.239521	0.341166	0.518676
H297	H	1.572854	0.674499	0.852009
O298	O	0.918688	-0.007243	0.338720
O299	O	1.252021	0.326090	0.672053
O300	O	1.585355	0.659424	1.005386
H301	H	0.951544	-0.046934	0.298076
H302	H	1.284877	0.286399	0.631409
H303	H	1.618211	0.619733	0.964743
O304	O	0.722317	0.230074	0.661068
O305	O	1.055651	0.563407	0.994401
O306	O	1.388984	0.896741	1.327734
H307	H	0.689475	0.269778	0.701714
H308	H	1.022809	0.603111	1.035047
H309	H	1.356142	0.936445	1.368381
H310	H	0.927845	-0.333777	0.051115
H311	H	1.261178	-0.000443	0.384448
H312	H	1.594511	0.332890	0.717781
O313	O	0.801540	0.269985	0.417986
O314	O	1.134873	0.603319	0.751319
O315	O	1.468206	0.936652	1.084653
H316	H	0.795210	0.323037	0.458620
H317	H	1.128544	0.656370	0.791953
H318	H	1.461877	0.989704	1.125286
H319	H	0.734771	0.214971	0.328358
H320	H	1.068104	0.548304	0.661691
H321	H	1.401437	0.881637	0.995024
H322	H	0.245124	0.199232	-0.094961
H323	H	0.578458	0.532565	0.238372
H324	H	0.911791	0.865899	0.571705
O325	O	0.172390	0.108782	-0.141972
O326	O	0.505723	0.442115	0.191361
O327	O	0.839057	0.775448	0.524695
H328	H	0.135045	0.108133	-0.189429
H329	H	0.468378	0.441466	0.143905
H330	H	0.801711	0.774799	0.477238
H331	H	0.734750	0.214967	0.185395
H332	H	1.068083	0.548300	0.518728
H333	H	1.401417	0.881633	0.852061
H334	H	0.031279	0.106271	0.123672
H335	H	0.364612	0.439604	0.457005
H336	H	0.697945	0.772938	0.790339
O337	O	0.021797	0.106077	-0.141985
O338	O	0.355131	0.439411	0.191348
O339	O	0.688464	0.772744	0.524681
H340	H	0.059177	0.106718	-0.189434
H341	H	0.392511	0.440052	0.143899
H342	H	0.725844	0.773385	0.477232
H343	H	0.162714	0.108600	0.123687
H344	H	0.496048	0.441933	0.457020
H345	H	0.829381	0.775267	0.790353
