data_functionalizedCrystal
_audit_creation_method	'MofGen! by Chris Wilmer'
_symmetry_space_group_name_H-M	'P1'
_symmetry_Int_Tables_number	1
_symmetry_cell_setting	triclinic
loop_
_symmetry_equiv_pos_as_xyz
  x,y,z
_cell_length_a	15.944551
_cell_length_b	15.944551
_cell_length_c	13.930277
_cell_angle_alpha	89.994493
_cell_angle_beta	89.997274
_cell_angle_gamma	83.498738
loop_
_atom_site_label
_atom_site_type_symbol
_atom_site_fract_x
_atom_site_fract_y
_atom_site_fract_z
O1	O	1.114528	0.108331	-0.079733
O2	O	0.869978	0.121688	-0.079757
O3	O	0.998931	-0.007265	-0.079736
O4	O	0.985575	0.237284	-0.079754
O5	O	0.998913	-0.007268	0.079926
O6	O	0.869960	0.121685	0.079905
O7	O	1.114510	0.108329	0.079929
Zn8	Zn	0.992232	0.115006	0.105267
Zn9	Zn	0.992256	0.115010	-0.105095
O10	O	0.985557	0.237282	0.079908
C11	C	0.838675	0.121132	0.000071
C12	C	0.745429	0.119470	0.000062
C13	C	0.530572	0.035565	0.000087
C14	C	0.469561	0.074529	-0.078638
C15	C	0.574703	0.116462	0.000074
C16	C	0.469566	0.074545	0.078776
C17	C	0.409790	0.113551	0.000089
C18	C	0.514920	0.155448	-0.078716
C19	C	0.514931	0.155453	0.078769
C20	C	0.453937	0.194476	0.000025
C21	C	0.669705	0.118137	0.000064
C22	C	0.314789	0.111883	0.000092
C23	C	0.998367	-0.038561	0.000095
C24	C	0.996705	-0.131807	0.000096
C25	C	0.912801	-0.346663	0.000074
C26	C	0.951754	-0.407682	0.078801
C27	C	0.993698	-0.302533	0.000088
C28	C	0.951791	-0.407663	-0.078613
C29	C	0.990787	-0.467445	0.000077
C30	C	1.032674	-0.362323	0.078880
C31	C	1.032699	-0.362297	-0.078605
C32	C	1.071711	-0.423298	0.000141
C33	C	0.995372	-0.207530	0.000096
C34	C	0.989119	-0.562446	0.000076
C35	C	1.145813	0.108885	0.000099
C36	C	1.239059	0.110547	0.000102
C37	C	0.986120	0.268577	0.000074
C38	C	0.987782	0.361823	0.000068
N39	N	0.992222	0.115003	0.248833
N40	N	0.992272	0.115006	-0.248661
C41	C	0.935153	0.172088	0.701093
C42	C	1.049381	0.057926	0.701081
C43	C	1.049371	0.057923	0.600585
C44	C	0.992252	0.115004	0.550339
C45	C	0.935143	0.172089	0.600588
C46	C	1.106485	0.000845	0.550329
C47	C	1.106478	0.000841	0.449827
C48	C	1.049354	0.057919	0.399578
C49	C	0.992242	0.115005	0.449834
C50	C	0.935123	0.172087	0.399587
C51	C	0.878006	0.229169	0.449840
C52	C	0.878019	0.229167	0.550339
C53	C	1.049341	0.057922	0.299079
C54	C	0.935113	0.172088	0.299082
H55	H	0.534915	0.189640	-0.145344
H56	H	0.420779	0.261683	-0.000024
C57	C	1.078841	-0.335325	0.168897
H58	H	1.079584	-0.275832	0.168369
H59	H	1.135120	-0.362254	0.169134
H60	H	1.050281	-0.351221	0.224726
C61	C	0.542125	0.201639	0.168671
H62	H	0.568657	0.249454	0.149761
H63	H	0.580610	0.164500	0.205098
H64	H	0.493877	0.219467	0.206618
C65	C	0.815180	0.291960	0.394567
H66	H	0.781168	0.325960	0.438884
H67	H	0.780219	0.261721	0.355364
H68	H	0.845402	0.326948	0.355360
H69	H	0.888647	0.218562	0.742011
H70	H	1.138919	-0.456457	0.000192
C71	C	0.442423	0.028307	0.168686
H72	H	0.468939	-0.028138	0.168586
H73	H	0.382878	0.028030	0.168355
H74	H	0.458725	0.056494	0.224587
H75	H	0.831517	0.275642	0.591262
C76	C	0.905525	-0.434854	0.168702
H77	H	0.849074	-0.408354	0.168602
H78	H	0.933713	-0.418572	0.224606
H79	H	0.905251	-0.494403	0.168346
H80	H	0.845652	-0.313356	0.000146
C81	C	0.575596	-0.055132	-0.000025
H82	H	0.560184	-0.083737	-0.056032
H83	H	0.559435	-0.084177	0.055328
H84	H	0.634959	-0.053431	0.000533
C85	C	1.112160	-0.004858	0.243800
H86	H	1.103977	0.003320	0.176750
H87	H	1.103048	-0.060925	0.260281
H88	H	1.168220	0.004312	0.260257
C89	C	0.872282	0.234880	0.243818
H90	H	0.838275	0.268877	0.288142
H91	H	0.837317	0.204645	0.204618
H92	H	0.902499	0.269872	0.204610
H93	H	1.152984	-0.045639	0.408917
C94	C	1.078861	-0.335039	-0.168506
H95	H	1.126662	-0.308492	-0.149596
H96	H	1.041694	-0.296547	-0.204891
H97	H	1.096706	-0.383253	-0.206494
C98	C	0.442401	0.028317	-0.168545
H99	H	0.404733	0.065761	-0.205613
H100	H	0.414942	-0.018894	-0.149628
H101	H	0.490783	0.009584	-0.205872
C102	C	0.905568	-0.434800	-0.168524
H103	H	0.943001	-0.472474	-0.205594
H104	H	0.886827	-0.386417	-0.205839
H105	H	0.858358	-0.462267	-0.149600
C106	C	1.112206	-0.004863	0.756345
H107	H	1.146218	-0.038857	0.712023
H108	H	1.081992	-0.039844	0.795561
H109	H	1.147179	0.025378	0.795537
C110	C	1.169307	-0.061945	0.605595
H111	H	1.203324	-0.095936	0.561274
H112	H	1.139090	-0.096928	0.644804
H113	H	1.204275	-0.031705	0.644795
