data_functionalizedCrystal
_audit_creation_method	'MofGen! by Chris Wilmer'
_symmetry_space_group_name_H-M	'P1'
_symmetry_Int_Tables_number	1
_symmetry_cell_setting	triclinic
loop_
_symmetry_equiv_pos_as_xyz
  x,y,z
_cell_length_a	6.394989
_cell_length_b	19.288840
_cell_length_c	17.766277
_cell_angle_alpha	89.983415
_cell_angle_beta	90.003244
_cell_angle_gamma	95.188136
loop_
_atom_site_label
_atom_site_type_symbol
_atom_site_fract_x
_atom_site_fract_y
_atom_site_fract_z
O1	O	-0.260296	0.923914	-0.062716
O2	O	-0.295498	0.721995	-0.062689
O3	O	0.026195	0.825820	-0.062703
O4	O	-0.581989	0.820088	-0.062701
O5	O	0.026211	0.825802	0.062485
O6	O	-0.295482	0.721976	0.062500
O7	O	-0.260280	0.923895	0.062473
Cu8	Cu	-0.277880	0.822934	0.073917
Cu9	Cu	-0.277899	0.822956	-0.074133
O10	O	-0.581973	0.820069	0.062487
C11	C	-0.294366	0.696098	-0.000091
C12	C	-0.290992	0.618960	-0.000081
N13	N	-0.277865	0.822923	0.178047
C14	C	-0.289380	0.582751	-0.068323
C15	C	-0.286187	0.510273	-0.068333
C16	C	-0.284563	0.474008	-0.000096
C17	C	-0.286187	0.510226	0.068155
C18	C	-0.289402	0.582702	0.068163
C19	C	-0.157130	0.363425	0.052172
C20	C	-0.153903	0.290950	0.052162
C21	C	-0.274658	0.250468	-0.000116
C22	C	-0.398614	0.282469	-0.052396
C23	C	-0.401829	0.354945	-0.052388
C24	C	-0.281079	0.395420	-0.000096
C25	C	-0.269586	0.135669	-0.068372
C26	C	-0.266406	0.063189	-0.068379
C27	C	-0.266385	0.063144	0.068111
C28	C	-0.269587	0.135622	0.068116
C29	C	-0.271177	0.171881	-0.000128
C30	C	0.104013	0.824678	-0.000112
C31	C	0.340215	0.821214	-0.000112
C32	C	-0.261412	0.949792	-0.000126
C33	C	-0.264786	1.026929	-0.000141
N34	N	-0.277897	0.822972	-0.178263
C35	C	-0.135489	0.868913	0.217428
C36	C	-0.135479	0.868917	0.296230
C37	C	-0.277881	0.822938	0.335648
C38	C	-0.420268	0.776939	0.296258
C39	C	-0.420260	0.776932	0.217457
C40	C	-0.468184	0.815503	0.460487
C41	C	-0.468195	0.815515	0.539286
C42	C	-0.277906	0.822957	0.578694
C43	C	-0.087598	0.830401	0.539294
C44	C	-0.087590	0.830393	0.460494
C45	C	-0.277905	0.822941	0.421094
C46	C	-0.135508	0.868953	0.703521
C47	C	-0.135496	0.868952	0.782324
C48	C	-0.420303	0.776978	0.782351
C49	C	-0.420297	0.776976	0.703549
C50	C	-0.277902	0.822967	0.664139
H51	H	-0.290675	0.612269	-0.123893
O52	O	-0.290856	0.617775	0.134524
C53	C	-0.290628	0.610078	0.269900
C54	C	-0.288935	0.570271	0.194801
H55	H	-0.289121	0.571686	0.318653
H56	H	-0.145957	0.649074	0.273366
H57	H	-0.438227	0.638945	0.273273
H58	H	-0.141434	0.541363	0.191377
H59	H	-0.433705	0.531315	0.191367
O60	O	-0.039693	0.402829	0.102856
C61	C	0.237359	0.494392	0.121846
C62	C	0.104492	0.449827	0.064370
H63	H	0.353995	0.532390	0.090753
H64	H	0.130125	0.524678	0.158125
H65	H	0.326421	0.459059	0.159220
H66	H	0.015413	0.485109	0.026946
H67	H	0.211835	0.419534	0.028144
O68	O	-0.558429	0.732216	0.820597
C69	C	-0.681856	0.612525	0.844714
C70	C	-0.525283	0.663145	0.801363
H71	H	-0.655141	0.556672	0.829168
H72	H	-0.657410	0.620367	0.907810
H73	H	-0.849051	0.623072	0.829220
H74	H	-0.358026	0.652630	0.816795
H75	H	-0.549912	0.655293	0.738278
H76	H	0.067366	0.836453	0.428417
O77	O	0.003046	0.913606	0.179263
C78	C	0.285441	1.004860	0.187557
C79	C	0.128695	0.954273	0.230874
H80	H	0.387040	1.037763	0.229265
H81	H	0.389699	0.973996	0.150704
H82	H	0.195509	1.040308	0.150623
H83	H	0.218456	0.918814	0.267848
H84	H	0.024439	0.985181	0.267678
H85	H	-0.270886	0.165104	0.123686
H86	H	-0.284877	0.480786	-0.123905
O87	O	-0.558912	0.732378	0.665326
C88	C	-0.922407	0.694828	0.641259
C89	C	-0.765653	0.745391	0.684577
H90	H	-1.089590	0.705321	0.656819
H91	H	-0.898132	0.702719	0.578158
H92	H	-0.895527	0.638970	0.656768
H93	H	-0.792438	0.801268	0.669131
H94	H	-0.789966	0.737438	0.747667
H95	H	-0.502763	0.380997	-0.094955
O96	O	0.002545	0.913628	0.334574
C97	C	0.047717	1.008128	0.423465
C98	C	-0.108824	0.957524	0.380106
H99	H	-0.042264	1.043641	0.460276
H100	H	0.151798	0.977278	0.460427
H101	H	0.149527	1.040962	0.381743
H102	H	-0.210772	0.924679	0.421774
H103	H	-0.212759	0.988416	0.343133
H104	H	0.067354	0.836460	0.571378
H105	H	-0.623151	0.809431	0.428408
H106	H	-0.496954	0.249509	-0.094963
O107	O	0.003025	0.913645	0.665349
C108	C	0.285432	1.004896	0.673637
C109	C	0.128691	0.954308	0.716957
H110	H	0.387045	1.037795	0.715344
H111	H	0.389677	0.974031	0.636780
H112	H	0.195495	1.040346	0.636709
H113	H	0.218457	0.918846	0.753927
H114	H	0.024449	0.985217	0.753767
H115	H	-0.536211	0.739502	0.328356
O116	O	-0.558782	0.732234	0.179316
C117	C	-0.841179	0.640981	0.187658
C118	C	-0.684445	0.691574	0.230948
H119	H	-0.942789	0.608084	0.229384
H120	H	-0.945426	0.671841	0.150773
H121	H	-0.751235	0.605528	0.150760
H122	H	-0.774218	0.727038	0.267887
H123	H	-0.580200	0.660671	0.267786
H124	H	-0.265106	0.033709	-0.123952
H125	H	-0.270904	0.165192	-0.123941
H126	H	-0.052960	0.264901	0.094728
O127	O	-0.264909	0.028029	0.134465
C128	C	-0.265106	0.035638	0.269842
C129	C	-0.266820	0.075494	0.194749
H130	H	-0.266606	0.073997	0.318602
H131	H	-0.409773	-0.003362	0.273304
H132	H	-0.117503	0.006770	0.273210
H133	H	-0.414325	0.104403	0.191332
H134	H	-0.122054	0.114453	0.191320
H135	H	-0.019545	0.906400	0.814388
H136	H	-0.284870	0.480694	0.123714
H137	H	-0.623156	0.809458	0.571360
