data_functionalizedCrystal
_audit_creation_method	'MofGen! by Chris Wilmer'
_symmetry_space_group_name_H-M	'P1'
_symmetry_Int_Tables_number	1
_symmetry_cell_setting	triclinic
loop_
_symmetry_equiv_pos_as_xyz
  x,y,z
_cell_length_a	8.559649
_cell_length_b	9.730223
_cell_length_c	8.559649
_cell_angle_alpha	90.000781
_cell_angle_beta	110.221336
_cell_angle_gamma	89.999652
loop_
_atom_site_label
_atom_site_type_symbol
_atom_site_fract_x
_atom_site_fract_y
_atom_site_fract_z
O1	O	2.126873	0.114268	0.055041
O2	O	1.651388	0.114274	-0.028740
O3	O	1.931021	0.114269	0.250893
O4	O	1.847240	0.114273	-0.224592
O5	O	1.931018	-0.114311	0.250886
O6	O	1.651384	-0.114306	-0.028747
O7	O	2.126869	-0.114312	0.055034
Zn8	Zn	1.889126	-0.150601	0.013143
Zn9	Zn	1.889131	0.150563	0.013151
O10	O	1.847236	-0.114307	-0.224599
C11	C	1.591077	-0.000016	-0.035093
C12	C	1.411378	-0.000013	-0.053992
N13	N	1.889135	-0.356137	0.013139
C14	C	2.012980	-0.428065	0.136927
C15	C	2.012978	-0.571948	0.136946
C16	C	1.765280	-0.571963	-0.110625
C17	C	1.765276	-0.428082	-0.110636
C18	C	2.136839	-0.356121	0.260702
C19	C	2.260695	-0.428049	0.384499
C20	C	2.260694	-0.571932	0.384518
C21	C	2.136836	-0.643886	0.260741
C22	C	2.187180	-0.000019	0.061387
C23	C	2.366879	-0.000013	0.080286
C24	C	1.937369	-0.000018	0.311198
C25	C	1.956268	-0.000011	0.490898
N26	N	1.889137	0.356099	0.013169
C27	C	1.840889	-0.000017	-0.284904
C28	C	1.821990	-0.000015	-0.464604
H29	H	1.466258	-0.000007	0.209705
H30	H	2.085696	-0.000023	0.590286
H31	H	1.311990	-0.000005	-0.183420
Br32	Br	2.428763	-0.330402	0.552492
H33	H	2.136855	-0.238964	0.260695
Br34	Br	1.606272	-0.000021	0.369763
Br35	Br	2.428763	-0.669549	0.552537
H36	H	2.136835	-0.761046	0.260776
H37	H	1.664441	-0.630557	-0.211401
H38	H	1.664429	-0.369518	-0.211434
