data_functionalizedCrystal
_audit_creation_method	'MofGen! by Chris Wilmer'
_symmetry_space_group_name_H-M	'P1'
_symmetry_Int_Tables_number	1
_symmetry_cell_setting	triclinic
loop_
_symmetry_equiv_pos_as_xyz
  x,y,z
_cell_length_a	12.837943
_cell_length_b	17.699083
_cell_length_c	11.295675
_cell_angle_alpha	85.905943
_cell_angle_beta	85.469454
_cell_angle_gamma	90.944023
loop_
_atom_site_label
_atom_site_type_symbol
_atom_site_fract_x
_atom_site_fract_y
_atom_site_fract_z
O1	O	1.367968	-0.201310	0.099007
O2	O	1.867968	0.298690	0.599007
O3	O	1.066186	-0.191593	0.099014
O4	O	1.566186	0.308407	0.599014
O5	O	1.225604	-0.086888	0.099000
O6	O	1.725604	0.413112	0.599000
O7	O	1.208550	-0.306015	0.099021
O8	O	1.708550	0.193985	0.599021
O9	O	1.239573	-0.077705	-0.099046
O10	O	1.739573	0.422295	0.400954
O11	O	1.080156	-0.182410	-0.099032
O12	O	1.580156	0.317590	0.400968
O13	O	1.381937	-0.192127	-0.099039
O14	O	1.881937	0.307873	0.400961
Cu15	Cu	1.232322	-0.186430	-0.117119
Cu16	Cu	1.732322	0.313570	0.382881
Cu17	Cu	1.215802	-0.197290	0.117093
Cu18	Cu	1.715802	0.302710	0.617093
O19	O	1.222520	-0.296832	-0.099025
O20	O	1.722520	0.203168	0.400975
C21	C	1.231978	-0.054055	-0.000024
C22	C	1.731978	0.445945	0.499976
C23	C	1.230145	0.030098	-0.000024
C24	C	1.730145	0.530098	0.499976
C25	C	1.034559	-0.183718	-0.000009
C26	C	1.534559	0.316282	0.499991
C27	C	0.919506	-0.173928	-0.000006
C28	C	1.419506	0.326072	0.499994
N29	N	1.243949	-0.178792	-0.281851
N30	N	1.743949	0.321208	0.218149
C31	C	0.678252	-0.291632	-0.000012
C32	C	1.178252	0.208368	0.499988
C33	C	0.570149	-0.282436	-0.000011
C34	C	1.070149	0.217564	0.499989
C35	C	0.595196	-0.146341	-0.000011
C36	C	1.095196	0.353659	0.499989
C37	C	0.703299	-0.155536	-0.000012
C38	C	1.203299	0.344464	0.499988
C39	C	0.744822	-0.228184	-0.000011
C40	C	1.244822	0.271816	0.499989
C41	C	0.852927	-0.237380	-0.000004
C42	C	1.352927	0.262620	0.499996
C43	C	0.877972	-0.101285	-0.000013
C44	C	1.377972	0.398715	0.499987
C45	C	0.769870	-0.092089	-0.000012
C46	C	1.269870	0.407911	0.499988
C47	C	1.413565	-0.200002	-0.000014
C48	C	1.913565	0.299998	0.499986
C49	C	1.528617	-0.209793	-0.000009
C50	C	2.028617	0.290207	0.499991
C51	C	1.216146	-0.329665	0.000001
C52	C	1.716146	0.170335	0.500001
C53	C	1.217978	-0.413818	0.000009
C54	C	1.717978	0.086182	0.500009
C55	C	1.323719	0.071845	-0.000028
C56	C	1.823719	0.571845	0.499972
C57	C	1.321990	0.150915	-0.000017
C58	C	1.821990	0.650915	0.499983
C59	C	1.226686	0.188237	-0.000011
C60	C	1.726686	0.688237	0.499989
C61	C	1.133104	0.146484	-0.000004
C62	C	1.633104	0.646484	0.499996
C63	C	1.134833	0.067415	-0.000006
C64	C	1.634833	0.567415	0.499994
C65	C	1.126126	0.465359	0.000006
C66	C	1.626126	0.965359	0.500006
C67	C	1.124403	0.544434	0.000004
C68	C	1.624403	1.044434	0.500004
C69	C	1.313282	0.548859	-0.000005
C70	C	1.813282	1.048859	0.499995
C71	C	1.315012	0.469790	-0.000007
C72	C	1.815012	0.969790	0.499993
C73	C	1.221430	0.428044	0.000006
C74	C	1.721430	0.928044	0.500006
C75	C	1.223306	0.342307	-0.000003
C76	C	1.723306	0.842307	0.499997
C77	C	1.224809	0.273972	-0.000011
C78	C	1.724809	0.773972	0.499989
C79	C	1.120367	-0.259937	-0.531183
C80	C	1.620367	0.240063	-0.031183
C81	C	1.129178	-0.254159	-0.655844
C82	C	1.629178	0.245841	-0.155844
C83	C	1.270385	-0.161463	-0.655835
C84	C	1.770385	0.338537	-0.155835
C85	C	1.261574	-0.167241	-0.531175
C86	C	1.761574	0.332759	-0.031175
C87	C	1.186562	-0.216478	-0.468853
C88	C	1.686562	0.283522	0.031147
C89	C	1.177747	-0.222252	-0.344190
C90	C	1.677747	0.277748	0.155810
C91	C	1.318958	-0.129560	-0.344184
C92	C	1.818958	0.370440	0.155816
C93	C	1.327769	-0.123782	-0.468844
C94	C	1.827769	0.376218	0.031156
N95	N	1.204183	-0.204923	0.281826
N96	N	1.704183	0.295077	0.781826
H97	H	0.886733	-0.296533	-0.000004
H98	H	1.386733	0.203467	0.499996
H99	H	0.515950	-0.334101	-0.000015
H100	H	1.015950	0.165899	0.499985
Cl101	Cl	0.730455	-0.382958	0.000006
Cl102	Cl	1.230455	0.117042	0.500006
H103	H	0.561375	-0.087189	-0.000111
H104	H	1.061375	0.412811	0.499889
Cl105	Cl	0.717658	-0.000765	-0.000016
Cl106	Cl	1.217658	0.499235	0.499984
Cl107	Cl	1.402172	-0.074919	-0.265814
Cl108	Cl	1.902172	0.425081	0.234186
H109	H	1.046791	0.574819	0.000007
H110	H	1.546791	1.074819	0.500007
H111	H	1.398188	0.184902	-0.000023
H112	H	1.898188	0.684902	0.499977
Cl113	Cl	1.017192	0.014933	0.000003
Cl114	Cl	1.517192	0.514933	0.500003
H115	H	1.116666	-0.262341	-0.293449
H116	H	1.616666	0.237659	0.206551
Cl117	Cl	1.443538	0.024934	-0.000047
Cl118	Cl	1.943538	0.524934	0.499953
Cl119	Cl	1.434827	0.422875	-0.000011
Cl120	Cl	1.934827	0.922875	0.499989
Cl121	Cl	1.430930	0.601344	-0.000018
Cl122	Cl	1.930930	1.101344	0.499982
H123	H	1.388845	-0.083696	-0.519601
H124	H	1.888845	0.416304	-0.019601
Cl125	Cl	1.008479	0.412889	0.000026
Cl126	Cl	1.508479	0.912889	0.500026
Cl127	Cl	1.026058	-0.321826	-0.452834
Cl128	Cl	1.526058	0.178174	0.047166
H129	H	0.932186	-0.049622	-0.000004
H130	H	1.432186	0.450378	0.499996
H131	H	1.075277	-0.289548	-0.706590
H132	H	1.575277	0.210452	-0.206590
H133	H	1.055505	0.176877	0.000008
H134	H	1.555505	0.676877	0.500008
H135	H	1.331465	-0.121380	-0.706594
H136	H	1.831465	0.378620	-0.206594
