data_functionalizedCrystal
_audit_creation_method	'MofGen! by Chris Wilmer'
_symmetry_space_group_name_H-M	'P1'
_symmetry_Int_Tables_number	1
_symmetry_cell_setting	triclinic
loop_
_symmetry_equiv_pos_as_xyz
  x,y,z
_cell_length_a	18.101395
_cell_length_b	16.625548
_cell_length_c	16.625539
_cell_angle_alpha	90.020568
_cell_angle_beta	89.972352
_cell_angle_gamma	89.967828
loop_
_atom_site_label
_atom_site_type_symbol
_atom_site_fract_x
_atom_site_fract_y
_atom_site_fract_z
Zn1	Zn	-0.294807	-1.232632	-0.455913
Zn2	Zn	0.205193	-0.732632	0.044087
Zn3	Zn	-0.418656	-1.232515	-0.321082
Zn4	Zn	0.081344	-0.732515	0.178918
Zn5	Zn	-0.294835	-1.097794	-0.321094
Zn6	Zn	0.205165	-0.597794	0.178906
Zn7	Zn	-0.418614	-1.097744	-0.455872
Zn8	Zn	0.081386	-0.597744	0.044128
O9	O	-0.356728	-1.165171	-0.388490
O10	O	0.143272	-0.665171	0.111510
O11	O	-0.311242	-1.345449	-0.438040
O12	O	0.188758	-0.845449	0.061960
O13	O	-0.402261	-1.214616	-0.208251
O14	O	0.097739	-0.714616	0.291749
O15	O	-0.191199	-1.115750	-0.339000
O16	O	0.308801	-0.615750	0.161000
O17	O	-0.402233	-1.345363	-0.338980
O18	O	0.097767	-0.845363	0.161020
O19	O	-0.191178	-1.214815	-0.438051
O20	O	0.308822	-0.714815	0.061949
O21	O	-0.311290	-1.115637	-0.208260
O22	O	0.188710	-0.615637	0.291740
O23	O	-0.311249	-0.984955	-0.338960
O24	O	0.188751	-0.484955	0.161040
O25	O	-0.402161	-1.115665	-0.568710
O26	O	0.097839	-0.615665	-0.068710
O27	O	-0.402188	-0.984918	-0.437981
O28	O	0.097812	-0.484918	0.062019
O29	O	-0.311201	-1.214767	-0.568740
O30	O	0.188799	-0.714767	-0.068740
O31	O	-0.522284	-1.214567	-0.338940
O32	O	-0.022284	-0.714567	0.161060
O33	O	-0.522252	-1.115552	-0.437969
O34	O	-0.022252	-0.615552	0.062031
C35	C	-0.356718	-0.955680	-0.388467
C36	C	0.143282	-0.455680	0.111533
C37	C	-0.356731	-0.866059	-0.388477
C38	C	0.143269	-0.366059	0.111523
C39	C	-0.549139	-1.165063	-0.388466
C40	C	-0.049139	-0.665063	0.111534
C41	C	-0.631453	-1.165091	-0.388483
C42	C	-0.131453	-0.665091	0.111517
C43	C	-0.356673	-1.165224	-0.598799
C44	C	0.143327	-0.665224	-0.098799
C45	C	-0.356649	-1.165246	-0.688420
C46	C	0.143351	-0.665246	-0.188420
C47	C	-0.930544	-1.165268	-0.388527
C48	C	-0.430544	-0.665268	0.111473
C49	C	-0.899230	-1.103114	-0.450988
C50	C	-0.399230	-0.603114	0.049012
C51	C	-0.813612	-1.102819	-0.450793
C52	C	-0.313612	-0.602819	0.049207
C53	C	-0.782161	-1.165180	-0.388506
C54	C	-0.282161	-0.665180	0.111494
C55	C	-0.813313	-1.142173	-0.303528
C56	C	-0.313313	-0.642173	0.196472
C57	C	-0.898959	-1.141772	-0.303901
C58	C	-0.398959	-0.641772	0.196099
C59	C	-0.898886	-1.250565	-0.410295
C60	C	-0.398886	-0.750565	0.089705
C61	C	-0.813235	-1.250063	-0.412159
C62	C	-0.313235	-0.750063	0.087841
C63	C	-0.698302	-1.165132	-0.388489
C64	C	-0.198302	-0.665132	0.111511
C65	C	-1.014403	-1.165314	-0.388538
C66	C	-0.514403	-0.665314	0.111462
C67	C	-0.163566	-1.165302	-0.388531
C68	C	0.336434	-0.665302	0.111469
C69	C	-0.081252	-1.165357	-0.388549
C70	C	0.418748	-0.665357	0.111451
C71	C	-0.356739	-1.375480	-0.388513
C72	C	0.143261	-0.875480	0.111487
C73	C	-0.356744	-1.465101	-0.388523
C74	C	0.143256	-0.965101	0.111477
C75	C	-0.356736	-0.537884	-0.388511
C76	C	0.143264	-0.037884	0.111489
C77	C	-0.356732	-0.629192	-0.388499
C78	C	0.143268	-0.129192	0.111501
C79	C	-0.356734	-0.701969	-0.388494
C80	C	0.143266	-0.201969	0.111506
C81	C	-0.356729	-0.793283	-0.388483
C82	C	0.143271	-0.293283	0.111517
C83	C	-0.356567	-1.165283	-1.016596
C84	C	0.143433	-0.665283	-0.516596
C85	C	-0.356592	-1.165271	-0.925287
C86	C	0.143408	-0.665271	-0.425287
C87	C	-0.356609	-1.165265	-0.852511
C88	C	0.143391	-0.665265	-0.352511
C89	C	-0.356633	-1.165252	-0.761197
C90	C	0.143367	-0.665252	-0.261197
C91	C	-0.356730	-1.165165	-0.178999
C92	C	0.143270	-0.665165	0.321001
C93	C	-0.356545	-1.165299	-0.089378
C94	C	0.143455	-0.665299	0.410622
H95	H	-0.792547	-1.117214	-0.513803
H96	H	-0.292547	-0.617214	-0.013803
H97	H	-0.919003	-1.079421	-0.285461
H98	H	-0.419003	-0.579421	0.214539
N99	N	-0.926298	-1.024274	-0.433146
N100	N	-0.426298	-0.524274	0.066854
N101	N	-0.963808	-0.986988	-0.484067
N102	N	-0.463808	-0.486988	0.015933
H103	H	-0.982924	-0.931306	-0.471466
H104	H	-0.482924	-0.431306	0.028534
H105	H	-0.919777	-1.117366	-0.514202
H106	H	-0.419777	-0.617366	-0.014202
N107	N	-0.787666	-1.271844	-0.490600
N108	N	-0.287666	-0.771844	0.009400
N109	N	-0.749709	-1.333980	-0.499965
N110	N	-0.249709	-0.833980	0.000035
H111	H	-0.731644	-1.349362	-0.555363
H112	H	-0.231644	-0.849362	-0.055363
H113	H	-0.919675	-1.185078	-0.255776
H114	H	-0.419675	-0.685078	0.244224
N115	N	-0.787759	-1.197182	-0.243559
N116	N	-0.287759	-0.697182	0.256441
N117	N	-0.746202	-1.254091	-0.262828
N118	N	-0.246202	-0.754091	0.237172
H119	H	-0.728153	-1.292944	-0.220476
H120	H	-0.228153	-0.792944	0.279524
H121	H	-0.791822	-1.298821	-0.369981
H122	H	-0.291822	-0.798821	0.130019
N123	N	-0.787998	-1.023502	-0.432706
N124	N	-0.287998	-0.523502	0.067294
N125	N	-0.833374	-0.968193	-0.420182
N126	N	-0.333374	-0.468193	0.079818
H127	H	-0.815286	-0.912171	-0.407406
H128	H	-0.315286	-0.412171	0.092594
N129	N	-0.924287	-1.308648	-0.353218
N130	N	-0.424287	-0.808648	0.146782
N131	N	-0.965524	-1.287427	-0.296730
N132	N	-0.465524	-0.787427	0.203270
H133	H	-0.983467	-1.328441	-0.256415
H134	H	-0.483467	-0.828441	0.243585
N135	N	-0.786484	-1.064783	-0.279985
N136	N	-0.286484	-0.564783	0.220015
N137	N	-0.744429	-1.026440	-0.325644
N138	N	-0.244429	-0.526440	0.174356
H139	H	-0.725480	-0.971781	-0.309021
H140	H	-0.225480	-0.471781	0.190979
N141	N	-0.925924	-1.276873	-0.486704
N142	N	-0.425924	-0.776873	0.013296
N143	N	-0.968861	-1.233071	-0.526046
N144	N	-0.468861	-0.733071	-0.026046
H145	H	-0.987960	-1.251644	-0.580013
H146	H	-0.487960	-0.751644	-0.080013
