data_functionalizedCrystal
_audit_creation_method	'MofGen! by Chris Wilmer'
_symmetry_space_group_name_H-M	'P1'
_symmetry_Int_Tables_number	1
_symmetry_cell_setting	triclinic
loop_
_symmetry_equiv_pos_as_xyz
  x,y,z
_cell_length_a	16.959455
_cell_length_b	18.101395
_cell_length_c	16.959447
_cell_angle_alpha	90.029468
_cell_angle_beta	90.014322
_cell_angle_gamma	90.028051
loop_
_atom_site_label
_atom_site_type_symbol
_atom_site_fract_x
_atom_site_fract_y
_atom_site_fract_z
Zn1	Zn	1.208323	-0.294875	0.446913
Zn2	Zn	1.708323	0.205125	0.946913
Zn3	Zn	1.208220	-0.418728	0.314737
Zn4	Zn	1.708220	0.081272	0.814737
Zn5	Zn	1.076152	-0.294899	0.314751
Zn6	Zn	1.576152	0.205101	0.814751
Zn7	Zn	1.076091	-0.418673	0.446875
Zn8	Zn	1.576091	0.081327	0.946875
O9	O	1.142196	-0.356794	0.380819
O10	O	1.642196	0.143206	0.880819
O11	O	1.318920	-0.311318	0.429390
O12	O	1.818920	0.188682	0.929390
O13	O	1.190683	-0.402335	0.204128
O14	O	1.690683	0.097665	0.704128
O15	O	1.093753	-0.191263	0.332304
O16	O	1.593753	0.308737	0.832304
O17	O	1.318845	-0.402312	0.332280
O18	O	1.818845	0.097688	0.832280
O19	O	1.190859	-0.191246	0.429404
O20	O	1.690859	0.308754	0.929404
O21	O	1.093653	-0.311358	0.204138
O22	O	1.593653	0.188642	0.704138
O23	O	0.965533	-0.311304	0.332267
O24	O	1.465533	0.188696	0.832267
O25	O	1.093649	-0.402218	0.557491
O26	O	1.593649	0.097782	1.057491
O27	O	0.965488	-0.402241	0.429339
O28	O	1.465488	0.097759	0.929339
O29	O	1.190800	-0.311264	0.557519
O30	O	1.690800	0.188736	1.057519
O31	O	1.190624	-0.522354	0.332243
O32	O	1.690624	-0.022354	0.832243
O33	O	1.093550	-0.522313	0.429325
O34	O	1.593550	-0.022313	0.929325
C35	C	0.936830	-0.356769	0.380801
C36	C	1.436830	0.143231	0.880801
C37	C	0.848974	-0.356777	0.380812
C38	C	1.348974	0.143223	0.880812
C39	C	1.142091	-0.549204	0.380796
C40	C	1.642091	-0.049204	0.880796
C41	C	1.142118	-0.631518	0.380812
C42	C	1.642118	-0.131518	0.880812
C43	C	0.477497	-0.309404	0.330380
C44	C	0.977497	0.190596	0.830380
C45	C	0.477499	-0.404244	0.431304
C46	C	0.977499	0.095756	0.931304
C47	C	0.560045	-0.404234	0.431299
C48	C	1.060045	0.095766	0.931299
C49	C	0.601321	-0.356808	0.380833
C50	C	1.101321	0.143192	0.880833
C51	C	0.560050	-0.309394	0.330372
C52	C	1.060050	0.190606	0.830372
C53	C	0.601321	-0.451653	0.481754
C54	C	1.101321	0.048347	0.981754
C55	C	0.683872	-0.451644	0.481750
C56	C	1.183872	0.048356	0.981750
C57	C	0.725150	-0.404215	0.431287
C58	C	1.225150	0.095785	0.931287
C59	C	0.683874	-0.356798	0.380825
C60	C	1.183874	0.143202	0.880825
C61	C	0.725150	-0.309373	0.330359
C62	C	1.225150	0.190627	0.830359
C63	C	0.683876	-0.261951	0.279899
C64	C	1.183876	0.238049	0.779899
C65	C	0.601327	-0.261964	0.279909
C66	C	1.101327	0.238036	0.779909
C67	C	0.807698	-0.404202	0.431278
C68	C	1.307698	0.095798	0.931278
C69	C	0.807703	-0.309362	0.330351
C70	C	1.307703	0.190638	0.830351
C71	C	1.142291	-0.930609	0.380855
C72	C	1.642291	-0.430609	0.880855
C73	C	1.081356	-0.899289	0.442088
C74	C	1.581356	-0.399289	0.942088
C75	C	1.081066	-0.813671	0.441896
C76	C	1.581066	-0.313671	0.941896
C77	C	1.142205	-0.782227	0.380834
C78	C	1.642205	-0.282227	0.880834
C79	C	1.119658	-0.813380	0.297530
C80	C	1.619658	-0.313380	0.797530
C81	C	1.119266	-0.899025	0.297896
C82	C	1.619266	-0.399025	0.797896
C83	C	1.225907	-0.898956	0.402193
C84	C	1.725907	-0.398956	0.902193
C85	C	1.225415	-0.813305	0.404020
C86	C	1.725415	-0.313305	0.904020
C87	C	1.142158	-0.698367	0.380818
C88	C	1.642158	-0.198367	0.880818
C89	C	1.142337	-1.014469	0.380866
C90	C	1.642337	-0.514469	0.880866
C91	C	1.348365	-0.356819	0.380838
C92	C	1.848365	0.143181	0.880838
C93	C	1.436221	-0.356830	0.380846
C94	C	1.936221	0.143170	0.880846
C95	C	1.142229	-0.356732	0.586987
C96	C	1.642229	0.143268	1.086987
C97	C	1.142243	-0.356706	0.674844
C98	C	1.642243	0.143294	1.174844
C99	C	1.142324	-0.163632	0.380860
C100	C	1.642324	0.336368	0.880860
C101	C	1.142379	-0.081318	0.380877
C102	C	1.642379	0.418682	0.880877
C103	C	1.142209	-0.356801	0.175453
C104	C	1.642209	0.143199	0.675453
C105	C	1.142348	-0.356619	0.087597
C106	C	1.642348	0.143381	0.587597
C107	C	1.091756	-0.403984	1.046308
C108	C	1.591756	0.096016	1.546308
C109	C	1.192920	-0.309273	1.046332
C110	C	1.692920	0.190727	1.546332
C111	C	1.192899	-0.309289	0.963786
C112	C	1.692899	0.190711	1.463786
C113	C	1.142306	-0.356653	0.922497
C114	C	1.642306	0.143347	1.422497
C115	C	1.091735	-0.404002	0.963754
C116	C	1.591735	0.095998	1.463754
C117	C	1.243475	-0.261946	0.922523
C118	C	1.743475	0.238054	1.422523
C119	C	1.243456	-0.261960	0.839972
C120	C	1.743456	0.238040	1.339972
C121	C	1.192859	-0.309322	0.798681
C122	C	1.692859	0.190678	1.298681
C123	C	1.142285	-0.356672	0.839944
C124	C	1.642285	0.143328	1.339944
C125	C	1.091693	-0.404037	0.798655
C126	C	1.591693	0.095963	1.298655
C127	C	1.041115	-0.451384	0.839915
C128	C	1.541115	0.048616	1.339915
C129	C	1.041138	-0.451364	0.922464
C130	C	1.541138	0.048636	1.422464
C131	C	1.192836	-0.309342	0.716133
C132	C	1.692836	0.190658	1.216133
C133	C	1.091672	-0.404055	0.716101
C134	C	1.591672	0.095945	1.216101
H135	H	0.841304	-0.270738	0.289259
H136	H	1.341304	0.229262	0.789259
H137	H	0.999962	-0.489914	0.956066
H138	H	1.499962	0.010086	1.456066
H139	H	1.019089	-0.793246	0.427762
H140	H	1.519089	-0.293246	0.927762
H141	H	1.019755	-0.920873	0.428131
H142	H	1.519755	-0.420873	0.928131
N143	N	0.728397	-0.210806	0.225464
N144	N	1.228397	0.289194	0.725464
H145	H	0.786953	-0.218001	0.233116
H146	H	1.286953	0.281999	0.733116
H147	H	0.714001	-0.157929	0.237867
H148	H	1.214001	0.342071	0.737867
H149	H	0.567709	-0.490269	0.522835
H150	H	1.067709	0.009731	1.022835
H151	H	1.161723	-0.919746	0.250718
H152	H	1.661723	-0.419746	0.750718
N153	N	1.176594	-0.786408	0.235443
N154	N	1.676594	-0.286408	0.735443
H155	H	1.217648	-0.753655	0.260780
H156	H	1.717648	-0.253655	0.760780
H157	H	1.146890	-0.757424	0.194146
H158	H	1.646890	-0.257424	0.694146
N159	N	1.039553	-0.785052	0.273157
N160	N	1.539553	-0.285052	0.773157
H161	H	0.998764	-0.801466	0.312845
H162	H	1.498764	-0.301466	0.812845
H163	H	1.025638	-0.805410	0.219469
H164	H	1.525638	-0.305410	0.719469
N165	N	0.432983	-0.258273	0.275946
N166	N	0.932983	0.241727	0.775946
H167	H	0.398752	-0.223992	0.308127
H168	H	0.898752	0.276008	0.808127
H169	H	0.398760	-0.288396	0.239281
H170	H	0.898760	0.211604	0.739281
N171	N	1.037203	-0.455054	1.090793
N172	N	1.537203	0.044946	1.590793
H173	H	0.980735	-0.443545	1.076421
H174	H	1.480735	0.056455	1.576421
H175	H	1.044949	-0.447840	1.149341
H176	H	1.544949	0.052160	1.649341
N177	N	0.432985	-0.455400	0.485725
N178	N	0.932985	0.044600	0.985725
H179	H	0.374428	-0.448214	0.478071
H180	H	0.874428	0.051786	0.978071
H181	H	0.447434	-0.443938	0.542199
H182	H	0.947434	0.056062	1.042199
N183	N	0.728386	-0.502789	0.536170
N184	N	1.228386	-0.002789	1.036170
H185	H	0.689711	-0.532834	0.568139
H186	H	1.189711	-0.032834	1.068139
H187	H	0.762658	-0.472681	0.572804
H188	H	1.262658	0.027319	1.072804
N189	N	0.852216	-0.455347	0.485688
N190	N	1.352216	0.044653	0.985688
H191	H	0.813542	-0.485396	0.517656
H192	H	1.313542	0.014604	1.017656
H193	H	0.886489	-0.425243	0.522325
H194	H	1.386489	0.074757	1.022325
N195	N	1.099744	-0.785760	0.523715
N196	N	1.599744	-0.285760	1.023715
H197	H	1.108241	-0.829092	0.560232
H198	H	1.608241	-0.329092	1.060232
H199	H	1.054345	-0.754874	0.543646
H200	H	1.554345	-0.254874	1.043646
N201	N	1.038307	-0.925579	0.273951
N202	N	1.538307	-0.425579	0.773951
H203	H	1.003209	-0.881649	0.263258
H204	H	1.503209	-0.381649	0.763258
H205	H	1.014946	-0.956203	0.317894
H206	H	1.514946	-0.456203	0.817894
H207	H	1.095322	-0.919836	0.504057
H208	H	1.595322	-0.419836	1.004057
H209	H	1.246464	-0.920503	0.461904
H210	H	1.746464	-0.420503	0.961904
H211	H	1.242417	-0.792941	0.465328
H212	H	1.742417	-0.292941	0.965328
N213	N	1.288740	-0.784947	0.349258
N214	N	1.788740	-0.284947	0.849258
H215	H	1.264277	-0.751405	0.308458
H216	H	1.764277	-0.251405	0.808458
H217	H	1.315076	-0.828030	0.322092
H218	H	1.815076	-0.328030	0.822092
H219	H	1.284640	-0.223407	0.806384
H220	H	1.784640	0.276593	1.306384
H221	H	1.271306	-0.919210	0.357595
H222	H	1.771306	-0.419210	0.857595
H223	H	1.050466	-0.442619	0.682489
H224	H	1.550466	0.057381	1.182489
N225	N	0.986554	-0.502474	0.795380
N226	N	1.486554	-0.002474	1.295380
H227	H	0.994222	-0.495301	0.736825
H228	H	1.494222	0.004699	1.236825
H229	H	0.930111	-0.490938	0.809804
H230	H	1.430111	0.009062	1.309804
N231	N	1.247490	-0.258194	1.090860
N232	N	1.747490	0.241806	1.590860
H233	H	1.239831	-0.265368	1.149415
H234	H	1.739831	0.234632	1.649415
H235	H	1.235217	-0.205305	1.076450
H236	H	1.735217	0.294695	1.576450
H237	H	1.284669	-0.223389	0.956146
H238	H	1.784669	0.276611	1.456146
N239	N	1.247386	-0.258287	0.671630
N240	N	1.747386	0.241713	1.171630
H241	H	1.279443	-0.228283	0.710312
H242	H	1.779443	0.271717	1.210312
H243	H	1.215229	-0.224016	0.637390
H244	H	1.715229	0.275984	1.137390
H245	H	0.567715	-0.223357	0.238827
H246	H	1.067715	0.276643	0.738827
