data_functionalizedCrystal
_audit_creation_method	'MofGen! by Chris Wilmer'
_symmetry_space_group_name_H-M	'P1'
_symmetry_Int_Tables_number	1
_symmetry_cell_setting	triclinic
loop_
_symmetry_equiv_pos_as_xyz
  x,y,z
_cell_length_a	12.759401
_cell_length_b	16.120484
_cell_length_c	12.759393
_cell_angle_alpha	92.862882
_cell_angle_beta	89.981504
_cell_angle_gamma	92.925560
loop_
_atom_site_label
_atom_site_type_symbol
_atom_site_fract_x
_atom_site_fract_y
_atom_site_fract_z
Zn1	Zn	1.584972	-0.331853	-0.615146
Zn2	Zn	1.575923	-0.471291	-0.448359
Zn3	Zn	1.409271	-0.331897	-0.439488
Zn4	Zn	1.400324	-0.471227	-0.623996
O5	O	1.492622	-0.401567	-0.531747
O6	O	1.730792	-0.350358	-0.593030
O7	O	1.553774	-0.452845	-0.300164
O8	O	1.440109	-0.215226	-0.455373
O9	O	1.724144	-0.452803	-0.470492
O10	O	1.569196	-0.215194	-0.584428
O11	O	1.431335	-0.350433	-0.293646
O12	O	1.261064	-0.350370	-0.463955
O13	O	1.424860	-0.452693	-0.769840
O14	O	1.254490	-0.452736	-0.599512
O15	O	1.560520	-0.350296	-0.763338
O16	O	1.545098	-0.587947	-0.479074
O17	O	1.416086	-0.587900	-0.608114
C18	C	1.219656	-0.401551	-0.531732
C19	C	1.102879	-0.401565	-0.531752
C20	C	1.044616	-0.454952	-0.602231
C21	C	0.934891	-0.454962	-0.602243
C22	C	0.941702	-0.348197	-0.461287
C23	C	1.051425	-0.348183	-0.461281
C24	C	1.040682	-0.516595	-0.683607
C25	C	0.930958	-0.516605	-0.683619
C26	C	1.478668	-0.618174	-0.545540
C27	C	1.472794	-0.710839	-0.551475
C28	C	1.462076	-0.880500	-0.562334
C29	C	1.523357	-0.921793	-0.501178
C30	C	1.517393	-1.016198	-0.507219
C31	C	1.468038	-0.786086	-0.556293
C32	C	1.766655	-0.401583	-0.531763
C33	C	1.883431	-0.401590	-0.531770
C34	C	1.492701	-0.401483	-0.805775
C35	C	1.492735	-0.401447	-0.922550
C36	C	1.506660	-0.184114	-0.517924
C37	C	1.512642	-0.091448	-0.512033
C38	C	1.563383	-0.348123	-0.974027
C39	C	1.563410	-0.348093	-1.083750
C40	C	1.422138	-0.454717	-1.090507
C41	C	1.422106	-0.454742	-0.980787
C42	C	1.644948	-0.286568	-0.970127
C43	C	1.644975	-0.286538	-1.079849
C44	C	1.492608	-0.401590	-0.258781
C45	C	1.492793	-0.401391	-0.141992
H46	H	1.580299	-0.886244	-0.444283
H47	H	1.720736	-0.309714	-0.937567
N48	N	1.386645	-0.927586	-0.637681
H49	H	1.312520	-0.912550	-0.620346
H50	H	1.403938	-0.912412	-0.711786
N51	N	0.887872	-0.486088	-0.784133
H52	H	0.808742	-0.487210	-0.780470
H53	H	0.916154	-0.427313	-0.793831
H54	H	1.071595	-0.499376	-0.763915
H55	H	0.897022	-0.581158	-0.665804
N56	N	1.345871	-0.512223	-0.925260
H57	H	1.301128	-0.545973	-0.978804
H58	H	1.386096	-0.550830	-0.882170
N59	N	1.114269	-0.290580	-0.385292
H60	H	1.065021	-0.256764	-0.340656
H61	H	1.157609	-0.324447	-0.338744
N62	N	1.345975	-0.512205	-1.153324
H63	H	1.301216	-0.545990	-1.104061
H64	H	1.299558	-0.478255	-1.196690
H65	H	1.627321	-0.222003	-0.936253
N66	N	1.611649	-0.205270	-1.119764
H67	H	1.670180	-0.179588	-1.162699
H68	H	1.546892	-0.215806	-1.164940
N69	N	1.751284	-0.309442	-1.120768
H70	H	1.798702	-0.319691	-1.059888
H71	H	1.743172	-0.361503	-1.168079
H72	H	1.070765	-0.577896	-0.658232
H73	H	0.899795	-0.304734	-0.403914
