data_functionalizedCrystal
_audit_creation_method	'MofGen! by Chris Wilmer'
_symmetry_space_group_name_H-M	'P1'
_symmetry_Int_Tables_number	1
_symmetry_cell_setting	triclinic
loop_
_symmetry_equiv_pos_as_xyz
  x,y,z
_cell_length_a	16.109302
_cell_length_b	18.266242
_cell_length_c	16.109304
_cell_angle_alpha	90.003536
_cell_angle_beta	83.462209
_cell_angle_gamma	90.010978
loop_
_atom_site_label
_atom_site_type_symbol
_atom_site_fract_x
_atom_site_fract_y
_atom_site_fract_z
O1	O	1.103138	0.060909	0.106871
O2	O	1.436471	0.394243	0.440205
O3	O	1.769805	0.727576	0.773538
O4	O	0.861076	0.060903	0.120170
O5	O	1.194409	0.394236	0.453503
O6	O	1.527743	0.727570	0.786837
O7	O	0.988755	0.060907	-0.007510
O8	O	1.322089	0.394240	0.325823
O9	O	1.655422	0.727573	0.659156
O10	O	0.975459	0.060905	0.234551
O11	O	1.308792	0.394239	0.567885
O12	O	1.642125	0.727572	0.901218
O13	O	0.988734	-0.060855	-0.007517
O14	O	1.322067	0.272478	0.325816
O15	O	1.655400	0.605811	0.659150
O16	O	0.861054	-0.060859	0.120163
O17	O	1.194388	0.272474	0.453497
O18	O	1.527721	0.605808	0.786830
O19	O	1.103116	-0.060853	0.106865
O20	O	1.436450	0.272481	0.440198
O21	O	1.769783	0.605814	0.773531
Zn22	Zn	0.982082	-0.080188	0.113513
Zn23	Zn	1.315415	0.253145	0.446846
Zn24	Zn	1.648749	0.586478	0.780180
Zn25	Zn	0.982110	0.080238	0.113522
Zn26	Zn	1.315444	0.413572	0.446855
Zn27	Zn	1.648777	0.746905	0.780188
O28	O	0.975437	-0.060857	0.234545
O29	O	1.308770	0.272477	0.567878
O30	O	1.642104	0.605810	0.901211
C31	C	0.830090	0.000021	0.119628
C32	C	1.163424	0.333354	0.452961
C33	C	1.496757	0.666688	0.786294
C34	C	0.737795	0.000019	0.118012
C35	C	1.071128	0.333352	0.451346
C36	C	1.404462	0.666686	0.784679
C37	C	0.525442	-0.066346	0.114274
C38	C	0.858776	0.266987	0.447607
C39	C	1.192109	0.600320	0.780940
C40	C	0.438722	-0.066344	0.112747
C41	C	0.772056	0.266990	0.446080
C42	C	1.105389	0.600323	0.779414
C43	C	0.438756	0.066408	0.112758
C44	C	0.772090	0.399741	0.446092
C45	C	1.105423	0.733075	0.779425
C46	C	0.525476	0.066405	0.114279
C47	C	0.858809	0.399738	0.447612
C48	C	1.192142	0.733071	0.780946
C49	C	0.568816	0.000025	0.115041
C50	C	0.902149	0.333359	0.448374
C51	C	1.235483	0.666692	0.781708
C52	C	0.395377	0.000031	0.111994
C53	C	0.728710	0.333365	0.445327
C54	C	1.062043	0.666698	0.778660
C55	C	0.301351	0.000034	0.110338
C56	C	0.634684	0.333368	0.443672
C57	C	0.968017	0.666701	0.777005
C58	C	0.662848	0.000022	0.116695
C59	C	0.996181	0.333355	0.450028
C60	C	1.329514	0.666688	0.783362
N61	N	0.982069	-0.189675	0.113506
N62	N	1.315402	0.143658	0.446840
N63	N	1.648735	0.476991	0.780173
C64	C	1.038623	-0.227982	0.056997
C65	C	1.371957	0.105351	0.390331
C66	C	1.705290	0.438684	0.723664
C67	C	1.038629	-0.304627	0.056994
C68	C	1.371962	0.028706	0.390327
C69	C	1.705295	0.362039	0.723660
C70	C	0.982087	-0.342962	0.113513
C71	C	1.315420	-0.009629	0.446846
C72	C	1.648754	0.323705	0.780180
C73	C	0.925521	-0.304646	0.170026
C74	C	1.258855	0.028688	0.503360
C75	C	1.592188	0.362021	0.836693
C76	C	0.925512	-0.228002	0.170023
C77	C	1.258846	0.105331	0.503356
C78	C	1.592179	0.438664	0.836690
N79	N	0.971485	-0.463295	0.187083
N80	N	1.304819	-0.129962	0.520416
N81	N	1.638152	0.203372	0.853749
N82	N	0.971499	-0.536103	0.187083
N83	N	1.304833	-0.202770	0.520416
N84	N	1.638166	0.130564	0.853750
C85	C	0.982110	-0.573885	0.113525
C86	C	1.315444	-0.240551	0.446859
C87	C	1.648777	0.092782	0.780192
N88	N	0.992724	-0.536107	0.039964
N89	N	1.326057	-0.202774	0.373298
N90	N	1.659390	0.130559	0.706631
N91	N	0.992714	-0.463293	0.039965
N92	N	1.326047	-0.129959	0.373298
N93	N	1.659381	0.203374	0.706631
C94	C	0.982090	-0.426069	0.113523
C95	C	1.315424	-0.092736	0.446856
C96	C	1.648757	0.240598	0.780189
C97	C	1.038674	-0.695299	0.057007
C98	C	1.372008	-0.361966	0.390341
C99	C	1.705341	-0.028632	0.723674
C100	C	1.038674	-0.771945	0.057002
C101	C	1.372007	-0.438612	0.390336
C102	C	1.705340	-0.105279	0.723669
C103	C	0.925570	-0.771962	0.170042
C104	C	1.258904	-0.438629	0.503376
C105	C	1.592237	-0.105295	0.836709
C106	C	0.925567	-0.695317	0.170040
C107	C	1.258900	-0.361984	0.503373
C108	C	1.592234	-0.028651	0.836707
C109	C	0.982123	-0.656990	0.113523
C110	C	1.315457	-0.323657	0.446857
C111	C	1.648790	0.009676	0.780190
C112	C	1.134102	0.000031	0.107407
C113	C	1.467435	0.333364	0.440740
C114	C	1.800769	0.666697	0.774073
C115	C	1.226397	0.000038	0.109022
C116	C	1.559731	0.333371	0.442355
C117	C	1.893064	0.666704	0.775689
C118	C	0.988206	0.000027	-0.038488
C119	C	1.321539	0.333361	0.294845
C120	C	1.654872	0.666694	0.628178
C121	C	0.986590	0.000032	-0.130784
C122	C	1.319923	0.333366	0.202550
C123	C	1.653256	0.666699	0.535883
N124	N	0.982130	0.189725	0.113521
N125	N	1.315464	0.523059	0.446855
N126	N	1.648797	0.856392	0.780188
C127	C	0.982868	0.066402	-0.343117
C128	C	1.316201	0.399735	-0.009784
C129	C	1.649534	0.733069	0.323549
C130	C	0.981342	0.066401	-0.429838
C131	C	1.314675	0.399734	-0.096504
C132	C	1.648008	0.733068	0.236829
C133	C	0.981322	-0.066350	-0.429842
C134	C	1.314656	0.266983	-0.096508
C135	C	1.647989	0.600316	0.236825
C136	C	0.982842	-0.066349	-0.343122
C137	C	1.316176	0.266984	-0.009789
C138	C	1.649509	0.600318	0.323544
C139	C	0.983619	0.000029	-0.299763
C140	C	1.316953	0.333363	0.033570
C141	C	1.650286	0.666696	0.366904
C142	C	0.980573	0.000027	-0.473202
C143	C	1.313906	0.333360	-0.139869
C144	C	1.647240	0.666694	0.193464
C145	C	0.978918	0.000026	-0.567228
C146	C	1.312252	0.333359	-0.233895
C147	C	1.645585	0.666693	0.099438
C148	C	0.985273	0.000031	-0.205731
C149	C	1.318606	0.333364	0.127602
C150	C	1.651939	0.666698	0.460936
C151	C	0.975987	0.000024	0.265523
C152	C	1.309320	0.333358	0.598856
C153	C	1.642653	0.666691	0.932190
C154	C	0.977603	0.000024	0.357818
C155	C	1.310936	0.333358	0.691151
C156	C	1.644270	0.666691	1.024485
H157	H	0.560727	-0.120397	0.114894
H158	H	0.894061	0.212937	0.448227
H159	H	1.227394	0.546270	0.781561
H160	H	0.980691	-0.120393	-0.465156
H161	H	1.314025	0.212940	-0.131822
H162	H	1.647358	0.546273	0.201511
H163	H	0.403411	-0.120390	0.112122
H164	H	0.736745	0.212943	0.445456
H165	H	1.070078	0.546277	0.778789
H166	H	0.983450	-0.120401	-0.307822
H167	H	1.316783	0.212933	0.025512
H168	H	1.650116	0.546266	0.358845
H169	H	1.084684	-0.335823	0.010975
H170	H	1.418017	-0.002489	0.344309
H171	H	1.751351	0.330844	0.677642
H172	H	0.403458	0.120451	0.112139
H173	H	0.736791	0.453785	0.445472
H174	H	1.070125	0.787118	0.778806
H175	H	1.084673	-0.196779	0.010976
H176	H	1.418006	0.136555	0.344310
H177	H	1.751340	0.469888	0.677643
H178	H	0.560792	0.120456	0.114902
H179	H	0.894125	0.453789	0.448235
H180	H	1.227458	0.787122	0.781568
H181	H	0.879483	-0.335862	0.216044
H182	H	1.212816	-0.002528	0.549377
H183	H	1.546150	0.330805	0.882711
H184	H	0.879457	-0.196812	0.216040
H185	H	1.212791	0.136522	0.549374
H186	H	1.546124	0.469855	0.882707
H187	H	1.084723	-0.664092	0.010985
H188	H	1.418057	-0.330758	0.344319
H189	H	1.751390	0.002575	0.677652
H190	H	0.879530	-0.803174	0.216058
H191	H	1.212863	-0.469840	0.549392
H192	H	1.546196	-0.136507	0.882725
H193	H	1.084725	-0.803136	0.010981
H194	H	1.418058	-0.469802	0.344315
H195	H	1.751392	-0.136469	0.677648
H196	H	0.980728	0.120448	-0.465133
H197	H	1.314061	0.453782	-0.131799
H198	H	1.647395	0.787115	0.201534
H199	H	0.879518	-0.664125	0.216058
H200	H	1.212851	-0.330792	0.549392
H201	H	1.546184	0.002541	0.882725
H202	H	0.983498	0.120451	-0.307816
H203	H	1.316831	0.453785	0.025517
H204	H	1.650165	0.787118	0.358850
