data_functionalizedCrystal
_audit_creation_method	'MofGen! by Chris Wilmer'
_symmetry_space_group_name_H-M	'P1'
_symmetry_Int_Tables_number	1
_symmetry_cell_setting	triclinic
loop_
_symmetry_equiv_pos_as_xyz
  x,y,z
_cell_length_a	12.827893
_cell_length_b	16.625545
_cell_length_c	16.625539
_cell_angle_alpha	89.973630
_cell_angle_beta	90.015091
_cell_angle_gamma	89.975993
loop_
_atom_site_label
_atom_site_type_symbol
_atom_site_fract_x
_atom_site_fract_y
_atom_site_fract_z
Zn1	Zn	1.597564	0.321016	0.455867
Zn2	Zn	2.097564	0.821016	0.955867
Zn3	Zn	1.597444	0.455854	0.321035
Zn4	Zn	2.097444	0.955854	0.821035
Zn5	Zn	1.422818	0.321039	0.321053
Zn6	Zn	1.922818	0.821039	0.821053
Zn7	Zn	1.422764	0.455810	0.455829
Zn8	Zn	1.922764	0.955810	0.955829
O9	O	1.510147	0.388430	0.388446
O10	O	2.010147	0.888430	0.888446
O11	O	1.743784	0.338911	0.437990
O12	O	2.243784	0.838911	0.937990
O13	O	1.574252	0.437999	0.208205
O14	O	2.074252	0.937999	0.708205
O15	O	1.446071	0.208204	0.338959
O16	O	1.946071	0.708204	0.838959
O17	O	1.743696	0.437976	0.338929
O18	O	2.243696	0.937976	0.838929
O19	O	1.574456	0.208186	0.438007
O20	O	2.074456	0.708186	0.938007
O21	O	1.445955	0.338951	0.208218
O22	O	1.945955	0.838951	0.708218
O23	O	1.276575	0.338908	0.338923
O24	O	1.776575	0.838908	0.838923
O25	O	1.445979	0.437901	0.568667
O26	O	1.945979	0.937901	1.068667
O27	O	1.276535	0.437924	0.437942
O28	O	1.776535	0.937924	0.937942
O29	O	1.574404	0.338868	0.568695
O30	O	2.074404	0.838868	1.068695
O31	O	1.574200	0.568681	0.338892
O32	O	2.074200	1.068681	0.838892
O33	O	1.445863	0.568648	0.437925
O34	O	1.945863	1.068648	0.937925
C35	C	1.238638	0.388414	0.388431
C36	C	1.738638	0.888414	0.888431
C37	C	1.122484	0.388427	0.388443
C38	C	1.622484	0.888427	0.888443
C39	C	1.070708	0.437500	0.437366
C40	C	1.570708	0.937500	0.937366
C41	C	0.950657	0.437514	0.437380
C42	C	1.450657	0.937514	0.937380
C43	C	1.510041	0.597921	0.388420
C44	C	2.010041	1.097921	0.888420
C45	C	1.510091	0.687542	0.388436
C46	C	2.010091	1.187542	0.888436
C47	C	1.510262	1.015717	0.388532
C48	C	2.010262	1.515717	0.888532
C49	C	1.510211	0.924409	0.388508
C50	C	2.010211	1.424409	0.888508
C51	C	1.510176	0.851633	0.388484
C52	C	2.010176	1.351633	0.888484
C53	C	1.510127	0.760318	0.388460
C54	C	2.010127	1.260318	0.888460
C55	C	1.782718	0.388446	0.388462
C56	C	2.282718	0.888446	0.888462
C57	C	1.898871	0.388453	0.388469
C58	C	2.398871	0.888453	0.888469
C59	C	1.510274	1.178121	0.388499
C60	C	2.010274	1.678121	0.888499
C61	C	1.510305	1.088500	0.388546
C62	C	2.010305	1.588500	0.888546
C63	C	1.510199	0.388377	0.598755
C64	C	2.010199	0.888377	1.098755
C65	C	1.510220	0.388354	0.688376
C66	C	2.010220	0.888354	1.188376
C67	C	1.510157	0.388425	0.178955
C68	C	2.010157	0.888425	0.678955
C69	C	1.510337	0.388220	0.089335
C70	C	2.010337	0.888220	0.589335
C71	C	1.510238	0.388336	0.761159
C72	C	2.010238	0.888336	1.261159
C73	C	1.510262	0.388306	0.852467
C74	C	2.010262	0.888306	1.352467
C75	C	1.510287	0.388278	0.925244
C76	C	2.010287	0.888278	1.425244
C77	C	1.510313	0.388249	1.016558
C78	C	2.010313	0.888249	1.516558
H79	H	1.077936	0.346422	0.346573
H80	H	1.577936	0.846422	0.846573
H81	H	0.943391	0.346441	0.346579
H82	H	1.443391	0.846441	0.846579
H83	H	0.906131	0.479529	0.479262
H84	H	1.406131	0.979529	0.979262
H85	H	1.115256	0.479499	0.479243
H86	H	1.615256	0.979499	0.979243
