data_functionalizedCrystal
_audit_creation_method	'MofGen! by Chris Wilmer'
_symmetry_space_group_name_H-M	'P1'
_symmetry_Int_Tables_number	1
_symmetry_cell_setting	triclinic
loop_
_symmetry_equiv_pos_as_xyz
  x,y,z
_cell_length_a	11.026607
_cell_length_b	13.330367
_cell_length_c	11.026607
_cell_angle_alpha	89.998240
_cell_angle_beta	71.413983
_cell_angle_gamma	90.006834
loop_
_atom_site_label
_atom_site_type_symbol
_atom_site_fract_x
_atom_site_fract_y
_atom_site_fract_z
O1	O	1.726739	0.083421	-0.533624
O2	O	2.226739	0.583421	-0.033624
O3	O	1.360159	0.083423	-0.472860
O4	O	1.860159	0.583423	0.027140
O5	O	1.513067	0.083418	-0.319952
O6	O	2.013067	0.583418	0.180048
O7	O	1.573831	0.083425	-0.686532
O8	O	2.073831	0.583425	-0.186532
O9	O	1.513038	-0.083429	-0.319942
O10	O	2.013038	0.416571	0.180058
O11	O	1.360130	-0.083424	-0.472850
O12	O	1.860130	0.416576	0.027150
O13	O	1.726710	-0.083426	-0.533613
O14	O	2.226710	0.416574	-0.033613
Cu15	Cu	1.543417	-0.098660	-0.503231
Cu16	Cu	2.043417	0.401340	-0.003231
Cu17	Cu	1.543452	0.098656	-0.503243
Cu18	Cu	2.043452	0.598656	-0.003243
O19	O	1.573801	-0.083422	-0.686522
O20	O	2.073801	0.416578	-0.186522
C21	C	1.312485	-0.000001	-0.461645
C22	C	1.812485	0.499999	0.038355
C23	C	1.170471	-0.000000	-0.428228
C24	C	1.670471	0.500000	0.071772
N25	N	1.543402	-0.237441	-0.503223
N26	N	2.043402	0.262559	-0.003223
C27	C	1.116821	0.000002	-0.520498
C28	C	1.616821	0.500002	-0.020498
C29	C	0.970043	0.000003	-0.485962
C30	C	1.470043	0.500003	0.014038
C31	C	1.475733	-0.710062	-0.570916
C32	C	1.975733	-0.210062	-0.070916
C33	C	1.611203	-0.710034	-0.435568
C34	C	2.111203	-0.210034	0.064432
C35	C	1.611187	-0.605016	-0.435561
C36	C	2.111187	-0.105016	0.064439
C37	C	1.543445	-0.552516	-0.503234
C38	C	2.043445	-0.052516	-0.003234
C39	C	1.475718	-0.605034	-0.570914
C40	C	1.975718	-0.105034	-0.070914
C41	C	1.678924	-0.552489	-0.367892
C42	C	2.178924	-0.052489	0.132108
C43	C	1.678912	-0.447465	-0.367884
C44	C	2.178912	0.052535	0.132116
C45	C	1.611162	-0.394963	-0.435550
C46	C	2.111162	0.105037	0.064450
C47	C	1.543431	-0.447488	-0.503232
C48	C	2.043431	0.052512	-0.003232
C49	C	1.475689	-0.394988	-0.570905
C50	C	1.975689	0.105012	-0.070905
C51	C	1.407950	-0.447511	-0.638581
C52	C	1.907950	0.052489	-0.138581
C53	C	1.407968	-0.552532	-0.638581
C54	C	1.907968	-0.052532	-0.138581
C55	C	1.611144	-0.289941	-0.435550
C56	C	2.111144	0.210059	0.064450
C57	C	1.475675	-0.289960	-0.570903
C58	C	1.975675	0.210040	-0.070903
C59	C	1.774384	-0.000001	-0.544828
C60	C	2.274384	0.499999	-0.044828
C61	C	1.916398	0.000005	-0.578245
C62	C	2.416398	0.500005	-0.078245
C63	C	1.501843	-0.000004	-0.272287
C64	C	2.001843	0.499996	0.227713
C65	C	1.468426	-0.000000	-0.130273
C66	C	1.968426	0.500000	0.369727
N67	N	1.543475	0.237438	-0.503243
N68	N	2.043475	0.737438	-0.003243
C69	C	1.585026	0.000003	-0.734187
C70	C	2.085026	0.500003	-0.234187
C71	C	1.618443	0.000006	-0.876200
C72	C	2.118443	0.500006	-0.376200
C73	C	1.560695	0.000001	-0.076624
C74	C	2.060695	0.500001	0.423376
C75	C	1.526160	0.000005	0.070155
C76	C	2.026160	0.500005	0.570155
H77	H	1.179555	-0.000001	-0.625061
H78	H	1.679555	0.499999	-0.125061
H79	H	1.107738	0.000024	-0.323666
H80	H	1.607738	0.500024	0.176334
Cl81	Cl	0.873202	-0.000007	-0.324513
Cl82	Cl	1.373202	0.499993	0.175487
Cl83	Cl	1.390500	-0.223968	-0.655976
Cl84	Cl	1.890500	0.276032	-0.155976
H85	H	1.421590	0.000012	0.132884
H86	H	1.921590	0.500012	0.632884
Cl87	Cl	1.013235	-0.000006	-0.739696
Cl88	Cl	1.513235	0.499994	-0.239696
Cl89	Cl	1.322823	-0.618563	-0.723657
Cl90	Cl	1.822823	-0.118563	-0.223657
H91	H	1.420576	-0.752829	-0.626012
H92	H	1.920576	-0.252829	-0.126012
Cl93	Cl	1.764092	-0.618487	-0.282831
Cl94	Cl	2.264092	-0.118487	0.217169
Cl95	Cl	1.322802	-0.381500	-0.723662
Cl96	Cl	1.822802	0.118500	-0.223662
Cl97	Cl	1.696371	-0.776031	-0.350506
Cl98	Cl	2.196371	-0.276031	0.149494
Cl99	Cl	1.779893	0.000010	0.026962
Cl100	Cl	2.279893	0.500010	0.526962
Cl101	Cl	1.764061	-0.381443	-0.282804
Cl102	Cl	2.264061	0.118557	0.217196
Cl103	Cl	1.722138	0.000006	-0.173469
Cl104	Cl	2.222138	0.500006	0.326531
H105	H	1.363863	0.000007	-0.067540
H106	H	1.863863	0.500007	0.432460
H107	H	1.666303	-0.247182	-0.380457
H108	H	2.166303	0.252818	0.119543
