data_functionalizedCrystal
_audit_creation_method	'MofGen! by Chris Wilmer'
_symmetry_space_group_name_H-M	'P1'
_symmetry_Int_Tables_number	1
_symmetry_cell_setting	triclinic
loop_
_symmetry_equiv_pos_as_xyz
  x,y,z
_cell_length_a	11.792241
_cell_length_b	15.995350
_cell_length_c	10.268362
_cell_angle_alpha	89.996947
_cell_angle_beta	89.999626
_cell_angle_gamma	83.842895
loop_
_atom_site_label
_atom_site_type_symbol
_atom_site_fract_x
_atom_site_fract_y
_atom_site_fract_z
O1	O	1.505952	0.114763	-0.108167
O2	O	1.839285	0.448097	0.225166
O3	O	2.172618	0.781430	0.558500
O4	O	1.175512	0.126591	-0.108197
O5	O	1.508845	0.459924	0.225137
O6	O	1.842178	0.793258	0.558470
O7	O	1.349764	-0.001170	-0.108180
O8	O	1.683098	0.332164	0.225154
O9	O	2.016431	0.665497	0.558487
O10	O	1.331699	0.242524	-0.108184
O11	O	1.665032	0.575857	0.225150
O12	O	1.998366	0.909190	0.558483
O13	O	1.349749	-0.001175	0.108421
O14	O	1.683083	0.332158	0.441754
O15	O	2.016416	0.665492	0.775088
O16	O	1.175497	0.126586	0.108404
O17	O	1.508830	0.459919	0.441737
O18	O	1.842163	0.793252	0.775071
O19	O	1.505936	0.114758	0.108434
O20	O	1.839270	0.448091	0.441767
O21	O	2.172603	0.781425	0.775100
Cu22	Cu	1.340715	0.120671	0.128196
Cu23	Cu	1.674049	0.454005	0.461530
Cu24	Cu	2.007382	0.787338	0.794863
Cu25	Cu	1.340733	0.120678	-0.127959
Cu26	Cu	1.674066	0.454011	0.205374
Cu27	Cu	2.007400	0.787344	0.538708
O28	O	1.331684	0.242518	0.108417
O29	O	1.665017	0.575852	0.441750
O30	O	1.998350	0.909185	0.775084
C31	C	1.133220	0.125845	0.000100
C32	C	1.466553	0.459179	0.333433
C33	C	1.799886	0.792512	0.666767
C34	C	1.007224	0.123621	0.000088
C35	C	1.340558	0.456955	0.333422
C36	C	1.673891	0.790288	0.666755
C37	C	1.349010	-0.032370	0.000118
C38	C	1.682343	0.300963	0.333451
C39	C	2.015677	0.634296	0.666785
C40	C	1.346771	-0.125331	0.000111
C41	C	1.680104	0.208002	0.333444
C42	C	2.013438	0.541336	0.666777
C43	C	0.776546	0.119532	0.000126
C44	C	1.109880	0.452866	0.333459
C45	C	1.443213	0.786199	0.666793
C46	C	0.904913	0.121804	0.000105
C47	C	1.238246	0.455138	0.333439
C48	C	1.571579	0.788471	0.666772
C49	C	1.338730	-0.463115	0.000114
C50	C	1.672063	-0.129782	0.333448
C51	C	2.005397	0.203552	0.666781
C52	C	1.214630	-0.416244	-0.000383
C53	C	1.547964	-0.082911	0.332951
C54	C	1.881297	0.250422	0.666284
C55	C	1.216870	-0.319544	0.000106
C56	C	1.550203	0.013790	0.333439
C57	C	1.883537	0.347123	0.666772
C58	C	1.342718	-0.295536	0.000112
C59	C	1.676052	0.037797	0.333445
C60	C	2.009385	0.371130	0.666778
C61	C	1.403920	-0.336339	0.123804
C62	C	1.737253	-0.003006	0.457138
C63	C	2.070587	0.330328	0.790471
C64	C	1.400803	-0.432989	0.123908
C65	C	1.734136	-0.099656	0.457241
C66	C	2.067469	0.233678	0.790574
C67	C	1.403383	-0.433329	-0.122408
C68	C	1.736717	-0.099996	0.210926
C69	C	2.070050	0.233337	0.544259
C70	C	1.403354	-0.336384	-0.124042
C71	C	1.736687	-0.003051	0.209291
C72	C	2.070021	0.330283	0.542624
C73	C	1.344979	-0.200829	0.000115
C74	C	1.678313	0.132505	0.333448
C75	C	2.011646	0.465838	0.666781
C76	C	1.336473	-0.557823	0.000120
C77	C	1.669806	-0.224490	0.333453
C78	C	2.003139	0.108844	0.666787
C79	C	1.548229	0.115504	0.000134
C80	C	1.881562	0.448837	0.333468
C81	C	2.214895	0.782170	0.666801
C82	C	1.674224	0.117727	0.000137
C83	C	2.007557	0.451061	0.333471
C84	C	2.340891	0.784394	0.666804
C85	C	1.332438	0.273719	0.000116
C86	C	1.665772	0.607053	0.333450
C87	C	1.999105	0.940386	0.666783
C88	C	1.334677	0.366680	0.000115
C89	C	1.668011	0.700013	0.333449
C90	C	2.001344	1.033346	0.666782
N91	N	1.340711	0.120666	0.308362
N92	N	1.674044	0.454000	0.641695
N93	N	2.007378	0.787333	0.975029
N94	N	1.340746	0.120676	-0.308125
N95	N	1.674080	0.454009	0.025208
N96	N	2.007413	0.787343	0.358542
C97	C	1.340727	0.120676	0.574033
C98	C	1.674061	0.454009	0.907366
C99	C	2.007394	0.787343	1.240699
C100	C	1.340715	0.120673	0.426195
C101	C	1.674048	0.454006	0.759528
C102	C	2.007381	0.787340	1.092861
H103	H	1.168761	-0.291338	-0.088562
H104	H	1.502094	0.041995	0.244771
H105	H	1.835427	0.375329	0.578104
N106	N	1.349650	-0.460776	-0.246593
N107	N	1.682983	-0.127443	0.086741
N108	N	2.016316	0.205891	0.420074
H109	H	1.322243	-0.409682	-0.300326
H110	H	1.655576	-0.076349	0.033007
H111	H	1.988910	0.256984	0.366341
H112	H	1.407902	-0.498249	-0.297863
H113	H	1.741236	-0.164916	0.035470
H114	H	2.074569	0.168418	0.368803
H115	H	1.491914	-0.464823	0.129524
H116	H	1.825248	-0.131490	0.462857
H117	H	2.158581	0.201843	0.796191
H118	H	1.496377	-0.321794	0.128409
H119	H	1.829711	0.011540	0.461742
H120	H	2.163044	0.344873	0.795075
H121	H	1.165035	-0.434999	-0.089086
H122	H	1.498368	-0.101666	0.244248
H123	H	1.831702	0.231668	0.577581
N124	N	1.344179	-0.300480	-0.245259
N125	N	1.677512	0.032853	0.088075
N126	N	2.010845	0.366186	0.421408
H127	H	1.383560	-0.326986	-0.324787
H128	H	1.716893	0.006347	0.008546
H129	H	2.050226	0.339680	0.341879
H130	H	1.261933	-0.312746	-0.244360
H131	H	1.595267	0.020588	0.088973
H132	H	1.928600	0.353921	0.422307
H133	H	1.495129	-0.320605	-0.131506
H134	H	1.828462	0.012728	0.201827
H135	H	2.161795	0.346061	0.535161
N136	N	1.524586	-0.474839	-0.123514
N137	N	1.857919	-0.141505	0.209819
N138	N	2.191253	0.191828	0.543153
H139	H	1.524186	-0.537912	-0.126895
H140	H	1.857519	-0.204579	0.206438
H141	H	2.190853	0.128755	0.539772
H142	H	1.565626	-0.455395	-0.202441
H143	H	1.898959	-0.122061	0.130893
H144	H	2.232293	0.211272	0.464226
N145	N	1.149202	-0.442490	0.116445
N146	N	1.482535	-0.109157	0.449778
N147	N	1.815868	0.224177	0.783111
H148	H	1.199599	-0.484609	0.169691
H149	H	1.532932	-0.151276	0.503024
H150	H	1.866266	0.182057	0.836357
H151	H	1.124450	-0.391494	0.171576
H152	H	1.457784	-0.058160	0.504909
H153	H	1.791117	0.275173	0.838243
H154	H	1.168425	-0.291901	0.088916
H155	H	1.501758	0.041432	0.422250
H156	H	1.835092	0.374766	0.755583
N157	N	1.347591	-0.299018	0.245731
N158	N	1.680924	0.034315	0.579064
N159	N	2.014258	0.367649	0.912398
H160	H	1.387573	-0.325678	0.324794
H161	H	1.720907	0.007655	0.658128
H162	H	2.054240	0.340988	0.991461
H163	H	1.352636	-0.236390	0.247022
H164	H	1.685969	0.096943	0.580355
H165	H	2.019302	0.430277	0.913688
N166	N	1.341673	-0.457512	0.246374
N167	N	1.675006	-0.124178	0.579707
N168	N	2.008339	0.209155	0.913040
H169	H	1.317872	-0.405560	0.299782
H170	H	1.651205	-0.072227	0.633116
H171	H	1.984539	0.261107	0.966449
H172	H	1.272014	-0.485780	0.222297
H173	H	1.605347	-0.152447	0.555630
H174	H	1.938680	0.180887	0.888964
