data_functionalizedCrystal
_audit_creation_method	'MofGen! by Chris Wilmer'
_symmetry_space_group_name_H-M	'P1'
_symmetry_Int_Tables_number	1
_symmetry_cell_setting	triclinic
loop_
_symmetry_equiv_pos_as_xyz
  x,y,z
_cell_length_a	12.594517
_cell_length_b	25.639239
_cell_length_c	12.594509
_cell_angle_alpha	89.965872
_cell_angle_beta	89.978673
_cell_angle_gamma	90.038486
loop_
_atom_site_label
_atom_site_type_symbol
_atom_site_fract_x
_atom_site_fract_y
_atom_site_fract_z
Zn1	Zn	1.627100	-0.208138	-0.601816
Zn2	Zn	1.626920	-0.295580	-0.423819
Zn3	Zn	1.449103	-0.208160	-0.423845
Zn4	Zn	1.449015	-0.295544	-0.601750
O5	O	1.538035	-0.251855	-0.512808
O6	O	1.776022	-0.219743	-0.578222
O7	O	1.603294	-0.284008	-0.274877
O8	O	1.472827	-0.134992	-0.447492
O9	O	1.775890	-0.283987	-0.447448
O10	O	1.603600	-0.134976	-0.578247
O11	O	1.472653	-0.219781	-0.274896
O12	O	1.300146	-0.219746	-0.447427
O13	O	1.472677	-0.283925	-0.750704
O14	O	1.300081	-0.283946	-0.578133
O15	O	1.603515	-0.219708	-0.750753
O16	O	1.603209	-0.368740	-0.447384
O17	O	1.472503	-0.368714	-0.578108
C18	C	1.261494	-0.251845	-0.512776
C19	C	1.143188	-0.251853	-0.512788
C20	C	1.073939	-0.216887	-0.441833
C21	C	1.003090	-0.264579	-0.415643
C22	C	1.003239	-0.204184	-0.538996
C23	C	1.073897	-0.299570	-0.486547
C24	C	1.074052	-0.239144	-0.609946
C25	C	1.003234	-0.286869	-0.583793
C26	C	1.537856	-0.387698	-0.512759
C27	C	1.537876	-0.445812	-0.512774
C28	C	1.606271	-0.806176	-0.444855
C29	C	1.606312	-0.860781	-0.444870
O30	O	1.664278	-0.889019	-0.387070
N31	N	1.538222	-0.888094	-0.512878
C32	C	1.470093	-0.860801	-0.580885
O33	O	1.412182	-0.889048	-0.638733
C34	C	1.470058	-0.806198	-0.580875
C35	C	1.538145	-0.778887	-0.512854
C36	C	1.674353	-0.778865	-0.376841
C37	C	1.674310	-0.724265	-0.376826
C38	C	1.606185	-0.696975	-0.444825
C39	C	1.538102	-0.724286	-0.512839
C40	C	1.401936	-0.778905	-0.648886
C41	C	1.401907	-0.724298	-0.648871
C42	C	1.469994	-0.696987	-0.580850
C43	C	1.469934	-0.642396	-0.580822
N44	N	1.538024	-0.615083	-0.512814
C45	C	1.606150	-0.642372	-0.444815
C46	C	1.470174	-0.975472	-0.580901
C47	C	1.470202	-1.030074	-0.580906
C48	C	1.606423	-1.030050	-0.444892
C49	C	1.606388	-0.975447	-0.444883
C50	C	1.538264	-0.948158	-0.512892
C51	C	1.606054	-0.527707	-0.444787
C52	C	1.606002	-0.473102	-0.444775
C53	C	1.469786	-0.473131	-0.580792
C54	C	1.469833	-0.527731	-0.580801
C55	C	1.537976	-0.555018	-0.512795
O56	O	1.412001	-0.614124	-0.638596
O57	O	1.664062	-0.614119	-0.386986
C58	C	1.815655	-0.251866	-0.512840
C59	C	1.933961	-0.251871	-0.512853
C60	C	1.538106	-0.251810	-0.790429
C61	C	1.538136	-0.251790	-0.908734
C62	C	1.538243	-0.115482	-0.512880
C63	C	1.538332	-0.057368	-0.512911
C64	C	1.466996	-0.286698	-0.977961
C65	C	1.564106	-0.299473	-1.048748
C66	C	1.441102	-0.238984	-1.048746
C67	C	1.635297	-0.264590	-0.977964
C68	C	1.512227	-0.204079	-0.977955
C69	C	1.609405	-0.216836	-1.048711
C70	C	1.538025	-0.251863	-0.236267
C71	C	1.538201	-0.251736	-0.117962
H72	H	0.972385	-0.316480	-0.643825
N73	N	0.961802	-0.278838	-0.306850
H74	H	0.987009	-0.252233	-0.253376
H75	H	0.881628	-0.279373	-0.308108
H76	H	1.105245	-0.228368	-0.692058
N77	N	1.387368	-0.325857	-0.936800
H78	H	1.407108	-0.361868	-0.962552
H79	H	1.387465	-0.325320	-0.856618
N80	N	1.114826	-0.352996	-0.457095
H81	H	1.195017	-0.352655	-0.457221
H82	H	1.088308	-0.362649	-0.383986
N83	N	0.962115	-0.150779	-0.568329
H84	H	0.987834	-0.124391	-0.514653
H85	H	0.989043	-0.140946	-0.641188
H86	H	1.661446	-0.450867	-0.389381
N87	N	1.689216	-0.177707	-1.089629
H88	H	1.762474	-0.187429	-1.063748
H89	H	1.688266	-0.177710	-1.169813
N90	N	1.328430	-0.694863	-0.722221
H91	H	1.344927	-0.704330	-0.798287
H92	H	1.252426	-0.704422	-0.705533
H93	H	1.729835	-0.801079	-0.321468
H94	H	1.414749	-1.052306	-0.636285
H95	H	1.414316	-0.450903	-0.636153
H96	H	1.586055	-0.339798	-1.079845
N97	N	1.679549	-0.557133	-0.371441
H98	H	1.722665	-0.531540	-0.328356
H99	H	1.636270	-0.579827	-0.322146
N100	N	1.747763	-0.694812	-0.303477
H101	H	1.790927	-0.720392	-0.260414
H102	H	1.796979	-0.672122	-0.346855
H103	H	1.661831	-0.953213	-0.389495
N104	N	1.328493	-0.808353	-0.722246
H105	H	1.285340	-0.782772	-0.765317
H106	H	1.371803	-0.830970	-0.771553
N107	N	1.332374	-0.224663	-1.089938
H108	H	1.278675	-0.251077	-1.064201
H109	H	1.312319	-0.188892	-1.063071
N110	N	1.396684	-0.946041	-0.654250
H111	H	1.353558	-0.971633	-0.697328
H112	H	1.347434	-0.923425	-0.610874
H113	H	1.661898	-1.052279	-0.389527
N114	N	1.396389	-0.557189	-0.654159
H115	H	1.439636	-0.579801	-0.703533
H116	H	1.347121	-0.579856	-0.610791
N117	N	1.115074	-0.177756	-0.362262
H118	H	1.089259	-0.187435	-0.288913
H119	H	1.195257	-0.177809	-0.363373
H120	H	1.717409	-0.275445	-0.947002
N121	N	1.483119	-0.150682	-0.936715
H122	H	1.409741	-0.141060	-0.962412
H123	H	1.484061	-0.151063	-0.856534
