data_functionalizedCrystal
_audit_creation_method	'MofGen! by Chris Wilmer'
_symmetry_space_group_name_H-M	'P1'
_symmetry_Int_Tables_number	1
_symmetry_cell_setting	triclinic
loop_
_symmetry_equiv_pos_as_xyz
  x,y,z
_cell_length_a	12.827893
_cell_length_b	17.077402
_cell_length_c	17.077396
_cell_angle_alpha	90.029784
_cell_angle_beta	90.019531
_cell_angle_gamma	90.021092
loop_
_atom_site_label
_atom_site_type_symbol
_atom_site_fract_x
_atom_site_fract_y
_atom_site_fract_z
Zn1	Zn	-1.597598	0.312546	-0.443836
Zn2	Zn	-1.097598	0.812546	0.056164
Zn3	Zn	-1.597474	0.443820	-0.312567
Zn4	Zn	-1.097474	0.943820	0.187433
Zn5	Zn	-1.422845	0.312569	-0.312584
Zn6	Zn	-0.922845	0.812569	0.187416
Zn7	Zn	-1.422802	0.443769	-0.443791
Zn8	Zn	-0.922802	0.943769	0.056209
O9	O	-1.510180	0.378176	-0.378195
O10	O	-1.010180	0.878176	0.121805
O11	O	-1.743818	0.329971	-0.426435
O12	O	-1.243818	0.829971	0.073565
O13	O	-1.574275	0.426441	-0.202722
O14	O	-1.074275	0.926441	0.297278
O15	O	-1.446096	0.202719	-0.330021
O16	O	-0.946096	0.702719	0.169979
O17	O	-1.743727	0.426418	-0.329992
O18	O	-1.243727	0.926418	0.170008
O19	O	-1.574486	0.202702	-0.426451
O20	O	-1.074486	0.702702	0.073549
O21	O	-1.445976	0.330010	-0.202735
O22	O	-0.945976	0.830010	0.297265
O23	O	-1.276603	0.329961	-0.329977
O24	O	-0.776603	0.829961	0.170023
O25	O	-1.446023	0.426331	-0.553644
O26	O	-0.946023	0.926331	-0.053644
O27	O	-1.276572	0.426353	-0.426374
O28	O	-0.776572	0.926353	0.073626
O29	O	-1.574445	0.329922	-0.553677
O30	O	-1.074445	0.829922	-0.053677
O31	O	-1.574234	0.553661	-0.329948
O32	O	-1.074234	1.053661	0.170052
O33	O	-1.445903	0.553623	-0.426358
O34	O	-0.945903	1.053623	0.073642
C35	C	-1.238670	0.378155	-0.378173
C36	C	-0.738670	0.878155	0.121827
C37	C	-1.122517	0.378164	-0.378182
C38	C	-0.622517	0.878164	0.121818
C39	C	-0.950643	0.425824	-0.330405
C40	C	-0.450643	0.925824	0.169595
C41	C	-1.070693	0.425815	-0.330395
C42	C	-0.570693	0.925815	0.169605
C43	C	-1.510079	0.582124	-0.378163
C44	C	-1.010079	1.082124	0.121837
C45	C	-1.510131	0.669374	-0.378176
C46	C	-1.010131	1.169374	0.121824
C47	C	-1.510243	0.378118	-0.582939
C48	C	-1.010243	0.878118	-0.082939
C49	C	-1.510270	0.378094	-0.670189
C50	C	-1.010270	0.878094	-0.170189
C51	C	-0.782750	0.378192	-0.378211
C52	C	-0.282750	0.878192	0.121789
C53	C	-0.898903	0.378182	-0.378201
C54	C	-0.398903	0.878182	0.121799
C55	C	-1.510309	0.173432	-0.378243
C56	C	-1.010309	0.673432	0.121757
C57	C	-1.510365	0.086182	-0.378264
C58	C	-1.010365	0.586182	0.121736
C59	C	-1.577022	0.710357	-0.328030
C60	C	-1.077022	1.210357	0.171970
C61	C	-1.577073	0.792338	-0.328050
C62	C	-1.077073	1.292338	0.171950
C63	C	-1.510227	0.833333	-0.378213
C64	C	-1.010227	1.333333	0.121787
C65	C	-1.443334	0.792344	-0.428365
C66	C	-0.943334	1.292344	0.071635
C67	C	-1.443289	0.710365	-0.428348
C68	C	-0.943289	1.210365	0.071652
C69	C	-1.443431	0.963214	-0.428395
C70	C	-0.943431	1.463214	0.071605
C71	C	-1.443474	1.045198	-0.428410
C72	C	-0.943474	1.545198	0.071590
C73	C	-1.577215	1.045187	-0.328096
C74	C	-1.077215	1.545187	0.171904
C75	C	-1.577170	0.963208	-0.328079
C76	C	-1.077170	1.463208	0.171921
C77	C	-1.510275	0.922224	-0.378231
C78	C	-1.010275	1.422224	0.121769
C79	C	-1.577142	0.327889	-0.711198
C80	C	-1.077142	0.827889	-0.211198
C81	C	-1.577154	0.327863	-0.793178
C82	C	-1.077154	0.827863	-0.293178
C83	C	-1.510300	0.378046	-0.834148
C84	C	-1.010300	0.878046	-0.334148
C85	C	-1.443420	0.428253	-0.793134
C86	C	-0.943420	0.928253	-0.293134
C87	C	-1.443403	0.428274	-0.711155
C88	C	-0.943403	0.928274	-0.211155
C89	C	-1.443463	0.428205	-0.964004
C90	C	-0.943463	0.928205	-0.464004
C91	C	-1.443481	0.428185	-1.045989
C92	C	-0.943481	0.928185	-0.545989
C93	C	-1.577213	0.327794	-1.046027
C94	C	-1.077213	0.827794	-0.546027
C95	C	-1.577196	0.327816	-0.964048
C96	C	-1.077196	0.827816	-0.464048
C97	C	-1.510318	0.378024	-0.923039
C98	C	-1.010318	0.878024	-0.423039
C99	C	-1.510177	0.378177	-0.174247
C100	C	-1.010177	0.878177	0.325753
C101	C	-1.510352	0.377980	-0.086997
C102	C	-1.010352	0.877980	0.413003
H103	H	-0.906063	0.466615	-0.289490
H104	H	-0.406063	0.966615	0.210510
H105	H	-1.115189	0.466607	-0.289479
H106	H	-0.615189	0.966607	0.210521
H107	H	-1.388962	0.929847	-0.469236
H108	H	-0.888962	1.429847	0.030764
H109	H	-1.078028	0.337377	-0.419107
H110	H	-0.578028	0.837377	0.080893
C111	C	-1.369841	0.483505	-0.666045
C112	C	-0.869841	0.983505	-0.166045
N113	N	-1.314430	0.525104	-0.632070
N114	N	-0.814430	1.025104	-0.132070
H115	H	-1.631686	1.078560	-0.287264
H116	H	-1.131686	1.578560	0.212736
C117	C	-1.650738	0.272610	-0.918983
C118	C	-1.150738	0.772610	-0.418983
N119	N	-1.706126	0.231025	-0.885039
N120	N	-1.206126	0.731025	-0.385039
H121	H	-1.388987	0.469078	-0.930617
H122	H	-0.888987	0.969078	-0.430617
C123	C	-1.369800	0.837441	-0.483542
C124	C	-0.869800	1.337441	0.016458
N125	N	-1.314408	0.871408	-0.525100
N126	N	-0.814408	1.371408	-0.025100
H127	H	-1.388982	0.469110	-0.826498
H128	H	-0.888982	0.969110	-0.326498
H129	H	-0.943483	0.337384	-0.419110
H130	H	-0.443483	0.837384	0.080890
C131	C	-1.369705	0.665283	-0.483514
C132	C	-0.869705	1.165283	0.016486
N133	N	-1.314282	0.631329	-0.525068
N134	N	-0.814282	1.131329	-0.025068
C135	C	-1.650779	0.272564	-1.091139
C136	C	-1.150779	0.772564	-0.591139
N137	N	-1.706190	0.230969	-1.125120
N138	N	-1.206190	0.730969	-0.625120
H139	H	-1.631586	0.287026	-0.677846
H140	H	-1.131586	0.787026	-0.177846
H141	H	-1.631450	0.676984	-0.287178
H142	H	-1.131450	1.176984	0.212822
C143	C	-1.650686	0.918115	-0.272885
C144	C	-1.150686	1.418115	0.227115
N145	N	-1.706057	0.884150	-0.231309
N146	N	-1.206057	1.384150	0.268691
H147	H	-1.631610	0.286983	-0.826564
H148	H	-1.131610	0.786983	-0.326564
C149	C	-1.369952	1.090291	-0.483601
C150	C	-0.869952	1.590291	0.016399
N151	N	-1.314578	1.124256	-0.525173
N152	N	-0.814578	1.624256	-0.025173
C153	C	-1.369931	0.483384	-1.091054
C154	C	-0.869931	0.983384	-0.591054
N155	N	-1.314530	0.524960	-1.124998
N156	N	-0.814530	1.024960	-0.624998
H157	H	-1.631541	0.825703	-0.287215
H158	H	-1.131541	1.325703	0.212785
