data_functionalizedCrystal
_audit_creation_method	'MofGen! by Chris Wilmer'
_symmetry_space_group_name_H-M	'P1'
_symmetry_Int_Tables_number	1
_symmetry_cell_setting	triclinic
loop_
_symmetry_equiv_pos_as_xyz
  x,y,z
_cell_length_a	10.723024
_cell_length_b	10.723023
_cell_length_c	15.186229
_cell_angle_alpha	89.997261
_cell_angle_beta	89.996943
_cell_angle_gamma	84.467709
loop_
_atom_site_label
_atom_site_type_symbol
_atom_site_fract_x
_atom_site_fract_y
_atom_site_fract_z
O1	O	1.657186	0.175026	-0.073221
O2	O	2.157186	0.675026	0.426779
O3	O	1.294034	0.191779	-0.073224
O4	O	1.794034	0.691779	0.426776
O5	O	1.483987	0.001826	-0.073219
O6	O	1.983987	0.501826	0.426781
O7	O	1.467233	0.364979	-0.073226
O8	O	1.967233	0.864979	0.426774
O9	O	1.483974	0.001823	0.073239
O10	O	1.983974	0.501823	0.573239
O11	O	1.294021	0.191776	0.073234
O12	O	1.794021	0.691776	0.573234
O13	O	1.657173	0.175023	0.073236
O14	O	2.157173	0.675023	0.573236
Zn15	Zn	1.475595	0.183399	0.096488
Zn16	Zn	1.975595	0.683399	0.596488
Zn17	Zn	1.475612	0.183403	-0.096475
Zn18	Zn	1.975612	0.683403	0.403525
O19	O	1.467220	0.364976	0.073231
O20	O	1.967220	0.864976	0.573231
C21	C	1.247528	0.190558	0.000005
C22	C	1.747528	0.690558	0.500005
C23	C	1.108973	0.186911	0.000004
C24	C	1.608973	0.686911	0.500004
C25	C	0.917217	0.073603	0.000004
C26	C	1.417217	0.573603	0.500004
C27	C	1.060420	0.077371	0.000005
C28	C	1.560420	0.577371	0.500005
C29	C	1.482762	-0.044675	0.000009
C30	C	1.982762	0.455325	0.500009
C31	C	1.479114	-0.183229	0.000006
C32	C	1.979114	0.316771	0.500006
C33	C	1.477495	-0.244994	-0.075864
C34	C	1.977495	0.255006	0.424136
C35	C	1.473725	-0.388197	-0.075869
C36	C	1.973725	0.111803	0.424131
C37	C	1.703679	0.176243	0.000006
C38	C	2.203679	0.676243	0.500006
C39	C	1.842234	0.179891	0.000002
C40	C	2.342234	0.679891	0.500002
C41	C	1.468445	0.411477	0.000002
C42	C	1.968445	0.911477	0.500002
C43	C	1.472093	0.550031	-0.000001
C44	C	1.972093	1.050031	0.499999
N45	N	1.475593	0.183396	0.228181
N46	N	1.975593	0.683396	0.728181
N47	N	1.475624	0.183396	-0.228168
N48	N	1.975624	0.683396	0.271832
C49	C	1.559733	0.099314	0.453906
C50	C	2.059733	0.599314	0.953906
C51	C	1.559737	0.099311	0.546096
C52	C	2.059737	0.599311	1.046096
C53	C	1.391475	0.267482	0.546100
C54	C	1.891475	0.767482	1.046100
C55	C	1.391466	0.267478	0.453912
C56	C	1.891466	0.767478	0.953912
C57	C	1.475602	0.183395	0.407818
C58	C	1.975602	0.683395	0.907818
C59	C	1.475615	0.183397	0.592195
C60	C	1.975615	0.683397	1.092195
C61	C	1.475618	0.183394	0.692151
C62	C	1.975618	0.683394	1.192151
C63	C	1.475597	0.183396	0.307855
C64	C	1.975597	0.683396	0.807855
H65	H	1.124853	-0.013619	0.000002
H66	H	1.624853	0.486381	0.500002
Br67	Br	1.001596	0.338583	-0.000011
Br68	Br	1.501596	0.838583	0.499989
H69	H	1.322950	0.335948	0.416385
H70	H	1.822950	0.835948	0.916385
H71	H	1.478894	-0.191854	-0.140816
H72	H	1.978894	0.308146	0.359184
Br73	Br	0.847525	-0.082722	0.000017
Br74	Br	1.347525	0.417278	0.500017
H75	H	0.884055	0.273677	0.000005
H76	H	1.384055	0.773677	0.500005
H77	H	1.322974	0.335943	0.583640
H78	H	1.822974	0.835943	1.083640
Br79	Br	1.673915	-0.014801	0.391352
Br80	Br	2.173915	0.485199	0.891352
Br81	Br	1.471420	-0.476719	-0.184139
Br82	Br	1.971420	0.023281	0.315861
H83	H	1.477702	-0.236367	0.064958
H84	H	1.977702	0.263633	0.564958
Br85	Br	1.474428	-0.361458	0.108273
Br86	Br	1.974428	0.138542	0.608273
Br87	Br	1.673913	-0.014811	0.608643
Br88	Br	2.173913	0.485189	1.108643
