data_functionalizedCrystal
_audit_creation_method	'MofGen! by Chris Wilmer'
_symmetry_space_group_name_H-M	'P1'
_symmetry_Int_Tables_number	1
_symmetry_cell_setting	triclinic
loop_
_symmetry_equiv_pos_as_xyz
  x,y,z
_cell_length_a	14.908783
_cell_length_b	21.295417
_cell_length_c	14.909227
_cell_angle_alpha	86.670613
_cell_angle_beta	83.584164
_cell_angle_gamma	93.320338
loop_
_atom_site_label
_atom_site_type_symbol
_atom_site_fract_x
_atom_site_fract_y
_atom_site_fract_z
Zn1	Zn	1.413382	-0.169936	-0.591768
Zn2	Zn	1.404515	-0.281665	-0.440382
Zn3	Zn	1.253266	-0.182846	-0.431667
Zn4	Zn	1.261949	-0.281616	-0.582957
O5	O	1.333278	-0.229016	-0.511693
O6	O	1.538879	-0.179375	-0.579021
O7	O	1.377107	-0.273980	-0.312555
O8	O	1.274584	-0.093040	-0.452944
O9	O	1.532364	-0.261462	-0.467798
O10	O	1.392220	-0.083555	-0.570570
O11	O	1.265985	-0.201379	-0.306152
O12	O	1.127745	-0.201331	-0.444401
O13	O	1.289381	-0.261377	-0.710797
O14	O	1.134124	-0.273896	-0.555554
O15	O	1.400639	-0.179327	-0.717270
O16	O	1.385525	-0.369753	-0.459255
O17	O	1.280783	-0.369716	-0.564005
C18	C	1.098090	-0.239009	-0.498076
C19	C	0.997476	-0.243299	-0.492272
C20	C	0.815205	-0.165985	-0.597358
C21	C	0.720670	-0.170013	-0.591908
C22	C	0.713869	-0.255379	-0.475917
C23	C	0.808404	-0.251351	-0.481367
C24	C	0.859069	-0.206653	-0.542091
C25	C	0.953606	-0.202628	-0.547546
C26	C	0.946803	-0.287992	-0.431550
C27	C	0.852268	-0.292020	-0.426100
C28	C	1.333160	-0.392574	-0.511641
C29	C	1.333194	-0.462541	-0.511654
C30	C	1.394416	-0.490411	-0.572941
C31	C	1.394450	-0.556151	-0.572965
C32	C	1.333269	-0.594019	-0.511686
C33	C	1.272035	-0.566141	-0.450395
C34	C	1.271998	-0.500402	-0.450378
N35	N	1.321857	-0.700949	-0.432072
N36	N	1.321898	-0.763398	-0.432091
C37	C	1.333377	-0.792087	-0.511733
N38	N	1.344831	-0.755968	-0.591360
N39	N	1.344795	-0.693513	-0.591340
C40	C	1.333303	-0.665302	-0.511698
C41	C	1.394639	-0.891240	-0.573052
C42	C	1.394666	-0.956982	-0.573077
C43	C	1.272256	-0.966971	-0.450499
C44	C	1.272224	-0.901230	-0.450481
C45	C	1.333421	-0.863369	-0.511757
C46	C	1.569385	-0.218984	-0.525364
C47	C	1.669999	-0.214709	-0.531190
C48	C	1.346968	-0.218907	-0.747796
C49	C	1.352801	-0.214599	-0.848409
C50	C	1.333422	-0.064817	-0.511767
C51	C	1.333484	0.005155	-0.511799
C52	C	1.418942	-0.165812	-0.993590
C53	C	1.413466	-0.169857	-0.899055
C54	C	1.297611	-0.255299	-0.892305
C55	C	1.303087	-0.251254	-0.986839
C56	C	1.363754	-0.206509	-1.037479
C57	C	1.369226	-0.202461	-1.132015
C58	C	1.253376	-0.287905	-1.125263
C59	C	1.247899	-0.291950	-1.030728
C60	C	1.319694	-0.239038	-0.276512
C61	C	1.314035	-0.243161	-0.175910
H62	H	0.672601	-0.291763	-0.426469
C63	C	1.461739	-0.448767	-0.640341
N64	N	1.512449	-0.417399	-0.691105
C65	C	0.995061	-0.332731	-0.370754
N66	N	1.031410	-0.366429	-0.324965
C67	C	1.181166	-0.341165	-0.975014
N68	N	1.130897	-0.378233	-0.933051
H69	H	1.468331	-0.129373	-1.034820
H70	H	0.856458	-0.129592	-0.646806
C71	C	1.461944	-0.849590	-0.640467
N72	N	1.512636	-0.818221	-0.691247
C73	C	1.462023	-0.987638	-0.640497
N74	N	1.512761	-1.010729	-0.691276
H75	H	1.208428	-0.321037	-1.161006
C76	C	1.461805	-0.586815	-0.640384
N77	N	1.512539	-0.609909	-0.691163
H78	H	1.458406	-0.136719	-0.863325
H79	H	1.418620	-0.166024	-1.173244
H80	H	0.994856	-0.166234	-0.596991
C81	C	0.672424	-0.125276	-0.652709
N82	N	0.636085	-0.091578	-0.698508
C83	C	1.230884	-0.304516	-0.836586
N84	N	1.180624	-0.341585	-0.794617
C85	C	1.204869	-0.870572	-0.383065
N86	N	1.154129	-0.847481	-0.332289
H87	H	1.222220	-0.596977	-0.400503
H88	H	0.811004	-0.328409	-0.376658
H89	H	1.222436	-0.997802	-0.400610
C90	C	1.204642	-0.469744	-0.382958
N91	N	1.153908	-0.446652	-0.332176
