data_functionalizedCrystal
_audit_creation_method	'MofGen! by Chris Wilmer'
_symmetry_space_group_name_H-M	'P1'
_symmetry_Int_Tables_number	1
_symmetry_cell_setting	triclinic
loop_
_symmetry_equiv_pos_as_xyz
  x,y,z
_cell_length_a	14.044209
_cell_length_b	14.044190
_cell_length_c	9.198806
_cell_angle_alpha	90.008003
_cell_angle_beta	89.998473
_cell_angle_gamma	93.189865
loop_
_atom_site_label
_atom_site_type_symbol
_atom_site_fract_x
_atom_site_fract_y
_atom_site_fract_z
O1	O	-1.277174	-0.230156	-0.120746
O2	O	-0.943840	0.103177	0.212587
O3	O	-0.610507	0.436511	0.545921
O4	O	-1.000502	-0.221852	-0.120786
O5	O	-0.667168	0.111481	0.212547
O6	O	-0.333835	0.444814	0.545880
O7	O	-1.134681	-0.087668	-0.120738
O8	O	-0.801348	0.245665	0.212595
O9	O	-0.468015	0.578999	0.545929
O10	O	-1.142994	-0.364340	-0.120794
O11	O	-0.809661	-0.031007	0.212539
O12	O	-0.476327	0.302326	0.545873
O13	O	-1.134670	-0.087667	0.121047
O14	O	-0.801336	0.245667	0.454380
O15	O	-0.468003	0.579000	0.787714
O16	O	-1.000490	-0.221851	0.120999
O17	O	-0.667157	0.111482	0.454332
O18	O	-0.333823	0.444816	0.787665
O19	O	-1.277162	-0.230155	0.121039
O20	O	-0.943829	0.103179	0.454372
O21	O	-0.610495	0.436512	0.787706
Cu22	Cu	-1.138825	-0.226003	0.143096
Cu23	Cu	-0.805492	0.107331	0.476429
Cu24	Cu	-0.472158	0.440664	0.809762
Cu25	Cu	-1.138839	-0.226004	-0.142843
Cu26	Cu	-0.805505	0.107329	0.190490
Cu27	Cu	-0.472172	0.440662	0.523824
O28	O	-1.142982	-0.364339	0.120991
O29	O	-0.809649	-0.031006	0.454324
O30	O	-0.476316	0.302328	0.787658
C31	C	-0.964874	-0.218216	0.000101
C32	C	-0.631541	0.115117	0.333435
C33	C	-0.298207	0.448450	0.666768
C34	C	-0.858731	-0.207373	0.000087
C35	C	-0.525398	0.125961	0.333421
C36	C	-0.192064	0.459294	0.666754
C37	C	-0.664393	-0.187548	0.000117
C38	C	-0.331059	0.145785	0.333450
C39	C	0.002274	0.479119	0.666783
C40	C	-0.613265	-0.264463	0.000106
C41	C	-0.279931	0.068870	0.333440
C42	C	0.053402	0.402204	0.666773
C43	C	-0.505128	-0.253432	0.000123
C44	C	-0.171795	0.079901	0.333456
C45	C	0.161538	0.413235	0.666790
C46	C	-0.772539	-0.198577	0.000100
C47	C	-0.439206	0.134756	0.333434
C48	C	-0.105872	0.468090	0.666767
C49	C	-0.312790	-0.233793	0.000144
C50	C	0.020544	0.099541	0.333477
C51	C	0.353877	0.432874	0.666811
C52	C	-0.418932	-0.244642	0.000136
C53	C	-0.085599	0.088691	0.333469
C54	C	0.247734	0.422024	0.666803
C55	C	-1.131039	-0.052045	0.000158
C56	C	-0.797706	0.281288	0.333491
C57	C	-0.464372	0.614621	0.666825
C58	C	-1.120192	0.054098	0.000169
C59	C	-0.786858	0.387431	0.333503
C60	C	-0.453525	0.720764	0.666836
C61	C	-1.146625	-0.399962	0.000091
C62	C	-0.813291	-0.066628	0.333425
C63	C	-0.479958	0.266705	0.666758
C64	C	-1.157472	-0.506105	0.000071
C65	C	-0.824139	-0.172771	0.333404
C66	C	-0.490805	0.160562	0.666737
C67	C	-1.177292	0.299557	0.000121
C68	C	-0.843959	0.632890	0.333454
C69	C	-0.510625	0.966223	0.666787
C70	C	-1.100376	0.248431	0.000119
C71	C	-0.767043	0.581764	0.333453
C72	C	-0.433709	0.915097	0.666786
C73	C	-1.111404	0.140294	0.000147
C74	C	-0.778071	0.473627	0.333480
C75	C	-0.444737	0.806960	0.666814
C76	C	-1.166265	0.407703	0.000093
C77	C	-0.832932	0.741037	0.333426
C78	C	-0.499599	1.074370	0.666760
N79	N	-1.138822	-0.226002	0.344210
N80	N	-0.805489	0.107332	0.677543
N81	N	-0.472156	0.440665	1.010876
N82	N	-1.138848	-0.225998	-0.343957
N83	N	-0.805515	0.107335	-0.010624
N84	N	-0.472182	0.440668	0.322710
C85	C	-1.195140	-0.169393	0.416427
C86	C	-0.861807	0.163941	0.749760
C87	C	-0.528473	0.497274	1.083094
C88	C	-1.195154	-0.169390	0.583839
C89	C	-0.861821	0.163943	0.917173
C90	C	-0.528488	0.497276	1.250506
H91	H	-1.026243	0.285873	0.000100
H92	H	-0.692910	0.619207	0.333434
H93	H	-0.359577	0.952540	0.666767
H94	H	-1.243374	-0.120929	0.645943
H95	H	-0.910041	0.212405	0.979276
H96	H	-0.576708	0.545738	1.312610
N97	N	-0.660224	-0.357466	0.000100
N98	N	-0.326890	-0.024133	0.333433
N99	N	0.006443	0.309200	0.666767
N100	N	-0.715016	-0.382267	0.102005
N101	N	-0.381683	-0.048934	0.435339
N102	N	-0.048350	0.284399	0.768672
H103	H	-0.748184	-0.447949	0.102000
H104	H	-0.414851	-0.114616	0.435333
H105	H	-0.081518	0.218717	0.768666
H106	H	-1.251419	0.262116	0.000146
H107	H	-0.918085	0.595449	0.333480
H108	H	-0.584752	0.928783	0.666813
N109	N	-1.078359	-0.286815	0.422114
N110	N	-0.745025	0.046518	0.755447
N111	N	-0.411692	0.379852	1.088780
N112	N	-1.087362	-0.375171	0.405217
N113	N	-0.754029	-0.041838	0.738550
N114	N	-0.420696	0.291496	1.071883
H115	H	-1.044659	-0.418124	0.460233
H116	H	-0.711325	-0.084790	0.793567
H117	H	-0.377992	0.248543	1.126900
N118	N	-0.617417	-0.094559	0.000146
N119	N	-0.284084	0.238774	0.333479
N120	N	0.049250	0.572107	0.666812
N121	N	-0.528365	-0.085620	0.000157
N122	N	-0.195032	0.247714	0.333490
N123	N	0.138301	0.581047	0.666823
H124	H	-0.495177	-0.019947	0.000173
H125	H	-0.161844	0.313386	0.333507
H126	H	0.171490	0.646719	0.666840
N127	N	-1.255602	-0.108590	0.338501
N128	N	-0.922269	0.224743	0.671834
N129	N	-0.588936	0.558077	1.005167
N130	N	-1.255501	-0.108674	0.202616
N131	N	-0.922168	0.224659	0.535949
N132	N	-0.588835	0.557992	0.869283
H133	H	-1.298204	-0.065730	0.147580
H134	H	-0.964870	0.267603	0.480914
H135	H	-0.631537	0.600937	0.814247
H136	H	-1.090634	-0.274470	0.593949
H137	H	-0.757300	0.058863	0.927282
H138	H	-0.423967	0.392197	1.260615
