data_functionalizedCrystal
_audit_creation_method	'MofGen! by Chris Wilmer'
_symmetry_space_group_name_H-M	'P1'
_symmetry_Int_Tables_number	1
_symmetry_cell_setting	triclinic
loop_
_symmetry_equiv_pos_as_xyz
  x,y,z
_cell_length_a	29.839134
_cell_length_b	29.839131
_cell_length_c	21.395355
_cell_angle_alpha	90.020172
_cell_angle_beta	90.034273
_cell_angle_gamma	90.036281
loop_
_atom_site_label
_atom_site_type_symbol
_atom_site_fract_x
_atom_site_fract_y
_atom_site_fract_z
Zn1	Zn	0.686774	-0.178967	0.354417
Zn2	Zn	0.686690	-0.254082	0.249636
Zn3	Zn	0.611641	-0.178960	0.249636
Zn4	Zn	0.611605	-0.254064	0.354359
O5	O	0.649177	-0.216518	0.302012
O6	O	0.749630	-0.188942	0.340542
O7	O	0.676715	-0.244122	0.161958
O8	O	0.621658	-0.116094	0.263559
O9	O	0.749568	-0.244128	0.263560
O10	O	0.676858	-0.116099	0.340541
O11	O	0.621576	-0.188930	0.161958
O12	O	0.548769	-0.188912	0.263503
O13	O	0.621596	-0.244097	0.442044
O14	O	0.548742	-0.244091	0.340442
O15	O	0.676823	-0.188924	0.442087
O16	O	0.676680	-0.316947	0.263504
O17	O	0.621515	-0.316933	0.340443
C18	C	0.532455	-0.216499	0.301967
C19	C	0.482520	-0.216502	0.301962
C20	C	0.172873	-0.245292	0.342025
C21	C	-0.014800	-0.245305	0.342053
O22	O	-0.039069	-0.269762	0.376089
N23	N	-0.038265	-0.216535	0.302059
C24	C	-0.014808	-0.187758	0.262058
O25	O	-0.039072	-0.163284	0.228046
C26	C	0.172864	-0.187743	0.262034
C27	C	0.196326	-0.216518	0.302026
C28	C	0.196335	-0.274065	0.382014
C29	C	0.243250	-0.274063	0.382005
C30	C	0.266704	-0.245289	0.342005
C31	C	0.243242	-0.216516	0.302016
C32	C	0.196320	-0.158964	0.222037
C33	C	0.243241	-0.158962	0.222035
C34	C	0.266703	-0.187737	0.262027
C35	C	0.313611	-0.187740	0.262007
N36	N	0.337075	-0.216510	0.302001
C37	C	0.313621	-0.245285	0.342000
C38	C	-0.113338	-0.187768	0.262073
C39	C	-0.160256	-0.187772	0.262078
C40	C	-0.160246	-0.245319	0.342074
C41	C	-0.113327	-0.245317	0.342065
C42	C	-0.089874	-0.216538	0.302067
C43	C	0.412147	-0.245279	0.341976
C44	C	0.459067	-0.245276	0.341961
C45	C	0.459052	-0.187728	0.261968
C46	C	0.412137	-0.187732	0.261980
C47	C	0.388685	-0.216509	0.301990
O48	O	0.337908	-0.163292	0.227994
O49	O	0.337894	-0.269748	0.376017
C50	C	0.125957	-0.245294	0.342035
C51	C	0.102495	-0.216521	0.302045
C52	C	0.125949	-0.187747	0.262046
C53	C	0.055578	-0.216526	0.302051
C54	C	0.032124	-0.245300	0.342050
C55	C	0.055588	-0.274070	0.382044
C56	C	0.102504	-0.274068	0.382034
C57	C	0.102485	-0.158977	0.222052
C58	C	0.055569	-0.158982	0.222065
C59	C	0.032116	-0.187756	0.262064
C60	C	0.649096	-0.333241	0.301981
C61	C	0.649103	-0.383175	0.301988
C62	C	0.677954	-0.692813	0.262008
C63	C	0.678010	-0.880486	0.262032
O64	O	0.702476	-0.904746	0.228016
N65	N	0.649271	-0.903960	0.302059
C66	C	0.620518	-0.880514	0.342085
O67	O	0.596078	-0.904786	0.376135
C68	C	0.620465	-0.692841	0.342064
C69	C	0.649203	-0.669369	0.302030
C70	C	0.706690	-0.669341	0.221978
C71	C	0.706674	-0.622426	0.221970
C72	C	0.677922	-0.598982	0.261992
C73	C	0.649187	-0.622454	0.302022
C74	C	0.591715	-0.669395	0.382093
C75	C	0.591705	-0.622474	0.382085
C76	C	0.620443	-0.599002	0.342051
C77	C	0.620419	-0.552095	0.342036
N78	N	0.649158	-0.528621	0.302009
C79	C	0.677910	-0.552064	0.261987
C80	C	0.620547	-0.979044	0.342093
C81	C	0.620560	-1.025962	0.342098
C82	C	0.678052	-1.025931	0.262045
C83	C	0.678037	-0.979013	0.262038
C84	C	0.649286	-0.955570	0.302066
C85	C	0.677874	-0.453539	0.261973
C86	C	0.677854	-0.406619	0.261966
C87	C	0.620364	-0.406654	0.342021
C88	C	0.620382	-0.453569	0.342025
C89	C	0.649140	-0.477010	0.301999
O90	O	0.595970	-0.527806	0.376039
O91	O	0.702353	-0.527784	0.227952
C92	C	0.677970	-0.739729	0.262016
C93	C	0.649234	-0.763200	0.302046
C94	C	0.620483	-0.739757	0.342068
C95	C	0.649247	-0.810118	0.302051
C96	C	0.677998	-0.833562	0.262029
C97	C	0.706737	-0.810088	0.222002
C98	C	0.706721	-0.763172	0.221994
C99	C	0.591744	-0.763231	0.382094
C100	C	0.591762	-0.810147	0.382099
C101	C	0.620513	-0.833590	0.342077
C102	C	0.766356	-0.216538	0.302057
C103	C	0.816290	-0.216546	0.302077
C104	C	0.649215	-0.216509	0.465435
C105	C	0.649231	-0.216505	0.535076
C106	C	0.649271	-0.099340	0.302057
C107	C	0.649311	-0.049406	0.302076
C108	C	0.649166	-0.216495	0.139224
C109	C	0.649237	-0.216372	0.069583
C110	C	0.677986	-0.187775	0.567813
C111	C	0.677985	-0.187756	0.633248
C112	C	0.649234	-0.216475	0.665945
C113	C	0.620473	-0.245207	0.633200
C114	C	0.620471	-0.245222	0.567766
C115	C	0.645659	-0.256926	0.769608
C116	C	0.645664	-0.256911	0.835041
C117	C	0.649237	-0.216427	0.867766
C118	C	0.652815	-0.175957	0.835049
C119	C	0.652813	-0.175972	0.769615
C120	C	0.649233	-0.216461	0.736897
C121	C	0.677993	-0.187674	0.971455
C122	C	0.677989	-0.187654	1.036891
C123	C	0.620480	-0.245109	1.036842
C124	C	0.620481	-0.245125	0.971407
C125	C	0.649240	-0.216408	0.938717
H126	H	-0.179349	-0.268748	0.374643
H127	H	0.597068	-0.268522	0.944753
H128	H	-0.094247	-0.164332	0.229498
H129	H	0.701400	-0.164358	0.659907
H130	H	0.121602	-0.297500	0.414600
H131	H	0.262334	-0.135523	0.189467
H132	H	0.262349	-0.297494	0.414572
H133	H	0.597133	-0.959960	0.374690
C134	C	0.641753	-0.300893	0.870445
C135	C	0.638604	-0.336349	0.827783
C136	C	0.634994	-0.376871	0.860373
H137	H	0.667484	-0.304906	0.895992
H138	H	0.615701	-0.300319	0.895938
H139	H	0.664653	-0.336923	0.802301
H140	H	0.612873	-0.332350	0.802234
H141	H	0.608942	-0.376298	0.885866
H142	H	0.660727	-0.380880	0.885919
H143	H	0.632853	-0.400932	0.831432
H144	H	0.036471	-0.135550	0.189493
H145	H	0.121576	-0.135545	0.189480
H146	H	0.701256	-0.387510	0.229364
H147	H	0.642629	-0.289884	0.742969
C148	C	0.589269	-0.276370	0.532107
C149	C	0.595416	-0.270231	0.467805
C150	C	0.566677	-0.298913	0.434935
H151	H	0.595791	-0.306572	0.542761
H152	H	0.559080	-0.269783	0.542768
H153	H	0.625599	-0.276821	0.457149
H154	H	0.588891	-0.240035	0.457133
H155	H	0.536487	-0.292326	0.445597
H156	H	0.573201	-0.329113	0.445594
H157	H	0.570841	-0.294748	0.391304
H158	H	0.597062	-0.268588	0.659826
C159	C	0.709112	-0.478903	0.218445
C160	C	0.734262	-0.448298	0.183379
C161	C	0.763036	-0.471647	0.143266
H162	H	0.728727	-0.497182	0.242369
H163	H	0.691953	-0.497221	0.191086
H164	H	0.751421	-0.429988	0.210734
H165	H	0.714659	-0.430019	0.159442
H166	H	0.745877	-0.489965	0.115908
H167	H	0.782648	-0.489925	0.167195
H168	H	0.780101	-0.450885	0.119465
H169	H	0.478167	-0.268710	0.374528
C170	C	0.737972	-0.835465	0.178482
C171	C	0.763132	-0.804872	0.143410
C172	C	0.791906	-0.828236	0.103312
H173	H	0.757580	-0.853743	0.202418
H174	H	0.720811	-0.853784	0.151127
H175	H	0.780292	-0.786561	0.170761
H176	H	0.743536	-0.786594	0.119461
H177	H	0.774745	-0.846555	0.075957
H178	H	0.811511	-0.846513	0.127253
H179	H	0.808978	-0.807482	0.079506
C180	C	0.560541	-0.835546	0.425636
C181	C	0.535370	-0.804967	0.460693
C182	C	0.506613	-0.828347	0.500815
H183	H	0.540939	-0.853879	0.401719
H184	H	0.577715	-0.853811	0.453000
H185	H	0.518197	-0.786710	0.433333
H186	H	0.554960	-0.786633	0.484624
H187	H	0.523787	-0.846612	0.528179
H188	H	0.487014	-0.846679	0.476892
H189	H	0.489534	-0.807603	0.524610
H190	H	0.730076	-0.603318	0.189373
H191	H	0.701403	-0.164391	0.541201
C192	C	0.737924	-0.694708	0.178450
C193	C	0.763075	-0.664101	0.143388
C194	C	0.791848	-0.687449	0.103271
H195	H	0.757539	-0.712989	0.202372
H196	H	0.720763	-0.713023	0.151090
H197	H	0.780234	-0.645794	0.170745
H198	H	0.743472	-0.645820	0.119454
H199	H	0.774687	-0.705764	0.075911
H200	H	0.811459	-0.705729	0.127198
H201	H	0.808913	-0.666686	0.079472
C202	C	0.030038	-0.305261	0.425450
C203	C	-0.016071	-0.299091	0.416903
C204	C	-0.039625	-0.327808	0.456883
H205	H	0.037647	-0.335456	0.416246
H206	H	0.037725	-0.298724	0.467577
H207	H	-0.023755	-0.305631	0.374785
H208	H	-0.023694	-0.268902	0.426111
H209	H	-0.031938	-0.321272	0.499011
H210	H	-0.032012	-0.358001	0.447676
H211	H	-0.070912	-0.323623	0.451094
H212	H	0.701438	-0.959905	0.229440
H213	H	0.701463	-1.045027	0.229458
H214	H	0.596953	-0.387559	0.374604
H215	H	0.177226	-0.135533	0.189469
C216	C	0.386609	-0.156459	0.218666
C217	C	0.359710	-0.127709	0.254232
C218	C	0.336189	-0.098890	0.214359
H219	H	0.407251	-0.139281	0.194834
H220	H	0.368250	-0.173593	0.191330
H221	H	0.378068	-0.110576	0.281556
H222	H	0.339060	-0.144874	0.278063
H223	H	0.317830	-0.116024	0.187023
H224	H	0.356835	-0.081715	0.190529
H225	H	0.317933	-0.079382	0.238484
H226	H	0.655725	-0.143020	0.742980
H227	H	0.655725	-0.142991	0.861692
C228	C	0.560440	-0.597104	0.425571
C229	C	0.535272	-0.627706	0.460618
C230	C	0.506464	-0.604352	0.500678
H231	H	0.577562	-0.578775	0.452949
H232	H	0.540842	-0.578837	0.401590
H233	H	0.554869	-0.645965	0.484598
H234	H	0.518142	-0.646036	0.433257
H235	H	0.486865	-0.586085	0.476697
H236	H	0.523589	-0.586024	0.528051
H237	H	0.489381	-0.625112	0.524458
C238	C	-0.185807	-0.156592	0.218663
C239	C	-0.231917	-0.162761	0.227206
C240	C	-0.255466	-0.134052	0.187213
H241	H	-0.178154	-0.126395	0.227858
H242	H	-0.178162	-0.163135	0.176539
H243	H	-0.239559	-0.156215	0.269320
H244	H	-0.239584	-0.192952	0.218006
H245	H	-0.247821	-0.140595	0.145089
H246	H	-0.247809	-0.103857	0.196411
H247	H	-0.286754	-0.138237	0.192999
H248	H	0.730122	-0.744065	0.189395
C249	C	0.709228	-0.156444	0.936070
C250	C	0.734400	-0.131266	0.978749
C251	C	0.763174	-0.102488	0.946178
H252	H	0.728830	-0.173588	0.910559
H253	H	0.692068	-0.136850	0.910544
H254	H	0.751560	-0.150858	1.004265
H255	H	0.714811	-0.114113	1.004262
H256	H	0.746013	-0.082894	0.920651
H257	H	0.782772	-0.119636	0.920667
H258	H	0.780254	-0.085399	0.975130
C259	C	0.589252	-0.479114	0.385521
C260	C	0.614685	-0.506017	0.425714
C261	C	0.586026	-0.529557	0.465789
H262	H	0.572114	-0.458484	0.409414
H263	H	0.569700	-0.497472	0.361544
H264	H	0.634229	-0.487661	0.449688
H265	H	0.631822	-0.526656	0.401838
H266	H	0.566475	-0.547915	0.441813
H267	H	0.568890	-0.508923	0.489678
H268	H	0.603278	-0.547817	0.493061
H269	H	0.478157	-0.164302	0.229400
C270	C	0.589338	-1.051362	0.385627
C271	C	0.564167	-1.020783	0.420685
C272	C	0.535406	-1.044162	0.460800
H273	H	0.569735	-1.069692	0.361705
H274	H	0.606508	-1.069630	0.412990
H275	H	0.546998	-1.002522	0.393325
H276	H	0.583758	-1.002452	0.444620
H277	H	0.552576	-1.062430	0.488164
H278	H	0.515807	-1.062492	0.436873
H279	H	0.518327	-1.023418	0.484596
C280	C	0.589316	-0.276277	1.072446
C281	C	0.595480	-0.270124	1.136758
C282	C	0.566785	-0.298834	1.169579
H283	H	0.559117	-0.269733	1.061777
H284	H	0.595876	-0.306474	1.061760
H285	H	0.588918	-0.239934	1.147440
H286	H	0.625674	-0.276671	1.147446
H287	H	0.573344	-0.329031	1.158893
H288	H	0.536587	-0.292287	1.158905
H289	H	0.570966	-0.294666	1.213218
H290	H	0.393059	-0.268711	0.374557
H291	H	0.177244	-0.297496	0.414590
H292	H	-0.094227	-0.268747	0.374631
H293	H	0.568311	-0.688498	0.414689
H294	H	0.568331	-0.744147	0.414686
H295	H	0.701405	-0.164256	1.063544
