data_functionalizedCrystal
_audit_creation_method	'MofGen! by Chris Wilmer'
_symmetry_space_group_name_H-M	'P1'
_symmetry_Int_Tables_number	1
_symmetry_cell_setting	triclinic
loop_
_symmetry_equiv_pos_as_xyz
  x,y,z
_cell_length_a	14.853568
_cell_length_b	15.500227
_cell_length_c	14.853568
_cell_angle_alpha	92.836706
_cell_angle_beta	83.635187
_cell_angle_gamma	87.154330
loop_
_atom_site_label
_atom_site_type_symbol
_atom_site_fract_x
_atom_site_fract_y
_atom_site_fract_z
O1	O	-1.200549	0.071879	-0.113531
O2	O	-0.700549	0.571879	0.386469
O3	O	-0.938091	0.071892	-0.127551
O4	O	-0.438091	0.571892	0.372449
O5	O	-1.076331	0.071889	0.010689
O6	O	-0.576331	0.571889	0.510689
O7	O	-1.062309	0.071881	-0.251771
O8	O	-0.562309	0.571881	0.248229
O9	O	-1.067942	-0.071999	0.002334
O10	O	-0.567942	0.428001	0.502334
O11	O	-0.929702	-0.071997	-0.135906
O12	O	-0.429702	0.428003	0.364094
O13	O	-1.192160	-0.072010	-0.121886
O14	O	-0.692160	0.427990	0.378114
Cu15	Cu	-1.060165	-0.085141	-0.129659
Cu16	Cu	-0.560165	0.414859	0.370341
Cu17	Cu	-1.070086	0.085024	-0.119778
Cu18	Cu	-0.570086	0.585024	0.380222
O19	O	-1.053921	-0.072007	-0.260126
O20	O	-0.553921	0.427993	0.239874
C21	C	-0.900308	-0.000051	-0.131093
C22	C	-0.400308	0.499949	0.368907
C23	C	-0.800224	-0.000045	-0.129189
C24	C	-0.300224	0.499955	0.370811
N25	N	-1.053194	-0.204826	-0.136609
N26	N	-0.553194	0.295174	0.363391
C27	C	-0.387689	-0.000063	-0.039023
C28	C	0.112311	0.499937	0.460977
C29	C	-0.366409	-0.000067	-0.203256
C30	C	0.133591	0.499933	0.296744
C31	C	-0.460442	-0.000064	-0.205046
C32	C	0.039558	0.499936	0.294954
C33	C	-0.518104	-0.000059	-0.123823
C34	C	-0.018104	0.499941	0.376177
C35	C	-0.481732	-0.000057	-0.040811
C36	C	0.018268	0.499943	0.459189
C37	C	-0.496822	-0.000057	-0.288057
C38	C	0.003178	0.499943	0.211943
C39	C	-0.590861	-0.000053	-0.289851
C40	C	-0.090861	0.499947	0.210149
C41	C	-0.648525	-0.000055	-0.208627
C42	C	-0.148525	0.499945	0.291373
C43	C	-0.612147	-0.000054	-0.125611
C44	C	-0.112147	0.499946	0.374389
C45	C	-0.669809	-0.000049	-0.044388
C46	C	-0.169809	0.499951	0.455612
C47	C	-0.633433	-0.000054	0.038628
C48	C	-0.133433	0.499946	0.538628
C49	C	-0.539396	-0.000059	0.040413
C50	C	-0.039396	0.499941	0.540413
C51	C	-0.742562	-0.000050	-0.210411
C52	C	-0.242562	0.499950	0.289589
C53	C	-0.763852	-0.000043	-0.046176
C54	C	-0.263852	0.499957	0.453824
C55	C	-1.111792	-0.250104	-0.078054
C56	C	-0.611792	0.249896	0.421946
C57	C	-1.106528	-0.340677	-0.083318
C58	C	-0.606528	0.159323	0.416682
C59	C	-1.042670	-0.385970	-0.147143
C60	C	-0.542670	0.114030	0.352857
C61	C	-0.984066	-0.340686	-0.205701
C62	C	-0.484066	0.159314	0.294299
C63	C	-0.989327	-0.250115	-0.200431
C64	C	-0.489327	0.249885	0.299569
C65	C	-1.023721	-0.659437	-0.166110
C66	C	-0.523721	-0.159437	0.333890
C67	C	-1.018467	-0.750014	-0.171376
C68	C	-0.518467	-0.250014	0.328624
C69	C	-1.140928	-0.749998	-0.048992
C70	C	-0.640928	-0.249998	0.451008
C71	C	-1.146186	-0.659426	-0.043732
C72	C	-0.646186	-0.159426	0.456268
C73	C	-1.087579	-0.614149	-0.102287
C74	C	-0.587579	-0.114149	0.397713
C75	C	-1.037290	-0.478550	-0.152527
C76	C	-0.537290	0.021450	0.347473
C77	C	-1.092955	-0.521571	-0.096897
C78	C	-0.592955	-0.021571	0.403103
C79	C	-0.229944	-0.000066	-0.118343
C80	C	0.270056	0.499934	0.381657
C81	C	-0.330027	-0.000068	-0.120246
C82	C	0.169973	0.499932	0.379754
C83	C	-1.071501	-0.000052	0.040100
C84	C	-0.571501	0.499948	0.540100
C85	C	-1.069597	-0.000043	0.140184
C86	C	-0.569597	0.499957	0.640184
N87	N	-1.077064	0.204708	-0.112821
N88	N	-0.577064	0.704708	0.387179
C89	C	-0.979430	-0.000049	0.552718
C90	C	-0.479430	0.499951	1.052718
C91	C	-1.143663	-0.000057	0.573998
C92	C	-0.643663	0.499943	1.073998
C93	C	-1.145453	-0.000054	0.479965
C94	C	-0.645453	0.499946	0.979965
C95	C	-1.064231	-0.000049	0.422303
C96	C	-0.564231	0.499951	0.922303
C97	C	-0.981218	-0.000048	0.458675
C98	C	-0.481218	0.499952	0.958675
C99	C	-1.228464	-0.000063	0.443585
C100	C	-0.728464	0.499937	0.943585
C101	C	-1.230258	-0.000060	0.349546
C102	C	-0.730258	0.499940	0.849546
C103	C	-1.149035	-0.000050	0.291883
C104	C	-0.649035	0.499950	0.791883
C105	C	-1.066019	-0.000048	0.328261
C106	C	-0.566019	0.499952	0.828261
C107	C	-0.984797	-0.000043	0.270599
C108	C	-0.484797	0.499957	0.770599
C109	C	-0.901780	-0.000035	0.306975
C110	C	-0.401780	0.499965	0.806975
C111	C	-0.899996	-0.000038	0.401012
C112	C	-0.399996	0.499962	0.901012
C113	C	-1.150820	-0.000048	0.197846
C114	C	-0.650820	0.499952	0.697846
C115	C	-0.986585	-0.000042	0.176557
C116	C	-0.486585	0.499958	0.676557
C117	C	-1.058750	-0.000061	0.710463
C118	C	-0.558750	0.499939	1.210463
C119	C	-1.060653	-0.000054	0.610379
C120	C	-0.560653	0.499946	1.110379
H121	H	-0.810795	-0.000043	0.019967
H122	H	-0.310795	0.499957	0.519967
O123	O	-0.968427	-0.527405	-0.221377
O124	O	-0.468427	-0.027405	0.278623
H125	H	-0.922174	-0.568686	-0.185748
H126	H	-0.422174	-0.068686	0.314252
O127	O	-0.434637	-0.000056	-0.375659
O128	O	0.065363	0.499944	0.124341
H129	H	-0.444180	-0.058696	-0.418790
H130	H	0.055820	0.441304	0.081210
O131	O	-0.960515	-0.610612	-0.229270
O132	O	-0.460515	-0.110612	0.270730
H133	H	-1.000913	-0.569333	-0.270752
H134	H	-0.500913	-0.069333	0.229248
O135	O	-1.316061	-0.000082	0.505775
O136	O	-0.816061	0.499918	1.005775
H137	H	-1.322603	0.058566	0.552533
H138	H	-0.822603	0.558566	1.052533
H139	H	-0.620470	-0.000049	-0.357448
H140	H	-0.120470	0.499951	0.142552
H141	H	-0.966463	-0.786888	-0.223354
H142	H	-0.466463	-0.286888	0.276646
O143	O	-0.348457	-0.000073	0.050511
O144	O	0.151543	0.499927	0.550511
H145	H	-0.404354	-0.000075	0.106686
H146	H	0.095646	0.499925	0.606686
H147	H	-0.835649	-0.000038	0.260015
H148	H	-0.335649	0.499962	0.760015
H149	H	-1.297855	-0.000066	0.319937
H150	H	-0.797855	0.499934	0.819937
O151	O	-1.180664	-0.201252	-0.009210
O152	O	-0.680664	0.298748	0.490790
H153	H	-1.220518	-0.247957	0.030629
H154	H	-0.720518	0.252043	0.530629
H155	H	-1.209790	-0.000068	0.620951
H156	H	-0.709790	0.499932	1.120951
H157	H	-0.932067	-0.377569	-0.257665
H158	H	-0.432067	0.122431	0.242335
H159	H	-0.772175	-0.000047	-0.278002
H160	H	-0.272175	0.499953	0.221998
H161	H	-1.154242	-0.377541	-0.035637
H162	H	-0.654242	0.122459	0.464363
H163	H	-1.198184	-0.622549	0.008239
H164	H	-0.698184	-0.122549	0.508239
H165	H	-0.941609	-0.213251	-0.248112
H166	H	-0.441609	0.286749	0.251888
O167	O	-1.161810	-0.472716	-0.028045
O168	O	-0.661810	0.027284	0.471955
H169	H	-1.208067	-0.431435	-0.063670
H170	H	-0.708067	0.068565	0.436330
O171	O	-1.204130	-0.798829	0.014170
O172	O	-0.704130	-0.298829	0.514170
H173	H	-1.189742	-0.869418	-0.000208
H174	H	-0.689742	-0.369418	0.499792
O175	O	-0.898979	-0.000045	0.114364
O176	O	-0.398979	0.499955	0.614364
H177	H	-0.840958	-0.000048	0.155459
H178	H	-0.340958	0.499952	0.655459
O179	O	-1.240346	-0.000050	0.158607
O180	O	-0.740346	0.499950	0.658607
H181	H	-1.296524	-0.000051	0.214501
H182	H	-0.796524	0.499949	0.714501
O183	O	-0.810464	-0.000048	0.440250
O184	O	-0.310464	0.499952	0.940250
H185	H	-0.809139	0.058589	0.486006
H186	H	-0.309139	0.558589	0.986006
O187	O	-0.695627	-0.000055	0.126233
O188	O	-0.195627	0.499945	0.626233
H189	H	-0.767126	-0.000054	0.111036
H190	H	-0.267126	0.499946	0.611036
O191	O	-0.500163	-0.000064	0.129946
O192	O	-0.000163	0.499936	0.629946
H193	H	-0.461249	0.058585	0.138098
H194	H	0.038751	0.558585	0.638098
H195	H	-0.911841	-0.000040	0.582340
H196	H	-0.411841	0.499960	1.082340
O197	O	-0.304223	-0.000081	-0.290859
O198	O	0.195777	0.499919	0.209141
H199	H	-0.232721	-0.000092	-0.275670
H200	H	0.267279	0.499908	0.224330
