data_functionalizedCrystal
_audit_creation_method	'MofGen! by Chris Wilmer'
_symmetry_space_group_name_H-M	'P1'
_symmetry_Int_Tables_number	1
_symmetry_cell_setting	triclinic
loop_
_symmetry_equiv_pos_as_xyz
  x,y,z
_cell_length_a	14.044220
_cell_length_b	22.610064
_cell_length_c	14.044220
_cell_angle_alpha	89.995561
_cell_angle_beta	86.811122
_cell_angle_gamma	90.010402
loop_
_atom_site_label
_atom_site_type_symbol
_atom_site_fract_x
_atom_site_fract_y
_atom_site_fract_z
O1	O	1.277183	0.049124	-0.230167
O2	O	1.777183	0.549124	0.269833
O3	O	1.000511	0.049139	-0.221861
O4	O	1.500511	0.549139	0.278139
O5	O	1.134694	0.049126	-0.087678
O6	O	1.634694	0.549126	0.412322
O7	O	1.143000	0.049137	-0.364350
O8	O	1.643000	0.549137	0.135650
O9	O	1.134651	-0.049243	-0.087674
O10	O	1.634651	0.450757	0.412326
O11	O	1.000468	-0.049230	-0.221857
O12	O	1.500468	0.450770	0.278143
O13	O	1.277140	-0.049245	-0.230163
O14	O	1.777140	0.450755	0.269837
Zn15	Zn	1.138797	-0.064856	-0.226009
Zn16	Zn	1.638797	0.435144	0.273991
Zn17	Zn	1.138854	0.064750	-0.226014
Zn18	Zn	1.638854	0.564750	0.273986
O19	O	1.142957	-0.049232	-0.364346
O20	O	1.642957	0.450768	0.135654
C21	C	0.964868	-0.000044	-0.218223
C22	C	1.464868	0.499956	0.281777
C23	C	0.858725	-0.000038	-0.207379
C24	C	1.358725	0.499962	0.292621
N25	N	1.138766	-0.153308	-0.226006
N26	N	1.638766	0.346692	0.273994
C27	C	0.664388	-0.000051	-0.187553
C28	C	1.164388	0.499949	0.312447
C29	C	0.613258	-0.000050	-0.264467
C30	C	1.113258	0.499950	0.235533
C31	C	0.505122	-0.000057	-0.253435
C32	C	1.005122	0.499943	0.246565
C33	C	0.772534	-0.000044	-0.198583
C34	C	1.272534	0.499956	0.301417
C35	C	1.201653	-0.561951	-0.288837
C36	C	1.701653	-0.061951	0.211163
C37	C	1.201664	-0.623871	-0.288836
C38	C	1.701664	-0.123871	0.211164
O39	O	1.255095	-0.655890	-0.342248
O40	O	1.755095	-0.155890	0.157752
N41	N	1.138871	-0.654846	-0.226005
N42	N	1.638871	-0.154846	0.273995
C43	C	1.076069	-0.623897	-0.163165
C44	C	1.576069	-0.123897	0.336835
O45	O	1.022660	-0.655930	-0.109722
O46	O	1.522660	-0.155930	0.390278
C47	C	1.076063	-0.561979	-0.163162
C48	C	1.576063	-0.061979	0.336838
C49	C	1.138853	-0.531007	-0.226004
C50	C	1.638853	-0.031007	0.273996
C51	C	1.264439	-0.530979	-0.351673
C52	C	1.764439	-0.030979	0.148327
C53	C	1.264426	-0.469063	-0.351675
C54	C	1.764426	0.030937	0.148325
C55	C	1.201626	-0.438119	-0.288842
C56	C	1.701626	0.061881	0.211158
C57	C	1.138840	-0.469091	-0.226006
C58	C	1.638840	0.030909	0.273994
C59	C	1.013266	-0.531032	-0.100318
C60	C	1.513266	-0.031032	0.399682
C61	C	1.013265	-0.469109	-0.100320
C62	C	1.513265	0.030891	0.399680
C63	C	1.076056	-0.438137	-0.163162
C64	C	1.576056	0.061863	0.336838
C65	C	1.076027	-0.376232	-0.163175
C66	C	1.576027	0.123768	0.336825
N67	N	1.138820	-0.345257	-0.226006
N68	N	1.638820	0.154743	0.273994
C69	C	1.201620	-0.376201	-0.288839
C70	C	1.701620	0.123799	0.211161
C71	C	1.076088	-0.753931	-0.163174
C72	C	1.576088	-0.253931	0.336826
C73	C	1.076089	-0.815849	-0.163181
C74	C	1.576089	-0.315849	0.336819
C75	C	1.201686	-0.815818	-0.288851
C76	C	1.701686	-0.315818	0.211149
C77	C	1.201680	-0.753899	-0.288848
C78	C	1.701680	-0.253899	0.211152
C79	C	1.138881	-0.722956	-0.226005
C80	C	1.638881	-0.222956	0.273995
C81	C	1.201587	-0.246173	-0.288840
C82	C	1.701587	0.253827	0.211160
C83	C	1.201565	-0.184252	-0.288839
C84	C	1.701565	0.315748	0.211161
C85	C	1.075972	-0.184289	-0.163166
C86	C	1.575972	0.315711	0.336834
C87	C	1.075990	-0.246204	-0.163170
C88	C	1.575990	0.253796	0.336830
C89	C	1.138805	-0.277145	-0.226010
C90	C	1.638805	0.222855	0.273990
O91	O	1.022627	-0.344173	-0.109788
O92	O	1.522627	0.155827	0.390212
O93	O	1.255028	-0.344161	-0.342265
O94	O	1.755028	0.155839	0.157735
C95	C	1.312783	-0.000061	-0.233800
C96	C	1.812783	0.499939	0.266200
C97	C	1.418926	-0.000063	-0.244645
C98	C	1.918926	0.499937	0.255355
C99	C	1.131037	-0.000059	-0.052054
C100	C	1.631037	0.499941	0.447946
C101	C	1.120193	-0.000059	0.054088
C102	C	1.620193	0.499941	0.554088
N103	N	1.138893	0.153202	-0.226011
N104	N	1.638893	0.653202	0.273989
C105	C	1.146614	-0.000046	-0.399969
C106	C	1.646614	0.499954	0.100031
C107	C	1.157459	-0.000042	-0.506112
C108	C	1.657459	0.499958	-0.006112
C109	C	1.100366	-0.000049	0.248426
C110	C	1.600366	0.499951	0.748426
C111	C	1.177281	-0.000052	0.299556
C112	C	1.677281	0.499948	0.799556
C113	C	1.166249	-0.000046	0.407692
C114	C	1.666249	0.499954	0.907692
C115	C	1.111397	-0.000055	0.140280
C116	C	1.611397	0.499945	0.640280
H117	H	0.650697	-0.000044	-0.338600
H118	H	1.150697	0.499956	0.161400
C119	C	1.277433	-0.000065	0.248979
C120	C	1.777433	0.499935	0.748979
N121	N	1.352864	-0.000079	0.210881
N122	N	1.852864	0.499921	0.710881
H123	H	0.626951	-0.000057	-0.113425
H124	H	1.126951	0.499943	0.386575
C125	C	1.270646	-0.150187	-0.357969
C126	C	1.770646	0.349813	0.142031
N127	N	1.322679	-0.124531	-0.410034
N128	N	1.822679	0.375469	0.089966
C129	C	0.944177	-0.435075	-0.031189
C130	C	1.444177	0.064925	0.468811
N131	N	0.892137	-0.409443	0.020878
N132	N	1.392137	0.090557	0.520878
C133	C	1.000222	-0.000052	0.299003
C134	C	1.500222	0.499948	0.799003
N135	N	0.924793	-0.000058	0.337108
N136	N	1.424793	0.499942	0.837108
C137	C	1.333512	-0.435002	-0.420796
C138	C	1.833512	0.064998	0.079204
N139	N	1.385556	-0.409352	-0.472856
N140	N	1.885556	0.090648	0.027144
H141	H	1.252737	-0.271358	-0.340010
H142	H	1.752737	0.228642	0.159990
H143	H	1.252820	-0.841023	-0.340014
H144	H	1.752820	-0.341023	0.159986
H145	H	1.315583	-0.556167	-0.402840
H146	H	1.815583	-0.056167	0.097160
H147	H	1.252809	-0.728686	-0.340020
H148	H	1.752809	-0.228686	0.159980
H149	H	1.024941	-0.728741	-0.112002
H150	H	1.524941	-0.228741	0.387998
C151	C	0.944190	-0.565087	-0.031186
C152	C	1.444190	-0.065087	0.468814
N153	N	0.892158	-0.590736	0.020889
N154	N	1.392158	-0.090736	0.520889
C155	C	1.007005	-0.849911	-0.094060
C156	C	1.507005	-0.349911	0.405940
N157	N	0.954971	-0.875564	-0.041993
N158	N	1.454971	-0.375564	0.458007
H159	H	1.024849	-0.271423	-0.112010
H160	H	1.524849	0.228577	0.387990
H161	H	1.024840	-0.159083	-0.112011
H162	H	1.524840	0.340917	0.387989
