data_functionalizedCrystal
_audit_creation_method	'MofGen! by Chris Wilmer'
_symmetry_space_group_name_H-M	'P1'
_symmetry_Int_Tables_number	1
_symmetry_cell_setting	triclinic
loop_
_symmetry_equiv_pos_as_xyz
  x,y,z
_cell_length_a	12.594516
_cell_length_b	17.077404
_cell_length_c	17.077396
_cell_angle_alpha	89.980499
_cell_angle_beta	89.976855
_cell_angle_gamma	90.016278
loop_
_atom_site_label
_atom_site_type_symbol
_atom_site_fract_x
_atom_site_fract_y
_atom_site_fract_z
Zn1	Zn	0.423736	-1.200092	0.443872
Zn2	Zn	0.601736	-1.200015	0.312618
Zn3	Zn	0.423773	-1.068824	0.312620
Zn4	Zn	0.601673	-1.068807	0.443842
O5	O	0.512730	-1.134434	0.378238
O6	O	0.447359	-1.309929	0.426473
O7	O	0.578171	-1.182586	0.202771
O8	O	0.274822	-1.086276	0.330044
O9	O	0.578135	-1.309872	0.330041
O10	O	0.274795	-1.182718	0.426474
O11	O	0.447422	-1.086201	0.202773
O12	O	0.447361	-0.958975	0.330015
O13	O	0.578027	-1.086248	0.553693
O14	O	0.578064	-0.958963	0.426423
O15	O	0.447297	-1.182702	0.553715
O16	O	0.750674	-1.182571	0.330012
O17	O	0.750627	-1.086173	0.426421
C18	C	0.512710	-0.930487	0.378216
C19	C	0.512728	-0.843237	0.378226
C20	C	0.789271	-1.134383	0.378230
C21	C	0.907576	-1.134433	0.378253
C22	C	0.235109	-1.134507	0.378263
C23	C	0.116803	-1.134539	0.378273
C24	C	0.976843	-1.081997	0.430653
C25	C	1.047703	-1.062873	0.359026
C26	C	1.047515	-1.153628	0.449893
C27	C	0.976878	-1.115271	0.306587
C28	C	0.976684	-1.206059	0.397503
C29	C	1.047512	-1.186963	0.325826
C30	C	0.512651	-1.134482	0.582982
C31	C	0.512618	-1.134502	0.670232
C32	C	0.512750	-1.339179	0.378260
C33	C	0.512758	-1.426428	0.378269
C34	C	0.580887	-0.802261	0.428345
C35	C	0.580890	-0.720280	0.428357
C36	C	0.512737	-0.679277	0.378246
C37	C	0.444570	-0.720259	0.328125
C38	C	0.444563	-0.802238	0.328117
C39	C	0.444591	-0.549389	0.328144
C40	C	0.444599	-0.467404	0.328150
C41	C	0.580917	-0.467431	0.428384
C42	C	0.580910	-0.549410	0.428376
C43	C	0.512745	-0.590386	0.378253
C44	C	0.512731	-1.134432	0.174290
C45	C	0.512465	-1.134564	0.087041
C46	C	0.444541	-1.184728	0.711235
C47	C	0.444506	-1.184737	0.793216
C48	C	0.512553	-1.134524	0.834192
C49	C	0.580633	-1.084293	0.793183
C50	C	0.580662	-1.084281	0.711204
C51	C	0.580569	-1.084325	0.964053
C52	C	0.580541	-1.084339	1.046038
C53	C	0.444412	-1.184782	1.046065
C54	C	0.444442	-1.184769	0.964086
C55	C	0.512523	-1.134538	0.923083
H56	H	0.945811	-1.037575	0.474902
N57	N	0.371111	-0.423163	0.274102
H58	H	0.295073	-0.437427	0.286380
H59	H	0.381579	-0.365031	0.281747
H60	H	0.636087	-1.043374	0.677820
H61	H	0.388976	-1.225680	1.079453
H62	H	0.636034	-1.043406	0.826552
N63	N	0.653992	-1.030145	0.919826
H64	H	0.697099	-0.998339	0.958222
H65	H	0.703264	-1.062081	0.885812
H66	H	1.078921	-1.002349	0.342760
N67	N	0.371058	-1.238931	0.919887
H68	H	0.327923	-1.270753	0.958300
H69	H	0.321812	-1.206986	0.885871
N70	N	0.654419	-0.593630	0.482427
H71	H	0.611221	-0.627666	0.518853
H72	H	0.703672	-0.627576	0.450407
N73	N	0.653911	-1.030180	1.090254
H74	H	0.729976	-1.042332	1.075994
H75	H	0.637276	-0.974117	1.075972
N76	N	0.935961	-1.093732	0.226321
H77	H	0.855770	-1.093802	0.226814
H78	H	0.962500	-1.039857	0.211717
N79	N	0.371047	-0.846429	0.274054
H80	H	0.414233	-0.880421	0.237620
H81	H	0.321786	-0.880417	0.306069
N82	N	1.088617	-1.175087	0.530130
H83	H	1.168803	-1.175467	0.529420
H84	H	1.062837	-1.135386	0.569613
H85	H	0.945468	-1.266570	0.413803
N86	N	1.088361	-1.245765	0.267080
H87	H	1.062526	-1.231206	0.213021
H88	H	1.168545	-1.245785	0.267796
N89	N	0.654403	-0.846483	0.482388
H90	H	0.697580	-0.808082	0.514141
H91	H	0.611139	-0.880521	0.518766
N92	N	0.654421	-0.676087	0.482404
H93	H	0.638004	-0.690382	0.538511
H94	H	0.730412	-0.690360	0.470034
N95	N	0.371069	-0.676036	0.274071
H96	H	0.327888	-0.714436	0.242320
H97	H	0.321871	-0.642042	0.306085
H98	H	0.636417	-0.434065	0.469198
N99	N	0.371066	-0.593587	0.274088
H100	H	0.327894	-0.555174	0.242341
H101	H	0.414327	-0.627578	0.237705
N102	N	0.371153	-1.238891	0.667042
H103	H	0.328021	-1.270709	0.705460
H104	H	0.321905	-1.206948	0.633027
N105	N	0.371059	-1.238893	0.837441
H106	H	0.327955	-1.270699	0.799043
H107	H	0.414358	-1.275216	0.871467
