data_functionalizedCrystal
_audit_creation_method	'MofGen! by Chris Wilmer'
_symmetry_space_group_name_H-M	'P1'
_symmetry_Int_Tables_number	1
_symmetry_cell_setting	triclinic
loop_
_symmetry_equiv_pos_as_xyz
  x,y,z
_cell_length_a	14.853567
_cell_length_b	16.109301
_cell_length_c	14.586319
_cell_angle_alpha	89.998582
_cell_angle_beta	90.000553
_cell_angle_gamma	96.451795
loop_
_atom_site_label
_atom_site_type_symbol
_atom_site_fract_x
_atom_site_fract_y
_atom_site_fract_z
O1	O	0.115881	-1.103294	0.076175
O2	O	0.449215	-0.769961	0.409508
O3	O	0.782548	-0.436628	0.742841
O4	O	0.130302	-0.861253	0.076188
O5	O	0.463636	-0.527919	0.409521
O6	O	0.796969	-0.194586	0.742855
O7	O	-0.008149	-0.988739	0.076184
O8	O	0.325185	-0.655405	0.409517
O9	O	0.658518	-0.322072	0.742850
O10	O	0.254332	-0.975808	0.076179
O11	O	0.587666	-0.642475	0.409512
O12	O	0.920999	-0.309141	0.742846
O13	O	-0.008152	-0.988728	-0.076297
O14	O	0.325181	-0.655395	0.257036
O15	O	0.658515	-0.322062	0.590370
O16	O	0.130299	-0.861242	-0.076293
O17	O	0.463633	-0.527909	0.257041
O18	O	0.796966	-0.194576	0.590374
O19	O	0.115878	-1.103284	-0.076306
O20	O	0.449211	-0.769951	0.257027
O21	O	0.782545	-0.436617	0.590360
Cu22	Cu	0.123088	-0.982262	-0.090222
Cu23	Cu	0.456422	-0.648929	0.243111
Cu24	Cu	0.789755	-0.315596	0.576445
Cu25	Cu	0.123092	-0.982274	0.090104
Cu26	Cu	0.456426	-0.648941	0.423437
Cu27	Cu	0.789759	-0.315608	0.756771
O28	O	0.254329	-0.975798	-0.076302
O29	O	0.587662	-0.642465	0.257031
O30	O	0.920996	-0.309131	0.590365
C31	C	-0.041738	-0.988148	-0.000054
C32	C	0.291595	-0.654814	0.333279
C33	C	0.624929	-0.321481	0.666613
C34	C	-0.141819	-0.986392	-0.000046
C35	C	0.191515	-0.653059	0.333287
C36	C	0.524848	-0.319725	0.666621
C37	C	0.129717	-0.830272	-0.000050
C38	C	0.463050	-0.496938	0.333283
C39	C	0.796383	-0.163605	0.666616
C40	C	0.127965	-0.737974	-0.000045
C41	C	0.461299	-0.404641	0.333288
C42	C	0.794632	-0.071307	0.666622
C43	C	0.116464	-1.134265	-0.000066
C44	C	0.449797	-0.800932	0.333268
C45	C	0.783130	-0.467598	0.666601
C46	C	0.118215	-1.226563	-0.000065
C47	C	0.451549	-0.893229	0.333268
C48	C	0.784882	-0.559896	0.666601
C49	C	-0.554215	-0.903241	-0.000059
C50	C	-0.220882	-0.569907	0.333275
C51	C	0.112451	-0.236574	0.666608
C52	C	-0.575746	-1.054697	-0.000067
C53	C	-0.242413	-0.721364	0.333266
C54	C	0.090920	-0.388030	0.666600
C55	C	-0.481715	-1.056348	-0.000062
C56	C	-0.148382	-0.723015	0.333272
C57	C	0.184951	-0.389681	0.666605
C58	C	-0.423930	-0.981444	-0.000056
C59	C	-0.090596	-0.648111	0.333277
C60	C	0.242737	-0.314777	0.666610
C61	C	-0.460175	-0.904889	-0.000056
C62	C	-0.126842	-0.571556	0.333277
C63	C	0.206491	-0.238223	0.666611
C64	C	-0.445463	-1.132901	-0.000071
C65	C	-0.112129	-0.799568	0.333262
C66	C	0.221204	-0.466235	0.666595
C67	C	-0.351426	-1.134555	-0.000067
C68	C	-0.018093	-0.801222	0.333266
C69	C	0.315240	-0.467889	0.666600
C70	C	-0.293639	-1.059650	-0.000055
C71	C	0.039694	-0.726317	0.333278
C72	C	0.373028	-0.392984	0.666612
C73	C	-0.329890	-0.983093	-0.000054
C74	C	0.003444	-0.649759	0.333280
C75	C	0.336777	-0.316426	0.666613
C76	C	-0.272104	-0.908189	-0.000048
C77	C	0.061229	-0.574855	0.333285
C78	C	0.394563	-0.241522	0.666618
C79	C	-0.308353	-0.831630	-0.000040
C80	C	0.024980	-0.498296	0.333293
C81	C	0.358314	-0.164963	0.666626
C82	C	-0.402388	-0.829984	-0.000044
C83	C	-0.069054	-0.496651	0.333289
C84	C	0.264279	-0.163318	0.666623
C85	C	-0.199604	-1.061296	-0.000051
C86	C	0.133729	-0.727963	0.333282
C87	C	0.467062	-0.394629	0.666615
C88	C	-0.178064	-0.909837	-0.000046
C89	C	0.155269	-0.576504	0.333288
C90	C	0.488603	-0.243171	0.666621
C91	C	0.287918	-0.976389	-0.000062
C92	C	0.621252	-0.643056	0.333271
C93	C	0.954585	-0.309722	0.666605
C94	C	0.387999	-0.978145	-0.000064
C95	C	0.721333	-0.644811	0.333269
C96	C	1.054666	-0.311478	0.666603
N97	N	0.123085	-0.982260	-0.217054
N98	N	0.456418	-0.648926	0.116279
N99	N	0.789752	-0.315593	0.449613
C100	C	0.206047	-0.515811	-0.000057
C101	C	0.539380	-0.182478	0.333276
C102	C	0.872714	0.150855	0.666610
C103	C	0.204395	-0.429089	-0.000063
C104	C	0.537728	-0.095755	0.333271
C105	C	0.871061	0.237578	0.666604
C106	C	0.040127	-0.448732	-0.000056
C107	C	0.373460	-0.115399	0.333277
C108	C	0.706794	0.217935	0.666611
C109	C	0.041781	-0.535453	-0.000057
C110	C	0.375114	-0.202120	0.333277
C111	C	0.708447	0.131213	0.666610
C112	C	0.124743	-0.568990	-0.000052
C113	C	0.458077	-0.235657	0.333281
C114	C	0.791410	0.097677	0.666614
C115	C	0.121437	-0.395546	-0.000058
C116	C	0.454770	-0.062213	0.333276
C117	C	0.788104	0.271120	0.666609
C118	C	0.119645	-0.301518	-0.000064
C119	C	0.452978	0.031815	0.333269
C120	C	0.786311	0.365149	0.666603
C121	C	0.126536	-0.663025	-0.000048
C122	C	0.459870	-0.329691	0.333286
C123	C	0.793203	0.003642	0.666619
C124	C	0.061799	-1.038733	-0.548050
C125	C	0.395132	-0.705399	-0.214716
C126	C	0.728466	-0.372066	0.118617
C127	C	0.061799	-1.038731	-0.452068
C128	C	0.395133	-0.705397	-0.118735
C129	C	0.728466	-0.372064	0.214598
C130	C	0.184381	-0.925808	-0.452075
C131	C	0.517714	-0.592474	-0.118742
C132	C	0.851048	-0.259141	0.214592
C133	C	0.184384	-0.925814	-0.548055
C134	C	0.517717	-0.592481	-0.214721
C135	C	0.851051	-0.259148	0.118612
C136	C	0.123088	-0.982276	-0.596039
C137	C	0.456421	-0.648943	-0.262706
C138	C	0.789755	-0.315609	0.070627
C139	C	0.123085	-0.982267	-0.404079
C140	C	0.456419	-0.648934	-0.070745
C141	C	0.789752	-0.315601	0.262588
C142	C	0.123086	-0.982265	-0.300012
C143	C	0.456420	-0.648931	0.033322
C144	C	0.789753	-0.315598	0.366655
C145	C	0.123088	-0.982280	-0.700113
C146	C	0.456421	-0.648947	-0.366780
C147	C	0.789755	-0.315613	-0.033447
N148	N	0.123088	-0.982283	0.216936
N149	N	0.456422	-0.648950	0.550269
N150	N	0.789755	-0.315617	0.883602
H151	H	-0.131020	-0.848840	-0.000037
H152	H	0.202313	-0.515507	0.333296
H153	H	0.535646	-0.182174	0.666629
O154	O	-0.312341	-1.217129	-0.000061
O155	O	0.020992	-0.883796	0.333272
O156	O	0.354325	-0.550463	0.666605
H157	H	-0.270015	-1.221511	-0.062209
H158	H	0.063319	-0.888177	0.271124
H159	H	0.396652	-0.554844	0.604458
O160	O	-0.004311	-1.099617	-0.400304
O161	O	0.329023	-0.766284	-0.066971
O162	O	0.662356	-0.432950	0.266362
H163	H	-0.046935	-1.138871	-0.449799
H164	H	0.286398	-0.805538	-0.116466
H165	H	0.619731	-0.472205	0.216867
O166	O	-0.160502	-1.143858	-0.000054
O167	O	0.172831	-0.810525	0.333280
O168	O	0.506165	-0.477191	0.666613
H169	H	-0.216482	-1.195666	-0.000055
H170	H	0.116851	-0.862333	0.333279
H171	H	0.450185	-0.528999	0.666612
O172	O	0.250467	-0.864888	-0.400322
O173	O	0.583800	-0.531555	-0.066988
O174	O	0.917134	-0.198222	0.266345
H175	H	0.240156	-0.874355	-0.325518
H176	H	0.573490	-0.541022	0.007815
H177	H	0.906823	-0.207688	0.341148
H178	H	0.273601	-0.543114	-0.000060
H179	H	0.606934	-0.209781	0.333273
H180	H	0.940267	0.123553	0.666606
O181	O	-0.246023	-0.750842	-0.000046
O182	O	0.087311	-0.417509	0.333288
O183	O	0.420644	-0.084175	0.666621
H184	H	-0.258902	-0.714210	0.062101
H185	H	0.074432	-0.380876	0.395435
H186	H	0.407765	-0.047543	0.728768
O187	O	0.292088	-0.371731	-0.000073
O188	O	0.625421	-0.038398	0.333260
O189	O	0.958754	0.294936	0.666594
H190	H	0.295266	-0.331743	0.062068
H191	H	0.628599	0.001591	0.395401
H192	H	0.961933	0.334924	0.728735
H193	H	-0.492518	-1.193884	-0.000084
H194	H	-0.159185	-0.860551	0.333249
H195	H	0.174149	-0.527217	0.666582
O196	O	-0.004304	-1.099640	-0.599799
O197	O	0.329030	-0.766307	-0.266466
O198	O	0.662363	-0.432973	0.066867
H199	H	-0.048140	-1.064602	-0.643528
H200	H	0.285193	-0.731269	-0.310195
H201	H	0.618527	-0.397935	0.023138
H202	H	-0.027418	-0.421415	-0.000065
H203	H	0.305915	-0.088082	0.333269
H204	H	0.639248	0.245251	0.666602
H205	H	0.234297	-0.879840	-0.587131
H206	H	0.567631	-0.546507	-0.253797
H207	H	0.900964	-0.213174	0.079536
H208	H	-0.431911	-0.767654	-0.000039
H209	H	-0.098577	-0.434321	0.333295
H210	H	0.234756	-0.100988	0.666628
O211	O	-0.045915	-0.592821	-0.000054
O212	O	0.287419	-0.259487	0.333279
O213	O	0.620752	0.073846	0.666613
H214	H	-0.103882	-0.554933	-0.000044
H215	H	0.229452	-0.221600	0.333289
H216	H	0.562785	0.111734	0.666623
H217	H	-0.583733	-0.840908	-0.000049
H218	H	-0.250400	-0.507575	0.333285
H219	H	0.082933	-0.174242	0.666618
H220	H	-0.622800	-1.115680	-0.000079
H221	H	-0.289467	-0.782347	0.333254
H222	H	0.043866	-0.449014	0.666588
