data_functionalizedCrystal
_audit_creation_method	'MofGen! by Chris Wilmer'
_symmetry_space_group_name_H-M	'P1'
_symmetry_Int_Tables_number	1
_symmetry_cell_setting	triclinic
loop_
_symmetry_equiv_pos_as_xyz
  x,y,z
_cell_length_a	11.169417
_cell_length_b	21.295417
_cell_length_c	21.295411
_cell_angle_alpha	89.978356
_cell_angle_beta	89.978806
_cell_angle_gamma	90.031386
loop_
_atom_site_label
_atom_site_type_symbol
_atom_site_fract_x
_atom_site_fract_y
_atom_site_fract_z
Zn1	Zn	1.834810	-0.250666	-0.355855
Zn2	Zn	1.834624	-0.355918	-0.250580
Zn3	Zn	1.634091	-0.250668	-0.250606
Zn4	Zn	1.634033	-0.355903	-0.355818
O5	O	1.734390	-0.303289	-0.303215
O6	O	2.002735	-0.264633	-0.341895
O7	O	1.807970	-0.341964	-0.162494
O8	O	1.660819	-0.162579	-0.264594
O9	O	2.002599	-0.341962	-0.264550
O10	O	1.808287	-0.162577	-0.341920
O11	O	1.660639	-0.264637	-0.162513
O12	O	1.466134	-0.264623	-0.264558
O13	O	1.660720	-0.341936	-0.443912
O14	O	1.466091	-0.341938	-0.341857
O15	O	1.808230	-0.264619	-0.443939
O16	O	1.807913	-0.444005	-0.264514
O17	O	1.660540	-0.443994	-0.341832
C18	C	1.422565	-0.303279	-0.303207
C19	C	1.289165	-0.303290	-0.303218
C20	C	1.734232	-0.466841	-0.303180
C21	C	1.734275	-0.536809	-0.303186
C22	C	1.811080	-0.569660	-0.262968
C23	C	1.811137	-0.635403	-0.262982
C24	C	1.734366	-0.668291	-0.303208
C25	C	1.657555	-0.635432	-0.343434
C26	C	1.657509	-0.569690	-0.343423
N27	N	1.629376	-0.771559	-0.308004
N28	N	1.629423	-0.834010	-0.308011
C29	C	1.734500	-0.866366	-0.303244
N30	N	1.839532	-0.833911	-0.298458
N31	N	1.839484	-0.771454	-0.298448
C32	C	1.734407	-0.739576	-0.303224
C33	C	1.811373	-0.970503	-0.263039
C34	C	1.811432	-1.036246	-0.263058
C35	C	1.657839	-1.036274	-0.343506
C36	C	1.657792	-0.970532	-0.343491
C37	C	1.734557	-0.937650	-0.303254
C38	C	2.047432	-0.303299	-0.303223
C39	C	2.180832	-0.303303	-0.303227
C40	C	1.734489	-0.303276	-0.467405
C41	C	1.734532	-0.303270	-0.537373
C42	C	1.734580	-0.139099	-0.303264
C43	C	1.734662	-0.069130	-0.303284
C44	C	1.811337	-0.263009	-0.570255
C45	C	1.811335	-0.262982	-0.635998
C46	C	1.734541	-0.303227	-0.668856
C47	C	1.657721	-0.343490	-0.635966
C48	C	1.657716	-0.343512	-0.570225
N49	N	1.725281	-0.358294	-0.772072
N50	N	1.725293	-0.358272	-0.834523
C51	C	1.734549	-0.303163	-0.866931
N52	N	1.743816	-0.248075	-0.834528
N53	N	1.743811	-0.248099	-0.772070
C54	C	1.734537	-0.303207	-0.740141
C55	C	1.811356	-0.262869	-0.971098
C56	C	1.811346	-0.262841	-1.036842
C57	C	1.657738	-0.343355	-1.036809
C58	C	1.657742	-0.343377	-0.971067
C59	C	1.734557	-0.303135	-0.938215
C60	C	1.734360	-0.303257	-0.139663
C61	C	1.734550	-0.303085	-0.069696
H62	H	1.873590	-0.542890	-0.230206
H63	H	1.595206	-0.376166	-0.944294
H64	H	1.873685	-0.662155	-0.230232
H65	H	1.595191	-0.376256	-0.662724
H66	H	1.594964	-0.542942	-0.376174
H67	H	1.595167	-0.376296	-0.543453
C68	C	1.895928	-1.072383	-0.218811
N69	N	1.959569	-1.099601	-0.185483
C70	C	1.573392	-1.072448	-0.387756
N71	N	1.509786	-1.099697	-0.421088
H72	H	1.873884	-0.943729	-0.230278
C73	C	1.573323	-0.934394	-0.387747
N74	N	1.509710	-0.907175	-0.421091
H75	H	1.873885	-0.230240	-0.543511
H76	H	1.873877	-0.230193	-0.662775
H77	H	1.873897	-0.230098	-0.944349
C78	C	1.895840	-0.218547	-1.073011
N79	N	1.959484	-0.185185	-1.100255
C80	C	1.573103	-0.671610	-0.387680
N81	N	1.509492	-0.698860	-0.421008
C82	C	1.573264	-0.387625	-1.072950
N83	N	1.509635	-0.420970	-1.100174
