data_functionalizedCrystal
_audit_creation_method	'MofGen! by Chris Wilmer'
_symmetry_space_group_name_H-M	'P1'
_symmetry_Int_Tables_number	1
_symmetry_cell_setting	triclinic
loop_
_symmetry_equiv_pos_as_xyz
  x,y,z
_cell_length_a	26.374263
_cell_length_b	26.373608
_cell_length_c	26.370205
_cell_angle_alpha	60.005297
_cell_angle_beta	60.010839
_cell_angle_gamma	59.993700
loop_
_atom_site_label
_atom_site_type_symbol
_atom_site_fract_x
_atom_site_fract_y
_atom_site_fract_z
O1	O	0.070152	-0.740800	0.619517
O2	O	0.026377	-0.576764	0.499159
O3	O	0.130245	-0.680560	0.499088
O4	O	-0.033715	-0.637003	0.619589
O5	O	0.164701	-0.646107	0.533470
O6	O	0.060833	-0.542310	0.533541
O7	O	0.104608	-0.706346	0.653899
Cu8	Cu	0.085867	-0.621182	0.596859
Cu9	Cu	0.045119	-0.661927	0.556199
O10	O	0.000741	-0.602549	0.653971
N11	N	0.114528	-0.592529	0.625461
N12	N	0.016463	-0.690587	0.527598
C13	C	0.181428	-0.355400	0.692330
C14	C	0.181530	-0.525690	0.862573
C15	C	0.181440	-0.525667	0.692313
C16	C	0.351736	-0.525673	0.692271
C17	C	0.200174	-0.411588	0.711047
C18	C	0.200232	-0.506954	0.806384
C19	C	0.295546	-0.506943	0.711016
C20	C	0.200182	-0.506940	0.711037
C21	C	0.157567	-0.283881	0.668507
C22	C	0.157587	-0.549500	0.668479
C23	C	0.224035	-0.483107	0.734871
C24	C	0.455739	-0.507754	0.637520
C25	C	0.520749	-0.529425	0.615835
C26	C	0.520768	-0.634611	0.655947
C27	C	0.455759	-0.612939	0.677633
C28	C	0.173240	-0.251367	0.604595
C29	C	0.151546	-0.186351	0.582941
C30	C	0.098512	-0.186369	0.689113
C31	C	0.120206	-0.251385	0.710768
C32	C	0.093669	-0.533798	0.684205
C33	C	0.071992	-0.555464	0.662532
C34	C	0.178144	-0.608536	0.609422
C35	C	0.199825	-0.586869	0.631088
C36	C	0.093821	-0.533842	0.966616
C37	C	0.072187	-0.555526	1.031630
C38	C	0.178370	-0.608608	1.031591
C39	C	0.200004	-0.586926	0.966576
C40	C	0.157728	-0.549541	0.934090
C41	C	0.423247	-0.549509	0.668416
C42	C	-0.097522	-0.709158	0.508557
C43	C	-0.002050	-0.709295	0.413344
C44	C	-0.002241	-0.804604	0.508735
C45	C	-0.002225	-0.709288	0.508793
C46	C	-0.026009	-0.733087	0.484858
N47	N	0.552340	-0.592538	0.625346
O48	O	0.750867	-0.598274	0.477076
O49	O	0.751048	-0.718989	0.640960
O50	O	0.750981	-0.718715	0.537020
O51	O	0.750934	-0.598547	0.581017
O52	O	0.647701	-0.684348	0.571512
O53	O	0.647768	-0.684622	0.675452
O54	O	0.647587	-0.563907	0.511569
Cu55	Cu	0.638247	-0.621127	0.596660
Cu56	Cu	0.760388	-0.661769	0.555869
O57	O	0.647654	-0.564181	0.615509
N58	N	0.846295	-0.690358	0.527176
N59	N	0.114503	-0.154778	0.625499
O60	O	-0.033701	0.043855	0.619632
O61	O	0.130190	0.043858	0.498933
O62	O	0.026233	0.043841	0.499224
O63	O	0.070257	0.043872	0.619341
O64	O	0.060690	-0.059448	0.533654
O65	O	0.164647	-0.059431	0.533363
O66	O	0.000756	-0.059434	0.654062
Cu67	Cu	0.085848	-0.068863	0.596857
Cu68	Cu	0.045099	0.053287	0.556138
O69	O	0.104714	-0.059417	0.653771
N70	N	0.016435	0.139202	0.527497
N71	N	0.114760	-0.592585	1.063190
O72	O	0.108896	-0.740779	1.261808
O73	O	-0.011787	-0.576838	1.261822
O74	O	-0.011509	-0.680779	1.261780
O75	O	0.108618	-0.636838	1.261850
O76	O	0.022916	-0.646341	1.158496
O77	O	0.022638	-0.542399	1.158538
O78	O	0.143321	-0.706341	1.158524
Cu79	Cu	0.086123	-0.621225	1.149100
Cu80	Cu	0.045411	-0.661953	1.271246
O81	O	0.143044	-0.602399	1.158566
N82	N	0.016774	-0.690600	1.357156
C83	C	0.039504	-0.538867	0.499769
C84	C	0.168130	-0.667407	0.499680
C85	C	0.091482	-0.744243	0.653289
C86	C	-0.037145	-0.615703	0.653378
C87	C	0.699429	-0.718429	0.678853
C88	C	0.699348	-0.718091	0.550135
C89	C	0.699202	-0.564465	0.473677
C90	C	0.699287	-0.564805	0.602393
C91	C	0.168023	-0.007659	0.499484
C92	C	0.039327	-0.007807	0.499887
C93	C	-0.037119	-0.007789	0.653468
C94	C	0.091620	-0.007770	0.653109
C95	C	-0.011194	-0.538964	1.210181
C96	C	-0.010843	-0.667676	1.210109
C97	C	0.142729	-0.744214	1.210165
C98	C	0.142386	-0.615494	1.210214
H99	H	0.020147	-0.542732	1.058106
H100	H	0.180620	-0.791296	1.210154
H101	H	0.029900	-0.007810	0.462151
C102	C	0.230917	-0.679900	0.449243
C103	C	0.241896	-0.729825	0.435056
C104	C	0.299732	-0.741356	0.388603
H105	H	0.231097	-0.644006	0.413107
H106	H	0.262526	-0.689764	0.463500
H107	H	0.210295	-0.719958	0.420798
H108	H	0.241728	-0.765729	0.471179
H109	H	0.331340	-0.751220	0.402859
H110	H	0.299907	-0.705459	0.352470
H111	H	0.307191	-0.775234	0.378975
H112	H	0.699278	-0.527058	0.611808
C113	C	0.269246	-0.603999	0.613965
C114	C	0.301595	-0.641370	0.576589
C115	C	0.365545	-0.657165	0.560806
H116	H	0.279966	-0.567280	0.591878
H117	H	0.279965	-0.626094	0.650703
H118	H	0.290881	-0.619275	0.539857
H119	H	0.290894	-0.678097	0.598663
H120	H	0.376264	-0.679260	0.597544
H121	H	0.376259	-0.620442	0.538721
H122	H	0.387502	-0.682527	0.535450
H123	H	0.101045	-0.007760	0.690842
C124	C	0.699400	-0.768519	0.537696
C125	C	0.699482	-0.821726	0.590663
C126	C	0.699538	-0.868196	0.579224
H127	H	0.663378	-0.754276	0.527882
H128	H	0.735415	-0.778202	0.503823
H129	H	0.663470	-0.812044	0.624526
H130	H	0.735501	-0.835988	0.600485
H131	H	0.735553	-0.877878	0.545351
H132	H	0.663515	-0.853946	0.569410
H133	H	0.699599	-0.904303	0.615158
C134	C	-0.099933	-0.007744	0.703904
C135	C	-0.138284	-0.007734	0.681651
C136	C	-0.196157	-0.007679	0.728090
H137	H	-0.094576	-0.043745	0.739229
H138	H	-0.118538	0.028297	0.715167
H139	H	-0.119683	-0.043772	0.670397
H140	H	-0.143659	0.028264	0.646332
H141	H	-0.214762	0.028363	0.739353
H142	H	-0.190794	-0.043680	0.763412
H143	H	-0.222187	-0.007666	0.712997
H144	H	0.180125	-0.606093	1.210228
C145	C	0.699155	-0.514016	0.410872
C146	C	0.699157	-0.536280	0.372534
C147	C	0.699120	-0.489825	0.314672
H148	H	0.663129	-0.478713	0.416253
H149	H	0.735166	-0.502710	0.392241
H150	H	0.663150	-0.547576	0.391161
H151	H	0.735180	-0.571576	0.367135
H152	H	0.735131	-0.478520	0.296041
H153	H	0.663093	-0.454526	0.320060
H154	H	0.699127	-0.504926	0.288651
C155	C	0.047820	-0.493282	0.931461
C156	C	-0.012777	-0.484187	0.973864
C157	C	-0.055168	-0.446836	0.941502
H158	H	0.053969	-0.454278	0.906102
H159	H	0.054015	-0.513127	0.906111
H160	H	-0.018970	-0.464341	0.999203
H161	H	-0.018946	-0.523179	0.999225
H162	H	-0.048973	-0.466681	0.916151
H163	H	-0.049014	-0.407836	0.916143
H164	H	-0.096288	-0.440665	0.970266
C165	C	0.699595	-0.769053	0.741549
C166	C	0.752749	-0.820972	0.733324
C167	C	0.752920	-0.867621	0.791064
H168	H	0.699633	-0.754139	0.767694
H169	H	0.663616	-0.780402	0.760148
H170	H	0.788719	-0.809624	0.714734
H171	H	0.752722	-0.835904	0.707190
H172	H	0.716942	-0.878970	0.809663
H173	H	0.752957	-0.852701	0.817205
H174	H	0.788982	-0.902856	0.785491
H175	H	0.212798	-0.639038	1.058038
H176	H	0.214995	-0.007372	0.461496
H177	H	0.100832	-0.791364	0.691090
H178	H	-0.048566	-0.677061	1.210046
C179	C	0.269416	-0.604013	0.931375
C180	C	0.301805	-0.641375	0.973743
C181	C	0.365748	-0.657119	0.941340
H182	H	0.280152	-0.626099	0.906007
H183	H	0.280086	-0.567257	0.906031
H184	H	0.291140	-0.678124	0.999076
H185	H	0.291088	-0.619301	0.999113
H186	H	0.376417	-0.620364	0.915996
H187	H	0.376477	-0.679203	0.915973
H188	H	0.387732	-0.682466	0.970082
C189	C	0.047713	-0.493203	0.724762
C190	C	-0.012903	-0.484072	0.733875
C191	C	-0.055255	-0.446672	0.771227
H192	H	0.053896	-0.513008	0.763759
H193	H	0.053913	-0.454213	0.704915
H194	H	-0.019101	-0.523055	0.753723
H195	H	-0.019106	-0.464260	0.694890
H196	H	-0.049055	-0.407682	0.751379
H197	H	-0.049066	-0.466481	0.810220
H198	H	-0.096387	-0.440468	0.777410
C199	C	-0.099904	-0.603252	0.703859
C200	C	-0.110871	-0.553347	0.718069
C201	C	-0.168674	-0.541865	0.764575
H202	H	-0.131550	-0.593386	0.689661
H203	H	-0.100024	-0.639182	0.739973
H204	H	-0.110757	-0.517425	0.681962
H205	H	-0.079240	-0.563199	0.732277
H206	H	-0.168793	-0.577796	0.800689
H207	H	-0.200315	-0.532002	0.750372
H208	H	-0.176120	-0.508008	0.774227
C209	C	0.223973	-0.649211	0.568922
C210	C	0.214665	-0.706599	0.598308
C211	C	0.256872	-0.744082	0.561018
H212	H	0.217738	-0.629425	0.529954
H213	H	0.265157	-0.655503	0.562671
H214	H	0.173491	-0.700306	0.604552
H215	H	0.220906	-0.726402	0.637274
H216	H	0.298056	-0.750374	0.554766
H217	H	0.250633	-0.724291	0.522051
H218	H	0.250566	-0.783026	0.580953
C219	C	0.420596	-0.658371	0.711136
C220	C	0.462990	-0.718554	0.714546
C221	C	0.430621	-0.760423	0.745397
H222	H	0.395250	-0.656796	0.751892
H223	H	0.395234	-0.647528	0.688987
H224	H	0.488342	-0.729394	0.736696
H225	H	0.488338	-0.720149	0.673800
H226	H	0.405259	-0.749580	0.723248
H227	H	0.405276	-0.758843	0.786150
H228	H	0.459380	-0.801261	0.747710
H229	H	-0.049082	-0.491880	1.210184
H230	H	0.547237	-0.686258	0.663446
C231	C	0.555920	-0.483988	0.582273
C232	C	0.513534	-0.423797	0.578827
C233	C	0.545911	-0.381924	0.547903
H234	H	0.581301	-0.494782	0.604373
H235	H	0.581249	-0.485612	0.541523
H236	H	0.488216	-0.422174	0.619570
H237	H	0.488152	-0.412983	0.556722
H238	H	0.571240	-0.383549	0.507153
H239	H	0.571291	-0.392725	0.570006
H240	H	0.517158	-0.341080	0.545556
H241	H	0.429268	-0.456103	0.630015
C242	C	0.213768	-0.286535	0.558613
C243	C	0.222831	-0.244142	0.498004
C244	C	0.260156	-0.276519	0.455631
H245	H	0.252779	-0.311897	0.564761
H246	H	0.193920	-0.311885	0.564828
H247	H	0.242680	-0.218802	0.491791
H248	H	0.183832	-0.218778	0.491836
H249	H	0.240308	-0.301869	0.461846
H250	H	0.299164	-0.301880	0.461784
H251	H	0.266305	-0.247760	0.414503
H252	H	0.019945	-0.542665	0.675322
H253	H	0.164306	-0.159876	0.530897
C254	C	0.057935	-0.151196	0.735094
C255	C	0.048849	-0.193589	0.795702
C256	C	0.011465	-0.161213	0.838076
H257	H	0.077732	-0.125829	0.728922
H258	H	0.018934	-0.125851	0.728902
H259	H	0.087842	-0.218924	0.801892
H260	H	0.029045	-0.218958	0.801893
H261	H	-0.027536	-0.135867	0.831884
H262	H	0.031266	-0.135847	0.831899
H263	H	0.005290	-0.189971	0.879203
H264	H	0.107441	-0.277854	0.762810
H265	H	0.030155	-0.491745	0.461969
