data_functionalizedCrystal
_audit_creation_method	'MofGen! by Chris Wilmer'
_symmetry_space_group_name_H-M	'P1'
_symmetry_Int_Tables_number	1
_symmetry_cell_setting	triclinic
loop_
_symmetry_equiv_pos_as_xyz
  x,y,z
_cell_length_a	15.944551
_cell_length_b	16.098538
_cell_length_c	15.944493
_cell_angle_alpha	87.271722
_cell_angle_beta	83.486891
_cell_angle_gamma	92.734390
loop_
_atom_site_label
_atom_site_type_symbol
_atom_site_fract_x
_atom_site_fract_y
_atom_site_fract_z
O1	O	1.118258	0.069158	0.104587
O2	O	0.873707	0.069178	0.117942
O3	O	1.002686	0.069175	-0.011014
O4	O	0.989278	0.069162	0.233543
O5	O	0.995152	-0.069338	-0.003511
O6	O	0.866172	-0.069335	0.125446
O7	O	1.110724	-0.069354	0.112090
Zn8	Zn	0.987252	-0.091336	0.119959
Zn9	Zn	0.997178	0.091160	0.110073
O10	O	0.981744	-0.069351	0.241046
C11	C	0.838646	-0.000076	0.121139
C12	C	0.745400	-0.000068	0.119476
N13	N	0.980483	-0.215885	0.126706
C14	C	0.530560	-0.000080	0.035570
C15	C	0.473247	0.068212	0.070834
C16	C	0.574675	-0.000078	0.116470
C17	C	0.465841	-0.068350	0.078251
C18	C	0.409762	-0.000091	0.113559
C19	C	0.518592	0.068271	0.151753
C20	C	0.511189	-0.068353	0.159162
C21	C	0.453894	-0.000044	0.194484
C22	C	0.669677	-0.000069	0.118144
C23	C	0.314761	-0.000093	0.111891
C24	C	1.035247	-0.259472	0.071991
C25	C	1.030520	-0.346661	0.076718
C26	C	0.971032	-0.390262	0.136165
C27	C	0.916262	-0.346669	0.190882
C28	C	0.920986	-0.259482	0.186150
C29	C	0.953908	-0.653511	0.153305
C30	C	0.949190	-0.740705	0.158035
C31	C	1.063447	-0.740690	0.043869
C32	C	1.068169	-0.653501	0.039145
C33	C	1.013396	-0.609916	0.093860
C34	C	0.966200	-0.479383	0.141001
C35	C	1.018224	-0.520797	0.089020
C36	C	1.145785	-0.000099	0.108893
C37	C	1.239030	-0.000101	0.110555
C38	C	0.998371	-0.000078	-0.038557
C39	C	0.996729	-0.000068	-0.131807
N40	N	1.003954	0.215709	0.103320
C41	C	1.072648	-0.000089	-0.367565
C42	C	1.035422	0.068207	-0.421833
C43	C	0.993684	-0.000077	-0.302527
C44	C	1.027975	-0.068355	-0.414411
C45	C	0.990749	-0.000091	-0.467436
C46	C	0.956483	0.068276	-0.355570
C47	C	0.949044	-0.068348	-0.348141
C48	C	0.911761	-0.000035	-0.402377
C49	C	0.995378	-0.000069	-0.207528
C50	C	0.989050	-0.000093	-0.562433
C51	C	0.986059	-0.000096	0.268589
C52	C	0.987702	-0.000102	0.361838
H53	H	0.563912	0.000008	-0.031574
Br54	Br	0.906174	0.164618	-0.312761
Br55	Br	1.115991	-0.200309	-0.008685
H56	H	0.456285	0.125952	0.033489
H57	H	0.528173	-0.126096	0.196478
H58	H	0.909311	-0.618031	0.197857
Br59	Br	0.888293	-0.164583	-0.294634
Br60	Br	1.096235	0.164437	-0.475293
Br61	Br	1.078347	-0.164586	-0.457419
Br62	Br	0.557128	0.164606	0.203524
H63	H	0.843693	0.000008	-0.417845
Br64	Br	0.398603	0.000008	0.306498
H65	H	0.442622	-0.126084	0.047147
Br66	Br	1.104840	-0.405817	0.002459
H67	H	1.116609	-0.618003	-0.009261
Br68	Br	0.868452	-0.799872	0.238724
Br69	Br	1.137776	-0.799844	-0.030384
Br70	Br	0.846654	-0.200329	0.260404
Br71	Br	0.835520	-0.405838	0.271556
Br72	Br	0.885467	-0.538558	0.221678
H73	H	1.066656	-0.485295	0.040615
H74	H	1.140669	-0.000026	-0.351940
