data_functionalizedCrystal
_audit_creation_method	'MofGen! by Chris Wilmer'
_symmetry_space_group_name_H-M	'P1'
_symmetry_Int_Tables_number	1
_symmetry_cell_setting	triclinic
loop_
_symmetry_equiv_pos_as_xyz
  x,y,z
_cell_length_a	14.044220
_cell_length_b	15.021413
_cell_length_c	14.044220
_cell_angle_alpha	89.996608
_cell_angle_beta	93.188878
_cell_angle_gamma	90.003106
loop_
_atom_site_label
_atom_site_type_symbol
_atom_site_fract_x
_atom_site_fract_y
_atom_site_fract_z
O1	O	1.277172	0.073941	0.230155
O2	O	1.527172	0.323941	0.480155
O3	O	1.777172	0.573941	0.730155
O4	O	2.027172	0.823941	0.980155
O5	O	1.000501	0.073963	0.221850
O6	O	1.250501	0.323963	0.471850
O7	O	1.500501	0.573963	0.721850
O8	O	1.750501	0.823963	0.971850
O9	O	1.134684	0.073944	0.087667
O10	O	1.384684	0.323944	0.337667
O11	O	1.634684	0.573944	0.587667
O12	O	1.884684	0.823944	0.837667
O13	O	1.142989	0.073961	0.364338
O14	O	1.392989	0.323961	0.614338
O15	O	1.642989	0.573961	0.864338
O16	O	1.892989	0.823961	1.114338
O17	O	1.134662	-0.074121	0.087686
O18	O	1.384662	0.175879	0.337686
O19	O	1.634662	0.425879	0.587686
O20	O	1.884662	0.675879	0.837686
O21	O	1.000479	-0.074101	0.221869
O22	O	1.250479	0.175899	0.471869
O23	O	1.500479	0.425899	0.721869
O24	O	1.750479	0.675899	0.971869
O25	O	1.277151	-0.074123	0.230174
O26	O	1.527151	0.175877	0.480174
O27	O	1.777151	0.425877	0.730174
O28	O	2.027151	0.675877	0.980174
Zn29	Zn	1.138811	-0.097620	0.226024
Zn30	Zn	1.388811	0.152380	0.476024
Zn31	Zn	1.638811	0.402380	0.726024
Zn32	Zn	1.888811	0.652380	0.976024
Zn33	Zn	1.138840	0.097460	0.225999
Zn34	Zn	1.388840	0.347460	0.475999
Zn35	Zn	1.638840	0.597460	0.725999
Zn36	Zn	1.888840	0.847460	0.975999
O37	O	1.142968	-0.074104	0.364357
O38	O	1.392968	0.175896	0.614357
O39	O	1.642968	0.425896	0.864357
O40	O	1.892968	0.675896	1.114357
C41	C	0.964868	-0.000066	0.218223
C42	C	1.214868	0.249934	0.468223
C43	C	1.464868	0.499934	0.718223
C44	C	1.714868	0.749934	0.968223
C45	C	0.858725	-0.000058	0.207379
C46	C	1.108725	0.249942	0.457379
C47	C	1.358725	0.499942	0.707379
C48	C	1.608725	0.749942	0.957379
C49	C	0.664388	-0.000077	0.187553
C50	C	0.914388	0.249923	0.437553
C51	C	1.164388	0.499923	0.687553
C52	C	1.414388	0.749923	0.937553
C53	C	0.613258	-0.000076	0.264467
C54	C	0.863258	0.249924	0.514467
C55	C	1.113258	0.499924	0.764467
C56	C	1.363258	0.749924	1.014467
C57	C	0.505122	-0.000086	0.253435
C58	C	0.755122	0.249914	0.503435
C59	C	1.005122	0.499914	0.753435
C60	C	1.255122	0.749914	1.003435
C61	C	0.772534	-0.000066	0.198583
C62	C	1.022534	0.249934	0.448583
C63	C	1.272534	0.499934	0.698583
C64	C	1.522534	0.749934	0.948583
N65	N	1.138799	-0.230758	0.226041
N66	N	1.388799	0.019242	0.476041
N67	N	1.638799	0.269242	0.726041
N68	N	1.888799	0.519242	0.976041
C69	C	1.076740	-0.470432	0.288055
C70	C	1.326740	-0.220432	0.538055
C71	C	1.576740	0.029568	0.788055
C72	C	1.826740	0.279568	1.038055
C73	C	1.164574	-0.529772	0.313879
C74	C	1.414574	-0.279772	0.563879
C75	C	1.664574	-0.029772	0.813879
C76	C	1.914574	0.220228	1.063879
C77	C	1.138821	-0.412365	0.226020
C78	C	1.388821	-0.162365	0.476020
C79	C	1.638821	0.087635	0.726020
C80	C	1.888821	0.337635	0.976020
C81	C	1.051012	-0.529767	0.200219
C82	C	1.301012	-0.279767	0.450219
C83	C	1.551012	-0.029767	0.700219
C84	C	1.801012	0.220233	0.950219
C85	C	1.138836	-0.587789	0.226000
C86	C	1.388836	-0.337789	0.476000
C87	C	1.638836	-0.087789	0.726000
C88	C	1.888836	0.162211	0.976000
C89	C	1.226703	-0.470399	0.251890
C90	C	1.476703	-0.220399	0.501890
C91	C	1.726703	0.029601	0.751890
C92	C	1.976703	0.279601	1.001890
C93	C	1.113081	-0.470388	0.138188
C94	C	1.363081	-0.220388	0.388188
C95	C	1.613081	0.029612	0.638188
C96	C	1.863081	0.279612	0.888188
C97	C	1.200975	-0.529701	0.163981
C98	C	1.450975	-0.279701	0.413981
C99	C	1.700975	-0.029701	0.663981
C100	C	1.950975	0.220299	0.913981
C101	C	1.138812	-0.311308	0.226033
C102	C	1.388812	-0.061308	0.476033
C103	C	1.638812	0.188692	0.726033
C104	C	1.888812	0.438692	0.976033
C105	C	1.138855	-0.688844	0.225987
C106	C	1.388855	-0.438844	0.475987
C107	C	1.638855	-0.188844	0.725987
C108	C	1.888855	0.061156	0.975987
C109	C	1.312783	-0.000092	0.233800
C110	C	1.562783	0.249908	0.483800
C111	C	1.812783	0.499908	0.733800
C112	C	2.062783	0.749908	0.983800
C113	C	1.418926	-0.000094	0.244645
C114	C	1.668926	0.249906	0.494645
C115	C	1.918926	0.499906	0.744645
C116	C	2.168926	0.749906	0.994645
C117	C	1.131037	-0.000089	0.052054
C118	C	1.381037	0.249911	0.302054
C119	C	1.631037	0.499911	0.552054
C120	C	1.881037	0.749911	0.802054
C121	C	1.120193	-0.000089	-0.054088
C122	C	1.370193	0.249911	0.195912
C123	C	1.620193	0.499911	0.445912
C124	C	1.870193	0.749911	0.695912
N125	N	1.138859	0.230598	0.225975
N126	N	1.388859	0.480598	0.475975
N127	N	1.638859	0.730598	0.725975
N128	N	1.888859	0.980598	0.975975
C129	C	1.100366	-0.000074	-0.248426
C130	C	1.350366	0.249926	0.001574
C131	C	1.600366	0.499926	0.251574
C132	C	1.850366	0.749926	0.501574
C133	C	1.177281	-0.000078	-0.299556
C134	C	1.427281	0.249922	-0.049556
C135	C	1.677281	0.499922	0.200444
C136	C	1.927281	0.749922	0.450444
C137	C	1.166249	-0.000070	-0.407692
C138	C	1.416249	0.249930	-0.157692
C139	C	1.666249	0.499930	0.092308
C140	C	1.916249	0.749930	0.342308
C141	C	1.111397	-0.000082	-0.140280
C142	C	1.361397	0.249918	0.109720
C143	C	1.611397	0.499918	0.359720
C144	C	1.861397	0.749918	0.609720
C145	C	1.146614	-0.000069	0.399969
C146	C	1.396614	0.249931	0.649969
C147	C	1.646614	0.499931	0.899969
C148	C	1.896614	0.749931	1.149969
C149	C	1.157459	-0.000063	0.506112
C150	C	1.407459	0.249937	0.756112
C151	C	1.657459	0.499937	1.006112
C152	C	1.907459	0.749937	1.256112
H153	H	1.024301	-0.444409	0.340567
H154	H	1.274301	-0.194409	0.590567
H155	H	1.524301	0.055591	0.840567
H156	H	1.774301	0.305591	1.090567
H157	H	0.626951	-0.000086	0.113425
H158	H	0.876951	0.249914	0.363425
H159	H	1.126951	0.499914	0.613425
H160	H	1.376951	0.749914	0.863425
O161	O	0.662838	-0.000052	0.362670
O162	O	0.912838	0.249948	0.612670
O163	O	1.162838	0.499948	0.862670
O164	O	1.412838	0.749948	1.112670
H165	H	0.741224	-0.000035	0.356040
H166	H	0.991224	0.249965	0.606040
H167	H	1.241224	0.499965	0.856040
H168	H	1.491224	0.749965	1.106040
O169	O	1.193401	-0.564381	0.412240
O170	O	1.443401	-0.314381	0.662240
O171	O	1.693401	-0.064381	0.912240
O172	O	1.943401	0.185619	1.162240
H173	H	1.141746	-0.540668	0.463611
H174	H	1.391746	-0.290668	0.713611
H175	H	1.641746	-0.040668	0.963611
H176	H	1.891746	0.209332	1.213611
O177	O	1.325109	-0.436014	0.280908
O178	O	1.575109	-0.186014	0.530908
O179	O	1.825109	0.063986	0.780908
O180	O	2.075109	0.313986	1.030908
H181	H	1.324321	-0.362127	0.280725
H182	H	1.574321	-0.112127	0.530725
H183	H	1.824321	0.137873	0.780725
H184	H	2.074321	0.387873	1.030725
O185	O	1.002170	-0.000080	-0.298006
O186	O	1.252170	0.249920	-0.048006
O187	O	1.502170	0.499920	0.201994
O188	O	1.752170	0.749920	0.451994
H189	H	1.008808	-0.000088	-0.376391
H190	H	1.258808	0.249912	-0.126391
H191	H	1.508808	0.499912	0.123609
H192	H	1.758808	0.749912	0.373609
O193	O	1.270605	-0.563973	0.094488
O194	O	1.520605	-0.313973	0.344488
O195	O	1.770605	-0.063973	0.594488
O196	O	2.020605	0.186027	0.844488
H197	H	1.305587	-0.506844	0.060476
H198	H	1.555587	-0.256844	0.310476
H199	H	1.805587	-0.006844	0.560476
H200	H	2.055587	0.243156	0.810476
O201	O	1.084200	-0.435796	0.039840
O202	O	1.334200	-0.185796	0.289840
O203	O	1.584200	0.064204	0.539840
O204	O	1.834200	0.314204	0.789840
H205	H	1.011243	-0.459529	0.018588
H206	H	1.261243	-0.209529	0.268588
H207	H	1.511243	0.040471	0.518588
H208	H	1.761243	0.290471	0.768588
O209	O	0.952645	-0.564312	0.171312
O210	O	1.202645	-0.314312	0.421312
O211	O	1.452645	-0.064312	0.671312
O212	O	1.702645	0.185688	0.921312
H213	H	0.901247	-0.540565	0.222925
H214	H	1.151247	-0.290565	0.472925
H215	H	1.401247	-0.040565	0.722925
H216	H	1.651247	0.209435	0.972925
H217	H	1.251414	-0.000024	-0.262117
H218	H	1.501414	0.249976	-0.012117
H219	H	1.751414	0.499976	0.237883
H220	H	2.001414	0.749976	0.487883
