data_functionalizedCrystal
_audit_creation_method	'MofGen! by Chris Wilmer'
_symmetry_space_group_name_H-M	'P1'
_symmetry_Int_Tables_number	1
_symmetry_cell_setting	triclinic
loop_
_symmetry_equiv_pos_as_xyz
  x,y,z
_cell_length_a	19.805407
_cell_length_b	12.594516
_cell_length_c	19.805398
_cell_angle_alpha	89.980868
_cell_angle_beta	89.984135
_cell_angle_gamma	90.016053
loop_
_atom_site_label
_atom_site_type_symbol
_atom_site_fract_x
_atom_site_fract_y
_atom_site_fract_z
Zn1	Zn	1.034760	-0.423784	-0.382752
Zn2	Zn	1.034702	-0.601773	-0.269577
Zn3	Zn	0.921582	-0.423808	-0.269576
Zn4	Zn	0.921558	-0.601721	-0.382723
O5	O	0.978150	-0.512772	-0.326157
O6	O	1.129469	-0.447406	-0.367751
O7	O	1.019682	-0.578197	-0.174860
O8	O	0.936629	-0.274859	-0.284601
O9	O	1.129426	-0.578173	-0.284602
O10	O	1.019780	-0.274842	-0.367750
O11	O	0.936573	-0.447447	-0.174860
O12	O	0.826862	-0.447398	-0.284573
O13	O	0.936589	-0.578086	-0.477444
O14	O	0.826845	-0.578109	-0.367702
O15	O	1.019757	-0.447356	-0.477464
O16	O	1.019660	-0.750712	-0.284574
O17	O	0.936533	-0.750674	-0.367703
C18	C	0.802294	-0.512751	-0.326135
C19	C	0.727062	-0.512768	-0.326142
C20	C	0.691727	-0.580932	-0.369357
C21	C	0.621039	-0.580934	-0.369366
C22	C	0.585687	-0.512776	-0.326157
C23	C	0.621027	-0.444605	-0.282940
C24	C	0.691714	-0.444598	-0.282934
C25	C	0.335954	-0.444628	-0.282962
C26	C	0.265262	-0.444642	-0.282970
C27	C	0.265278	-0.580964	-0.369394
C28	C	0.335965	-0.580958	-0.369389
C29	C	0.371299	-0.512783	-0.326175
C30	C	0.447948	-0.512780	-0.326166
C31	C	0.509040	-0.512784	-0.326162
C32	C	0.978106	-0.789313	-0.326150
C33	C	0.978149	-0.907618	-0.326170
C34	C	0.932932	-0.976889	-0.371352
C35	C	0.916447	-1.047743	-0.309590
C36	C	0.994695	-1.047564	-0.387943
C37	C	0.961632	-0.976913	-0.264375
C38	C	1.039908	-0.976728	-0.342770
C39	C	1.023447	-1.047549	-0.280965
C40	C	1.154693	-0.512793	-0.326179
C41	C	1.229925	-0.512802	-0.326189
C42	C	0.978177	-0.512713	-0.502700
C43	C	0.978188	-0.512688	-0.577932
C44	C	0.978213	-0.235151	-0.326178
C45	C	0.978240	-0.116845	-0.326188
C46	C	1.021576	-0.444428	-1.039735
C47	C	1.021565	-0.444461	-0.969046
C48	C	0.978258	-0.512539	-0.933694
C49	C	0.934963	-0.580598	-0.969033
C50	C	0.934977	-0.580570	-1.039720
C51	C	0.934904	-0.580713	-0.683960
C52	C	0.934891	-0.580734	-0.613268
C53	C	1.021492	-0.444604	-0.613286
C54	C	1.021506	-0.444576	-0.683973
C55	C	0.978214	-0.512638	-0.719306
C56	C	0.978227	-0.512603	-0.795955
C57	C	0.978241	-0.512570	-0.857047
C58	C	0.978163	-0.512754	-0.150301
C59	C	0.978283	-0.512479	-0.075069
H60	H	0.720483	-0.389087	-0.247748
O61	O	0.726095	-0.647254	-0.411235
C62	C	0.766973	-0.715901	-0.372627
H63	H	0.745652	-0.722369	-0.319313
H64	H	0.767771	-0.797863	-0.397022
H65	H	0.820550	-0.682983	-0.370327
O66	O	0.892883	-0.646847	-0.934798
C67	C	0.854668	-0.706896	-0.981146
H68	H	0.882397	-0.710543	-1.031539
H69	H	0.847443	-0.790771	-0.960722
H70	H	0.803265	-0.667932	-0.988655
O71	O	0.854147	-1.084910	-0.292953
C72	C	0.806575	-1.048895	-0.340694
H73	H	0.833450	-1.028955	-0.390003
H74	H	0.767524	-1.113718	-0.350152
H75	H	0.780283	-0.974891	-0.320534
O76	O	1.011433	-1.084714	-0.450203
C77	C	1.070752	-1.146160	-0.445608
H78	H	1.076797	-1.176710	-0.391761
H79	H	1.067192	-1.216306	-0.481798
H80	H	1.116231	-1.095153	-0.459551
O81	O	0.944792	-0.940002	-0.202086
C82	C	0.885810	-0.877780	-0.206787
H83	H	0.856375	-0.901321	-0.253920
H84	H	0.853122	-0.891416	-0.160195
H85	H	0.900237	-0.790292	-0.210045
O86	O	0.887279	-0.939994	-0.416953
C87	C	0.904149	-0.977515	-0.481864
H88	H	0.936012	-1.052507	-0.477079
H89	H	0.855986	-0.996319	-0.511016
H90	H	0.934089	-0.914064	-0.509985
H91	H	1.061725	-1.078380	-0.242720
O92	O	0.586819	-0.647262	-0.411359
C93	C	0.633179	-0.707409	-0.449501
H94	H	0.683558	-0.711016	-0.421770
H95	H	0.612749	-0.791292	-0.456620
H96	H	0.640718	-0.668558	-0.500953
H97	H	1.092083	-0.945514	-0.356826
O98	O	0.370201	-0.647199	-0.411427
C99	C	0.323854	-0.707383	-0.449562
H100	H	0.273472	-0.663798	-0.451955
H101	H	0.344296	-0.718843	-0.502876
H102	H	0.316317	-0.788170	-0.424692
H103	H	1.056837	-0.388984	-1.068514
O104	O	1.063640	-0.378253	-0.934827
C105	C	1.101875	-0.318173	-0.981188
H106	H	1.074160	-0.314467	-1.031573
H107	H	1.109107	-0.234320	-0.960769
H108	H	1.153275	-0.357148	-0.988710
O109	O	0.231024	-0.378324	-0.240975
C110	C	0.277368	-0.318166	-0.202821
H111	H	0.327768	-0.314532	-0.230543
H112	H	0.256949	-0.234293	-0.195698
H113	H	0.284862	-0.357024	-0.151370
H114	H	1.056769	-0.389136	-0.712754
O115	O	1.063457	-0.378439	-0.578889
C116	C	1.024927	-0.309690	-0.538014
H117	H	0.973625	-0.347234	-0.527413
H118	H	1.052492	-0.295440	-0.488311
H119	H	1.017507	-0.230804	-0.565262
H120	H	0.236501	-0.636471	-0.404584
O121	O	0.892805	-0.646981	-0.579029
C122	C	0.854589	-0.707035	-0.625372
H123	H	0.882318	-0.710698	-0.675764
H124	H	0.847358	-0.790904	-0.604941
H125	H	0.803188	-0.668066	-0.632885
O126	O	0.892889	-0.646525	-1.074121
C127	C	0.849183	-0.585908	-1.114999
H128	H	0.873072	-0.505244	-1.125595
H129	H	0.840115	-0.629244	-1.164703
H130	H	0.799019	-0.574222	-1.087756
O131	O	0.892923	-0.646802	-0.718381
C132	C	0.902213	-0.632181	-0.788353
H133	H	0.954452	-0.597302	-0.798013
H134	H	0.897628	-0.711907	-0.815203
H135	H	0.862074	-0.575513	-0.808424
O136	O	0.370376	-0.378450	-0.241043
C137	C	0.440348	-0.393069	-0.250288
H138	H	0.450020	-0.428031	-0.302486
H139	H	0.467219	-0.313329	-0.245774
H140	H	0.460384	-0.449667	-0.210080
O141	O	0.586584	-0.378490	-0.240991
C142	C	0.516616	-0.393092	-0.250274
H143	H	0.506957	-0.475283	-0.272350
H144	H	0.489734	-0.385759	-0.199585
H145	H	0.496579	-0.330040	-0.286391
