data_functionalizedCrystal
_audit_creation_method	'MofGen! by Chris Wilmer'
_symmetry_space_group_name_H-M	'P1'
_symmetry_Int_Tables_number	1
_symmetry_cell_setting	triclinic
loop_
_symmetry_equiv_pos_as_xyz
  x,y,z
_cell_length_a	10.723024
_cell_length_b	10.723024
_cell_length_c	9.198806
_cell_angle_alpha	90.002012
_cell_angle_beta	90.003648
_cell_angle_gamma	84.467869
loop_
_atom_site_label
_atom_site_type_symbol
_atom_site_fract_x
_atom_site_fract_y
_atom_site_fract_z
O1	O	-1.657188	-0.175024	-0.120879
O2	O	-1.294035	-0.191778	-0.120884
O3	O	-1.483988	-0.001825	-0.120876
O4	O	-1.467235	-0.364977	-0.120887
O5	O	-1.483973	-0.001824	0.120909
O6	O	-1.294020	-0.191777	0.120901
O7	O	-1.657173	-0.175024	0.120906
Cu8	Cu	-1.475595	-0.183401	0.142981
Cu9	Cu	-1.475613	-0.183401	-0.142958
O10	O	-1.467220	-0.364977	0.120898
C11	C	-1.247528	-0.190558	0.000008
C12	C	-1.108974	-0.186911	0.000007
C13	C	-1.482762	0.044675	0.000015
C14	C	-1.479114	0.183229	0.000010
C15	C	-1.703680	-0.176243	0.000011
C16	C	-1.842234	-0.179891	0.000003
C17	C	-0.917217	-0.073603	0.000007
C18	C	-1.060420	-0.077371	0.000009
N19	N	-1.475592	-0.183399	0.344095
C20	C	-1.468447	-0.411477	0.000004
C21	C	-1.472094	-0.550031	-0.000000
C22	C	-1.585401	0.258212	0.000009
C23	C	-1.581634	0.401415	0.000004
N24	N	-1.475626	-0.183393	-0.344072
C25	C	-1.555347	-0.103292	0.416295
C26	C	-1.555367	-0.103288	0.583707
H27	H	-0.875395	0.020182	0.000032
H28	H	-1.044549	-0.277906	-0.000003
Cl29	Cl	-0.906793	-0.324697	0.000011
Cl30	Cl	-1.730207	0.193653	0.000002
Cl31	Cl	-1.722124	0.500888	0.000014
H32	H	-1.623611	-0.034707	0.354171
H33	H	-1.623653	-0.034709	0.645796
H34	H	-1.381099	0.385544	0.000010
H35	H	-1.385328	0.225051	-0.000001
Cl36	Cl	-1.370202	-0.289295	0.560082
Cl37	Cl	-1.370180	-0.289280	0.440001
Cl38	Cl	-1.159893	0.063119	0.000003
