data_functionalizedCrystal
_audit_creation_method	'MofGen! by Chris Wilmer'
_symmetry_space_group_name_H-M	'P1'
_symmetry_Int_Tables_number	1
_symmetry_cell_setting	triclinic
loop_
_symmetry_equiv_pos_as_xyz
  x,y,z
_cell_length_a	12.759401
_cell_length_b	16.625546
_cell_length_c	16.625539
_cell_angle_alpha	90.030397
_cell_angle_beta	90.017397
_cell_angle_gamma	90.022629
loop_
_atom_site_label
_atom_site_type_symbol
_atom_site_fract_x
_atom_site_fract_y
_atom_site_fract_z
Zn1	Zn	1.606187	-0.320997	0.455829
Zn2	Zn	1.856187	-0.070997	0.705829
Zn3	Zn	2.106187	0.179003	0.955829
Zn4	Zn	2.356187	0.429003	1.205829
Zn5	Zn	1.606061	-0.455840	0.320992
Zn6	Zn	1.856061	-0.205840	0.570992
Zn7	Zn	2.106061	0.044160	0.820992
Zn8	Zn	2.356061	0.294160	1.070992
Zn9	Zn	1.430493	-0.321025	0.321017
Zn10	Zn	1.680493	-0.071025	0.571017
Zn11	Zn	1.930493	0.178975	0.821017
Zn12	Zn	2.180493	0.428975	1.071017
Zn13	Zn	1.430454	-0.455791	0.455789
Zn14	Zn	1.680454	-0.205791	0.705789
Zn15	Zn	1.930454	0.044209	0.955789
Zn16	Zn	2.180454	0.294209	1.205789
O17	O	1.518299	-0.388413	0.388407
O18	O	1.768299	-0.138413	0.638407
O19	O	2.018299	0.111587	0.888407
O20	O	2.268299	0.361587	1.138407
O21	O	1.753192	-0.338892	0.437949
O22	O	2.003192	-0.088892	0.687949
O23	O	2.253192	0.161108	0.937949
O24	O	2.503192	0.411108	1.187949
O25	O	1.582735	-0.437989	0.208163
O26	O	1.832735	-0.187989	0.458163
O27	O	2.082735	0.062011	0.708163
O28	O	2.332735	0.312011	0.958163
O29	O	1.453868	-0.208189	0.338928
O30	O	1.703868	0.041811	0.588928
O31	O	1.953868	0.291811	0.838928
O32	O	2.203868	0.541811	1.088928
O33	O	1.753099	-0.437961	0.338884
O34	O	2.003099	-0.187961	0.588884
O35	O	2.253099	0.062039	0.838884
O36	O	2.503099	0.312039	1.088884
O37	O	1.582950	-0.208168	0.437974
O38	O	1.832950	0.041832	0.687974
O39	O	2.082950	0.291832	0.937974
O40	O	2.332950	0.541832	1.187974
O41	O	1.453745	-0.338941	0.208182
O42	O	1.703745	-0.088941	0.458182
O43	O	1.953745	0.161059	0.708182
O44	O	2.203745	0.411059	0.958182
O45	O	1.283466	-0.338894	0.338889
O46	O	1.533466	-0.088894	0.588889
O47	O	1.783466	0.161106	0.838889
O48	O	2.033466	0.411106	1.088889
O49	O	1.453802	-0.437878	0.568627
O50	O	1.703802	-0.187878	0.818627
O51	O	1.953802	0.062122	1.068627
O52	O	2.203802	0.312122	1.318627
O53	O	1.283438	-0.437906	0.437905
O54	O	1.533438	-0.187906	0.687905
O55	O	1.783438	0.062094	0.937905
O56	O	2.033438	0.312094	1.187905
O57	O	1.582913	-0.338845	0.568656
O58	O	1.832913	-0.088845	0.818656
O59	O	2.082913	0.161155	1.068656
O60	O	2.332913	0.411155	1.318656
O61	O	1.582698	-0.568666	0.338845
O62	O	1.832698	-0.318666	0.588845
O63	O	2.082698	-0.068666	0.838845
O64	O	2.332698	0.181334	1.088845
O65	O	1.453680	-0.568630	0.437880
O66	O	1.703680	-0.318630	0.687880
O67	O	1.953680	-0.068630	0.937880
O68	O	2.203680	0.181370	1.187880
C69	C	1.245331	-0.388399	0.388396
C70	C	1.495331	-0.138399	0.638396
C71	C	1.745331	0.111601	0.888396
C72	C	1.995331	0.361601	1.138396
C73	C	1.128555	-0.388412	0.388410
C74	C	1.378555	-0.138412	0.638410
C75	C	1.628555	0.111588	0.888410
C76	C	1.878555	0.361588	1.138410
C77	C	1.073705	-0.440050	0.439883
C78	C	1.323705	-0.190050	0.689883
C79	C	1.573705	0.059950	0.939883
C80	C	1.823705	0.309950	1.189883
C81	C	0.963981	-0.440060	0.439892
C82	C	1.213981	-0.190060	0.689892
C83	C	1.463981	0.059940	0.939892
C84	C	1.713981	0.309940	1.189892
C85	C	0.963966	-0.336792	0.336949
C86	C	1.213966	-0.086792	0.586949
C87	C	1.463966	0.163208	0.836949
C88	C	1.713966	0.413208	1.086949
C89	C	1.073688	-0.336778	0.336944
C90	C	1.323688	-0.086778	0.586944
C91	C	1.573688	0.163222	0.836944
C92	C	1.823688	0.413222	1.086944
C93	C	1.073714	-0.499673	0.499314
C94	C	1.323714	-0.249673	0.749314
C95	C	1.573714	0.000327	0.999314
C96	C	1.823714	0.250327	1.249314
C97	C	0.963990	-0.499684	0.499322
C98	C	1.213990	-0.249684	0.749322
C99	C	1.463990	0.000316	0.999322
C100	C	1.713990	0.250316	1.249322
C101	C	1.518199	-0.597904	0.388373
C102	C	1.768199	-0.347904	0.638373
C103	C	2.018199	-0.097904	0.888373
C104	C	2.268199	0.152096	1.138373
C105	C	1.518253	-0.687525	0.388386
C106	C	1.768253	-0.437525	0.638386
C107	C	2.018253	-0.187525	0.888386
C108	C	2.268253	0.062475	1.138386
C109	C	1.518436	-1.015701	0.388470
C110	C	1.768436	-0.765701	0.638470
C111	C	2.018436	-0.515701	0.888470
C112	C	2.268436	-0.265701	1.138470
C113	C	1.518382	-0.924392	0.388448
C114	C	1.768382	-0.674392	0.638448
C115	C	2.018382	-0.424392	0.888448
C116	C	2.268382	-0.174392	1.138448
C117	C	1.518344	-0.851616	0.388427
C118	C	1.768344	-0.601616	0.638427
C119	C	2.018344	-0.351616	0.888427
C120	C	2.268344	-0.101616	1.138427
C121	C	1.518291	-0.760302	0.388407
C122	C	1.768291	-0.510302	0.638407
C123	C	2.018291	-0.260302	0.888407
C124	C	2.268291	-0.010302	1.138407
C125	C	1.792332	-0.388429	0.388418
C126	C	2.042332	-0.138429	0.638418
C127	C	2.292332	0.111571	0.888418
C128	C	2.542332	0.361571	1.138418
C129	C	1.909109	-0.388435	0.388423
C130	C	2.159109	-0.138435	0.638423
C131	C	2.409109	0.111565	0.888423
C132	C	2.659109	0.361565	1.138423
C133	C	1.518367	-0.388353	0.598716
C134	C	1.768367	-0.138353	0.848716
C135	C	2.018367	0.111647	1.098716
C136	C	2.268367	0.361647	1.348716
C137	C	1.518396	-0.388328	0.688337
C138	C	1.768396	-0.138328	0.938337
C139	C	2.018396	0.111672	1.188337
C140	C	2.268396	0.361672	1.438337
C141	C	1.518427	-0.178104	0.388458
C142	C	1.768427	0.071896	0.638458
C143	C	2.018427	0.321896	0.888458
C144	C	2.268427	0.571896	1.138458
C145	C	1.518482	-0.088483	0.388480
C146	C	1.768482	0.161517	0.638480
C147	C	2.018482	0.411517	0.888480
C148	C	2.268482	0.661517	1.138480
C149	C	1.518291	-0.388415	0.178916
C150	C	1.768291	-0.138415	0.428916
C151	C	2.018291	0.111585	0.678916
C152	C	2.268291	0.361585	0.928916
C153	C	1.518466	-0.388213	0.089295
C154	C	1.768466	-0.138213	0.339295
C155	C	2.018466	0.111787	0.589295
C156	C	2.268466	0.361787	0.839295
C157	C	1.518445	-0.388237	1.016513
C158	C	1.768445	-0.138237	1.266513
C159	C	2.018445	0.111763	1.516513
C160	C	2.268445	0.361763	1.766513
C161	C	1.518428	-0.388265	0.925204
C162	C	1.768428	-0.138265	1.175204
C163	C	2.018428	0.111735	1.425204
C164	C	2.268428	0.361735	1.675204
C165	C	1.518421	-0.388283	0.852428
C166	C	1.768421	-0.138283	1.102428
C167	C	2.018421	0.111717	1.352428
C168	C	2.268421	0.361717	1.602428
C169	C	1.518403	-0.388310	0.761114
C170	C	1.768403	-0.138310	1.011114
C171	C	2.018403	0.111690	1.261114
C172	C	2.268403	0.361690	1.511114
H173	H	0.919279	-0.294753	0.295048
H174	H	1.169279	-0.044753	0.545048
H175	H	1.419279	0.205247	0.795048
H176	H	1.669279	0.455247	1.045048
H177	H	1.118342	-0.294724	0.295036
H178	H	1.368342	-0.044724	0.545036
H179	H	1.618342	0.205276	0.795036
H180	H	1.868342	0.455276	1.045036
H181	H	0.934183	-0.562114	0.482485
H182	H	1.184183	-0.312114	0.732485
H183	H	1.434183	-0.062114	0.982485
H184	H	1.684183	0.187886	1.232485
H185	H	1.103523	-0.483026	0.561791
H186	H	1.353523	-0.233026	0.811791
H187	H	1.603523	0.016974	1.061791
H188	H	1.853523	0.266974	1.311791
H189	H	1.107718	-0.558959	0.476834
H190	H	1.357718	-0.308959	0.726834
H191	H	1.607718	-0.058959	0.976834
H192	H	1.857718	0.191041	1.226834
N193	N	0.918946	-0.470096	0.577927
N194	N	1.168946	-0.220096	0.827927
N195	N	1.418946	0.029904	1.077927
N196	N	1.668946	0.279904	1.327927
H197	H	0.977884	-0.455805	0.615907
H198	H	1.227884	-0.205805	0.865907
H199	H	1.477884	0.044195	1.115907
H200	H	1.727884	0.294195	1.365907
H201	H	0.874336	-0.513754	0.602659
H202	H	1.124336	-0.263754	0.852659
H203	H	1.374336	-0.013754	1.102659
H204	H	1.624336	0.236246	1.352659
