data_functionalizedCrystal
_audit_creation_method	'MofGen! by Chris Wilmer'
_symmetry_space_group_name_H-M	'P1'
_symmetry_Int_Tables_number	1
_symmetry_cell_setting	triclinic
loop_
_symmetry_equiv_pos_as_xyz
  x,y,z
_cell_length_a	12.759401
_cell_length_b	19.076808
_cell_length_c	12.759393
_cell_angle_alpha	92.335254
_cell_angle_beta	90.019684
_cell_angle_gamma	92.322618
loop_
_atom_site_label
_atom_site_type_symbol
_atom_site_fract_x
_atom_site_fract_y
_atom_site_fract_z
Zn1	Zn	1.589373	-0.280193	0.577170
Zn2	Zn	2.089373	0.219807	1.077170
Zn3	Zn	1.582174	-0.397916	0.394412
Zn4	Zn	2.082174	0.102084	0.894412
Zn5	Zn	1.413673	-0.280228	0.401503
Zn6	Zn	1.913673	0.219772	0.901503
Zn7	Zn	1.406574	-0.397860	0.570054
Zn8	Zn	1.906574	0.102140	1.070054
O9	O	1.497949	-0.339049	0.485785
O10	O	1.997949	0.160951	0.985785
O11	O	1.735439	-0.295818	0.552937
O12	O	2.235439	0.204182	1.052937
O13	O	1.559781	-0.382343	0.248330
O14	O	2.059781	0.117657	0.748330
O15	O	1.442964	-0.181726	0.430752
O16	O	1.942964	0.318274	0.930752
O17	O	1.730150	-0.382309	0.418666
O18	O	2.230150	0.117691	0.918666
O19	O	1.572050	-0.181701	0.559813
O20	O	2.072050	0.318299	1.059813
O21	O	1.435983	-0.295877	0.253539
O22	O	1.935983	0.204123	0.753539
O23	O	1.265711	-0.295823	0.423851
O24	O	1.765711	0.204177	0.923851
O25	O	1.430865	-0.382213	0.718021
O26	O	1.930865	0.117787	1.218021
O27	O	1.260495	-0.382247	0.547684
O28	O	1.760495	0.117753	1.047684
O29	O	1.565166	-0.295764	0.723249
O30	O	2.065166	0.204236	1.223249
O31	O	1.552897	-0.496406	0.411766
O32	O	2.052897	0.003594	0.911766
O33	O	1.423884	-0.496364	0.540809
O34	O	1.923884	0.003636	1.040809
C35	C	1.224982	-0.339033	0.485766
C36	C	1.724982	0.160967	0.985766
C37	C	1.108205	-0.339043	0.485782
C38	C	1.608205	0.160957	0.985782
C39	C	1.056031	-0.293983	0.421429
C40	C	1.556031	0.206017	0.921429
C41	C	0.946306	-0.293999	0.421441
C42	C	1.446306	0.206001	0.921441
C43	C	0.940938	-0.384138	0.550168
C44	C	1.440938	0.115862	1.050168
C45	C	1.050661	-0.384125	0.550149
C46	C	1.550661	0.115875	1.050149
C47	C	1.059130	-0.241940	0.347112
C48	C	1.559130	0.258060	0.847112
C49	C	0.949405	-0.241956	0.347125
C50	C	1.449405	0.258044	0.847125
C51	C	1.486868	-0.521924	0.474768
C52	C	1.986868	-0.021924	0.974768
C53	C	1.482223	-0.600159	0.470091
C54	C	1.982223	-0.100159	0.970091
C55	C	1.547199	-0.636840	0.535143
C56	C	2.047199	-0.136840	1.035143
C57	C	1.542831	-0.710349	0.530750
C58	C	2.042831	-0.210349	1.030750
C59	C	1.473491	-0.747177	0.461298
C60	C	1.973491	-0.247177	0.961298
C61	C	1.408508	-0.710491	0.396243
C62	C	1.908508	-0.210491	0.896243
C63	C	1.412872	-0.636982	0.400643
C64	C	1.912872	-0.136982	0.900643
C65	C	1.453235	-0.967031	0.440934
C66	C	1.953235	-0.467031	0.940934
C67	C	1.448878	-1.040545	0.436537
C68	C	1.948878	-0.540545	0.936537
C69	C	1.583200	-1.040398	0.571046
C70	C	2.083200	-0.540398	1.071046
C71	C	1.587562	-0.966888	0.575434
C72	C	2.087562	-0.466888	1.075434
C73	C	1.522575	-0.930209	0.510384
C74	C	2.022575	-0.430209	1.010384
N75	N	1.469027	-0.822315	0.456803
N76	N	1.969027	-0.322315	0.956803
N77	N	1.527035	-0.855071	0.514884
N78	N	2.027035	-0.355071	1.014884
C79	C	1.771981	-0.339066	0.485804
C80	C	2.271981	0.160934	0.985804
C81	C	1.888757	-0.339073	0.485813
C82	C	2.388757	0.160927	0.985813
C83	C	1.498026	-0.338978	0.759822
C84	C	1.998026	0.161022	1.259822
C85	C	1.498060	-0.338948	0.876601
C86	C	1.998060	0.161052	1.376601
C87	C	1.509102	-0.155460	0.496867
C88	C	2.009102	0.344540	0.996867
C89	C	1.513854	-0.077226	0.501590
C90	C	2.013854	0.422774	1.001590
C91	C	1.497935	-0.339069	0.212816
C92	C	1.997935	0.160931	0.712816
C93	C	1.498117	-0.338901	0.096050
C94	C	1.998117	0.161099	0.596050
C95	C	1.568000	-0.293929	0.934187
C96	C	2.068000	0.206071	1.434187
C97	C	1.568027	-0.293904	1.043913
C98	C	2.068027	0.206096	1.543913
C99	C	1.428169	-0.383921	1.038456
C100	C	1.928169	0.116079	1.538456
C101	C	1.428138	-0.383943	0.928733
C102	C	1.928138	0.116057	1.428733
C103	C	1.648749	-0.241961	0.937339
C104	C	2.148749	0.258039	1.437339
C105	C	1.648775	-0.241935	1.047064
C106	C	2.148775	0.258065	1.547064
H107	H	1.093136	-0.420824	0.602541
H108	H	1.593136	0.079176	1.102541
H109	H	1.595750	-0.740212	0.583714
H110	H	2.095750	-0.240212	1.083714
H111	H	1.096301	-0.190177	0.379502
H112	H	1.596301	0.309823	0.879502
H113	H	1.724843	-0.261503	0.902129
H114	H	2.224843	0.238497	1.402129
Cl115	Cl	0.868589	-0.440812	0.631079
Cl116	Cl	1.368589	0.059188	1.131079
Cl117	Cl	1.361706	-1.086841	0.349217
Cl118	Cl	1.861706	-0.586841	0.849217
Cl119	Cl	1.340273	-0.440484	1.104000
Cl120	Cl	1.840273	0.059516	1.604000
H121	H	1.087987	-0.256470	0.264825
H122	H	1.587987	0.243530	0.764825
H123	H	1.644024	-0.936905	0.631987
H124	H	2.144024	-0.436905	1.131987
Cl125	Cl	1.620210	-0.157804	0.896448
Cl126	Cl	2.120210	0.342196	1.396448
H127	H	0.914161	-0.261423	0.268611
H128	H	1.414161	0.238577	0.768611
H129	H	0.922925	-0.187463	0.372337
H130	H	1.422925	0.312537	0.872337
H131	H	1.603667	-0.606859	0.591693
H132	H	2.103667	-0.106859	1.091693
Cl133	Cl	1.664888	-1.086514	0.652823
Cl134	Cl	2.164888	-0.586514	1.152823
H135	H	1.400322	-0.937172	0.387965
H136	H	1.900322	-0.437172	0.887965
H137	H	1.352046	-0.740481	0.339699
H138	H	1.852046	-0.240481	0.839699
Cl139	Cl	1.331183	-0.590869	0.318861
Cl140	Cl	1.831183	-0.090869	0.818861
Cl141	Cl	1.340193	-0.440528	0.856342
Cl142	Cl	1.840193	0.059472	1.356342
Cl143	Cl	1.608492	-0.162011	1.104445
Cl144	Cl	2.108492	0.337989	1.604445
Cl145	Cl	1.773046	-0.264468	1.091696
Cl146	Cl	2.273046	0.235532	1.591696
