data_functionalizedCrystal
_audit_creation_method	'MofGen! by Chris Wilmer'
_symmetry_space_group_name_H-M	'P1'
_symmetry_Int_Tables_number	1
_symmetry_cell_setting	triclinic
loop_
_symmetry_equiv_pos_as_xyz
  x,y,z
_cell_length_a	10.654545
_cell_length_b	10.654550
_cell_length_c	9.730223
_cell_angle_alpha	90.004253
_cell_angle_beta	89.997167
_cell_angle_gamma	95.515995
loop_
_atom_site_label
_atom_site_type_symbol
_atom_site_fract_x
_atom_site_fract_y
_atom_site_fract_z
O1	O	1.667842	-0.176372	-0.114276
O2	O	1.302363	-0.193184	-0.114282
O3	O	1.493506	-0.002038	-0.114270
O4	O	1.476700	-0.367517	-0.114287
O5	O	1.493493	-0.002033	0.114310
O6	O	1.302351	-0.193178	0.114298
O7	O	1.667830	-0.176366	0.114304
Zn8	Zn	1.485088	-0.184771	0.150593
Zn9	Zn	1.485105	-0.184778	-0.150571
O10	O	1.476687	-0.367512	0.114292
C11	C	1.255559	-0.191948	0.000008
C12	C	1.116115	-0.188258	0.000006
C13	C	1.050604	-0.186518	0.124606
C14	C	0.919585	-0.183031	0.124606
C15	C	0.919599	-0.183028	-0.124605
C16	C	1.050617	-0.186507	-0.124603
C17	C	1.714634	-0.177602	0.000012
C18	C	1.854078	-0.181292	0.000005
C19	C	1.492266	0.044762	0.000019
C20	C	1.488574	0.184206	0.000017
C21	C	1.477927	-0.414312	0.000000
C22	C	1.481619	-0.553755	-0.000007
N23	N	1.485086	-0.184766	0.356130
C24	C	1.601115	0.263693	0.000018
C25	C	1.597639	0.394714	0.000002
C26	C	1.369069	0.366747	-0.000012
C27	C	1.372547	0.235729	-0.000005
N28	N	1.485117	-0.184774	-0.356107
C29	C	1.569753	-0.100163	0.428061
C30	C	1.569766	-0.100163	0.571944
C31	C	1.400440	-0.269381	0.571952
C32	C	1.400423	-0.269374	0.428071
H33	H	1.103929	-0.187944	0.226070
O34	O	0.855786	-0.181503	0.245553
C35	C	0.766727	-0.288079	0.253018
H36	H	0.742674	-0.323758	0.144831
H37	H	0.807906	-0.365453	0.314505
C38	C	0.675850	-0.207958	0.457131
C39	C	0.646300	-0.251773	0.324253
H40	H	0.601567	-0.185566	0.501078
H41	H	0.735853	-0.136158	0.452106
H42	H	0.710168	-0.272444	0.508353
H43	H	0.611998	-0.187283	0.273028
H44	H	0.586287	-0.323562	0.329271
O45	O	1.114179	-0.188421	-0.245683
C46	C	1.068866	-0.296133	-0.321513
H47	H	1.023557	-0.371069	-0.248617
H48	H	0.995827	-0.269566	-0.399210
C49	C	1.234889	-0.256415	-0.487395
C50	C	1.179248	-0.348457	-0.397860
H51	H	1.302975	-0.288689	-0.534495
H52	H	1.265415	-0.183845	-0.436310
H53	H	1.174011	-0.234284	-0.552130
H54	H	1.240121	-0.370574	-0.333117
H55	H	1.148735	-0.421033	-0.448936
H56	H	1.280896	0.171006	-0.000010
O57	O	1.256474	0.417007	0.000040
C58	C	1.277534	0.549693	0.000005
H59	H	1.375273	0.579608	0.043281
H60	H	1.271136	0.586202	-0.109657
C61	C	1.057107	0.568159	0.036490
C62	C	1.177148	0.604902	0.089654
H63	H	0.995182	0.602217	0.091783
H64	H	1.042917	0.478767	0.036508
H65	H	1.051793	0.598586	-0.054894
H66	H	1.182465	0.574462	0.181029
H67	H	1.191337	0.694292	0.089652
H68	H	0.866254	-0.181603	-0.226057
O69	O	1.713926	0.213850	-0.000038
C70	C	1.812512	0.312109	-0.000011
H71	H	1.776527	0.401400	-0.043287
H72	H	1.847280	0.330354	0.109649
C73	C	1.966040	0.164514	-0.036502
C74	C	1.921845	0.274179	-0.089666
H75	H	2.033485	0.141116	-0.091800
H76	H	1.899622	0.098313	-0.036515
H77	H	1.995005	0.179732	0.054880
H78	H	1.892867	0.258955	-0.181039
H79	H	1.988261	0.340377	-0.089670
H80	H	1.638690	-0.031268	0.369489
H81	H	1.689282	0.459428	-0.000000
O82	O	1.652135	-0.017936	0.641604
C83	C	1.726828	0.056760	0.547247
H84	H	1.728678	0.005254	0.444678
H85	H	1.685247	0.150441	0.531962
C86	C	1.859818	0.144641	0.729354
C87	C	1.862099	0.081376	0.603381
H88	H	1.943258	0.159832	0.763981
H89	H	1.809494	0.094321	0.792925
H90	H	1.825161	0.222702	0.716599
H91	H	1.896740	0.003311	0.616140
H92	H	1.912433	0.131684	0.539812
H93	H	1.331511	-0.338269	0.630541
H94	H	1.331471	-0.338268	0.369501
