data_functionalizedCrystal
_audit_creation_method	'MofGen! by Chris Wilmer'
_symmetry_space_group_name_H-M	'P1'
_symmetry_Int_Tables_number	1
_symmetry_cell_setting	triclinic
loop_
_symmetry_equiv_pos_as_xyz
  x,y,z
_cell_length_a	12.759395
_cell_length_b	15.297327
_cell_length_c	12.759387
_cell_angle_alpha	99.642565
_cell_angle_beta	89.979491
_cell_angle_gamma	99.708038
loop_
_atom_site_label
_atom_site_type_symbol
_atom_site_fract_x
_atom_site_fract_y
_atom_site_fract_z
Zn1	Zn	1.533819	-0.359077	-0.666313
Zn2	Zn	1.503266	-0.509964	-0.521018
Zn3	Zn	1.358107	-0.359126	-0.490660
Zn4	Zn	1.327678	-0.509900	-0.696644
O5	O	1.430717	-0.434517	-0.593659
O6	O	1.676786	-0.379099	-0.647051
O7	O	1.483958	-0.490002	-0.369979
O8	O	1.406937	-0.232874	-0.488562
O9	O	1.654338	-0.489955	-0.540303
O10	O	1.536031	-0.232838	-0.617614
O11	O	1.377311	-0.379183	-0.347675
O12	O	1.207051	-0.379120	-0.517973
O13	O	1.355076	-0.489845	-0.839632
O14	O	1.184695	-0.489893	-0.669309
O15	O	1.506526	-0.379037	-0.817348
O16	O	1.454452	-0.636201	-0.569714
O17	O	1.325449	-0.636154	-0.698746
C18	C	1.157752	-0.434506	-0.593639
C19	C	1.040972	-0.434523	-0.593659
C20	C	1.017694	-0.550057	-0.751065
C21	C	0.951193	-0.607831	-0.829773
C22	C	0.841469	-0.607842	-0.829788
C23	C	0.798245	-0.550070	-0.751089
C24	C	0.864747	-0.492296	-0.672381
C25	C	0.974471	-0.492294	-0.672373
C26	C	0.888026	-0.376759	-0.514982
C27	C	0.997749	-0.376751	-0.514960
C28	C	0.844802	-0.318988	-0.436283
C29	C	0.911303	-0.261217	-0.357569
C30	C	1.021033	-0.261209	-0.357556
C31	C	1.064250	-0.318977	-0.436253
C32	C	1.383362	-0.668911	-0.640838
C33	C	1.363199	-0.769187	-0.661057
C34	C	1.575257	-1.051818	-0.449512
C35	C	1.594200	-0.957605	-0.430510
C36	C	1.536452	-0.910495	-0.488145
C37	C	1.459756	-0.957609	-0.564785
C38	C	1.440805	-1.051832	-0.583783
C39	C	1.402000	-0.910509	-0.622416
C40	C	1.325305	-0.957623	-0.699056
C41	C	1.306358	-1.051836	-0.718051
C42	C	1.364106	-1.098945	-0.660416
C43	C	1.420952	-0.816286	-0.603419
C44	C	1.286500	-0.816300	-0.737690
C45	C	1.267557	-0.910513	-0.756692
C46	C	1.704749	-0.434528	-0.593680
C47	C	1.821524	-0.434533	-0.593689
C48	C	1.430815	-0.434428	-0.867675
C49	C	1.430856	-0.434391	-0.984444
C50	C	1.478287	-0.199207	-0.546318
C51	C	1.498558	-0.098932	-0.526145
C52	C	1.588569	-0.319013	-0.961261
C53	C	1.667443	-0.261311	-1.004527
C54	C	1.667475	-0.261278	-1.114242
C55	C	1.588623	-0.318952	-1.180694
C56	C	1.509749	-0.376654	-1.137428
C57	C	1.509727	-0.376682	-1.027709
C58	C	1.352034	-0.492025	-1.160610
C59	C	1.352004	-0.492064	-1.050896
C60	C	1.273182	-0.549699	-1.227062
C61	C	1.194310	-0.607407	-1.183796
C62	C	1.194282	-0.607438	-1.074074
C63	C	1.273130	-0.549766	-1.007629
C64	C	1.430694	-0.434540	-0.320696
C65	C	1.430908	-0.434323	-0.203876
H66	H	0.787323	-0.654882	-0.893883
O67	O	0.738246	-0.318854	-0.436360
C68	C	0.719053	-0.232420	-0.446097
H69	H	0.789825	-0.195167	-0.484475
H70	H	0.707462	-0.193255	-0.363914
C71	C	0.531221	-0.286986	-0.468771
C72	C	0.618140	-0.241234	-0.515916
H73	H	0.468971	-0.292421	-0.511834
H74	H	0.544150	-0.345218	-0.462207
H75	H	0.521576	-0.254342	-0.400286
H76	H	0.627792	-0.273883	-0.584392
H77	H	0.605210	-0.183007	-0.522493
O78	O	0.869244	-0.205233	-0.281042
C79	C	0.795356	-0.256526	-0.223438
H80	H	0.814065	-0.327572	-0.231102
H81	H	0.711582	-0.259672	-0.256566
C82	C	0.779559	-0.125077	-0.095999
C83	C	0.802543	-0.212334	-0.105404
H84	H	0.783988	-0.097816	-0.023191
H85	H	0.829336	-0.090519	-0.134810
H86	H	0.709749	-0.127711	-0.123612
H87	H	0.872357	-0.209699	-0.077804
H88	H	0.752778	-0.246891	-0.066586
O89	O	0.993012	-0.663977	-0.906322
C90	C	0.910784	-0.714985	-0.975778
H91	H	0.840034	-0.678043	-0.972061
H92	H	0.885265	-0.783461	-0.950950
C93	C	1.037901	-0.773481	-1.094772
C94	C	0.951008	-0.728104	-1.090213
H95	H	1.062713	-0.781577	-1.165360
H96	H	1.093300	-0.739118	-1.047977
H97	H	1.016623	-0.830539	-1.074076
H98	H	0.972290	-0.671042	-1.110896
H99	H	0.895613	-0.762457	-1.137015
H100	H	1.107034	-0.550060	-0.751055
H101	H	1.622261	-1.090183	-0.402587
O102	O	1.117748	-0.663550	-1.248254
C103	C	1.122535	-0.753479	-1.239565
H104	H	1.162523	-0.755383	-1.160290
H105	H	1.170420	-0.783847	-1.307440
C106	C	0.959947	-0.805779	-1.342841
C107	C	1.009053	-0.808118	-1.245470
H108	H	0.889948	-0.839485	-1.346488
H109	H	0.956724	-0.745193	-1.348699
H110	H	0.999862	-0.831084	-1.399393
H111	H	0.969146	-0.782803	-1.188921
H112	H	1.012268	-0.868702	-1.239603
O113	O	1.273183	-0.549835	-1.333672
C114	C	1.282707	-0.636287	-1.387717
H115	H	1.254227	-0.688265	-1.334935
H116	H	1.369497	-0.638208	-1.407581
C117	C	1.249325	-0.594077	-1.556043
C118	C	1.214336	-0.657917	-1.491220
H119	H	1.207155	-0.607418	-1.619891
H120	H	1.242912	-0.535830	-1.519633
H121	H	1.321650	-0.595684	-1.572586
H122	H	1.142017	-0.656301	-1.474667
H123	H	1.220736	-0.716164	-1.527629
O124	O	1.743991	-0.205379	-0.939832
C125	C	1.727043	-0.217764	-0.833713
H126	H	1.678541	-0.287384	-0.832725
H127	H	1.681920	-0.164250	-0.791799
C128	C	1.894572	-0.124029	-0.776960
C129	C	1.835009	-0.209540	-0.775747
H130	H	1.961169	-0.118953	-0.741201
H131	H	1.905989	-0.115682	-0.848454
H132	H	1.856958	-0.079443	-0.742034
H133	H	1.872617	-0.254124	-0.810684
H134	H	1.823601	-0.217895	-0.704257
H135	H	1.588649	-0.318912	-1.270028
H136	H	0.708903	-0.550077	-0.751116
H137	H	1.075174	-0.214156	-0.293469
H138	H	1.153591	-0.318979	-0.436248
H139	H	1.483397	-0.777935	-0.541017
H140	H	1.551879	-0.833783	-0.472668
O141	O	1.230431	-0.770648	-0.793851
C142	C	1.248746	-0.793569	-0.903206
H143	H	1.275376	-0.861948	-0.919206
H144	H	1.313423	-0.740482	-0.927935
C145	C	1.112702	-0.713966	-0.947990
C146	C	1.145401	-0.797954	-0.967643
H147	H	1.048956	-0.716667	-0.987739
H148	H	1.100365	-0.698520	-0.874315
H149	H	1.166608	-0.669736	-0.968597
H150	H	1.091501	-0.842180	-0.947024
H151	H	1.157726	-0.813407	-1.041316
H152	H	1.348689	-1.175661	-0.675886
H153	H	1.130044	-0.654417	-1.038852
H154	H	1.656644	-0.919248	-0.368109
O155	O	1.231971	-1.097561	-0.792635
C156	C	1.259515	-1.074436	-0.892703
H157	H	1.348666	-1.048474	-0.892844
H158	H	1.214170	-1.019768	-0.909094
C159	C	1.120928	-1.189982	-0.979505
C160	C	1.230428	-1.158102	-0.979681
H161	H	1.102982	-1.241589	-1.033159
H162	H	1.102368	-1.205560	-0.912088
H163	H	1.083154	-1.144418	-0.993161
H164	H	1.268199	-1.203662	-0.966012
H165	H	1.248993	-1.142533	-1.047099
H166	H	1.205110	-0.948887	-0.819092
H167	H	1.588559	-0.319043	-0.871926
H168	H	1.731696	-0.214286	-1.149468
H169	H	1.273118	-0.549790	-0.918293
