data_functionalizedCrystal
_audit_creation_method	'MofGen! by Chris Wilmer'
_symmetry_space_group_name_H-M	'P1'
_symmetry_Int_Tables_number	1
_symmetry_cell_setting	triclinic
loop_
_symmetry_equiv_pos_as_xyz
  x,y,z
_cell_length_a	10.654553
_cell_length_b	10.540514
_cell_length_c	9.130313
_cell_angle_alpha	90.001878
_cell_angle_beta	89.999282
_cell_angle_gamma	84.500669
loop_
_atom_site_label
_atom_site_type_symbol
_atom_site_fract_x
_atom_site_fract_y
_atom_site_fract_z
O1	O	1.667879	0.178316	-0.121805
O2	O	1.302405	0.195299	-0.121803
O3	O	1.493496	0.002096	-0.121806
O4	O	1.476787	0.371519	-0.121802
O5	O	1.493494	0.002101	0.121793
O6	O	1.302403	0.195304	0.121796
O7	O	1.667876	0.178321	0.121794
Cu8	Cu	1.485139	0.186813	0.144038
Cu9	Cu	1.485142	0.186807	-0.144046
O10	O	1.476785	0.371524	0.121797
C11	C	1.255606	0.194054	-0.000003
C12	C	1.116162	0.190321	-0.000003
C13	C	1.492249	-0.045205	-0.000010
C14	C	1.488520	-0.186153	-0.000021
C15	C	0.919619	0.185053	0.132772
C16	C	1.050640	0.188569	0.132781
C17	C	1.050653	0.188570	-0.132804
C18	C	0.919633	0.185064	-0.132811
C19	C	0.919613	0.185047	0.286106
C20	C	1.050635	0.188562	0.286114
C21	C	1.625186	-0.256906	-0.000018
C22	C	1.621353	-0.403518	0.000545
C23	C	1.414193	-0.378460	0.138827
C24	C	1.418995	-0.231922	0.138934
C25	C	1.416975	-0.231529	-0.138093
C26	C	1.415656	-0.378507	-0.139908
C27	C	1.714676	0.179566	-0.000009
C28	C	1.854120	0.183299	-0.000018
C29	C	1.478032	0.418825	-0.000002
C30	C	1.481761	0.559773	-0.000001
N31	N	1.485146	0.186817	0.346660
N32	N	1.485145	0.186793	-0.346669
C33	C	1.569784	0.101296	0.423311
C34	C	1.569780	0.101280	0.576648
C35	C	1.400498	0.272318	0.576670
C36	C	1.400497	0.272326	0.423336
C37	C	1.667521	0.002552	0.423299
C38	C	1.667517	0.002537	0.576636
H39	H	1.104009	0.190009	-0.240919
N40	N	0.858332	0.301248	0.364094
H41	H	0.880323	0.380700	0.312003
H42	H	0.763822	0.298649	0.364116
N43	N	1.278391	-0.407982	0.145171
H44	H	1.236808	-0.367346	0.235272
H45	H	1.232572	-0.373061	0.054813
H46	H	0.866306	0.183652	-0.240942
N47	N	0.880391	0.062414	0.349116
H48	H	0.957808	0.005741	0.379568
H49	H	0.824604	0.082154	0.437224
H50	H	1.313911	-0.402667	-0.148710
N51	N	1.283453	-0.168875	-0.139878
H52	H	1.269120	-0.116755	-0.232232
H53	H	1.222546	-0.236584	-0.136802
H54	H	1.462467	-0.200051	-0.243354
N55	N	1.111919	0.072359	0.364090
H56	H	1.089940	-0.007092	0.311982
H57	H	1.206429	0.074967	0.364119
H58	H	1.331568	0.341953	0.360928
N59	N	1.089845	0.311203	0.349133
H60	H	1.012424	0.367875	0.379583
H61	H	1.145629	0.291473	0.437244
N62	N	1.309210	0.364543	0.659381
H63	H	1.324461	0.454783	0.632711
H64	H	1.219990	0.348969	0.632660
H65	H	1.646052	-0.095023	0.381678
H66	H	1.758713	0.033471	0.375741
H67	H	1.636980	-0.089671	0.624182
H68	H	1.674499	-0.446204	-0.098949
N69	N	1.698628	-0.219163	-0.131884
H70	H	1.644029	-0.155828	-0.192906
H71	H	1.776115	-0.179172	-0.098298
N72	N	1.691444	-0.458831	0.133139
H73	H	1.724948	-0.387957	0.191456
H74	H	1.632227	-0.504553	0.196189
N75	N	1.697544	-0.216888	0.131661
H76	H	1.652517	-0.239226	0.224134
H77	H	1.785215	-0.262784	0.130705
N78	N	1.484336	-0.194536	0.276932
H79	H	1.509758	-0.273215	0.337120
H80	H	1.561894	-0.151513	0.250177
H81	H	1.764035	0.024288	0.618253
H82	H	1.318604	-0.183881	0.144855
H83	H	1.465036	-0.419523	-0.242615
N84	N	1.475578	-0.434844	0.276217
H85	H	1.469124	-0.529809	0.277797
H86	H	1.567278	-0.417922	0.277866
