data_functionalizedCrystal
_audit_creation_method	'MofGen! by Chris Wilmer'
_symmetry_space_group_name_H-M	'P1'
_symmetry_Int_Tables_number	1
_symmetry_cell_setting	triclinic
loop_
_symmetry_equiv_pos_as_xyz
  x,y,z
_cell_length_a	19.077105
_cell_length_b	12.594516
_cell_length_c	12.594510
_cell_angle_alpha	90.033997
_cell_angle_beta	92.318329
_cell_angle_gamma	87.708332
loop_
_atom_site_label
_atom_site_type_symbol
_atom_site_fract_x
_atom_site_fract_y
_atom_site_fract_z
Zn1	Zn	1.076066	-0.489118	0.667157
Zn2	Zn	1.576066	0.010882	1.167157
Zn3	Zn	1.076003	-0.667143	0.489176
Zn4	Zn	1.576003	-0.167143	0.989176
Zn5	Zn	0.958365	-0.482022	0.482044
Zn6	Zn	1.458365	0.017978	0.982044
Zn7	Zn	0.958361	-0.659893	0.659968
Zn8	Zn	1.458361	-0.159893	1.159968
O9	O	1.017199	-0.574544	0.574586
O10	O	1.517199	-0.074544	1.074586
O11	O	1.174549	-0.518737	0.649541
O12	O	1.674549	-0.018737	1.149541
O13	O	1.060373	-0.642651	0.339282
O14	O	1.560373	-0.142651	0.839282
O15	O	0.974006	-0.334019	0.506624
O16	O	1.474006	0.165981	1.006624
O17	O	1.174503	-0.649532	0.518779
O18	O	1.674503	-0.149532	1.018779
O19	O	1.060480	-0.339232	0.642626
O20	O	1.560480	0.160768	1.142626
O21	O	0.973945	-0.506643	0.334043
O22	O	1.473945	-0.006643	0.834043
O23	O	0.859872	-0.499613	0.499652
O24	O	1.359872	0.000387	0.999652
O25	O	0.974000	-0.637175	0.809869
O26	O	1.474000	-0.137175	1.309869
O27	O	0.859870	-0.630294	0.630372
O28	O	1.359870	-0.130294	1.130372
O29	O	1.060477	-0.511707	0.815151
O30	O	1.560477	-0.011707	1.315151
O31	O	1.060370	-0.815126	0.511808
O32	O	1.560370	-0.315126	1.011808
O33	O	0.973939	-0.809799	0.637288
O34	O	1.473939	-0.309799	1.137288
C35	C	0.834333	-0.563397	0.563459
C36	C	1.334333	-0.063397	1.063459
C37	C	0.756102	-0.558654	0.558724
C38	C	1.256102	-0.058654	1.058724
C39	C	1.017166	-0.851083	0.574566
C40	C	1.517166	-0.351083	1.074566
C41	C	1.017216	-0.969391	0.574596
C42	C	1.517216	-0.469391	1.074596
C43	C	0.719367	-0.624568	0.624451
C44	C	1.219367	-0.124568	1.124451
C45	C	0.645861	-0.620097	0.620007
C46	C	1.145861	-0.120097	1.120007
C47	C	0.609092	-0.549718	0.549830
C48	C	1.109092	-0.049718	1.049830
C49	C	0.645833	-0.483798	0.484100
C50	C	1.145833	0.016202	0.984100
C51	C	0.719337	-0.488263	0.488550
C52	C	1.219337	0.011737	0.988550
C53	C	0.389254	-0.529049	0.529239
C54	C	0.889254	-0.029049	1.029239
C55	C	0.315745	-0.524591	0.524791
C56	C	0.815745	-0.024591	1.024791
C57	C	0.315778	-0.660889	0.660700
C58	C	0.815778	-0.160889	1.160700
C59	C	0.389284	-0.665353	0.665140
C60	C	0.889284	-0.165353	1.165140
C61	C	0.426018	-0.599429	0.599414
C62	C	0.926018	-0.099429	1.099414
N63	N	0.533957	-0.545149	0.545283
N64	N	1.033957	-0.045149	1.045283
N65	N	0.501152	-0.603993	0.603967
N66	N	1.001152	-0.103993	1.103967
C67	C	1.064281	-1.041506	0.506427
C68	C	1.564281	-0.541506	1.006427
C69	C	1.081480	-1.113239	0.604620
C70	C	1.581480	-0.613239	1.104620
C71	C	1.000105	-1.108463	0.476471
C72	C	1.500105	-0.608463	0.976471
C73	C	1.034449	-1.039568	0.672843
C74	C	1.534449	-0.539568	1.172843
C75	C	0.953044	-1.034784	0.544626
C76	C	1.453044	-0.534784	1.044626
C77	C	0.970219	-1.106483	0.642884
C78	C	1.470219	-0.606483	1.142884
C79	C	1.200778	-0.585735	0.585758
C80	C	1.700778	-0.085735	1.085758
C81	C	1.279009	-0.590504	0.590518
C82	C	1.779009	-0.090504	1.090518
C83	C	1.017245	-0.574424	0.852210
C84	C	1.517245	-0.074424	1.352210
C85	C	1.017265	-0.574373	0.970517
C86	C	1.517265	-0.074373	1.470517
C87	C	1.017250	-0.296926	0.574631
C88	C	1.517250	0.203074	1.074631
C89	C	1.017273	-0.178622	0.574650
C90	C	1.517273	0.321378	1.074650
C91	C	1.017193	-0.574589	0.298045
C92	C	1.517193	-0.074589	0.798045
C93	C	1.017309	-0.574349	0.179747
C94	C	1.517309	-0.074349	0.679747
C95	C	1.064314	-0.506126	1.042644
C96	C	1.564314	-0.006126	1.542644
C97	C	1.000120	-0.476168	1.109539
C98	C	1.500120	0.023832	1.609539
C99	C	1.081496	-0.604259	1.114423
C100	C	1.581496	-0.104259	1.614423
C101	C	0.953037	-0.544362	1.035852
C102	C	1.453037	-0.044362	1.535852
C103	C	1.034456	-0.672501	1.040732
C104	C	1.534456	-0.172501	1.540732
C105	C	0.970218	-0.642577	1.107593
C106	C	1.470218	-0.142577	1.607593
H107	H	0.615953	-0.673772	0.673528
H108	H	1.115953	-0.173772	1.173528
O109	O	0.424823	-0.464972	0.465289
O110	O	0.924823	0.035028	0.965289
C111	C	0.376605	-0.401881	0.402416
C112	C	0.876605	0.098119	0.902416
H113	H	0.324207	-0.442299	0.395479
H114	H	0.824207	0.057701	0.895479
H115	H	0.397819	-0.391709	0.319860
H116	H	0.897819	0.108291	0.819860
H117	H	0.368801	-0.320618	0.441067
H118	H	0.868801	0.179382	0.941067
O119	O	0.888312	-0.993836	0.514134
O120	O	1.388312	-0.493836	1.014134
C121	C	0.870436	-1.028878	0.410565
C122	C	1.370436	-0.528878	0.910565
H123	H	0.920333	-1.051788	0.367747
H124	H	1.420333	-0.551788	0.867747
H125	H	0.840211	-0.962310	0.365016
H126	H	1.340211	-0.462310	0.865016
H127	H	0.836307	-1.100869	0.415182
H128	H	1.336307	-0.600869	0.915182
O129	O	1.111618	-0.437085	1.008539
O130	O	1.611618	0.062915	1.508539
C131	C	1.093257	-0.333706	1.043571
C132	C	1.593257	0.166294	1.543571
H133	H	1.034881	-0.328138	1.059883
H134	H	1.534881	0.171862	1.559883
H135	H	1.104992	-0.273711	0.979573
H136	H	1.604992	0.226289	1.479573
H137	H	1.125049	-0.315675	1.119584
H138	H	1.625049	0.184325	1.619584
H139	H	0.419216	-0.722666	0.722283
H140	H	0.919216	-0.222666	1.222283
H141	H	1.135774	-1.147575	0.629999
H142	H	1.635774	-0.647575	1.129999
H143	H	0.749247	-0.434584	0.435033
H144	H	1.249247	0.065416	0.935033
H145	H	0.930404	-0.700278	1.136006
H146	H	1.430404	-0.200278	1.636006
O147	O	0.755158	-0.692791	0.692680
O148	O	1.255158	-0.192791	1.192680
C149	C	0.797690	-0.634851	0.764121
C150	C	1.297690	-0.134851	1.264121
H151	H	0.808699	-0.554817	0.727383
H152	H	1.308699	-0.054817	1.227383
H153	H	0.849378	-0.681362	0.781443
H154	H	1.349378	-0.181362	1.281443
H155	H	0.769386	-0.621521	0.841303
H156	H	1.269386	-0.121521	1.341303
H157	H	0.615890	-0.426489	0.426964
H158	H	1.115890	0.073511	0.926964
O159	O	0.279984	-0.724810	0.724508
O160	O	0.779984	-0.224810	1.224508
C161	C	0.207223	-0.705801	0.705518
C162	C	0.707223	-0.205801	1.205518
H163	H	0.197179	-0.623012	0.670188
H164	H	0.697179	-0.123012	1.170188
H165	H	0.179312	-0.711411	0.783544
H166	H	0.679312	-0.211411	1.283544
H167	H	0.186340	-0.767605	0.647469
H168	H	0.686340	-0.267605	1.147469
O169	O	1.111862	-1.007406	0.437843
O170	O	1.611862	-0.507406	0.937843
C171	C	1.179478	-1.047536	0.469857
C172	C	1.679478	-0.547536	0.969857
H173	H	1.180778	-1.067395	0.558230
H174	H	1.680778	-0.567395	1.058230
H175	H	1.219618	-0.985217	0.454581
H176	H	1.719618	-0.485217	0.954581
H177	H	1.192713	-1.122442	0.422649
H178	H	1.692713	-0.622442	0.922649
H179	H	1.049001	-0.755475	1.010454
H180	H	1.549001	-0.255475	1.510454
H181	H	1.048891	-1.009399	0.755916
H182	H	1.548891	-0.509399	1.255916
O183	O	0.922844	-1.140361	0.711912
O184	O	1.422844	-0.640361	1.211912
C185	C	0.941166	-1.105083	0.815236
C186	C	1.441166	-0.605083	1.315236
H187	H	0.999554	-1.088819	0.820881
H188	H	1.499554	-0.588819	1.320881
H189	H	0.929347	-1.168913	0.875365
H190	H	1.429347	-0.668913	1.375365
H191	H	0.909413	-1.028995	0.833014
H192	H	1.409413	-0.528995	1.333014
H193	H	0.985609	-1.138760	0.393464
H194	H	1.485609	-0.638760	0.893464
O195	O	0.982894	-0.377172	1.145779
O196	O	1.482894	0.122828	1.645779
C197	C	1.038221	-0.341118	1.212273
C198	C	1.538221	0.158882	1.712273
H199	H	1.070968	-0.412222	1.245264
H200	H	1.570968	0.087778	1.745264
H201	H	1.015656	-0.293350	1.280744
H202	H	1.515656	0.206650	1.780744
H203	H	1.072776	-0.288630	1.164583
H204	H	1.572776	0.211370	1.664583
H205	H	0.285809	-0.467267	0.467651
H206	H	0.785809	0.032733	0.967651
O207	O	0.888286	-0.514049	0.994821
O208	O	1.388286	-0.014049	1.494821
C209	C	0.889047	-0.514412	0.882925
C210	C	1.389047	-0.014412	1.382925
H211	H	0.945130	-0.505995	0.857036
H212	H	1.445130	-0.005995	1.357036
H213	H	0.854504	-0.445170	0.849946
H214	H	1.354504	0.054830	1.349946
H215	H	0.868123	-0.592361	0.851312
H216	H	1.368123	-0.092361	1.351312
O217	O	1.146328	-0.634314	1.155321
O218	O	1.646328	-0.134314	1.655321
C219	C	1.195734	-0.562134	1.122340
C220	C	1.695734	-0.062134	1.622340
H221	H	1.174872	-0.520329	1.046562
H222	H	1.674872	-0.020329	1.546562
H223	H	1.247317	-0.607009	1.106380
H224	H	1.747317	-0.107009	1.606380
H225	H	1.204963	-0.500699	1.187406
H226	H	1.704963	-0.000699	1.687406
