data_functionalizedCrystal
_audit_creation_method	'MofGen! by Chris Wilmer'
_symmetry_space_group_name_H-M	'P1'
_symmetry_Int_Tables_number	1
_symmetry_cell_setting	triclinic
loop_
_symmetry_equiv_pos_as_xyz
  x,y,z
_cell_length_a	19.288864
_cell_length_b	16.109301
_cell_length_c	18.366186
_cell_angle_alpha	89.992337
_cell_angle_beta	89.977106
_cell_angle_gamma	83.298863
loop_
_atom_site_label
_atom_site_type_symbol
_atom_site_fract_x
_atom_site_fract_y
_atom_site_fract_z
O1	O	0.921600	0.103716	-0.060785
O2	O	0.719373	0.117707	-0.060736
O3	O	0.826042	-0.010339	-0.060755
O4	O	0.814931	0.231761	-0.060767
O5	O	0.826024	-0.010345	0.060345
O6	O	0.719355	0.117701	0.060363
O7	O	0.921582	0.103710	0.060314
Zn8	Zn	0.820466	0.110704	0.079566
Zn9	Zn	0.820490	0.110712	-0.079988
O10	O	0.814913	0.231755	0.060333
C11	C	0.693487	0.117254	-0.000180
C12	C	0.616380	0.115902	-0.000161
C13	C	0.571863	0.191034	-0.000176
C14	C	0.499413	0.189764	-0.000184
C15	C	0.471483	0.113359	-0.000191
C16	C	0.516009	0.038218	-0.000172
C17	C	0.588458	0.039489	-0.000157
C18	C	0.363084	0.053298	-0.042639
C19	C	0.290636	0.052029	-0.042659
C20	C	0.248028	0.109433	-0.000235
C21	C	0.277874	0.168120	0.042199
C22	C	0.350323	0.169391	0.042214
C23	C	0.392925	0.111971	-0.000207
C24	C	0.124952	0.183193	-0.000258
C25	C	0.052501	0.181920	-0.000262
C26	C	0.069099	0.030372	-0.000257
C27	C	0.141548	0.031647	-0.000246
C28	C	0.169470	0.108060	-0.000250
C29	C	0.825583	-0.041315	-0.000205
C30	C	0.824234	-0.133606	-0.000203
C31	C	0.884391	-0.356084	-0.000229
C32	C	0.883118	-0.442800	-0.000235
C33	C	0.756559	-0.422493	-0.000201
C34	C	0.757833	-0.335778	-0.000201
C35	C	0.821751	-0.302577	-0.000211
C36	C	0.819204	-0.476007	-0.000217
C37	C	0.817823	-0.570028	-0.000223
C38	C	0.823133	-0.208549	-0.000206
C39	C	0.947469	0.104163	-0.000244
C40	C	1.024576	0.105514	-0.000268
C41	C	0.815372	0.262732	-0.000219
C42	C	0.816722	0.355022	-0.000225
N43	N	0.820455	0.110698	0.188457
N44	N	0.820506	0.110712	-0.188879
C45	C	0.867703	0.054027	0.226549
C46	C	0.867707	0.054023	0.302777
C47	C	0.820470	0.110705	0.340910
C48	C	0.773213	0.167380	0.302808
C49	C	0.773205	0.167377	0.226582
C50	C	0.811353	0.186459	0.461668
C51	C	0.811365	0.186463	0.537893
C52	C	0.820490	0.110715	0.576017
C53	C	0.829616	0.034960	0.537908
C54	C	0.829609	0.034956	0.461681
C55	C	0.820473	0.110715	0.423564
C56	C	0.867746	0.054036	0.696764
C57	C	0.867745	0.054031	0.772993
C58	C	0.773254	0.167395	0.773023
C59	C	0.773251	0.167392	0.696796
C60	C	0.820500	0.110714	0.658671
H61	H	0.374621	0.217173	0.076768
Cl62	Cl	0.841093	-0.060273	0.585827
Cl63	Cl	-0.003465	0.276380	-0.000277
H64	H	0.936438	-0.329054	-0.000239
H65	H	0.463160	0.250947	-0.000194
Cl66	Cl	0.961870	-0.510063	-0.000259
H67	H	0.704519	-0.449537	-0.000191
H68	H	0.706821	-0.292210	-0.000188
H69	H	0.906217	0.007882	0.665722
H70	H	0.906175	0.007874	0.195510
H71	H	0.906218	0.007878	0.804009
H72	H	0.906184	0.007874	0.333797
Cl73	Cl	0.799897	0.281697	0.585794
Cl74	Cl	0.197516	-0.062810	-0.000231
Cl75	Cl	0.644425	-0.054970	-0.000138
Cl76	Cl	0.841074	-0.060274	0.413774
Cl77	Cl	0.713864	0.238645	0.820956
H78	H	0.266341	0.004247	-0.077214
H79	H	0.734779	0.213542	0.665779
H80	H	0.803910	0.248146	0.430633
Cl81	Cl	0.713803	0.238627	0.178692
Cl82	Cl	0.606961	0.287095	-0.000178
Cl83	Cl	0.224317	0.240290	0.095535
H84	H	0.046359	-0.031839	-0.000308
Cl85	Cl	0.160057	0.279253	-0.000256
Cl86	Cl	0.416642	-0.018874	-0.095977
H87	H	0.734750	0.213530	0.333860
H88	H	0.493264	-0.023992	-0.000188
