data_functionalizedCrystal
_audit_creation_method	'MofGen! by Chris Wilmer'
_symmetry_space_group_name_H-M	'P1'
_symmetry_Int_Tables_number	1
_symmetry_cell_setting	triclinic
loop_
_symmetry_equiv_pos_as_xyz
  x,y,z
_cell_length_a	19.077105
_cell_length_b	29.839131
_cell_length_c	19.076919
_cell_angle_alpha	87.732541
_cell_angle_beta	89.923776
_cell_angle_gamma	87.737628
loop_
_atom_site_label
_atom_site_type_symbol
_atom_site_fract_x
_atom_site_fract_y
_atom_site_fract_z
Zn1	Zn	1.058171	-0.217337	0.440392
Zn2	Zn	1.062777	-0.289569	0.322877
Zn3	Zn	0.945391	-0.211319	0.318186
Zn4	Zn	0.940599	-0.289298	0.435629
O5	O	1.001735	-0.251881	0.379271
O6	O	1.157112	-0.229551	0.428760
O7	O	1.051139	-0.276784	0.223924
O8	O	0.960429	-0.149253	0.334427
O9	O	1.160497	-0.282620	0.342422
O10	O	1.043288	-0.153674	0.424211
O11	O	0.964896	-0.219294	0.220477
O12	O	0.846425	-0.219031	0.329809
O13	O	0.952262	-0.282158	0.534592
O14	O	0.842904	-0.276322	0.416094
O15	O	1.038641	-0.229288	0.538091
O16	O	1.046493	-0.352398	0.337803
O17	O	0.956729	-0.352199	0.420642
C18	C	0.819169	-0.246995	0.371926
C19	C	0.741065	-0.244915	0.368801
C20	C	0.702560	-0.273809	0.412186
C21	C	0.629174	-0.271849	0.409252
C22	C	0.594294	-0.240998	0.362930
C23	C	0.632804	-0.212102	0.319543
C24	C	0.706189	-0.214059	0.322481
C25	C	0.375011	-0.231938	0.349338
C26	C	0.301621	-0.229984	0.346403
C27	C	0.297996	-0.289731	0.436113
C28	C	0.371382	-0.291688	0.439043
C29	C	0.409886	-0.262790	0.395659
N30	N	0.519281	-0.238996	0.359929
N31	N	0.484897	-0.264790	0.398664
C32	C	1.001609	-0.368599	0.379231
C33	C	1.001619	-0.418534	0.379240
C34	C	1.048554	-0.728276	0.336206
C35	C	1.048639	-0.915952	0.336237
O36	O	1.088445	-0.940297	0.299616
N37	N	1.001878	-0.939328	0.379330
C38	C	0.955095	-0.915782	0.422422
O39	O	0.915329	-0.939972	0.459082
C40	C	0.955014	-0.728107	0.422395
C41	C	1.001773	-0.704734	0.379293
C42	C	1.095310	-0.704902	0.293109
C43	C	1.095285	-0.657986	0.293099
C44	C	1.048505	-0.634443	0.336186
C45	C	1.001749	-0.657817	0.379283
C46	C	0.908235	-0.704563	0.465490
C47	C	0.908220	-0.657641	0.465480
C48	C	0.954979	-0.634267	0.422379
C49	C	0.954944	-0.587358	0.422360
N50	N	1.001705	-0.563982	0.379267
C51	C	1.048485	-0.587525	0.336180
C52	C	0.955141	-1.014314	0.422432
C53	C	0.955160	-1.061233	0.422439
C54	C	1.048705	-1.061399	0.336254
C55	C	1.048682	-1.014480	0.336245
C56	C	1.001902	-0.990938	0.379339
C57	C	1.048430	-0.488997	0.336161
C58	C	1.048399	-0.442077	0.336153
C59	C	0.954857	-0.441914	0.422340
C60	C	0.954885	-0.488831	0.422346
C61	C	1.001677	-0.512371	0.379255
O62	O	0.915164	-0.562985	0.458967
O63	O	1.088256	-0.563328	0.299537
C64	C	1.048578	-0.775192	0.336216
C65	C	1.001822	-0.798566	0.379313
C66	C	0.955041	-0.775024	0.422401
C67	C	1.001841	-0.845485	0.379319
C68	C	1.048622	-0.869027	0.336232
C69	C	1.095383	-0.845651	0.293139
C70	C	1.095359	-0.798735	0.293129
C71	C	0.908280	-0.798400	0.465494
C72	C	0.908308	-0.845316	0.465500
C73	C	0.955089	-0.868859	0.422413
C74	C	1.185013	-0.256787	0.386645
C75	C	1.263116	-0.258877	0.389788
C76	C	0.994403	-0.256364	0.562551
C77	C	0.991279	-0.258274	0.640654
C78	C	1.001879	-0.134708	0.379327
C79	C	1.001941	-0.084775	0.379351
C80	C	1.009078	-0.247384	0.196706
C81	C	1.012338	-0.245351	0.118609
C82	C	1.034782	-0.231647	0.679169
C83	C	1.031838	-0.233440	0.752555
C84	C	0.985394	-0.261863	0.787424
C85	C	0.941886	-0.288492	0.748903
C86	C	0.944827	-0.286696	0.675518
C87	C	0.971772	-0.270184	1.006704
C88	C	0.968835	-0.271978	1.080093
C89	C	1.058787	-0.216925	1.083741
C90	C	1.061727	-0.215134	1.010355
C91	C	1.018216	-0.241761	0.971840
N92	N	0.982385	-0.263698	0.862436
N93	N	1.021222	-0.239924	0.896830
H94	H	1.086476	-0.423047	0.301052
H95	H	0.597826	-0.295378	0.444580
H96	H	0.936353	-0.291872	0.975354
H97	H	0.399777	-0.316811	0.476762
H98	H	1.067264	-0.211758	0.783912
C99	C	0.860198	-0.959324	0.428313
C100	C	0.903712	-0.988439	0.469800
H101	H	0.828450	-0.943349	0.457556
H102	H	0.834584	-0.976185	0.396601
H103	H	0.888050	-0.938687	0.402654
H104	H	0.875860	-1.009078	0.495455
H105	H	0.929328	-0.971577	0.501525
C106	C	0.211707	-0.296172	0.527313
C107	C	0.255670	-0.321489	0.483806
H108	H	0.185580	-0.315779	0.556762
H109	H	0.180436	-0.277524	0.499303
H110	H	0.239293	-0.278050	0.555389
H111	H	0.228083	-0.339610	0.455726
H112	H	0.286944	-0.340145	0.511819
C113	C	0.312571	-0.171115	0.258027
C114	C	0.263279	-0.196068	0.295485
H115	H	0.288898	-0.150177	0.226597
H116	H	0.342246	-0.190762	0.232236
H117	H	0.339990	-0.155476	0.289848
H118	H	0.235863	-0.211709	0.263665
H119	H	0.233592	-0.176417	0.321278
H120	H	0.406352	-0.208411	0.314006
C121	C	0.815847	-0.840428	0.550700
C122	C	0.856906	-0.871006	0.512883
H123	H	0.784122	-0.856287	0.579958
H124	H	0.790208	-0.820690	0.518978
H125	H	0.845368	-0.823573	0.578821
H126	H	0.827386	-0.887858	0.484758
H127	H	0.882547	-0.890751	0.544609
H128	H	0.870155	-0.723586	0.500584
H129	H	0.604399	-0.186981	0.281829
C130	C	1.150337	-0.160892	1.021334
C131	C	1.112776	-0.183887	0.972029
H132	H	1.181851	-0.141600	0.997672
H133	H	1.176044	-0.181884	1.051028
H134	H	1.118589	-0.143589	1.048733
H135	H	1.144524	-0.201192	0.944634
H136	H	1.087068	-0.162892	0.942323
H137	H	0.931013	-0.295125	1.108481
C138	C	1.132619	-0.225913	0.600456
C139	C	1.085833	-0.200401	0.640844
H140	H	1.164137	-0.206621	0.576801
H141	H	1.107133	-0.241511	0.567017
H142	H	1.158325	-0.246903	0.630165
H143	H	1.060123	-0.179413	0.611135
H144	H	1.111322	-0.184796	0.674288
C145	C	0.897440	-0.315692	0.859775
C146	C	0.890833	-0.319736	0.787229
H147	H	0.865925	-0.334984	0.883433
H148	H	0.886711	-0.285531	0.871399
H149	H	0.944165	-0.323826	0.873693
H150	H	0.844109	-0.311599	0.773310
H151	H	0.901557	-0.349904	0.775599
C152	C	0.702406	-0.154813	0.233500
C153	C	0.748517	-0.182303	0.274784
H154	H	0.728539	-0.135209	0.204052
H155	H	0.672584	-0.137645	0.263019
H156	H	0.674832	-0.172942	0.205423
H157	H	0.776087	-0.164173	0.302865
H158	H	0.778351	-0.199472	0.245262
C159	C	0.855639	-0.341307	0.679280
C160	C	0.897019	-0.315974	0.633179
H161	H	0.826129	-0.359385	0.653141
H162	H	0.827631	-0.321717	0.706823
H163	H	0.885096	-0.360005	0.709134
H164	H	0.867562	-0.297274	0.603328
H165	H	0.925030	-0.335567	0.605625
H166	H	0.730954	-0.298932	0.449904
C167	C	0.813337	-0.743413	0.471363
C168	C	0.856853	-0.772524	0.512855
H169	H	0.781587	-0.727438	0.500604
H170	H	0.787725	-0.760277	0.439653
H171	H	0.841187	-0.722776	0.445703
H172	H	0.829003	-0.793163	0.538512
H173	H	0.882466	-0.755659	0.544577
H174	H	1.086534	-0.508158	0.301074
C175	C	1.065314	-0.158776	1.166684
C176	C	1.106605	-0.187653	1.126076
H177	H	1.094837	-0.140701	1.192815
H178	H	1.037243	-0.175962	1.197951
H179	H	1.035868	-0.140076	1.136822
H180	H	1.136047	-0.206356	1.155938
H181	H	1.134688	-0.170466	1.094806
H182	H	1.133363	-0.638958	0.258004
H183	H	0.916812	-0.507863	0.457445
C184	C	1.187760	-0.700341	0.207913
C185	C	1.146733	-0.730775	0.245737
H186	H	1.219502	-0.716312	0.178659
H187	H	1.213379	-0.683488	0.239630
H188	H	1.158220	-0.680589	0.179787
H189	H	1.176272	-0.750525	0.273867
H190	H	1.121112	-0.747636	0.214015
H191	H	1.086757	-0.995452	0.301148
C192	C	1.090338	-1.133404	0.298084
C193	C	1.100179	-1.087286	0.288947
H194	H	1.122134	-1.149387	0.268901
H195	H	1.043575	-1.139623	0.285811
H196	H	1.098643	-1.142479	0.345738
H197	H	1.091869	-1.078210	0.241293
H198	H	1.146952	-1.081063	0.301216
H199	H	0.917078	-1.080260	0.457529
H200	H	1.133435	-0.779707	0.258032
H201	H	0.916767	-0.422739	0.457419
C202	C	0.815764	-0.662194	0.550682
C203	C	0.856797	-0.631765	0.512853
H204	H	0.784016	-0.646218	0.579923
H205	H	0.845295	-0.681941	0.578813
H206	H	0.790145	-0.679052	0.518961
H207	H	0.882420	-0.614909	0.544574
H208	H	0.827263	-0.612010	0.484720
H209	H	1.133472	-0.864828	0.258053
