data_functionalizedCrystal
_audit_creation_method	'MofGen! by Chris Wilmer'
_symmetry_space_group_name_H-M	'P1'
_symmetry_Int_Tables_number	1
_symmetry_cell_setting	triclinic
loop_
_symmetry_equiv_pos_as_xyz
  x,y,z
_cell_length_a	21.295418
_cell_length_b	21.295417
_cell_length_c	21.295411
_cell_angle_alpha	90.021644
_cell_angle_beta	90.043738
_cell_angle_gamma	90.046319
loop_
_atom_site_label
_atom_site_type_symbol
_atom_site_fract_x
_atom_site_fract_y
_atom_site_fract_z
Zn1	Zn	0.962356	-0.250415	0.356234
Zn2	Zn	1.295689	0.082918	0.689567
Zn3	Zn	1.629022	0.416251	1.022900
Zn4	Zn	0.962258	-0.355667	0.250959
Zn5	Zn	1.295592	-0.022334	0.584292
Zn6	Zn	1.628925	0.311000	0.917626
Zn7	Zn	0.857079	-0.250445	0.250943
Zn8	Zn	1.190412	0.082889	0.584277
Zn9	Zn	1.523746	0.416222	0.917610
Zn10	Zn	0.857048	-0.355680	0.356155
Zn11	Zn	1.190382	-0.022346	0.689489
Zn12	Zn	1.523715	0.310987	1.022822
O13	O	0.909685	-0.303052	0.303573
O14	O	1.243019	0.030282	0.636906
O15	O	1.576352	0.363615	0.970240
O16	O	1.050432	-0.264360	0.342308
O17	O	1.383766	0.068974	0.675641
O18	O	1.717099	0.402307	1.008975
O19	O	0.948278	-0.341716	0.162867
O20	O	1.281611	-0.008383	0.496201
O21	O	1.614945	0.324950	0.829534
O22	O	0.871098	-0.162351	0.264937
O23	O	1.204431	0.170982	0.598270
O24	O	1.537764	0.504315	0.931603
O25	O	1.050361	-0.341688	0.264963
O26	O	1.383694	-0.008354	0.598296
O27	O	1.717027	0.324979	0.931630
O28	O	0.948444	-0.162330	0.342293
O29	O	1.281778	0.171004	0.675626
O30	O	1.615111	0.504337	1.008960
O31	O	0.871003	-0.264410	0.162856
O32	O	1.204337	0.068923	0.496189
O33	O	1.537670	0.402257	0.829523
O34	O	0.768985	-0.264422	0.264861
O35	O	1.102319	0.068911	0.598194
O36	O	1.435652	0.402245	0.931527
O37	O	0.871046	-0.341709	0.444255
O38	O	1.204379	-0.008376	0.777589
O39	O	1.537712	0.324958	1.110922
O40	O	0.768963	-0.341738	0.342160
O41	O	1.102296	-0.008404	0.675493
O42	O	1.435630	0.324929	1.008826
O43	O	0.948415	-0.264372	0.444313
O44	O	1.281748	0.068962	0.777646
O45	O	1.615081	0.402295	1.110979
O46	O	0.948248	-0.443758	0.264887
O47	O	1.281582	-0.110425	0.598221
O48	O	1.614915	0.222909	0.931554
O49	O	0.870951	-0.443767	0.342175
O50	O	1.204284	-0.110434	0.675508
O51	O	1.537618	0.222899	1.008841
C52	C	0.909603	-0.466603	0.303538
C53	C	1.242936	-0.133270	0.636871
C54	C	1.576269	0.200063	0.970205
C55	C	0.909625	-0.536571	0.303544
C56	C	1.242958	-0.203238	0.636877
C57	C	1.576292	0.130095	0.970211
C58	C	0.746134	-0.303085	0.303500
C59	C	1.079467	0.030249	0.636834
C60	C	1.412800	0.363582	0.970167
C61	C	0.676166	-0.303114	0.303484
C62	C	1.009499	0.030219	0.636818
C63	C	1.342832	0.363553	0.970151
C64	C	0.643304	-0.343426	0.343674
C65	C	0.976637	-0.010092	0.677007
C66	C	1.309970	0.323241	1.010340
C67	C	0.577561	-0.343410	0.343702
C68	C	0.910894	-0.010077	0.677035
C69	C	1.244228	0.323257	1.010369
C70	C	0.544683	-0.303090	0.303530
C71	C	0.878016	0.030244	0.636863
C72	C	1.211350	0.363577	0.970196
C73	C	0.577553	-0.262770	0.263337
C74	C	0.910886	0.070563	0.596671
C75	C	1.244220	0.403896	0.930004
C76	C	0.643294	-0.262783	0.263315
C77	C	0.976627	0.070551	0.596648
C78	C	1.309961	0.403884	0.929982
N79	N	0.441407	-0.298163	0.248472
N80	N	0.774740	0.035171	0.581805
N81	N	1.108074	0.368504	0.915139
N82	N	0.378956	-0.298155	0.248495
N83	N	0.712289	0.035179	0.581829
N84	N	1.045622	0.368512	0.915162
C85	C	0.346608	-0.303050	0.303596
C86	C	0.679942	0.030284	0.636930
C87	C	1.013275	0.363617	0.970263
N88	N	0.379072	-0.307965	0.358675
N89	N	0.712405	0.025368	0.692008
N90	N	1.045739	0.358702	1.025341
N91	N	0.441529	-0.307976	0.358650
N92	N	0.774862	0.025357	0.691984
N93	N	1.108196	0.358691	1.025317
C94	C	0.473398	-0.303072	0.303550
C95	C	0.806731	0.030262	0.636883
C96	C	1.140064	0.363595	0.970217
C97	C	0.242461	-0.343346	0.343820
C98	C	0.575794	-0.010013	0.677153
C99	C	0.909128	0.323320	1.010486
C100	C	0.176717	-0.343326	0.343849
C101	C	0.510051	-0.009993	0.677182
C102	C	0.843384	0.323340	1.010516
C103	C	0.176710	-0.262690	0.263479
C104	C	0.510044	0.070643	0.596812
C105	C	0.843377	0.403977	0.930146
C106	C	0.242453	-0.262707	0.263455
C107	C	0.575786	0.070627	0.596789
C108	C	0.909119	0.403960	0.930122
C109	C	0.275324	-0.303038	0.303625
C110	C	0.608657	0.030295	0.636958
C111	C	0.941991	0.363628	0.970291
C112	C	0.949910	-0.569412	0.263342
C113	C	1.283243	-0.236079	0.596675
C114	C	1.616576	0.097254	0.930009
C115	C	0.949939	-0.635155	0.263356
C116	C	1.283272	-0.301822	0.596689
C117	C	1.616606	0.031512	0.930023
C118	C	0.909673	-0.668054	0.303566
C119	C	1.243006	-0.334721	0.636899
C120	C	1.576340	-0.001387	0.970233
C121	C	0.869386	-0.635205	0.343776
C122	C	1.202719	-0.301872	0.677109
C123	C	1.536052	0.031462	1.010443
C124	C	0.869362	-0.569464	0.343765
C125	C	1.202695	-0.236130	0.677098
C126	C	1.536028	0.097203	1.010432
N127	N	0.854606	-0.771336	0.308340
N128	N	1.187939	-0.438002	0.641674
N129	N	1.521272	-0.104669	0.975007
N130	N	0.854630	-0.833787	0.308347
N131	N	1.187964	-0.500454	0.641680
N132	N	1.521297	-0.167120	0.975014
C133	C	0.909743	-0.866129	0.303602
C134	C	1.243077	-0.532795	0.636935
C135	C	1.576410	-0.199462	0.970269
N136	N	0.964832	-0.833659	0.298838
N137	N	1.298166	-0.500326	0.632171
N138	N	1.631499	-0.166993	0.965504
N139	N	0.964807	-0.771202	0.298828
N140	N	1.298140	-0.437869	0.632161
N141	N	1.631474	-0.104535	0.965494
C142	C	0.909695	-0.739339	0.303582
C143	C	1.243028	-0.406006	0.636916
C144	C	1.576361	-0.072673	0.970249
C145	C	0.950063	-0.970255	0.263413
C146	C	1.283397	-0.636922	0.596746
C147	C	1.616730	-0.303588	0.930080
C148	C	0.950094	-1.035999	0.263431
C149	C	1.283427	-0.702665	0.596765
C150	C	1.616760	-0.369332	0.930098
C151	C	0.869535	-1.036048	0.343848
C152	C	1.202868	-0.702714	0.677181
C153	C	1.536201	-0.369381	1.010515
C154	C	0.869510	-0.970305	0.343833
C155	C	1.202843	-0.636972	0.677166
C156	C	1.536176	-0.303638	1.010500
C157	C	0.909773	-0.937413	0.303612
C158	C	1.243106	-0.604079	0.636945
C159	C	1.576440	-0.270746	0.970279
C160	C	1.073876	-0.303019	0.303646
C161	C	1.407209	0.030314	0.636979
C162	C	1.740542	0.363648	0.970313
C163	C	1.143844	-0.303005	0.303677
C164	C	1.477177	0.030328	0.637010
C165	C	1.810510	0.363662	0.970344
C166	C	0.909738	-0.303038	0.467763
C167	C	1.243071	0.030295	0.801097
C168	C	1.576404	0.363628	1.134430
C169	C	0.909760	-0.303033	0.537731
C170	C	1.243093	0.030301	0.871065
C171	C	1.576427	0.363634	1.204398
C172	C	0.909785	-0.138861	0.303622
C173	C	1.243119	0.194472	0.636955
C174	C	1.576452	0.527805	0.970288
C175	C	0.909828	-0.068893	0.303642
C176	C	1.243161	0.264440	0.636976
C177	C	1.576495	0.597773	0.970309
C178	C	0.909670	-0.303019	0.140021
C179	C	1.243003	0.030314	0.473355
C180	C	1.576336	0.363647	0.806688
C181	C	0.909769	-0.302848	0.070054
C182	C	1.243103	0.030486	0.403387
C183	C	1.576436	0.363819	0.736720
C184	C	0.950044	-0.262761	0.570629
C185	C	1.283377	0.070572	0.903962
C186	C	1.616711	0.403905	1.237296
C187	C	0.950043	-0.262734	0.636371
C188	C	1.283377	0.070599	0.969705
C189	C	1.616710	0.403933	1.303038
C190	C	0.909765	-0.302989	0.669214
C191	C	1.243098	0.030344	1.002547
C192	C	1.576431	0.363677	1.335881
C193	C	0.869473	-0.343263	0.636308
C194	C	1.202806	-0.009930	0.969642
C195	C	1.536139	0.323403	1.302975
C196	C	0.869470	-0.343285	0.570567
C197	C	1.202804	-0.009952	0.903900
C198	C	1.536137	0.323382	1.237234
N199	N	0.904908	-0.358058	0.772428
N200	N	1.238241	-0.024725	1.105761
N201	N	1.571575	0.308608	1.439094
N202	N	0.904914	-0.358036	0.834879
N203	N	1.238247	-0.024703	1.168213
N204	N	1.571581	0.308631	1.501546
C205	C	0.909769	-0.302926	0.867289
C206	C	1.243102	0.030408	1.200622
C207	C	1.576435	0.363741	1.533955
N208	N	0.914629	-0.247837	0.834888
N209	N	1.247963	0.085496	1.168221
N210	N	1.581296	0.418830	1.501554
N211	N	0.914627	-0.247860	0.772430
N212	N	1.247960	0.085473	1.105764
N213	N	1.581293	0.418807	1.439097
C214	C	0.909763	-0.302970	0.740499
C215	C	1.243096	0.030363	1.073833
C216	C	1.576429	0.363697	1.407166
C217	C	0.950054	-0.262621	0.971472
C218	C	1.283388	0.070712	1.304805
C219	C	1.616721	0.404045	1.638139
C220	C	0.950049	-0.262593	1.037216
C221	C	1.283382	0.070740	1.370549
C222	C	1.616716	0.404074	1.703882
C223	C	0.869482	-0.343128	1.037151
C224	C	1.202815	-0.009795	1.370485
C225	C	1.536148	0.323539	1.703818
C226	C	0.869484	-0.343151	0.971409
C227	C	1.202817	-0.009817	1.304742
C228	C	1.536150	0.323516	1.638076
C229	C	0.909773	-0.302898	0.938573
C230	C	1.243107	0.030435	1.271906
C231	C	1.576440	0.363769	1.605240
H232	H	0.670063	-0.376266	0.376384
H233	H	1.003397	-0.042932	0.709717
H234	H	1.336730	0.290401	1.043050
O235	O	0.989086	-0.537559	0.224259
O236	O	1.322419	-0.204226	0.557592
O237	O	1.655752	0.129107	0.890926
C238	C	1.024639	-0.580649	0.188768
C239	C	1.357972	-0.247315	0.522101
C240	C	1.691305	0.086018	0.855435
H241	H	1.026818	-0.627496	0.214561
H242	H	1.360151	-0.294162	0.547895
H243	H	1.693485	0.039171	0.881228
H244	H	1.074234	-0.561603	0.182115
H245	H	1.407567	-0.228270	0.515448
H246	H	1.740901	0.105064	0.848782
H247	H	1.001615	-0.587691	0.140930
H248	H	1.334948	-0.254357	0.474264
H249	H	1.668281	0.078976	0.807597
H250	H	0.836676	-0.376038	0.663053
H251	H	1.170009	-0.042704	0.996386
H252	H	1.503342	0.290629	1.329720
H253	H	0.982850	-0.943473	0.230664
H254	H	1.316184	-0.610140	0.563998
H255	H	1.649517	-0.276806	0.897331
O256	O	0.830431	-0.938302	0.382860
O257	O	1.163764	-0.604969	0.716194
O258	O	1.497097	-0.271636	1.049527
C259	C	0.839032	-0.873224	0.374217
C260	C	1.172365	-0.539890	0.707550
C261	C	1.505698	-0.206557	1.040884
H262	H	0.887619	-0.864199	0.353661
H263	H	1.220952	-0.530866	0.686994
H264	H	1.554286	-0.197532	1.020327
H265	H	0.834729	-0.848217	0.421359
H266	H	1.168062	-0.514884	0.754692
H267	H	1.501396	-0.181551	1.088025
H268	H	0.801703	-0.854630	0.340644
H269	H	1.135037	-0.521297	0.673977
H270	H	1.468370	-0.187964	1.007311
H271	H	0.836663	-0.376078	0.543782
H272	H	1.169996	-0.042745	0.877116
H273	H	1.503330	0.290589	1.210449
H274	H	0.982850	-0.229984	0.543898
H275	H	1.316184	0.103349	0.877231
H276	H	1.649517	0.436683	1.210565
H277	H	0.550779	-0.229940	0.230630
H278	H	0.884113	0.103393	0.563963
H279	H	1.217446	0.436727	0.897297
H280	H	0.836680	-0.375898	1.063891
H281	H	1.170013	-0.042565	1.397224
H282	H	1.503346	0.290769	1.730558
H283	H	0.269209	-0.229884	0.230726
H284	H	0.602543	0.103450	0.564059
H285	H	0.935876	0.436783	0.897392
O286	O	0.989125	-0.667101	0.224382
O287	O	1.322458	-0.333767	0.557715
O288	O	1.655791	-0.000434	0.891049
C289	C	1.029770	-0.705086	0.260261
C290	C	1.363104	-0.371753	0.593594
C291	C	1.696437	-0.038419	0.926927
H292	H	1.033656	-0.685243	0.309839
H293	H	1.366990	-0.351909	0.643172
H294	H	1.700323	-0.018576	0.976505
H295	H	1.078216	-0.705805	0.237533
H296	H	1.411549	-0.372472	0.570866
H297	H	1.744883	-0.039139	0.904199
H298	H	1.010308	-0.754925	0.262423
H299	H	1.343641	-0.421591	0.595756
H300	H	1.676974	-0.088258	0.929089
H301	H	0.982857	-0.229842	0.944736
H302	H	1.316190	0.103492	1.278069
H303	H	1.649524	0.436825	1.611402
O304	O	0.989242	-0.223450	1.069077
O305	O	1.322576	0.109883	1.402411
O306	O	1.655909	0.443216	1.735744
C307	C	1.024789	-0.187920	1.025995
C308	C	1.358122	0.145414	1.359328
C309	C	1.691456	0.478747	1.692661
H310	H	1.026950	-0.213720	0.979133
H311	H	1.360284	0.119613	1.312467
H312	H	1.693617	0.452946	1.645800
H313	H	1.074391	-0.181193	1.045028
H314	H	1.407724	0.152141	1.378361
H315	H	1.741057	0.485474	1.711694
H316	H	1.001771	-0.140116	1.018986
H317	H	1.335104	0.193218	1.352319
H318	H	1.668438	0.526551	1.685652
O319	O	0.274424	-0.382584	0.382754
O320	O	0.607757	-0.049251	0.716087
O321	O	0.941090	0.284082	1.049420
C322	C	0.312380	-0.423190	0.346828
C323	C	0.645713	-0.089856	0.680162
C324	C	0.979046	0.243477	1.013495
H325	H	0.292508	-0.427002	0.297250
H326	H	0.625842	-0.093669	0.630583
H327	H	0.959175	0.239664	0.963916
H328	H	0.313100	-0.471667	0.369508
H329	H	0.646434	-0.138333	0.702841
H330	H	0.979767	0.195000	1.036174
H331	H	0.362222	-0.403735	0.344677
H332	H	0.695555	-0.070402	0.678010
H333	H	1.028889	0.262931	1.011344
H334	H	0.550800	-0.376236	0.376431
H335	H	0.884133	-0.042903	0.709765
H336	H	1.217466	0.290430	1.043098
O337	O	0.830334	-0.382333	0.939546
O338	O	1.163667	-0.049000	1.272879
O339	O	1.497001	0.284333	1.606213
C340	C	0.794769	-0.417847	0.982628
C341	C	1.128103	-0.084513	1.315961
C342	C	1.461436	0.248820	1.649295
H343	H	0.820554	-0.420008	1.029509
H344	H	1.153887	-0.086675	1.362843
H345	H	1.487220	0.246659	1.696176
H346	H	0.788021	-0.467451	0.963625
H347	H	1.121354	-0.134117	1.296958
H348	H	1.454687	0.199216	1.630292
H349	H	0.746976	-0.394799	0.989587
H350	H	1.080309	-0.061466	1.322920
H351	H	1.413643	0.271867	1.656254
H352	H	0.836602	-0.661996	0.376516
H353	H	1.169935	-0.328662	0.709850
H354	H	1.503268	0.004671	1.043183
H355	H	0.149962	-0.376152	0.376580
H356	H	0.483296	-0.042818	0.709913
H357	H	0.816629	0.290515	1.043247
H358	H	0.670050	-0.229954	0.230588
H359	H	1.003383	0.103379	0.563921
H360	H	1.336717	0.436713	0.897254
H361	H	0.836557	-0.542724	0.376503
H362	H	1.169890	-0.209391	0.709837
H363	H	1.503223	0.123943	1.043170
O364	O	0.144683	-0.223597	0.224460
O365	O	0.478017	0.109737	0.557793
O366	O	0.811350	0.443070	0.891127
C367	C	0.079611	-0.232224	0.233102
C368	C	0.412944	0.101109	0.566435
C369	C	0.746277	0.434443	0.899768
H370	H	0.070610	-0.280824	0.253652
H371	H	0.403944	0.052509	0.586986
H372	H	0.737277	0.385842	0.920319
H373	H	0.054585	-0.227906	0.185960
H374	H	0.387918	0.105427	0.519293
H375	H	0.721252	0.438760	0.852627
H376	H	0.061017	-0.194919	0.266679
H377	H	0.394350	0.138415	0.600012
H378	H	0.727684	0.471748	0.933345
O379	O	0.989249	-1.067805	0.224318
O380	O	1.322582	-0.734472	0.557651
O381	O	1.655916	-0.401139	0.890985
C382	C	1.024789	-1.024673	0.188829
C383	C	1.358122	-0.691339	0.522162
C384	C	1.691456	-0.358006	0.855496
H385	H	0.998987	-0.977843	0.186610
H386	H	1.332321	-0.644509	0.519943
H387	H	1.665654	-0.311176	0.853276
H388	H	1.031532	-1.043688	0.139244
H389	H	1.364865	-0.710355	0.472577
H390	H	1.698198	-0.377022	0.805910
H391	H	1.072586	-1.017609	0.211935
H392	H	1.405919	-0.684276	0.545269
H393	H	1.739252	-0.350943	0.878602
H394	H	0.836752	-1.062833	0.376591
H395	H	1.170085	-0.729500	0.709924
H396	H	1.503419	-0.396167	1.043257
O397	O	0.989239	-0.223595	0.668240
O398	O	1.322572	0.109739	1.001573
O399	O	1.655905	0.443072	1.334907
C400	C	1.024785	-0.188060	0.625161
C401	C	1.358118	0.145274	0.958494
C402	C	1.691452	0.478607	1.291827
H403	H	1.026945	-0.213855	0.578296
H404	H	1.360279	0.119478	0.911630
H405	H	1.693612	0.452812	1.244963
H406	H	1.074387	-0.181336	0.644194
H407	H	1.407721	0.151998	0.977527
H408	H	1.741054	0.485331	1.310860
H409	H	1.001768	-0.140254	0.618158
H410	H	1.335101	0.193079	0.951491
H411	H	1.668434	0.526412	1.284824
