data_functionalizedCrystal
_audit_creation_method	'MofGen! by Chris Wilmer'
_symmetry_space_group_name_H-M	'P1'
_symmetry_Int_Tables_number	1
_symmetry_cell_setting	triclinic
loop_
_symmetry_equiv_pos_as_xyz
  x,y,z
_cell_length_a	14.809374
_cell_length_b	31.640172
_cell_length_c	31.640172
_cell_angle_alpha	120.001100
_cell_angle_beta	89.990470
_cell_angle_gamma	52.853732
loop_
_atom_site_label
_atom_site_type_symbol
_atom_site_fract_x
_atom_site_fract_y
_atom_site_fract_z
Zr1	Zr	0.991121	0.360505	0.004416
O2	O	0.826849	0.465604	0.080367
O3	O	1.041459	0.267150	-0.018865
O4	O	1.041430	0.355335	0.069316
O5	O	0.826924	0.377403	-0.077375
O6	O	1.210718	0.337897	0.060597
O7	O	0.826878	0.377420	-0.007814
O8	O	1.210770	0.180151	-0.097143
O9	O	0.826872	0.535150	0.080365
O10	O	1.189290	0.288186	-0.035304
O11	O	1.062986	0.301187	-0.080709
O12	O	1.062952	0.405013	0.023113
O13	O	0.936648	0.418014	-0.022292
Zr14	Zr	1.261190	0.332668	-0.120432
Zr15	Zr	1.261117	0.332695	-0.009490
Zr16	Zr	0.991194	0.360479	-0.106526
Zr17	Zr	0.991158	0.471422	0.004413
Zr18	Zr	1.261153	0.221752	-0.120429
O19	O	1.210852	0.426024	-0.097150
O20	O	1.210748	0.426061	0.060594
O21	O	0.826953	0.465567	-0.077378
O22	O	1.425462	0.227569	-0.196383
O23	O	1.425358	0.227607	-0.038638
O24	O	1.041563	0.267113	-0.176610
O25	O	1.425387	0.315771	-0.038640
O26	O	1.210881	0.337839	-0.185332
O27	O	1.041592	0.355277	-0.176612
O28	O	1.425433	0.315754	-0.108201
O29	O	1.041483	0.513044	0.069311
O30	O	1.210828	0.180130	-0.185327
O31	O	1.425439	0.158024	-0.196381
O32	O	1.425380	0.158045	-0.108197
O33	O	0.826930	0.535129	-0.007819
O34	O	1.041541	0.513023	-0.018872
O35	O	1.189359	0.288161	-0.139129
O36	O	1.315662	0.275160	-0.093723
O37	O	1.189325	0.391987	-0.035307
O38	O	1.063021	0.404988	-0.080712
C39	C	0.788432	0.381374	-0.040613
C40	C	0.673812	0.393180	-0.034710
C41	C	1.126109	0.207847	-0.058004
C42	C	1.126093	0.160761	-0.058003
C43	C	0.685383	0.340490	-0.061056
C44	C	0.566918	0.352691	-0.054956
C45	C	1.192110	-0.138077	-0.034313
C46	C	1.192136	-0.315075	-0.034314
O47	O	1.248252	-0.343756	-0.014178
N48	N	1.126205	-0.330418	-0.058014
C49	C	1.060270	-0.301511	-0.081719
O50	O	1.004203	-0.318627	-0.101882
C51	C	1.060252	-0.124517	-0.081720
C52	C	1.126177	-0.109172	-0.058014
C53	C	1.258030	-0.122732	-0.010609
C54	C	1.258018	-0.078482	-0.010606
C55	C	1.192084	-0.049577	-0.034307
C56	C	1.126164	-0.064922	-0.058011
C57	C	0.994325	-0.095615	-0.105428
C58	C	0.994329	-0.051366	-0.105427
C59	C	1.060254	-0.036021	-0.081721
C60	C	1.060218	0.008233	-0.081710
N61	N	1.126149	0.023575	-0.058010
C62	C	1.192082	-0.005330	-0.034308
C63	C	1.060282	-0.394435	-0.081715
C64	C	1.060284	-0.438682	-0.081714
C65	C	1.192153	-0.452244	-0.034311
C66	C	1.192142	-0.407992	-0.034309
C67	C	1.126213	-0.379092	-0.058015
C68	C	1.192049	0.087599	-0.034304
C69	C	1.192027	0.131856	-0.034301
C70	C	1.060164	0.145411	-0.081707
C71	C	1.060181	0.101161	-0.081708
C72	C	1.126133	0.072254	-0.058005
O73	O	1.004142	0.036932	-0.101840
O74	O	1.248164	0.011783	-0.014159
C75	C	1.192123	-0.182327	-0.034315
C76	C	1.126202	-0.197672	-0.058019
C77	C	1.060269	-0.168767	-0.081721
C78	C	1.126205	-0.241919	-0.058018
C79	C	1.192138	-0.270824	-0.034317
C80	C	1.258069	-0.255481	-0.010617
C81	C	1.258056	-0.211232	-0.010614
C82	C	0.994338	-0.184110	-0.105421
C83	C	0.994355	-0.228359	-0.105421
C84	C	1.060288	-0.257264	-0.081720
C85	C	1.463879	0.311800	-0.075402
C86	C	1.578499	0.299993	-0.081306
C87	C	1.126064	0.346620	0.080763
C88	C	1.126033	0.346631	0.127861
C89	C	1.126202	0.485326	-0.058012
C90	C	1.126217	0.532413	-0.058013
C91	C	1.032872	0.356197	0.468935
C92	C	1.032819	0.356216	0.291955
O93	O	0.953526	0.364361	0.273147
N94	N	1.126077	0.346612	0.265017
C95	C	1.219360	0.336998	0.282325
O96	O	1.298688	0.328822	0.255348
C97	C	1.219417	0.336974	0.459302
C98	C	1.126146	0.346585	0.486241
C99	C	0.939609	0.365807	0.495874
C100	C	0.939620	0.365805	0.540118
C101	C	1.032893	0.356194	0.557424
C102	C	1.126156	0.346584	0.530486
C103	C	1.312704	0.327355	0.476607
C104	C	1.312712	0.327348	0.520853
C105	C	1.219441	0.336960	0.547793
C106	C	1.219440	0.336971	0.592036
N107	N	1.126182	0.346575	0.618973
C108	C	1.032908	0.356187	0.601668
C109	C	1.219322	0.337012	0.189410
C110	C	1.219306	0.337020	0.145167
C111	C	1.032766	0.356237	0.154799
C112	C	1.032777	0.356234	0.199046
C113	C	1.126063	0.346617	0.216348
C114	C	1.032937	0.356184	0.694584
C115	C	1.032952	0.356185	0.738833
C116	C	1.219495	0.336964	0.729195
C117	C	1.219477	0.336967	0.684951
C118	C	1.126191	0.346575	0.667646
O119	O	1.298700	0.328823	0.610870
O120	O	0.953608	0.364346	0.628644
C121	C	1.032862	0.356198	0.424691
C122	C	1.126125	0.346588	0.397753
C123	C	1.219399	0.336976	0.415059
C124	C	1.126110	0.346595	0.353509
C125	C	1.032836	0.356206	0.336203
C126	C	0.939578	0.365810	0.363141
C127	C	0.939588	0.365809	0.407385
C128	C	1.312657	0.327372	0.388121
C129	C	1.312638	0.327375	0.343878
C130	C	1.219364	0.336986	0.326572
C131	C	1.126234	0.346562	0.803225
C132	C	1.126226	0.346573	0.756139
C133	C	1.463832	0.173060	-0.075398
C134	C	1.578437	0.114167	-0.081300
C135	C	1.126201	0.207815	-0.196775
C136	C	1.126216	0.160717	-0.243871
C137	C	1.463924	0.173028	-0.214169
C138	C	1.578560	0.114123	-0.267169
C139	C	0.788387	0.520146	0.098154
C140	C	0.673751	0.579051	0.151153
C141	C	0.788478	0.520114	-0.040617
C142	C	0.673874	0.579007	-0.034715
C143	C	1.126110	0.485359	0.080759
C144	C	1.126095	0.532457	0.127855
C145	C	1.566291	0.093309	-0.053573
C146	C	1.673964	0.037980	-0.059108
C147	C	1.793781	0.003506	-0.092373
C148	C	1.805924	0.024369	-0.120101
C149	C	1.698253	0.079700	-0.114563
C150	C	1.192188	0.131800	-0.296487
C151	C	1.192198	0.087553	-0.340743
C152	C	1.126242	0.072220	-0.332382
C153	C	1.060262	0.101142	-0.279761
C154	C	1.060245	0.145392	-0.235506
C155	C	1.698334	0.079673	-0.268358
C156	C	1.806057	0.024331	-0.318153
C157	C	1.794002	0.003437	-0.366759
C158	C	1.674215	0.037893	-0.365569
C159	C	1.566495	0.093237	-0.315774
C160	C	0.553976	0.613506	0.152342
C161	C	0.446254	0.668862	0.202137
C162	C	0.458309	0.689758	0.250743
C163	C	0.578096	0.655300	0.249553
C164	C	0.685816	0.599948	0.199758
C165	C	0.686019	0.599869	-0.062438
C166	C	0.578347	0.655211	-0.056891
C167	C	0.458530	0.689686	-0.023624
C168	C	0.446386	0.668822	0.004102
C169	C	0.554058	0.613484	-0.001442
C170	C	1.192064	0.547775	0.119477
C171	C	1.192074	0.592020	0.163724
C172	C	1.126107	0.620951	0.216348
C173	C	1.060136	0.605629	0.224725
C174	C	1.060134	0.561381	0.180479
H175	H	0.782991	0.286347	-0.088132
Br176	Br	0.904868	-0.249174	-0.137593
H177	H	1.006409	0.548916	0.187309
Br178	Br	1.403947	0.139982	-0.314170
H179	H	0.587896	0.672321	0.289134
H180	H	1.311749	-0.279021	0.008684
H181	H	0.676108	0.245846	-0.108383
H182	H	0.956977	0.364007	0.680499
Br183	Br	0.848615	0.553094	-0.107588
Br184	Br	1.403696	0.140086	-0.008422
H185	H	0.588259	0.672188	-0.079472
H186	H	1.664052	0.021002	-0.036527
H187	H	1.708160	0.096675	-0.137146
H188	H	1.881444	-0.041548	-0.096879
H189	H	0.576203	0.447324	-0.007638
H190	H	1.245782	0.524225	0.076632
Br191	Br	1.968609	-0.022420	-0.319755
Br192	Br	0.904854	-0.144891	-0.137593
H193	H	0.544151	0.596501	0.021132
H194	H	1.245709	0.144349	-0.014995
H195	H	0.469309	0.406838	-0.027882
Br196	Br	1.968544	-0.022426	-0.165247
Br197	Br	0.813038	0.378845	0.576671
Br198	Br	0.848363	0.553190	0.198155
Br199	Br	0.906182	0.369281	0.131304
H200	H	1.245898	0.144278	-0.303305
H201	H	1.006527	0.168931	-0.192665
H202	H	1.245755	0.064066	-0.015004
H203	H	0.544137	0.596497	0.112770
Br204	Br	1.657876	0.009528	-0.431539
Br205	Br	1.281752	0.048309	-0.412152
Br206	Br	0.312103	0.764880	0.318318
Br207	Br	1.714729	0.108019	-0.202400
Br208	Br	1.281606	0.612806	0.152343
H209	H	1.126265	0.036188	-0.368422
H210	H	0.348728	0.696910	0.203096
Br211	Br	0.970787	-0.459489	-0.113877
H212	H	1.126118	0.656980	0.252372
H213	H	1.881725	-0.041628	-0.407301
H214	H	0.348817	0.696900	0.031188
H215	H	0.956828	0.364060	0.220977
H216	H	0.956995	0.364014	0.760767
H217	H	1.311703	-0.065993	0.008696
Br218	Br	1.347517	-0.161949	0.021565
H219	H	1.006562	0.088651	-0.272961
H220	H	1.006428	0.629191	0.267578
H221	H	1.245824	-0.395502	-0.015005
H222	H	1.245836	-0.475785	-0.015011
H223	H	1.006592	-0.370908	-0.101022
H224	H	0.940643	-0.108101	-0.124733
H225	H	0.940638	-0.027835	-0.124732
H226	H	1.388655	0.319528	0.454678
Br227	Br	0.970690	0.080346	-0.113871
Br228	Br	0.970686	0.184648	-0.113871
Br229	Br	0.813009	0.378851	0.472395
Br230	Br	1.345875	0.323991	0.108619
H231	H	1.295288	0.329181	0.203494
Br232	Br	1.439328	0.314291	0.544329
H233	H	1.311738	-0.198742	0.008690
H234	H	1.295416	0.329150	0.663021
H235	H	0.863638	0.373636	0.429316
Br236	Br	1.346074	0.323923	0.752690
Br237	Br	0.812988	0.378859	0.339648
H238	H	1.388590	0.319553	0.321949
Br239	Br	1.439255	0.314326	0.411601
H240	H	0.370867	0.734744	-0.019114
