data_functionalizedCrystal
_audit_creation_method	'MofGen! by Chris Wilmer'
_symmetry_space_group_name_H-M	'P1'
_symmetry_Int_Tables_number	1
_symmetry_cell_setting	triclinic
loop_
_symmetry_equiv_pos_as_xyz
  x,y,z
_cell_length_a	13.032721
_cell_length_b	12.827893
_cell_length_c	12.827885
_cell_angle_alpha	90.021189
_cell_angle_beta	97.149035
_cell_angle_gamma	82.797428
loop_
_atom_site_label
_atom_site_type_symbol
_atom_site_fract_x
_atom_site_fract_y
_atom_site_fract_z
Zn1	Zn	-0.416040	-1.544791	-0.643702
Zn2	Zn	0.083960	-1.044791	-0.143702
Zn3	Zn	-0.590818	-1.522472	-0.491144
Zn4	Zn	-0.090818	-1.022472	0.008856
Zn5	Zn	-0.416085	-1.370027	-0.468976
Zn6	Zn	0.083915	-0.870027	0.031024
Zn7	Zn	-0.590734	-1.347815	-0.665827
Zn8	Zn	-0.090734	-0.847815	-0.165827
O9	O	-0.503419	-1.446276	-0.567412
O10	O	-0.003419	-0.946276	-0.067412
O11	O	-0.439241	-1.688065	-0.623483
O12	O	0.060759	-1.188065	-0.123483
O13	O	-0.567693	-1.502204	-0.341974
O14	O	-0.067693	-1.002204	0.158026
O15	O	-0.269842	-1.411847	-0.473617
O16	O	0.230158	-0.911847	0.026383
O17	O	-0.567649	-1.671666	-0.511399
O18	O	-0.067649	-1.171666	-0.011399
O19	O	-0.269809	-1.540246	-0.601987
O20	O	0.230191	-1.040246	-0.101987
O21	O	-0.439317	-1.390204	-0.325687
O22	O	0.060683	-0.890204	0.174313
O23	O	-0.439236	-1.220847	-0.495070
O24	O	0.060764	-0.720847	0.004930
O25	O	-0.567507	-1.373989	-0.809121
O26	O	-0.067507	-0.873989	-0.309121
O27	O	-0.567550	-1.204527	-0.639696
O28	O	-0.067550	-0.704527	-0.139696
O29	O	-0.439159	-1.518707	-0.792866
O30	O	0.060841	-1.018707	-0.292866
O31	O	-0.737044	-1.480666	-0.532853
O32	O	-0.237044	-0.980666	-0.032853
O33	O	-0.736982	-1.352346	-0.661192
O34	O	-0.236982	-0.852346	-0.161192
C35	C	-0.503390	-1.174770	-0.567379
C36	C	-0.003390	-0.674770	-0.067379
C37	C	-0.503402	-1.058615	-0.567393
C38	C	-0.003402	-0.558615	-0.067393
C39	C	-0.439837	-0.894843	-0.495944
C40	C	0.060163	-0.394843	0.004056
C41	C	-0.439822	-1.014895	-0.495928
C42	C	0.060178	-0.514895	0.004072
C43	C	-0.774930	-1.411702	-0.601851
C44	C	-0.274930	-0.911702	-0.101851
C45	C	-0.891084	-1.397007	-0.616620
C46	C	-0.391084	-0.897007	-0.116620
C47	C	-0.942865	-1.454001	-0.559751
C48	C	-0.442865	-0.954001	-0.059751
C49	C	-1.062916	-1.438814	-0.575014
C50	C	-0.562916	-0.938814	-0.075014
C51	C	-0.230848	-1.481014	-0.532861
C52	C	0.269152	-0.981014	-0.032861
C53	C	-0.114694	-1.495817	-0.518138
C54	C	0.385306	-0.995817	-0.018138
C55	C	-0.503319	-1.446360	-0.839970
C56	C	-0.003319	-0.946360	-0.339970
C57	C	-0.503276	-1.446396	-0.956117
C58	C	-0.003276	-0.946396	-0.456117
C59	C	-0.503441	-0.718844	-0.567436
C60	C	-0.003441	-0.218844	-0.067436
C61	C	-0.503428	-0.834998	-0.567422
C62	C	-0.003428	-0.334998	-0.067422
C63	C	-0.439753	-1.518015	-0.999857
C64	C	0.060247	-1.018015	-0.499857
C65	C	-0.439708	-1.518054	-1.119902
C66	C	0.060292	-1.018054	-0.619902
C67	C	-0.503444	-1.446262	-0.295905
C68	C	-0.003444	-0.946262	0.204095
C69	C	-0.503192	-1.446467	-0.179721
C70	C	-0.003192	-0.946467	0.320279
H71	H	-0.557851	-1.007187	-0.628589
H72	H	-0.057851	-0.507187	-0.128589
Br73	Br	-0.594149	-0.897728	-0.669412
Br74	Br	-0.094149	-0.397728	-0.169412
H75	H	-0.898322	-1.514044	-0.499769
H76	H	-0.398322	-1.014044	0.000231
Br77	Br	-0.593861	-1.344232	-1.041818
Br78	Br	-0.093861	-0.844232	-0.541818
H79	H	-1.070153	-1.555864	-0.458151
H80	H	-0.570153	-1.055864	0.041849
Br81	Br	-0.349096	-0.832116	-0.393971
Br82	Br	0.150904	-0.332116	0.106029
H83	H	-0.385327	-1.579373	-1.157548
H84	H	0.114673	-1.079373	-0.657548
H85	H	-1.107457	-1.378776	-0.635008
H86	H	-0.607457	-0.878776	-0.135008
H87	H	-0.385383	-1.066329	-0.434729
H88	H	0.114617	-0.566329	0.065271
H89	H	-0.935630	-1.336973	-0.676610
H90	H	-0.435630	-0.836973	-0.176610
Br91	Br	-0.349128	-1.620144	-0.914151
Br92	Br	0.150872	-1.120144	-0.414151
H93	H	-0.557583	-1.385151	-1.142082
H94	H	-0.057583	-0.885151	-0.642082
