data_functionalizedCrystal
_audit_creation_method	'MofGen! by Chris Wilmer'
_symmetry_space_group_name_H-M	'P1'
_symmetry_Int_Tables_number	1
_symmetry_cell_setting	triclinic
loop_
_symmetry_equiv_pos_as_xyz
  x,y,z
_cell_length_a	16.793024
_cell_length_b	16.793047
_cell_length_c	33.586455
_cell_angle_alpha	113.253857
_cell_angle_beta	66.219990
_cell_angle_gamma	112.758327
loop_
_atom_site_label
_atom_site_type_symbol
_atom_site_fract_x
_atom_site_fract_y
_atom_site_fract_z
O1	O	0.005016	-0.570216	-0.583573
O2	O	-0.034529	-0.474528	-0.453458
O3	O	0.114723	-0.474535	-0.528082
O4	O	-0.144235	-0.570209	-0.508949
O5	O	0.108729	-0.346329	-0.530229
O6	O	-0.040523	-0.346322	-0.455605
O7	O	-0.000977	-0.442010	-0.585721
Zn8	Zn	-0.021701	-0.373810	-0.521004
Zn9	Zn	-0.013805	-0.542728	-0.518175
O10	O	-0.150229	-0.442003	-0.511097
C11	C	0.005100	-0.790970	-0.238461
C12	C	0.009223	-0.693065	-0.217557
C13	C	0.003804	-0.645758	-0.241627
C14	C	-0.075059	-0.538459	-0.266316
C15	C	0.049838	-0.422849	-0.250165
C16	C	-0.040584	-0.395375	-0.435637
C17	C	-0.044693	-0.353446	-0.386631
C18	C	-0.039275	-0.401741	-0.363054
C19	C	-0.040566	-0.125547	-0.300731
C20	C	-0.044689	-0.223451	-0.321635
C21	C	-0.039266	-0.270752	-0.297563
C22	C	0.039597	-0.378051	-0.272874
C23	C	-0.085304	-0.493667	-0.289026
C24	C	0.005118	-0.521142	-0.103554
C25	C	0.009231	-0.563064	-0.152559
C26	C	0.003809	-0.514775	-0.176138
C27	C	0.010758	-0.652581	-0.172822
C28	C	0.001010	-0.556371	-0.220792
C29	C	-0.008251	-0.506059	-0.245823
C30	C	-0.046224	-0.263935	-0.366370
C31	C	-0.036476	-0.360146	-0.318399
C32	C	-0.027211	-0.410451	-0.293367
C33	C	0.815184	-0.521162	-0.508596
C34	C	0.415541	-0.125553	-0.528781
C35	C	0.375032	-0.223457	-0.531493
C36	C	0.423813	-0.270761	-0.529101
C37	C	0.149318	-0.395376	-0.530584
C38	C	0.246774	-0.353455	-0.532364
C39	C	0.294574	-0.401748	-0.529976
C40	C	0.548961	-0.790984	-0.510398
C41	C	0.286104	-0.263940	-0.532530
C42	C	0.383336	-0.360149	-0.528302
C43	C	0.432207	-0.407971	-0.525810
C44	C	0.392316	-0.497392	-0.524993
C45	C	0.303554	-0.538991	-0.526667
C46	C	0.254683	-0.491169	-0.529159
C47	C	0.263666	-0.628421	-0.525851
C48	C	0.312537	-0.676243	-0.523359
C49	C	0.401299	-0.634644	-0.521685
C50	C	0.441190	-0.545223	-0.522502
C51	C	0.529952	-0.503624	-0.520828
C52	C	0.578823	-0.551446	-0.518336
C53	C	0.538939	-0.640864	-0.517520
C54	C	0.450177	-0.682463	-0.519194
C55	C	0.587810	-0.688687	-0.515028
C56	C	0.676572	-0.647088	-0.513354
C57	C	0.716463	-0.557666	-0.514172
C58	C	0.667586	-0.509847	-0.516662
C59	C	0.569840	-0.414195	-0.521644
C60	C	0.658602	-0.372596	-0.519970
C61	C	0.707476	-0.420426	-0.517480
C62	C	0.698493	-0.283174	-0.520788
C63	C	0.649622	-0.235352	-0.523280
C64	C	0.560860	-0.276951	-0.524954
C65	C	0.520969	-0.366372	-0.524136
C66	C	0.511989	-0.229129	-0.527446
C67	C	-0.040530	-0.395407	-0.935652
C68	C	0.005063	-0.791004	-0.738448
C69	C	0.009186	-0.693099	-0.717543
C70	C	0.003779	-0.645796	-0.741620
C71	C	0.005077	-0.521171	-0.603544
C72	C	0.009198	-0.563096	-0.652550
C73	C	0.003786	-0.514804	-0.676131
C74	C	-0.040516	-0.125574	-0.800747
C75	C	0.010719	-0.652613	-0.672809
C76	C	0.000994	-0.556406	-0.720789
C77	C	-0.004621	-0.508585	-0.744908
C78	C	-0.007444	-0.419162	-0.724369
C79	C	-0.004651	-0.377560	-0.679711
C80	C	0.000964	-0.425381	-0.655592
C81	C	-0.007471	-0.288129	-0.659174
C82	C	-0.013086	-0.240308	-0.683293
C83	C	-0.015878	-0.281910	-0.727951
C84	C	-0.013056	-0.371333	-0.748490
C85	C	-0.015848	-0.412935	-0.793148
C86	C	-0.021463	-0.365114	-0.817267
C87	C	-0.024282	-0.275694	-0.796731
C88	C	-0.021490	-0.234092	-0.752073
C89	C	-0.029897	-0.227873	-0.820850
C90	C	-0.032690	-0.269476	-0.865508
C91	C	-0.029867	-0.358899	-0.886047
C92	C	-0.024255	-0.406717	-0.861925
C93	C	-0.013028	-0.502367	-0.813685
C94	C	-0.015821	-0.543969	-0.858343
C95	C	-0.021433	-0.496140	-0.882464
C96	C	-0.012998	-0.633392	-0.878882
C97	C	-0.007383	-0.681213	-0.854763
C98	C	-0.004591	-0.639611	-0.810105
C99	C	-0.007414	-0.550188	-0.789566
C100	C	0.001024	-0.687432	-0.785986
O101	O	-0.000965	0.173549	-0.277957
O102	O	-0.040516	-0.085616	-0.325254
O103	O	0.108737	0.059592	-0.327284
O104	O	-0.150219	0.028341	-0.275927
O105	O	0.114753	0.055151	-0.263265
O106	O	-0.034500	-0.090057	-0.261234
O107	O	0.005051	0.169108	-0.213937
Zn108	Zn	-0.013769	0.038820	-0.227421
Zn109	Zn	-0.021696	0.044672	-0.311770
O110	O	-0.144202	0.023900	-0.211907
O111	O	-0.034458	-0.474571	0.046517
O112	O	0.005076	-0.570190	-0.083599
O113	O	-0.144170	-0.570237	-0.008972
O114	O	0.114787	-0.474523	-0.028110
O115	O	-0.150200	-0.442024	-0.011093
O116	O	-0.000954	-0.441976	-0.085720
O117	O	-0.040488	-0.346357	0.044396
Zn118	Zn	-0.021679	-0.373810	-0.020999
Zn119	Zn	-0.013734	-0.542737	-0.018204
O120	O	0.108757	-0.346309	-0.030231
C121	C	-0.850734	0.086244	-0.289716
C122	C	-0.753280	0.087165	-0.312001
C123	C	-0.705462	0.081107	-0.288506
C124	C	-0.599592	0.000085	-0.264184
C125	C	-0.481080	0.121287	-0.283645
C126	C	-0.450996	0.035117	-0.097351
C127	C	-0.410501	0.028587	-0.146852
C128	C	-0.459292	0.034683	-0.169840
C129	C	-0.184802	0.024283	-0.235878
C130	C	-0.282257	0.023363	-0.213592
C131	C	-0.330068	0.029423	-0.237088
C132	C	-0.435938	0.110445	-0.261411
C133	C	-0.554456	-0.010759	-0.241948
C134	C	-0.584541	0.075410	-0.428242
C135	C	-0.625029	0.081943	-0.378743
C136	C	-0.576244	0.075844	-0.355753
C137	C	-0.713963	0.086424	-0.357292
C138	C	-0.616708	0.075351	-0.310510
C139	C	-0.565963	0.065400	-0.286043
C140	C	-0.321573	0.024104	-0.168302
C141	C	-0.418828	0.035176	-0.215083
C142	C	-0.469568	0.045131	-0.239552
O143	O	0.585213	0.169090	-0.504004
O144	O	0.494056	-0.090076	-0.525516
O145	O	0.488081	0.055124	-0.449918
O146	O	0.591189	0.023889	-0.579602
O147	O	0.359978	0.059584	-0.452885
O148	O	0.365953	-0.085616	-0.528483
O149	O	0.457110	0.173550	-0.506971
Zn150	Zn	0.391193	0.044675	-0.518198
Zn151	Zn	0.559974	0.038798	-0.514289
O152	O	0.463086	0.028349	-0.582569
C153	C	0.815354	-0.521094	-0.008709
C154	C	0.717898	-0.563028	-0.006927
C155	C	0.670072	-0.514739	-0.009298
C156	C	0.564182	-0.463204	-0.048354
C157	C	0.445681	-0.498945	0.013847
C158	C	0.415547	-0.125494	-0.028771
C159	C	0.375059	-0.223405	-0.031498
C160	C	0.423859	-0.270708	-0.029121
C161	C	0.149365	-0.395355	-0.030599
C162	C	0.246820	-0.353421	-0.032381
C163	C	0.294640	-0.401713	-0.030008
C164	C	0.400530	-0.453248	0.009048
C165	C	0.519038	-0.417504	-0.053155
C166	C	0.549171	-0.790955	-0.010537
C167	C	0.589653	-0.693047	-0.007809
C168	C	0.540859	-0.645741	-0.010187
C169	C	0.678588	-0.652551	-0.006775
C170	C	0.581317	-0.556344	-0.010973
C171	C	0.530562	-0.506029	-0.015250
C172	C	0.286131	-0.263897	-0.032533
C173	C	0.383402	-0.360104	-0.028335
C174	C	0.434150	-0.410423	-0.024057
O175	O	-0.620614	0.089309	0.052274
O176	O	-0.529507	0.043784	-0.078544
O177	O	-0.523494	0.194833	-0.006033
O178	O	-0.626628	-0.061740	-0.020236
O179	O	-0.395386	0.185419	-0.005549
O180	O	-0.401400	0.034370	-0.078059
O181	O	-0.492507	0.079895	0.052758
Zn182	Zn	-0.426614	0.055638	-0.012574
Zn183	Zn	-0.595401	0.068041	-0.013212
O184	O	-0.498521	-0.071154	-0.019752
C185	C	-0.437537	0.048335	0.402491
C186	C	-0.397043	0.041789	0.352989
C187	C	-0.445822	0.047883	0.329994
C188	C	-0.496646	0.126653	0.277022
C189	C	-0.465894	-0.000633	0.218811
C190	C	-0.837226	0.099430	0.210091
C191	C	-0.739773	0.100339	0.187806
C192	C	-0.691967	0.094287	0.211308
C193	C	-0.571027	0.088563	0.071568
C194	C	-0.611521	0.095108	0.121070
C195	C	-0.562739	0.089011	0.144061
C196	C	-0.511915	0.010241	0.197033
C197	C	-0.542670	0.137531	0.255247
C198	C	-0.171338	0.037467	0.263967
C199	C	-0.268788	0.036555	0.286249
C200	C	-0.316597	0.042611	0.262750
C201	C	-0.308112	0.037305	0.331542
C202	C	-0.405351	0.048369	0.284750
C203	C	-0.456092	0.058317	0.260279
C204	C	-0.700452	0.099593	0.142516
C205	C	-0.603213	0.088528	0.189308
C206	C	-0.552469	0.078578	0.213776
O207	O	-0.040608	-1.085661	-0.825229
O208	O	-0.001018	-0.826491	-0.777938
O209	O	-0.150287	-0.971682	-0.775894
O210	O	0.108661	-0.940470	-0.827272
O211	O	-0.144253	-0.976123	-0.711878
O212	O	0.005016	-0.830932	-0.713922
O213	O	-0.034575	-1.090102	-0.761213
Zn214	Zn	-0.013821	-0.961222	-0.727403
Zn215	Zn	-0.021771	-0.955371	-0.811747
O216	O	0.114695	-0.944911	-0.763256
C217	C	-0.036587	-0.225633	-0.248813
C218	C	-0.115212	-0.197561	-0.222306
C219	C	-0.112787	-0.156006	-0.177394
H220	H	0.014756	-0.174936	-0.247781
H221	H	-0.032968	-0.267195	-0.237357
H222	H	-0.118822	-0.156002	-0.233759
H223	H	-0.166568	-0.248241	-0.223325
H224	H	-0.109167	-0.197567	-0.165938
H225	H	-0.061440	-0.105312	-0.176366
H226	H	-0.166135	-0.136961	-0.159403
H227	H	0.780052	-0.386407	-0.516111
H228	H	0.107243	-0.392097	-0.234140
C229	C	0.555616	-0.131634	-0.528311
C230	C	0.644168	-0.105322	-0.526295
C231	C	0.684377	-0.015511	-0.527079
H232	H	0.521832	-0.094359	-0.502989
H233	H	0.556621	-0.125839	-0.555539
H234	H	0.643157	-0.111110	-0.499070
H235	H	0.677975	-0.142573	-0.551615
H236	H	0.685382	-0.009716	-0.554307
H237	H	0.650586	0.021756	-0.501756
H238	H	0.744466	0.002350	-0.525715
C239	C	-0.053045	-0.219736	-0.887974
C240	C	-0.131694	-0.271451	-0.900805
C241	C	-0.150478	-0.225654	-0.921496
H242	H	-0.003914	-0.209815	-0.914066
H243	H	-0.061585	-0.163511	-0.867209
H244	H	-0.123148	-0.327659	-0.921569
H245	H	-0.180841	-0.281373	-0.874721
H246	H	-0.159018	-0.169430	-0.900730
H247	H	-0.101342	-0.215736	-0.947586
H248	H	-0.203847	-0.260732	-0.930200
H249	H	-0.449229	0.177371	-0.300885
C250	C	0.250602	-0.499193	-0.029169
C251	C	0.174003	-0.503870	0.008710
C252	C	0.133409	-0.593654	0.009496
H253	H	0.292290	-0.522239	-0.027473
H254	H	0.233322	-0.533878	-0.056026
H255	H	0.191285	-0.469198	0.035561
H256	H	0.132295	-0.480843	0.007023
H257	H	0.116128	-0.628339	-0.017361
H258	H	0.175103	-0.616692	0.011191
H259	H	0.081427	-0.596840	0.035194
H260	H	-0.490116	0.084434	0.126151
H261	H	0.013347	-0.692513	-0.652885
C262	C	-0.286202	0.029587	-0.286472
C263	C	-0.260949	-0.050407	-0.312252
C264	C	-0.220553	-0.050303	-0.357748
H265	H	-0.234160	0.079471	-0.288915
H266	H	-0.327986	0.034022	-0.297407
H267	H	-0.219168	-0.054833	-0.301320
H268	H	-0.312975	-0.100305	-0.309823
H269	H	-0.262337	-0.045868	-0.368683
H270	H	-0.168514	-0.000415	-0.360186
H271	H	-0.203421	-0.104581	-0.375246
C272	C	0.520639	-0.225484	-0.027301
C273	C	0.522251	-0.150907	0.011122
C274	C	0.611388	-0.109236	0.012816
H275	H	0.556571	-0.206264	-0.053778
H276	H	0.544076	-0.267027	-0.025730
H277	H	0.498826	-0.109371	0.009548
H278	H	0.486338	-0.170102	0.037606
H279	H	0.634825	-0.150779	0.014386
H280	H	0.647312	-0.090022	-0.013663
H281	H	0.612492	-0.058636	0.038887
H282	H	0.001660	-0.441639	-0.159184
C283	C	0.657475	-0.469263	-0.080770
C284	C	0.655804	-0.559734	-0.103507
C285	C	0.741726	-0.565344	-0.133375
H286	H	0.700115	-0.443319	-0.064168
H287	H	0.674245	-0.437653	-0.102216
H288	H	0.639045	-0.591332	-0.082063
H289	H	0.613181	-0.585696	-0.120118
H290	H	0.758497	-0.533733	-0.154821
H291	H	0.784360	-0.539396	-0.116769
H292	H	0.740602	-0.626727	-0.148808
C293	C	0.561660	-0.372552	-0.091078
C294	C	0.643208	-0.308817	-0.085993
C295	C	0.682502	-0.267387	-0.120918
H296	H	0.521707	-0.343510	-0.089765
H297	H	0.572967	-0.416729	-0.119534
H298	H	0.631898	-0.264648	-0.057545
H299	H	0.683183	-0.337836	-0.087311
H300	H	0.693808	-0.311563	-0.149373
H301	H	0.642541	-0.238350	-0.119602
H302	H	0.737840	-0.224144	-0.117474
H303	H	-0.015274	-0.667410	-0.915397
C304	C	0.232166	-0.210681	-0.033820
C305	C	0.155818	-0.208081	0.004301
C306	C	0.106087	-0.159059	0.003137
H307	H	0.213685	-0.238798	-0.060558
H308	H	0.268703	-0.151062	-0.033722
H309	H	0.119287	-0.267690	0.004199
H310	H	0.174273	-0.179958	0.031044
H311	H	0.142624	-0.099439	0.003234
H312	H	0.087612	-0.187180	-0.023603
H313	H	0.054283	-0.157281	0.029003
H314	H	-0.023718	-0.530163	-0.918978
C315	C	-0.487619	0.192241	0.322656
C316	C	-0.437534	0.167064	0.338172
C317	C	-0.429194	0.227469	0.380205
H318	H	-0.545984	0.191280	0.343873
H319	H	-0.457553	0.251261	0.319423
H320	H	-0.467601	0.108060	0.341407
H321	H	-0.379162	0.168031	0.316967
H322	H	-0.399128	0.286489	0.376973
H323	H	-0.487562	0.226504	0.401419
H324	H	-0.395205	0.210400	0.390737
C325	C	0.403056	-0.543775	0.051817
C326	C	0.317971	-0.528520	0.077021
C327	C	0.278676	-0.569815	0.111998
H328	H	0.440612	-0.519217	0.071054
H329	H	0.396547	-0.606703	0.039205
H330	H	0.324484	-0.465605	0.089633
H331	H	0.280393	-0.553080	0.057797
H332	H	0.272167	-0.632743	0.099386
H333	H	0.316238	-0.545254	0.131232
H334	H	0.220938	-0.559478	0.129101
C335	C	-0.267790	0.020001	-0.142353
C336	C	-0.261965	0.097113	-0.105349
C337	C	-0.212435	0.093362	-0.081431
H338	H	-0.208729	0.017149	-0.161805
H339	H	-0.297217	-0.031997	-0.131770
H340	H	-0.232535	0.149097	-0.115932
H341	H	-0.321010	0.099980	-0.085886
H342	H	-0.241862	0.041363	-0.070848
H343	H	-0.153378	0.090507	-0.100887
H344	H	-0.208483	0.145676	-0.056319
C345	C	-0.024514	-0.136594	-0.729607
C346	C	-0.020830	-0.110282	-0.685157
C347	C	-0.023604	-0.020473	-0.664452
H348	H	-0.079036	-0.130781	-0.729057
H349	H	0.025645	-0.099331	-0.746262
H350	H	-0.070984	-0.147534	-0.668505
H351	H	0.033689	-0.116073	-0.685694
H352	H	0.026555	0.016790	-0.681107
H353	H	-0.078127	-0.014668	-0.663905
H354	H	-0.021097	-0.002606	-0.634292
C355	C	-0.520721	-0.055533	0.151405
C356	C	-0.476078	-0.120744	0.139116
C357	C	-0.484178	-0.181357	0.097087
H358	H	-0.494388	-0.023993	0.129099
H359	H	-0.582837	-0.083968	0.153540
H360	H	-0.413974	-0.092311	0.136978
H361	H	-0.502401	-0.152306	0.161411
H362	H	-0.546295	-0.209792	0.099222
H363	H	-0.457846	-0.149809	0.074785
H364	H	-0.453897	-0.225614	0.088746
H365	H	-0.518447	0.052455	0.347905
C366	C	0.003955	-0.379881	-0.606904
C367	C	0.000247	-0.290974	-0.594024
C368	C	0.002985	-0.249037	-0.549174
H369	H	0.058474	-0.380025	-0.604631
H370	H	-0.046207	-0.411595	-0.587488
H371	H	0.050405	-0.259269	-0.613435
H372	H	-0.054268	-0.290804	-0.596287
H373	H	-0.047177	-0.280750	-0.529758
H374	H	0.057505	-0.249187	-0.546904
H375	H	0.000462	-0.188712	-0.540427
C376	C	-0.423836	-0.078948	0.197814
C377	C	-0.461017	-0.133111	0.227153
C378	C	-0.422303	-0.205268	0.207824
H379	H	-0.360367	-0.056504	0.192967
H380	H	-0.435839	-0.113610	0.169647
H381	H	-0.449007	-0.098455	0.255312
H382	H	-0.524482	-0.155577	0.232002
H383	H	-0.434306	-0.239930	0.179658
H384	H	-0.358835	-0.182816	0.202979
H385	H	-0.447530	-0.242031	0.227726
H386	H	0.088092	-0.309407	-0.275738
C387	C	-0.004276	-0.778685	-0.877238
C388	C	-0.007919	-0.804985	-0.921695
C389	C	-0.005046	-0.894764	-0.942416
H390	H	-0.054398	-0.816009	-0.860613
H391	H	0.050280	-0.784416	-0.877770
H392	H	-0.062469	-0.799262	-0.921161
H393	H	0.042199	-0.767685	-0.938333
H394	H	0.049510	-0.900495	-0.942948
H395	H	-0.055169	-0.932080	-0.925787
H396	H	-0.007509	-0.912618	-0.972584
H397	H	0.191099	-0.662437	-0.527221
C398	C	-0.693035	-0.062033	-0.265769
C399	C	-0.751617	-0.054445	-0.221531
C400	C	-0.837708	-0.111644	-0.222971
H401	H	-0.689513	-0.122455	-0.280023
H402	H	-0.715226	-0.045544	-0.282495
H403	H	-0.729432	-0.070939	-0.204812
H404	H	-0.755167	0.005964	-0.207269
H405	H	-0.859898	-0.095155	-0.239698
H406	H	-0.834176	-0.172062	-0.237227
H407	H	-0.877468	-0.106497	-0.192957
C408	C	-0.272733	0.042757	0.213364
C409	C	-0.247493	-0.037245	0.187590
C410	C	-0.207098	-0.037153	0.142092
H411	H	-0.220685	0.092635	0.210918
H412	H	-0.314513	0.047195	0.202428
H413	H	-0.205716	-0.041674	0.198522
H414	H	-0.299525	-0.087136	0.190022
H415	H	-0.248878	-0.032716	0.131156
H416	H	-0.155053	0.012727	0.139650
H417	H	-0.189976	-0.091437	0.124597
H418	H	0.771070	-0.249160	-0.519423
C419	C	-0.342603	0.172778	-0.259768
C420	C	-0.318132	0.235177	-0.283442
C421	C	-0.232161	0.292623	-0.281932
H422	H	-0.299943	0.138432	-0.273360
H423	H	-0.343549	0.203779	-0.229089
H424	H	-0.317179	0.204179	-0.314115
H425	H	-0.360768	0.269543	-0.269855
H426	H	-0.233107	0.323624	-0.251254
H427	H	-0.189509	0.258270	-0.295524
H428	H	-0.215550	0.334973	-0.297991
H429	H	-0.574318	0.196197	0.271049
H430	H	0.013390	-0.692483	-0.152899
H431	H	-0.503619	0.071273	-0.373665
C432	C	0.001090	-0.690952	-0.290369
C433	C	0.079696	-0.719060	-0.316870
C434	C	0.077231	-0.760704	-0.361773
H435	H	-0.002530	-0.649458	-0.301861
H436	H	-0.050283	-0.741644	-0.291360
H437	H	0.131055	-0.668375	-0.315881
H438	H	0.083332	-0.760564	-0.305392
H439	H	0.025858	-0.811395	-0.362764
H440	H	0.073609	-0.719204	-0.373260
H441	H	0.130560	-0.779787	-0.379758
H442	H	0.468233	-0.679598	-0.011487
C443	C	0.268908	-0.773737	-0.522499
C444	C	0.180359	-0.800049	-0.524518
C445	C	0.140146	-0.889858	-0.523733
H446	H	0.267882	-0.779553	-0.495277
H447	H	0.302718	-0.811000	-0.547826
H448	H	0.146558	-0.762797	-0.499194
H449	H	0.181359	-0.794255	-0.551739
H450	H	0.173955	-0.927121	-0.549060
H451	H	0.139126	-0.895665	-0.496510
H452	H	0.080064	-0.907724	-0.525107
C453	C	-0.161794	-0.534838	-0.310438
C454	C	-0.152505	-0.617502	-0.342425
C455	C	-0.222954	-0.655458	-0.362156
H456	H	-0.159590	-0.495349	-0.324989
H457	H	-0.218093	-0.544016	-0.287572
H458	H	-0.096220	-0.608320	-0.365289
H459	H	-0.154719	-0.657012	-0.327886
H460	H	-0.279254	-0.664636	-0.339290
H461	H	-0.220745	-0.615963	-0.376705
H462	H	-0.216666	-0.711553	-0.383859
H463	H	-0.123560	-0.607102	-0.263443
H464	H	-0.037138	-0.474881	-0.380005
C465	C	-0.767656	0.090830	-0.383194
C466	C	-0.724185	0.167670	-0.398617
C467	C	-0.773615	0.171760	-0.422482
H468	H	-0.826724	0.093653	-0.363743
H469	H	-0.771593	0.038658	-0.408380
H470	H	-0.720259	0.219829	-0.373434
H471	H	-0.665121	0.164864	-0.418074
H472	H	-0.777552	0.119589	-0.447668
H473	H	-0.832681	0.174581	-0.403028
H474	H	-0.744123	0.223891	-0.432953
H475	H	-0.048864	-0.224020	-0.386283
C476	C	-0.749464	0.080559	-0.239179
C477	C	-0.826046	0.006855	-0.235812
C478	C	-0.866597	0.006317	-0.190380
H479	H	-0.766766	0.134709	-0.221569
H480	H	-0.707721	0.076023	-0.228255
H481	H	-0.867782	0.011398	-0.246731
H482	H	-0.808770	-0.047307	-0.253412
H483	H	-0.824854	0.001781	-0.179456
H484	H	-0.883893	0.060470	-0.172774
H485	H	-0.918558	-0.043695	-0.188090
H486	H	0.003321	-0.760550	-0.802778
C487	C	-0.596866	-0.085676	-0.219051
C488	C	-0.613299	-0.168929	-0.251521
C489	C	-0.652345	-0.237966	-0.230449
H490	H	-0.652255	-0.077575	-0.196657
H491	H	-0.556804	-0.084143	-0.205131
H492	H	-0.653359	-0.170460	-0.265434
H493	H	-0.557925	-0.177059	-0.273916
H494	H	-0.612282	-0.236432	-0.216529
H495	H	-0.707730	-0.229856	-0.208056
H496	H	-0.663491	-0.294461	-0.252477
H497	H	0.245727	-0.224039	-0.533582
H498	H	-0.005182	-0.254109	-0.622664
H499	H	0.182115	-0.525189	-0.530531
H500	H	0.330510	-0.448858	0.033327
C501	C	0.722032	-0.696924	-0.503485
C502	C	0.672799	-0.712788	-0.461107
C503	C	0.714647	-0.758674	-0.451987
H504	H	0.781807	-0.661500	-0.503245
H505	H	0.724025	-0.752726	-0.526283
H506	H	0.670815	-0.656994	-0.438314
H507	H	0.613026	-0.748220	-0.461336
H508	H	0.716641	-0.814476	-0.474786
H509	H	0.774421	-0.723245	-0.451750
H510	H	0.681245	-0.769451	-0.423236
H511	H	0.682238	-0.162236	-0.523943
C512	C	-0.556052	0.041007	-0.145917
C513	C	-0.557604	0.117911	-0.108614
C514	C	-0.646714	0.123796	-0.086571
H515	H	-0.592033	-0.010959	-0.135815
H516	H	-0.579463	0.044815	-0.166373
H517	H	-0.534205	0.114096	-0.088162
H518	H	-0.521642	0.169891	-0.118704
H519	H	-0.670124	0.127605	-0.107026
H520	H	-0.682687	0.071826	-0.076471
H521	H	-0.647777	0.175979	-0.061261
C522	C	0.732292	-0.705805	-0.005303
C523	C	0.688825	-0.735480	0.033703
C524	C	0.738266	-0.784539	0.035078
H525	H	0.791356	-0.668493	-0.004689
H526	H	0.736237	-0.756281	-0.031443
H527	H	0.684890	-0.685012	0.059837
H528	H	0.629764	-0.772804	0.033098
H529	H	0.742211	-0.835015	0.008938
H530	H	0.797328	-0.747221	0.035691
H531	H	0.708776	-0.804687	0.061542
H532	H	0.417564	-0.755580	-0.518528
H533	H	-0.267732	0.034117	0.350946
C534	C	0.713786	-0.417187	-0.010047
C535	C	0.652022	-0.383556	-0.012499
C536	C	0.692256	-0.293691	-0.013182
H537	H	0.765771	-0.413726	-0.035721
H538	H	0.730976	-0.382496	0.016834
H539	H	0.634845	-0.418237	-0.039378
H540	H	0.600035	-0.386994	0.013172
H541	H	0.709446	-0.259000	0.013699
H542	H	0.744241	-0.290239	-0.038857
H543	H	0.650353	-0.270859	-0.014842
H544	H	-0.724884	0.094041	0.248327
H545	H	-0.740818	0.102779	0.123104
H546	H	-0.015393	-0.167196	-0.666497
