data_functionalizedCrystal
_audit_creation_method	'MofGen! by Chris Wilmer'
_symmetry_space_group_name_H-M	'P1'
_symmetry_Int_Tables_number	1
_symmetry_cell_setting	triclinic
loop_
_symmetry_equiv_pos_as_xyz
  x,y,z
_cell_length_a	10.654550
_cell_length_b	16.992695
_cell_length_c	16.053789
_cell_angle_alpha	87.278479
_cell_angle_beta	92.869384
_cell_angle_gamma	92.423437
loop_
_atom_site_label
_atom_site_type_symbol
_atom_site_fract_x
_atom_site_fract_y
_atom_site_fract_z
O1	O	1.682390	-0.113169	0.069500
O2	O	1.317818	-0.123666	0.069487
O3	O	1.498642	-0.004266	0.069487
O4	O	1.501566	-0.232568	0.069500
O5	O	1.488582	0.001689	-0.069373
O6	O	1.307758	-0.117711	-0.069373
O7	O	1.672330	-0.107213	-0.069360
Zn8	Zn	1.488447	-0.111517	-0.091414
Zn9	Zn	1.501701	-0.119363	0.091541
O10	O	1.491506	-0.226613	-0.069360
C11	C	1.265923	-0.119918	0.000055
C12	C	1.126280	-0.117611	0.000050
C13	C	1.489852	0.027944	0.000057
C14	C	1.478632	0.115049	0.000057
N15	N	1.479410	-0.106161	-0.216275
C16	C	1.052871	-0.187913	0.000066
C17	C	0.921663	-0.185742	0.000080
C18	C	0.937287	-0.042962	0.000066
C19	C	1.068492	-0.045133	0.000045
C20	C	1.110659	-0.260390	0.000071
C21	C	1.037249	-0.330698	0.000088
C22	C	0.906042	-0.328527	0.000102
C23	C	0.848244	-0.256048	0.000099
C24	C	1.724225	-0.110962	0.000074
C25	C	1.863868	-0.113269	0.000084
C26	C	1.500296	-0.258824	0.000072
C27	C	1.511516	-0.345929	0.000078
C28	C	1.586883	0.164701	0.000060
C29	C	1.576335	0.246545	0.000067
C30	C	1.457534	0.278735	0.000066
C31	C	1.349275	0.229077	0.000065
C32	C	1.359825	0.147235	0.000064
C33	C	1.413807	0.522570	0.000076
C34	C	1.403265	0.604419	0.000075
C35	C	1.630326	0.621881	0.000078
C36	C	1.640866	0.540037	0.000072
C37	C	1.532607	0.490385	0.000076
N38	N	1.446748	0.362393	0.000071
N39	N	1.543394	0.406729	0.000076
C40	C	1.557230	-0.152314	-0.259960
C41	C	1.550925	-0.148563	-0.347367
C42	C	1.466792	-0.098663	-0.391088
C43	C	1.388969	-0.052505	-0.347397
C44	C	1.395281	-0.056252	-0.259992
C45	C	1.439236	-0.082301	-0.652501
C46	C	1.432927	-0.078559	-0.739913
C47	C	1.594886	-0.174617	-0.739877
C48	C	1.601185	-0.178363	-0.652469
C49	C	1.523367	-0.132202	-0.608786
N50	N	1.460343	-0.094829	-0.480433
N51	N	1.529823	-0.136032	-0.519443
N52	N	1.510748	-0.124712	0.216402
H53	H	1.217494	-0.262166	0.000063
F54	F	1.356378	-0.033196	-0.606021
F55	F	1.343379	-0.025445	-0.786443
H56	H	1.614297	-0.186144	-0.382932
F57	F	0.827916	-0.403352	0.000112
F58	F	1.691551	0.299385	0.000069
H59	H	1.325655	0.482154	0.000078
H60	H	0.741405	-0.254286	0.000098
H61	H	0.890219	0.016046	0.000077
H62	H	1.306517	0.630626	0.000060
H63	H	1.625733	-0.192953	-0.224368
H64	H	1.669698	-0.218995	-0.616878
F65	F	1.222837	0.263338	0.000073
F66	F	1.146624	0.029689	0.000027
H67	H	1.683624	0.138498	0.000056
F68	F	1.767312	0.505782	0.000094
H69	H	1.320472	-0.011871	-0.383002
H70	H	1.658242	-0.212198	-0.775453
H71	H	1.718464	0.662315	0.000077
F72	F	1.312463	-0.007123	-0.213499
H73	H	1.084316	-0.389706	0.000083
H74	H	1.271675	0.106808	0.000061
