data_functionalizedCrystal
_audit_creation_method	'MofGen! by Chris Wilmer'
_symmetry_space_group_name_H-M	'P1'
_symmetry_Int_Tables_number	1
_symmetry_cell_setting	triclinic
loop_
_symmetry_equiv_pos_as_xyz
  x,y,z
_cell_length_a	11.026660
_cell_length_b	27.732064
_cell_length_c	9.482900
_cell_angle_alpha	99.261060
_cell_angle_beta	78.636107
_cell_angle_gamma	95.617129
loop_
_atom_site_label
_atom_site_type_symbol
_atom_site_fract_x
_atom_site_fract_y
_atom_site_fract_z
O1	O	1.625414	0.196162	-0.120867
O2	O	1.272538	0.173152	-0.120871
O3	O	1.459926	0.115246	-0.120874
O4	O	1.438026	0.254068	-0.120863
O5	O	1.421862	0.127068	0.120919
O6	O	1.234475	0.184975	0.120922
O7	O	1.587350	0.207984	0.120927
Cu8	Cu	1.407437	0.197559	0.143002
Cu9	Cu	1.452452	0.183578	-0.142947
O10	O	1.399962	0.265891	0.120930
C11	C	1.208375	0.174819	0.000024
C12	C	1.073898	0.162164	0.000022
C13	C	0.860451	0.184031	0.000019
C14	C	0.999440	0.197110	0.000023
C15	C	1.440432	0.103108	0.000018
C16	C	1.439041	0.049328	0.000004
C17	C	1.318820	-0.338564	-0.000003
C18	C	1.323948	-0.136442	-0.000005
O19	O	1.230669	-0.113587	-0.000065
N20	N	1.435065	-0.107315	-0.000004
C21	C	1.544909	-0.128722	-0.000012
O22	O	1.639541	-0.099311	-0.000025
C23	C	1.539781	-0.330843	-0.000020
C24	C	1.428654	-0.359967	-0.000007
C25	C	1.207702	-0.367687	0.000008
C26	C	1.206420	-0.418214	0.000017
C27	C	1.316255	-0.439618	0.000013
C28	C	1.427372	-0.410494	0.000002
C29	C	1.649625	-0.352250	-0.000038
C30	C	1.648334	-0.402784	-0.000044
C31	C	1.537207	-0.431908	-0.000031
C32	C	1.535925	-0.482425	0.000007
N33	N	1.424808	-0.511551	0.000005
C34	C	1.314973	-0.490148	0.000009
C35	C	1.547594	-0.022606	-0.000004
C36	C	1.548876	0.027925	0.000001
C37	C	1.327915	0.020201	0.000004
C38	C	1.326632	-0.030330	0.000010
C39	C	1.436477	-0.051732	-0.000006
C40	C	1.312288	-0.596258	0.000027
C41	C	1.311015	-0.646789	0.000042
C42	C	1.531976	-0.639061	0.000031
C43	C	1.533249	-0.588534	0.000024
C44	C	1.423396	-0.567135	0.000017
O45	O	1.629157	-0.505313	0.000050
O46	O	1.220360	-0.519569	-0.000010
C47	C	1.320102	-0.288037	-0.000012
C48	C	1.431219	-0.258913	-0.000024
C49	C	1.541054	-0.280317	-0.000027
C50	C	1.432501	-0.208383	-0.000019
C51	C	1.322666	-0.186980	-0.000015
C52	C	1.211549	-0.216106	-0.000017
C53	C	1.210267	-0.266633	-0.000008
C54	C	1.652171	-0.251190	-0.000026
C55	C	1.653444	-0.200663	-0.000032
C56	C	1.543609	-0.179260	-0.000029
C57	C	1.651514	0.206318	0.000028
C58	C	1.785993	0.218972	0.000021
C59	C	1.419457	0.278028	0.000034
C60	C	1.420850	0.331808	0.000038
N61	N	1.375785	0.207393	0.344122
N62	N	1.484113	0.173740	-0.344067
C63	C	1.443107	0.186475	0.416321
C64	C	1.416781	0.194662	0.583738
H65	H	0.825142	0.258570	0.000033
C66	C	1.021736	0.109367	0.000314
C67	C	1.041989	0.092556	0.124727
C68	C	0.993940	0.043925	0.125055
H69	H	1.061886	0.089574	-0.083907
H70	H	0.935240	0.107576	0.000392
H71	H	1.128470	0.094343	0.124637
H72	H	1.001838	0.112336	0.208969
H73	H	0.907443	0.042134	0.125132
H74	H	1.034094	0.024136	0.040828
H75	H	1.007664	0.032514	0.209473
H76	H	1.737786	-0.420208	-0.000064
C77	C	1.313748	0.226549	0.666489
C78	C	1.200520	0.206662	0.629621
C79	C	1.105578	0.236017	0.705838
H80	H	1.330247	0.258699	0.641682
H81	H	1.309638	0.227793	0.768017
H82	H	1.204631	0.205422	0.528116
H83	H	1.183981	0.174514	0.654432
H84	H	1.101469	0.237262	0.807366
H85	H	1.122090	0.268167	0.681025
H86	H	1.028742	0.222526	0.680844
H87	H	1.038584	0.236711	0.000036
H88	H	1.298653	0.231361	0.406254
C89	C	1.586688	0.141686	0.572848
C90	C	1.592268	0.139868	0.423313
C91	C	1.686635	0.110293	0.346731
H92	H	1.569818	0.109553	0.597728
H93	H	1.663799	0.154998	0.597440
H94	H	1.515176	0.126554	0.398730
H95	H	1.609156	0.171993	0.398389
H96	H	1.763745	0.123604	0.371323
H97	H	1.669755	0.078161	0.371622
H98	H	1.690441	0.109059	0.245264
C99	C	1.205870	-0.061869	-0.000065
C100	C	1.109969	-0.032304	-0.000095
C101	C	0.998705	-0.061339	-0.000189
H102	H	1.187328	-0.077630	0.084225
H103	H	1.213984	-0.085856	-0.084424
H104	H	1.101853	-0.008326	0.084255
H105	H	1.128469	-0.016544	-0.084378
H106	H	1.006820	-0.085326	-0.084547
H107	H	0.980176	-0.077099	0.084103
H108	H	0.933626	-0.041285	-0.000222
C109	C	1.190244	-0.678329	-0.000024
C110	C	1.094341	-0.648768	-0.000067
C111	C	0.983079	-0.677805	-0.000151
H112	H	1.171705	-0.694086	0.084274
H113	H	1.198360	-0.702320	-0.084375
H114	H	1.086224	-0.624786	0.084275
H115	H	1.112840	-0.633011	-0.084359
H116	H	0.991195	-0.701795	-0.084501
H117	H	0.964552	-0.693560	0.084149
H118	H	0.917998	-0.657752	-0.000193
H119	H	1.222835	-0.578840	0.000022
C120	C	1.666733	-0.045894	0.000214
C121	C	1.652870	-0.068606	0.124588
C122	C	1.762587	-0.090067	0.124834
H123	H	1.733175	-0.021355	0.000292
H124	H	1.684108	-0.069592	-0.084064
H125	H	1.635510	-0.044909	0.208844
H126	H	1.586449	-0.093151	0.124536
H127	H	1.779963	-0.113766	0.040556
H128	H	1.829022	-0.065526	0.124908
H129	H	1.753192	-0.105483	0.209213
H130	H	1.115932	-0.441923	0.000015
H131	H	1.119776	-0.290342	0.000004
H132	H	0.821297	0.144434	0.000037
H133	H	1.743941	-0.176954	-0.000032
H134	H	1.118257	-0.350267	0.000006
H135	H	1.238482	0.037636	0.000013
H136	H	1.520231	0.162503	0.354191
H137	H	1.639362	0.051634	0.000012
C138	C	1.770232	-0.320593	-0.000295
C139	C	1.796988	-0.297436	-0.124681
C140	C	1.908081	-0.268267	-0.124962
H141	H	1.835566	-0.340531	-0.000382
H142	H	1.762098	-0.296569	0.083975
H143	H	1.805130	-0.321457	-0.208929
H144	H	1.731685	-0.277490	-0.124620
H145	H	1.899947	-0.244243	-0.040692
H146	H	1.973405	-0.288208	-0.125045
H147	H	1.926243	-0.252548	-0.209349
C148	C	1.654036	-0.556998	-0.000066
C149	C	1.749954	-0.586562	-0.000102
C150	C	1.861247	-0.557533	-0.000227
H151	H	1.646048	-0.532989	0.084215
H152	H	1.672465	-0.541266	-0.084433
H153	H	1.731529	-0.602286	0.084255
H154	H	1.757981	-0.610569	-0.084378
H155	H	1.879676	-0.541802	-0.084593
H156	H	1.853246	-0.533526	0.084057
H157	H	1.926342	-0.577589	-0.000264
C158	C	1.092384	-0.192850	-0.000318
C159	C	1.106254	-0.170163	-0.124740
C160	C	0.996509	-0.148738	-0.125087
H161	H	1.074922	-0.169143	0.083897
H162	H	1.025990	-0.217419	-0.000395
H163	H	1.172628	-0.145597	-0.124650
H164	H	1.123698	-0.193860	-0.208976
H165	H	0.930115	-0.173307	-0.125164
H166	H	0.979056	-0.125032	-0.040866
H167	H	1.005901	-0.133346	-0.209511
H168	H	1.621400	-0.656497	0.000035
H169	H	1.741614	-0.268611	-0.000030
