data_functionalizedCrystal
_audit_creation_method	'MofGen! by Chris Wilmer'
_symmetry_space_group_name_H-M	'P1'
_symmetry_Int_Tables_number	1
_symmetry_cell_setting	triclinic
loop_
_symmetry_equiv_pos_as_xyz
  x,y,z
_cell_length_a	13.897441
_cell_length_b	16.120530
_cell_length_c	13.897448
_cell_angle_alpha	87.113275
_cell_angle_beta	89.969401
_cell_angle_gamma	87.080937
loop_
_atom_site_label
_atom_site_type_symbol
_atom_site_fract_x
_atom_site_fract_y
_atom_site_fract_z
Zn1	Zn	-0.620100	1.274607	-0.458859
Zn2	Zn	-0.120100	1.774607	0.041141
Zn3	Zn	-0.458796	1.274515	-0.620175
Zn4	Zn	0.041204	1.774515	-0.120175
Zn5	Zn	-0.450646	1.135184	-0.450711
Zn6	Zn	0.049354	1.635184	0.049289
Zn7	Zn	-0.611880	1.135168	-0.611923
Zn8	Zn	-0.111880	1.635168	-0.111923
O9	O	-0.535356	1.204869	-0.535417
O10	O	-0.035356	1.704869	-0.035417
O11	O	-0.605554	1.391262	-0.487122
O12	O	-0.105554	1.891262	0.012878
O13	O	-0.322732	1.256001	-0.597739
O14	O	0.177268	1.756001	-0.097739
O15	O	-0.473153	1.153724	-0.316813
O16	O	0.026847	1.653724	0.183187
O17	O	-0.487045	1.391194	-0.605640
O18	O	0.012955	1.891194	-0.105640
O19	O	-0.597651	1.256157	-0.322799
O20	O	-0.097651	1.756157	0.177201
O21	O	-0.316743	1.153635	-0.473235
O22	O	0.183257	1.653635	0.026765
O23	O	-0.465182	1.018515	-0.465232
O24	O	0.034818	1.518515	0.034768
O25	O	-0.747954	1.153697	-0.591574
O26	O	-0.247954	1.653697	-0.091574
O27	O	-0.583641	1.018503	-0.583674
O28	O	-0.083641	1.518503	-0.083674
O29	O	-0.753994	1.256142	-0.479119
O30	O	-0.253994	1.756142	0.020881
O31	O	-0.479074	1.255986	-0.754060
O32	O	0.020926	1.755986	-0.254060
O33	O	-0.591544	1.153608	-0.747996
O34	O	-0.091544	1.653608	-0.247996
C35	C	-0.522636	0.988259	-0.522674
C36	C	-0.022636	1.488259	-0.022674
C37	C	-0.517217	0.895592	-0.517246
C38	C	-0.017217	1.395592	-0.017246
C39	C	-0.786952	1.204928	-0.535335
C40	C	-0.286952	1.704928	-0.035335
C41	C	-0.894168	1.204953	-0.535300
C42	C	-0.394168	1.704953	-0.035300
C43	C	-1.090464	1.204976	-0.535236
C44	C	-0.590464	1.704976	-0.035236
C45	C	-0.981231	1.204960	-0.535275
C46	C	-0.481231	1.704960	-0.035275
C47	C	-0.507332	0.725929	-0.507313
C48	C	-0.007332	1.225929	-0.007313
C49	C	-0.563450	0.684648	-0.563592
C50	C	-0.063450	1.184648	-0.063592
C51	C	-0.557950	0.590242	-0.558065
C52	C	-0.057950	1.090242	-0.058065
C53	C	-0.512831	0.820344	-0.512838
C54	C	-0.012831	1.320344	-0.012838
C55	C	-0.284741	1.204858	-0.535432
C56	C	0.215259	1.704858	-0.035432
C57	C	-0.177535	1.204994	-0.535204
C58	C	0.322465	1.704994	-0.035204
C59	C	-0.535324	1.204808	-0.786028
C60	C	-0.035324	1.704808	-0.286028
C61	C	-0.535347	1.204858	-0.893245
C62	C	-0.035347	1.704858	-0.393245
C63	C	-0.548126	1.422324	-0.548210
C64	C	-0.048126	1.922324	-0.048210
C65	C	-0.553568	1.514991	-0.553662
C66	C	-0.053568	2.014991	-0.053662
C67	C	-0.535413	1.204945	-1.089545
C68	C	-0.035413	1.704945	-0.589545
C69	C	-0.535379	1.204894	-0.980309
C70	C	-0.035379	1.704894	-0.480309
C71	C	-0.535410	1.204952	-0.283829
C72	C	-0.035410	1.704952	0.216171
C73	C	-0.535433	1.204988	-0.176617
C74	C	-0.035433	1.704988	0.323383
H75	H	-0.615626	0.720207	-0.615924
H76	H	-0.115626	1.220207	-0.115924
H77	H	-0.455161	0.690372	-0.454985
H78	H	0.044839	1.190372	0.045015
