data_functionalizedCrystal
_audit_creation_method	'MofGen! by Chris Wilmer'
_symmetry_space_group_name_H-M	'P1'
_symmetry_Int_Tables_number	1
_symmetry_cell_setting	triclinic
loop_
_symmetry_equiv_pos_as_xyz
  x,y,z
_cell_length_a	18.215407
_cell_length_b	18.215406
_cell_length_c	18.215399
_cell_angle_alpha	90.019188
_cell_angle_beta	89.980167
_cell_angle_gamma	90.001785
loop_
_atom_site_label
_atom_site_type_symbol
_atom_site_fract_x
_atom_site_fract_y
_atom_site_fract_z
Zn1	Zn	-1.125211	-0.292983	0.416161
Zn2	Zn	-0.625211	0.207017	0.916161
Zn3	Zn	-1.125177	-0.416054	0.293113
Zn4	Zn	-0.625177	0.083946	0.793113
Zn5	Zn	-1.002143	-0.293007	0.293108
Zn6	Zn	-0.502143	0.206993	0.793108
Zn7	Zn	-1.002167	-0.416013	0.416138
Zn8	Zn	-0.502167	0.083987	0.916138
O9	O	-1.063675	-0.354514	0.354630
O10	O	-0.563675	0.145486	0.854630
O11	O	-1.228190	-0.309316	0.399850
O12	O	-0.728190	0.190684	0.899850
O13	O	-1.108833	-0.399759	0.190128
O14	O	-0.608833	0.100241	0.690128
O15	O	-1.018472	-0.190020	0.309439
O16	O	-0.518472	0.309980	0.809439
O17	O	-1.228166	-0.399736	0.309447
O18	O	-0.728166	0.100264	0.809447
O19	O	-1.108889	-0.190002	0.399845
O20	O	-0.608889	0.309998	0.899845
O21	O	-1.018440	-0.309357	0.190124
O22	O	-0.518440	0.190643	0.690124
O23	O	-0.899162	-0.309317	0.309417
O24	O	-0.399162	0.190683	0.809417
O25	O	-1.018513	-0.399666	0.519125
O26	O	-0.518513	0.100334	1.019125
O27	O	-0.899180	-0.399689	0.399806
O28	O	-0.399180	0.100311	0.899806
O29	O	-1.108913	-0.309276	0.519142
O30	O	-0.608913	0.190724	1.019142
O31	O	-1.108856	-0.519033	0.309426
O32	O	-0.608856	-0.019033	0.809426
O33	O	-1.018481	-0.519003	0.399811
O34	O	-0.518481	-0.019003	0.899811
C35	C	-1.063687	-0.545721	0.354633
C36	C	-0.563687	-0.045721	0.854633
C37	C	-1.063760	-0.627519	0.354658
C38	C	-0.563760	-0.127519	0.854658
C39	C	-1.063719	-0.354464	0.546583
C40	C	-0.563719	0.145536	1.046583
C41	C	-1.063739	-0.354442	0.628382
C42	C	-0.563739	0.145558	1.128382
C43	C	-0.872468	-0.354502	0.354609
C44	C	-0.372468	0.145498	0.854609
C45	C	-0.790669	-0.354514	0.354617
C46	C	-0.290669	0.145486	0.854617
C47	C	-1.255628	-0.354528	0.354652
C48	C	-0.755628	0.145472	0.854652
C49	C	-1.337426	-0.354533	0.354661
C50	C	-0.837426	0.145467	0.854661
C51	C	-0.602504	-0.401645	0.401624
C52	C	-0.102504	0.098355	0.901624
C53	C	-0.525645	-0.401647	0.401633
C54	C	-0.025645	0.098353	0.901633
C55	C	-0.525597	-0.307397	0.307652
C56	C	-0.025597	0.192603	0.807652
C57	C	-0.602455	-0.307392	0.307647
C58	C	-0.102455	0.192608	0.807647
C59	C	-0.640906	-0.354520	0.354632
C60	C	-0.140906	0.145480	0.854632
C61	C	-0.487190	-0.354528	0.354646
C62	C	0.012810	0.145472	0.854646
C63	C	-0.403856	-0.354530	0.354656
C64	C	0.096144	0.145470	0.854656
C65	C	-0.724245	-0.354517	0.354624
C66	C	-0.224245	0.145483	0.854624
C67	C	-1.063682	-0.162561	0.354644
C68	C	-0.563682	0.337439	0.854644
C69	C	-1.063685	-0.080763	0.354649
C70	C	-0.563685	0.419237	0.854649
C71	C	-1.016680	0.184315	0.401717
C72	C	-0.516680	0.684315	0.901717
C73	C	-1.016665	0.107456	0.401714
C74	C	-0.516665	0.607456	0.901714
C75	C	-1.110767	0.107408	0.307586
C76	C	-0.610767	0.607408	0.807586
C77	C	-1.110778	0.184266	0.307585
C78	C	-0.610778	0.684266	0.807585
C79	C	-1.063735	0.222717	0.354655
C80	C	-0.563735	0.722717	0.854655
C81	C	-1.063710	0.069001	0.354653
C82	C	-0.563710	0.569001	0.854653
C83	C	-1.063695	-0.014333	0.354650
C84	C	-0.563695	0.485667	0.854650
C85	C	-1.063749	0.306056	0.354657
C86	C	-0.563749	0.806056	0.854657
C87	C	-1.063672	-0.354512	0.163424
C88	C	-0.563672	0.145488	0.663424
C89	C	-1.063796	-0.354326	0.081625
C90	C	-0.563796	0.145674	0.581625
C91	C	-1.110826	-0.307332	0.816586
C92	C	-0.610826	0.192668	1.316586
C93	C	-1.110835	-0.307311	0.893445
C94	C	-0.610835	0.192689	1.393445
C95	C	-1.016703	-0.401438	0.893416
C96	C	-0.516703	0.098562	1.393416
C97	C	-1.016691	-0.401455	0.816559
C98	C	-0.516691	0.098545	1.316559
C99	C	-1.063757	-0.354403	0.778146
C100	C	-0.563757	0.145597	1.278146
C101	C	-1.063777	-0.354365	0.931862
C102	C	-0.563777	0.145635	1.431862
C103	C	-1.063787	-0.354342	1.015195
C104	C	-0.563787	0.145658	1.515195
C105	C	-1.063747	-0.354425	0.694807
C106	C	-0.563747	0.145575	1.194807
H107	H	-0.633809	-0.440018	0.439884
H108	H	-0.133809	0.059982	0.939884
H109	H	-1.149069	0.076092	0.269264
H110	H	-0.649069	0.576092	0.769264
F111	F	-1.160862	0.225138	0.257491
F112	F	-0.660862	0.725138	0.757491
F113	F	-0.484778	-0.451803	0.451650
F114	F	0.015222	0.048197	0.951650
F115	F	-0.484668	-0.257244	0.257649
F116	F	0.015332	0.242756	0.757649
H117	H	-1.149149	-0.269017	0.785312
H118	H	-0.649149	0.230983	1.285312
F119	F	-0.643327	-0.257228	0.257633
F120	F	-0.143327	0.242772	0.757633
F121	F	-1.160938	-0.257215	0.934352
F122	F	-0.660938	0.242785	1.434352
F123	F	-0.966583	0.066589	0.451804
F124	F	-0.466583	0.566589	0.951804
H125	H	-0.978374	0.215620	0.440042
H126	H	-0.478374	0.715620	0.940042
H127	H	-0.978385	-0.439748	0.924701
H128	H	-0.478385	0.060252	1.424701
H129	H	-0.978356	-0.439786	0.785260
H130	H	-0.478356	0.060214	1.285260
