data_functionalizedCrystal
_audit_creation_method	'MofGen! by Chris Wilmer'
_symmetry_space_group_name_H-M	'P1'
_symmetry_Int_Tables_number	1
_symmetry_cell_setting	triclinic
loop_
_symmetry_equiv_pos_as_xyz
  x,y,z
_cell_length_a	19.077105
_cell_length_b	25.639239
_cell_length_c	19.076919
_cell_angle_alpha	87.731593
_cell_angle_beta	89.923776
_cell_angle_gamma	87.734929
loop_
_atom_site_label
_atom_site_type_symbol
_atom_site_fract_x
_atom_site_fract_y
_atom_site_fract_z
Zn1	Zn	1.058187	-0.252939	0.440398
Zn2	Zn	1.558187	0.247061	0.940398
Zn3	Zn	1.062799	-0.337004	0.322884
Zn4	Zn	1.562799	0.162996	0.822884
Zn5	Zn	0.945407	-0.245935	0.318192
Zn6	Zn	1.445407	0.254065	0.818192
Zn7	Zn	0.940620	-0.336689	0.435637
Zn8	Zn	1.440620	0.163311	0.935637
O9	O	1.001753	-0.293142	0.379278
O10	O	1.501753	0.206858	0.879278
O11	O	1.157129	-0.267153	0.428766
O12	O	1.657129	0.232847	0.928766
O13	O	1.051160	-0.322124	0.223931
O14	O	1.551160	0.177876	0.723931
O15	O	0.960440	-0.173702	0.334431
O16	O	1.460440	0.326298	0.834431
O17	O	1.160518	-0.328916	0.342429
O18	O	1.660518	0.171084	0.842429
O19	O	1.043299	-0.178848	0.424215
O20	O	1.543299	0.321152	0.924215
O21	O	0.964912	-0.255216	0.220483
O22	O	1.464912	0.244784	0.720483
O23	O	0.846441	-0.254910	0.329815
O24	O	1.346441	0.245090	0.829815
O25	O	0.952283	-0.328378	0.534600
O26	O	1.452283	0.171622	1.034600
O27	O	0.842925	-0.321587	0.416101
O28	O	1.342925	0.178413	0.916101
O29	O	1.038658	-0.266848	0.538097
O30	O	1.538658	0.233152	1.038097
O31	O	1.046519	-0.410124	0.337813
O32	O	1.546519	0.089876	0.837813
O33	O	0.956755	-0.409893	0.420652
O34	O	1.456755	0.090107	0.920652
C35	C	0.819187	-0.287455	0.371933
C36	C	1.319187	0.212545	0.871933
C37	C	0.741083	-0.285035	0.368807
C38	C	1.241083	0.214965	0.868807
C39	C	0.702581	-0.318661	0.412193
C40	C	1.202581	0.181339	0.912193
C41	C	0.629194	-0.316381	0.409259
C42	C	1.129194	0.183619	0.909259
C43	C	0.594312	-0.280476	0.362936
C44	C	1.094312	0.219524	0.862936
C45	C	0.632820	-0.246846	0.319549
C46	C	1.132820	0.253154	0.819549
C47	C	0.706205	-0.249125	0.322486
C48	C	1.206205	0.250875	0.822486
C49	C	0.375028	-0.269932	0.349344
C50	C	0.875028	0.230068	0.849344
C51	C	0.301638	-0.267658	0.346409
C52	C	0.801638	0.232342	0.846409
C53	C	0.298017	-0.337192	0.436121
C54	C	0.798017	0.162808	0.936121
C55	C	0.371404	-0.339469	0.439051
C56	C	0.871404	0.160531	0.939051
C57	C	0.409905	-0.305837	0.395666
C58	C	0.909905	0.194163	0.895666
N59	N	0.519299	-0.278146	0.359935
N60	N	1.019299	0.221854	0.859935
N61	N	0.484917	-0.308166	0.398671
N62	N	0.984917	0.191834	0.898671
C63	C	1.001636	-0.428980	0.379241
C64	C	1.501636	0.071020	0.879241
C65	C	1.001650	-0.487094	0.379251
C66	C	1.501650	0.012906	0.879251
C67	C	1.048607	-0.847575	0.336225
C68	C	1.548607	-0.347575	0.836225
C69	C	1.048634	-0.902180	0.336235
C70	C	1.548634	-0.402180	0.836235
O71	O	1.088438	-0.930513	0.299613
O72	O	1.588438	-0.430513	0.799613
N73	N	1.001875	-0.929386	0.379329
N74	N	1.501875	-0.429386	0.879329
C75	C	0.955090	-0.901983	0.422421
C76	C	1.455090	-0.401983	0.922421
O77	O	0.915321	-0.930137	0.459077
O78	O	1.415321	-0.430137	0.959077
C79	C	0.955067	-0.847379	0.422413
C80	C	1.455067	-0.347379	0.922413
C81	C	1.001825	-0.820176	0.379311
C82	C	1.501825	-0.320176	0.879311
C83	C	1.095362	-0.820372	0.293127
C84	C	1.595362	-0.320372	0.793127
C85	C	1.095334	-0.765771	0.293116
C86	C	1.595334	-0.265771	0.793116
C87	C	1.048551	-0.738372	0.336202
C88	C	1.548551	-0.238372	0.836202
C89	C	1.001797	-0.765574	0.379300
C90	C	1.501797	-0.265574	0.879300
C91	C	0.908287	-0.819977	0.465508
C92	C	1.408287	-0.319977	0.965508
C93	C	0.908268	-0.765369	0.465497
C94	C	1.408268	-0.265369	0.965497
C95	C	0.955026	-0.738167	0.422395
C96	C	1.455026	-0.238167	0.922395
C97	C	0.954987	-0.683574	0.422375
C98	C	1.454987	-0.183574	0.922375
N99	N	1.001746	-0.656368	0.379282
N100	N	1.501746	-0.156368	0.879282
C101	C	1.048528	-0.683767	0.336195
C102	C	1.548528	-0.183767	0.836195
C103	C	0.955143	-1.016656	0.422434
C104	C	1.455143	-0.516656	0.922434
C105	C	0.955162	-1.071259	0.422438
C106	C	1.455162	-0.571259	0.922438
C107	C	1.048707	-1.071452	0.336253
C108	C	1.548707	-0.571452	0.836253
C109	C	1.048684	-1.016848	0.336246
C110	C	1.548684	-0.516848	0.836246
C111	C	1.001902	-0.989450	0.379340
C112	C	1.501902	-0.489450	0.879340
C113	C	1.048466	-0.569100	0.336174
C114	C	1.548466	-0.069100	0.836174
C115	C	1.048432	-0.514493	0.336164
C116	C	1.548432	-0.014493	0.836164
C117	C	0.954890	-0.514304	0.422351
C118	C	1.454890	-0.014304	0.922351
C119	C	0.954921	-0.568906	0.422359
C120	C	1.454921	-0.068906	0.922359
C121	C	1.001715	-0.596303	0.379268
C122	C	1.501715	-0.096303	0.879268
O123	O	0.915205	-0.655207	0.458982
O124	O	1.415205	-0.155207	0.958982
O125	O	1.088298	-0.655607	0.299552
O126	O	1.588298	-0.155607	0.799552
C127	C	1.185032	-0.298851	0.386652
C128	C	1.685032	0.201149	0.886652
C129	C	1.263135	-0.301284	0.389794
C130	C	1.763135	0.198716	0.889794
C131	C	0.994422	-0.298359	0.562557
C132	C	1.494422	0.201641	1.062557
C133	C	0.991298	-0.300582	0.640660
C134	C	1.491298	0.199418	1.140660
C135	C	1.001889	-0.156774	0.379331
C136	C	1.501889	0.343226	0.879331
C137	C	1.001947	-0.098662	0.379354
C138	C	1.501947	0.401338	0.879354
C139	C	1.009096	-0.287908	0.196713
C140	C	1.509096	0.212092	0.696713
C141	C	1.012356	-0.285541	0.118616
C142	C	1.512356	0.214459	0.618616
C143	C	1.034799	-0.269593	0.679175
C144	C	1.534799	0.230407	1.179175
C145	C	1.031855	-0.271680	0.752561
C146	C	1.531855	0.228320	1.252561
C147	C	0.985413	-0.304759	0.787430
C148	C	1.485413	0.195241	1.287430
C149	C	0.941907	-0.335750	0.748910
C150	C	1.441907	0.164250	1.248910
C151	C	0.944848	-0.333660	0.675526
C152	C	1.444848	0.166340	1.175526
C153	C	0.971792	-0.314442	1.006711
C154	C	1.471792	0.185558	1.506711
C155	C	0.968856	-0.316531	1.080100
C156	C	1.468856	0.183469	1.580100
C157	C	1.058803	-0.252460	1.083746
C158	C	1.558803	0.247540	1.583746
C159	C	1.061742	-0.250375	1.010361
C160	C	1.561742	0.249625	1.510361
C161	C	1.018234	-0.281364	0.971846
C162	C	1.518234	0.218636	1.471846
N163	N	0.982404	-0.306894	0.862442
N164	N	1.482404	0.193106	1.362442
N165	N	1.021240	-0.279226	0.896836
N166	N	1.521240	0.220774	1.396836
H167	H	1.086507	-0.492346	0.301063
H168	H	1.586507	0.007654	0.801063
H169	H	0.917081	-1.093402	0.457529
H170	H	1.417081	-0.593402	0.957529
H171	H	1.099562	-0.223440	0.981975
H172	H	1.599562	0.276560	1.481975
H173	H	0.266661	-0.364572	0.471443
H174	H	0.766661	0.135428	0.971443
O175	O	1.140731	-0.739405	0.251154
O176	O	1.640731	-0.239405	0.751154
C177	C	1.128233	-0.750302	0.180493
C178	C	1.628233	-0.250302	0.680493
H179	H	1.101289	-0.789083	0.177936
H180	H	1.601289	-0.289083	0.677936
H181	H	1.180235	-0.752833	0.151075
H182	H	1.680235	-0.252833	0.651075
H183	H	1.093072	-0.717803	0.155330
H184	H	1.593072	-0.217803	0.655330
H185	H	0.604413	-0.217610	0.281834
H186	H	1.104413	0.282390	0.781834
H187	H	0.406367	-0.242551	0.314012
H188	H	0.906367	0.257449	0.814012
H189	H	1.086571	-0.591400	0.301087
H190	H	1.586571	-0.091400	0.801087
O191	O	1.074137	-0.241651	0.790058
O192	O	1.574137	0.258349	1.290058
C193	C	1.117799	-0.274036	0.834319
C194	C	1.617799	0.225964	1.334319
H195	H	1.092540	-0.313200	0.844295
H196	H	1.592540	0.186800	1.344295
H197	H	1.125157	-0.254501	0.886312
H198	H	1.625157	0.245499	1.386312
H199	H	1.171005	-0.280594	0.808143
H200	H	1.671005	0.219406	1.308143
H201	H	0.399800	-0.368707	0.476771
H202	H	0.899800	0.131293	0.976771
H203	H	1.133461	-0.842675	0.258040
H204	H	1.633461	-0.342675	0.758040
O205	O	0.267861	-0.232730	0.301391
O206	O	0.767861	0.267270	0.801391
C207	C	0.317579	-0.203542	0.263716
C208	C	0.817579	0.296458	0.763716
H209	H	0.368747	-0.204206	0.294595
H210	H	0.868747	0.295794	0.794595
H211	H	0.296698	-0.161473	0.255476
H212	H	0.796698	0.338527	0.755476
H213	H	0.327496	-0.221345	0.210612
H214	H	0.827496	0.278655	0.710612
H215	H	1.086802	-1.093771	0.301172
H216	H	1.586802	-0.593771	0.801172
O217	O	0.736427	-0.353485	0.457292
O218	O	1.236427	0.146515	0.957292
C219	C	0.715702	-0.343585	0.526634
C220	C	1.215702	0.156415	1.026634
H221	H	0.695418	-0.301298	0.529475
H222	H	1.195418	0.198702	1.029475
H223	H	0.762577	-0.350614	0.563271
H224	H	1.262577	0.149386	1.063271
H225	H	0.672353	-0.370834	0.543228
H226	H	1.172353	0.129166	1.043228
O227	O	0.896831	-0.367955	0.782705
O228	O	1.396831	0.132045	1.282705
C229	C	0.912864	-0.420032	0.765383
C230	C	1.412864	0.079968	1.265383
H231	H	0.942009	-0.420439	0.713188
H232	H	1.442009	0.079561	1.213188
H233	H	0.862228	-0.441824	0.760819
H234	H	1.362228	0.058176	1.260819
H235	H	0.947319	-0.439943	0.808132
H236	H	1.447319	0.060057	1.308132
H237	H	0.737553	-0.221740	0.287160
H238	H	1.237553	0.278260	0.787160
H239	H	0.870174	-0.743065	0.500592
H240	H	1.370174	-0.243065	1.000592
O241	O	1.094173	-0.990508	0.294360
O242	O	1.594173	-0.490508	0.794360
C243	C	1.135451	-1.026406	0.256319
C244	C	1.635451	-0.526406	0.756319
H245	H	1.136721	-1.066214	0.285208
H246	H	1.636721	-0.566214	0.785208
H247	H	1.191113	-1.012104	0.251091
H248	H	1.691113	-0.512104	0.751091
H249	H	1.111897	-1.029928	0.201900
H250	H	1.611897	-0.529928	0.701900
O251	O	0.862801	-0.846413	0.507280
O252	O	1.362801	-0.346413	1.007280
C253	C	0.819066	-0.875508	0.465436
C254	C	1.319066	-0.375508	0.965436
H255	H	0.816966	-0.857369	0.409910
H256	H	1.316966	-0.357369	0.909910
H257	H	0.763959	-0.875197	0.488642
H258	H	1.263959	-0.375197	0.988642
H259	H	0.840905	-0.917484	0.463919
H260	H	1.340905	-0.417484	0.963919
O261	O	0.909622	-0.990122	0.464311
O262	O	1.409622	-0.490122	0.964311
C263	C	0.868373	-1.025849	0.502357
C264	C	1.368373	-0.525849	1.002357
H265	H	0.867139	-1.063886	0.473477
H266	H	1.367139	-0.563886	0.973477
H267	H	0.812696	-1.008607	0.507578
H268	H	1.312696	-0.508607	1.007578
H269	H	0.891928	-1.033944	0.556780
H270	H	1.391928	-0.533944	1.056780
O271	O	0.909475	-0.595254	0.464290
O272	O	1.409475	-0.095254	0.964290
C273	C	0.868164	-0.559358	0.502301
C274	C	1.368164	-0.059358	1.002301
H275	H	0.896822	-0.521374	0.505899
H276	H	1.396822	-0.021374	1.005899
H277	H	0.858422	-0.576462	0.557361
H278	H	1.358422	-0.076462	1.057361
H279	H	0.815843	-0.551213	0.474380
H280	H	1.315843	-0.051213	0.974380
O281	O	0.591762	-0.348976	0.451476
O282	O	1.091762	0.151024	0.951476
C283	C	0.547518	-0.319245	0.495232
C284	C	1.047518	0.180755	0.995232
H285	H	0.569486	-0.278884	0.500563
H286	H	1.069486	0.221116	1.000563
H287	H	0.544526	-0.339734	0.549227
H288	H	1.044526	0.160266	1.049227
H289	H	0.492764	-0.315075	0.471290
H290	H	0.992764	0.184925	0.971290
O291	O	0.909549	-0.487663	0.464285
O292	O	1.409549	0.012337	0.964285
C293	C	0.947701	-0.458562	0.511282
C294	C	1.447701	0.041438	1.011282
H295	H	1.002869	-0.476827	0.517891
H296	H	1.502869	0.023173	1.017891
H297	H	0.920088	-0.458686	0.564318
H298	H	1.420088	0.041314	1.064318
H299	H	0.950996	-0.416642	0.489643
H300	H	1.450996	0.083358	0.989643
H301	H	1.072619	-0.242657	0.650790
H302	H	1.572619	0.257343	1.150790
H303	H	1.094224	-0.227230	1.115112
H304	H	1.594224	0.272770	1.615112
H305	H	0.931035	-0.343470	1.108489
H306	H	1.431035	0.156530	1.608489
O307	O	0.929494	-0.344589	0.969412
O308	O	1.429494	0.155411	1.469412
C309	C	0.887858	-0.374219	1.015927
C310	C	1.387858	0.125781	1.515927
H311	H	0.914552	-0.378427	1.069391
H312	H	1.414552	0.121573	1.569391
H313	H	0.881149	-0.414570	0.994399
H314	H	1.381149	0.085430	1.494399
H315	H	0.834207	-0.353622	1.021603
H316	H	1.334207	0.146378	1.521603
H317	H	0.909418	-0.358890	0.644167
H318	H	1.409418	0.141110	1.144167
