data_functionalizedCrystal
_audit_creation_method	'MofGen! by Chris Wilmer'
_symmetry_space_group_name_H-M	'P1'
_symmetry_Int_Tables_number	1
_symmetry_cell_setting	triclinic
loop_
_symmetry_equiv_pos_as_xyz
  x,y,z
_cell_length_a	18.050588
_cell_length_b	18.050591
_cell_length_c	18.050582
_cell_angle_alpha	89.980240
_cell_angle_beta	89.978848
_cell_angle_gamma	90.026009
loop_
_atom_site_label
_atom_site_type_symbol
_atom_site_fract_x
_atom_site_fract_y
_atom_site_fract_z
Zn1	Zn	-0.295777	1.135286	-0.420016
Zn2	Zn	0.204223	1.635286	0.079984
Zn3	Zn	-0.419960	1.135193	-0.295829
Zn4	Zn	0.080040	1.635193	0.204171
Zn5	Zn	-0.295781	1.011105	-0.295829
Zn6	Zn	0.204219	1.511105	0.204171
Zn7	Zn	-0.419922	1.011050	-0.419967
Zn8	Zn	0.080078	1.511050	0.080033
O9	O	-0.357860	1.073158	-0.357910
O10	O	0.142140	1.573158	0.142090
O11	O	-0.312265	1.239198	-0.403562
O12	O	0.187735	1.739198	0.096438
O13	O	-0.403505	1.118717	-0.191904
O14	O	0.096495	1.618717	0.308096
O15	O	-0.191856	1.027639	-0.312324
O16	O	0.308144	1.527639	0.187676
O17	O	-0.403502	1.239130	-0.312323
O18	O	0.096498	1.739130	0.187677
O19	O	-0.191853	1.118874	-0.403563
O20	O	0.308147	1.618874	0.096437
O21	O	-0.312271	1.027550	-0.191905
O22	O	0.187729	1.527550	0.308095
O23	O	-0.312234	0.907173	-0.312276
O24	O	0.187766	1.407173	0.187724
O25	O	-0.403436	1.027546	-0.523898
O26	O	0.096564	1.527546	-0.023898
O27	O	-0.403440	0.907133	-0.403479
O28	O	0.096560	1.407133	0.096521
O29	O	-0.312227	1.118821	-0.523934
O30	O	0.187773	1.618821	-0.023934
O31	O	-0.523880	1.118664	-0.312275
O32	O	-0.023880	1.618664	0.187725
O33	O	-0.523852	1.027456	-0.403479
O34	O	-0.023852	1.527456	0.096521
C35	C	-0.357834	0.880206	-0.357873
C36	C	0.142166	1.380206	0.142127
C37	C	-0.357841	0.797661	-0.357875
C38	C	0.142159	1.297661	0.142125
C39	C	-0.308192	0.548835	-0.308396
C40	C	0.191808	1.048835	0.191604
C41	C	-0.290110	0.598268	-0.376171
C42	C	0.209890	1.098268	0.123829
C43	C	-0.357879	0.500540	-0.357936
C44	C	0.142121	1.000540	0.142064
C45	C	-0.375906	0.598189	-0.290134
C46	C	0.124094	1.098189	0.209866
C47	C	-0.357858	0.646525	-0.357902
C48	C	0.142142	1.146525	0.142098
C49	C	-0.339763	0.548885	-0.425747
C50	C	0.160237	1.048885	0.074253
C51	C	-0.425589	0.548803	-0.339664
C52	C	0.074411	1.048803	0.160336
C53	C	-0.407534	0.598213	-0.407486
C54	C	0.092466	1.098213	0.092514
C55	C	-0.357888	0.416442	-0.357954
C56	C	0.142112	0.916442	0.142046
C57	C	-0.357848	0.730622	-0.357891
C58	C	0.142152	1.230622	0.142109
C59	C	-0.550812	1.073064	-0.357888
C60	C	-0.050812	1.573064	0.142112
C61	C	-0.633358	1.073092	-0.357903
C62	C	-0.133358	1.573092	0.142097
C63	C	-0.882195	1.023571	-0.407500
C64	C	-0.382195	1.523571	0.092500
C65	C	-0.832731	1.091288	-0.425730
C66	C	-0.332731	1.591288	0.074270
C67	C	-0.930478	1.073246	-0.357945
C68	C	-0.430478	1.573246	0.142055
C69	C	-0.832861	1.005457	-0.339729
C70	C	-0.332861	1.505457	0.160271
C71	C	-0.784493	1.073167	-0.357926
C72	C	-0.284493	1.573167	0.142074
C73	C	-0.882101	1.140999	-0.376210
C74	C	-0.382101	1.640999	0.123790
C75	C	-0.882236	1.055123	-0.290177
C76	C	-0.382236	1.555123	0.209823
C77	C	-0.832794	1.122886	-0.308382
C78	C	-0.332794	1.622886	0.191618
C79	C	-1.014577	1.073291	-0.357957
C80	C	-0.514577	1.573291	0.142043
C81	C	-0.700397	1.073130	-0.357913
C82	C	-0.200397	1.573130	0.142087
C83	C	-0.164154	1.073273	-0.357949
C84	C	0.335846	1.573273	0.142051
C85	C	-0.081609	1.073322	-0.357965
C86	C	0.418391	1.573322	0.142035
C87	C	-0.357887	1.266864	-0.357948
C88	C	0.142113	1.766864	0.142052
C89	C	-0.357898	1.349410	-0.357964
C90	C	0.142102	1.849410	0.142036
C91	C	-0.357827	1.073188	-0.551616
C92	C	0.142173	1.573188	-0.051616
C93	C	-0.357813	1.073200	-0.634162
C94	C	0.142187	1.573200	-0.134162
C95	C	-0.407345	1.023602	-0.833593
C96	C	0.092655	1.523602	-0.333593
C97	C	-0.425502	1.091357	-0.882990
C98	C	0.074498	1.591357	-0.382990
C99	C	-0.357756	1.073237	-0.785292
C100	C	0.142244	1.573237	-0.285292
C101	C	-0.339578	1.005519	-0.882976
C102	C	0.160422	1.505519	-0.382976
C103	C	-0.357703	1.073266	-0.931277
C104	C	0.142297	1.573266	-0.431277
C105	C	-0.375950	1.141027	-0.833602
C106	C	0.124050	1.641027	-0.333602
C107	C	-0.289994	1.055143	-0.833584
C108	C	0.210006	1.555143	-0.333584
C109	C	-0.308126	1.122945	-0.882959
C110	C	0.191874	1.622945	-0.382959
C111	C	-0.357789	1.073219	-0.701194
C112	C	0.142211	1.573219	-0.201194
C113	C	-0.357670	1.073292	-1.015374
C114	C	0.142330	1.573292	-0.515374
C115	C	-0.357839	1.073172	-0.164958
C116	C	0.142161	1.573172	0.335042
C117	C	-0.357644	1.073304	-0.082413
C118	C	0.142356	1.573304	0.417587
H119	H	-0.449544	0.619756	-0.449415
H120	H	0.050456	1.119756	0.050585
H121	H	-0.391162	0.619849	-0.232809
H122	H	0.108838	1.119849	0.267191
H123	H	-0.232728	1.039802	-0.811866
H124	H	0.267272	1.539802	-0.311866
H125	H	-0.449335	0.981668	-0.811918
H126	H	0.050665	1.481668	-0.311918
H127	H	-0.266168	1.164980	-0.904498
H128	H	0.233832	1.664980	-0.404498
C129	C	-0.319057	0.519751	-0.503213
C130	C	0.180943	1.019751	-0.003213
N131	N	-0.303458	0.497805	-0.561557
N132	N	0.196542	0.997805	-0.061557
H133	H	-0.811228	0.948163	-0.324331
H134	H	-0.311228	1.448163	0.175669
H135	H	-0.482844	0.527060	-0.324199
H136	H	0.017156	1.027060	0.175801
H137	H	-0.903884	0.981648	-0.449447
H138	H	-0.403884	1.481648	0.050553
H139	H	-0.391368	1.198324	-0.812005
H140	H	0.108632	1.698324	-0.312005
H141	H	-0.482785	1.106679	-0.904692
H142	H	0.017215	1.606679	-0.404692
H143	H	-0.324225	0.948239	-0.904665
H144	H	0.175775	1.448239	-0.404665
C145	C	-0.803359	1.111960	-0.503142
C146	C	-0.303359	1.611960	-0.003142
N147	N	-0.781241	1.127528	-0.561451
N148	N	-0.281241	1.627528	-0.061451
C149	C	-0.251396	0.519539	-0.251892
C150	C	0.248604	1.019539	0.248108
N151	N	-0.208616	0.497471	-0.209338
N152	N	0.291384	0.997471	0.290662
H153	H	-0.903996	1.039803	-0.232893
H154	H	-0.403996	1.539803	0.267107
H155	H	-0.232837	0.619982	-0.391625
H156	H	0.267163	1.119982	0.108375
H157	H	-0.903642	1.198310	-0.391675
H158	H	-0.403642	1.698310	0.108325
H159	H	-0.811240	1.164909	-0.266466
H160	H	-0.311240	1.664909	0.233534
