data_functionalizedCrystal
_audit_creation_method	'MofGen! by Chris Wilmer'
_symmetry_space_group_name_H-M	'P1'
_symmetry_Int_Tables_number	1
_symmetry_cell_setting	triclinic
loop_
_symmetry_equiv_pos_as_xyz
  x,y,z
_cell_length_a	10.654554
_cell_length_b	19.188924
_cell_length_c	9.730223
_cell_angle_alpha	89.996615
_cell_angle_beta	89.999030
_cell_angle_gamma	83.814403
loop_
_atom_site_label
_atom_site_type_symbol
_atom_site_fract_x
_atom_site_fract_y
_atom_site_fract_z
O1	O	1.665751	0.098075	-0.114321
O2	O	1.300075	0.107414	-0.114319
O3	O	1.493470	0.001158	-0.114304
O4	O	1.472356	0.204331	-0.114337
O5	O	1.493468	0.001160	0.114276
O6	O	1.300073	0.107417	0.114261
O7	O	1.665749	0.098078	0.114259
Zn8	Zn	1.482910	0.102748	0.150552
Zn9	Zn	1.482913	0.102744	-0.150612
O10	O	1.472354	0.204334	0.114243
C11	C	1.253291	0.106729	-0.000029
C12	C	1.113891	0.104675	-0.000028
C13	C	0.932738	0.038251	-0.000035
C14	C	1.063719	0.040181	-0.000021
C15	C	1.033075	0.167245	-0.000034
C16	C	0.902097	0.165315	-0.000038
C17	C	0.950431	-0.035108	-0.000034
C18	C	1.081411	-0.033179	-0.000020
C19	C	1.492787	-0.024857	-0.000013
C20	C	1.490738	-0.102375	-0.000009
C21	C	1.489784	-0.138781	-0.124609
C22	C	1.487841	-0.211617	-0.124619
C23	C	1.486879	-0.248045	-0.000023
C24	C	1.487827	-0.211629	0.124593
C25	C	1.489757	-0.138794	0.124599
N26	N	1.555311	-0.367258	0.092710
N27	N	1.553480	-0.436449	0.092695
C28	C	1.481062	-0.467492	-0.000036
N29	N	1.410560	-0.426732	-0.092773
N30	N	1.412396	-0.357536	-0.092762
C31	C	1.484786	-0.327022	-0.000017
C32	C	1.478000	-0.582875	-0.124655
C33	C	1.476050	-0.655711	-0.124661
C34	C	1.476048	-0.655722	0.124554
C35	C	1.477985	-0.582887	0.124556
C36	C	1.478967	-0.546468	-0.000053
C37	C	1.712533	0.098763	-0.000035
C38	C	1.851932	0.100816	-0.000045
C39	C	1.473037	0.230348	-0.000051
C40	C	1.475085	0.307866	-0.000064
N41	N	1.482918	0.102750	0.356088
N42	N	1.482916	0.102737	-0.356149
C43	C	1.568574	0.055715	0.428021
C44	C	1.568571	0.055707	0.571904
C45	C	1.397250	0.149773	0.571908
C46	C	1.397248	0.149778	0.428028
C47	C	1.667489	0.001409	0.428019
C48	C	1.667486	0.001400	0.571902
H49	H	1.123755	-0.060818	-0.095678
H50	H	1.073936	0.219758	-0.000026
H51	H	1.490580	-0.109133	-0.226075
H52	H	1.478773	-0.553245	0.226019
C53	C	1.369445	0.244662	0.266231
C54	C	1.303088	0.201478	0.348960
H55	H	1.311310	0.276578	0.217415
H56	H	1.421559	0.270045	0.322362
H57	H	1.420453	0.216649	0.202794
H58	H	1.252087	0.229491	0.412404
H59	H	1.250952	0.176093	0.292824
H60	H	1.127519	-0.055346	0.098683
H61	H	1.490529	-0.109152	0.226066
H62	H	1.327500	0.188062	0.630498
H63	H	1.758312	0.018414	0.383389
C64	C	1.588158	-0.508316	-0.269226
C65	C	1.479100	-0.542849	-0.261633
H66	H	1.588848	-0.483615	-0.353798
H67	H	1.588994	-0.476201	-0.195039
H68	H	1.660596	-0.541716	-0.264013
H69	H	1.406662	-0.509449	-0.266836
H70	H	1.478253	-0.574967	-0.335840
H71	H	0.915298	-0.058469	-0.098727
C72	C	1.601734	-0.112026	0.524981
C73	C	1.627803	-0.067068	0.632157
H74	H	1.577255	-0.154298	0.562185
H75	H	1.535181	-0.090018	0.470061
H76	H	1.675095	-0.122260	0.470023
H77	H	1.554438	-0.056830	0.687109
H78	H	1.694361	-0.089080	0.687100
H79	H	1.475266	-0.685352	-0.226129
H80	H	1.487056	-0.241264	-0.226086
H81	H	0.921675	-0.063799	0.095624
C82	C	1.876236	0.027354	0.512698
C83	C	1.797426	0.017547	0.624629
H84	H	1.956448	0.037324	0.545253
H85	H	1.886028	-0.014030	0.458464
H86	H	1.839685	0.065427	0.458478
H87	H	1.833972	-0.020530	0.678844
H88	H	1.787637	0.058935	0.678886
H89	H	1.487040	-0.241293	0.226039
H90	H	1.475255	-0.685380	0.226003
H91	H	0.836309	0.216262	-0.000030
H92	H	1.647184	-0.052255	0.388974
