data_functionalizedCrystal
_audit_creation_method	'MofGen! by Chris Wilmer'
_symmetry_space_group_name_H-M	'P1'
_symmetry_Int_Tables_number	1
_symmetry_cell_setting	triclinic
loop_
_symmetry_equiv_pos_as_xyz
  x,y,z
_cell_length_a	16.956985
_cell_length_b	11.892095
_cell_length_c	16.992695
_cell_angle_alpha	85.845109
_cell_angle_beta	96.639294
_cell_angle_gamma	86.390862
loop_
_atom_site_label
_atom_site_type_symbol
_atom_site_fract_x
_atom_site_fract_y
_atom_site_fract_z
O1	O	-1.064863	0.094043	0.027028
O2	O	-0.834452	0.094037	0.054445
O3	O	-0.948733	0.094031	-0.073346
O4	O	-0.950581	0.094049	0.154819
O5	O	-0.939204	-0.093976	-0.062706
O6	O	-0.824922	-0.093970	0.065084
O7	O	-1.055333	-0.093964	0.037668
Zn8	Zn	-0.938615	-0.123817	0.053065
Zn9	Zn	-0.951170	0.123890	0.039047
O10	O	-0.941052	-0.093958	0.165458
C11	C	-0.800068	0.000033	0.061168
C12	C	-0.711813	0.000030	0.065342
N13	N	-0.930052	-0.292871	0.062631
C14	C	-0.675282	0.000021	-0.004442
C15	C	-0.592357	0.000027	-0.000516
C16	C	-0.545965	0.000034	0.073196
C17	C	-0.582502	0.000046	0.142986
C18	C	-0.665426	0.000048	0.139058
C19	C	-0.297431	0.000035	0.092635
C20	C	-0.214502	0.000029	0.096558
C21	C	-0.224362	0.000013	-0.046945
C22	C	-0.307287	0.000009	-0.050866
C23	C	-0.343817	0.000027	0.018924
N24	N	-0.461202	0.000036	0.077211
N25	N	-0.428579	0.000032	0.014907
C26	C	-1.019322	-0.529523	-0.037136
C27	C	-1.013343	-0.647865	-0.030444
C28	C	-0.912110	-0.647898	0.082703
C29	C	-0.918089	-0.529556	0.076011
C30	C	-0.971698	-0.470373	0.016090
C31	C	-0.977681	-0.352029	0.009403
C32	C	-0.876444	-0.352064	0.122545
C33	C	-0.870465	-0.470406	0.129237
C34	C	-0.089716	0.000035	0.030945
C35	C	-0.177970	0.000021	0.026773
C36	C	-0.941592	0.000027	-0.097085
C37	C	-0.934501	0.000028	-0.183669
N38	N	-0.959739	0.292944	0.029474
C39	C	-1.002916	0.000028	-0.238345
C40	C	-0.996250	0.000039	-0.319700
C41	C	-0.921167	0.000041	-0.346377
C42	C	-0.852747	0.000043	-0.291695
C43	C	-0.859415	0.000041	-0.210343
C44	C	-0.893532	0.000055	-0.588184
C45	C	-0.886869	0.000055	-0.669544
C46	C	-1.030373	0.000052	-0.697543
C47	C	-1.037033	0.000043	-0.616186
C48	C	-0.968614	0.000051	-0.561512
N49	N	-0.914351	0.000048	-0.429535
N50	N	-0.975431	0.000052	-0.478357
C51	C	-0.948193	0.000048	0.189197
C52	C	-0.955284	0.000055	0.275781
H53	H	-0.562617	0.000021	-0.057342
O54	O	-0.357324	-0.000006	-0.130369
H55	H	-0.317989	-0.000007	-0.178237
H56	H	-1.086076	0.000047	-0.742067
O57	O	-0.771765	0.000048	-0.320470
H58	H	-0.725312	0.000059	-0.268781
O59	O	-0.184964	0.000003	-0.122217
H60	H	-0.119509	0.000011	-0.107106
O61	O	-1.070043	0.000021	-0.378666
H62	H	-1.109622	0.076637	-0.374092
O63	O	-0.164460	0.000049	0.176064
H64	H	-0.203793	0.000075	0.223933
H65	H	-0.803704	0.000041	-0.165826
O66	O	-0.825067	-0.288270	0.179956
H67	H	-0.838225	-0.196036	0.165235
O68	O	-0.704833	0.000057	0.214326
H69	H	-0.738499	-0.076565	0.220302
H70	H	-0.327164	0.000057	0.149462
H71	H	-0.544724	0.000058	0.203004
O72	O	-1.118017	0.000068	-0.587413
H73	H	-1.164472	0.000087	-0.639102
H74	H	-0.868457	-0.696100	0.131484
H75	H	-0.713048	0.000012	-0.064467
O76	O	-1.035493	-0.288188	-0.055227
H77	H	-1.067597	-0.349206	-0.091119
O78	O	-0.805884	0.000069	-0.698323
H79	H	-0.759428	0.000088	-0.646639
O80	O	-1.077139	-0.465678	-0.101759
H81	H	-1.109250	-0.526692	-0.137649
O82	O	-1.064720	-0.711660	-0.087846
H83	H	-1.051879	-0.688947	-0.149356
O84	O	-0.812651	-0.534239	0.193868
H85	H	-0.816497	-0.626468	0.189585
H86	H	-1.064056	0.000020	-0.216631
H87	H	-0.837819	0.000062	-0.543678
