data_functionalizedCrystal
_audit_creation_method	'MofGen! by Chris Wilmer'
_symmetry_space_group_name_H-M	'P1'
_symmetry_Int_Tables_number	1
_symmetry_cell_setting	triclinic
loop_
_symmetry_equiv_pos_as_xyz
  x,y,z
_cell_length_a	21.395362
_cell_length_b	15.297327
_cell_length_c	21.395356
_cell_angle_alpha	99.651288
_cell_angle_beta	89.964230
_cell_angle_gamma	99.725883
loop_
_atom_site_label
_atom_site_type_symbol
_atom_site_fract_x
_atom_site_fract_y
_atom_site_fract_z
Zn1	Zn	0.914695	-0.358847	-0.397684
Zn2	Zn	1.414695	0.141153	0.102316
Zn3	Zn	0.896486	-0.509718	-0.311027
Zn4	Zn	1.396486	-0.009718	0.188973
Zn5	Zn	0.809918	-0.358908	-0.292893
Zn6	Zn	1.309918	0.141092	0.207107
Zn7	Zn	0.791753	-0.509718	-0.415732
Zn8	Zn	1.291753	-0.009718	0.084268
O9	O	0.853213	-0.434298	-0.354334
O10	O	1.353213	0.065702	0.145666
O11	O	0.999960	-0.378835	-0.386225
O12	O	1.499960	0.121165	0.113775
O13	O	0.884984	-0.489738	-0.220947
O14	O	1.384984	0.010262	0.279053
O15	O	0.839039	-0.232645	-0.291652
O16	O	1.339039	0.267355	0.208348
O17	O	0.986582	-0.489680	-0.322559
O18	O	1.486582	0.010320	0.177441
O19	O	0.916019	-0.232600	-0.368641
O20	O	1.416019	0.267400	0.131359
O21	O	0.821383	-0.378938	-0.207624
O22	O	1.321383	0.121062	0.292376
O23	O	0.719827	-0.378938	-0.309151
O24	O	1.219827	0.121062	0.190849
O25	O	0.808080	-0.489679	-0.501013
O26	O	1.308080	0.010321	-0.001013
O27	O	0.706481	-0.489738	-0.399401
O28	O	1.206481	0.010262	0.100599
O29	O	0.898405	-0.378835	-0.487753
O30	O	1.398405	0.121165	0.012247
O31	O	0.867370	-0.635973	-0.340058
O32	O	1.367370	-0.135973	0.159942
O33	O	0.790423	-0.635973	-0.416984
O34	O	1.290423	-0.135973	0.083016
C35	C	0.690419	-0.434346	-0.354267
C36	C	1.190419	0.065654	0.145733
C37	C	0.620773	-0.434388	-0.354256
C38	C	1.120773	0.065612	0.145744
C39	C	0.581118	-0.492158	-0.401198
C40	C	1.081118	0.007842	0.098802
C41	C	0.515685	-0.492136	-0.401223
C42	C	1.015685	0.007864	0.098777
C43	C	0.489909	-0.434353	-0.354296
C44	C	0.989909	0.065647	0.145704
C45	C	0.529573	-0.376572	-0.307350
C46	C	1.029573	0.123428	0.192650
C47	C	0.595005	-0.376589	-0.307330
C48	C	1.095005	0.123411	0.192670
C49	C	0.387064	-0.427095	-0.297019
C50	C	0.887064	0.072905	0.202981
C51	C	0.321633	-0.427084	-0.297039
C52	C	0.821633	0.072916	0.202961
C53	C	0.288095	-0.434294	-0.354358
C54	C	0.788095	0.065706	0.145642
C55	C	0.319995	-0.441534	-0.411662
C56	C	0.819995	0.058466	0.088338
C57	C	0.385427	-0.441552	-0.411641
C58	C	0.885427	0.058448	0.088359
C59	C	0.418960	-0.434327	-0.354313
C60	C	0.918960	0.065673	0.145687
C61	C	0.177490	-0.492043	-0.401331
C62	C	0.677490	0.007957	0.098669
C63	C	0.112057	-0.492015	-0.401357
C64	C	0.612057	0.007985	0.098643
C65	C	0.125946	-0.376456	-0.307479
C66	C	0.625946	0.123544	0.192521
C67	C	0.191378	-0.376479	-0.307459
C68	C	0.691378	0.123521	0.192541
C69	C	0.217146	-0.434278	-0.354385
C70	C	0.717146	0.065722	0.145615
C71	C	0.824966	-0.668710	-0.382461
C72	C	1.324966	-0.168710	0.117539
C73	C	0.812940	-0.768992	-0.394515
C74	C	1.312940	-0.268992	0.105485
C75	C	0.939427	-1.051546	-0.268396
C76	C	1.439427	-0.551546	0.231604
C77	C	0.950726	-0.957326	-0.257068
C78	C	1.450726	-0.457326	0.242932
C79	C	0.916281	-0.910238	-0.291429
C80	C	1.416281	-0.410238	0.208571
C81	C	0.870534	-0.957380	-0.337120
C82	C	1.370534	-0.457380	0.162880
C83	C	0.859230	-1.051609	-0.348446
C84	C	1.359230	-0.551609	0.151554
C85	C	0.836084	-0.910301	-0.371479
C86	C	1.336084	-0.410301	0.128521
C87	C	0.790337	-0.957442	-0.417170
C88	C	1.290337	-0.457442	0.082830
C89	C	0.779035	-1.051662	-0.428494
C90	C	1.279035	-0.551662	0.071506
C91	C	0.813481	-1.098751	-0.394133
C92	C	1.313481	-0.598751	0.105867
C93	C	0.847388	-0.816071	-0.360153
C94	C	1.347388	-0.316071	0.139847
C95	C	0.767191	-0.816134	-0.440202
C96	C	1.267191	-0.316134	0.059798
C97	C	0.755891	-0.910354	-0.451531
C98	C	1.255891	-0.410354	0.048469
C99	C	1.016642	-0.434251	-0.354402
C100	C	1.516642	0.065749	0.145598
C101	C	1.086285	-0.434230	-0.354430
C102	C	1.586285	0.065770	0.145570
C103	C	0.853247	-0.434250	-0.517752
C104	C	1.353247	0.065750	-0.017752
C105	C	0.853262	-0.434230	-0.587390
C106	C	1.353262	0.065770	-0.087390
C107	C	0.881586	-0.198970	-0.326111
C108	C	1.381586	0.301030	0.173889
C109	C	0.893678	-0.098688	-0.314083
C110	C	1.393678	0.401312	0.185917
C111	C	0.886472	-0.491735	-1.096102
C112	C	1.386472	0.008265	-0.596102
C113	C	0.886457	-0.491763	-1.030670
C114	C	1.386457	0.008237	-0.530670
C115	C	0.853339	-0.434087	-0.991012
C116	C	1.353339	0.065913	-0.491012
C117	C	0.820219	-0.376394	-1.016793
C118	C	1.320219	0.123606	-0.516793
C119	C	0.820229	-0.376374	-1.082224
C120	C	1.320229	0.123626	-0.582224
C121	C	0.858175	-0.352835	-0.877596
C122	C	1.358175	0.147165	-0.377596
C123	C	0.858170	-0.352854	-0.812166
C124	C	1.358170	0.147146	-0.312166
C125	C	0.853303	-0.434151	-0.789199
C126	C	1.353303	0.065849	-0.289199
C127	C	0.848455	-0.515432	-0.831671
C128	C	1.348455	-0.015432	-0.331671
C129	C	0.848465	-0.515411	-0.897103
C130	C	1.348465	-0.015411	-0.397103
C131	C	0.853323	-0.434103	-0.920061
C132	C	1.353323	0.065897	-0.420061
C133	C	0.886401	-0.491876	-0.692477
C134	C	1.386401	0.008124	-0.192477
C135	C	0.886382	-0.491906	-0.627044
C136	C	1.386382	0.008094	-0.127044
C137	C	0.820148	-0.376529	-0.613167
C138	C	1.320148	0.123471	-0.113167
C139	C	0.820163	-0.376507	-0.678600
C140	C	1.320163	0.123493	-0.178600
C141	C	0.853293	-0.434179	-0.718251
C142	C	1.353293	0.065821	-0.218251
C143	C	0.853222	-0.434280	-0.191544
C144	C	1.353222	0.065720	0.308456
C145	C	0.853360	-0.434046	-0.121875
C146	C	1.353360	0.065954	0.378125
H147	H	0.602094	-0.539221	-0.439409
H148	H	1.102094	-0.039221	0.060591
H149	H	0.844516	-0.581593	-0.931681
H150	H	1.344516	-0.081593	-0.431681
O151	O	0.801292	-1.200378	-0.406356
O152	O	1.301292	-0.700378	0.093644
H153	H	0.751051	-1.225309	-0.396636
H154	H	1.251051	-0.725309	0.103364
O155	O	0.283829	-0.449296	-0.473486
O156	O	0.783829	0.050704	0.026514
H157	H	0.303352	-0.391989	-0.497429
H158	H	0.803352	0.108011	0.002571
O159	O	0.205292	-0.554366	-0.451947
O160	O	0.705292	-0.054366	0.048053
H161	H	0.166723	-0.594524	-0.484602
H162	H	0.666723	-0.094524	0.015398
O163	O	0.637778	-0.314277	-0.256694
O164	O	1.137778	0.185723	0.243306
H165	H	0.687607	-0.323995	-0.264566
H166	H	1.187607	0.176005	0.235434
H167	H	0.913432	-0.538730	-1.009680
H168	H	1.413432	-0.038730	-0.509680
H169	H	0.844493	-0.581632	-0.812974
H170	H	1.344493	-0.081632	-0.312974
O171	O	0.069266	-0.554445	-0.451921
O172	O	0.569266	-0.054445	0.048079
H173	H	0.098174	-0.594686	-0.484516
H174	H	0.598174	-0.094686	0.015484
H175	H	0.295664	-0.421194	-0.250380
H176	H	0.795664	0.078806	0.249620
O177	O	0.729689	-1.102514	-0.477768
O178	O	1.229689	-0.602514	0.022232
H179	H	0.742583	-1.084380	-0.524777
H180	H	1.242583	-0.584380	-0.024777
H181	H	0.718644	-0.948750	-0.488733
H182	H	1.218644	-0.448750	0.011267
H183	H	0.739141	-0.777795	-0.468181
H184	H	1.239141	-0.277795	0.031819
H185	H	0.967463	-1.089894	-0.240421
H186	H	1.467463	-0.589894	0.259579
O187	O	0.922183	-0.553960	-1.138873
O188	O	1.422183	-0.053960	-0.638873
H189	H	0.945196	-0.594092	-1.109955
H190	H	1.445196	-0.094092	-0.609955
H191	H	0.913376	-0.538838	-0.724763
H192	H	1.413376	-0.038838	-0.224763
O193	O	0.472897	-0.554481	-0.451834
O194	O	0.972897	-0.054481	0.048166
H195	H	0.501807	-0.594689	-0.484452
H196	H	1.001807	-0.094689	0.015548
O197	O	0.423235	-0.419319	-0.235193
O198	O	0.923235	0.080681	0.264807
H199	H	0.390061	-0.414297	-0.195353
H200	H	0.890061	0.085703	0.304647
O201	O	0.501775	-0.314266	-0.256723
O202	O	1.001775	0.185734	0.243277
H203	H	0.449612	-0.323973	-0.264615
H204	H	0.949612	0.176027	0.235385
O205	O	0.784427	-0.314316	-0.570403
O206	O	1.284427	0.185684	-0.070403
H207	H	0.789985	-0.324017	-0.520573
H208	H	1.289985	0.175983	-0.020573
O209	O	0.098154	-0.314137	-0.256858
O210	O	0.598154	0.185863	0.243142
H211	H	0.045992	-0.323836	-0.264754
H212	H	0.545992	0.176164	0.235246
O213	O	0.234153	-0.314194	-0.256815
O214	O	0.734153	0.185806	0.243185
H215	H	0.205237	-0.274019	-0.224181
H216	H	0.705237	0.225981	0.275819
H217	H	0.884635	-0.777697	-0.322950
H218	H	1.384635	-0.277697	0.177050
H219	H	0.925483	-0.833520	-0.282202
H220	H	1.425483	-0.333520	0.217798
O221	O	0.922106	-0.554119	-0.599240
O222	O	1.422106	-0.054119	-0.099240
H223	H	0.945152	-0.594205	-0.637805
H224	H	1.445152	-0.094205	-0.137805
O225	O	1.000069	-0.906480	-0.207797
O226	O	1.500069	-0.406480	0.292203
H227	H	1.022128	-0.955050	-0.185811
H228	H	1.522128	-0.455050	0.314189
O229	O	0.784459	-0.314273	-0.706403
O230	O	1.284459	0.185727	-0.206403
H231	H	0.761431	-0.274164	-0.667835
H232	H	1.261431	0.225836	-0.167835
O233	O	0.863409	-0.265192	-0.766358
O234	O	1.363409	0.234808	-0.266358
H235	H	0.866785	-0.208659	-0.793319
H236	H	1.366785	0.291341	-0.293319
H237	H	0.862181	-0.286623	-0.896288
H238	H	1.362181	0.213377	-0.396288
H239	H	0.793265	-0.329395	-1.103207
H240	H	1.293265	0.170605	-0.603207
O241	O	0.419839	-0.449342	-0.473439
O242	O	0.919839	0.050658	0.026561
H243	H	0.385532	-0.454344	-0.513303
H244	H	0.885532	0.045656	-0.013303
O245	O	0.784501	-0.314179	-0.974023
O246	O	1.284501	0.185821	-0.474023
H247	H	0.790063	-0.323876	-0.924193
H248	H	1.290063	0.176124	-0.424193
