data_functionalizedCrystal
_audit_creation_method	'MofGen! by Chris Wilmer'
_symmetry_space_group_name_H-M	'P1'
_symmetry_Int_Tables_number	1
_symmetry_cell_setting	triclinic
loop_
_symmetry_equiv_pos_as_xyz
  x,y,z
_cell_length_a	8.559649
_cell_length_b	17.038272
_cell_length_c	7.088929
_cell_angle_alpha	83.325468
_cell_angle_beta	95.325015
_cell_angle_gamma	80.445110
loop_
_atom_site_label
_atom_site_type_symbol
_atom_site_fract_x
_atom_site_fract_y
_atom_site_fract_z
O1	O	2.101368	-0.017362	-0.158956
O2	O	1.641608	0.022690	-0.158968
O3	O	1.868757	-0.110988	-0.158947
O4	O	1.874219	0.116317	-0.158977
O5	O	1.899108	-0.128889	0.159031
O6	O	1.671959	0.004789	0.159010
O7	O	2.131720	-0.035263	0.159022
Cu8	Cu	1.904611	-0.016871	0.188050
Cu9	Cu	1.868717	0.004298	-0.187996
O10	O	1.904570	0.098416	0.159001
C11	C	1.597666	0.016775	0.000020
C12	C	1.421514	0.025810	0.000016
C13	C	1.878962	-0.148769	0.000042
C14	C	1.864133	-0.234674	0.000041
C15	C	2.000285	-0.292946	0.000046
C16	C	1.986340	-0.373660	0.000028
C17	C	1.836242	-0.396101	0.000018
C18	C	1.700079	-0.337821	0.000006
C19	C	1.714024	-0.257108	0.000011
C20	C	1.786975	-0.638906	-0.000010
C21	C	1.773041	-0.719626	-0.000009
C22	C	2.059303	-0.755459	0.000009
C23	C	2.073236	-0.674743	0.000025
C24	C	1.937072	-0.616470	0.000004
C25	C	1.821985	-0.478604	0.000005
C26	C	1.951329	-0.533968	0.000003
C27	C	2.175661	-0.029347	0.000030
C28	C	2.351812	-0.038381	0.000022
C29	C	1.894365	0.136197	0.000008
C30	C	1.909193	0.222102	-0.000003
N31	N	1.929868	-0.031762	0.452540
N32	N	1.843471	0.019182	-0.452486
H33	H	2.122512	-0.274683	0.000066
H34	H	1.577864	-0.356098	-0.000014
C35	C	2.050848	-0.103085	0.562839
H36	H	2.102325	-0.133433	0.474691
H37	H	1.996767	-0.136275	0.640948
H38	H	2.128111	-0.083542	0.640903
H39	H	1.753930	0.071976	0.465859
H40	H	1.426899	-0.100250	0.000020
C41	C	1.607923	-0.744307	-0.000053
H42	H	1.528822	-0.698041	-0.000089
H43	H	1.607100	-0.781294	0.110826
H44	H	1.585974	-0.768803	-0.110959
H45	H	1.699775	-0.496884	0.000001
H46	H	1.346417	0.087683	-0.000003
H47	H	2.097211	-0.421103	0.000036
H48	H	2.195462	-0.656479	0.000034
H49	H	1.676099	-0.591468	-0.000027
C50	C	2.209067	-0.819557	0.000005
H51	H	2.179269	-0.870841	-0.000017
H52	H	2.280752	-0.819939	0.110887
H53	H	2.259564	-0.807440	-0.110899
C54	C	1.564257	-0.193009	0.000010
H55	H	1.472867	-0.217934	0.000020
H56	H	1.553165	-0.154533	-0.110875
H57	H	1.574331	-0.167025	0.110911
H58	H	2.073534	-0.515691	-0.000031
