data_functionalizedCrystal
_audit_creation_method	'MofGen! by Chris Wilmer'
_symmetry_space_group_name_H-M	'P1'
_symmetry_Int_Tables_number	1
_symmetry_cell_setting	triclinic
loop_
_symmetry_equiv_pos_as_xyz
  x,y,z
_cell_length_a	16.959454
_cell_length_b	18.215407
_cell_length_c	18.215385
_cell_angle_alpha	90.064947
_cell_angle_beta	89.911061
_cell_angle_gamma	89.979477
loop_
_atom_site_label
_atom_site_type_symbol
_atom_site_fract_x
_atom_site_fract_y
_atom_site_fract_z
Zn1	Zn	-0.314171	-1.125424	-0.416139
Zn2	Zn	-0.064171	-0.875424	-0.166139
Zn3	Zn	0.185829	-0.625424	0.083861
Zn4	Zn	0.435829	-0.375424	0.333861
Zn5	Zn	-0.446507	-1.125246	-0.293081
Zn6	Zn	-0.196507	-0.875246	-0.043081
Zn7	Zn	0.053493	-0.625246	0.206919
Zn8	Zn	0.303493	-0.375246	0.456919
Zn9	Zn	-0.314348	-1.002260	-0.293086
Zn10	Zn	-0.064348	-0.752260	-0.043086
Zn11	Zn	0.185652	-0.502260	0.206914
Zn12	Zn	0.435652	-0.252260	0.456914
Zn13	Zn	-0.446313	-1.002333	-0.416106
Zn14	Zn	-0.196313	-0.752333	-0.166106
Zn15	Zn	0.053687	-0.502333	0.083894
Zn16	Zn	0.303687	-0.252333	0.333894
O17	O	-0.380335	-1.063816	-0.354603
O18	O	-0.130335	-0.813816	-0.104603
O19	O	0.119665	-0.563816	0.145397
O20	O	0.369665	-0.313816	0.395397
O21	O	-0.331733	-1.228385	-0.399826
O22	O	-0.081733	-0.978385	-0.149826
O23	O	0.168267	-0.728385	0.100174
O24	O	0.418267	-0.478385	0.350174
O25	O	-0.429131	-1.108827	-0.190097
O26	O	-0.179131	-0.858827	0.059903
O27	O	0.070869	-0.608827	0.309903
O28	O	0.320869	-0.358827	0.559903
O29	O	-0.203713	-1.018642	-0.309424
O30	O	0.046287	-0.768642	-0.059424
O31	O	0.296287	-0.518642	0.190576
O32	O	0.546287	-0.268642	0.440576
O33	O	-0.428960	-1.228254	-0.309417
O34	O	-0.178960	-0.978254	-0.059417
O35	O	0.071040	-0.728254	0.190583
O36	O	0.321040	-0.478254	0.440583
O37	O	-0.203584	-1.109130	-0.399831
O38	O	0.046416	-0.859130	-0.149831
O39	O	0.296416	-0.609130	0.100169
O40	O	0.546416	-0.359130	0.350169
O41	O	-0.332034	-1.018469	-0.190101
O42	O	-0.082034	-0.768469	0.059899
O43	O	0.167966	-0.518469	0.309899
O44	O	0.417966	-0.268469	0.559899
O45	O	-0.331845	-0.899285	-0.309393
O46	O	-0.081845	-0.649285	-0.059393
O47	O	0.168155	-0.399285	0.190607
O48	O	0.418155	-0.149285	0.440607
O49	O	-0.428629	-1.018767	-0.519095
O50	O	-0.178629	-0.768767	-0.269095
O51	O	0.071371	-0.518767	-0.019095
O52	O	0.321371	-0.268767	0.230905
O53	O	-0.428800	-0.899339	-0.399776
O54	O	-0.178800	-0.649339	-0.149776
O55	O	0.071200	-0.399339	0.100224
O56	O	0.321200	-0.149339	0.350224
O57	O	-0.331545	-1.109201	-0.519119
O58	O	-0.081545	-0.859201	-0.269119
O59	O	0.168455	-0.609201	-0.019119
O60	O	0.418455	-0.359201	0.230881
O61	O	-0.557092	-1.108898	-0.309385
O62	O	-0.307092	-0.858898	-0.059385
O63	O	-0.057092	-0.608898	0.190615
O64	O	0.192908	-0.358898	0.440615
O65	O	-0.556949	-1.018594	-0.399771
O66	O	-0.306949	-0.768594	-0.149771
O67	O	-0.056949	-0.518594	0.100229
O68	O	0.193051	-0.268594	0.350229
C69	C	-0.380321	-0.872610	-0.354582
C70	C	-0.130321	-0.622610	-0.104582
C71	C	0.119679	-0.372610	0.145418
C72	C	0.369679	-0.122610	0.395418
C73	C	-0.380334	-0.790811	-0.354590
C74	C	-0.130334	-0.540811	-0.104590
C75	C	0.119666	-0.290811	0.145410
C76	C	0.369666	-0.040811	0.395410
C77	C	-0.585701	-1.063754	-0.354590
C78	C	-0.335701	-0.813754	-0.104590
C79	C	-0.085701	-0.563754	0.145410
C80	C	0.164299	-0.313754	0.395410
C81	C	-0.673557	-1.063795	-0.354610
C82	C	-0.423557	-0.813795	-0.104610
C83	C	-0.173557	-0.563795	0.145390
C84	C	0.076443	-0.313795	0.395390
C85	C	-0.380045	-1.064012	-0.546556
C86	C	-0.130045	-0.814012	-0.296556
C87	C	0.119955	-0.564012	-0.046556
C88	C	0.369955	-0.314012	0.203444
C89	C	-0.379922	-1.064096	-0.628356
C90	C	-0.129922	-0.814096	-0.378356
C91	C	0.120078	-0.564096	-0.128356
C92	C	0.370078	-0.314096	0.121644
C93	C	-1.044989	-1.016863	-0.401662
C94	C	-0.794989	-0.766863	-0.151662
C95	C	-0.544989	-0.516863	0.098338
C96	C	-0.294989	-0.266863	0.348338
C97	C	-1.045077	-1.110974	-0.307619
C98	C	-0.795077	-0.860974	-0.057619
C99	C	-0.545077	-0.610974	0.192381
C100	C	-0.295077	-0.360974	0.442381
C101	C	-0.962531	-1.110948	-0.307612
C102	C	-0.712531	-0.860948	-0.057612
C103	C	-0.462531	-0.610948	0.192388
C104	C	-0.212531	-0.360948	0.442388
C105	C	-0.921210	-1.063878	-0.354630
C106	C	-0.671210	-0.813878	-0.104630
C107	C	-0.421210	-0.563878	0.145370
C108	C	-0.171210	-0.313878	0.395370
C109	C	-0.962435	-1.016834	-0.401655
C110	C	-0.712435	-0.766834	-0.151655
C111	C	-0.462435	-0.516834	0.098345
C112	C	-0.212435	-0.266834	0.348345
C113	C	-0.921301	-1.157986	-0.260583
C114	C	-0.671301	-0.907986	-0.010583
C115	C	-0.421301	-0.657986	0.239417
C116	C	-0.171301	-0.407986	0.489417
C117	C	-0.838750	-1.157962	-0.260574
C118	C	-0.588750	-0.907962	-0.010574
C119	C	-0.338750	-0.657962	0.239426
C120	C	-0.088750	-0.407962	0.489426
C121	C	-0.797427	-1.110895	-0.307596
C122	C	-0.547427	-0.860895	-0.057596
C123	C	-0.297427	-0.610895	0.192404
C124	C	-0.047427	-0.360895	0.442404
C125	C	-0.838657	-1.063850	-0.354623
C126	C	-0.588657	-0.813850	-0.104623
C127	C	-0.338657	-0.563850	0.145377
C128	C	-0.088657	-0.313850	0.395377
C129	C	-0.797336	-1.016780	-0.401641
C130	C	-0.547336	-0.766780	-0.151641
C131	C	-0.297336	-0.516780	0.098359
C132	C	-0.047336	-0.266780	0.348359
C133	C	-0.838564	-0.969738	-0.448673
C134	C	-0.588564	-0.719738	-0.198673
C135	C	-0.338564	-0.469738	0.051327
C136	C	-0.088564	-0.219738	0.301327
C137	C	-0.921112	-0.969768	-0.448677
C138	C	-0.671112	-0.719768	-0.198677
C139	C	-0.421112	-0.469768	0.051323
C140	C	-0.171112	-0.219768	0.301323
C141	C	-0.714879	-1.110865	-0.307592
C142	C	-0.464879	-0.860865	-0.057592
C143	C	-0.214879	-0.610865	0.192408
C144	C	0.035121	-0.360865	0.442408
C145	C	-0.714782	-1.016751	-0.401635
C146	C	-0.464782	-0.766751	-0.151635
C147	C	-0.214782	-0.516751	0.098365
C148	C	0.035218	-0.266751	0.348365
C149	C	-0.174166	-1.063898	-0.354632
C150	C	0.075834	-0.813898	-0.104632
C151	C	0.325834	-0.563898	0.145368
C152	C	0.575834	-0.313898	0.395368
C153	C	-0.086310	-1.063933	-0.354644
C154	C	0.163690	-0.813933	-0.104644
C155	C	0.413690	-0.563933	0.145356
C156	C	0.663690	-0.313933	0.395356
C157	C	-0.380349	-1.255769	-0.354625
C158	C	-0.130349	-1.005769	-0.104625
C159	C	0.119651	-0.755769	0.145375
C160	C	0.369651	-0.505769	0.395375
C161	C	-0.380355	-1.337568	-0.354634
C162	C	-0.130355	-1.087568	-0.104634
C163	C	0.119645	-0.837568	0.145366
C164	C	0.369645	-0.587568	0.395366
C165	C	-0.430898	-0.602664	-0.401594
C166	C	-0.180898	-0.352664	-0.151594
C167	C	0.069102	-0.102664	0.098406
C168	C	0.319102	0.147336	0.348406
C169	C	-0.430900	-0.525805	-0.401603
C170	C	-0.180900	-0.275805	-0.151603
C171	C	0.069100	-0.025805	0.098397
C172	C	0.319100	0.224195	0.348397
C173	C	-0.329786	-0.525720	-0.307629
C174	C	-0.079786	-0.275720	-0.057629
C175	C	0.170214	-0.025720	0.192371
C176	C	0.420214	0.224280	0.442371
C177	C	-0.329780	-0.602577	-0.307624
C178	C	-0.079780	-0.352577	-0.057624
C179	C	0.170220	-0.102577	0.192376
C180	C	0.420220	0.147423	0.442376
C181	C	-0.380340	-0.641047	-0.354605
C182	C	-0.130340	-0.391047	-0.104605
C183	C	0.119660	-0.141047	0.145395
C184	C	0.369660	0.108953	0.395395
C185	C	-0.380349	-0.487331	-0.354619
C186	C	-0.130349	-0.237331	-0.104619
C187	C	0.119651	0.012669	0.145381
C188	C	0.369651	0.262669	0.395381
C189	C	-0.380351	-0.403998	-0.354629
C190	C	-0.130351	-0.153998	-0.104629
C191	C	0.119649	0.096002	0.145371
C192	C	0.369649	0.346002	0.395371
C193	C	-0.380337	-0.724386	-0.354597
C194	C	-0.130337	-0.474386	-0.104597
C195	C	0.119663	-0.224386	0.145403
C196	C	0.369663	0.025614	0.395403
C197	C	-0.380566	-1.063663	-0.163396
C198	C	-0.130566	-0.813663	0.086604
C199	C	0.119434	-0.563663	0.336604
C200	C	0.369434	-0.313663	0.586604
C201	C	-0.380466	-1.063722	-0.081598
C202	C	-0.130466	-0.813722	0.168402
C203	C	0.119534	-0.563722	0.418402
C204	C	0.369534	-0.313722	0.668402
C205	C	-0.330055	-1.016494	0.106560
C206	C	-0.080055	-0.766494	0.356560
C207	C	0.169945	-0.516494	0.606560
C208	C	0.419945	-0.266494	0.856560
C209	C	-0.329960	-1.016558	0.183418
C210	C	-0.079960	-0.766558	0.433418
C211	C	0.170040	-0.516558	0.683418
C212	C	0.420040	-0.266558	0.933418
C213	C	-0.430336	-1.111329	0.183482
C214	C	-0.180336	-0.861329	0.433482
C215	C	0.069664	-0.611329	0.683482
C216	C	0.319664	-0.361329	0.933482
C217	C	-0.430426	-1.111267	0.106625
C218	C	-0.180426	-0.861267	0.356625
C219	C	0.069574	-0.611267	0.606625
C220	C	0.319574	-0.361267	0.856625
C221	C	-0.380286	-1.063846	0.068166
C222	C	-0.130286	-0.813846	0.318166
C223	C	0.119714	-0.563846	0.568166
C224	C	0.369714	-0.313846	0.818166
C225	C	-0.380102	-1.063971	0.221881
C226	C	-0.130102	-0.813971	0.471881
C227	C	0.119898	-0.563971	0.721881
C228	C	0.369898	-0.313971	0.971881
C229	C	-0.380000	-1.064041	0.305215
C230	C	-0.130000	-0.814041	0.555215
C231	C	0.120000	-0.564041	0.805215
C232	C	0.370000	-0.314041	1.055215
C233	C	-0.380387	-1.063777	-0.015173
C234	C	-0.130387	-0.813777	0.234827
C235	C	0.119613	-0.563777	0.484827
C236	C	0.369613	-0.313777	0.734827
H237	H	-0.681143	-0.978424	-0.439925
H238	H	-0.431143	-0.728424	-0.189925
H239	H	-0.181143	-0.478424	0.060075
H240	H	0.068857	-0.228424	0.310075
H241	H	-0.472068	-0.494557	-0.439867
H242	H	-0.222068	-0.244557	-0.189867
H243	H	0.027932	0.005443	0.060133
H244	H	0.277932	0.255443	0.310133
H245	H	-0.289056	-0.978001	0.214675
H246	H	-0.039056	-0.728001	0.464675
H247	H	0.210944	-0.478001	0.714675
H248	H	0.460944	-0.228001	0.964675
H249	H	-1.078560	-0.978565	-0.439956
H250	H	-0.828560	-0.728565	-0.189956
H251	H	-0.578560	-0.478565	0.060044
H252	H	-0.328560	-0.228565	0.310044
Cl253	Cl	-0.266229	-0.477352	-0.248568
Cl254	Cl	-0.016229	-0.227352	0.001432
Cl255	Cl	0.233771	0.022648	0.251432
Cl256	Cl	0.483771	0.272648	0.501432
Cl257	Cl	-0.663052	-1.169991	-0.248464
Cl258	Cl	-0.413052	-0.919991	0.001536
Cl259	Cl	-0.163052	-0.669991	0.251536
Cl260	Cl	0.086948	-0.419991	0.501536
Cl261	Cl	-0.972947	-0.910633	-0.507795
Cl262	Cl	-0.722947	-0.660633	-0.257795
Cl263	Cl	-0.472947	-0.410633	-0.007795
Cl264	Cl	-0.222947	-0.160633	0.242205
Cl265	Cl	-0.266211	-0.650834	-0.248552
Cl266	Cl	-0.016211	-0.400834	0.001448
Cl267	Cl	0.233789	-0.150834	0.251448
Cl268	Cl	0.483789	0.099166	0.501448
H269	H	-0.289225	-0.977883	0.075248
H270	H	-0.039225	-0.727883	0.325248
H271	H	0.210775	-0.477883	0.575248
H272	H	0.460775	-0.227883	0.825248
H273	H	-0.471159	-1.149936	0.214805
H274	H	-0.221159	-0.899936	0.464805
H275	H	0.028841	-0.649936	0.714805
H276	H	0.278841	-0.399936	0.964805
H277	H	-0.472066	-0.633984	-0.439851
H278	H	-0.222066	-0.383984	-0.189851
H279	H	0.027934	-0.133984	0.060149
H280	H	0.277934	0.116016	0.310149
H281	H	-0.471331	-1.149831	0.075363
H282	H	-0.221331	-0.899831	0.325363
H283	H	0.028669	-0.649831	0.575363
H284	H	0.278669	-0.399831	0.825363
H285	H	-0.804911	-0.931410	-0.486952
H286	H	-0.554911	-0.681410	-0.236952
H287	H	-0.304911	-0.431410	0.013048
H288	H	-0.054911	-0.181410	0.263048
H289	H	-0.954950	-1.196302	-0.222298
H290	H	-0.704950	-0.946302	0.027702
H291	H	-0.454950	-0.696302	0.277702
H292	H	-0.204950	-0.446302	0.527702
Cl293	Cl	-1.097025	-1.170144	-0.248514
Cl294	Cl	-0.847025	-0.920144	0.001486
Cl295	Cl	-0.597025	-0.670144	0.251486
Cl296	Cl	-0.347025	-0.420144	0.501486
H297	H	-0.805187	-1.196266	-0.222279
H298	H	-0.555187	-0.946266	0.027721
H299	H	-0.305187	-0.696266	0.277721
H300	H	-0.055187	-0.446266	0.527721
