data_functionalizedCrystal
_audit_creation_method	'MofGen! by Chris Wilmer'
_symmetry_space_group_name_H-M	'P1'
_symmetry_Int_Tables_number	1
_symmetry_cell_setting	triclinic
loop_
_symmetry_equiv_pos_as_xyz
  x,y,z
_cell_length_a	19.077212
_cell_length_b	12.759394
_cell_length_c	19.077174
_cell_angle_alpha	92.276241
_cell_angle_beta	85.292016
_cell_angle_gamma	92.306132
loop_
_atom_site_label
_atom_site_type_symbol
_atom_site_fract_x
_atom_site_fract_y
_atom_site_fract_z
Zn1	Zn	1.093791	-0.379354	-0.442036
Zn2	Zn	1.088997	-0.548268	-0.324156
Zn3	Zn	0.971172	-0.379368	-0.319414
Zn4	Zn	0.975889	-0.561759	-0.437256
O5	O	1.032462	-0.467187	-0.380715
O6	O	1.191808	-0.396109	-0.430384
O7	O	1.069387	-0.520222	-0.224876
O8	O	0.987469	-0.232344	-0.335696
O9	O	1.188286	-0.520209	-0.343778
O10	O	1.077557	-0.232334	-0.425786
O11	O	0.982821	-0.396132	-0.221392
O12	O	0.873145	-0.409214	-0.331061
O13	O	0.995509	-0.543203	-0.536541
O14	O	0.876611	-0.543216	-0.417640
O15	O	1.082131	-0.409191	-0.540052
O16	O	1.073961	-0.697079	-0.339143
O17	O	0.990861	-0.706991	-0.422237
C18	C	0.849298	-0.477681	-0.373318
C19	C	0.770940	-0.482197	-0.370169
C20	C	0.329673	-0.514542	-0.347623
C21	C	0.403298	-0.510293	-0.350576
C22	C	0.441949	-0.443670	-0.397217
C23	C	0.406971	-0.381285	-0.440903
C24	C	0.333347	-0.385529	-0.437946
C25	C	0.662339	-0.424056	-0.410899
C26	C	0.735968	-0.419819	-0.413854
C27	C	0.732289	-0.548826	-0.323525
C28	C	0.658664	-0.553069	-0.320576
C29	C	0.623692	-0.490679	-0.364259
N30	N	0.517206	-0.439328	-0.400238
N31	N	0.548437	-0.495017	-0.361235
C32	C	1.032423	-0.740156	-0.380702
C33	C	1.032471	-0.856931	-0.380723
C34	C	1.126215	-0.856770	-0.474598
C35	C	1.173109	-0.911550	-0.521542
C36	C	1.173151	-1.021270	-0.521559
C37	C	1.126293	-1.076213	-0.474628
C38	C	1.079399	-1.021434	-0.427684
C39	C	1.079363	-0.911711	-0.427671
C40	C	0.985653	-1.021595	-0.333814
C41	C	0.985613	-0.911874	-0.333792
C42	C	0.938795	-1.076538	-0.286883
C43	C	0.891903	-1.021758	-0.239934
C44	C	0.891863	-0.912032	-0.239919
C45	C	0.938719	-0.857095	-0.286848
C46	C	1.216342	-0.456653	-0.388143
C47	C	1.294700	-0.452163	-0.391308
C48	C	1.039881	-0.477700	-0.564591
C49	C	1.043043	-0.482180	-0.642948
C50	C	1.032522	-0.193152	-0.380745
C51	C	1.032547	-0.076374	-0.380757
C52	C	0.999460	-0.419679	-0.677946
C53	C	1.002428	-0.423898	-0.751570
C54	C	1.048983	-0.490612	-0.790195
C55	C	1.092567	-0.553120	-0.755192
C56	C	1.089595	-0.548907	-0.681569
C57	C	1.062700	-0.510147	-1.010580
C58	C	1.065671	-0.514354	-1.084208
C59	C	0.975530	-0.385132	-1.080581
C60	C	0.972565	-0.380920	-1.006956
C61	C	1.016147	-0.443432	-0.971960
N62	N	1.052019	-0.494923	-0.865451
N63	N	1.013107	-0.439125	-0.896705
C64	C	1.025113	-0.456637	-0.197557
C65	C	1.022088	-0.451853	-0.119206
H66	H	0.633874	-0.373259	-0.446473
H67	H	0.767436	-0.365559	-0.451833
H68	H	0.934653	-0.326596	-0.975512
O69	O	1.137866	-0.617776	-0.792746
C70	C	1.185121	-0.557792	-0.837191
H71	H	1.188600	-0.473526	-0.815189
H72	H	1.239400	-0.592733	-0.840212
H73	H	1.165577	-0.558612	-0.892109
O74	O	1.126119	-0.750199	-0.474689
C75	C	1.110701	-0.718425	-0.541507
H76	H	1.081144	-0.785102	-0.569400
H77	H	1.076671	-0.646711	-0.535059
H78	H	1.161818	-0.697768	-0.574093
O79	O	1.132001	-0.609658	-0.647681
C80	C	1.173716	-0.669467	-0.697558
H81	H	1.178291	-0.629294	-0.750142
H82	H	1.228397	-0.676286	-0.678524
H83	H	1.148193	-0.751184	-0.704339
H84	H	0.298208	-0.568799	-0.309647
H85	H	0.304874	-0.334730	-0.473516
H86	H	0.938830	-1.165878	-0.286903
H87	H	0.438447	-0.327035	-0.478876
O88	O	0.766151	-0.609526	-0.281064
C89	C	0.716248	-0.669217	-0.239251
H90	H	0.664938	-0.677597	-0.266015
H91	H	0.737204	-0.750316	-0.232487
H92	H	0.706249	-0.628007	-0.185441
O93	O	0.846456	-1.075288	-0.194377
C94	C	0.856532	-1.183878	-0.204477
H95	H	0.911859	-1.196987	-0.229805
H96	H	0.849673	-1.222871	-0.151486
H97	H	0.816213	-1.219582	-0.240304
H98	H	1.126326	-1.165554	-0.474652
O99	O	0.954198	-0.355016	-0.640348
C100	C	0.906922	-0.415008	-0.595929
H101	H	0.931325	-0.492570	-0.585892
H102	H	0.895393	-0.369792	-0.543781
H103	H	0.855822	-0.431170	-0.622192
H104	H	0.938693	-0.767755	-0.286837
O105	O	0.933118	-0.324576	-1.114605
C106	C	0.889303	-0.389438	-1.155358
H107	H	0.884038	-0.471166	-1.132985
H108	H	0.835090	-0.354599	-1.154005
H109	H	0.913350	-0.394999	-1.212036
H110	H	0.431769	-0.561086	-0.315002
H111	H	1.211329	-1.065872	-0.559792
H112	H	1.211259	-0.866805	-0.559754
O113	O	0.621096	-0.617908	-0.275367
C114	C	0.580121	-0.690590	-0.313715
H115	H	0.604561	-0.699099	-0.370122
H116	H	0.578247	-0.769971	-0.288093
H117	H	0.524423	-0.661476	-0.313939
O118	O	0.959987	-0.363233	-0.785479
C119	C	0.888996	-0.389207	-0.764651
H120	H	0.885377	-0.426625	-0.711133
H121	H	0.857300	-0.315047	-0.760856
H122	H	0.866903	-0.446948	-0.805119
O123	O	0.846282	-0.858982	-0.194251
C124	C	0.804923	-0.931011	-0.152852
H125	H	0.833733	-1.007394	-0.151609
H126	H	0.795183	-0.896603	-0.096996
H127	H	0.752410	-0.947279	-0.176474
O128	O	1.110913	-0.579258	-1.121622
C129	C	1.148756	-0.633511	-1.074947
H130	H	1.117761	-0.635806	-1.021300
H131	H	1.157114	-0.717073	-1.096518
H132	H	1.201991	-0.591527	-1.069282
O133	O	1.104939	-0.570979	-0.976558
C134	C	1.063075	-0.638691	-0.932330
H135	H	1.008443	-0.649631	-0.952270
H136	H	1.088524	-0.718035	-0.932523
H137	H	1.058406	-0.603162	-0.876436
