data_functionalizedCrystal
_audit_creation_method	'MofGen! by Chris Wilmer'
_symmetry_space_group_name_H-M	'P1'
_symmetry_Int_Tables_number	1
_symmetry_cell_setting	triclinic
loop_
_symmetry_equiv_pos_as_xyz
  x,y,z
_cell_length_a	13.339070
_cell_length_b	23.532357
_cell_length_c	12.376457
_cell_angle_alpha	101.196651
_cell_angle_beta	75.589755
_cell_angle_gamma	99.228793
loop_
_atom_site_label
_atom_site_type_symbol
_atom_site_fract_x
_atom_site_fract_y
_atom_site_fract_z
O1	O	1.358829	0.277201	-0.094100
O2	O	1.064687	0.239788	-0.094086
O3	O	1.220649	0.176997	-0.094070
O4	O	1.202867	0.339992	-0.094115
O5	O	1.181673	0.192667	0.093938
O6	O	1.025710	0.255459	0.093923
O7	O	1.319852	0.292871	0.093909
Zn8	Zn	1.166593	0.276653	0.123766
Zn9	Zn	1.217946	0.256007	-0.123943
O10	O	1.163890	0.355663	0.093893
C11	C	1.007574	0.241304	-0.000079
C12	C	0.895467	0.222466	-0.000073
C13	C	0.529167	0.368938	-0.000132
C14	C	0.634499	0.386638	-0.000141
C15	C	0.699745	0.345597	-0.000124
C16	C	0.659651	0.286852	-0.000098
C17	C	0.554312	0.269148	-0.000097
C18	C	0.724890	0.245807	-0.000089
C19	C	0.684796	0.187062	-0.000063
C20	C	0.579466	0.169362	-0.000061
C21	C	0.514219	0.210404	-0.000079
C22	C	0.830230	0.263510	-0.000090
C23	C	0.855374	0.163721	-0.000055
C24	C	0.750043	0.146021	-0.000045
C25	C	1.200715	0.163544	-0.000062
C26	C	1.199375	0.100111	-0.000051
C27	C	1.212234	-0.301802	-0.102595
C28	C	1.210963	-0.361407	-0.102602
O29	O	1.228340	-0.399499	-0.189760
N30	N	1.189086	-0.382678	-0.000120
C31	C	1.168469	-0.344341	0.102375
O32	O	1.149744	-0.367907	0.189543
C33	C	1.169732	-0.284738	0.102380
C34	C	1.191621	-0.263469	-0.000108
C35	C	1.234119	-0.280533	-0.205076
C36	C	1.235391	-0.220931	-0.205069
C37	C	1.214778	-0.182599	-0.102582
C38	C	1.192893	-0.203868	-0.000101
C39	C	1.149108	-0.246403	0.204874
C40	C	1.150373	-0.186796	0.204870
C41	C	1.172261	-0.165528	0.102382
C42	C	1.173552	-0.105935	0.102392
N43	N	1.195429	-0.084664	-0.000089
C44	C	1.216042	-0.122996	-0.102576
C45	C	1.165815	-0.469513	0.102356
C46	C	1.164559	-0.529114	0.102352
C47	C	1.207051	-0.546176	-0.102625
C48	C	1.208315	-0.486572	-0.102620
C49	C	1.187692	-0.448241	-0.000126
C50	C	1.218713	0.002171	-0.102554
C51	C	1.219988	0.061779	-0.102538
C52	C	1.177490	0.078835	0.102438
C53	C	1.176221	0.019233	0.102423
C54	C	1.196831	-0.019098	-0.000083
O55	O	1.156181	-0.067809	0.189506
O56	O	1.234751	-0.099423	-0.189730
C57	C	1.376965	0.291356	-0.000100
C58	C	1.489075	0.310193	-0.000114
C59	C	1.183825	0.369115	-0.000117
C60	C	1.185166	0.432548	-0.000135
N61	N	1.131553	0.290744	0.292821
N62	N	1.252994	0.241912	-0.292998
C63	C	1.334333	0.209191	0.647826
C64	C	1.358852	0.199327	0.529489
C65	C	1.302029	0.222180	0.470316
C66	C	1.220684	0.254899	0.529492
C67	C	1.196168	0.264768	0.647841
C68	C	1.163864	0.277757	0.470331
C69	C	1.082518	0.310476	0.529507
C70	C	1.058006	0.320343	0.647844
C71	C	1.114829	0.297489	0.707017
C72	C	1.188380	0.267889	0.351982
C73	C	1.050214	0.323466	0.351997
C74	C	1.025696	0.333330	0.470334
H75	H	0.717385	0.098188	-0.000033
O76	O	1.325653	0.212573	0.355364
C77	C	1.238105	0.182525	0.315857
H78	H	1.164352	0.190439	0.384068
H79	H	1.233552	0.199025	0.236682
H80	H	1.245617	0.133815	0.294873
O81	O	1.253962	-0.317801	-0.304611
C82	C	1.167040	-0.360172	-0.310758
H83	H	1.094211	-0.342529	-0.252596
H84	H	1.156463	-0.370859	-0.401405
H85	H	1.180159	-0.401389	-0.283247
H86	H	0.546828	0.121527	-0.000053
O87	O	0.673548	0.443692	-0.000034
C88	C	0.713529	0.465046	0.097335
H89	H	0.733480	0.427088	0.129834
H90	H	0.786831	0.496772	0.075400
H91	H	0.652608	0.488546	0.165504
H92	H	0.862862	0.311341	-0.000107
O93	O	0.918610	0.123769	-0.000085
C94	C	0.860633	0.068126	-0.000044
H95	H	0.789242	0.067166	-0.035643
H96	H	0.911183	0.033796	-0.054617
H97	H	0.834594	0.058419	0.090158
H98	H	1.094864	0.305518	0.803377
H99	H	1.131286	-0.263708	0.288331
O100	O	1.437711	0.167389	0.472243
C101	C	1.415659	0.110976	0.501466
H102	H	1.328024	0.100699	0.533901
H103	H	1.443704	0.077701	0.423808
H104	H	1.457415	0.108912	0.570316
H105	H	0.428448	0.195995	-0.000071
H106	H	0.476037	0.402347	-0.000156
O107	O	0.802076	0.362848	-0.000276
C108	C	0.850571	0.387998	-0.097673
H109	H	0.789260	0.404221	-0.130153
H110	H	0.910315	0.426195	-0.075782
H111	H	0.891350	0.353915	-0.165840
H112	H	1.223832	-0.577397	-0.186076
H113	H	1.253211	-0.203621	-0.288526
H114	H	1.226136	-0.469261	-0.186075
O115	O	1.241374	0.082490	-0.202057
C116	C	1.330831	0.123847	-0.208216
H117	H	1.379591	0.115877	-0.150116
H118	H	1.378955	0.119465	-0.298881
H119	H	1.306286	0.169641	-0.180633
H120	H	1.146750	-0.546424	0.185809
O121	O	1.238784	-0.034976	-0.202227
C122	C	1.258335	-0.003414	-0.292666
H123	H	1.285006	0.044264	-0.262610
H124	H	1.321853	-0.022474	-0.364366
H125	H	1.183958	-0.006512	-0.324153
O126	O	1.145813	-0.432355	0.202028
C127	C	1.126209	-0.463919	0.292469
H128	H	1.163519	-0.506212	0.262406
H129	H	1.160753	-0.436604	0.364152
H130	H	1.038505	-0.474464	0.323982
H131	H	0.991778	0.346990	0.696026
H132	H	1.133563	-0.155591	0.288336
H133	H	1.380596	0.190590	0.696013
O134	O	1.154904	-0.001337	0.202078
C135	C	1.137016	0.045283	0.292536
H136	H	1.112181	0.082578	0.262493
H137	H	1.072744	0.029903	0.364215
H138	H	1.211655	0.061065	0.324048
O139	O	0.946617	0.365040	0.527950
C140	C	0.870440	0.330426	0.596408
H141	H	0.907461	0.293781	0.614131
H142	H	0.836980	0.358563	0.679628
H143	H	0.805281	0.310943	0.550825
H144	H	1.003946	0.342077	0.303819
O145	O	1.157288	0.116087	0.201955
C146	C	1.069286	0.143712	0.208044
H147	H	1.019828	0.115748	0.149884
H148	H	1.021130	0.149471	0.298683
H149	H	1.095737	0.188253	0.180492
O150	O	1.267324	0.236095	0.294331
C151	C	1.276732	0.232246	0.177191
H152	H	1.241955	0.270152	0.160990
H153	H	1.362586	0.234209	0.132160
H154	H	1.233263	0.189266	0.143699
