data_functionalizedCrystal
_audit_creation_method	'MofGen! by Chris Wilmer'
_symmetry_space_group_name_H-M	'P1'
_symmetry_Int_Tables_number	1
_symmetry_cell_setting	triclinic
loop_
_symmetry_equiv_pos_as_xyz
  x,y,z
_cell_length_a	12.837943
_cell_length_b	10.540539
_cell_length_c	11.892095
_cell_angle_alpha	93.930600
_cell_angle_beta	85.689438
_cell_angle_gamma	89.677216
loop_
_atom_site_label
_atom_site_type_symbol
_atom_site_fract_x
_atom_site_fract_y
_atom_site_fract_z
O1	O	1.384471	0.322967	-0.093973
O2	O	1.082545	0.306651	-0.093980
O3	O	1.240396	0.130859	-0.093975
O4	O	1.226620	0.498759	-0.093978
O5	O	1.227234	0.145491	0.094032
O6	O	1.069383	0.321283	0.094027
O7	O	1.371309	0.337599	0.094034
Zn8	Zn	1.218257	0.331764	0.123881
Zn9	Zn	1.235597	0.312486	-0.123827
O10	O	1.213458	0.513391	0.094029
C11	C	1.037303	0.308455	0.000023
C12	C	0.922104	0.292017	0.000020
C13	C	0.682608	0.489636	0.000034
C14	C	0.574368	0.474197	0.000032
C15	C	0.597382	0.245700	0.000022
C16	C	0.705621	0.261139	0.000024
C17	C	0.748231	0.383111	0.000028
C18	C	0.856473	0.398549	0.000022
C19	C	0.879484	0.170054	0.000020
C20	C	0.771244	0.154614	0.000018
C21	C	1.232782	0.090759	0.000027
C22	C	1.229692	-0.050529	0.000020
C23	C	1.111279	-0.247002	-0.000404
C24	C	1.114382	-0.100007	0.000019
C25	C	1.277668	-0.097735	0.107383
C26	C	1.273726	-0.244704	0.107473
C27	C	1.291038	-0.261604	-0.106326
C28	C	1.292200	-0.114616	-0.107745
C29	C	1.416551	0.335795	0.000029
C30	C	1.531751	0.352232	0.000025
C31	C	1.221072	0.553491	0.000025
C32	C	1.224163	0.694779	0.000024
N33	N	1.206429	0.344921	0.292934
N34	N	1.247433	0.299320	-0.292880
C35	C	1.329731	0.207693	0.529586
C36	C	1.321471	0.216900	0.647928
C37	C	1.181647	0.372535	0.647961
C38	C	1.189906	0.363328	0.529620
C39	C	1.263952	0.280906	0.470436
C40	C	1.272215	0.271706	0.352093
C41	C	1.132387	0.427334	0.352128
C42	C	1.124127	0.436540	0.470470
H43	H	0.562663	0.146403	0.000112
Cl44	Cl	1.365302	0.168094	0.277693
Cl45	Cl	1.031044	0.540149	0.544880
Cl46	Cl	1.422824	0.104094	0.455183
H47	H	0.932927	0.083313	0.000008
Cl48	Cl	1.404166	0.124854	0.722285
H49	H	1.121354	0.439632	0.696164
Cl50	Cl	1.032790	-0.292728	0.117446
H51	H	1.078828	0.486952	0.303955
Cl52	Cl	0.717668	0.001287	0.000016
Cl53	Cl	1.055285	-0.050879	-0.118803
Cl54	Cl	1.422698	-0.063735	-0.117760
H55	H	0.891163	0.497865	0.000027
H56	H	1.065016	-0.057082	0.077107
Cl57	Cl	0.736179	0.642966	0.000024
Cl58	Cl	0.491873	0.608121	0.000043
H59	H	1.071118	-0.286599	-0.077396
Cl60	Cl	1.419704	-0.320479	-0.107441
H61	H	1.227097	-0.271164	0.187727
H62	H	1.356314	-0.283183	0.112346
H63	H	1.362068	-0.065766	0.111377
H64	H	1.233527	-0.053152	0.187277
H65	H	1.259415	-0.303591	-0.187700
H66	H	1.257157	-0.084400	-0.187169
