data_functionalizedCrystal
_audit_creation_method	'MofGen! by Chris Wilmer'
_symmetry_space_group_name_H-M	'P1'
_symmetry_Int_Tables_number	1
_symmetry_cell_setting	triclinic
loop_
_symmetry_equiv_pos_as_xyz
  x,y,z
_cell_length_a	19.288859
_cell_length_b	17.699083
_cell_length_c	17.766277
_cell_angle_alpha	89.992740
_cell_angle_beta	89.989768
_cell_angle_gamma	83.208370
loop_
_atom_site_label
_atom_site_type_symbol
_atom_site_fract_x
_atom_site_fract_y
_atom_site_fract_z
O1	O	0.921467	0.094395	-0.062610
O2	O	1.254801	0.427728	0.270723
O3	O	1.588134	0.761062	0.604056
O4	O	0.719221	0.107137	-0.062609
O5	O	1.052555	0.440470	0.270724
O6	O	1.385888	0.773803	0.604058
O7	O	0.826058	-0.009432	-0.062603
O8	O	1.159392	0.323902	0.270730
O9	O	1.492725	0.657235	0.604064
O10	O	0.814630	0.210963	-0.062616
O11	O	1.147964	0.544297	0.270717
O12	O	1.481297	0.877630	0.604050
O13	O	0.826040	-0.009437	0.062585
O14	O	1.159373	0.323896	0.395919
O15	O	1.492706	0.657229	0.729252
O16	O	0.719203	0.107131	0.062580
O17	O	1.052536	0.440464	0.395913
O18	O	1.385869	0.773797	0.729246
O19	O	0.921449	0.094389	0.062578
O20	O	1.254782	0.427722	0.395911
O21	O	1.588115	0.761056	0.729245
Cu22	Cu	0.820324	0.100759	0.074010
Cu23	Cu	1.153657	0.434093	0.407343
Cu24	Cu	1.486991	0.767426	0.740676
Cu25	Cu	0.820346	0.100766	-0.074040
Cu26	Cu	1.153679	0.434100	0.259293
Cu27	Cu	1.487013	0.767433	0.592626
O28	O	0.814612	0.210957	0.062572
O29	O	1.147945	0.544291	0.395906
O30	O	1.481278	0.877624	0.729239
C31	C	0.693335	0.106724	-0.000014
C32	C	1.026668	0.440058	0.333319
C33	C	1.360002	0.773391	0.666652
C34	C	0.616230	0.105496	-0.000014
C35	C	0.949563	0.438829	0.333320
C36	C	1.282896	0.772163	0.666653
C37	C	0.052260	0.165583	-0.000018
C38	C	0.385593	0.498917	0.333315
C39	C	0.718927	0.832250	0.666648
C40	C	0.124708	0.166744	-0.000022
C41	C	0.458041	0.500077	0.333311
C42	C	0.791375	0.833411	0.666644
C43	C	0.169334	0.098347	-0.000017
C44	C	0.502667	0.431681	0.333317
C45	C	0.836000	0.765014	0.666650
C46	C	0.141506	0.028784	-0.000027
C47	C	0.474840	0.362118	0.333307
C48	C	0.808173	0.695451	0.666640
C49	C	0.069060	0.027626	-0.000030
C50	C	0.402393	0.360959	0.333303
C51	C	0.735726	0.694292	0.666637
C52	C	0.290537	0.047335	0.043848
C53	C	0.623870	0.380668	0.377181
C54	C	0.957204	0.714002	0.710515
C55	C	0.362982	0.048497	0.043856
C56	C	0.696315	0.381830	0.377190
C57	C	1.029649	0.715163	0.710523
C58	C	0.392784	0.101919	-0.000009
C59	C	0.726117	0.435252	0.333324
C60	C	1.059451	0.768585	0.666657
C61	C	0.350130	0.154191	-0.043873
C62	C	0.683463	0.487525	0.289460
C63	C	1.016797	0.820858	0.622793
C64	C	0.277683	0.153033	-0.043877
C65	C	0.611017	0.486366	0.289456
C66	C	0.944350	0.819699	0.622790
C67	C	0.247891	0.099596	-0.000013
C68	C	0.581224	0.432929	0.333320
C69	C	0.914558	0.766263	0.666653
C70	C	0.499159	0.172736	-0.000009
C71	C	0.832493	0.506069	0.333324
C72	C	1.165826	0.839402	0.666657
C73	C	0.571609	0.173894	-0.000018
C74	C	0.904942	0.507227	0.333315
C75	C	1.238275	0.840560	0.666649
C76	C	0.588406	0.035932	-0.000015
C77	C	0.921739	0.369265	0.333319
C78	C	1.255073	0.702599	0.666652
C79	C	0.515958	0.034776	-0.000014
C80	C	0.849291	0.368109	0.333320
C81	C	1.182624	0.701443	0.666653
C82	C	0.471338	0.103180	-0.000007
C83	C	0.804672	0.436513	0.333326
C84	C	1.138005	0.769847	0.666659
C85	C	0.825639	-0.037631	-0.000009
C86	C	1.158973	0.295702	0.333325
C87	C	1.492306	0.629036	0.666658
C88	C	0.824411	-0.121647	-0.000008
C89	C	1.157744	0.211686	0.333325
C90	C	1.491078	0.545019	0.666658
C91	C	0.887122	-0.170358	-0.000008
C92	C	1.220455	0.162976	0.333325
C93	C	1.553789	0.496309	0.666659
C94	C	0.885964	-0.249299	-0.000015
C95	C	1.219297	0.084034	0.333319
C96	C	1.552630	0.417367	0.666652
C97	C	0.822093	-0.279529	-0.000016
C98	C	1.155427	0.053804	0.333317
C99	C	1.488760	0.387138	0.666650
C100	C	0.759378	-0.230812	-0.000019
C101	C	1.092711	0.102521	0.333314
C102	C	1.426044	0.435855	0.666647
C103	C	0.760537	-0.151872	-0.000018
C104	C	1.093870	0.181461	0.333315
C105	C	1.427203	0.514795	0.666649
C106	C	0.754702	-0.549169	-0.000025
C107	C	1.088035	-0.215835	0.333308
C108	C	1.421368	0.117498	0.666641
C109	C	0.753547	-0.628115	-0.000024
C110	C	1.086881	-0.294782	0.333309
C111	C	1.420214	0.038552	0.666642
C112	C	0.880129	-0.646596	-0.000022
C113	C	1.213462	-0.313263	0.333311
C114	C	1.546795	0.020071	0.666645
C115	C	0.881288	-0.567656	-0.000021
C116	C	1.214621	-0.234323	0.333313
C117	C	1.547954	0.099011	0.666646
C118	C	0.818572	-0.518946	-0.000027
C119	C	1.151905	-0.185613	0.333306
C120	C	1.485239	0.147721	0.666639
C121	C	0.819829	-0.433349	-0.000022
C122	C	1.153162	-0.100015	0.333312
C123	C	1.486496	0.233318	0.666645
C124	C	0.820836	-0.365125	-0.000017
C125	C	1.154169	-0.031791	0.333317
C126	C	1.487503	0.301542	0.666650
C127	C	0.947335	0.094801	-0.000018
C128	C	1.280668	0.428135	0.333315
C129	C	1.614002	0.761468	0.666649
C130	C	1.024440	0.096030	-0.000024
C131	C	1.357774	0.429363	0.333309
C132	C	1.691107	0.762696	0.666643
C133	C	0.815031	0.239157	-0.000024
C134	C	1.148364	0.572490	0.333310
C135	C	1.481697	0.905823	0.666643
C136	C	0.816259	0.323173	-0.000029
C137	C	1.149592	0.656506	0.333304
C138	C	1.482926	0.989840	0.666638
N139	N	0.820313	0.100754	0.178140
N140	N	1.153647	0.434087	0.511473
N141	N	1.486980	0.767421	0.844807
N142	N	0.820362	0.100766	-0.178171
N143	N	1.153695	0.434099	0.155163
N144	N	1.487029	0.767432	0.488496
C145	C	0.867636	0.049163	0.217529
C146	C	1.200969	0.382496	0.550863
C147	C	1.534303	0.715830	0.884196
C148	C	0.867640	0.049159	0.296331
C149	C	1.200973	0.382493	0.629664
C150	C	1.534307	0.715826	0.962998
C151	C	0.820328	0.100760	0.335740
C152	C	1.153661	0.434093	0.669074
C153	C	1.486995	0.767427	1.002407
C154	C	0.772996	0.152355	0.296341
C155	C	1.106330	0.485688	0.629675
C156	C	1.439663	0.819022	0.963008
C157	C	0.772989	0.152352	0.217541
C158	C	1.106323	0.485685	0.550874
C159	C	1.439656	0.819019	0.884208
C160	C	0.811111	0.169722	0.460574
C161	C	1.144444	0.503055	0.793908
C162	C	1.477778	0.836389	1.127241
C163	C	0.811123	0.169726	0.539373
C164	C	1.144456	0.503059	0.872706
C165	C	1.477790	0.836393	1.206040
C166	C	0.820347	0.100769	0.578787
C167	C	1.153680	0.434102	0.912120
C168	C	1.487013	0.767436	1.245453
C169	C	0.829573	0.031805	0.539392
C170	C	1.162906	0.365139	0.872725
C171	C	1.496239	0.698472	1.206058
C172	C	0.829565	0.031802	0.460592
C173	C	1.162899	0.365136	0.793925
C174	C	1.496232	0.698469	1.127258
C175	C	0.820330	0.100769	0.421186
C176	C	1.153664	0.434102	0.754519
C177	C	1.486997	0.767435	1.087853
C178	C	0.867676	0.049170	0.703622
C179	C	1.201010	0.382503	1.036955
C180	C	1.534343	0.715837	1.370289
C181	C	0.867675	0.049165	0.782425
C182	C	1.201009	0.382499	1.115759
C183	C	1.534342	0.715832	1.449092
C184	C	0.773035	0.152368	0.782434
C185	C	1.106368	0.485701	1.115767
C186	C	1.439702	0.819034	1.449101
C187	C	0.773033	0.152366	0.703632
C188	C	1.106366	0.485699	1.036966
C189	C	1.439699	0.819032	1.370299
C190	C	0.820357	0.100768	0.664231
C191	C	1.153690	0.434101	0.997564
C192	C	1.487024	0.767434	1.330898
H193	H	0.242958	0.195594	-0.079594
H194	H	0.576291	0.528927	0.253739
H195	H	0.909624	0.862260	0.587073
H196	H	0.177845	-0.026905	-0.000024
H197	H	0.511179	0.306429	0.333309
H198	H	0.844512	0.639762	0.666642
H199	H	0.397705	0.005937	0.079577
H200	H	0.731038	0.339270	0.412910
H201	H	1.064372	0.672604	0.746244
F202	F	0.601215	0.247926	-0.000019
F203	F	0.934549	0.581260	0.333314
F204	F	1.267882	0.914593	0.666647
F205	F	0.722641	0.207270	0.338284
F206	F	1.055974	0.540603	0.671617
F207	F	1.389308	0.873937	1.004951
F208	F	0.918041	-0.005751	0.824348
F209	F	1.251374	0.327582	1.157682
F210	F	1.584708	0.660915	1.491015
F211	F	0.039452	-0.046406	-0.000038
F212	F	0.372785	0.286927	0.333295
F213	F	0.706118	0.620260	0.666628
F214	F	0.486349	-0.039254	-0.000021
F215	F	0.819682	0.294080	0.333312
F216	F	1.153016	0.627413	0.666645
F217	F	0.258831	-0.009557	0.090504
F218	F	0.592165	0.323776	0.423837
F219	F	0.925498	0.657109	0.757171
H220	H	0.147363	0.223385	-0.000011
H221	H	0.480697	0.556718	0.333323
H222	H	0.814030	0.890052	0.666656
H223	H	0.939133	-0.145752	-0.000002
H224	H	1.272466	0.187582	0.333332
H225	H	1.605799	0.520915	0.666665
H226	H	0.937029	-0.288957	-0.000012
H227	H	1.270363	0.044376	0.333321
H228	H	1.603696	0.377710	0.666654
F229	F	0.381840	0.211057	-0.090555
F230	F	0.715173	0.544391	0.242778
F231	F	1.048507	0.877724	0.576111
F232	F	0.004777	0.238386	-0.000019
F233	F	0.338110	0.571719	0.333314
F234	F	0.671444	0.905052	0.666647
H235	H	0.837083	-0.024346	0.571481
H236	H	1.170417	0.308987	0.904814
H237	H	1.503750	0.642321	1.238147
F238	F	0.451670	0.245536	-0.000005
F239	F	0.785003	0.578870	0.333329
F240	F	1.118336	0.912203	0.666662
F241	F	0.635895	-0.036862	-0.000018
F242	F	0.969229	0.296471	0.333315
F243	F	1.302562	0.629805	0.666648
F244	F	0.946877	-0.698443	-0.000017
F245	F	1.280210	-0.365110	0.333316
F246	F	1.613543	-0.031776	0.666649
H247	H	0.933297	-0.543048	-0.000015
H248	H	1.266631	-0.209714	0.333318
H249	H	1.599964	0.123619	0.666651
F250	F	0.685564	-0.660285	-0.000027
F251	F	1.018898	-0.326951	0.333306
F252	F	1.352231	0.006382	0.666639
F253	F	0.687954	-0.497338	-0.000034
F254	F	1.021287	-0.164004	0.333299
F255	F	1.354621	0.169329	0.666632
F256	F	0.691402	-0.262987	-0.000030
F257	F	1.024735	0.070347	0.333304
F258	F	1.358068	0.403680	0.666637
H259	H	0.906169	0.007147	0.185451
H260	H	1.239502	0.340480	0.518784
H261	H	1.572835	0.673814	0.852118
H262	H	0.709471	-0.112212	-0.000019
H263	H	1.042804	0.221121	0.333315
H264	H	1.376137	0.554455	0.666648
H265	H	0.803588	0.225879	0.428490
H266	H	1.136921	0.559212	0.761824
H267	H	1.470255	0.892545	1.095157
F268	F	0.722620	0.207265	0.175618
F269	F	1.055953	0.540598	0.508951
F270	F	1.389287	0.873932	0.842285
H271	H	0.906177	0.007146	0.328408
H272	H	1.239511	0.340479	0.661741
H273	H	1.572844	0.673813	0.995075
F274	F	0.839379	-0.041592	0.418667
F275	F	1.172712	0.291742	0.752001
F276	F	1.506045	0.625075	1.085334
F277	F	0.918040	-0.005748	0.661688
F278	F	1.251373	0.327585	0.995021
F279	F	1.584707	0.660918	1.328354
F280	F	0.722668	0.207279	0.661708
F281	F	1.056002	0.540613	0.995041
F282	F	1.389335	0.873946	1.328375
F283	F	0.722678	0.207280	0.824373
F284	F	1.056011	0.540614	1.157706
F285	F	1.389345	0.873947	1.491039
F286	F	0.801309	0.243123	0.581293
F287	F	1.134642	0.576456	0.914626
F288	F	1.467975	0.909789	1.247960
